drugbank_target|Q15031 Probable leucine--tRNA ligase, mitochondrial (DB00149)
 OpenBabel12092119263D

  0  0  0     0  0            999 V3000
M  V30 BEGIN CTAB
M  V30 COUNTS 19807 21090 0 0 0
M  V30 BEGIN ATOM
M  V30 1 H -2.588 8.49073 -0.0679273 0
M  V30 2 O -1.492 9.37262 0.0843559 0
M  V30 3 P 0 8.791 0 0
M  V30 4 O 1.422 9.31096 0.027933 0
M  V30 5 O -0.36 7.77869 -1.04071 0
M  V30 6 O -0.323 8.09533 1.41463 0
M  V30 7 C -0.483 9.0349 2.53943 0
M  V30 8 C 0.057 8.35226 3.79016 0
M  V30 9 O -0.999 7.57992 4.15078 0
M  V30 10 C 1.275 7.45087 3.67298 0
M  V30 11 O 2.013 7.27796 4.85194 0
M  V30 12 C 0.606 6.17323 3.12027 0
M  V30 13 O 1.405 5.04231 3.47188 0
M  V30 14 C -0.731 6.19961 3.81809 0
M  V30 15 H -0.699 5.58218 4.73051 0
M  V30 16 H 0.484 6.21726 2.02589 0
M  V30 17 H 1.968 7.86112 2.9231 0
M  V30 18 H 0.274 9.11627 4.55076 0
M  V30 19 H 0.084 9.9573 2.34194 0
M  V30 20 H -1.546 9.2792 2.67832 0
M  V30 21 H 1.093 4.67702 4.28772 0
M  V30 22 P 2.95057 7.39546 4.75277 0
M  V30 23 O 4.37157 7.81861 5.05793 0
M  V30 24 O 2.59057 7.1065 3.32998 0
M  V30 25 O 2.62757 6.04542 5.56673 0
M  V30 26 C 2.46657 6.22839 7.02169 0
M  V30 27 C 3.00757 4.97725 7.70406 0
M  V30 28 O 1.95257 4.13208 7.58899 0
M  V30 29 C 4.22557 4.28231 7.11815 0
M  V30 30 O 4.96357 3.49945 8.01648 0
M  V30 31 C 3.55757 3.5063 5.96244 0
M  V30 32 O 4.35557 2.37008 5.64352 0
M  V30 33 C 2.21957 3.15122 6.56374 0
M  V30 34 N 1.17657 3.22311 5.55692 0
M  V30 35 C 1.34557 3.99655 4.46046 0
M  V30 36 N 0.31857 3.97599 3.63918 0
M  V30 37 C -0.56643 3.11159 4.25334 0
M  V30 38 C -1.83343 2.64972 3.85157 0
M  V30 39 N -2.43243 3.02132 2.69405 0
M  V30 40 N -2.39843 1.78482 4.74759 0
M  V30 41 C -1.79643 1.37463 5.90819 0
M  V30 42 N -0.61943 1.7733 6.31889 0
M  V30 43 C -0.04443 2.64393 5.43725 0
M  V30 44 H 2.25157 2.13823 6.99656 0
M  V30 45 H 3.43457 4.12931 5.06895 0
M  V30 46 H 4.91757 5.03285 6.70911 0
M  V30 47 H 3.22357 5.20001 8.76217 0
M  V30 48 H 3.03357 7.11046 7.35349 0
M  V30 49 H 1.40357 6.35815 7.26986 0
M  V30 50 H -2.33243 0.66574 6.53015 0
M  V30 51 H 2.24557 4.58037 4.27732 0
M  V30 52 H -3.36243 2.64828 2.45331 0
M  V30 53 H -1.95843 3.67472 2.05644 0
M  V30 54 H 4.04357 1.61619 6.13468 0
M  V30 55 P 5.90114 3.65191 7.99657 0
M  V30 56 O 7.32314 3.8425 8.48115 0
M  V30 57 O 5.54114 4.17805 6.64342 0
M  V30 58 O 5.57814 2.07613 7.95143 0
M  V30 59 C 5.41814 1.44328 9.27336 0
M  V30 60 C 5.95814 0.0220036 9.17197 0
M  V30 61 O 4.90214 -0.626867 8.61923 0
M  V30 62 C 7.17614 -0.24586 8.30336 0
M  V30 63 O 7.91414 -1.39011 8.63583 0
M  V30 64 C 6.50714 -0.273849 6.91158 0
M  V30 65 O 7.30614 -1.06348 6.02892 0
M  V30 66 C 5.17014 -0.897649 7.22545 0
M  V30 67 H 5.20214 -1.9841 7.04286 0
M  V30 68 H 6.38514 0.739928 6.497 0
M  V30 69 H 7.86914 0.60668 8.36503 0
M  V30 70 H 6.17514 -0.352479 10.1829 0
M  V30 71 H 5.98514 2.00611 10.0304 0
M  V30 72 H 4.35514 1.41843 9.55327 0
M  V30 73 H 6.99414 -1.95734 6.03555 0
M  V30 74 P 8.85171 -1.25109 8.70152 0
M  V30 75 O 10.2737 -1.35274 9.21221 0
M  V30 76 O 8.49171 -0.0769065 7.84762 0
M  V30 77 O 8.52871 -2.55232 7.81161 0
M  V30 78 C 8.36871 -3.79939 8.58154 0
M  V30 79 C 8.90871 -4.94023 7.72785 0
M  V30 80 O 7.85271 -5.18726 6.91205 0
M  V30 81 C 10.1267 -4.69597 6.85231 0
M  V30 82 O 10.8647 -5.83832 6.51337 0
M  V30 83 C 9.45771 -3.96706 5.66633 0
M  V30 84 O 10.2567 -4.15414 4.49689 0
M  V30 85 C 8.12071 -4.66153 5.59313 0
M  V30 86 H 8.15271 -5.47679 4.85214 0
M  V30 87 H 9.33571 -2.89008 5.86566 0
M  V30 88 H 10.8197 -4.0121 7.36511 0
M  V30 89 H 9.12571 -5.80182 8.37584 0
M  V30 90 H 8.93571 -3.73517 9.52265 0
M  V30 91 H 7.30571 -3.97163 8.80359 0
M  V30 92 H 9.94471 -4.90969 4.01921 0
M  V30 93 P 11.8023 -5.75688 6.64379 0
M  V30 94 O 13.2243 -6.11849 7.01846 0
M  V30 95 O 11.4423 -4.30744 6.56026 0
M  V30 96 O 11.4793 -6.37042 5.19165 0
M  V30 97 C 11.3193 -7.83578 5.16515 0
M  V30 98 C 11.8593 -8.33398 3.83019 0
M  V30 99 O 10.8033 -8.10074 3.01034 0
M  V30 100 C 13.0773 -7.65514 3.2257 0
M  V30 101 O 13.8153 -8.4329 2.32297 0
M  V30 102 C 12.4083 -6.40075 2.62207 0
M  V30 103 O 13.2073 -5.92589 1.53712 0
M  V30 104 C 11.0713 -6.9454 2.18503 0
M  V30 105 H 11.1033 -7.23063 1.12091 0
M  V30 106 H 12.2863 -5.6025 3.37201 0
M  V30 107 H 13.7703 -7.35707 4.02681 0
M  V30 108 H 12.0763 -9.40912 3.9095 0
M  V30 109 H 11.8863 -8.29056 5.99158 0
M  V30 110 H 10.2563 -8.10073 5.25882 0
M  V30 111 H 12.8953 -6.30324 0.726794 0
M  V30 112 P 14.7528 -8.4349 2.47671 0
M  V30 113 O 16.1748 -8.94167 2.5964 0
M  V30 114 O 14.3928 -7.1704 3.19006 0
M  V30 115 O 14.4298 -8.16596 0.923387 0
M  V30 116 C 14.2698 -9.38437 0.108857 0
M  V30 117 C 14.8098 -9.08175 -1.28353 0
M  V30 118 O 13.7538 -8.44229 -1.84713 0
M  V30 119 C 16.0278 -8.18386 -1.42505 0
M  V30 120 O 16.7659 -8.3501 -2.60497 0
M  V30 121 C 15.3588 -6.80225 -1.25468 0
M  V30 122 O 16.1578 -5.81621 -1.91066 0
M  V30 123 C 14.0218 -7.02416 -1.9168 0
M  V30 124 H 14.0538 -6.6888 -2.96621 0
M  V30 125 H 15.2368 -6.53617 -0.192223 0
M  V30 126 H 16.7208 -8.36622 -0.589963 0
M  V30 127 H 15.0268 -10.0291 -1.79807 0
M  V30 128 H 14.8368 -10.2138 0.558219 0
M  V30 129 H 13.2068 -9.6579 0.0444202 0
M  V30 130 H 15.8458 -5.69556 -2.79637 0
M  V30 131 P 17.7034 -8.4349 -2.47671 0
M  V30 132 O 19.1244 -8.92689 -2.65029 0
M  V30 133 O 17.3434 -7.7568 -1.19296 0
M  V30 134 O 17.3804 -7.36886 -3.63805 0
M  V30 135 C 17.2194 -7.95433 -4.98253 0
M  V30 136 C 17.7604 -6.94612 -5.98974 0
M  V30 137 O 16.7054 -6.10277 -6.11744 0
M  V30 138 C 18.9784 -6.11426 -5.62335 0
M  V30 139 O 19.7164 -5.6162 -6.70584 0
M  V30 140 C 18.3104 -5.04409 -4.73308 0
M  V30 141 O 19.1084 -3.86404 -4.74719 0
M  V30 142 C 16.9724 -4.8728 -5.41006 0
M  V30 143 N 15.9294 -4.65812 -4.42377 0
M  V30 144 C 16.0984 -5.09132 -3.15382 0
M  V30 145 N 15.0714 -4.84021 -2.3716 0
M  V30 146 C 14.1864 -4.18386 -3.20441 0
M  V30 147 C 12.9194 -3.6275 -2.94905 0
M  V30 148 N 12.3544 -3.05008 -4.05243 0
M  V30 149 C 12.9564 -2.98348 -5.28159 0
M  V30 150 N 14.1334 -3.48171 -5.56333 0
M  V30 151 C 14.7084 -4.06869 -4.47212 0
M  V30 152 H 18.1874 -5.39013 -3.70026 0
M  V30 153 H 19.6704 -6.71916 -5.01943 0
M  V30 154 H 17.9764 -7.45796 -6.94223 0
M  V30 155 H 17.7864 -8.89416 -5.05237 0
M  V30 156 H 16.1564 -8.14876 -5.18409 0
M  V30 157 H 16.9984 -5.59989 -2.81362 0
M  V30 158 H 18.7964 -3.27906 -5.43085 0
M  V30 159 P 20.654 -5.75688 -6.64379 0
M  V30 160 O 22.076 -6.07627 -7.05504 0
M  V30 161 O 20.294 -5.88047 -5.19722 0
M  V30 162 O 20.331 -4.2322 -7.04443 0
M  V30 163 C 20.171 -3.99743 -8.4911 0
M  V30 164 C 20.711 -2.60516 -8.79425 0
M  V30 165 O 19.655 -1.82684 -8.4467 0
M  V30 166 C 21.929 -2.10343 -8.03628 0
M  V30 167 O 22.667 -1.09919 -8.67766 0
M  V30 168 C 21.26 -1.68446 -6.70876 0
M  V30 169 O 22.059 -0.678137 -6.08433 0
M  V30 170 C 19.923 -1.17436 -7.18567 0
M  V30 171 H 19.955 -0.0804732 -7.31656 0
M  V30 172 H 21.138 -2.54037 -6.02537 0
M  V30 173 H 22.622 -2.93881 -7.85526 0
M  V30 174 H 20.928 -2.53065 -9.86973 0
M  V30 175 H 20.738 -4.75072 -9.05887 0
M  V30 176 H 19.108 -4.05244 -8.76668 0
M  V30 177 H 21.747 0.177647 -6.34251 0
M  V30 178 P 23.6046 -1.25109 -8.70152 0
M  V30 179 O 25.0266 -1.29772 -9.22214 0
M  V30 180 O 23.2446 -2.13714 -7.55141 0
M  V30 181 O 23.2816 0.248149 -8.21425 0
M  V30 182 C 23.1216 1.22779 -9.30434 0
M  V30 183 C 23.6616 2.56265 -8.80568 0
M  V30 184 O 22.6066 3.02979 -8.09349 0
M  V30 185 C 24.8796 2.57523 -7.89775 0
M  V30 186 O 25.6176 3.7668 -7.89438 0
M  V30 187 C 24.2116 2.20997 -6.55446 0
M  V30 188 O 25.0096 2.71851 -5.48419 0
M  V30 189 C 22.8736 2.89693 -6.67988 0
M  V30 190 N 21.8306 2.08895 -6.07487 0
M  V30 191 C 21.8926 0.760559 -6.14209 0
M  V30 192 N 20.8476 0.200108 -5.52538 0
M  V30 193 C 20.1136 1.22692 -5.09742 0
M  V30 194 C 18.8076 1.24782 -4.48775 0
M  V30 195 O 18.0746 0.290617 -4.19294 0
M  V30 196 N 18.3776 2.50468 -4.22428 0
M  V30 197 C 19.1266 3.67142 -4.51974 0
M  V30 198 N 18.5296 4.85096 -4.14091 0
M  V30 199 N 20.2796 3.67821 -5.12831 0
M  V30 200 C 20.7366 2.43698 -5.4105 0
M  V30 201 H 22.9056 3.88793 -6.19859 0
M  V30 202 H 24.0886 1.12029 -6.4413 0
M  V30 203 H 25.5736 1.78279 -8.19533 0
M  V30 204 H 23.8786 3.20706 -9.67112 0
M  V30 205 H 23.6886 0.901032 -10.1892 0
M  V30 206 H 22.0576 1.33049 -9.56592 0
M  V30 207 H 17.4816 2.61953 -3.79465 0
M  V30 208 H 22.6886 0.200439 -6.63497 0
M  V30 209 H 17.6186 4.8334 -3.66367 0
M  V30 210 H 18.9946 5.7474 -4.33841 0
M  V30 211 H 24.6986 3.5779 -5.23879 0
M  V30 212 P 26.5551 3.65191 -7.99657 0
M  V30 213 O 27.9771 3.89332 -8.45794 0
M  V30 214 O 26.1951 2.28472 -7.50807 0
M  V30 215 O 26.2321 4.64972 -6.77611 0
M  V30 216 C 26.0721 6.06319 -7.16352 0
M  V30 217 C 26.6121 6.91731 -6.02299 0
M  V30 218 O 25.5561 6.92449 -5.17064 0
M  V30 219 C 27.8301 6.43627 -5.25174 0
M  V30 220 O 28.5681 7.43686 -4.60469 0
M  V30 221 C 27.1611 5.40275 -4.31916 0
M  V30 222 O 27.9601 5.25279 -3.14438 0
M  V30 223 C 25.8241 6.04847 -4.05327 0
M  V30 224 H 25.8561 6.62195 -3.11261 0
M  V30 225 H 27.0391 4.42556 -4.81383 0
M  V30 226 H 28.5231 5.92458 -5.93643 0
M  V30 227 H 26.8291 7.92655 -6.402 0
M  V30 228 H 26.6391 6.26671 -8.0846 0
M  V30 229 H 25.0091 6.29101 -7.32804 0
M  V30 230 H 27.6481 5.84315 -2.47318 0
M  V30 231 P 29.5057 7.39546 -4.75277 0
M  V30 232 O 30.9067 7.86988 -5.07993 0
M  V30 233 O 29.1277 5.99957 -5.13804 0
M  V30 234 O 29.1827 7.57411 -3.18621 0
M  V30 235 C 29.0227 8.97357 -2.74833 0
M  V30 236 C 29.5627 9.0745 -1.32694 0
M  V30 237 O 28.5067 8.61972 -0.606089 0
M  V30 238 C 30.7797 8.25383 -0.938334 0
M  V30 239 O 31.5187 8.74577 0.146954 0
M  V30 240 C 30.1127 6.8802 -0.712559 0
M  V30 241 O 30.9107 6.11791 0.194623 0
M  V30 242 C 28.7747 7.27966 -0.139777 0
M  V30 243 N 27.7317 6.39368 -0.623421 0
M  V30 244 C 26.6967 6.08088 0.223886 0
M  V30 245 O 26.7357 6.5102 1.39986 0
M  V30 246 N 25.6847 5.30627 -0.224051 0
M  V30 247 C 25.7327 4.82531 -1.47257 0
M  V30 248 C 26.8287 5.09974 -2.34008 0
M  V30 249 C 27.7947 5.89548 -1.87678 0
M  V30 250 H 28.8067 7.25255 0.961469 0
M  V30 251 H 29.9897 6.32625 -1.65044 0
M  V30 252 H 31.4737 8.19631 -1.78299 0
M  V30 253 H 29.7797 10.1305 -1.09016 0
M  V30 254 H 29.5887 9.64276 -3.41316 0
M  V30 255 H 27.9587 9.25321 -2.76328 0
M  V30 256 H 26.8767 4.67832 -3.3413 0
M  V30 257 H 28.6407 6.14434 -2.51991 0
M  V30 258 H 30.6947 6.35931 1.08377 0
M  V30 259 P 32.4563 8.791 -9.96115e-15 0
M  V30 260 O 33.8773 9.31196 0.027936 0
M  V30 261 O 32.0963 7.77869 -1.04071 0
M  V30 262 O 32.1333 8.09533 1.41463 0
M  V30 263 C 31.9723 9.03587 2.5397 0
M  V30 264 C 32.5133 8.35226 3.79016 0
M  V30 265 O 31.4583 7.57904 4.1503 0
M  V30 266 C 33.7313 7.45087 3.67298 0
M  V30 267 O 34.4693 7.27796 4.85194 0
M  V30 268 C 33.0633 6.17323 3.12027 0
M  V30 269 O 33.8613 5.04496 3.46627 0
M  V30 270 C 31.7253 6.19961 3.81809 0
M  V30 271 N 30.6823 5.71575 2.93223 0
M  V30 272 C 30.8513 5.77362 1.59168 0
M  V30 273 N 29.8243 5.3123 0.911893 0
M  V30 274 C 28.9393 4.91717 1.89588 0
M  V30 275 C 27.6723 4.3114 1.8076 0
M  V30 276 N 27.0733 3.99821 0.632928 0
M  V30 277 N 27.1073 4.06823 3.02898 0
M  V30 278 C 27.7093 4.35062 4.22711 0
M  V30 279 N 28.8863 4.90805 4.35707 0
M  V30 280 C 29.4613 5.16382 3.14469 0
M  V30 281 H 31.7573 5.58142 4.72986 0
M  V30 282 H 32.9403 6.21428 2.0318 0
M  V30 283 H 34.4233 7.86112 2.9231 0
M  V30 284 H 32.7293 9.11171 4.55987 0
M  V30 285 H 32.5393 9.9573 2.34194 0
M  V30 286 H 30.9093 9.2792 2.67832 0
M  V30 287 H 27.1733 4.09052 5.13359 0
M  V30 288 H 31.7513 6.16575 1.12198 0
M  V30 289 H 26.1433 3.55423 0.632085 0
M  V30 290 H 27.5473 4.20317 -0.256712 0
M  V30 291 H 33.5493 4.67628 4.28704 0
M  V30 292 P 35.4068 7.39546 4.75277 0
M  V30 293 O 36.8288 7.81777 5.05738 0
M  V30 294 O 35.0468 7.1065 3.32998 0
M  V30 295 O 35.0838 6.04542 5.56673 0
M  V30 296 C 34.9238 6.22772 7.02095 0
M  V30 297 C 35.4638 4.97725 7.70406 0
M  V30 298 O 34.4078 4.13256 7.58987 0
M  V30 299 C 36.6818 4.28231 7.11815 0
M  V30 300 O 37.4198 3.49945 8.01648 0
M  V30 301 C 36.0128 3.5063 5.96244 0
M  V30 302 O 36.8118 2.36482 5.64681 0
M  V30 303 C 34.6758 3.15122 6.56374 0
M  V30 304 H 34.7078 2.13853 6.99751 0
M  V30 305 H 35.8908 4.13501 5.06559 0
M  V30 306 H 37.3748 5.03285 6.70911 0
M  V30 307 H 35.6808 5.20877 8.75697 0
M  V30 308 H 35.4908 7.11046 7.35349 0
M  V30 309 H 33.8608 6.35815 7.26986 0
M  V30 310 H 36.4998 1.61644 6.13565 0
M  V30 311 P 38.3574 3.65191 7.99657 0
M  V30 312 O 39.7794 3.8425 8.48115 0
M  V30 313 O 37.9974 4.17805 6.64342 0
M  V30 314 O 38.0344 2.07613 7.95143 0
M  V30 315 C 37.8744 1.44328 9.27336 0
M  V30 316 C 38.4144 0.0220036 9.17197 0
M  V30 317 O 37.3584 -0.626867 8.61923 0
M  V30 318 C 39.6324 -0.24586 8.30336 0
M  V30 319 O 40.3704 -1.39011 8.63583 0
M  V30 320 C 38.9634 -0.273849 6.91158 0
M  V30 321 O 39.7624 -1.06348 6.02892 0
M  V30 322 C 37.6264 -0.897649 7.22545 0
M  V30 323 H 37.6584 -1.9841 7.04286 0
M  V30 324 H 38.8414 0.739928 6.497 0
M  V30 325 H 40.3254 0.60668 8.36503 0
M  V30 326 H 38.6314 -0.352479 10.1829 0
M  V30 327 H 38.4414 2.00611 10.0304 0
M  V30 328 H 36.8114 1.41843 9.55327 0
M  V30 329 H 39.4504 -1.95734 6.03555 0
M  V30 330 P 41.308 -1.25109 8.70152 0
M  V30 331 O 42.73 -1.35274 9.21221 0
M  V30 332 O 40.948 -0.0769065 7.84762 0
M  V30 333 O 40.985 -2.55232 7.81161 0
M  V30 334 C 40.825 -3.79939 8.58154 0
M  V30 335 C 41.365 -4.94023 7.72785 0
M  V30 336 O 40.309 -5.18726 6.91205 0
M  V30 337 C 42.583 -4.69597 6.85231 0
M  V30 338 O 43.321 -5.83832 6.51337 0
M  V30 339 C 41.914 -3.96706 5.66633 0
M  V30 340 O 42.713 -4.15414 4.49689 0
M  V30 341 C 40.577 -4.66153 5.59313 0
M  V30 342 H 40.609 -5.47679 4.85214 0
M  V30 343 H 41.792 -2.89008 5.86566 0
M  V30 344 H 43.276 -4.0121 7.36511 0
M  V30 345 H 41.582 -5.80182 8.37584 0
M  V30 346 H 41.392 -3.73517 9.52265 0
M  V30 347 H 39.762 -3.97163 8.80359 0
M  V30 348 H 42.401 -4.90969 4.01921 0
M  V30 349 P 44.2585 -5.75688 6.64379 0
M  V30 350 O 45.6805 -6.11849 7.01846 0
M  V30 351 O 43.8985 -4.30744 6.56026 0
M  V30 352 O 43.9355 -6.37042 5.19165 0
M  V30 353 C 43.7755 -7.83578 5.16515 0
M  V30 354 C 44.3155 -8.33398 3.83019 0
M  V30 355 O 43.2595 -8.10074 3.01034 0
M  V30 356 C 45.5335 -7.65514 3.2257 0
M  V30 357 O 46.2715 -8.4329 2.32297 0
M  V30 358 C 44.8645 -6.40075 2.62207 0
M  V30 359 O 45.6635 -5.92589 1.53712 0
M  V30 360 C 43.5275 -6.9454 2.18503 0
M  V30 361 H 43.5595 -7.23063 1.12091 0
M  V30 362 H 44.7425 -5.6025 3.37201 0
M  V30 363 H 46.2265 -7.35707 4.02681 0
M  V30 364 H 44.5325 -9.40912 3.9095 0
M  V30 365 H 44.3425 -8.29056 5.99158 0
M  V30 366 H 42.7125 -8.10073 5.25882 0
M  V30 367 H 45.3515 -6.30324 0.726794 0
M  V30 368 P 47.2091 -8.4349 2.47671 0
M  V30 369 O 48.6301 -8.94263 2.59668 0
M  V30 370 O 46.8491 -7.1704 3.19006 0
M  V30 371 O 46.8861 -8.16596 0.923387 0
M  V30 372 C 46.7251 -9.38537 0.108869 0
M  V30 373 C 47.2661 -9.08175 -1.28353 0
M  V30 374 O 46.2111 -8.44131 -1.84692 0
M  V30 375 C 48.4841 -8.18386 -1.42505 0
M  V30 376 O 49.2221 -8.3501 -2.60497 0
M  V30 377 C 47.8161 -6.80225 -1.25468 0
M  V30 378 O 48.6141 -5.81716 -1.90454 0
M  V30 379 C 46.4781 -7.02416 -1.9168 0
M  V30 380 N 45.4351 -6.31033 -1.20314 0
M  V30 381 C 45.6041 -5.98817 0.0994088 0
M  V30 382 N 44.5771 -5.35403 0.621694 0
M  V30 383 C 43.6921 -5.25212 -0.43376 0
M  V30 384 C 42.4251 -4.64602 -0.519722 0
M  V30 385 N 41.8601 -4.7568 -1.76013 0
M  V30 386 C 42.4621 -5.3653 -2.83017 0
M  V30 387 N 43.6391 -5.93676 -2.79782 0
M  V30 388 C 44.2141 -5.84061 -1.56249 0
M  V30 389 H 47.6931 -6.53498 -0.198729 0
M  V30 390 H 49.1761 -8.36622 -0.589963 0
M  V30 391 H 47.4821 -10.0273 -1.8081 0
M  V30 392 H 47.2921 -10.2138 0.558219 0
M  V30 393 H 45.6621 -9.6579 0.0444202 0
M  V30 394 H 46.5041 -6.23209 0.660562 0
M  V30 395 H 48.3021 -5.69466 -2.79593 0
M  V30 396 P 50.1597 -8.4349 -2.47671 0
M  V30 397 O 51.5817 -8.92593 -2.65 0
M  V30 398 O 49.7997 -7.7568 -1.19296 0
M  V30 399 O 49.8367 -7.36886 -3.63805 0
M  V30 400 C 49.6767 -7.95349 -4.982 0
M  V30 401 C 50.2167 -6.94612 -5.98974 0
M  V30 402 O 49.1607 -6.10347 -6.11815 0
M  V30 403 C 51.4347 -6.11426 -5.62335 0
M  V30 404 O 52.1727 -5.6162 -6.70584 0
M  V30 405 C 50.7657 -5.04409 -4.73308 0
M  V30 406 O 51.5647 -3.85992 -4.75183 0
M  V30 407 C 49.4287 -4.8728 -5.41006 0
M  V30 408 H 49.4607 -4.02333 -6.11157 0
M  V30 409 H 50.6437 -5.39466 -3.69543 0
M  V30 410 H 52.1277 -6.71916 -5.01943 0
M  V30 411 H 50.4337 -7.4649 -6.93477 0
M  V30 412 H 50.2437 -8.89416 -5.05237 0
M  V30 413 H 48.6137 -8.14876 -5.18409 0
M  V30 414 H 51.2527 -3.27957 -5.4317 0
M  V30 415 P 53.1103 -5.75688 -6.64379 0
M  V30 416 O 54.5323 -6.07627 -7.05504 0
M  V30 417 O 52.7503 -5.88047 -5.19722 0
M  V30 418 O 52.7873 -4.2322 -7.04443 0
M  V30 419 C 52.6273 -3.99743 -8.4911 0
M  V30 420 C 53.1673 -2.60516 -8.79425 0
M  V30 421 O 52.1113 -1.82684 -8.4467 0
M  V30 422 C 54.3853 -2.10343 -8.03628 0
M  V30 423 O 55.1233 -1.09919 -8.67766 0
M  V30 424 C 53.7163 -1.68446 -6.70876 0
M  V30 425 O 54.5153 -0.678137 -6.08433 0
M  V30 426 C 52.3793 -1.17436 -7.18567 0
M  V30 427 H 52.4113 -0.0804732 -7.31656 0
M  V30 428 H 53.5943 -2.54037 -6.02537 0
M  V30 429 H 55.0783 -2.93881 -7.85526 0
M  V30 430 H 53.3843 -2.53065 -9.86973 0
M  V30 431 H 53.1943 -4.75072 -9.05887 0
M  V30 432 H 51.5643 -4.05244 -8.76668 0
M  V30 433 H 54.2033 0.177647 -6.34251 0
M  V30 434 P 56.0608 -1.25109 -8.70152 0
M  V30 435 O 57.4828 -1.29744 -9.22016 0
M  V30 436 O 55.7008 -2.13714 -7.55141 0
M  V30 437 O 55.7378 0.248149 -8.21425 0
M  V30 438 C 55.5778 1.22779 -9.30434 0
M  V30 439 C 56.1178 2.56293 -8.80664 0
M  V30 440 O 55.0618 3.02979 -8.09349 0
M  V30 441 C 57.3358 2.57523 -7.89775 0
M  V30 442 O 58.0738 3.7668 -7.89438 0
M  V30 443 C 56.6668 2.20997 -6.55446 0
M  V30 444 O 57.4658 2.71895 -5.48509 0
M  V30 445 C 55.3298 2.89693 -6.67988 0
M  V30 446 H 55.3618 3.88793 -6.19859 0
M  V30 447 H 56.5448 1.12046 -6.44229 0
M  V30 448 H 58.0288 1.7746 -8.19711 0
M  V30 449 H 56.3348 3.20706 -9.67112 0
M  V30 450 H 56.1448 0.901032 -10.1892 0
M  V30 451 H 54.5148 1.33049 -9.56592 0
M  V30 452 H 57.1538 3.57847 -5.23962 0
M  V30 453 P 59.0114 3.65191 -7.99657 0
M  V30 454 O 60.4334 3.89416 -8.45976 0
M  V30 455 O 58.6514 2.28472 -7.50807 0
M  V30 456 O 58.6884 4.64972 -6.77611 0
M  V30 457 C 58.5284 6.06319 -7.16352 0
M  V30 458 C 59.0684 6.91655 -6.02234 0
M  V30 459 O 58.0134 6.92449 -5.17064 0
M  V30 460 C 60.2864 6.43627 -5.25174 0
M  V30 461 O 61.0244 7.43686 -4.60469 0
M  V30 462 C 59.6184 5.40275 -4.31916 0
M  V30 463 O 60.4164 5.25193 -3.14386 0
M  V30 464 C 58.2804 6.04847 -4.05327 0
M  V30 465 N 57.2374 5.04166 -3.98114 0
M  V30 466 C 57.2994 3.96049 -4.75587 0
M  V30 467 N 56.2544 3.15559 -4.54006 0
M  V30 468 C 55.5204 3.78802 -3.62491 0
M  V30 469 C 54.2144 3.476 -3.10071 0
M  V30 470 O 53.4814 2.51136 -3.37021 0
M  V30 471 N 53.7844 4.39088 -2.19956 0
M  V30 472 C 54.5334 5.53215 -1.81733 0
M  V30 473 N 53.9364 6.31963 -0.860928 0
M  V30 474 N 55.6864 5.86688 -2.32562 0
M  V30 475 C 56.1434 4.97525 -3.23407 0
M  V30 476 H 58.3124 6.62195 -3.11261 0
M  V30 477 H 59.4954 4.42488 -4.8131 0
M  V30 478 H 60.9804 5.93051 -5.9305 0
M  V30 479 H 59.2854 7.92655 -6.402 0
M  V30 480 H 59.0954 6.26671 -8.0846 0
M  V30 481 H 57.4644 6.29101 -7.32804 0
M  V30 482 H 52.8884 4.25523 -1.77604 0
M  V30 483 H 58.0954 3.75576 -5.47333 0
M  V30 484 H 53.0254 6.04684 -0.468946 0
M  V30 485 H 54.4014 7.18054 -0.542422 0
M  V30 486 H 60.1054 5.84223 -2.47279 0
M  V30 487 P 61.962 7.39546 -4.75277 0
M  V30 488 O 63.384 7.84966 -5.01146 0
M  V30 489 O 61.602 5.9812 -5.08098 0
M  V30 490 O 61.639 7.57503 -3.1866 0
M  V30 491 C 61.479 8.97357 -2.74833 0
M  V30 492 C 62.019 9.0745 -1.32694 0
M  V30 493 O 60.964 8.62072 -0.606159 0
M  V30 494 C 63.237 8.25383 -0.938334 0
M  V30 495 O 63.975 8.74577 0.146954 0
M  V30 496 C 62.569 6.8802 -0.712559 0
M  V30 497 O 63.367 6.11791 0.194623 0
M  V30 498 C 61.231 7.27966 -0.139777 0
M  V30 499 N 60.188 6.39368 -0.623421 0
M  V30 500 C 60.25 5.90299 -1.85969 0
M  V30 501 N 59.205 5.10919 -2.1133 0
M  V30 502 C 58.471 5.14646 -1.0015 0
M  V30 503 C 57.165 4.60057 -0.729219 0
M  V30 504 O 56.432 3.93476 -1.47746 0
M  V30 505 N 56.735 4.88302 0.523505 0
M  V30 506 C 57.484 5.63646 1.46207 0
M  V30 507 N 56.887 5.78186 2.69239 0
M  V30 508 N 58.637 6.19285 1.21544 0
M  V30 509 C 59.094 5.93392 -0.0308487 0
M  V30 510 H 61.263 7.25354 0.961601 0
M  V30 511 H 62.446 6.3246 -1.65676 0
M  V30 512 H 63.931 8.19533 -1.78278 0
M  V30 513 H 62.236 10.1294 -1.10029 0
M  V30 514 H 62.046 9.64276 -3.41316 0
M  V30 515 H 60.415 9.25417 -2.76357 0
M  V30 516 H 55.839 4.53993 0.806451 0
M  V30 517 H 61.046 6.11865 -2.57394 0
M  V30 518 H 55.976 5.34046 2.87467 0
M  V30 519 H 57.352 6.33391 3.42578 0
M  V30 520 H 63.056 6.25169 1.0783 0
M  V30 521 P 64.9125 8.791 -3.55383e-14 0
M  V30 522 O 66.3345 9.31096 0.027933 0
M  V30 523 O 64.5525 7.77869 -1.04071 0
M  V30 524 O 64.5895 8.09533 1.41463 0
M  V30 525 C 64.4295 9.0349 2.53943 0
M  V30 526 C 64.9695 8.35226 3.79016 0
M  V30 527 O 63.9135 7.57992 4.15078 0
M  V30 528 C 66.1875 7.45087 3.67298 0
M  V30 529 O 66.9255 7.27796 4.85194 0
M  V30 530 C 65.5185 6.17323 3.12027 0
M  V30 531 O 66.3175 5.04231 3.47188 0
M  V30 532 C 64.1815 6.19961 3.81809 0
M  V30 533 H 64.2135 5.58218 4.73051 0
M  V30 534 H 65.3965 6.21726 2.02589 0
M  V30 535 H 66.8805 7.86112 2.9231 0
M  V30 536 H 65.1865 9.11627 4.55076 0
M  V30 537 H 64.9965 9.9573 2.34194 0
M  V30 538 H 63.3665 9.2792 2.67832 0
M  V30 539 H 66.0055 4.67702 4.28772 0
M  V30 540 P 67.8631 7.39546 4.75277 0
M  V30 541 O 69.2851 7.81777 5.05738 0
M  V30 542 O 67.5031 7.1065 3.32998 0
M  V30 543 O 67.5401 6.04542 5.56673 0
M  V30 544 C 67.3801 6.22772 7.02095 0
M  V30 545 C 67.9201 4.97725 7.70406 0
M  V30 546 O 66.8641 4.13256 7.58987 0
M  V30 547 C 69.1381 4.28231 7.11815 0
M  V30 548 O 69.8761 3.49945 8.01648 0
M  V30 549 C 68.4691 3.5063 5.96244 0
M  V30 550 O 69.2681 2.36482 5.64681 0
M  V30 551 C 67.1321 3.15122 6.56374 0
M  V30 552 H 67.1641 2.13853 6.99751 0
M  V30 553 H 68.3471 4.13501 5.06559 0
M  V30 554 H 69.8311 5.03285 6.70911 0
M  V30 555 H 68.1371 5.20877 8.75697 0
M  V30 556 H 67.9471 7.11046 7.35349 0
M  V30 557 H 66.3171 6.35815 7.26986 0
M  V30 558 H 68.9561 1.61644 6.13565 0
M  V30 559 P 70.8137 3.65191 7.99657 0
M  V30 560 O 72.2357 3.8425 8.48115 0
M  V30 561 O 70.4537 4.17805 6.64342 0
M  V30 562 O 70.4907 2.07613 7.95143 0
M  V30 563 C 70.3307 1.44328 9.27336 0
M  V30 564 C 70.8707 0.0220036 9.17197 0
M  V30 565 O 69.8147 -0.626867 8.61923 0
M  V30 566 C 72.0887 -0.24586 8.30336 0
M  V30 567 O 72.8267 -1.39011 8.63583 0
M  V30 568 C 71.4197 -0.273849 6.91158 0
M  V30 569 O 72.2187 -1.06348 6.02892 0
M  V30 570 C 70.0827 -0.897649 7.22545 0
M  V30 571 H 70.1147 -1.9841 7.04286 0
M  V30 572 H 71.2977 0.739928 6.497 0
M  V30 573 H 72.7817 0.60668 8.36503 0
M  V30 574 H 71.0877 -0.352479 10.1829 0
M  V30 575 H 70.8977 2.00611 10.0304 0
M  V30 576 H 69.2677 1.41843 9.55327 0
M  V30 577 H 71.9067 -1.95734 6.03555 0
M  V30 578 P 73.7642 -1.25109 8.70152 0
M  V30 579 O 75.1862 -1.35274 9.21221 0
M  V30 580 O 73.4042 -0.0769065 7.84762 0
M  V30 581 O 73.4412 -2.55232 7.81161 0
M  V30 582 C 73.2812 -3.79939 8.58154 0
M  V30 583 C 73.8212 -4.94023 7.72785 0
M  V30 584 O 72.7652 -5.18726 6.91205 0
M  V30 585 C 75.0392 -4.69597 6.85231 0
M  V30 586 O 75.7772 -5.83832 6.51337 0
M  V30 587 C 74.3702 -3.96706 5.66633 0
M  V30 588 O 75.1692 -4.15414 4.49689 0
M  V30 589 C 73.0332 -4.66153 5.59313 0
M  V30 590 H 73.0652 -5.47679 4.85214 0
M  V30 591 H 74.2482 -2.89008 5.86566 0
M  V30 592 H 75.7322 -4.0121 7.36511 0
M  V30 593 H 74.0382 -5.80182 8.37584 0
M  V30 594 H 73.8482 -3.73517 9.52265 0
M  V30 595 H 72.2182 -3.97163 8.80359 0
M  V30 596 H 74.8572 -4.90969 4.01921 0
M  V30 597 P 76.7148 -5.75688 6.64379 0
M  V30 598 O 78.1368 -6.11849 7.01846 0
M  V30 599 O 76.3548 -4.30744 6.56026 0
M  V30 600 O 76.3918 -6.37042 5.19165 0
M  V30 601 C 76.2318 -7.83578 5.16515 0
M  V30 602 C 76.7718 -8.33398 3.83019 0
M  V30 603 O 75.7158 -8.10074 3.01034 0
M  V30 604 C 77.9898 -7.65514 3.2257 0
M  V30 605 O 78.7278 -8.4329 2.32297 0
M  V30 606 C 77.3208 -6.40075 2.62207 0
M  V30 607 O 78.1198 -5.92589 1.53712 0
M  V30 608 C 75.9838 -6.9454 2.18503 0
M  V30 609 H 76.0158 -7.23063 1.12091 0
M  V30 610 H 77.1988 -5.6025 3.37201 0
M  V30 611 H 78.6828 -7.35707 4.02681 0
M  V30 612 H 76.9888 -9.40912 3.9095 0
M  V30 613 H 76.7988 -8.29056 5.99158 0
M  V30 614 H 75.1688 -8.10073 5.25882 0
M  V30 615 H 77.8078 -6.30324 0.726794 0
M  V30 616 P 79.6654 -8.4349 2.47671 0
M  V30 617 O 81.0874 -8.94167 2.5964 0
M  V30 618 O 79.3054 -7.1704 3.19006 0
M  V30 619 O 79.3424 -8.16596 0.923387 0
M  V30 620 C 79.1824 -9.38437 0.108857 0
M  V30 621 C 79.7224 -9.08175 -1.28353 0
M  V30 622 O 78.6664 -8.44229 -1.84713 0
M  V30 623 C 80.9404 -8.18386 -1.42505 0
M  V30 624 O 81.6784 -8.3501 -2.60497 0
M  V30 625 C 80.2714 -6.80225 -1.25468 0
M  V30 626 O 81.0704 -5.81621 -1.91066 0
M  V30 627 C 78.9344 -7.02416 -1.9168 0
M  V30 628 H 78.9664 -6.6888 -2.96621 0
M  V30 629 H 80.1494 -6.53617 -0.192223 0
M  V30 630 H 81.6334 -8.36622 -0.589963 0
M  V30 631 H 79.9394 -10.0291 -1.79807 0
M  V30 632 H 79.7494 -10.2138 0.558219 0
M  V30 633 H 78.1194 -9.6579 0.0444202 0
M  V30 634 H 80.7584 -5.69556 -2.79637 0
M  V30 635 P 82.616 -8.4349 -2.47671 0
M  V30 636 O 84.038 -8.92593 -2.65 0
M  V30 637 O 82.256 -7.7568 -1.19296 0
M  V30 638 O 82.293 -7.36886 -3.63805 0
M  V30 639 C 82.133 -7.95349 -4.982 0
M  V30 640 C 82.673 -6.94612 -5.98974 0
M  V30 641 O 81.617 -6.10347 -6.11815 0
M  V30 642 C 83.891 -6.11426 -5.62335 0
M  V30 643 O 84.629 -5.6162 -6.70584 0
M  V30 644 C 83.222 -5.04409 -4.73308 0
M  V30 645 O 84.021 -3.85992 -4.75183 0
M  V30 646 C 81.885 -4.8728 -5.41006 0
M  V30 647 H 81.917 -4.02333 -6.11157 0
M  V30 648 H 83.1 -5.39466 -3.69543 0
M  V30 649 H 84.584 -6.71916 -5.01943 0
M  V30 650 H 82.89 -7.4649 -6.93477 0
M  V30 651 H 82.7 -8.89416 -5.05237 0
M  V30 652 H 81.07 -8.14876 -5.18409 0
M  V30 653 H 83.709 -3.27957 -5.4317 0
M  V30 654 P 85.5665 -5.75688 -6.64379 0
M  V30 655 O 86.9875 -6.07692 -7.0558 0
M  V30 656 O 85.2065 -5.88047 -5.19722 0
M  V30 657 O 85.2435 -4.2322 -7.04443 0
M  V30 658 C 85.0825 -3.99785 -8.49201 0
M  V30 659 C 85.6235 -2.60516 -8.79425 0
M  V30 660 O 84.5685 -1.82663 -8.44573 0
M  V30 661 C 86.8415 -2.10343 -8.03628 0
M  V30 662 O 87.5795 -1.09919 -8.67766 0
M  V30 663 C 86.1735 -1.68446 -6.70876 0
M  V30 664 O 86.9715 -0.684109 -6.08265 0
M  V30 665 C 84.8355 -1.17436 -7.18567 0
M  V30 666 N 83.7925 -1.52699 -6.23988 0
M  V30 667 C 83.9615 -2.578 -5.40574 0
M  V30 668 N 82.9345 -2.78966 -4.61193 0
M  V30 669 C 82.0495 -1.78725 -4.95769 0
M  V30 670 C 80.7825 -1.45727 -4.44207 0
M  V30 671 N 80.2175 -0.374977 -5.05812 0
M  V30 672 C 80.8195 0.345585 -6.05615 0
M  V30 673 N 81.9965 0.0787651 -6.56253 0
M  V30 674 C 82.5715 -1.00499 -5.96189 0
M  V30 675 H 86.0505 -2.53396 -6.02698 0
M  V30 676 H 87.5335 -2.93881 -7.85526 0
M  V30 677 H 85.8395 -2.52078 -9.87225 0
M  V30 678 H 85.6495 -4.75072 -9.05887 0
M  V30 679 H 84.0195 -4.05244 -8.76668 0
M  V30 680 H 84.8615 -3.18977 -5.3945 0
M  V30 681 H 86.6595 0.177619 -6.34151 0
M  V30 682 P 88.5171 -1.25109 -8.70152 0
M  V30 683 O 89.9381 -1.29758 -9.22115 0
M  V30 684 O 88.1571 -2.13714 -7.55141 0
M  V30 685 O 88.1941 0.248149 -8.21425 0
M  V30 686 C 88.0331 1.22792 -9.30533 0
M  V30 687 C 88.5741 2.56293 -8.80664 0
M  V30 688 O 87.5191 3.02944 -8.09255 0
M  V30 689 C 89.7921 2.57523 -7.89775 0
M  V30 690 O 90.5301 3.7668 -7.89438 0
M  V30 691 C 89.1241 2.20997 -6.55446 0
M  V30 692 O 89.9221 2.71302 -5.48691 0
M  V30 693 C 87.7861 2.89693 -6.67988 0
M  V30 694 N 86.7431 2.08895 -6.07487 0
M  V30 695 C 86.9121 0.753809 -5.94137 0
M  V30 696 N 85.8851 0.146592 -5.38801 0
M  V30 697 C 85.0001 1.1768 -5.13693 0
M  V30 698 C 83.7331 1.17563 -4.52477 0
M  V30 699 N 83.1681 2.41918 -4.45789 0
M  V30 700 C 83.7701 3.56493 -4.90792 0
M  V30 701 N 84.9471 3.61423 -5.47817 0
M  V30 702 C 85.5221 2.37779 -5.5588 0
M  V30 703 H 89.0011 1.12673 -6.44018 0
M  V30 704 H 90.4841 1.7746 -8.19711 0
M  V30 705 H 88.7901 3.21673 -9.66791 0
M  V30 706 H 88.6001 0.901032 -10.1892 0
M  V30 707 H 86.9701 1.33049 -9.56592 0
M  V30 708 H 87.8121 0.233081 -6.26266 0
M  V30 709 H 89.6101 3.5779 -5.23879 0
M  V30 710 P 91.4677 3.65191 -7.99657 0
M  V30 711 O 92.8897 3.89332 -8.45794 0
M  V30 712 O 91.1077 2.28472 -7.50807 0
M  V30 713 O 91.1447 4.64972 -6.77611 0
M  V30 714 C 90.9847 6.06319 -7.16352 0
M  V30 715 C 91.5247 6.91731 -6.02299 0
M  V30 716 O 90.4687 6.92449 -5.17064 0
M  V30 717 C 92.7427 6.43627 -5.25174 0
M  V30 718 O 93.4807 7.43686 -4.60469 0
M  V30 719 C 92.0737 5.40275 -4.31916 0
M  V30 720 O 92.8727 5.25279 -3.14438 0
M  V30 721 C 90.7367 6.04847 -4.05327 0
M  V30 722 H 90.7687 6.62195 -3.11261 0
M  V30 723 H 91.9517 4.42556 -4.81383 0
M  V30 724 H 93.4357 5.92458 -5.93643 0
M  V30 725 H 91.7417 7.92655 -6.402 0
M  V30 726 H 91.5517 6.26671 -8.0846 0
M  V30 727 H 89.9217 6.29101 -7.32804 0
M  V30 728 H 92.5607 5.84315 -2.47318 0
M  V30 729 P 94.4182 7.39546 -4.75277 0
M  V30 730 O 95.8402 7.84798 -5.01039 0
M  V30 731 O 94.0582 5.9812 -5.08098 0
M  V30 732 O 94.0952 7.57503 -3.1866 0
M  V30 733 C 93.9352 8.97357 -2.74833 0
M  V30 734 C 94.4752 9.07548 -1.32709 0
M  V30 735 O 93.4192 8.62072 -0.606159 0
M  V30 736 C 95.6932 8.25383 -0.938334 0
M  V30 737 O 96.4312 8.74577 0.146954 0
M  V30 738 C 95.0242 6.8802 -0.712559 0
M  V30 739 O 95.8232 6.1189 0.194655 0
M  V30 740 C 93.6872 7.27966 -0.139777 0
M  V30 741 H 93.7192 7.25354 0.961601 0
M  V30 742 H 94.9022 6.32557 -1.65702 0
M  V30 743 H 96.3862 8.19355 -1.79097 0
M  V30 744 H 94.6922 10.1294 -1.10029 0
M  V30 745 H 94.5022 9.64276 -3.41316 0
M  V30 746 H 92.8722 9.25417 -2.76357 0
M  V30 747 H 95.5112 6.25267 1.07847 0
M  V30 748 P 97.3688 8.791 -6.89233e-14 0
M  V30 749 O 98.7908 9.31096 0.027933 0
M  V30 750 O 97.0088 7.77869 -1.04071 0
M  V30 751 O 97.0458 8.09533 1.41463 0
M  V30 752 C 96.8858 9.0349 2.53943 0
M  V30 753 C 97.4258 8.35226 3.79016 0
M  V30 754 O 96.3698 7.57992 4.15078 0
M  V30 755 C 98.6438 7.45087 3.67298 0
M  V30 756 O 99.3818 7.27796 4.85194 0
M  V30 757 C 97.9748 6.17323 3.12027 0
M  V30 758 O 98.7738 5.04231 3.47188 0
M  V30 759 C 96.6378 6.19961 3.81809 0
M  V30 760 H 96.6698 5.58218 4.73051 0
M  V30 761 H 97.8528 6.21726 2.02589 0
M  V30 762 H 99.3368 7.86112 2.9231 0
M  V30 763 H 97.6428 9.11627 4.55076 0
M  V30 764 H 97.4528 9.9573 2.34194 0
M  V30 765 H 95.8228 9.2792 2.67832 0
M  V30 766 H 98.4618 4.67702 4.28772 0
M  V30 767 P 100.319 7.39546 4.75277 0
M  V30 768 O 101.741 7.81945 5.05847 0
M  V30 769 O 99.9594 7.1065 3.32998 0
M  V30 770 O 99.9964 6.04542 5.56673 0
M  V30 771 C 99.8364 6.22772 7.02095 0
M  V30 772 C 100.376 4.97671 7.70322 0
M  V30 773 O 99.3214 4.13256 7.58987 0
M  V30 774 C 101.594 4.28231 7.11815 0
M  V30 775 O 102.332 3.49945 8.01648 0
M  V30 776 C 100.926 3.5063 5.96244 0
M  V30 777 O 101.724 2.36443 5.64589 0
M  V30 778 C 99.5884 3.15122 6.56374 0
M  V30 779 N 98.5454 3.22311 5.55692 0
M  V30 780 C 98.6074 4.14382 4.59701 0
M  V30 781 N 97.5624 4.04476 3.76958 0
M  V30 782 C 96.8284 3.04892 4.26534 0
M  V30 783 C 95.5224 2.57447 3.88189 0
M  V30 784 O 94.7894 2.9785 2.96543 0
M  V30 785 N 95.0924 1.55228 4.65922 0
M  V30 786 C 95.8414 1.01152 5.73447 0
M  V30 787 N 95.2444 -0.0472117 6.37783 0
M  V30 788 N 96.9944 1.467 6.13813 0
M  V30 789 C 97.4514 2.4931 5.38487 0
M  V30 790 H 99.6204 2.13853 6.99751 0
M  V30 791 H 100.803 4.13438 5.06482 0
M  V30 792 H 102.288 5.02614 6.71414 0
M  V30 793 H 100.593 5.20877 8.75697 0
M  V30 794 H 100.403 7.11046 7.35349 0
M  V30 795 H 98.7724 6.35815 7.26986 0
M  V30 796 H 94.1964 1.15238 4.46468 0
M  V30 797 H 99.4034 4.88312 4.49647 0
M  V30 798 H 94.3334 -0.396382 6.05203 0
M  V30 799 H 95.7094 -0.484997 7.18465 0
M  V30 800 H 101.413 1.61619 6.13468 0
M  V30 801 P 103.27 3.65191 7.99657 0
M  V30 802 O 104.671 3.90823 8.51272 0
M  V30 803 O 102.892 4.23191 6.66972 0
M  V30 804 O 102.947 2.07587 7.95046 0
M  V30 805 C 102.787 1.44328 9.27336 0
M  V30 806 C 103.327 0.0220012 9.17097 0
M  V30 807 O 102.271 -0.626794 8.61824 0
M  V30 808 C 104.544 -0.24586 8.30336 0
M  V30 809 O 105.283 -1.39011 8.63583 0
M  V30 810 C 103.877 -0.273849 6.91158 0
M  V30 811 O 104.675 -1.06331 6.02794 0
M  V30 812 C 102.539 -0.897649 7.22545 0
M  V30 813 N 101.496 -0.292839 6.41732 0
M  V30 814 C 100.461 -1.08701 5.98712 0
M  V30 815 O 100.5 -2.31211 6.24471 0
M  V30 816 N 99.4489 -0.533391 5.28415 0
M  V30 817 C 99.4969 0.770866 4.98576 0
M  V30 818 N 98.4869 1.29482 4.30134 0
M  V30 819 C 100.593 1.59049 5.38086 0
M  V30 820 C 101.559 1.01866 6.10256 0
M  V30 821 H 102.571 -1.98383 7.04189 0
M  V30 822 H 103.754 0.733318 6.49674 0
M  V30 823 H 105.238 0.598386 8.36663 0
M  V30 824 H 103.544 -0.362662 10.1825 0
M  V30 825 H 103.353 2.00611 10.0304 0
M  V30 826 H 101.723 1.41828 9.55228 0
M  V30 827 H 100.641 2.6415 5.10622 0
M  V30 828 H 102.405 1.61983 6.44042 0
M  V30 829 H 97.6969 0.69888 4.01361 0
M  V30 830 H 98.4919 2.29327 4.05781 0
M  V30 831 H 104.459 -1.97777 6.14035 0
M  V30 832 P 106.221 -1.25109 8.70152 0
M  V30 833 O 107.643 -1.35274 9.21221 0
M  V30 834 O 105.861 -0.0769065 7.84762 0
M  V30 835 O 105.898 -2.55232 7.81161 0
M  V30 836 C 105.738 -3.79939 8.58154 0
M  V30 837 C 106.278 -4.94023 7.72785 0
M  V30 838 O 105.222 -5.18726 6.91205 0
M  V30 839 C 107.496 -4.69597 6.85231 0
M  V30 840 O 108.234 -5.83832 6.51337 0
M  V30 841 C 106.827 -3.96706 5.66633 0
M  V30 842 O 107.626 -4.15414 4.49689 0
M  V30 843 C 105.49 -4.66153 5.59313 0
M  V30 844 H 105.522 -5.47679 4.85214 0
M  V30 845 H 106.705 -2.89008 5.86566 0
M  V30 846 H 108.189 -4.0121 7.36511 0
M  V30 847 H 106.495 -5.80182 8.37584 0
M  V30 848 H 106.305 -3.73517 9.52265 0
M  V30 849 H 104.675 -3.97163 8.80359 0
M  V30 850 H 107.314 -4.90969 4.01921 0
M  V30 851 P 109.171 -5.75688 6.64379 0
M  V30 852 O 110.592 -6.11915 7.01921 0
M  V30 853 O 108.811 -4.30744 6.56026 0
M  V30 854 O 108.848 -6.37042 5.19165 0
M  V30 855 C 108.687 -7.83662 5.1657 0
M  V30 856 C 109.228 -8.33398 3.83019 0
M  V30 857 O 108.173 -8.0998 3.00999 0
M  V30 858 C 110.446 -7.65514 3.2257 0
M  V30 859 O 111.184 -8.4329 2.32297 0
M  V30 860 C 109.778 -6.40075 2.62207 0
M  V30 861 O 110.576 -5.92338 1.5428 0
M  V30 862 C 108.44 -6.9454 2.18503 0
M  V30 863 N 107.397 -5.95905 2.39948 0
M  V30 864 C 107.566 -4.98383 3.32108 0
M  V30 865 N 106.539 -4.16798 3.41761 0
M  V30 866 C 105.654 -4.65287 2.47461 0
M  V30 867 C 104.387 -4.18946 2.07461 0
M  V30 868 N 103.822 -4.95327 1.09101 0
M  V30 869 C 104.424 -6.04369 0.519812 0
M  V30 870 N 105.601 -6.50694 0.855982 0
M  V30 871 C 106.176 -5.75818 1.84322 0
M  V30 872 H 109.655 -5.60502 3.36589 0
M  V30 873 H 111.138 -7.35707 4.02681 0
M  V30 874 H 109.444 -9.41302 3.90009 0
M  V30 875 H 109.254 -8.29056 5.99158 0
M  V30 876 H 107.624 -8.10073 5.25882 0
M  V30 877 H 108.466 -4.88564 3.92502 0
M  V30 878 H 110.264 -6.30224 0.72668 0
M  V30 879 P 112.122 -8.4349 2.47671 0
M  V30 880 O 113.544 -8.94167 2.5964 0
M  V30 881 O 111.762 -7.1704 3.19006 0
M  V30 882 O 111.799 -8.16596 0.923387 0
M  V30 883 C 111.639 -9.38437 0.108857 0
M  V30 884 C 112.179 -9.08175 -1.28353 0
M  V30 885 O 111.123 -8.44229 -1.84713 0
M  V30 886 C 113.397 -8.18386 -1.42505 0
M  V30 887 O 114.135 -8.3501 -2.60497 0
M  V30 888 C 112.728 -6.80225 -1.25468 0
M  V30 889 O 113.527 -5.81621 -1.91066 0
M  V30 890 C 111.391 -7.02416 -1.9168 0
M  V30 891 H 111.423 -6.6888 -2.96621 0
M  V30 892 H 112.606 -6.53617 -0.192223 0
M  V30 893 H 114.09 -8.36622 -0.589963 0
M  V30 894 H 112.396 -10.0291 -1.79807 0
M  V30 895 H 112.206 -10.2138 0.558219 0
M  V30 896 H 110.576 -9.6579 0.0444202 0
M  V30 897 H 113.215 -5.69556 -2.79637 0
M  V30 898 P 115.072 -8.4349 -2.47671 0
M  V30 899 O 116.494 -8.92593 -2.65 0
M  V30 900 O 114.712 -7.7568 -1.19296 0
M  V30 901 O 114.749 -7.36886 -3.63805 0
M  V30 902 C 114.589 -7.95349 -4.982 0
M  V30 903 C 115.129 -6.94612 -5.98974 0
M  V30 904 O 114.073 -6.10347 -6.11815 0
M  V30 905 C 116.347 -6.11426 -5.62335 0
M  V30 906 O 117.085 -5.6162 -6.70584 0
M  V30 907 C 115.678 -5.04409 -4.73308 0
M  V30 908 O 116.477 -3.85992 -4.75183 0
M  V30 909 C 114.341 -4.8728 -5.41006 0
M  V30 910 H 114.373 -4.02333 -6.11157 0
M  V30 911 H 115.556 -5.39466 -3.69543 0
M  V30 912 H 117.04 -6.71916 -5.01943 0
M  V30 913 H 115.346 -7.4649 -6.93477 0
M  V30 914 H 115.156 -8.89416 -5.05237 0
M  V30 915 H 113.526 -8.14876 -5.18409 0
M  V30 916 H 116.165 -3.27957 -5.4317 0
M  V30 917 P 118.023 -5.75688 -6.64379 0
M  V30 918 O 119.424 -6.14823 -7.06682 0
M  V30 919 O 117.645 -5.93957 -5.20728 0
M  V30 920 O 117.7 -4.23169 -7.04357 0
M  V30 921 C 117.54 -3.99743 -8.4911 0
M  V30 922 C 118.08 -2.60487 -8.79329 0
M  V30 923 O 117.024 -1.82663 -8.44573 0
M  V30 924 C 119.297 -2.10343 -8.03628 0
M  V30 925 O 120.036 -1.09919 -8.67766 0
M  V30 926 C 118.63 -1.68446 -6.70876 0
M  V30 927 O 119.428 -0.678026 -6.08333 0
M  V30 928 C 117.292 -1.17436 -7.18567 0
M  V30 929 N 116.249 -1.52699 -6.23988 0
M  V30 930 C 115.214 -0.643793 -6.05085 0
M  V30 931 O 115.253 0.459118 -6.64315 0
M  V30 932 N 114.202 -0.976931 -5.22038 0
M  V30 933 C 114.25 -2.14429 -4.56662 0
M  V30 934 C 115.346 -3.04203 -4.71481 0
M  V30 935 C 116.312 -2.69669 -5.56838 0
M  V30 936 H 117.324 -0.0804622 -7.31556 0
M  V30 937 H 118.507 -2.53396 -6.02698 0
M  V30 938 H 119.991 -2.9313 -7.85914 0
M  V30 939 H 118.297 -2.52078 -9.87225 0
M  V30 940 H 118.106 -4.75072 -9.05887 0
M  V30 941 H 116.476 -4.05202 -8.76577 0
M  V30 942 H 115.394 -3.97309 -4.15519 0
M  V30 943 H 117.158 -3.36869 -5.72318 0
M  V30 944 H 119.212 0.167718 -6.44882 0
M  V30 945 P 120.973 -1.25109 -8.70152 0
M  V30 946 O 122.395 -1.29744 -9.22016 0
M  V30 947 O 120.613 -2.13714 -7.55141 0
M  V30 948 O 120.65 0.248149 -8.21425 0
M  V30 949 C 120.49 1.22779 -9.30434 0
M  V30 950 C 121.03 2.56293 -8.80664 0
M  V30 951 O 119.974 3.02979 -8.09349 0
M  V30 952 C 122.248 2.57523 -7.89775 0
M  V30 953 O 122.986 3.7668 -7.89438 0
M  V30 954 C 121.579 2.20997 -6.55446 0
M  V30 955 O 122.378 2.71895 -5.48509 0
M  V30 956 C 120.242 2.89693 -6.67988 0
M  V30 957 H 120.274 3.88793 -6.19859 0
M  V30 958 H 121.457 1.12046 -6.44229 0
M  V30 959 H 122.941 1.7746 -8.19711 0
M  V30 960 H 121.247 3.20706 -9.67112 0
M  V30 961 H 121.057 0.901032 -10.1892 0
M  V30 962 H 119.427 1.33049 -9.56592 0
M  V30 963 H 122.066 3.57847 -5.23962 0
M  V30 964 P 123.924 3.65191 -7.99657 0
M  V30 965 O 125.345 3.89374 -8.45885 0
M  V30 966 O 123.564 2.28472 -7.50807 0
M  V30 967 O 123.601 4.64972 -6.77611 0
M  V30 968 C 123.44 6.06383 -7.16428 0
M  V30 969 C 123.981 6.91731 -6.02299 0
M  V30 970 O 122.926 6.92369 -5.17005 0
M  V30 971 C 125.199 6.43627 -5.25174 0
M  V30 972 O 125.937 7.43686 -4.60469 0
M  V30 973 C 124.531 5.40275 -4.31916 0
M  V30 974 O 125.329 5.24878 -3.14911 0
M  V30 975 C 123.193 6.04847 -4.05327 0
M  V30 976 N 122.15 5.04166 -3.98114 0
M  V30 977 C 122.319 3.84629 -4.59066 0
M  V30 978 N 121.292 3.0363 -4.45343 0
M  V30 979 C 120.407 3.76722 -3.68523 0
M  V30 980 C 119.14 3.43528 -3.17088 0
M  V30 981 N 118.541 2.23665 -3.37397 0
M  V30 982 N 118.575 4.44526 -2.44231 0
M  V30 983 C 119.177 5.65243 -2.20146 0
M  V30 984 N 120.354 6.00221 -2.65453 0
M  V30 985 C 120.929 5.00564 -3.39083 0
M  V30 986 H 123.225 6.62104 -3.11218 0
M  V30 987 H 124.408 4.42969 -4.80867 0
M  V30 988 H 125.891 5.92458 -5.93643 0
M  V30 989 H 124.197 7.93295 -6.39407 0
M  V30 990 H 124.007 6.26671 -8.0846 0
M  V30 991 H 122.377 6.29101 -7.32804 0
M  V30 992 H 118.641 6.36894 -1.5883 0
M  V30 993 H 123.219 3.58193 -5.14248 0
M  V30 994 H 117.611 2.05145 -2.97047 0
M  V30 995 H 119.015 1.51255 -3.92998 0
M  V30 996 H 125.017 5.84223 -2.47279 0
M  V30 997 P 126.875 7.39546 -4.75277 0
M  V30 998 O 128.297 7.84798 -5.01039 0
M  V30 999 O 126.515 5.9812 -5.08098 0
M  V30 1000 O 126.552 7.57503 -3.1866 0
M  V30 1001 C 126.392 8.97357 -2.74833 0
M  V30 1002 C 126.932 9.07548 -1.32709 0
M  V30 1003 O 125.876 8.62072 -0.606159 0
M  V30 1004 C 128.15 8.25383 -0.938334 0
M  V30 1005 O 128.888 8.74577 0.146954 0
M  V30 1006 C 127.481 6.8802 -0.712559 0
M  V30 1007 O 128.28 6.1189 0.194655 0
M  V30 1008 C 126.144 7.27966 -0.139777 0
M  V30 1009 H 126.176 7.25354 0.961601 0
M  V30 1010 H 127.359 6.32557 -1.65702 0
M  V30 1011 H 128.843 8.19355 -1.79097 0
M  V30 1012 H 127.149 10.1294 -1.10029 0
M  V30 1013 H 126.959 9.64276 -3.41316 0
M  V30 1014 H 125.329 9.25417 -2.76357 0
M  V30 1015 H 127.968 6.25267 1.07847 0
M  V30 1016 P 129.825 8.791 -1.02308e-13 0
M  V30 1017 O 131.247 9.31296 0.027939 0
M  V30 1018 O 129.465 7.77869 -1.04071 0
M  V30 1019 O 129.502 8.09533 1.41463 0
M  V30 1020 C 129.342 9.0349 2.53943 0
M  V30 1021 C 129.882 8.35135 3.78975 0
M  V30 1022 O 128.827 7.57992 4.15078 0
M  V30 1023 C 131.1 7.45087 3.67298 0
M  V30 1024 O 131.838 7.27796 4.85194 0
M  V30 1025 C 130.432 6.17323 3.12027 0
M  V30 1026 O 131.23 5.04149 3.47132 0
M  V30 1027 C 129.094 6.19961 3.81809 0
M  V30 1028 N 128.051 5.71575 2.93223 0
M  V30 1029 C 128.113 5.97133 1.62693 0
M  V30 1030 N 127.068 5.44066 0.984414 0
M  V30 1031 C 126.334 4.87093 1.93987 0
M  V30 1032 C 125.028 4.26449 1.8738 0
M  V30 1033 O 124.295 4.1089 0.884377 0
M  V30 1034 N 124.598 3.82483 3.08036 0
M  V30 1035 C 125.347 3.95124 4.27727 0
M  V30 1036 N 124.75 3.4084 5.39089 0
M  V30 1037 N 126.5 4.55264 4.3706 0
M  V30 1038 C 126.957 5.00861 3.18217 0
M  V30 1039 H 129.126 5.58218 4.73051 0
M  V30 1040 H 130.309 6.21631 2.02558 0
M  V30 1041 H 131.794 7.85819 2.93096 0
M  V30 1042 H 130.099 9.11627 4.55076 0
M  V30 1043 H 129.909 9.9573 2.34194 0
M  V30 1044 H 128.278 9.2792 2.67832 0
M  V30 1045 H 123.702 3.38323 3.1329 0
M  V30 1046 H 128.909 6.53891 1.14265 0
M  V30 1047 H 123.839 2.93852 5.30559 0
M  V30 1048 H 125.215 3.47631 6.30632 0
M  V30 1049 H 130.919 4.67628 4.28704 0
M  V30 1050 P 132.776 7.39546 4.75277 0
M  V30 1051 O 134.198 7.81777 5.05738 0
M  V30 1052 O 132.416 7.1065 3.32998 0
M  V30 1053 O 132.453 6.04542 5.56673 0
M  V30 1054 C 132.293 6.22772 7.02095 0
M  V30 1055 C 132.833 4.97725 7.70406 0
M  V30 1056 O 131.777 4.13256 7.58987 0
M  V30 1057 C 134.051 4.28231 7.11815 0
M  V30 1058 O 134.789 3.49945 8.01648 0
M  V30 1059 C 133.382 3.5063 5.96244 0
M  V30 1060 O 134.181 2.36482 5.64681 0
M  V30 1061 C 132.045 3.15122 6.56374 0
M  V30 1062 H 132.077 2.13853 6.99751 0
M  V30 1063 H 133.26 4.13501 5.06559 0
M  V30 1064 H 134.744 5.03285 6.70911 0
M  V30 1065 H 133.05 5.20877 8.75697 0
M  V30 1066 H 132.86 7.11046 7.35349 0
M  V30 1067 H 131.23 6.35815 7.26986 0
M  V30 1068 H 133.869 1.61644 6.13565 0
M  V30 1069 P 135.726 3.65191 7.99657 0
M  V30 1070 O 137.148 3.8425 8.48115 0
M  V30 1071 O 135.366 4.17805 6.64342 0
M  V30 1072 O 135.403 2.07613 7.95143 0
M  V30 1073 C 135.243 1.44328 9.27336 0
M  V30 1074 C 135.783 0.0220036 9.17197 0
M  V30 1075 O 134.727 -0.626867 8.61923 0
M  V30 1076 C 137.001 -0.24586 8.30336 0
M  V30 1077 O 137.739 -1.39011 8.63583 0
M  V30 1078 C 136.332 -0.273849 6.91158 0
M  V30 1079 O 137.131 -1.06348 6.02892 0
M  V30 1080 C 134.995 -0.897649 7.22545 0
M  V30 1081 H 135.027 -1.9841 7.04286 0
M  V30 1082 H 136.21 0.739928 6.497 0
M  V30 1083 H 137.694 0.60668 8.36503 0
M  V30 1084 H 136 -0.352479 10.1829 0
M  V30 1085 H 135.81 2.00611 10.0304 0
M  V30 1086 H 134.18 1.41843 9.55327 0
M  V30 1087 H 136.819 -1.95734 6.03555 0
M  V30 1088 P 138.677 -1.25109 8.70152 0
M  V30 1089 O 140.099 -1.35274 9.21221 0
M  V30 1090 O 138.317 -0.0769065 7.84762 0
M  V30 1091 O 138.354 -2.55232 7.81161 0
M  V30 1092 C 138.194 -3.79939 8.58154 0
M  V30 1093 C 138.734 -4.94023 7.72785 0
M  V30 1094 O 137.678 -5.18726 6.91205 0
M  V30 1095 C 139.952 -4.69597 6.85231 0
M  V30 1096 O 140.69 -5.83832 6.51337 0
M  V30 1097 C 139.283 -3.96706 5.66633 0
M  V30 1098 O 140.082 -4.15414 4.49689 0
M  V30 1099 C 137.946 -4.66153 5.59313 0
M  V30 1100 H 137.978 -5.47679 4.85214 0
M  V30 1101 H 139.161 -2.89008 5.86566 0
M  V30 1102 H 140.645 -4.0121 7.36511 0
M  V30 1103 H 138.951 -5.80182 8.37584 0
M  V30 1104 H 138.761 -3.73517 9.52265 0
M  V30 1105 H 137.131 -3.97163 8.80359 0
M  V30 1106 H 139.77 -4.90969 4.01921 0
M  V30 1107 P 141.627 -5.75688 6.64379 0
M  V30 1108 O 143.049 -6.11849 7.01846 0
M  V30 1109 O 141.267 -4.30744 6.56026 0
M  V30 1110 O 141.304 -6.37042 5.19165 0
M  V30 1111 C 141.144 -7.83578 5.16515 0
M  V30 1112 C 141.684 -8.33398 3.83019 0
M  V30 1113 O 140.628 -8.10074 3.01034 0
M  V30 1114 C 142.902 -7.65514 3.2257 0
M  V30 1115 O 143.64 -8.4329 2.32297 0
M  V30 1116 C 142.233 -6.40075 2.62207 0
M  V30 1117 O 143.032 -5.92589 1.53712 0
M  V30 1118 C 140.896 -6.9454 2.18503 0
M  V30 1119 H 140.928 -7.23063 1.12091 0
M  V30 1120 H 142.111 -5.6025 3.37201 0
M  V30 1121 H 143.595 -7.35707 4.02681 0
M  V30 1122 H 141.901 -9.40912 3.9095 0
M  V30 1123 H 141.711 -8.29056 5.99158 0
M  V30 1124 H 140.081 -8.10073 5.25882 0
M  V30 1125 H 142.72 -6.30324 0.726794 0
M  V30 1126 P 144.578 -8.4349 2.47671 0
M  V30 1127 O 146 -8.94167 2.5964 0
M  V30 1128 O 144.218 -7.1704 3.19006 0
M  V30 1129 O 144.255 -8.16596 0.923387 0
M  V30 1130 C 144.095 -9.38437 0.108857 0
M  V30 1131 C 144.635 -9.08175 -1.28353 0
M  V30 1132 O 143.579 -8.44229 -1.84713 0
M  V30 1133 C 145.853 -8.18386 -1.42505 0
M  V30 1134 O 146.591 -8.3501 -2.60497 0
M  V30 1135 C 145.184 -6.80225 -1.25468 0
M  V30 1136 O 145.983 -5.81621 -1.91066 0
M  V30 1137 C 143.847 -7.02416 -1.9168 0
M  V30 1138 H 143.879 -6.6888 -2.96621 0
M  V30 1139 H 145.062 -6.53617 -0.192223 0
M  V30 1140 H 146.546 -8.36622 -0.589963 0
M  V30 1141 H 144.852 -10.0291 -1.79807 0
M  V30 1142 H 144.662 -10.2138 0.558219 0
M  V30 1143 H 143.032 -9.6579 0.0444202 0
M  V30 1144 H 145.671 -5.69556 -2.79637 0
M  V30 1145 P 147.528 -8.4349 -2.47671 0
M  V30 1146 O 148.929 -8.99283 -2.62101 0
M  V30 1147 O 147.15 -7.81195 -1.16947 0
M  V30 1148 O 147.205 -7.36797 -3.63761 0
M  V30 1149 C 147.045 -7.95349 -4.982 0
M  V30 1150 C 147.585 -6.94537 -5.98908 0
M  V30 1151 O 146.529 -6.10277 -6.11744 0
M  V30 1152 C 148.802 -6.11426 -5.62335 0
M  V30 1153 O 149.541 -5.6162 -6.70584 0
M  V30 1154 C 148.135 -5.04409 -4.73308 0
M  V30 1155 O 148.933 -3.85929 -4.75106 0
M  V30 1156 C 146.797 -4.8728 -5.41006 0
M  V30 1157 N 145.754 -4.65812 -4.42377 0
M  V30 1158 C 144.719 -3.81293 -4.74224 0
M  V30 1159 O 144.758 -3.20533 -5.83679 0
M  V30 1160 N 143.707 -3.6442 -3.86349 0
M  V30 1161 C 143.755 -4.2728 -2.6824 0
M  V30 1162 C 144.851 -5.10813 -2.3217 0
M  V30 1163 C 145.817 -5.27909 -3.22647 0
M  V30 1164 H 146.829 -4.02278 -6.11074 0
M  V30 1165 H 148.012 -5.39013 -3.70026 0
M  V30 1166 H 149.496 -6.71494 -5.02675 0
M  V30 1167 H 147.802 -7.45796 -6.94223 0
M  V30 1168 H 147.611 -8.89416 -5.05237 0
M  V30 1169 H 145.981 -8.14791 -5.18355 0
M  V30 1170 H 144.899 -5.58884 -1.34755 0
M  V30 1171 H 146.663 -5.92811 -2.9934 0
M  V30 1172 H 148.717 -3.3454 -5.51577 0
M  V30 1173 P 150.479 -5.75688 -6.64379 0
M  V30 1174 O 151.901 -6.07627 -7.05504 0
M  V30 1175 O 150.119 -5.88047 -5.19722 0
M  V30 1176 O 150.156 -4.2322 -7.04443 0
M  V30 1177 C 149.996 -3.99743 -8.4911 0
M  V30 1178 C 150.536 -2.60516 -8.79425 0
M  V30 1179 O 149.48 -1.82684 -8.4467 0
M  V30 1180 C 151.754 -2.10343 -8.03628 0
M  V30 1181 O 152.492 -1.09919 -8.67766 0
M  V30 1182 C 151.085 -1.68446 -6.70876 0
M  V30 1183 O 151.884 -0.678137 -6.08433 0
M  V30 1184 C 149.748 -1.17436 -7.18567 0
M  V30 1185 H 149.78 -0.0804732 -7.31656 0
M  V30 1186 H 150.963 -2.54037 -6.02537 0
M  V30 1187 H 152.447 -2.93881 -7.85526 0
M  V30 1188 H 150.753 -2.53065 -9.86973 0
M  V30 1189 H 150.563 -4.75072 -9.05887 0
M  V30 1190 H 148.933 -4.05244 -8.76668 0
M  V30 1191 H 151.572 0.177647 -6.34251 0
M  V30 1192 P 153.43 -1.25109 -8.70152 0
M  V30 1193 O 154.852 -1.29744 -9.22016 0
M  V30 1194 O 153.07 -2.13714 -7.55141 0
M  V30 1195 O 153.107 0.248149 -8.21425 0
M  V30 1196 C 152.947 1.22779 -9.30434 0
M  V30 1197 C 153.487 2.56293 -8.80664 0
M  V30 1198 O 152.431 3.02979 -8.09349 0
M  V30 1199 C 154.705 2.57523 -7.89775 0
M  V30 1200 O 155.443 3.7668 -7.89438 0
M  V30 1201 C 154.036 2.20997 -6.55446 0
M  V30 1202 O 154.835 2.71895 -5.48509 0
M  V30 1203 C 152.699 2.89693 -6.67988 0
M  V30 1204 H 152.731 3.88793 -6.19859 0
M  V30 1205 H 153.914 1.12046 -6.44229 0
M  V30 1206 H 155.398 1.7746 -8.19711 0
M  V30 1207 H 153.704 3.20706 -9.67112 0
M  V30 1208 H 153.514 0.901032 -10.1892 0
M  V30 1209 H 151.884 1.33049 -9.56592 0
M  V30 1210 H 154.523 3.57847 -5.23962 0
M  V30 1211 P 156.38 3.65191 -7.99657 0
M  V30 1212 O 157.802 3.89332 -8.45794 0
M  V30 1213 O 156.02 2.28472 -7.50807 0
M  V30 1214 O 156.057 4.64972 -6.77611 0
M  V30 1215 C 155.897 6.06319 -7.16352 0
M  V30 1216 C 156.437 6.91731 -6.02299 0
M  V30 1217 O 155.381 6.92449 -5.17064 0
M  V30 1218 C 157.655 6.43627 -5.25174 0
M  V30 1219 O 158.393 7.43686 -4.60469 0
M  V30 1220 C 156.986 5.40275 -4.31916 0
M  V30 1221 O 157.785 5.25279 -3.14438 0
M  V30 1222 C 155.649 6.04847 -4.05327 0
M  V30 1223 H 155.681 6.62195 -3.11261 0
M  V30 1224 H 156.864 4.42556 -4.81383 0
M  V30 1225 H 158.348 5.92458 -5.93643 0
M  V30 1226 H 156.654 7.92655 -6.402 0
M  V30 1227 H 156.464 6.26671 -8.0846 0
M  V30 1228 H 154.834 6.29101 -7.32804 0
M  V30 1229 H 157.473 5.84315 -2.47318 0
M  V30 1230 P 159.331 7.39546 -4.75277 0
M  V30 1231 O 160.753 7.84798 -5.01039 0
M  V30 1232 O 158.971 5.9812 -5.08098 0
M  V30 1233 O 159.008 7.57503 -3.1866 0
M  V30 1234 C 158.848 8.97357 -2.74833 0
M  V30 1235 C 159.388 9.07548 -1.32709 0
M  V30 1236 O 158.332 8.62072 -0.606159 0
M  V30 1237 C 160.606 8.25383 -0.938334 0
M  V30 1238 O 161.344 8.74577 0.146954 0
M  V30 1239 C 159.937 6.8802 -0.712559 0
M  V30 1240 O 160.736 6.1189 0.194655 0
M  V30 1241 C 158.6 7.27966 -0.139777 0
M  V30 1242 H 158.632 7.25354 0.961601 0
M  V30 1243 H 159.815 6.32557 -1.65702 0
M  V30 1244 H 161.299 8.19355 -1.79097 0
M  V30 1245 H 159.605 10.1294 -1.10029 0
M  V30 1246 H 159.415 9.64276 -3.41316 0
M  V30 1247 H 157.785 9.25417 -2.76357 0
M  V30 1248 H 160.424 6.25267 1.07847 0
M  V30 1249 P 162.281 8.791 -1.35693e-13 0
M  V30 1250 O 163.702 9.31196 0.027936 0
M  V30 1251 O 161.921 7.77869 -1.04071 0
M  V30 1252 O 161.958 8.09533 1.41463 0
M  V30 1253 C 161.797 9.03587 2.5397 0
M  V30 1254 C 162.338 8.35226 3.79016 0
M  V30 1255 O 161.283 7.57904 4.1503 0
M  V30 1256 C 163.556 7.45087 3.67298 0
M  V30 1257 O 164.294 7.27796 4.85194 0
M  V30 1258 C 162.888 6.17323 3.12027 0
M  V30 1259 O 163.686 5.04496 3.46627 0
M  V30 1260 C 161.55 6.19961 3.81809 0
M  V30 1261 N 160.507 5.71575 2.93223 0
M  V30 1262 C 160.676 5.77362 1.59168 0
M  V30 1263 N 159.649 5.3123 0.911893 0
M  V30 1264 C 158.764 4.91717 1.89588 0
M  V30 1265 C 157.497 4.3114 1.8076 0
M  V30 1266 N 156.932 4.06823 3.02898 0
M  V30 1267 C 157.534 4.35062 4.22711 0
M  V30 1268 N 158.711 4.90805 4.35707 0
M  V30 1269 C 159.286 5.16382 3.14469 0
M  V30 1270 H 162.765 6.21428 2.0318 0
M  V30 1271 H 164.248 7.86112 2.9231 0
M  V30 1272 H 162.554 9.11171 4.55987 0
M  V30 1273 H 162.364 9.9573 2.34194 0
M  V30 1274 H 160.734 9.2792 2.67832 0
M  V30 1275 H 161.576 6.16575 1.12198 0
M  V30 1276 H 163.374 4.67628 4.28704 0
M  V30 1277 P 165.232 7.39546 4.75277 0
M  V30 1278 O 166.654 7.81777 5.05738 0
M  V30 1279 O 164.872 7.1065 3.32998 0
M  V30 1280 O 164.909 6.04542 5.56673 0
M  V30 1281 C 164.749 6.22772 7.02095 0
M  V30 1282 C 165.289 4.97725 7.70406 0
M  V30 1283 O 164.233 4.13256 7.58987 0
M  V30 1284 C 166.507 4.28231 7.11815 0
M  V30 1285 O 167.245 3.49945 8.01648 0
M  V30 1286 C 165.838 3.5063 5.96244 0
M  V30 1287 O 166.637 2.36482 5.64681 0
M  V30 1288 C 164.501 3.15122 6.56374 0
M  V30 1289 H 164.533 2.13853 6.99751 0
M  V30 1290 H 165.716 4.13501 5.06559 0
M  V30 1291 H 167.2 5.03285 6.70911 0
M  V30 1292 H 165.506 5.20877 8.75697 0
M  V30 1293 H 165.316 7.11046 7.35349 0
M  V30 1294 H 163.686 6.35815 7.26986 0
M  V30 1295 H 166.325 1.61644 6.13565 0
M  V30 1296 P 168.182 3.65191 7.99657 0
M  V30 1297 O 169.604 3.8425 8.48115 0
M  V30 1298 O 167.822 4.17805 6.64342 0
M  V30 1299 O 167.859 2.07613 7.95143 0
M  V30 1300 C 167.699 1.44328 9.27336 0
M  V30 1301 C 168.239 0.0220036 9.17197 0
M  V30 1302 O 167.183 -0.626867 8.61923 0
M  V30 1303 C 169.457 -0.24586 8.30336 0
M  V30 1304 O 170.195 -1.39011 8.63583 0
M  V30 1305 C 168.788 -0.273849 6.91158 0
M  V30 1306 O 169.587 -1.06348 6.02892 0
M  V30 1307 C 167.451 -0.897649 7.22545 0
M  V30 1308 H 167.483 -1.9841 7.04286 0
M  V30 1309 H 168.666 0.739928 6.497 0
M  V30 1310 H 170.15 0.60668 8.36503 0
M  V30 1311 H 168.456 -0.352479 10.1829 0
M  V30 1312 H 168.266 2.00611 10.0304 0
M  V30 1313 H 166.636 1.41843 9.55327 0
M  V30 1314 H 169.275 -1.95734 6.03555 0
M  V30 1315 P 171.133 -1.25109 8.70152 0
M  V30 1316 O 172.555 -1.35274 9.21221 0
M  V30 1317 O 170.773 -0.0769065 7.84762 0
M  V30 1318 O 170.81 -2.55232 7.81161 0
M  V30 1319 C 170.65 -3.79939 8.58154 0
M  V30 1320 C 171.19 -4.94023 7.72785 0
M  V30 1321 O 170.134 -5.18726 6.91205 0
M  V30 1322 C 172.408 -4.69597 6.85231 0
M  V30 1323 O 173.146 -5.83832 6.51337 0
M  V30 1324 C 171.739 -3.96706 5.66633 0
M  V30 1325 O 172.538 -4.15414 4.49689 0
M  V30 1326 C 170.402 -4.66153 5.59313 0
M  V30 1327 H 170.434 -5.47679 4.85214 0
M  V30 1328 H 171.617 -2.89008 5.86566 0
M  V30 1329 H 173.101 -4.0121 7.36511 0
M  V30 1330 H 171.407 -5.80182 8.37584 0
M  V30 1331 H 171.217 -3.73517 9.52265 0
M  V30 1332 H 169.587 -3.97163 8.80359 0
M  V30 1333 H 172.226 -4.90969 4.01921 0
M  V30 1334 P 174.084 -5.75688 6.64379 0
M  V30 1335 O 175.506 -6.11849 7.01846 0
M  V30 1336 O 173.724 -4.30744 6.56026 0
M  V30 1337 O 173.761 -6.37042 5.19165 0
M  V30 1338 C 173.601 -7.83578 5.16515 0
M  V30 1339 C 174.141 -8.33398 3.83019 0
M  V30 1340 O 173.085 -8.10074 3.01034 0
M  V30 1341 C 175.359 -7.65514 3.2257 0
M  V30 1342 O 176.097 -8.4329 2.32297 0
M  V30 1343 C 174.69 -6.40075 2.62207 0
M  V30 1344 O 175.489 -5.92589 1.53712 0
M  V30 1345 C 173.353 -6.9454 2.18503 0
M  V30 1346 H 173.385 -7.23063 1.12091 0
M  V30 1347 H 174.568 -5.6025 3.37201 0
M  V30 1348 H 176.052 -7.35707 4.02681 0
M  V30 1349 H 174.358 -9.40912 3.9095 0
M  V30 1350 H 174.168 -8.29056 5.99158 0
M  V30 1351 H 172.538 -8.10073 5.25882 0
M  V30 1352 H 175.177 -6.30324 0.726794 0
M  V30 1353 P 177.034 -8.4349 2.47671 0
M  V30 1354 O 178.456 -8.94167 2.5964 0
M  V30 1355 O 176.674 -7.1704 3.19006 0
M  V30 1356 O 176.711 -8.16596 0.923387 0
M  V30 1357 C 176.551 -9.38437 0.108857 0
M  V30 1358 C 177.091 -9.08175 -1.28353 0
M  V30 1359 O 176.035 -8.44229 -1.84713 0
M  V30 1360 C 178.309 -8.18386 -1.42505 0
M  V30 1361 O 179.047 -8.3501 -2.60497 0
M  V30 1362 C 177.64 -6.80225 -1.25468 0
M  V30 1363 O 178.439 -5.81621 -1.91066 0
M  V30 1364 C 176.303 -7.02416 -1.9168 0
M  V30 1365 H 176.335 -6.6888 -2.96621 0
M  V30 1366 H 177.518 -6.53617 -0.192223 0
M  V30 1367 H 179.002 -8.36622 -0.589963 0
M  V30 1368 H 177.308 -10.0291 -1.79807 0
M  V30 1369 H 177.118 -10.2138 0.558219 0
M  V30 1370 H 175.488 -9.6579 0.0444202 0
M  V30 1371 H 178.127 -5.69556 -2.79637 0
M  V30 1372 P 179.985 -8.4349 -2.47671 0
M  V30 1373 O 181.407 -8.92593 -2.65 0
M  V30 1374 O 179.625 -7.7568 -1.19296 0
M  V30 1375 O 179.662 -7.36886 -3.63805 0
M  V30 1376 C 179.502 -7.95349 -4.982 0
M  V30 1377 C 180.042 -6.94612 -5.98974 0
M  V30 1378 O 178.986 -6.10347 -6.11815 0
M  V30 1379 C 181.26 -6.11426 -5.62335 0
M  V30 1380 O 181.998 -5.6162 -6.70584 0
M  V30 1381 C 180.591 -5.04409 -4.73308 0
M  V30 1382 O 181.39 -3.85992 -4.75183 0
M  V30 1383 C 179.254 -4.8728 -5.41006 0
M  V30 1384 H 179.286 -4.02333 -6.11157 0
M  V30 1385 H 180.469 -5.39466 -3.69543 0
M  V30 1386 H 181.953 -6.71916 -5.01943 0
M  V30 1387 H 180.259 -7.4649 -6.93477 0
M  V30 1388 H 180.069 -8.89416 -5.05237 0
M  V30 1389 H 178.439 -8.14876 -5.18409 0
M  V30 1390 H 181.078 -3.27957 -5.4317 0
M  V30 1391 P 182.935 -5.75688 -6.64379 0
M  V30 1392 O 184.357 -6.07627 -7.05504 0
M  V30 1393 O 182.575 -5.88047 -5.19722 0
M  V30 1394 O 182.612 -4.2322 -7.04443 0
M  V30 1395 C 182.452 -3.99743 -8.4911 0
M  V30 1396 C 182.992 -2.60516 -8.79425 0
M  V30 1397 O 181.936 -1.82684 -8.4467 0
M  V30 1398 C 184.21 -2.10343 -8.03628 0
M  V30 1399 O 184.948 -1.09919 -8.67766 0
M  V30 1400 C 183.541 -1.68446 -6.70876 0
M  V30 1401 O 184.34 -0.678137 -6.08433 0
M  V30 1402 C 182.204 -1.17436 -7.18567 0
M  V30 1403 H 182.236 -0.0804732 -7.31656 0
M  V30 1404 H 183.419 -2.54037 -6.02537 0
M  V30 1405 H 184.903 -2.93881 -7.85526 0
M  V30 1406 H 183.209 -2.53065 -9.86973 0
M  V30 1407 H 183.019 -4.75072 -9.05887 0
M  V30 1408 H 181.389 -4.05244 -8.76668 0
M  V30 1409 H 184.028 0.177647 -6.34251 0
M  V30 1410 P 185.886 -1.25109 -8.70152 0
M  V30 1411 O 187.308 -1.29744 -9.22016 0
M  V30 1412 O 185.526 -2.13714 -7.55141 0
M  V30 1413 O 185.563 0.248149 -8.21425 0
M  V30 1414 C 185.403 1.22779 -9.30434 0
M  V30 1415 C 185.943 2.56293 -8.80664 0
M  V30 1416 O 184.887 3.02979 -8.09349 0
M  V30 1417 C 187.161 2.57523 -7.89775 0
M  V30 1418 O 187.899 3.7668 -7.89438 0
M  V30 1419 C 186.492 2.20997 -6.55446 0
M  V30 1420 O 187.291 2.71895 -5.48509 0
M  V30 1421 C 185.155 2.89693 -6.67988 0
M  V30 1422 H 185.187 3.88793 -6.19859 0
M  V30 1423 H 186.37 1.12046 -6.44229 0
M  V30 1424 H 187.854 1.7746 -8.19711 0
M  V30 1425 H 186.16 3.20706 -9.67112 0
M  V30 1426 H 185.97 0.901032 -10.1892 0
M  V30 1427 H 184.34 1.33049 -9.56592 0
M  V30 1428 H 186.979 3.57847 -5.23962 0
M  V30 1429 P 188.836 3.65191 -7.99657 0
M  V30 1430 O 190.258 3.89332 -8.45794 0
M  V30 1431 O 188.476 2.28472 -7.50807 0
M  V30 1432 O 188.513 4.64972 -6.77611 0
M  V30 1433 C 188.353 6.06319 -7.16352 0
M  V30 1434 C 188.893 6.91731 -6.02299 0
M  V30 1435 O 187.837 6.92449 -5.17064 0
M  V30 1436 C 190.111 6.43627 -5.25174 0
M  V30 1437 O 190.849 7.43686 -4.60469 0
M  V30 1438 C 189.442 5.40275 -4.31916 0
M  V30 1439 O 190.241 5.25279 -3.14438 0
M  V30 1440 C 188.105 6.04847 -4.05327 0
M  V30 1441 H 188.137 6.62195 -3.11261 0
M  V30 1442 H 189.32 4.42556 -4.81383 0
M  V30 1443 H 190.804 5.92458 -5.93643 0
M  V30 1444 H 189.11 7.92655 -6.402 0
M  V30 1445 H 188.92 6.26671 -8.0846 0
M  V30 1446 H 187.29 6.29101 -7.32804 0
M  V30 1447 H 189.929 5.84315 -2.47318 0
M  V30 1448 P 191.787 7.39546 -4.75277 0
M  V30 1449 O 193.208 7.84882 -5.01092 0
M  V30 1450 O 191.427 5.9812 -5.08098 0
M  V30 1451 O 191.464 7.57503 -3.1866 0
M  V30 1452 C 191.303 8.97452 -2.74862 0
M  V30 1453 C 191.844 9.07548 -1.32709 0
M  V30 1454 O 190.789 8.61972 -0.606089 0
M  V30 1455 C 193.062 8.25383 -0.938334 0
M  V30 1456 O 193.8 8.74577 0.146954 0
M  V30 1457 C 192.394 6.8802 -0.712559 0
M  V30 1458 O 193.192 6.1181 0.188505 0
M  V30 1459 C 191.056 7.27966 -0.139777 0
M  V30 1460 N 190.013 6.39368 -0.623421 0
M  V30 1461 C 190.182 5.71761 -1.78245 0
M  V30 1462 N 189.155 4.962 -2.10491 0
M  V30 1463 C 188.27 5.16158 -1.0635 0
M  V30 1464 C 187.003 4.60425 -0.810266 0
M  V30 1465 N 186.438 5.06 0.348685 0
M  V30 1466 C 187.04 5.94532 1.20395 0
M  V30 1467 N 188.217 6.48452 1.01191 0
M  V30 1468 C 188.792 6.04423 -0.146291 0
M  V30 1469 H 192.271 6.32625 -1.65044 0
M  V30 1470 H 193.754 8.19355 -1.79097 0
M  V30 1471 H 192.06 10.1305 -1.09016 0
M  V30 1472 H 191.87 9.64276 -3.41316 0
M  V30 1473 H 190.24 9.25417 -2.76357 0
M  V30 1474 H 191.082 5.79354 -2.38959 0
M  V30 1475 H 192.88 6.25169 1.0783 0
M  V30 1476 P 194.738 8.791 1.12009e-13 0
M  V30 1477 O 196.16 9.31096 0.027933 0
M  V30 1478 O 194.378 7.77869 -1.04071 0
M  V30 1479 O 194.415 8.09533 1.41463 0
M  V30 1480 C 194.255 9.0349 2.53943 0
M  V30 1481 C 194.795 8.35226 3.79016 0
M  V30 1482 O 193.739 7.57992 4.15078 0
M  V30 1483 C 196.013 7.45087 3.67298 0
M  V30 1484 O 196.751 7.27796 4.85194 0
M  V30 1485 C 195.344 6.17323 3.12027 0
M  V30 1486 O 196.143 5.04231 3.47188 0
M  V30 1487 C 194.007 6.19961 3.81809 0
M  V30 1488 H 194.039 5.58218 4.73051 0
M  V30 1489 H 195.222 6.21726 2.02589 0
M  V30 1490 H 196.706 7.86112 2.9231 0
M  V30 1491 H 195.012 9.11627 4.55076 0
M  V30 1492 H 194.822 9.9573 2.34194 0
M  V30 1493 H 193.192 9.2792 2.67832 0
M  V30 1494 H 195.831 4.67702 4.28772 0
M  V30 1495 P 197.688 7.39546 4.75277 0
M  V30 1496 O 199.11 7.81777 5.05738 0
M  V30 1497 O 197.328 7.1065 3.32998 0
M  V30 1498 O 197.365 6.04542 5.56673 0
M  V30 1499 C 197.205 6.22772 7.02095 0
M  V30 1500 C 197.745 4.97725 7.70406 0
M  V30 1501 O 196.689 4.13256 7.58987 0
M  V30 1502 C 198.963 4.28231 7.11815 0
M  V30 1503 O 199.701 3.49945 8.01648 0
M  V30 1504 C 198.294 3.5063 5.96244 0
M  V30 1505 O 199.093 2.36482 5.64681 0
M  V30 1506 C 196.957 3.15122 6.56374 0
M  V30 1507 H 196.989 2.13853 6.99751 0
M  V30 1508 H 198.172 4.13501 5.06559 0
M  V30 1509 H 199.656 5.03285 6.70911 0
M  V30 1510 H 197.962 5.20877 8.75697 0
M  V30 1511 H 197.772 7.11046 7.35349 0
M  V30 1512 H 196.142 6.35815 7.26986 0
M  V30 1513 H 198.781 1.61644 6.13565 0
M  V30 1514 P 200.639 3.65191 7.99657 0
M  V30 1515 O 202.061 3.8425 8.48115 0
M  V30 1516 O 200.279 4.17805 6.64342 0
M  V30 1517 O 200.316 2.07613 7.95143 0
M  V30 1518 C 200.156 1.44328 9.27336 0
M  V30 1519 C 200.696 0.0220036 9.17197 0
M  V30 1520 O 199.64 -0.626867 8.61923 0
M  V30 1521 C 201.914 -0.24586 8.30336 0
M  V30 1522 O 202.652 -1.39011 8.63583 0
M  V30 1523 C 201.245 -0.273849 6.91158 0
M  V30 1524 O 202.044 -1.06348 6.02892 0
M  V30 1525 C 199.908 -0.897649 7.22545 0
M  V30 1526 H 199.94 -1.9841 7.04286 0
M  V30 1527 H 201.123 0.739928 6.497 0
M  V30 1528 H 202.607 0.60668 8.36503 0
M  V30 1529 H 200.913 -0.352479 10.1829 0
M  V30 1530 H 200.723 2.00611 10.0304 0
M  V30 1531 H 199.093 1.41843 9.55327 0
M  V30 1532 H 201.732 -1.95734 6.03555 0
M  V30 1533 P 203.589 -1.25109 8.70152 0
M  V30 1534 O 205.011 -1.35274 9.21221 0
M  V30 1535 O 203.229 -0.0769065 7.84762 0
M  V30 1536 O 203.266 -2.55232 7.81161 0
M  V30 1537 C 203.106 -3.79939 8.58154 0
M  V30 1538 C 203.646 -4.94023 7.72785 0
M  V30 1539 O 202.59 -5.18726 6.91205 0
M  V30 1540 C 204.864 -4.69597 6.85231 0
M  V30 1541 O 205.602 -5.83832 6.51337 0
M  V30 1542 C 204.195 -3.96706 5.66633 0
M  V30 1543 O 204.994 -4.15414 4.49689 0
M  V30 1544 C 202.858 -4.66153 5.59313 0
M  V30 1545 H 202.89 -5.47679 4.85214 0
M  V30 1546 H 204.073 -2.89008 5.86566 0
M  V30 1547 H 205.557 -4.0121 7.36511 0
M  V30 1548 H 203.863 -5.80182 8.37584 0
M  V30 1549 H 203.673 -3.73517 9.52265 0
M  V30 1550 H 202.043 -3.97163 8.80359 0
M  V30 1551 H 204.682 -4.90969 4.01921 0
M  V30 1552 P 206.54 -5.75688 6.64379 0
M  V30 1553 O 207.961 -6.11915 7.01921 0
M  V30 1554 O 206.18 -4.30744 6.56026 0
M  V30 1555 O 206.217 -6.37042 5.19165 0
M  V30 1556 C 206.056 -7.83662 5.1657 0
M  V30 1557 C 206.597 -8.33398 3.83019 0
M  V30 1558 O 205.542 -8.0998 3.00999 0
M  V30 1559 C 207.815 -7.65514 3.2257 0
M  V30 1560 O 208.553 -8.4329 2.32297 0
M  V30 1561 C 207.147 -6.40075 2.62207 0
M  V30 1562 O 207.945 -5.92338 1.5428 0
M  V30 1563 C 205.809 -6.9454 2.18503 0
M  V30 1564 N 204.766 -5.95905 2.39948 0
M  V30 1565 C 204.935 -4.98383 3.32108 0
M  V30 1566 N 203.908 -4.16798 3.41761 0
M  V30 1567 C 203.023 -4.65287 2.47461 0
M  V30 1568 C 201.756 -4.18946 2.07461 0
M  V30 1569 N 201.157 -3.09661 2.60717 0
M  V30 1570 N 201.191 -4.95327 1.09101 0
M  V30 1571 C 201.793 -6.04369 0.519812 0
M  V30 1572 N 202.97 -6.50694 0.855982 0
M  V30 1573 C 203.545 -5.75818 1.84322 0
M  V30 1574 H 205.841 -7.22964 1.12076 0
M  V30 1575 H 207.024 -5.60502 3.36589 0
M  V30 1576 H 208.507 -7.35707 4.02681 0
M  V30 1577 H 206.813 -9.41302 3.90009 0
M  V30 1578 H 206.623 -8.29056 5.99158 0
M  V30 1579 H 204.993 -8.10073 5.25882 0
M  V30 1580 H 201.257 -6.55843 -0.270373 0
M  V30 1581 H 205.835 -4.88564 3.92502 0
M  V30 1582 H 200.227 -2.80523 2.27218 0
M  V30 1583 H 201.631 -2.55848 3.34465 0
M  V30 1584 H 207.633 -6.30224 0.72668 0
M  V30 1585 P 209.49 -8.4349 2.47671 0
M  V30 1586 O 210.912 -8.94167 2.5964 0
M  V30 1587 O 209.13 -7.1704 3.19006 0
M  V30 1588 O 209.167 -8.16596 0.923387 0
M  V30 1589 C 209.007 -9.38437 0.108857 0
M  V30 1590 C 209.547 -9.08175 -1.28353 0
M  V30 1591 O 208.491 -8.44229 -1.84713 0
M  V30 1592 C 210.765 -8.18386 -1.42505 0
M  V30 1593 O 211.503 -8.3501 -2.60497 0
M  V30 1594 C 210.096 -6.80225 -1.25468 0
M  V30 1595 O 210.895 -5.81621 -1.91066 0
M  V30 1596 C 208.759 -7.02416 -1.9168 0
M  V30 1597 H 208.791 -6.6888 -2.96621 0
M  V30 1598 H 209.974 -6.53617 -0.192223 0
M  V30 1599 H 211.458 -8.36622 -0.589963 0
M  V30 1600 H 209.764 -10.0291 -1.79807 0
M  V30 1601 H 209.574 -10.2138 0.558219 0
M  V30 1602 H 207.944 -9.6579 0.0444202 0
M  V30 1603 H 210.583 -5.69556 -2.79637 0
M  V30 1604 P 212.441 -8.4349 -2.47671 0
M  V30 1605 O 213.863 -8.92593 -2.65 0
M  V30 1606 O 212.081 -7.7568 -1.19296 0
M  V30 1607 O 212.118 -7.36886 -3.63805 0
M  V30 1608 C 211.958 -7.95349 -4.982 0
M  V30 1609 C 212.498 -6.94612 -5.98974 0
M  V30 1610 O 211.442 -6.10347 -6.11815 0
M  V30 1611 C 213.716 -6.11426 -5.62335 0
M  V30 1612 O 214.454 -5.6162 -6.70584 0
M  V30 1613 C 213.047 -5.04409 -4.73308 0
M  V30 1614 O 213.846 -3.85992 -4.75183 0
M  V30 1615 C 211.71 -4.8728 -5.41006 0
M  V30 1616 H 211.742 -4.02333 -6.11157 0
M  V30 1617 H 212.925 -5.39466 -3.69543 0
M  V30 1618 H 214.409 -6.71916 -5.01943 0
M  V30 1619 H 212.715 -7.4649 -6.93477 0
M  V30 1620 H 212.525 -8.89416 -5.05237 0
M  V30 1621 H 210.895 -8.14876 -5.18409 0
M  V30 1622 H 213.534 -3.27957 -5.4317 0
M  V30 1623 P 215.392 -5.75688 -6.64379 0
M  V30 1624 O 216.814 -6.07627 -7.05504 0
M  V30 1625 O 215.032 -5.88047 -5.19722 0
M  V30 1626 O 215.069 -4.2322 -7.04443 0
M  V30 1627 C 214.909 -3.99743 -8.4911 0
M  V30 1628 C 215.449 -2.60516 -8.79425 0
M  V30 1629 O 214.393 -1.82684 -8.4467 0
M  V30 1630 C 216.667 -2.10343 -8.03628 0
M  V30 1631 O 217.405 -1.09919 -8.67766 0
M  V30 1632 C 215.998 -1.68446 -6.70876 0
M  V30 1633 O 216.797 -0.678137 -6.08433 0
M  V30 1634 C 214.661 -1.17436 -7.18567 0
M  V30 1635 H 214.693 -0.0804732 -7.31656 0
M  V30 1636 H 215.876 -2.54037 -6.02537 0
M  V30 1637 H 217.36 -2.93881 -7.85526 0
M  V30 1638 H 215.666 -2.53065 -9.86973 0
M  V30 1639 H 215.476 -4.75072 -9.05887 0
M  V30 1640 H 213.846 -4.05244 -8.76668 0
M  V30 1641 H 216.485 0.177647 -6.34251 0
M  V30 1642 P 218.342 -1.25109 -8.70152 0
M  V30 1643 O 219.764 -1.29744 -9.22016 0
M  V30 1644 O 217.982 -2.13714 -7.55141 0
M  V30 1645 O 218.019 0.248149 -8.21425 0
M  V30 1646 C 217.859 1.22779 -9.30434 0
M  V30 1647 C 218.399 2.56293 -8.80664 0
M  V30 1648 O 217.343 3.02979 -8.09349 0
M  V30 1649 C 219.617 2.57523 -7.89775 0
M  V30 1650 O 220.355 3.7668 -7.89438 0
M  V30 1651 C 218.948 2.20997 -6.55446 0
M  V30 1652 O 219.747 2.71895 -5.48509 0
M  V30 1653 C 217.611 2.89693 -6.67988 0
M  V30 1654 H 217.643 3.88793 -6.19859 0
M  V30 1655 H 218.826 1.12046 -6.44229 0
M  V30 1656 H 220.31 1.7746 -8.19711 0
M  V30 1657 H 218.616 3.20706 -9.67112 0
M  V30 1658 H 218.426 0.901032 -10.1892 0
M  V30 1659 H 216.796 1.33049 -9.56592 0
M  V30 1660 H 219.435 3.57847 -5.23962 0
M  V30 1661 P 221.293 3.65191 -7.99657 0
M  V30 1662 O 222.715 3.89332 -8.45794 0
M  V30 1663 O 220.933 2.28472 -7.50807 0
M  V30 1664 O 220.97 4.64972 -6.77611 0
M  V30 1665 C 220.81 6.06319 -7.16352 0
M  V30 1666 C 221.35 6.91731 -6.02299 0
M  V30 1667 O 220.294 6.92449 -5.17064 0
M  V30 1668 C 222.568 6.43627 -5.25174 0
M  V30 1669 O 223.306 7.43686 -4.60469 0
M  V30 1670 C 221.899 5.40275 -4.31916 0
M  V30 1671 O 222.698 5.25279 -3.14438 0
M  V30 1672 C 220.562 6.04847 -4.05327 0
M  V30 1673 H 220.594 6.62195 -3.11261 0
M  V30 1674 H 221.777 4.42556 -4.81383 0
M  V30 1675 H 223.261 5.92458 -5.93643 0
M  V30 1676 H 221.567 7.92655 -6.402 0
M  V30 1677 H 221.377 6.26671 -8.0846 0
M  V30 1678 H 219.747 6.29101 -7.32804 0
M  V30 1679 H 222.386 5.84315 -2.47318 0
M  V30 1680 P 224.243 7.39546 -4.75277 0
M  V30 1681 O 225.664 7.84882 -5.01092 0
M  V30 1682 O 223.883 5.9812 -5.08098 0
M  V30 1683 O 223.92 7.57503 -3.1866 0
M  V30 1684 C 223.759 8.97452 -2.74862 0
M  V30 1685 C 224.3 9.07548 -1.32709 0
M  V30 1686 O 223.245 8.61972 -0.606089 0
M  V30 1687 C 225.518 8.25383 -0.938334 0
M  V30 1688 O 226.256 8.74577 0.146954 0
M  V30 1689 C 224.85 6.8802 -0.712559 0
M  V30 1690 O 225.648 6.1181 0.188505 0
M  V30 1691 C 223.512 7.27966 -0.139777 0
M  V30 1692 N 222.469 6.39368 -0.623421 0
M  V30 1693 C 222.638 5.71761 -1.78245 0
M  V30 1694 N 221.611 4.962 -2.10491 0
M  V30 1695 C 220.726 5.16158 -1.0635 0
M  V30 1696 C 219.459 4.60425 -0.810266 0
M  V30 1697 N 218.86 3.7057 -1.62914 0
M  V30 1698 N 218.894 5.06 0.348685 0
M  V30 1699 C 219.496 5.94532 1.20395 0
M  V30 1700 N 220.673 6.48452 1.01191 0
M  V30 1701 C 221.248 6.04423 -0.146291 0
M  V30 1702 H 223.544 7.25255 0.961469 0
M  V30 1703 H 224.727 6.32625 -1.65044 0
M  V30 1704 H 226.21 8.19355 -1.79097 0
M  V30 1705 H 224.516 10.1305 -1.09016 0
M  V30 1706 H 224.326 9.64276 -3.41316 0
M  V30 1707 H 222.696 9.25417 -2.76357 0
M  V30 1708 H 218.96 6.21659 2.10714 0
M  V30 1709 H 223.538 5.79354 -2.38959 0
M  V30 1710 H 217.93 3.33174 -1.38982 0
M  V30 1711 H 219.334 3.39714 -2.48836 0
M  V30 1712 H 225.336 6.25169 1.0783 0
M  V30 1713 P 227.194 8.791 4.22174e-13 0
M  V30 1714 O 228.616 9.31096 0.027933 0
M  V30 1715 O 226.834 7.77869 -1.04071 0
M  V30 1716 O 226.871 8.09533 1.41463 0
M  V30 1717 C 226.711 9.0349 2.53943 0
M  V30 1718 C 227.251 8.35226 3.79016 0
M  V30 1719 O 226.195 7.57992 4.15078 0
M  V30 1720 C 228.469 7.45087 3.67298 0
M  V30 1721 O 229.207 7.27796 4.85194 0
M  V30 1722 C 227.8 6.17323 3.12027 0
M  V30 1723 O 228.599 5.04231 3.47188 0
M  V30 1724 C 226.463 6.19961 3.81809 0
M  V30 1725 H 226.495 5.58218 4.73051 0
M  V30 1726 H 227.678 6.21726 2.02589 0
M  V30 1727 H 229.162 7.86112 2.9231 0
M  V30 1728 H 227.468 9.11627 4.55076 0
M  V30 1729 H 227.278 9.9573 2.34194 0
M  V30 1730 H 225.648 9.2792 2.67832 0
M  V30 1731 H 228.287 4.67702 4.28772 0
M  V30 1732 P 230.144 7.39546 4.75277 0
M  V30 1733 O 231.566 7.81777 5.05738 0
M  V30 1734 O 229.784 7.1065 3.32998 0
M  V30 1735 O 229.821 6.04542 5.56673 0
M  V30 1736 C 229.661 6.22772 7.02095 0
M  V30 1737 C 230.201 4.97725 7.70406 0
M  V30 1738 O 229.145 4.13256 7.58987 0
M  V30 1739 C 231.419 4.28231 7.11815 0
M  V30 1740 O 232.157 3.49945 8.01648 0
M  V30 1741 C 230.75 3.5063 5.96244 0
M  V30 1742 O 231.549 2.36482 5.64681 0
M  V30 1743 C 229.413 3.15122 6.56374 0
M  V30 1744 H 229.445 2.13853 6.99751 0
M  V30 1745 H 230.628 4.13501 5.06559 0
M  V30 1746 H 232.112 5.03285 6.70911 0
M  V30 1747 H 230.418 5.20877 8.75697 0
M  V30 1748 H 230.228 7.11046 7.35349 0
M  V30 1749 H 228.598 6.35815 7.26986 0
M  V30 1750 H 231.237 1.61644 6.13565 0
M  V30 1751 P 233.095 3.65191 7.99657 0
M  V30 1752 O 234.517 3.8425 8.48115 0
M  V30 1753 O 232.735 4.17805 6.64342 0
M  V30 1754 O 232.772 2.07613 7.95143 0
M  V30 1755 C 232.612 1.44328 9.27336 0
M  V30 1756 C 233.152 0.0220036 9.17197 0
M  V30 1757 O 232.096 -0.626867 8.61923 0
M  V30 1758 C 234.37 -0.24586 8.30336 0
M  V30 1759 O 235.108 -1.39011 8.63583 0
M  V30 1760 C 233.701 -0.273849 6.91158 0
M  V30 1761 O 234.5 -1.06348 6.02892 0
M  V30 1762 C 232.364 -0.897649 7.22545 0
M  V30 1763 H 232.396 -1.9841 7.04286 0
M  V30 1764 H 233.579 0.739928 6.497 0
M  V30 1765 H 235.063 0.60668 8.36503 0
M  V30 1766 H 233.369 -0.352479 10.1829 0
M  V30 1767 H 233.179 2.00611 10.0304 0
M  V30 1768 H 231.549 1.41843 9.55327 0
M  V30 1769 H 234.188 -1.95734 6.03555 0
M  V30 1770 P 236.046 -1.25109 8.70152 0
M  V30 1771 O 237.468 -1.35274 9.21221 0
M  V30 1772 O 235.686 -0.0769065 7.84762 0
M  V30 1773 O 235.723 -2.55232 7.81161 0
M  V30 1774 C 235.563 -3.79939 8.58154 0
M  V30 1775 C 236.103 -4.94023 7.72785 0
M  V30 1776 O 235.047 -5.18726 6.91205 0
M  V30 1777 C 237.321 -4.69597 6.85231 0
M  V30 1778 O 238.059 -5.83832 6.51337 0
M  V30 1779 C 236.652 -3.96706 5.66633 0
M  V30 1780 O 237.451 -4.15414 4.49689 0
M  V30 1781 C 235.315 -4.66153 5.59313 0
M  V30 1782 H 235.347 -5.47679 4.85214 0
M  V30 1783 H 236.53 -2.89008 5.86566 0
M  V30 1784 H 238.014 -4.0121 7.36511 0
M  V30 1785 H 236.32 -5.80182 8.37584 0
M  V30 1786 H 236.13 -3.73517 9.52265 0
M  V30 1787 H 234.5 -3.97163 8.80359 0
M  V30 1788 H 237.139 -4.90969 4.01921 0
M  V30 1789 P 238.996 -5.75688 6.64379 0
M  V30 1790 O 240.418 -6.11849 7.01846 0
M  V30 1791 O 238.636 -4.30744 6.56026 0
M  V30 1792 O 238.673 -6.37042 5.19165 0
M  V30 1793 C 238.513 -7.83578 5.16515 0
M  V30 1794 C 239.053 -8.33398 3.83019 0
M  V30 1795 O 237.997 -8.10074 3.01034 0
M  V30 1796 C 240.271 -7.65514 3.2257 0
M  V30 1797 O 241.009 -8.4329 2.32297 0
M  V30 1798 C 239.602 -6.40075 2.62207 0
M  V30 1799 O 240.401 -5.92589 1.53712 0
M  V30 1800 C 238.265 -6.9454 2.18503 0
M  V30 1801 H 238.297 -7.23063 1.12091 0
M  V30 1802 H 239.48 -5.6025 3.37201 0
M  V30 1803 H 240.964 -7.35707 4.02681 0
M  V30 1804 H 239.27 -9.40912 3.9095 0
M  V30 1805 H 239.08 -8.29056 5.99158 0
M  V30 1806 H 237.45 -8.10073 5.25882 0
M  V30 1807 H 240.089 -6.30324 0.726794 0
M  V30 1808 P 241.947 -8.4349 2.47671 0
M  V30 1809 O 243.369 -8.94167 2.5964 0
M  V30 1810 O 241.587 -7.1704 3.19006 0
M  V30 1811 O 241.624 -8.16596 0.923387 0
M  V30 1812 C 241.464 -9.38437 0.108857 0
M  V30 1813 C 242.004 -9.08175 -1.28353 0
M  V30 1814 O 240.948 -8.44229 -1.84713 0
M  V30 1815 C 243.222 -8.18386 -1.42505 0
M  V30 1816 O 243.96 -8.3501 -2.60497 0
M  V30 1817 C 242.553 -6.80225 -1.25468 0
M  V30 1818 O 243.352 -5.81621 -1.91066 0
M  V30 1819 C 241.216 -7.02416 -1.9168 0
M  V30 1820 H 241.248 -6.6888 -2.96621 0
M  V30 1821 H 242.431 -6.53617 -0.192223 0
M  V30 1822 H 243.915 -8.36622 -0.589963 0
M  V30 1823 H 242.221 -10.0291 -1.79807 0
M  V30 1824 H 242.031 -10.2138 0.558219 0
M  V30 1825 H 240.401 -9.6579 0.0444202 0
M  V30 1826 H 243.04 -5.69556 -2.79637 0
M  V30 1827 P 244.897 -8.4349 -2.47671 0
M  V30 1828 O 246.319 -8.92593 -2.65 0
M  V30 1829 O 244.537 -7.7568 -1.19296 0
M  V30 1830 O 244.574 -7.36886 -3.63805 0
M  V30 1831 C 244.414 -7.95349 -4.982 0
M  V30 1832 C 244.954 -6.94612 -5.98974 0
M  V30 1833 O 243.898 -6.10347 -6.11815 0
M  V30 1834 C 246.172 -6.11426 -5.62335 0
M  V30 1835 O 246.91 -5.6162 -6.70584 0
M  V30 1836 C 245.503 -5.04409 -4.73308 0
M  V30 1837 O 246.302 -3.85992 -4.75183 0
M  V30 1838 C 244.166 -4.8728 -5.41006 0
M  V30 1839 H 244.198 -4.02333 -6.11157 0
M  V30 1840 H 245.381 -5.39466 -3.69543 0
M  V30 1841 H 246.865 -6.71916 -5.01943 0
M  V30 1842 H 245.171 -7.4649 -6.93477 0
M  V30 1843 H 244.981 -8.89416 -5.05237 0
M  V30 1844 H 243.351 -8.14876 -5.18409 0
M  V30 1845 H 245.99 -3.27957 -5.4317 0
M  V30 1846 P 247.848 -5.75688 -6.64379 0
M  V30 1847 O 249.249 -6.14823 -7.06682 0
M  V30 1848 O 247.47 -5.93957 -5.20728 0
M  V30 1849 O 247.525 -4.23169 -7.04357 0
M  V30 1850 C 247.365 -3.99743 -8.4911 0
M  V30 1851 C 247.905 -2.60487 -8.79329 0
M  V30 1852 O 246.849 -1.82663 -8.44573 0
M  V30 1853 C 249.122 -2.10343 -8.03628 0
M  V30 1854 O 249.861 -1.09919 -8.67766 0
M  V30 1855 C 248.455 -1.68446 -6.70876 0
M  V30 1856 O 249.253 -0.678026 -6.08333 0
M  V30 1857 C 247.117 -1.17436 -7.18567 0
M  V30 1858 N 246.074 -1.52699 -6.23988 0
M  V30 1859 C 245.039 -0.643793 -6.05085 0
M  V30 1860 O 245.078 0.459118 -6.64315 0
M  V30 1861 N 244.027 -0.976931 -5.22038 0
M  V30 1862 C 244.075 -2.14429 -4.56662 0
M  V30 1863 C 245.171 -3.04203 -4.71481 0
M  V30 1864 C 246.137 -2.69669 -5.56838 0
M  V30 1865 H 247.149 -0.0804622 -7.31556 0
M  V30 1866 H 248.332 -2.53396 -6.02698 0
M  V30 1867 H 249.816 -2.9313 -7.85914 0
M  V30 1868 H 248.122 -2.52078 -9.87225 0
M  V30 1869 H 247.931 -4.75072 -9.05887 0
M  V30 1870 H 246.301 -4.05202 -8.76577 0
M  V30 1871 H 245.219 -3.97309 -4.15519 0
M  V30 1872 H 246.983 -3.36869 -5.72318 0
M  V30 1873 H 249.037 0.167718 -6.44882 0
M  V30 1874 P 250.798 -1.25109 -8.70152 0
M  V30 1875 O 252.22 -1.29744 -9.22016 0
M  V30 1876 O 250.438 -2.13714 -7.55141 0
M  V30 1877 O 250.475 0.248149 -8.21425 0
M  V30 1878 C 250.315 1.22779 -9.30434 0
M  V30 1879 C 250.855 2.56293 -8.80664 0
M  V30 1880 O 249.799 3.02979 -8.09349 0
M  V30 1881 C 252.073 2.57523 -7.89775 0
M  V30 1882 O 252.811 3.7668 -7.89438 0
M  V30 1883 C 251.404 2.20997 -6.55446 0
M  V30 1884 O 252.203 2.71895 -5.48509 0
M  V30 1885 C 250.067 2.89693 -6.67988 0
M  V30 1886 H 250.099 3.88793 -6.19859 0
M  V30 1887 H 251.282 1.12046 -6.44229 0
M  V30 1888 H 252.766 1.7746 -8.19711 0
M  V30 1889 H 251.072 3.20706 -9.67112 0
M  V30 1890 H 250.882 0.901032 -10.1892 0
M  V30 1891 H 249.252 1.33049 -9.56592 0
M  V30 1892 H 251.891 3.57847 -5.23962 0
M  V30 1893 P 253.749 3.65191 -7.99657 0
M  V30 1894 O 255.171 3.89332 -8.45794 0
M  V30 1895 O 253.389 2.28472 -7.50807 0
M  V30 1896 O 253.426 4.64972 -6.77611 0
M  V30 1897 C 253.266 6.06319 -7.16352 0
M  V30 1898 C 253.806 6.91731 -6.02299 0
M  V30 1899 O 252.75 6.92449 -5.17064 0
M  V30 1900 C 255.024 6.43627 -5.25174 0
M  V30 1901 O 255.762 7.43686 -4.60469 0
M  V30 1902 C 254.355 5.40275 -4.31916 0
M  V30 1903 O 255.154 5.25279 -3.14438 0
M  V30 1904 C 253.018 6.04847 -4.05327 0
M  V30 1905 H 253.05 6.62195 -3.11261 0
M  V30 1906 H 254.233 4.42556 -4.81383 0
M  V30 1907 H 255.717 5.92458 -5.93643 0
M  V30 1908 H 254.023 7.92655 -6.402 0
M  V30 1909 H 253.833 6.26671 -8.0846 0
M  V30 1910 H 252.203 6.29101 -7.32804 0
M  V30 1911 H 254.842 5.84315 -2.47318 0
M  V30 1912 P 256.7 7.39546 -4.75277 0
M  V30 1913 O 258.122 7.84798 -5.01039 0
M  V30 1914 O 256.34 5.9812 -5.08098 0
M  V30 1915 O 256.377 7.57503 -3.1866 0
M  V30 1916 C 256.217 8.97357 -2.74833 0
M  V30 1917 C 256.757 9.07548 -1.32709 0
M  V30 1918 O 255.701 8.62072 -0.606159 0
M  V30 1919 C 257.975 8.25383 -0.938334 0
M  V30 1920 O 258.713 8.74577 0.146954 0
M  V30 1921 C 257.306 6.8802 -0.712559 0
M  V30 1922 O 258.105 6.1189 0.194655 0
M  V30 1923 C 255.969 7.27966 -0.139777 0
M  V30 1924 H 256.001 7.25354 0.961601 0
M  V30 1925 H 257.184 6.32557 -1.65702 0
M  V30 1926 H 258.668 8.19355 -1.79097 0
M  V30 1927 H 256.974 10.1294 -1.10029 0
M  V30 1928 H 256.784 9.64276 -3.41316 0
M  V30 1929 H 255.154 9.25417 -2.76357 0
M  V30 1930 H 257.793 6.25267 1.07847 0
M  V30 1931 P 259.65 8.791 7.3234e-13 0
M  V30 1932 O 261.072 9.31096 0.027933 0
M  V30 1933 O 259.29 7.77869 -1.04071 0
M  V30 1934 O 259.327 8.09533 1.41463 0
M  V30 1935 C 259.167 9.0349 2.53943 0
M  V30 1936 C 259.707 8.35226 3.79016 0
M  V30 1937 O 258.651 7.57992 4.15078 0
M  V30 1938 C 260.925 7.45087 3.67298 0
M  V30 1939 O 261.663 7.27796 4.85194 0
M  V30 1940 C 260.256 6.17323 3.12027 0
M  V30 1941 O 261.055 5.04231 3.47188 0
M  V30 1942 C 258.919 6.19961 3.81809 0
M  V30 1943 H 258.951 5.58218 4.73051 0
M  V30 1944 H 260.134 6.21726 2.02589 0
M  V30 1945 H 261.618 7.86112 2.9231 0
M  V30 1946 H 259.924 9.11627 4.55076 0
M  V30 1947 H 259.734 9.9573 2.34194 0
M  V30 1948 H 258.104 9.2792 2.67832 0
M  V30 1949 H 260.743 4.67702 4.28772 0
M  V30 1950 P 262.601 7.39546 4.75277 0
M  V30 1951 O 264.023 7.81777 5.05738 0
M  V30 1952 O 262.241 7.1065 3.32998 0
M  V30 1953 O 262.278 6.04542 5.56673 0
M  V30 1954 C 262.118 6.22772 7.02095 0
M  V30 1955 C 262.658 4.97725 7.70406 0
M  V30 1956 O 261.602 4.13256 7.58987 0
M  V30 1957 C 263.876 4.28231 7.11815 0
M  V30 1958 O 264.614 3.49945 8.01648 0
M  V30 1959 C 263.207 3.5063 5.96244 0
M  V30 1960 O 264.006 2.36482 5.64681 0
M  V30 1961 C 261.87 3.15122 6.56374 0
M  V30 1962 H 261.902 2.13853 6.99751 0
M  V30 1963 H 263.085 4.13501 5.06559 0
M  V30 1964 H 264.569 5.03285 6.70911 0
M  V30 1965 H 262.875 5.20877 8.75697 0
M  V30 1966 H 262.685 7.11046 7.35349 0
M  V30 1967 H 261.055 6.35815 7.26986 0
M  V30 1968 H 263.694 1.61644 6.13565 0
M  V30 1969 P 265.551 3.65191 7.99657 0
M  V30 1970 O 266.973 3.8425 8.48115 0
M  V30 1971 O 265.191 4.17805 6.64342 0
M  V30 1972 O 265.228 2.07613 7.95143 0
M  V30 1973 C 265.068 1.44328 9.27336 0
M  V30 1974 C 265.608 0.0220036 9.17197 0
M  V30 1975 O 264.552 -0.626867 8.61923 0
M  V30 1976 C 266.826 -0.24586 8.30336 0
M  V30 1977 O 267.564 -1.39011 8.63583 0
M  V30 1978 C 266.157 -0.273849 6.91158 0
M  V30 1979 O 266.956 -1.06348 6.02892 0
M  V30 1980 C 264.82 -0.897649 7.22545 0
M  V30 1981 H 264.852 -1.9841 7.04286 0
M  V30 1982 H 266.035 0.739928 6.497 0
M  V30 1983 H 267.519 0.60668 8.36503 0
M  V30 1984 H 265.825 -0.352479 10.1829 0
M  V30 1985 H 265.635 2.00611 10.0304 0
M  V30 1986 H 264.005 1.41843 9.55327 0
M  V30 1987 H 266.644 -1.95734 6.03555 0
M  V30 1988 P 268.502 -1.25109 8.70152 0
M  V30 1989 O 269.903 -1.31452 9.27431 0
M  V30 1990 O 268.124 -0.0458113 7.89887 0
M  V30 1991 O 268.179 -2.55201 7.81066 0
M  V30 1992 C 268.019 -3.79939 8.58154 0
M  V30 1993 C 268.559 -4.93969 7.72701 0
M  V30 1994 O 267.503 -5.18666 6.91125 0
M  V30 1995 C 269.776 -4.69597 6.85231 0
M  V30 1996 O 270.515 -5.83832 6.51337 0
M  V30 1997 C 269.109 -3.96706 5.66633 0
M  V30 1998 O 269.907 -4.15346 4.49615 0
M  V30 1999 C 267.771 -4.66153 5.59313 0
M  V30 2000 N 266.728 -3.71582 5.24027 0
M  V30 2001 C 265.693 -4.15133 4.44901 0
M  V30 2002 O 265.732 -5.32122 4.00336 0
M  V30 2003 N 264.681 -3.30554 4.15693 0
M  V30 2004 C 264.729 -2.04701 4.61105 0
M  V30 2005 C 265.825 -1.57111 5.38655 0
M  V30 2006 C 266.791 -2.44234 5.68454 0
M  V30 2007 H 267.803 -5.47604 4.85148 0
M  V30 2008 H 268.986 -2.8955 5.86187 0
M  V30 2009 H 270.47 -4.01995 7.36197 0
M  V30 2010 H 268.776 -5.81019 8.37003 0
M  V30 2011 H 268.585 -3.73517 9.52265 0
M  V30 2012 H 266.955 -3.97122 8.80267 0
M  V30 2013 H 265.873 -0.538464 5.72373 0
M  V30 2014 H 267.637 -2.11927 6.29377 0
M  V30 2015 H 269.691 -4.98352 4.09633 0
M  V30 2016 P 271.452 -5.75688 6.64379 0
M  V30 2017 O 272.874 -6.11849 7.01846 0
M  V30 2018 O 271.092 -4.30744 6.56026 0
M  V30 2019 O 271.129 -6.37042 5.19165 0
M  V30 2020 C 270.969 -7.83578 5.16515 0
M  V30 2021 C 271.509 -8.33398 3.83019 0
M  V30 2022 O 270.453 -8.10074 3.01034 0
M  V30 2023 C 272.727 -7.65514 3.2257 0
M  V30 2024 O 273.465 -8.4329 2.32297 0
M  V30 2025 C 272.058 -6.40075 2.62207 0
M  V30 2026 O 272.857 -5.92589 1.53712 0
M  V30 2027 C 270.721 -6.9454 2.18503 0
M  V30 2028 H 270.753 -7.23063 1.12091 0
M  V30 2029 H 271.936 -5.6025 3.37201 0
M  V30 2030 H 273.42 -7.35707 4.02681 0
M  V30 2031 H 271.726 -9.40912 3.9095 0
M  V30 2032 H 271.536 -8.29056 5.99158 0
M  V30 2033 H 269.906 -8.10073 5.25882 0
M  V30 2034 H 272.545 -6.30324 0.726794 0
M  V30 2035 P 274.403 -8.4349 2.47671 0
M  V30 2036 O 275.825 -8.94167 2.5964 0
M  V30 2037 O 274.043 -7.1704 3.19006 0
M  V30 2038 O 274.08 -8.16596 0.923387 0
M  V30 2039 C 273.92 -9.38437 0.108857 0
M  V30 2040 C 274.46 -9.08175 -1.28353 0
M  V30 2041 O 273.404 -8.44229 -1.84713 0
M  V30 2042 C 275.678 -8.18386 -1.42505 0
M  V30 2043 O 276.416 -8.3501 -2.60497 0
M  V30 2044 C 275.009 -6.80225 -1.25468 0
M  V30 2045 O 275.808 -5.81621 -1.91066 0
M  V30 2046 C 273.672 -7.02416 -1.9168 0
M  V30 2047 H 273.704 -6.6888 -2.96621 0
M  V30 2048 H 274.887 -6.53617 -0.192223 0
M  V30 2049 H 276.371 -8.36622 -0.589963 0
M  V30 2050 H 274.677 -10.0291 -1.79807 0
M  V30 2051 H 274.487 -10.2138 0.558219 0
M  V30 2052 H 272.857 -9.6579 0.0444202 0
M  V30 2053 H 275.496 -5.69556 -2.79637 0
M  V30 2054 P 277.354 -8.4349 -2.47671 0
M  V30 2055 O 278.776 -8.92785 -2.65057 0
M  V30 2056 O 276.994 -7.7568 -1.19296 0
M  V30 2057 O 277.031 -7.36886 -3.63805 0
M  V30 2058 C 276.871 -7.95349 -4.982 0
M  V30 2059 C 277.411 -6.94537 -5.98908 0
M  V30 2060 O 276.356 -6.10347 -6.11815 0
M  V30 2061 C 278.629 -6.11426 -5.62335 0
M  V30 2062 O 279.367 -5.6162 -6.70584 0
M  V30 2063 C 277.961 -5.04409 -4.73308 0
M  V30 2064 O 278.759 -3.85929 -4.75106 0
M  V30 2065 C 276.623 -4.8728 -5.41006 0
M  V30 2066 N 275.58 -4.65812 -4.42377 0
M  V30 2067 C 275.642 -5.27109 -3.24335 0
M  V30 2068 N 274.597 -4.94293 -2.47735 0
M  V30 2069 C 273.863 -4.1271 -3.23359 0
M  V30 2070 C 272.557 -3.56384 -2.99934 0
M  V30 2071 O 271.824 -3.69331 -2.00616 0
M  V30 2072 N 272.127 -2.80206 -4.03316 0
M  V30 2073 C 272.876 -2.58614 -5.2172 0
M  V30 2074 N 272.279 -1.75154 -6.13278 0
M  V30 2075 N 274.029 -3.13689 -5.47619 0
M  V30 2076 C 274.486 -3.90921 -4.46436 0
M  V30 2077 H 276.655 -4.02333 -6.11157 0
M  V30 2078 H 277.838 -5.39383 -3.69487 0
M  V30 2079 H 279.323 -6.71414 -5.02615 0
M  V30 2080 H 277.628 -7.4649 -6.93477 0
M  V30 2081 H 277.438 -8.89416 -5.05237 0
M  V30 2082 H 275.807 -8.14876 -5.18409 0
M  V30 2083 H 271.231 -2.36355 -3.95916 0
M  V30 2084 H 276.438 -5.95212 -2.93859 0
M  V30 2085 H 271.368 -1.32473 -5.91856 0
M  V30 2086 H 272.744 -1.5588 -7.03026 0
M  V30 2087 H 278.448 -3.27906 -5.43085 0
M  V30 2088 P 280.304 -5.75688 -6.64379 0
M  V30 2089 O 281.726 -6.07627 -7.05504 0
M  V30 2090 O 279.944 -5.88047 -5.19722 0
M  V30 2091 O 279.981 -4.2322 -7.04443 0
M  V30 2092 C 279.821 -3.99743 -8.4911 0
M  V30 2093 C 280.361 -2.60516 -8.79425 0
M  V30 2094 O 279.305 -1.82684 -8.4467 0
M  V30 2095 C 281.579 -2.10343 -8.03628 0
M  V30 2096 O 282.317 -1.09919 -8.67766 0
M  V30 2097 C 280.91 -1.68446 -6.70876 0
M  V30 2098 O 281.709 -0.678137 -6.08433 0
M  V30 2099 C 279.573 -1.17436 -7.18567 0
M  V30 2100 H 279.605 -0.0804732 -7.31656 0
M  V30 2101 H 280.788 -2.54037 -6.02537 0
M  V30 2102 H 282.272 -2.93881 -7.85526 0
M  V30 2103 H 280.578 -2.53065 -9.86973 0
M  V30 2104 H 280.388 -4.75072 -9.05887 0
M  V30 2105 H 278.758 -4.05244 -8.76668 0
M  V30 2106 H 281.397 0.177647 -6.34251 0
M  V30 2107 P 283.255 -1.25109 -8.70152 0
M  V30 2108 O 284.677 -1.29744 -9.22016 0
M  V30 2109 O 282.895 -2.13714 -7.55141 0
M  V30 2110 O 282.932 0.248149 -8.21425 0
M  V30 2111 C 282.772 1.22779 -9.30434 0
M  V30 2112 C 283.312 2.56293 -8.80664 0
M  V30 2113 O 282.256 3.02979 -8.09349 0
M  V30 2114 C 284.53 2.57523 -7.89775 0
M  V30 2115 O 285.268 3.7668 -7.89438 0
M  V30 2116 C 283.861 2.20997 -6.55446 0
M  V30 2117 O 284.66 2.71895 -5.48509 0
M  V30 2118 C 282.524 2.89693 -6.67988 0
M  V30 2119 H 282.556 3.88793 -6.19859 0
M  V30 2120 H 283.739 1.12046 -6.44229 0
M  V30 2121 H 285.223 1.7746 -8.19711 0
M  V30 2122 H 283.529 3.20706 -9.67112 0
M  V30 2123 H 283.339 0.901032 -10.1892 0
M  V30 2124 H 281.709 1.33049 -9.56592 0
M  V30 2125 H 284.348 3.57847 -5.23962 0
M  V30 2126 P 286.205 3.65191 -7.99657 0
M  V30 2127 O 287.627 3.89332 -8.45794 0
M  V30 2128 O 285.845 2.28472 -7.50807 0
M  V30 2129 O 285.882 4.64972 -6.77611 0
M  V30 2130 C 285.722 6.06319 -7.16352 0
M  V30 2131 C 286.262 6.91731 -6.02299 0
M  V30 2132 O 285.206 6.92449 -5.17064 0
M  V30 2133 C 287.48 6.43627 -5.25174 0
M  V30 2134 O 288.218 7.43686 -4.60469 0
M  V30 2135 C 286.811 5.40275 -4.31916 0
M  V30 2136 O 287.61 5.25279 -3.14438 0
M  V30 2137 C 285.474 6.04847 -4.05327 0
M  V30 2138 H 285.506 6.62195 -3.11261 0
M  V30 2139 H 286.689 4.42556 -4.81383 0
M  V30 2140 H 288.173 5.92458 -5.93643 0
M  V30 2141 H 286.479 7.92655 -6.402 0
M  V30 2142 H 286.289 6.26671 -8.0846 0
M  V30 2143 H 284.659 6.29101 -7.32804 0
M  V30 2144 H 287.298 5.84315 -2.47318 0
M  V30 2145 P 289.156 7.39546 -4.75277 0
M  V30 2146 O 290.578 7.84798 -5.01039 0
M  V30 2147 O 288.796 5.9812 -5.08098 0
M  V30 2148 O 288.833 7.57503 -3.1866 0
M  V30 2149 C 288.673 8.97357 -2.74833 0
M  V30 2150 C 289.213 9.07548 -1.32709 0
M  V30 2151 O 288.157 8.62072 -0.606159 0
M  V30 2152 C 290.431 8.25383 -0.938334 0
M  V30 2153 O 291.169 8.74577 0.146954 0
M  V30 2154 C 289.762 6.8802 -0.712559 0
M  V30 2155 O 290.561 6.1189 0.194655 0
M  V30 2156 C 288.425 7.27966 -0.139777 0
M  V30 2157 H 288.457 7.25354 0.961601 0
M  V30 2158 H 289.64 6.32557 -1.65702 0
M  V30 2159 H 291.124 8.19355 -1.79097 0
M  V30 2160 H 289.43 10.1294 -1.10029 0
M  V30 2161 H 289.24 9.64276 -3.41316 0
M  V30 2162 H 287.61 9.25417 -2.76357 0
M  V30 2163 H 290.249 6.25267 1.07847 0
M  V30 2164 P 292.106 8.791 1.04251e-12 0
M  V30 2165 O 293.528 9.31296 0.027939 0
M  V30 2166 O 291.746 7.77869 -1.04071 0
M  V30 2167 O 291.783 8.09533 1.41463 0
M  V30 2168 C 291.623 9.0349 2.53943 0
M  V30 2169 C 292.163 8.35135 3.78975 0
M  V30 2170 O 291.108 7.57992 4.15078 0
M  V30 2171 C 293.381 7.45087 3.67298 0
M  V30 2172 O 294.119 7.27796 4.85194 0
M  V30 2173 C 292.713 6.17323 3.12027 0
M  V30 2174 O 293.511 5.04149 3.47132 0
M  V30 2175 C 291.375 6.19961 3.81809 0
M  V30 2176 N 290.332 5.71575 2.93223 0
M  V30 2177 C 290.394 5.97133 1.62693 0
M  V30 2178 N 289.349 5.44066 0.984414 0
M  V30 2179 C 288.615 4.87093 1.93987 0
M  V30 2180 C 287.309 4.26449 1.8738 0
M  V30 2181 O 286.576 4.1089 0.884377 0
M  V30 2182 N 286.879 3.82483 3.08036 0
M  V30 2183 C 287.628 3.95124 4.27727 0
M  V30 2184 N 287.031 3.4084 5.39089 0
M  V30 2185 N 288.781 4.55264 4.3706 0
M  V30 2186 C 289.238 5.00861 3.18217 0
M  V30 2187 H 291.407 5.58218 4.73051 0
M  V30 2188 H 292.59 6.21631 2.02558 0
M  V30 2189 H 294.075 7.85819 2.93096 0
M  V30 2190 H 292.38 9.11627 4.55076 0
M  V30 2191 H 292.19 9.9573 2.34194 0
M  V30 2192 H 290.559 9.2792 2.67832 0
M  V30 2193 H 285.983 3.38323 3.1329 0
M  V30 2194 H 291.19 6.53891 1.14265 0
M  V30 2195 H 286.12 2.93852 5.30559 0
M  V30 2196 H 287.496 3.47631 6.30632 0
M  V30 2197 H 293.2 4.67628 4.28704 0
M  V30 2198 P 295.057 7.39546 4.75277 0
M  V30 2199 O 296.479 7.81777 5.05738 0
M  V30 2200 O 294.697 7.1065 3.32998 0
M  V30 2201 O 294.734 6.04542 5.56673 0
M  V30 2202 C 294.574 6.22772 7.02095 0
M  V30 2203 C 295.114 4.97725 7.70406 0
M  V30 2204 O 294.058 4.13256 7.58987 0
M  V30 2205 C 296.332 4.28231 7.11815 0
M  V30 2206 O 297.07 3.49945 8.01648 0
M  V30 2207 C 295.663 3.5063 5.96244 0
M  V30 2208 O 296.462 2.36482 5.64681 0
M  V30 2209 C 294.326 3.15122 6.56374 0
M  V30 2210 H 294.358 2.13853 6.99751 0
M  V30 2211 H 295.541 4.13501 5.06559 0
M  V30 2212 H 297.025 5.03285 6.70911 0
M  V30 2213 H 295.331 5.20877 8.75697 0
M  V30 2214 H 295.141 7.11046 7.35349 0
M  V30 2215 H 293.511 6.35815 7.26986 0
M  V30 2216 H 296.15 1.61644 6.13565 0
M  V30 2217 P 298.008 3.65191 7.99657 0
M  V30 2218 O 299.43 3.8425 8.48115 0
M  V30 2219 O 297.648 4.17805 6.64342 0
M  V30 2220 O 297.685 2.07613 7.95143 0
M  V30 2221 C 297.525 1.44328 9.27336 0
M  V30 2222 C 298.065 0.0220036 9.17197 0
M  V30 2223 O 297.009 -0.626867 8.61923 0
M  V30 2224 C 299.283 -0.24586 8.30336 0
M  V30 2225 O 300.021 -1.39011 8.63583 0
M  V30 2226 C 298.614 -0.273849 6.91158 0
M  V30 2227 O 299.413 -1.06348 6.02892 0
M  V30 2228 C 297.277 -0.897649 7.22545 0
M  V30 2229 H 297.309 -1.9841 7.04286 0
M  V30 2230 H 298.492 0.739928 6.497 0
M  V30 2231 H 299.976 0.60668 8.36503 0
M  V30 2232 H 298.282 -0.352479 10.1829 0
M  V30 2233 H 298.092 2.00611 10.0304 0
M  V30 2234 H 296.462 1.41843 9.55327 0
M  V30 2235 H 299.101 -1.95734 6.03555 0
M  V30 2236 P 300.958 -1.25109 8.70152 0
M  V30 2237 O 302.379 -1.35288 9.2132 0
M  V30 2238 O 300.598 -0.0769065 7.84762 0
M  V30 2239 O 300.635 -2.55232 7.81161 0
M  V30 2240 C 300.474 -3.79979 8.58246 0
M  V30 2241 C 301.015 -4.94023 7.72785 0
M  V30 2242 O 299.96 -5.18666 6.91125 0
M  V30 2243 C 302.233 -4.69597 6.85231 0
M  V30 2244 O 302.971 -5.83832 6.51337 0
M  V30 2245 C 301.565 -3.96706 5.66633 0
M  V30 2246 O 302.363 -4.14896 4.5003 0
M  V30 2247 C 300.227 -4.66153 5.59313 0
M  V30 2248 N 299.184 -3.71582 5.24027 0
M  V30 2249 C 299.353 -2.39715 5.48833 0
M  V30 2250 N 298.326 -1.65863 5.12845 0
M  V30 2251 C 297.441 -2.57637 4.5973 0
M  V30 2252 C 296.174 -2.40278 4.01027 0
M  V30 2253 N 295.609 -3.57711 3.59575 0
M  V30 2254 C 296.211 -4.80324 3.70476 0
M  V30 2255 N 297.388 -5.01121 4.23801 0
M  V30 2256 C 297.963 -3.84757 4.66372 0
M  V30 2257 H 301.442 -2.8955 5.86187 0
M  V30 2258 H 302.925 -4.0121 7.36511 0
M  V30 2259 H 301.231 -5.81019 8.37003 0
M  V30 2260 H 301.041 -3.73517 9.52265 0
M  V30 2261 H 299.411 -3.97163 8.80359 0
M  V30 2262 H 300.253 -1.98804 5.94332 0
M  V30 2263 H 302.051 -4.90891 4.01857 0
M  V30 2264 P 303.909 -5.75688 6.64379 0
M  V30 2265 O 305.331 -6.11849 7.01846 0
M  V30 2266 O 303.549 -4.30744 6.56026 0
M  V30 2267 O 303.586 -6.37042 5.19165 0
M  V30 2268 C 303.426 -7.83578 5.16515 0
M  V30 2269 C 303.966 -8.33398 3.83019 0
M  V30 2270 O 302.91 -8.10074 3.01034 0
M  V30 2271 C 305.184 -7.65514 3.2257 0
M  V30 2272 O 305.922 -8.4329 2.32297 0
M  V30 2273 C 304.515 -6.40075 2.62207 0
M  V30 2274 O 305.314 -5.92589 1.53712 0
M  V30 2275 C 303.178 -6.9454 2.18503 0
M  V30 2276 H 303.21 -7.23063 1.12091 0
M  V30 2277 H 304.393 -5.6025 3.37201 0
M  V30 2278 H 305.877 -7.35707 4.02681 0
M  V30 2279 H 304.183 -9.40912 3.9095 0
M  V30 2280 H 303.993 -8.29056 5.99158 0
M  V30 2281 H 302.363 -8.10073 5.25882 0
M  V30 2282 H 305.002 -6.30324 0.726794 0
M  V30 2283 P 306.859 -8.4349 2.47671 0
M  V30 2284 O 308.26 -8.98227 2.65696 0
M  V30 2285 O 306.481 -7.20409 3.23964 0
M  V30 2286 O 306.536 -8.16496 0.923275 0
M  V30 2287 C 306.376 -9.38437 0.108857 0
M  V30 2288 C 306.916 -9.08076 -1.28339 0
M  V30 2289 O 305.86 -8.44131 -1.84692 0
M  V30 2290 C 308.133 -8.18386 -1.42505 0
M  V30 2291 O 308.872 -8.3501 -2.60497 0
M  V30 2292 C 307.466 -6.80225 -1.25468 0
M  V30 2293 O 308.264 -5.81526 -1.91035 0
M  V30 2294 C 306.128 -7.02416 -1.9168 0
M  V30 2295 N 305.085 -6.31033 -1.20314 0
M  V30 2296 C 304.05 -5.77149 -1.928 0
M  V30 2297 O 304.089 -5.8521 -3.17729 0
M  V30 2298 N 303.038 -5.15445 -1.27997 0
M  V30 2299 C 303.086 -5.04472 0.0534726 0
M  V30 2300 C 304.182 -5.55244 0.808522 0
M  V30 2301 C 305.148 -6.18542 0.13981 0
M  V30 2302 H 306.16 -6.68789 -2.9658 0
M  V30 2303 H 307.343 -6.53498 -0.198729 0
M  V30 2304 H 308.827 -8.36663 -0.5984 0
M  V30 2305 H 307.133 -10.0273 -1.8081 0
M  V30 2306 H 306.942 -10.2138 0.558219 0
M  V30 2307 H 305.312 -9.6569 0.0444156 0
M  V30 2308 H 304.23 -5.43017 1.88792 0
M  V30 2309 H 305.994 -6.60539 0.686773 0
M  V30 2310 H 308.048 -5.79638 -2.8315 0
M  V30 2311 P 309.81 -8.4349 -2.47671 0
M  V30 2312 O 311.232 -8.92593 -2.65 0
M  V30 2313 O 309.45 -7.7568 -1.19296 0
M  V30 2314 O 309.487 -7.36886 -3.63805 0
M  V30 2315 C 309.327 -7.95349 -4.982 0
M  V30 2316 C 309.867 -6.94612 -5.98974 0
M  V30 2317 O 308.811 -6.10347 -6.11815 0
M  V30 2318 C 311.085 -6.11426 -5.62335 0
M  V30 2319 O 311.823 -5.6162 -6.70584 0
M  V30 2320 C 310.416 -5.04409 -4.73308 0
M  V30 2321 O 311.215 -3.85992 -4.75183 0
M  V30 2322 C 309.079 -4.8728 -5.41006 0
M  V30 2323 H 309.111 -4.02333 -6.11157 0
M  V30 2324 H 310.294 -5.39466 -3.69543 0
M  V30 2325 H 311.778 -6.71916 -5.01943 0
M  V30 2326 H 310.084 -7.4649 -6.93477 0
M  V30 2327 H 309.894 -8.89416 -5.05237 0
M  V30 2328 H 308.264 -8.14876 -5.18409 0
M  V30 2329 H 310.903 -3.27957 -5.4317 0
M  V30 2330 P 312.76 -5.75688 -6.64379 0
M  V30 2331 O 314.182 -6.07627 -7.05504 0
M  V30 2332 O 312.4 -5.88047 -5.19722 0
M  V30 2333 O 312.437 -4.2322 -7.04443 0
M  V30 2334 C 312.277 -3.99743 -8.4911 0
M  V30 2335 C 312.817 -2.60516 -8.79425 0
M  V30 2336 O 311.761 -1.82684 -8.4467 0
M  V30 2337 C 314.035 -2.10343 -8.03628 0
M  V30 2338 O 314.773 -1.09919 -8.67766 0
M  V30 2339 C 313.366 -1.68446 -6.70876 0
M  V30 2340 O 314.165 -0.678137 -6.08433 0
M  V30 2341 C 312.029 -1.17436 -7.18567 0
M  V30 2342 H 312.061 -0.0804732 -7.31656 0
M  V30 2343 H 313.244 -2.54037 -6.02537 0
M  V30 2344 H 314.728 -2.93881 -7.85526 0
M  V30 2345 H 313.034 -2.53065 -9.86973 0
M  V30 2346 H 312.844 -4.75072 -9.05887 0
M  V30 2347 H 311.214 -4.05244 -8.76668 0
M  V30 2348 H 313.853 0.177647 -6.34251 0
M  V30 2349 P 315.711 -1.25109 -8.70152 0
M  V30 2350 O 317.133 -1.29744 -9.22016 0
M  V30 2351 O 315.351 -2.13714 -7.55141 0
M  V30 2352 O 315.388 0.248149 -8.21425 0
M  V30 2353 C 315.228 1.22779 -9.30434 0
M  V30 2354 C 315.768 2.56293 -8.80664 0
M  V30 2355 O 314.712 3.02979 -8.09349 0
M  V30 2356 C 316.986 2.57523 -7.89775 0
M  V30 2357 O 317.724 3.7668 -7.89438 0
M  V30 2358 C 316.317 2.20997 -6.55446 0
M  V30 2359 O 317.116 2.71895 -5.48509 0
M  V30 2360 C 314.98 2.89693 -6.67988 0
M  V30 2361 H 315.012 3.88793 -6.19859 0
M  V30 2362 H 316.195 1.12046 -6.44229 0
M  V30 2363 H 317.679 1.7746 -8.19711 0
M  V30 2364 H 315.985 3.20706 -9.67112 0
M  V30 2365 H 315.795 0.901032 -10.1892 0
M  V30 2366 H 314.165 1.33049 -9.56592 0
M  V30 2367 H 316.804 3.57847 -5.23962 0
M  V30 2368 P 318.662 3.65191 -7.99657 0
M  V30 2369 O 320.084 3.89332 -8.45794 0
M  V30 2370 O 318.302 2.28472 -7.50807 0
M  V30 2371 O 318.339 4.64972 -6.77611 0
M  V30 2372 C 318.179 6.06319 -7.16352 0
M  V30 2373 C 318.719 6.91731 -6.02299 0
M  V30 2374 O 317.663 6.92449 -5.17064 0
M  V30 2375 C 319.937 6.43627 -5.25174 0
M  V30 2376 O 320.675 7.43686 -4.60469 0
M  V30 2377 C 319.268 5.40275 -4.31916 0
M  V30 2378 O 320.067 5.25279 -3.14438 0
M  V30 2379 C 317.931 6.04847 -4.05327 0
M  V30 2380 H 317.963 6.62195 -3.11261 0
M  V30 2381 H 319.146 4.42556 -4.81383 0
M  V30 2382 H 320.63 5.92458 -5.93643 0
M  V30 2383 H 318.936 7.92655 -6.402 0
M  V30 2384 H 318.746 6.26671 -8.0846 0
M  V30 2385 H 317.116 6.29101 -7.32804 0
M  V30 2386 H 319.755 5.84315 -2.47318 0
M  V30 2387 P 321.612 7.39546 -4.75277 0
M  V30 2388 O 323.034 7.84798 -5.01039 0
M  V30 2389 O 321.252 5.9812 -5.08098 0
M  V30 2390 O 321.289 7.57503 -3.1866 0
M  V30 2391 C 321.129 8.97357 -2.74833 0
M  V30 2392 C 321.669 9.07548 -1.32709 0
M  V30 2393 O 320.613 8.62072 -0.606159 0
M  V30 2394 C 322.887 8.25383 -0.938334 0
M  V30 2395 O 323.625 8.74577 0.146954 0
M  V30 2396 C 322.218 6.8802 -0.712559 0
M  V30 2397 O 323.017 6.1189 0.194655 0
M  V30 2398 C 320.881 7.27966 -0.139777 0
M  V30 2399 H 320.913 7.25354 0.961601 0
M  V30 2400 H 322.096 6.32557 -1.65702 0
M  V30 2401 H 323.58 8.19355 -1.79097 0
M  V30 2402 H 321.886 10.1294 -1.10029 0
M  V30 2403 H 321.696 9.64276 -3.41316 0
M  V30 2404 H 320.066 9.25417 -2.76357 0
M  V30 2405 H 322.705 6.25267 1.07847 0
M  V30 2406 P 324.563 8.791 1.35267e-12 0
M  V30 2407 O 325.985 9.31096 0.027933 0
M  V30 2408 O 324.203 7.77869 -1.04071 0
M  V30 2409 O 324.24 8.09533 1.41463 0
M  V30 2410 C 324.08 9.0349 2.53943 0
M  V30 2411 C 324.62 8.35226 3.79016 0
M  V30 2412 O 323.564 7.57992 4.15078 0
M  V30 2413 C 325.838 7.45087 3.67298 0
M  V30 2414 O 326.576 7.27796 4.85194 0
M  V30 2415 C 325.169 6.17323 3.12027 0
M  V30 2416 O 325.968 5.04231 3.47188 0
M  V30 2417 C 323.832 6.19961 3.81809 0
M  V30 2418 H 323.864 5.58218 4.73051 0
M  V30 2419 H 325.047 6.21726 2.02589 0
M  V30 2420 H 326.531 7.86112 2.9231 0
M  V30 2421 H 324.837 9.11627 4.55076 0
M  V30 2422 H 324.647 9.9573 2.34194 0
M  V30 2423 H 323.017 9.2792 2.67832 0
M  V30 2424 H 325.656 4.67702 4.28772 0
M  V30 2425 P 327.513 7.39546 4.75277 0
M  V30 2426 O 328.934 7.81861 5.05793 0
M  V30 2427 O 327.153 7.1065 3.32998 0
M  V30 2428 O 327.19 6.04542 5.56673 0
M  V30 2429 C 327.029 6.22839 7.02169 0
M  V30 2430 C 327.57 4.97725 7.70406 0
M  V30 2431 O 326.515 4.13208 7.58899 0
M  V30 2432 C 328.788 4.28231 7.11815 0
M  V30 2433 O 329.526 3.49945 8.01648 0
M  V30 2434 C 328.12 3.5063 5.96244 0
M  V30 2435 O 328.918 2.37008 5.64352 0
M  V30 2436 C 326.782 3.15122 6.56374 0
M  V30 2437 N 325.739 3.22311 5.55692 0
M  V30 2438 C 325.908 3.99655 4.46046 0
M  V30 2439 N 324.881 3.97599 3.63918 0
M  V30 2440 C 323.996 3.11159 4.25334 0
M  V30 2441 C 322.729 2.64972 3.85157 0
M  V30 2442 N 322.13 3.02132 2.69405 0
M  V30 2443 N 322.164 1.78482 4.74759 0
M  V30 2444 C 322.766 1.37463 5.90819 0
M  V30 2445 N 323.943 1.7733 6.31889 0
M  V30 2446 C 324.518 2.64393 5.43725 0
M  V30 2447 H 326.814 2.13823 6.99656 0
M  V30 2448 H 327.997 4.12931 5.06895 0
M  V30 2449 H 329.48 5.03285 6.70911 0
M  V30 2450 H 327.786 5.20001 8.76217 0
M  V30 2451 H 327.596 7.11046 7.35349 0
M  V30 2452 H 325.966 6.35815 7.26986 0
M  V30 2453 H 322.23 0.66574 6.53015 0
M  V30 2454 H 326.808 4.58037 4.27732 0
M  V30 2455 H 321.2 2.64828 2.45331 0
M  V30 2456 H 322.604 3.67472 2.05644 0
M  V30 2457 H 328.606 1.61619 6.13468 0
M  V30 2458 P 330.464 3.65191 7.99657 0
M  V30 2459 O 331.885 3.84292 8.48206 0
M  V30 2460 O 330.104 4.17805 6.64342 0
M  V30 2461 O 330.141 2.07613 7.95143 0
M  V30 2462 C 329.98 1.44344 9.27435 0
M  V30 2463 C 330.521 0.0220036 9.17197 0
M  V30 2464 O 329.466 -0.626794 8.61824 0
M  V30 2465 C 331.739 -0.24586 8.30336 0
M  V30 2466 O 332.477 -1.39011 8.63583 0
M  V30 2467 C 331.071 -0.273849 6.91158 0
M  V30 2468 O 331.869 -1.05728 6.029 0
M  V30 2469 C 329.733 -0.897649 7.22545 0
M  V30 2470 N 328.69 -0.292839 6.41732 0
M  V30 2471 C 328.859 0.950603 5.91308 0
M  V30 2472 N 327.832 1.37732 5.21105 0
M  V30 2473 C 326.947 0.318109 5.26039 0
M  V30 2474 C 325.68 0.146766 4.6727 0
M  V30 2475 N 325.115 -1.06525 4.95887 0
M  V30 2476 C 325.717 -2.0378 5.71347 0
M  V30 2477 N 326.894 -1.92445 6.27451 0
M  V30 2478 C 327.469 -0.715382 6.00353 0
M  V30 2479 H 330.948 0.733318 6.49674 0
M  V30 2480 H 332.431 0.60668 8.36503 0
M  V30 2481 H 330.737 -0.362662 10.1825 0
M  V30 2482 H 330.547 2.00611 10.0304 0
M  V30 2483 H 328.917 1.41843 9.55327 0
M  V30 2484 H 329.759 1.54076 6.07465 0
M  V30 2485 H 331.557 -1.95704 6.0346 0
M  V30 2486 P 333.414 -1.25109 8.70152 0
M  V30 2487 O 334.836 -1.35274 9.21221 0
M  V30 2488 O 333.054 -0.0769065 7.84762 0
M  V30 2489 O 333.091 -2.55232 7.81161 0
M  V30 2490 C 332.931 -3.79939 8.58154 0
M  V30 2491 C 333.471 -4.94023 7.72785 0
M  V30 2492 O 332.415 -5.18726 6.91205 0
M  V30 2493 C 334.689 -4.69597 6.85231 0
M  V30 2494 O 335.427 -5.83832 6.51337 0
M  V30 2495 C 334.02 -3.96706 5.66633 0
M  V30 2496 O 334.819 -4.15414 4.49689 0
M  V30 2497 C 332.683 -4.66153 5.59313 0
M  V30 2498 H 332.715 -5.47679 4.85214 0
M  V30 2499 H 333.898 -2.89008 5.86566 0
M  V30 2500 H 335.382 -4.0121 7.36511 0
M  V30 2501 H 333.688 -5.80182 8.37584 0
M  V30 2502 H 333.498 -3.73517 9.52265 0
M  V30 2503 H 331.868 -3.97163 8.80359 0
M  V30 2504 H 334.507 -4.90969 4.01921 0
M  V30 2505 P 336.365 -5.75688 6.64379 0
M  V30 2506 O 337.787 -6.11849 7.01846 0
M  V30 2507 O 336.005 -4.30744 6.56026 0
M  V30 2508 O 336.042 -6.37042 5.19165 0
M  V30 2509 C 335.882 -7.83578 5.16515 0
M  V30 2510 C 336.422 -8.33398 3.83019 0
M  V30 2511 O 335.366 -8.10074 3.01034 0
M  V30 2512 C 337.64 -7.65514 3.2257 0
M  V30 2513 O 338.378 -8.4329 2.32297 0
M  V30 2514 C 336.971 -6.40075 2.62207 0
M  V30 2515 O 337.77 -5.92589 1.53712 0
M  V30 2516 C 335.634 -6.9454 2.18503 0
M  V30 2517 H 335.666 -7.23063 1.12091 0
M  V30 2518 H 336.849 -5.6025 3.37201 0
M  V30 2519 H 338.333 -7.35707 4.02681 0
M  V30 2520 H 336.639 -9.40912 3.9095 0
M  V30 2521 H 336.449 -8.29056 5.99158 0
M  V30 2522 H 334.819 -8.10073 5.25882 0
M  V30 2523 H 337.458 -6.30324 0.726794 0
M  V30 2524 P 339.316 -8.4349 2.47671 0
M  V30 2525 O 340.738 -8.94167 2.5964 0
M  V30 2526 O 338.956 -7.1704 3.19006 0
M  V30 2527 O 338.993 -8.16596 0.923387 0
M  V30 2528 C 338.833 -9.38437 0.108857 0
M  V30 2529 C 339.373 -9.08175 -1.28353 0
M  V30 2530 O 338.317 -8.44229 -1.84713 0
M  V30 2531 C 340.591 -8.18386 -1.42505 0
M  V30 2532 O 341.329 -8.3501 -2.60497 0
M  V30 2533 C 339.922 -6.80225 -1.25468 0
M  V30 2534 O 340.721 -5.81621 -1.91066 0
M  V30 2535 C 338.585 -7.02416 -1.9168 0
M  V30 2536 H 338.617 -6.6888 -2.96621 0
M  V30 2537 H 339.8 -6.53617 -0.192223 0
M  V30 2538 H 341.284 -8.36622 -0.589963 0
M  V30 2539 H 339.59 -10.0291 -1.79807 0
M  V30 2540 H 339.4 -10.2138 0.558219 0
M  V30 2541 H 337.77 -9.6579 0.0444202 0
M  V30 2542 H 340.409 -5.69556 -2.79637 0
M  V30 2543 P 342.266 -8.4349 -2.47671 0
M  V30 2544 O 343.688 -8.92593 -2.65 0
M  V30 2545 O 341.906 -7.7568 -1.19296 0
M  V30 2546 O 341.943 -7.36886 -3.63805 0
M  V30 2547 C 341.783 -7.95349 -4.982 0
M  V30 2548 C 342.323 -6.94612 -5.98974 0
M  V30 2549 O 341.267 -6.10347 -6.11815 0
M  V30 2550 C 343.541 -6.11426 -5.62335 0
M  V30 2551 O 344.279 -5.6162 -6.70584 0
M  V30 2552 C 342.872 -5.04409 -4.73308 0
M  V30 2553 O 343.671 -3.85992 -4.75183 0
M  V30 2554 C 341.535 -4.8728 -5.41006 0
M  V30 2555 H 341.567 -4.02333 -6.11157 0
M  V30 2556 H 342.75 -5.39466 -3.69543 0
M  V30 2557 H 344.234 -6.71916 -5.01943 0
M  V30 2558 H 342.54 -7.4649 -6.93477 0
M  V30 2559 H 342.35 -8.89416 -5.05237 0
M  V30 2560 H 340.72 -8.14876 -5.18409 0
M  V30 2561 H 343.359 -3.27957 -5.4317 0
M  V30 2562 P 345.217 -5.75688 -6.64379 0
M  V30 2563 O 346.638 -6.07692 -7.0558 0
M  V30 2564 O 344.857 -5.88047 -5.19722 0
M  V30 2565 O 344.894 -4.2322 -7.04443 0
M  V30 2566 C 344.733 -3.99785 -8.49201 0
M  V30 2567 C 345.274 -2.60516 -8.79425 0
M  V30 2568 O 344.219 -1.82663 -8.44573 0
M  V30 2569 C 346.492 -2.10343 -8.03628 0
M  V30 2570 O 347.23 -1.09919 -8.67766 0
M  V30 2571 C 345.824 -1.68446 -6.70876 0
M  V30 2572 O 346.622 -0.684109 -6.08265 0
M  V30 2573 C 344.486 -1.17436 -7.18567 0
M  V30 2574 N 343.443 -1.52699 -6.23988 0
M  V30 2575 C 343.612 -2.578 -5.40574 0
M  V30 2576 N 342.585 -2.78966 -4.61193 0
M  V30 2577 C 341.7 -1.78725 -4.95769 0
M  V30 2578 C 340.433 -1.45727 -4.44207 0
M  V30 2579 N 339.868 -0.374977 -5.05812 0
M  V30 2580 C 340.47 0.345585 -6.05615 0
M  V30 2581 N 341.647 0.0787651 -6.56253 0
M  V30 2582 C 342.222 -1.00499 -5.96189 0
M  V30 2583 H 345.701 -2.53396 -6.02698 0
M  V30 2584 H 347.184 -2.93881 -7.85526 0
M  V30 2585 H 345.49 -2.52078 -9.87225 0
M  V30 2586 H 345.3 -4.75072 -9.05887 0
M  V30 2587 H 343.67 -4.05244 -8.76668 0
M  V30 2588 H 344.512 -3.18977 -5.3945 0
M  V30 2589 H 346.31 0.177619 -6.34151 0
M  V30 2590 P 348.167 -1.25109 -8.70152 0
M  V30 2591 O 349.589 -1.29772 -9.22214 0
M  V30 2592 O 347.807 -2.13714 -7.55141 0
M  V30 2593 O 347.844 0.248149 -8.21425 0
M  V30 2594 C 347.684 1.22779 -9.30434 0
M  V30 2595 C 348.224 2.56265 -8.80568 0
M  V30 2596 O 347.169 3.02979 -8.09349 0
M  V30 2597 C 349.442 2.57523 -7.89775 0
M  V30 2598 O 350.18 3.7668 -7.89438 0
M  V30 2599 C 348.774 2.20997 -6.55446 0
M  V30 2600 O 349.572 2.71851 -5.48419 0
M  V30 2601 C 347.436 2.89693 -6.67988 0
M  V30 2602 N 346.393 2.08895 -6.07487 0
M  V30 2603 C 346.455 0.760559 -6.14209 0
M  V30 2604 N 345.41 0.200108 -5.52538 0
M  V30 2605 C 344.676 1.22692 -5.09742 0
M  V30 2606 C 343.37 1.24782 -4.48775 0
M  V30 2607 O 342.637 0.290617 -4.19294 0
M  V30 2608 N 342.94 2.50468 -4.22428 0
M  V30 2609 C 343.689 3.67142 -4.51974 0
M  V30 2610 N 343.092 4.85096 -4.14091 0
M  V30 2611 N 344.842 3.67821 -5.12831 0
M  V30 2612 C 345.299 2.43698 -5.4105 0
M  V30 2613 H 347.468 3.88793 -6.19859 0
M  V30 2614 H 348.651 1.12029 -6.4413 0
M  V30 2615 H 350.136 1.78279 -8.19533 0
M  V30 2616 H 348.441 3.20706 -9.67112 0
M  V30 2617 H 348.251 0.901032 -10.1892 0
M  V30 2618 H 346.62 1.33049 -9.56592 0
M  V30 2619 H 342.044 2.61953 -3.79465 0
M  V30 2620 H 347.251 0.200439 -6.63497 0
M  V30 2621 H 342.181 4.8334 -3.66367 0
M  V30 2622 H 343.557 5.7474 -4.33841 0
M  V30 2623 H 349.261 3.5779 -5.23879 0
M  V30 2624 P 351.118 3.65191 -7.99657 0
M  V30 2625 O 352.54 3.89332 -8.45794 0
M  V30 2626 O 350.758 2.28472 -7.50807 0
M  V30 2627 O 350.795 4.64972 -6.77611 0
M  V30 2628 C 350.635 6.06319 -7.16352 0
M  V30 2629 C 351.175 6.91731 -6.02299 0
M  V30 2630 O 350.119 6.92449 -5.17064 0
M  V30 2631 C 352.393 6.43627 -5.25174 0
M  V30 2632 O 353.131 7.43686 -4.60469 0
M  V30 2633 C 351.724 5.40275 -4.31916 0
M  V30 2634 O 352.523 5.25279 -3.14438 0
M  V30 2635 C 350.387 6.04847 -4.05327 0
M  V30 2636 H 350.419 6.62195 -3.11261 0
M  V30 2637 H 351.602 4.42556 -4.81383 0
M  V30 2638 H 353.086 5.92458 -5.93643 0
M  V30 2639 H 351.392 7.92655 -6.402 0
M  V30 2640 H 351.202 6.26671 -8.0846 0
M  V30 2641 H 349.572 6.29101 -7.32804 0
M  V30 2642 H 352.211 5.84315 -2.47318 0
M  V30 2643 P 354.068 7.39546 -4.75277 0
M  V30 2644 O 355.49 7.84798 -5.01039 0
M  V30 2645 O 353.708 5.9812 -5.08098 0
M  V30 2646 O 353.745 7.57503 -3.1866 0
M  V30 2647 C 353.585 8.97357 -2.74833 0
M  V30 2648 C 354.125 9.07548 -1.32709 0
M  V30 2649 O 353.069 8.62072 -0.606159 0
M  V30 2650 C 355.343 8.25383 -0.938334 0
M  V30 2651 O 356.081 8.74577 0.146954 0
M  V30 2652 C 354.674 6.8802 -0.712559 0
M  V30 2653 O 355.473 6.1189 0.194655 0
M  V30 2654 C 353.337 7.27966 -0.139777 0
M  V30 2655 H 353.369 7.25354 0.961601 0
M  V30 2656 H 354.552 6.32557 -1.65702 0
M  V30 2657 H 356.036 8.19355 -1.79097 0
M  V30 2658 H 354.342 10.1294 -1.10029 0
M  V30 2659 H 354.152 9.64276 -3.41316 0
M  V30 2660 H 352.522 9.25417 -2.76357 0
M  V30 2661 H 355.161 6.25267 1.07847 0
M  V30 2662 P 357.019 8.791 1.66284e-12 0
M  V30 2663 O 358.441 9.31096 0.027933 0
M  V30 2664 O 356.659 7.77869 -1.04071 0
M  V30 2665 O 356.696 8.09533 1.41463 0
M  V30 2666 C 356.536 9.0349 2.53943 0
M  V30 2667 C 357.076 8.35226 3.79016 0
M  V30 2668 O 356.02 7.57992 4.15078 0
M  V30 2669 C 358.294 7.45087 3.67298 0
M  V30 2670 O 359.032 7.27796 4.85194 0
M  V30 2671 C 357.625 6.17323 3.12027 0
M  V30 2672 O 358.424 5.04231 3.47188 0
M  V30 2673 C 356.288 6.19961 3.81809 0
M  V30 2674 H 356.32 5.58218 4.73051 0
M  V30 2675 H 357.503 6.21726 2.02589 0
M  V30 2676 H 358.987 7.86112 2.9231 0
M  V30 2677 H 357.293 9.11627 4.55076 0
M  V30 2678 H 357.103 9.9573 2.34194 0
M  V30 2679 H 355.473 9.2792 2.67832 0
M  V30 2680 H 358.112 4.67702 4.28772 0
M  V30 2681 P 359.97 7.39546 4.75277 0
M  V30 2682 O 361.392 7.81777 5.05738 0
M  V30 2683 O 359.61 7.1065 3.32998 0
M  V30 2684 O 359.647 6.04542 5.56673 0
M  V30 2685 C 359.487 6.22772 7.02095 0
M  V30 2686 C 360.027 4.97725 7.70406 0
M  V30 2687 O 358.971 4.13256 7.58987 0
M  V30 2688 C 361.245 4.28231 7.11815 0
M  V30 2689 O 361.983 3.49945 8.01648 0
M  V30 2690 C 360.576 3.5063 5.96244 0
M  V30 2691 O 361.375 2.36482 5.64681 0
M  V30 2692 C 359.239 3.15122 6.56374 0
M  V30 2693 H 359.271 2.13853 6.99751 0
M  V30 2694 H 360.454 4.13501 5.06559 0
M  V30 2695 H 361.938 5.03285 6.70911 0
M  V30 2696 H 360.244 5.20877 8.75697 0
M  V30 2697 H 360.054 7.11046 7.35349 0
M  V30 2698 H 358.424 6.35815 7.26986 0
M  V30 2699 H 361.063 1.61644 6.13565 0
M  V30 2700 P 362.92 3.65191 7.99657 0
M  V30 2701 O 364.342 3.8425 8.48115 0
M  V30 2702 O 362.56 4.17805 6.64342 0
M  V30 2703 O 362.597 2.07613 7.95143 0
M  V30 2704 C 362.437 1.44328 9.27336 0
M  V30 2705 C 362.977 0.0220036 9.17197 0
M  V30 2706 O 361.921 -0.626867 8.61923 0
M  V30 2707 C 364.195 -0.24586 8.30336 0
M  V30 2708 O 364.933 -1.39011 8.63583 0
M  V30 2709 C 363.526 -0.273849 6.91158 0
M  V30 2710 O 364.325 -1.06348 6.02892 0
M  V30 2711 C 362.189 -0.897649 7.22545 0
M  V30 2712 H 362.221 -1.9841 7.04286 0
M  V30 2713 H 363.404 0.739928 6.497 0
M  V30 2714 H 364.888 0.60668 8.36503 0
M  V30 2715 H 363.194 -0.352479 10.1829 0
M  V30 2716 H 363.004 2.00611 10.0304 0
M  V30 2717 H 361.374 1.41843 9.55327 0
M  V30 2718 H 364.013 -1.95734 6.03555 0
M  V30 2719 P 365.871 -1.25109 8.70152 0
M  V30 2720 O 367.293 -1.35274 9.21221 0
M  V30 2721 O 365.511 -0.0769065 7.84762 0
M  V30 2722 O 365.548 -2.55232 7.81161 0
M  V30 2723 C 365.388 -3.79939 8.58154 0
M  V30 2724 C 365.928 -4.94023 7.72785 0
M  V30 2725 O 364.872 -5.18726 6.91205 0
M  V30 2726 C 367.146 -4.69597 6.85231 0
M  V30 2727 O 367.884 -5.83832 6.51337 0
M  V30 2728 C 366.477 -3.96706 5.66633 0
M  V30 2729 O 367.276 -4.15414 4.49689 0
M  V30 2730 C 365.14 -4.66153 5.59313 0
M  V30 2731 H 365.172 -5.47679 4.85214 0
M  V30 2732 H 366.355 -2.89008 5.86566 0
M  V30 2733 H 367.839 -4.0121 7.36511 0
M  V30 2734 H 366.145 -5.80182 8.37584 0
M  V30 2735 H 365.955 -3.73517 9.52265 0
M  V30 2736 H 364.325 -3.97163 8.80359 0
M  V30 2737 H 366.964 -4.90969 4.01921 0
M  V30 2738 P 368.821 -5.75688 6.64379 0
M  V30 2739 O 370.243 -6.11849 7.01846 0
M  V30 2740 O 368.461 -4.30744 6.56026 0
M  V30 2741 O 368.498 -6.37042 5.19165 0
M  V30 2742 C 368.338 -7.83578 5.16515 0
M  V30 2743 C 368.878 -8.33398 3.83019 0
M  V30 2744 O 367.822 -8.10074 3.01034 0
M  V30 2745 C 370.096 -7.65514 3.2257 0
M  V30 2746 O 370.834 -8.4329 2.32297 0
M  V30 2747 C 369.427 -6.40075 2.62207 0
M  V30 2748 O 370.226 -5.92589 1.53712 0
M  V30 2749 C 368.09 -6.9454 2.18503 0
M  V30 2750 H 368.122 -7.23063 1.12091 0
M  V30 2751 H 369.305 -5.6025 3.37201 0
M  V30 2752 H 370.789 -7.35707 4.02681 0
M  V30 2753 H 369.095 -9.40912 3.9095 0
M  V30 2754 H 368.905 -8.29056 5.99158 0
M  V30 2755 H 367.275 -8.10073 5.25882 0
M  V30 2756 H 369.914 -6.30324 0.726794 0
M  V30 2757 P 371.772 -8.4349 2.47671 0
M  V30 2758 O 373.194 -8.94359 2.59696 0
M  V30 2759 O 371.412 -7.1704 3.19006 0
M  V30 2760 O 371.449 -8.16596 0.923387 0
M  V30 2761 C 371.289 -9.38437 0.108857 0
M  V30 2762 C 371.829 -9.08076 -1.28339 0
M  V30 2763 O 370.774 -8.44229 -1.84713 0
M  V30 2764 C 373.047 -8.18386 -1.42505 0
M  V30 2765 O 373.785 -8.3501 -2.60497 0
M  V30 2766 C 372.379 -6.80225 -1.25468 0
M  V30 2767 O 373.177 -5.81526 -1.91035 0
M  V30 2768 C 371.041 -7.02416 -1.9168 0
M  V30 2769 N 369.998 -6.31033 -1.20314 0
M  V30 2770 C 370.06 -6.18781 0.121293 0
M  V30 2771 N 369.015 -5.49762 0.588272 0
M  V30 2772 C 368.281 -5.22015 -0.488988 0
M  V30 2773 C 366.975 -4.61966 -0.596448 0
M  V30 2774 O 366.242 -4.19162 0.309059 0
M  V30 2775 N 366.545 -4.53773 -1.878 0
M  V30 2776 C 367.294 -4.99623 -2.99082 0
M  V30 2777 N 366.697 -4.78912 -4.21227 0
M  V30 2778 N 368.447 -5.59957 -2.91093 0
M  V30 2779 C 368.904 -5.70225 -1.64218 0
M  V30 2780 H 371.073 -6.6888 -2.96621 0
M  V30 2781 H 372.256 -6.53517 -0.192194 0
M  V30 2782 H 373.741 -8.36563 -0.598329 0
M  V30 2783 H 372.046 -10.0291 -1.79807 0
M  V30 2784 H 371.856 -10.2138 0.558219 0
M  V30 2785 H 370.225 -9.6579 0.0444202 0
M  V30 2786 H 365.649 -4.12883 -2.05283 0
M  V30 2787 H 370.856 -6.59596 0.745856 0
M  V30 2788 H 365.786 -4.31425 -4.2628 0
M  V30 2789 H 367.162 -5.11219 -5.07148 0
M  V30 2790 H 372.866 -5.69466 -2.79593 0
M  V30 2791 P 374.722 -8.4349 -2.47671 0
M  V30 2792 O 376.144 -8.92593 -2.65 0
M  V30 2793 O 374.362 -7.7568 -1.19296 0
M  V30 2794 O 374.399 -7.36886 -3.63805 0
M  V30 2795 C 374.239 -7.95349 -4.982 0
M  V30 2796 C 374.779 -6.94612 -5.98974 0
M  V30 2797 O 373.723 -6.10347 -6.11815 0
M  V30 2798 C 375.997 -6.11426 -5.62335 0
M  V30 2799 O 376.735 -5.6162 -6.70584 0
M  V30 2800 C 375.328 -5.04409 -4.73308 0
M  V30 2801 O 376.127 -3.85992 -4.75183 0
M  V30 2802 C 373.991 -4.8728 -5.41006 0
M  V30 2803 H 374.023 -4.02333 -6.11157 0
M  V30 2804 H 375.206 -5.39466 -3.69543 0
M  V30 2805 H 376.69 -6.71916 -5.01943 0
M  V30 2806 H 374.996 -7.4649 -6.93477 0
M  V30 2807 H 374.806 -8.89416 -5.05237 0
M  V30 2808 H 373.176 -8.14876 -5.18409 0
M  V30 2809 H 375.815 -3.27957 -5.4317 0
M  V30 2810 P 377.673 -5.75688 -6.64379 0
M  V30 2811 O 379.095 -6.07627 -7.05504 0
M  V30 2812 O 377.313 -5.88047 -5.19722 0
M  V30 2813 O 377.35 -4.2322 -7.04443 0
M  V30 2814 C 377.19 -3.99743 -8.4911 0
M  V30 2815 C 377.73 -2.60516 -8.79425 0
M  V30 2816 O 376.674 -1.82684 -8.4467 0
M  V30 2817 C 378.948 -2.10343 -8.03628 0
M  V30 2818 O 379.686 -1.09919 -8.67766 0
M  V30 2819 C 378.279 -1.68446 -6.70876 0
M  V30 2820 O 379.078 -0.678137 -6.08433 0
M  V30 2821 C 376.942 -1.17436 -7.18567 0
M  V30 2822 H 376.974 -0.0804732 -7.31656 0
M  V30 2823 H 378.157 -2.54037 -6.02537 0
M  V30 2824 H 379.641 -2.93881 -7.85526 0
M  V30 2825 H 377.947 -2.53065 -9.86973 0
M  V30 2826 H 377.757 -4.75072 -9.05887 0
M  V30 2827 H 376.127 -4.05244 -8.76668 0
M  V30 2828 H 378.766 0.177647 -6.34251 0
M  V30 2829 P 380.624 -1.25109 -8.70152 0
M  V30 2830 O 382.045 -1.29758 -9.22115 0
M  V30 2831 O 380.264 -2.13714 -7.55141 0
M  V30 2832 O 380.301 0.248149 -8.21425 0
M  V30 2833 C 380.14 1.22792 -9.30533 0
M  V30 2834 C 380.681 2.56293 -8.80664 0
M  V30 2835 O 379.626 3.02944 -8.09255 0
M  V30 2836 C 381.899 2.57523 -7.89775 0
M  V30 2837 O 382.637 3.7668 -7.89438 0
M  V30 2838 C 381.231 2.20997 -6.55446 0
M  V30 2839 O 382.029 2.71302 -5.48691 0
M  V30 2840 C 379.893 2.89693 -6.67988 0
M  V30 2841 N 378.85 2.08895 -6.07487 0
M  V30 2842 C 379.019 0.753809 -5.94137 0
M  V30 2843 N 377.992 0.146592 -5.38801 0
M  V30 2844 C 377.107 1.1768 -5.13693 0
M  V30 2845 C 375.84 1.17563 -4.52477 0
M  V30 2846 N 375.241 0.057481 -4.04759 0
M  V30 2847 N 375.275 2.41918 -4.45789 0
M  V30 2848 C 375.877 3.56493 -4.90792 0
M  V30 2849 N 377.054 3.61423 -5.47817 0
M  V30 2850 C 377.629 2.37779 -5.5588 0
M  V30 2851 H 379.925 3.8874 -6.19774 0
M  V30 2852 H 381.108 1.12673 -6.44018 0
M  V30 2853 H 382.591 1.7746 -8.19711 0
M  V30 2854 H 380.897 3.21673 -9.66791 0
M  V30 2855 H 380.707 0.901032 -10.1892 0
M  V30 2856 H 379.077 1.33049 -9.56592 0
M  V30 2857 H 375.341 4.49919 -4.77947 0
M  V30 2858 H 379.919 0.233081 -6.26266 0
M  V30 2859 H 374.311 0.119831 -3.60801 0
M  V30 2860 H 375.715 -0.852272 -4.12385 0
M  V30 2861 H 381.717 3.5779 -5.23879 0
M  V30 2862 P 383.574 3.65191 -7.99657 0
M  V30 2863 O 384.996 3.89332 -8.45794 0
M  V30 2864 O 383.214 2.28472 -7.50807 0
M  V30 2865 O 383.251 4.64972 -6.77611 0
M  V30 2866 C 383.091 6.06319 -7.16352 0
M  V30 2867 C 383.631 6.91731 -6.02299 0
M  V30 2868 O 382.575 6.92449 -5.17064 0
M  V30 2869 C 384.849 6.43627 -5.25174 0
M  V30 2870 O 385.587 7.43686 -4.60469 0
M  V30 2871 C 384.18 5.40275 -4.31916 0
M  V30 2872 O 384.979 5.25279 -3.14438 0
M  V30 2873 C 382.843 6.04847 -4.05327 0
M  V30 2874 H 382.875 6.62195 -3.11261 0
M  V30 2875 H 384.058 4.42556 -4.81383 0
M  V30 2876 H 385.542 5.92458 -5.93643 0
M  V30 2877 H 383.848 7.92655 -6.402 0
M  V30 2878 H 383.658 6.26671 -8.0846 0
M  V30 2879 H 382.028 6.29101 -7.32804 0
M  V30 2880 H 384.667 5.84315 -2.47318 0
M  V30 2881 P 386.525 7.39546 -4.75277 0
M  V30 2882 O 387.947 7.84966 -5.01146 0
M  V30 2883 O 386.165 5.9812 -5.08098 0
M  V30 2884 O 386.202 7.57503 -3.1866 0
M  V30 2885 C 386.042 8.97357 -2.74833 0
M  V30 2886 C 386.582 9.0745 -1.32694 0
M  V30 2887 O 385.527 8.62072 -0.606159 0
M  V30 2888 C 387.8 8.25383 -0.938334 0
M  V30 2889 O 388.538 8.74577 0.146954 0
M  V30 2890 C 387.132 6.8802 -0.712559 0
M  V30 2891 O 387.93 6.11791 0.194623 0
M  V30 2892 C 385.794 7.27966 -0.139777 0
M  V30 2893 N 384.751 6.39368 -0.623421 0
M  V30 2894 C 384.813 5.90299 -1.85969 0
M  V30 2895 N 383.768 5.10919 -2.1133 0
M  V30 2896 C 383.034 5.14646 -1.0015 0
M  V30 2897 C 381.728 4.60057 -0.729219 0
M  V30 2898 O 380.995 3.93476 -1.47746 0
M  V30 2899 N 381.298 4.88302 0.523505 0
M  V30 2900 C 382.047 5.63646 1.46207 0
M  V30 2901 N 381.45 5.78186 2.69239 0
M  V30 2902 N 383.2 6.19285 1.21544 0
M  V30 2903 C 383.657 5.93392 -0.0308487 0
M  V30 2904 H 385.826 7.25354 0.961601 0
M  V30 2905 H 387.009 6.3246 -1.65676 0
M  V30 2906 H 388.494 8.19533 -1.78278 0
M  V30 2907 H 386.799 10.1294 -1.10029 0
M  V30 2908 H 386.609 9.64276 -3.41316 0
M  V30 2909 H 384.978 9.25417 -2.76357 0
M  V30 2910 H 380.402 4.53993 0.806451 0
M  V30 2911 H 385.609 6.11865 -2.57394 0
M  V30 2912 H 380.539 5.34046 2.87467 0
M  V30 2913 H 381.915 6.33391 3.42578 0
M  V30 2914 H 387.619 6.25169 1.0783 0
M  V30 2915 P 389.475 8.791 1.973e-12 0
M  V30 2916 O 390.897 9.31096 0.027933 0
M  V30 2917 O 389.115 7.77869 -1.04071 0
M  V30 2918 O 389.152 8.09533 1.41463 0
M  V30 2919 C 388.992 9.0349 2.53943 0
M  V30 2920 C 389.532 8.35226 3.79016 0
M  V30 2921 O 388.476 7.57992 4.15078 0
M  V30 2922 C 390.75 7.45087 3.67298 0
M  V30 2923 O 391.488 7.27796 4.85194 0
M  V30 2924 C 390.081 6.17323 3.12027 0
M  V30 2925 O 390.88 5.04231 3.47188 0
M  V30 2926 C 388.744 6.19961 3.81809 0
M  V30 2927 H 388.776 5.58218 4.73051 0
M  V30 2928 H 389.959 6.21726 2.02589 0
M  V30 2929 H 391.443 7.86112 2.9231 0
M  V30 2930 H 389.749 9.11627 4.55076 0
M  V30 2931 H 389.559 9.9573 2.34194 0
M  V30 2932 H 387.929 9.2792 2.67832 0
M  V30 2933 H 390.568 4.67702 4.28772 0
M  V30 2934 P 392.426 7.39546 4.75277 0
M  V30 2935 O 393.848 7.81777 5.05738 0
M  V30 2936 O 392.066 7.1065 3.32998 0
M  V30 2937 O 392.103 6.04542 5.56673 0
M  V30 2938 C 391.943 6.22772 7.02095 0
M  V30 2939 C 392.483 4.97725 7.70406 0
M  V30 2940 O 391.427 4.13256 7.58987 0
M  V30 2941 C 393.701 4.28231 7.11815 0
M  V30 2942 O 394.439 3.49945 8.01648 0
M  V30 2943 C 393.032 3.5063 5.96244 0
M  V30 2944 O 393.831 2.36482 5.64681 0
M  V30 2945 C 391.695 3.15122 6.56374 0
M  V30 2946 H 391.727 2.13853 6.99751 0
M  V30 2947 H 392.91 4.13501 5.06559 0
M  V30 2948 H 394.394 5.03285 6.70911 0
M  V30 2949 H 392.7 5.20877 8.75697 0
M  V30 2950 H 392.51 7.11046 7.35349 0
M  V30 2951 H 390.88 6.35815 7.26986 0
M  V30 2952 H 393.519 1.61644 6.13565 0
M  V30 2953 P 395.376 3.65191 7.99657 0
M  V30 2954 O 396.797 3.84292 8.48206 0
M  V30 2955 O 395.016 4.17805 6.64342 0
M  V30 2956 O 395.053 2.07613 7.95143 0
M  V30 2957 C 394.892 1.44344 9.27435 0
M  V30 2958 C 395.433 0.0220036 9.17197 0
M  V30 2959 O 394.378 -0.626794 8.61824 0
M  V30 2960 C 396.651 -0.24586 8.30336 0
M  V30 2961 O 397.389 -1.39011 8.63583 0
M  V30 2962 C 395.983 -0.273849 6.91158 0
M  V30 2963 O 396.781 -1.05728 6.029 0
M  V30 2964 C 394.645 -0.897649 7.22545 0
M  V30 2965 N 393.602 -0.292839 6.41732 0
M  V30 2966 C 393.771 0.950603 5.91308 0
M  V30 2967 N 392.744 1.37732 5.21105 0
M  V30 2968 C 391.859 0.318109 5.26039 0
M  V30 2969 C 390.592 0.146766 4.6727 0
M  V30 2970 N 389.993 1.08519 3.89983 0
M  V30 2971 N 390.027 -1.06525 4.95887 0
M  V30 2972 C 390.629 -2.0378 5.71347 0
M  V30 2973 N 391.806 -1.92445 6.27451 0
M  V30 2974 C 392.381 -0.715382 6.00353 0
M  V30 2975 H 394.677 -1.98383 7.04189 0
M  V30 2976 H 395.86 0.733318 6.49674 0
M  V30 2977 H 397.343 0.60668 8.36503 0
M  V30 2978 H 395.649 -0.362662 10.1825 0
M  V30 2979 H 395.459 2.00611 10.0304 0
M  V30 2980 H 393.829 1.41843 9.55327 0
M  V30 2981 H 390.093 -2.97041 5.85344 0
M  V30 2982 H 394.671 1.54076 6.07465 0
M  V30 2983 H 389.063 0.901517 3.49562 0
M  V30 2984 H 390.467 1.97957 3.71669 0
M  V30 2985 H 396.469 -1.95704 6.0346 0
M  V30 2986 P 398.327 -1.25109 8.70152 0
M  V30 2987 O 399.749 -1.35274 9.21221 0
M  V30 2988 O 397.967 -0.0769065 7.84762 0
M  V30 2989 O 398.004 -2.55232 7.81161 0
M  V30 2990 C 397.844 -3.79939 8.58154 0
M  V30 2991 C 398.384 -4.94023 7.72785 0
M  V30 2992 O 397.328 -5.18726 6.91205 0
M  V30 2993 C 399.602 -4.69597 6.85231 0
M  V30 2994 O 400.34 -5.83832 6.51337 0
M  V30 2995 C 398.933 -3.96706 5.66633 0
M  V30 2996 O 399.732 -4.15414 4.49689 0
M  V30 2997 C 397.596 -4.66153 5.59313 0
M  V30 2998 H 397.628 -5.47679 4.85214 0
M  V30 2999 H 398.811 -2.89008 5.86566 0
M  V30 3000 H 400.295 -4.0121 7.36511 0
M  V30 3001 H 398.601 -5.80182 8.37584 0
M  V30 3002 H 398.411 -3.73517 9.52265 0
M  V30 3003 H 396.781 -3.97163 8.80359 0
M  V30 3004 H 399.42 -4.90969 4.01921 0
M  V30 3005 P 401.278 -5.75688 6.64379 0
M  V30 3006 O 402.7 -6.11849 7.01846 0
M  V30 3007 O 400.918 -4.30744 6.56026 0
M  V30 3008 O 400.955 -6.37042 5.19165 0
M  V30 3009 C 400.795 -7.83578 5.16515 0
M  V30 3010 C 401.335 -8.33398 3.83019 0
M  V30 3011 O 400.279 -8.10074 3.01034 0
M  V30 3012 C 402.553 -7.65514 3.2257 0
M  V30 3013 O 403.291 -8.4329 2.32297 0
M  V30 3014 C 401.884 -6.40075 2.62207 0
M  V30 3015 O 402.683 -5.92589 1.53712 0
M  V30 3016 C 400.547 -6.9454 2.18503 0
M  V30 3017 H 400.579 -7.23063 1.12091 0
M  V30 3018 H 401.762 -5.6025 3.37201 0
M  V30 3019 H 403.246 -7.35707 4.02681 0
M  V30 3020 H 401.552 -9.40912 3.9095 0
M  V30 3021 H 401.362 -8.29056 5.99158 0
M  V30 3022 H 399.732 -8.10073 5.25882 0
M  V30 3023 H 402.371 -6.30324 0.726794 0
M  V30 3024 P 404.228 -8.4349 2.47671 0
M  V30 3025 O 405.649 -8.94263 2.59668 0
M  V30 3026 O 403.868 -7.1704 3.19006 0
M  V30 3027 O 403.905 -8.16596 0.923387 0
M  V30 3028 C 403.744 -9.38537 0.108869 0
M  V30 3029 C 404.285 -9.08175 -1.28353 0
M  V30 3030 O 403.23 -8.44131 -1.84692 0
M  V30 3031 C 405.503 -8.18386 -1.42505 0
M  V30 3032 O 406.241 -8.3501 -2.60497 0
M  V30 3033 C 404.835 -6.80225 -1.25468 0
M  V30 3034 O 405.633 -5.81716 -1.90454 0
M  V30 3035 C 403.497 -7.02416 -1.9168 0
M  V30 3036 N 402.454 -6.31033 -1.20314 0
M  V30 3037 C 402.623 -5.98817 0.0994088 0
M  V30 3038 N 401.596 -5.35403 0.621694 0
M  V30 3039 C 400.711 -5.25212 -0.43376 0
M  V30 3040 C 399.444 -4.64602 -0.519722 0
M  V30 3041 N 398.845 -4.01457 0.519136 0
M  V30 3042 N 398.879 -4.7568 -1.76013 0
M  V30 3043 C 399.481 -5.3653 -2.83017 0
M  V30 3044 N 400.658 -5.93676 -2.79782 0
M  V30 3045 C 401.233 -5.84061 -1.56249 0
M  V30 3046 H 403.529 -6.68789 -2.9658 0
M  V30 3047 H 404.712 -6.53498 -0.198729 0
M  V30 3048 H 406.195 -8.36622 -0.589963 0
M  V30 3049 H 404.501 -10.0273 -1.8081 0
M  V30 3050 H 404.311 -10.2138 0.558219 0
M  V30 3051 H 402.681 -9.6579 0.0444202 0
M  V30 3052 H 398.945 -5.37113 -3.77321 0
M  V30 3053 H 403.523 -6.23209 0.660562 0
M  V30 3054 H 397.915 -3.58834 0.394862 0
M  V30 3055 H 399.319 -3.96059 1.43048 0
M  V30 3056 H 405.321 -5.69466 -2.79593 0
M  V30 3057 P 407.179 -8.4349 -2.47671 0
M  V30 3058 O 408.6 -8.92689 -2.65029 0
M  V30 3059 O 406.819 -7.7568 -1.19296 0
M  V30 3060 O 406.856 -7.36886 -3.63805 0
M  V30 3061 C 406.695 -7.95433 -4.98253 0
M  V30 3062 C 407.236 -6.94612 -5.98974 0
M  V30 3063 O 406.181 -6.10277 -6.11744 0
M  V30 3064 C 408.454 -6.11426 -5.62335 0
M  V30 3065 O 409.192 -5.6162 -6.70584 0
M  V30 3066 C 407.786 -5.04409 -4.73308 0
M  V30 3067 O 408.584 -3.86404 -4.74719 0
M  V30 3068 C 406.448 -4.8728 -5.41006 0
M  V30 3069 N 405.405 -4.65812 -4.42377 0
M  V30 3070 C 405.574 -5.09132 -3.15382 0
M  V30 3071 N 404.547 -4.84021 -2.3716 0
M  V30 3072 C 403.662 -4.18386 -3.20441 0
M  V30 3073 C 402.395 -3.6275 -2.94905 0
M  V30 3074 N 401.796 -3.65794 -1.73372 0
M  V30 3075 N 401.83 -3.05008 -4.05243 0
M  V30 3076 C 402.432 -2.98348 -5.28159 0
M  V30 3077 N 403.609 -3.48171 -5.56333 0
M  V30 3078 C 404.184 -4.06869 -4.47212 0
M  V30 3079 H 406.48 -4.02278 -6.11074 0
M  V30 3080 H 407.663 -5.39013 -3.70026 0
M  V30 3081 H 409.146 -6.71916 -5.01943 0
M  V30 3082 H 407.452 -7.45796 -6.94223 0
M  V30 3083 H 407.262 -8.89416 -5.05237 0
M  V30 3084 H 405.632 -8.14876 -5.18409 0
M  V30 3085 H 401.896 -2.47853 -6.07807 0
M  V30 3086 H 406.474 -5.59989 -2.81362 0
M  V30 3087 H 400.866 -3.23218 -1.60782 0
M  V30 3088 H 402.27 -4.10523 -0.937856 0
M  V30 3089 H 408.272 -3.27906 -5.43085 0
M  V30 3090 P 410.129 -5.75688 -6.64379 0
M  V30 3091 O 411.551 -6.07627 -7.05504 0
M  V30 3092 O 409.769 -5.88047 -5.19722 0
M  V30 3093 O 409.806 -4.2322 -7.04443 0
M  V30 3094 C 409.646 -3.99743 -8.4911 0
M  V30 3095 C 410.186 -2.60516 -8.79425 0
M  V30 3096 O 409.13 -1.82684 -8.4467 0
M  V30 3097 C 411.404 -2.10343 -8.03628 0
M  V30 3098 O 412.142 -1.09919 -8.67766 0
M  V30 3099 C 410.735 -1.68446 -6.70876 0
M  V30 3100 O 411.534 -0.678137 -6.08433 0
M  V30 3101 C 409.398 -1.17436 -7.18567 0
M  V30 3102 H 409.43 -0.0804732 -7.31656 0
M  V30 3103 H 410.613 -2.54037 -6.02537 0
M  V30 3104 H 412.097 -2.93881 -7.85526 0
M  V30 3105 H 410.403 -2.53065 -9.86973 0
M  V30 3106 H 410.213 -4.75072 -9.05887 0
M  V30 3107 H 408.583 -4.05244 -8.76668 0
M  V30 3108 H 411.222 0.177647 -6.34251 0
M  V30 3109 P 413.08 -1.25109 -8.70152 0
M  V30 3110 O 414.502 -1.29744 -9.22016 0
M  V30 3111 O 412.72 -2.13714 -7.55141 0
M  V30 3112 O 412.757 0.248149 -8.21425 0
M  V30 3113 C 412.597 1.22779 -9.30434 0
M  V30 3114 C 413.137 2.56293 -8.80664 0
M  V30 3115 O 412.081 3.02979 -8.09349 0
M  V30 3116 C 414.355 2.57523 -7.89775 0
M  V30 3117 O 415.093 3.7668 -7.89438 0
M  V30 3118 C 413.686 2.20997 -6.55446 0
M  V30 3119 O 414.485 2.71895 -5.48509 0
M  V30 3120 C 412.349 2.89693 -6.67988 0
M  V30 3121 H 412.381 3.88793 -6.19859 0
M  V30 3122 H 413.564 1.12046 -6.44229 0
M  V30 3123 H 415.048 1.7746 -8.19711 0
M  V30 3124 H 413.354 3.20706 -9.67112 0
M  V30 3125 H 413.164 0.901032 -10.1892 0
M  V30 3126 H 411.534 1.33049 -9.56592 0
M  V30 3127 H 414.173 3.57847 -5.23962 0
M  V30 3128 P 416.03 3.65191 -7.99657 0
M  V30 3129 O 417.451 3.89374 -8.45885 0
M  V30 3130 O 415.67 2.28472 -7.50807 0
M  V30 3131 O 415.707 4.64972 -6.77611 0
M  V30 3132 C 415.546 6.06383 -7.16428 0
M  V30 3133 C 416.087 6.91731 -6.02299 0
M  V30 3134 O 415.032 6.92369 -5.17005 0
M  V30 3135 C 417.305 6.43627 -5.25174 0
M  V30 3136 O 418.043 7.43686 -4.60469 0
M  V30 3137 C 416.637 5.40275 -4.31916 0
M  V30 3138 O 417.435 5.24878 -3.14911 0
M  V30 3139 C 415.299 6.04847 -4.05327 0
M  V30 3140 N 414.256 5.04166 -3.98114 0
M  V30 3141 C 414.425 3.84629 -4.59066 0
M  V30 3142 N 413.398 3.0363 -4.45343 0
M  V30 3143 C 412.513 3.76722 -3.68523 0
M  V30 3144 C 411.246 3.43528 -3.17088 0
M  V30 3145 N 410.681 4.44526 -2.44231 0
M  V30 3146 C 411.283 5.65243 -2.20146 0
M  V30 3147 N 412.46 6.00221 -2.65453 0
M  V30 3148 C 413.035 5.00564 -3.39083 0
M  V30 3149 H 416.514 4.42969 -4.80867 0
M  V30 3150 H 417.997 5.92458 -5.93643 0
M  V30 3151 H 416.303 7.93295 -6.39407 0
M  V30 3152 H 416.113 6.26671 -8.0846 0
M  V30 3153 H 414.483 6.29101 -7.32804 0
M  V30 3154 H 415.325 3.58193 -5.14248 0
M  V30 3155 H 417.123 5.84223 -2.47279 0
M  V30 3156 P 418.981 7.39546 -4.75277 0
M  V30 3157 O 420.403 7.84798 -5.01039 0
M  V30 3158 O 418.621 5.9812 -5.08098 0
M  V30 3159 O 418.658 7.57503 -3.1866 0
M  V30 3160 C 418.498 8.97357 -2.74833 0
M  V30 3161 C 419.038 9.07548 -1.32709 0
M  V30 3162 O 417.982 8.62072 -0.606159 0
M  V30 3163 C 420.256 8.25383 -0.938334 0
M  V30 3164 O 420.994 8.74577 0.146954 0
M  V30 3165 C 419.587 6.8802 -0.712559 0
M  V30 3166 O 420.386 6.1189 0.194655 0
M  V30 3167 C 418.25 7.27966 -0.139777 0
M  V30 3168 H 418.282 7.25354 0.961601 0
M  V30 3169 H 419.465 6.32557 -1.65702 0
M  V30 3170 H 420.949 8.19355 -1.79097 0
M  V30 3171 H 419.255 10.1294 -1.10029 0
M  V30 3172 H 419.065 9.64276 -3.41316 0
M  V30 3173 H 417.435 9.25417 -2.76357 0
M  V30 3174 H 420.074 6.25267 1.07847 0
M  V30 3175 P 421.932 8.791 2.28317e-12 0
M  V30 3176 O 423.354 9.31096 0.027933 0
M  V30 3177 O 421.572 7.77869 -1.04071 0
M  V30 3178 O 421.609 8.09533 1.41463 0
M  V30 3179 C 421.449 9.0349 2.53943 0
M  V30 3180 C 421.989 8.35226 3.79016 0
M  V30 3181 O 420.933 7.57992 4.15078 0
M  V30 3182 C 423.207 7.45087 3.67298 0
M  V30 3183 O 423.945 7.27796 4.85194 0
M  V30 3184 C 422.538 6.17323 3.12027 0
M  V30 3185 O 423.337 5.04231 3.47188 0
M  V30 3186 C 421.201 6.19961 3.81809 0
M  V30 3187 H 421.233 5.58218 4.73051 0
M  V30 3188 H 422.416 6.21726 2.02589 0
M  V30 3189 H 423.9 7.86112 2.9231 0
M  V30 3190 H 422.206 9.11627 4.55076 0
M  V30 3191 H 422.016 9.9573 2.34194 0
M  V30 3192 H 420.386 9.2792 2.67832 0
M  V30 3193 H 423.025 4.67702 4.28772 0
M  V30 3194 P 424.882 7.39546 4.75277 0
M  V30 3195 O 426.304 7.81777 5.05738 0
M  V30 3196 O 424.522 7.1065 3.32998 0
M  V30 3197 O 424.559 6.04542 5.56673 0
M  V30 3198 C 424.399 6.22772 7.02095 0
M  V30 3199 C 424.939 4.97725 7.70406 0
M  V30 3200 O 423.883 4.13256 7.58987 0
M  V30 3201 C 426.157 4.28231 7.11815 0
M  V30 3202 O 426.895 3.49945 8.01648 0
M  V30 3203 C 425.488 3.5063 5.96244 0
M  V30 3204 O 426.287 2.36482 5.64681 0
M  V30 3205 C 424.151 3.15122 6.56374 0
M  V30 3206 H 424.183 2.13853 6.99751 0
M  V30 3207 H 425.366 4.13501 5.06559 0
M  V30 3208 H 426.85 5.03285 6.70911 0
M  V30 3209 H 425.156 5.20877 8.75697 0
M  V30 3210 H 424.966 7.11046 7.35349 0
M  V30 3211 H 423.336 6.35815 7.26986 0
M  V30 3212 H 425.975 1.61644 6.13565 0
M  V30 3213 P 427.833 3.65191 7.99657 0
M  V30 3214 O 429.255 3.8425 8.48115 0
M  V30 3215 O 427.473 4.17805 6.64342 0
M  V30 3216 O 427.51 2.07613 7.95143 0
M  V30 3217 C 427.35 1.44328 9.27336 0
M  V30 3218 C 427.89 0.0220036 9.17197 0
M  V30 3219 O 426.834 -0.626867 8.61923 0
M  V30 3220 C 429.108 -0.24586 8.30336 0
M  V30 3221 O 429.846 -1.39011 8.63583 0
M  V30 3222 C 428.439 -0.273849 6.91158 0
M  V30 3223 O 429.238 -1.06348 6.02892 0
M  V30 3224 C 427.102 -0.897649 7.22545 0
M  V30 3225 H 427.134 -1.9841 7.04286 0
M  V30 3226 H 428.317 0.739928 6.497 0
M  V30 3227 H 429.801 0.60668 8.36503 0
M  V30 3228 H 428.107 -0.352479 10.1829 0
M  V30 3229 H 427.917 2.00611 10.0304 0
M  V30 3230 H 426.287 1.41843 9.55327 0
M  V30 3231 H 428.926 -1.95734 6.03555 0
M  V30 3232 P 430.783 -1.25109 8.70152 0
M  V30 3233 O 432.205 -1.35274 9.21221 0
M  V30 3234 O 430.423 -0.0769065 7.84762 0
M  V30 3235 O 430.46 -2.55232 7.81161 0
M  V30 3236 C 430.3 -3.79939 8.58154 0
M  V30 3237 C 430.84 -4.94023 7.72785 0
M  V30 3238 O 429.784 -5.18726 6.91205 0
M  V30 3239 C 432.058 -4.69597 6.85231 0
M  V30 3240 O 432.796 -5.83832 6.51337 0
M  V30 3241 C 431.389 -3.96706 5.66633 0
M  V30 3242 O 432.188 -4.15414 4.49689 0
M  V30 3243 C 430.052 -4.66153 5.59313 0
M  V30 3244 H 430.084 -5.47679 4.85214 0
M  V30 3245 H 431.267 -2.89008 5.86566 0
M  V30 3246 H 432.751 -4.0121 7.36511 0
M  V30 3247 H 431.057 -5.80182 8.37584 0
M  V30 3248 H 430.867 -3.73517 9.52265 0
M  V30 3249 H 429.237 -3.97163 8.80359 0
M  V30 3250 H 431.876 -4.90969 4.01921 0
M  V30 3251 P 433.734 -5.75688 6.64379 0
M  V30 3252 O 435.156 -6.11849 7.01846 0
M  V30 3253 O 433.374 -4.30744 6.56026 0
M  V30 3254 O 433.411 -6.37042 5.19165 0
M  V30 3255 C 433.251 -7.83578 5.16515 0
M  V30 3256 C 433.791 -8.33398 3.83019 0
M  V30 3257 O 432.735 -8.10074 3.01034 0
M  V30 3258 C 435.009 -7.65514 3.2257 0
M  V30 3259 O 435.747 -8.4329 2.32297 0
M  V30 3260 C 434.34 -6.40075 2.62207 0
M  V30 3261 O 435.139 -5.92589 1.53712 0
M  V30 3262 C 433.003 -6.9454 2.18503 0
M  V30 3263 H 433.035 -7.23063 1.12091 0
M  V30 3264 H 434.218 -5.6025 3.37201 0
M  V30 3265 H 435.702 -7.35707 4.02681 0
M  V30 3266 H 434.008 -9.40912 3.9095 0
M  V30 3267 H 433.818 -8.29056 5.99158 0
M  V30 3268 H 432.188 -8.10073 5.25882 0
M  V30 3269 H 434.827 -6.30324 0.726794 0
M  V30 3270 P 436.684 -8.4349 2.47671 0
M  V30 3271 O 438.106 -8.94167 2.5964 0
M  V30 3272 O 436.324 -7.1704 3.19006 0
M  V30 3273 O 436.361 -8.16596 0.923387 0
M  V30 3274 C 436.201 -9.38437 0.108857 0
M  V30 3275 C 436.741 -9.08175 -1.28353 0
M  V30 3276 O 435.685 -8.44229 -1.84713 0
M  V30 3277 C 437.959 -8.18386 -1.42505 0
M  V30 3278 O 438.697 -8.3501 -2.60497 0
M  V30 3279 C 437.29 -6.80225 -1.25468 0
M  V30 3280 O 438.089 -5.81621 -1.91066 0
M  V30 3281 C 435.953 -7.02416 -1.9168 0
M  V30 3282 H 435.985 -6.6888 -2.96621 0
M  V30 3283 H 437.168 -6.53617 -0.192223 0
M  V30 3284 H 438.652 -8.36622 -0.589963 0
M  V30 3285 H 436.958 -10.0291 -1.79807 0
M  V30 3286 H 436.768 -10.2138 0.558219 0
M  V30 3287 H 435.138 -9.6579 0.0444202 0
M  V30 3288 H 437.777 -5.69556 -2.79637 0
M  V30 3289 P 439.635 -8.4349 -2.47671 0
M  V30 3290 O 441.057 -8.92593 -2.65 0
M  V30 3291 O 439.275 -7.7568 -1.19296 0
M  V30 3292 O 439.312 -7.36886 -3.63805 0
M  V30 3293 C 439.152 -7.95349 -4.982 0
M  V30 3294 C 439.692 -6.94612 -5.98974 0
M  V30 3295 O 438.636 -6.10347 -6.11815 0
M  V30 3296 C 440.91 -6.11426 -5.62335 0
M  V30 3297 O 441.648 -5.6162 -6.70584 0
M  V30 3298 C 440.241 -5.04409 -4.73308 0
M  V30 3299 O 441.04 -3.85992 -4.75183 0
M  V30 3300 C 438.904 -4.8728 -5.41006 0
M  V30 3301 H 438.936 -4.02333 -6.11157 0
M  V30 3302 H 440.119 -5.39466 -3.69543 0
M  V30 3303 H 441.603 -6.71916 -5.01943 0
M  V30 3304 H 439.909 -7.4649 -6.93477 0
M  V30 3305 H 439.719 -8.89416 -5.05237 0
M  V30 3306 H 438.089 -8.14876 -5.18409 0
M  V30 3307 H 440.728 -3.27957 -5.4317 0
M  V30 3308 P 442.586 -5.75688 -6.64379 0
M  V30 3309 O 444.008 -6.07627 -7.05504 0
M  V30 3310 O 442.226 -5.88047 -5.19722 0
M  V30 3311 O 442.263 -4.2322 -7.04443 0
M  V30 3312 C 442.103 -3.99743 -8.4911 0
M  V30 3313 C 442.643 -2.60516 -8.79425 0
M  V30 3314 O 441.587 -1.82684 -8.4467 0
M  V30 3315 C 443.861 -2.10343 -8.03628 0
M  V30 3316 O 444.599 -1.09919 -8.67766 0
M  V30 3317 C 443.192 -1.68446 -6.70876 0
M  V30 3318 O 443.991 -0.678137 -6.08433 0
M  V30 3319 C 441.855 -1.17436 -7.18567 0
M  V30 3320 H 441.887 -0.0804732 -7.31656 0
M  V30 3321 H 443.07 -2.54037 -6.02537 0
M  V30 3322 H 444.554 -2.93881 -7.85526 0
M  V30 3323 H 442.86 -2.53065 -9.86973 0
M  V30 3324 H 442.67 -4.75072 -9.05887 0
M  V30 3325 H 441.04 -4.05244 -8.76668 0
M  V30 3326 H 443.679 0.177647 -6.34251 0
M  V30 3327 P 445.536 -1.25109 -8.70152 0
M  V30 3328 O 446.958 -1.29744 -9.22016 0
M  V30 3329 O 445.176 -2.13714 -7.55141 0
M  V30 3330 O 445.213 0.248149 -8.21425 0
M  V30 3331 C 445.053 1.22779 -9.30434 0
M  V30 3332 C 445.593 2.56293 -8.80664 0
M  V30 3333 O 444.537 3.02979 -8.09349 0
M  V30 3334 C 446.811 2.57523 -7.89775 0
M  V30 3335 O 447.549 3.7668 -7.89438 0
M  V30 3336 C 446.142 2.20997 -6.55446 0
M  V30 3337 O 446.941 2.71895 -5.48509 0
M  V30 3338 C 444.805 2.89693 -6.67988 0
M  V30 3339 H 444.837 3.88793 -6.19859 0
M  V30 3340 H 446.02 1.12046 -6.44229 0
M  V30 3341 H 447.504 1.7746 -8.19711 0
M  V30 3342 H 445.81 3.20706 -9.67112 0
M  V30 3343 H 445.62 0.901032 -10.1892 0
M  V30 3344 H 443.99 1.33049 -9.56592 0
M  V30 3345 H 446.629 3.57847 -5.23962 0
M  V30 3346 P 448.487 3.65191 -7.99657 0
M  V30 3347 O 449.909 3.89332 -8.45794 0
M  V30 3348 O 448.127 2.28472 -7.50807 0
M  V30 3349 O 448.164 4.64972 -6.77611 0
M  V30 3350 C 448.004 6.06319 -7.16352 0
M  V30 3351 C 448.544 6.91731 -6.02299 0
M  V30 3352 O 447.488 6.92449 -5.17064 0
M  V30 3353 C 449.762 6.43627 -5.25174 0
M  V30 3354 O 450.5 7.43686 -4.60469 0
M  V30 3355 C 449.093 5.40275 -4.31916 0
M  V30 3356 O 449.892 5.25279 -3.14438 0
M  V30 3357 C 447.756 6.04847 -4.05327 0
M  V30 3358 H 447.788 6.62195 -3.11261 0
M  V30 3359 H 448.971 4.42556 -4.81383 0
M  V30 3360 H 450.455 5.92458 -5.93643 0
M  V30 3361 H 448.761 7.92655 -6.402 0
M  V30 3362 H 448.571 6.26671 -8.0846 0
M  V30 3363 H 446.941 6.29101 -7.32804 0
M  V30 3364 H 449.58 5.84315 -2.47318 0
M  V30 3365 P 451.437 7.39546 -4.75277 0
M  V30 3366 O 452.859 7.84798 -5.01039 0
M  V30 3367 O 451.077 5.9812 -5.08098 0
M  V30 3368 O 451.114 7.57503 -3.1866 0
M  V30 3369 C 450.954 8.97357 -2.74833 0
M  V30 3370 C 451.494 9.07548 -1.32709 0
M  V30 3371 O 450.438 8.62072 -0.606159 0
M  V30 3372 C 452.712 8.25383 -0.938334 0
M  V30 3373 O 453.45 8.74577 0.146954 0
M  V30 3374 C 452.043 6.8802 -0.712559 0
M  V30 3375 O 452.842 6.1189 0.194655 0
M  V30 3376 C 450.706 7.27966 -0.139777 0
M  V30 3377 H 450.738 7.25354 0.961601 0
M  V30 3378 H 451.921 6.32557 -1.65702 0
M  V30 3379 H 453.405 8.19355 -1.79097 0
M  V30 3380 H 451.711 10.1294 -1.10029 0
M  V30 3381 H 451.521 9.64276 -3.41316 0
M  V30 3382 H 449.891 9.25417 -2.76357 0
M  V30 3383 H 452.53 6.25267 1.07847 0
M  V30 3384 P 454.388 8.791 2.59334e-12 0
M  V30 3385 O 455.81 9.31096 0.027933 0
M  V30 3386 O 454.028 7.77869 -1.04071 0
M  V30 3387 O 454.065 8.09533 1.41463 0
M  V30 3388 C 453.905 9.0349 2.53943 0
M  V30 3389 C 454.445 8.35226 3.79016 0
M  V30 3390 O 453.389 7.57992 4.15078 0
M  V30 3391 C 455.663 7.45087 3.67298 0
M  V30 3392 O 456.401 7.27796 4.85194 0
M  V30 3393 C 454.994 6.17323 3.12027 0
M  V30 3394 O 455.793 5.04231 3.47188 0
M  V30 3395 C 453.657 6.19961 3.81809 0
M  V30 3396 H 453.689 5.58218 4.73051 0
M  V30 3397 H 454.872 6.21726 2.02589 0
M  V30 3398 H 456.356 7.86112 2.9231 0
M  V30 3399 H 454.662 9.11627 4.55076 0
M  V30 3400 H 454.472 9.9573 2.34194 0
M  V30 3401 H 452.842 9.2792 2.67832 0
M  V30 3402 H 455.481 4.67702 4.28772 0
M  V30 3403 P 457.338 7.39546 4.75277 0
M  V30 3404 O 458.76 7.81777 5.05738 0
M  V30 3405 O 456.978 7.1065 3.32998 0
M  V30 3406 O 457.015 6.04542 5.56673 0
M  V30 3407 C 456.855 6.22772 7.02095 0
M  V30 3408 C 457.395 4.97725 7.70406 0
M  V30 3409 O 456.339 4.13256 7.58987 0
M  V30 3410 C 458.613 4.28231 7.11815 0
M  V30 3411 O 459.351 3.49945 8.01648 0
M  V30 3412 C 457.944 3.5063 5.96244 0
M  V30 3413 O 458.743 2.36482 5.64681 0
M  V30 3414 C 456.607 3.15122 6.56374 0
M  V30 3415 H 456.639 2.13853 6.99751 0
M  V30 3416 H 457.822 4.13501 5.06559 0
M  V30 3417 H 459.306 5.03285 6.70911 0
M  V30 3418 H 457.612 5.20877 8.75697 0
M  V30 3419 H 457.422 7.11046 7.35349 0
M  V30 3420 H 455.792 6.35815 7.26986 0
M  V30 3421 H 458.431 1.61644 6.13565 0
M  V30 3422 P 460.289 3.65191 7.99657 0
M  V30 3423 O 461.711 3.8425 8.48115 0
M  V30 3424 O 459.929 4.17805 6.64342 0
M  V30 3425 O 459.966 2.07613 7.95143 0
M  V30 3426 C 459.806 1.44328 9.27336 0
M  V30 3427 C 460.346 0.0220036 9.17197 0
M  V30 3428 O 459.29 -0.626867 8.61923 0
M  V30 3429 C 461.564 -0.24586 8.30336 0
M  V30 3430 O 462.302 -1.39011 8.63583 0
M  V30 3431 C 460.895 -0.273849 6.91158 0
M  V30 3432 O 461.694 -1.06348 6.02892 0
M  V30 3433 C 459.558 -0.897649 7.22545 0
M  V30 3434 H 459.59 -1.9841 7.04286 0
M  V30 3435 H 460.773 0.739928 6.497 0
M  V30 3436 H 462.257 0.60668 8.36503 0
M  V30 3437 H 460.563 -0.352479 10.1829 0
M  V30 3438 H 460.373 2.00611 10.0304 0
M  V30 3439 H 458.743 1.41843 9.55327 0
M  V30 3440 H 461.382 -1.95734 6.03555 0
M  V30 3441 P 463.239 -1.25109 8.70152 0
M  V30 3442 O 464.66 -1.35288 9.2132 0
M  V30 3443 O 462.879 -0.0769065 7.84762 0
M  V30 3444 O 462.916 -2.55232 7.81161 0
M  V30 3445 C 462.755 -3.79979 8.58246 0
M  V30 3446 C 463.296 -4.94023 7.72785 0
M  V30 3447 O 462.241 -5.18666 6.91125 0
M  V30 3448 C 464.514 -4.69597 6.85231 0
M  V30 3449 O 465.252 -5.83832 6.51337 0
M  V30 3450 C 463.846 -3.96706 5.66633 0
M  V30 3451 O 464.644 -4.14896 4.5003 0
M  V30 3452 C 462.508 -4.66153 5.59313 0
M  V30 3453 N 461.465 -3.71582 5.24027 0
M  V30 3454 C 461.634 -2.39715 5.48833 0
M  V30 3455 N 460.607 -1.65863 5.12845 0
M  V30 3456 C 459.722 -2.57637 4.5973 0
M  V30 3457 C 458.455 -2.40278 4.01027 0
M  V30 3458 N 457.89 -3.57711 3.59575 0
M  V30 3459 C 458.492 -4.80324 3.70476 0
M  V30 3460 N 459.669 -5.01121 4.23801 0
M  V30 3461 C 460.244 -3.84757 4.66372 0
M  V30 3462 H 463.723 -2.8955 5.86187 0
M  V30 3463 H 465.206 -4.0121 7.36511 0
M  V30 3464 H 463.512 -5.81019 8.37003 0
M  V30 3465 H 463.322 -3.73517 9.52265 0
M  V30 3466 H 461.692 -3.97163 8.80359 0
M  V30 3467 H 462.534 -1.98804 5.94332 0
M  V30 3468 H 464.332 -4.90891 4.01857 0
M  V30 3469 P 466.19 -5.75688 6.64379 0
M  V30 3470 O 467.612 -6.11849 7.01846 0
M  V30 3471 O 465.83 -4.30744 6.56026 0
M  V30 3472 O 465.867 -6.37042 5.19165 0
M  V30 3473 C 465.707 -7.83578 5.16515 0
M  V30 3474 C 466.247 -8.33398 3.83019 0
M  V30 3475 O 465.191 -8.10074 3.01034 0
M  V30 3476 C 467.465 -7.65514 3.2257 0
M  V30 3477 O 468.203 -8.4329 2.32297 0
M  V30 3478 C 466.796 -6.40075 2.62207 0
M  V30 3479 O 467.595 -5.92589 1.53712 0
M  V30 3480 C 465.459 -6.9454 2.18503 0
M  V30 3481 H 465.491 -7.23063 1.12091 0
M  V30 3482 H 466.674 -5.6025 3.37201 0
M  V30 3483 H 468.158 -7.35707 4.02681 0
M  V30 3484 H 466.464 -9.40912 3.9095 0
M  V30 3485 H 466.274 -8.29056 5.99158 0
M  V30 3486 H 464.644 -8.10073 5.25882 0
M  V30 3487 H 467.283 -6.30324 0.726794 0
M  V30 3488 P 469.141 -8.4349 2.47671 0
M  V30 3489 O 470.563 -8.94167 2.5964 0
M  V30 3490 O 468.781 -7.1704 3.19006 0
M  V30 3491 O 468.818 -8.16596 0.923387 0
M  V30 3492 C 468.658 -9.38437 0.108857 0
M  V30 3493 C 469.198 -9.08175 -1.28353 0
M  V30 3494 O 468.142 -8.44229 -1.84713 0
M  V30 3495 C 470.416 -8.18386 -1.42505 0
M  V30 3496 O 471.154 -8.3501 -2.60497 0
M  V30 3497 C 469.747 -6.80225 -1.25468 0
M  V30 3498 O 470.546 -5.81621 -1.91066 0
M  V30 3499 C 468.41 -7.02416 -1.9168 0
M  V30 3500 H 468.442 -6.6888 -2.96621 0
M  V30 3501 H 469.625 -6.53617 -0.192223 0
M  V30 3502 H 471.109 -8.36622 -0.589963 0
M  V30 3503 H 469.415 -10.0291 -1.79807 0
M  V30 3504 H 469.225 -10.2138 0.558219 0
M  V30 3505 H 467.595 -9.6579 0.0444202 0
M  V30 3506 H 470.234 -5.69556 -2.79637 0
M  V30 3507 P 472.091 -8.4349 -2.47671 0
M  V30 3508 O 473.513 -8.92593 -2.65 0
M  V30 3509 O 471.731 -7.7568 -1.19296 0
M  V30 3510 O 471.768 -7.36886 -3.63805 0
M  V30 3511 C 471.608 -7.95349 -4.982 0
M  V30 3512 C 472.148 -6.94612 -5.98974 0
M  V30 3513 O 471.092 -6.10347 -6.11815 0
M  V30 3514 C 473.366 -6.11426 -5.62335 0
M  V30 3515 O 474.104 -5.6162 -6.70584 0
M  V30 3516 C 472.697 -5.04409 -4.73308 0
M  V30 3517 O 473.496 -3.85992 -4.75183 0
M  V30 3518 C 471.36 -4.8728 -5.41006 0
M  V30 3519 H 471.392 -4.02333 -6.11157 0
M  V30 3520 H 472.575 -5.39466 -3.69543 0
M  V30 3521 H 474.059 -6.71916 -5.01943 0
M  V30 3522 H 472.365 -7.4649 -6.93477 0
M  V30 3523 H 472.175 -8.89416 -5.05237 0
M  V30 3524 H 470.545 -8.14876 -5.18409 0
M  V30 3525 H 473.184 -3.27957 -5.4317 0
M  V30 3526 P 475.042 -5.75688 -6.64379 0
M  V30 3527 O 476.464 -6.07627 -7.05504 0
M  V30 3528 O 474.682 -5.88047 -5.19722 0
M  V30 3529 O 474.719 -4.2322 -7.04443 0
M  V30 3530 C 474.559 -3.99743 -8.4911 0
M  V30 3531 C 475.099 -2.60516 -8.79425 0
M  V30 3532 O 474.043 -1.82684 -8.4467 0
M  V30 3533 C 476.317 -2.10343 -8.03628 0
M  V30 3534 O 477.055 -1.09919 -8.67766 0
M  V30 3535 C 475.648 -1.68446 -6.70876 0
M  V30 3536 O 476.447 -0.678137 -6.08433 0
M  V30 3537 C 474.311 -1.17436 -7.18567 0
M  V30 3538 H 474.343 -0.0804732 -7.31656 0
M  V30 3539 H 475.526 -2.54037 -6.02537 0
M  V30 3540 H 477.01 -2.93881 -7.85526 0
M  V30 3541 H 475.316 -2.53065 -9.86973 0
M  V30 3542 H 475.126 -4.75072 -9.05887 0
M  V30 3543 H 473.496 -4.05244 -8.76668 0
M  V30 3544 H 476.135 0.177647 -6.34251 0
M  V30 3545 P 477.992 -1.25109 -8.70152 0
M  V30 3546 O 479.413 -1.29758 -9.22115 0
M  V30 3547 O 477.632 -2.13714 -7.55141 0
M  V30 3548 O 477.669 0.248149 -8.21425 0
M  V30 3549 C 477.508 1.22792 -9.30533 0
M  V30 3550 C 478.049 2.56293 -8.80664 0
M  V30 3551 O 476.994 3.02944 -8.09255 0
M  V30 3552 C 479.267 2.57523 -7.89775 0
M  V30 3553 O 480.005 3.7668 -7.89438 0
M  V30 3554 C 478.599 2.20997 -6.55446 0
M  V30 3555 O 479.397 2.71302 -5.48691 0
M  V30 3556 C 477.261 2.89693 -6.67988 0
M  V30 3557 N 476.218 2.08895 -6.07487 0
M  V30 3558 C 476.387 0.753809 -5.94137 0
M  V30 3559 N 475.36 0.146592 -5.38801 0
M  V30 3560 C 474.475 1.1768 -5.13693 0
M  V30 3561 C 473.208 1.17563 -4.52477 0
M  V30 3562 N 472.643 2.41918 -4.45789 0
M  V30 3563 C 473.245 3.56493 -4.90792 0
M  V30 3564 N 474.422 3.61423 -5.47817 0
M  V30 3565 C 474.997 2.37779 -5.5588 0
M  V30 3566 H 478.476 1.12673 -6.44018 0
M  V30 3567 H 479.959 1.7746 -8.19711 0
M  V30 3568 H 478.265 3.21673 -9.66791 0
M  V30 3569 H 478.075 0.901032 -10.1892 0
M  V30 3570 H 476.445 1.33049 -9.56592 0
M  V30 3571 H 477.287 0.233081 -6.26266 0
M  V30 3572 H 479.085 3.5779 -5.23879 0
M  V30 3573 P 480.943 3.65191 -7.99657 0
M  V30 3574 O 482.365 3.89332 -8.45794 0
M  V30 3575 O 480.583 2.28472 -7.50807 0
M  V30 3576 O 480.62 4.64972 -6.77611 0
M  V30 3577 C 480.46 6.06319 -7.16352 0
M  V30 3578 C 481 6.91731 -6.02299 0
M  V30 3579 O 479.944 6.92449 -5.17064 0
M  V30 3580 C 482.218 6.43627 -5.25174 0
M  V30 3581 O 482.956 7.43686 -4.60469 0
M  V30 3582 C 481.549 5.40275 -4.31916 0
M  V30 3583 O 482.348 5.25279 -3.14438 0
M  V30 3584 C 480.212 6.04847 -4.05327 0
M  V30 3585 H 480.244 6.62195 -3.11261 0
M  V30 3586 H 481.427 4.42556 -4.81383 0
M  V30 3587 H 482.911 5.92458 -5.93643 0
M  V30 3588 H 481.217 7.92655 -6.402 0
M  V30 3589 H 481.027 6.26671 -8.0846 0
M  V30 3590 H 479.397 6.29101 -7.32804 0
M  V30 3591 H 482.036 5.84315 -2.47318 0
M  V30 3592 P 483.893 7.39546 -4.75277 0
M  V30 3593 O 485.315 7.84966 -5.01146 0
M  V30 3594 O 483.533 5.9812 -5.08098 0
M  V30 3595 O 483.57 7.57503 -3.1866 0
M  V30 3596 C 483.41 8.97357 -2.74833 0
M  V30 3597 C 483.95 9.0745 -1.32694 0
M  V30 3598 O 482.895 8.62072 -0.606159 0
M  V30 3599 C 485.168 8.25383 -0.938334 0
M  V30 3600 O 485.906 8.74577 0.146954 0
M  V30 3601 C 484.5 6.8802 -0.712559 0
M  V30 3602 O 485.298 6.11791 0.194623 0
M  V30 3603 C 483.162 7.27966 -0.139777 0
M  V30 3604 N 482.119 6.39368 -0.623421 0
M  V30 3605 C 482.181 5.90299 -1.85969 0
M  V30 3606 N 481.136 5.10919 -2.1133 0
M  V30 3607 C 480.402 5.14646 -1.0015 0
M  V30 3608 C 479.096 4.60057 -0.729219 0
M  V30 3609 O 478.363 3.93476 -1.47746 0
M  V30 3610 N 478.666 4.88302 0.523505 0
M  V30 3611 C 479.415 5.63646 1.46207 0
M  V30 3612 N 478.818 5.78186 2.69239 0
M  V30 3613 N 480.568 6.19285 1.21544 0
M  V30 3614 C 481.025 5.93392 -0.0308487 0
M  V30 3615 H 483.194 7.25354 0.961601 0
M  V30 3616 H 484.377 6.3246 -1.65676 0
M  V30 3617 H 485.862 8.19533 -1.78278 0
M  V30 3618 H 484.167 10.1294 -1.10029 0
M  V30 3619 H 483.977 9.64276 -3.41316 0
M  V30 3620 H 482.346 9.25417 -2.76357 0
M  V30 3621 H 477.77 4.53993 0.806451 0
M  V30 3622 H 482.977 6.11865 -2.57394 0
M  V30 3623 H 477.907 5.34046 2.87467 0
M  V30 3624 H 479.283 6.33391 3.42578 0
M  V30 3625 H 484.987 6.25169 1.0783 0
M  V30 3626 P 486.844 8.791 2.9035e-12 0
M  V30 3627 O 488.266 9.31096 0.027933 0
M  V30 3628 O 486.484 7.77869 -1.04071 0
M  V30 3629 O 486.521 8.09533 1.41463 0
M  V30 3630 C 486.361 9.0349 2.53943 0
M  V30 3631 C 486.901 8.35226 3.79016 0
M  V30 3632 O 485.845 7.57992 4.15078 0
M  V30 3633 C 488.119 7.45087 3.67298 0
M  V30 3634 O 488.857 7.27796 4.85194 0
M  V30 3635 C 487.45 6.17323 3.12027 0
M  V30 3636 O 488.249 5.04231 3.47188 0
M  V30 3637 C 486.113 6.19961 3.81809 0
M  V30 3638 H 486.145 5.58218 4.73051 0
M  V30 3639 H 487.328 6.21726 2.02589 0
M  V30 3640 H 488.812 7.86112 2.9231 0
M  V30 3641 H 487.118 9.11627 4.55076 0
M  V30 3642 H 486.928 9.9573 2.34194 0
M  V30 3643 H 485.298 9.2792 2.67832 0
M  V30 3644 H 487.937 4.67702 4.28772 0
M  V30 3645 P 489.795 7.39546 4.75277 0
M  V30 3646 O 491.196 7.89013 5.04841 0
M  V30 3647 O 489.417 7.16603 3.32298 0
M  V30 3648 O 489.472 6.04468 5.56605 0
M  V30 3649 C 489.312 6.22772 7.02095 0
M  V30 3650 C 489.852 4.97671 7.70322 0
M  V30 3651 O 488.796 4.13208 7.58899 0
M  V30 3652 C 491.069 4.28231 7.11815 0
M  V30 3653 O 491.808 3.49945 8.01648 0
M  V30 3654 C 490.402 3.5063 5.96244 0
M  V30 3655 O 491.2 2.36443 5.64589 0
M  V30 3656 C 489.064 3.15122 6.56374 0
M  V30 3657 N 488.021 3.22311 5.55692 0
M  V30 3658 C 486.986 2.32244 5.62437 0
M  V30 3659 O 487.025 1.43107 6.50341 0
M  V30 3660 N 485.974 2.40811 4.73368 0
M  V30 3661 C 486.022 3.344 3.77753 0
M  V30 3662 N 485.012 3.41475 2.91848 0
M  V30 3663 C 487.118 4.24712 3.66679 0
M  V30 3664 C 488.084 4.15625 4.58307 0
M  V30 3665 H 489.096 2.13823 6.99656 0
M  V30 3666 H 490.279 4.12931 5.06895 0
M  V30 3667 H 491.763 5.02674 6.71494 0
M  V30 3668 H 490.069 5.20001 8.76217 0
M  V30 3669 H 489.878 7.11046 7.35349 0
M  V30 3670 H 488.248 6.35749 7.26911 0
M  V30 3671 H 487.166 4.9828 2.86753 0
M  V30 3672 H 488.93 4.84464 4.54228 0
M  V30 3673 H 484.222 2.75785 2.99862 0
M  V30 3674 H 485.017 4.12304 2.17382 0
M  V30 3675 H 490.984 1.65592 6.23485 0
M  V30 3676 P 492.745 3.65191 7.99657 0
M  V30 3677 O 494.167 3.8425 8.48115 0
M  V30 3678 O 492.385 4.17805 6.64342 0
M  V30 3679 O 492.422 2.07613 7.95143 0
M  V30 3680 C 492.262 1.44328 9.27336 0
M  V30 3681 C 492.802 0.0220036 9.17197 0
M  V30 3682 O 491.746 -0.626867 8.61923 0
M  V30 3683 C 494.02 -0.24586 8.30336 0
M  V30 3684 O 494.758 -1.39011 8.63583 0
M  V30 3685 C 493.351 -0.273849 6.91158 0
M  V30 3686 O 494.15 -1.06348 6.02892 0
M  V30 3687 C 492.014 -0.897649 7.22545 0
M  V30 3688 H 492.046 -1.9841 7.04286 0
M  V30 3689 H 493.229 0.739928 6.497 0
M  V30 3690 H 494.713 0.60668 8.36503 0
M  V30 3691 H 493.019 -0.352479 10.1829 0
M  V30 3692 H 492.829 2.00611 10.0304 0
M  V30 3693 H 491.199 1.41843 9.55327 0
M  V30 3694 H 493.838 -1.95734 6.03555 0
M  V30 3695 P 495.696 -1.25109 8.70152 0
M  V30 3696 O 497.118 -1.35274 9.21221 0
M  V30 3697 O 495.336 -0.0769065 7.84762 0
M  V30 3698 O 495.373 -2.55232 7.81161 0
M  V30 3699 C 495.213 -3.79939 8.58154 0
M  V30 3700 C 495.753 -4.94023 7.72785 0
M  V30 3701 O 494.697 -5.18726 6.91205 0
M  V30 3702 C 496.971 -4.69597 6.85231 0
M  V30 3703 O 497.709 -5.83832 6.51337 0
M  V30 3704 C 496.302 -3.96706 5.66633 0
M  V30 3705 O 497.101 -4.15414 4.49689 0
M  V30 3706 C 494.965 -4.66153 5.59313 0
M  V30 3707 H 494.997 -5.47679 4.85214 0
M  V30 3708 H 496.18 -2.89008 5.86566 0
M  V30 3709 H 497.664 -4.0121 7.36511 0
M  V30 3710 H 495.97 -5.80182 8.37584 0
M  V30 3711 H 495.78 -3.73517 9.52265 0
M  V30 3712 H 494.15 -3.97163 8.80359 0
M  V30 3713 H 496.789 -4.90969 4.01921 0
M  V30 3714 P 498.646 -5.75688 6.64379 0
M  V30 3715 O 500.068 -6.11849 7.01846 0
M  V30 3716 O 498.286 -4.30744 6.56026 0
M  V30 3717 O 498.323 -6.37042 5.19165 0
M  V30 3718 C 498.163 -7.83578 5.16515 0
M  V30 3719 C 498.703 -8.33398 3.83019 0
M  V30 3720 O 497.647 -8.10074 3.01034 0
M  V30 3721 C 499.921 -7.65514 3.2257 0
M  V30 3722 O 500.659 -8.4329 2.32297 0
M  V30 3723 C 499.252 -6.40075 2.62207 0
M  V30 3724 O 500.051 -5.92589 1.53712 0
M  V30 3725 C 497.915 -6.9454 2.18503 0
M  V30 3726 H 497.947 -7.23063 1.12091 0
M  V30 3727 H 499.13 -5.6025 3.37201 0
M  V30 3728 H 500.614 -7.35707 4.02681 0
M  V30 3729 H 498.92 -9.40912 3.9095 0
M  V30 3730 H 498.73 -8.29056 5.99158 0
M  V30 3731 H 497.1 -8.10073 5.25882 0
M  V30 3732 H 499.739 -6.30324 0.726794 0
M  V30 3733 P 501.597 -8.4349 2.47671 0
M  V30 3734 O 503.019 -8.94167 2.5964 0
M  V30 3735 O 501.237 -7.1704 3.19006 0
M  V30 3736 O 501.274 -8.16596 0.923387 0
M  V30 3737 C 501.114 -9.38437 0.108857 0
M  V30 3738 C 501.654 -9.08175 -1.28353 0
M  V30 3739 O 500.598 -8.44229 -1.84713 0
M  V30 3740 C 502.872 -8.18386 -1.42505 0
M  V30 3741 O 503.61 -8.3501 -2.60497 0
M  V30 3742 C 502.203 -6.80225 -1.25468 0
M  V30 3743 O 503.002 -5.81621 -1.91066 0
M  V30 3744 C 500.866 -7.02416 -1.9168 0
M  V30 3745 H 500.898 -6.6888 -2.96621 0
M  V30 3746 H 502.081 -6.53617 -0.192223 0
M  V30 3747 H 503.565 -8.36622 -0.589963 0
M  V30 3748 H 501.871 -10.0291 -1.79807 0
M  V30 3749 H 501.681 -10.2138 0.558219 0
M  V30 3750 H 500.051 -9.6579 0.0444202 0
M  V30 3751 H 502.69 -5.69556 -2.79637 0
M  V30 3752 P 504.547 -8.4349 -2.47671 0
M  V30 3753 O 505.968 -8.92689 -2.65029 0
M  V30 3754 O 504.187 -7.7568 -1.19296 0
M  V30 3755 O 504.224 -7.36886 -3.63805 0
M  V30 3756 C 504.063 -7.95433 -4.98253 0
M  V30 3757 C 504.604 -6.94612 -5.98974 0
M  V30 3758 O 503.549 -6.10277 -6.11744 0
M  V30 3759 C 505.822 -6.11426 -5.62335 0
M  V30 3760 O 506.56 -5.6162 -6.70584 0
M  V30 3761 C 505.154 -5.04409 -4.73308 0
M  V30 3762 O 505.952 -3.86404 -4.74719 0
M  V30 3763 C 503.816 -4.8728 -5.41006 0
M  V30 3764 N 502.773 -4.65812 -4.42377 0
M  V30 3765 C 502.942 -5.09132 -3.15382 0
M  V30 3766 N 501.915 -4.84021 -2.3716 0
M  V30 3767 C 501.03 -4.18386 -3.20441 0
M  V30 3768 C 499.763 -3.6275 -2.94905 0
M  V30 3769 N 499.198 -3.05008 -4.05243 0
M  V30 3770 C 499.8 -2.98348 -5.28159 0
M  V30 3771 N 500.977 -3.48171 -5.56333 0
M  V30 3772 C 501.552 -4.06869 -4.47212 0
M  V30 3773 H 505.031 -5.39013 -3.70026 0
M  V30 3774 H 506.514 -6.71916 -5.01943 0
M  V30 3775 H 504.82 -7.45796 -6.94223 0
M  V30 3776 H 504.63 -8.89416 -5.05237 0
M  V30 3777 H 503 -8.14876 -5.18409 0
M  V30 3778 H 503.842 -5.59989 -2.81362 0
M  V30 3779 H 505.64 -3.27906 -5.43085 0
M  V30 3780 P 507.498 -5.75688 -6.64379 0
M  V30 3781 O 508.92 -6.07627 -7.05504 0
M  V30 3782 O 507.138 -5.88047 -5.19722 0
M  V30 3783 O 507.175 -4.2322 -7.04443 0
M  V30 3784 C 507.015 -3.99743 -8.4911 0
M  V30 3785 C 507.555 -2.60516 -8.79425 0
M  V30 3786 O 506.499 -1.82684 -8.4467 0
M  V30 3787 C 508.773 -2.10343 -8.03628 0
M  V30 3788 O 509.511 -1.09919 -8.67766 0
M  V30 3789 C 508.104 -1.68446 -6.70876 0
M  V30 3790 O 508.903 -0.678137 -6.08433 0
M  V30 3791 C 506.767 -1.17436 -7.18567 0
M  V30 3792 H 506.799 -0.0804732 -7.31656 0
M  V30 3793 H 507.982 -2.54037 -6.02537 0
M  V30 3794 H 509.466 -2.93881 -7.85526 0
M  V30 3795 H 507.772 -2.53065 -9.86973 0
M  V30 3796 H 507.582 -4.75072 -9.05887 0
M  V30 3797 H 505.952 -4.05244 -8.76668 0
M  V30 3798 H 508.591 0.177647 -6.34251 0
M  V30 3799 P 510.449 -1.25109 -8.70152 0
M  V30 3800 O 511.871 -1.29744 -9.22016 0
M  V30 3801 O 510.089 -2.13714 -7.55141 0
M  V30 3802 O 510.126 0.248149 -8.21425 0
M  V30 3803 C 509.966 1.22779 -9.30434 0
M  V30 3804 C 510.506 2.56293 -8.80664 0
M  V30 3805 O 509.45 3.02979 -8.09349 0
M  V30 3806 C 511.724 2.57523 -7.89775 0
M  V30 3807 O 512.462 3.7668 -7.89438 0
M  V30 3808 C 511.055 2.20997 -6.55446 0
M  V30 3809 O 511.854 2.71895 -5.48509 0
M  V30 3810 C 509.718 2.89693 -6.67988 0
M  V30 3811 H 509.75 3.88793 -6.19859 0
M  V30 3812 H 510.933 1.12046 -6.44229 0
M  V30 3813 H 512.417 1.7746 -8.19711 0
M  V30 3814 H 510.723 3.20706 -9.67112 0
M  V30 3815 H 510.533 0.901032 -10.1892 0
M  V30 3816 H 508.903 1.33049 -9.56592 0
M  V30 3817 H 511.542 3.57847 -5.23962 0
M  V30 3818 P 513.399 3.65191 -7.99657 0
M  V30 3819 O 514.821 3.89332 -8.45794 0
M  V30 3820 O 513.039 2.28472 -7.50807 0
M  V30 3821 O 513.076 4.64972 -6.77611 0
M  V30 3822 C 512.916 6.06319 -7.16352 0
M  V30 3823 C 513.456 6.91731 -6.02299 0
M  V30 3824 O 512.4 6.92449 -5.17064 0
M  V30 3825 C 514.674 6.43627 -5.25174 0
M  V30 3826 O 515.412 7.43686 -4.60469 0
M  V30 3827 C 514.005 5.40275 -4.31916 0
M  V30 3828 O 514.804 5.25279 -3.14438 0
M  V30 3829 C 512.668 6.04847 -4.05327 0
M  V30 3830 H 512.7 6.62195 -3.11261 0
M  V30 3831 H 513.883 4.42556 -4.81383 0
M  V30 3832 H 515.367 5.92458 -5.93643 0
M  V30 3833 H 513.673 7.92655 -6.402 0
M  V30 3834 H 513.483 6.26671 -8.0846 0
M  V30 3835 H 511.853 6.29101 -7.32804 0
M  V30 3836 H 514.492 5.84315 -2.47318 0
M  V30 3837 P 516.35 7.39546 -4.75277 0
M  V30 3838 O 517.772 7.84798 -5.01039 0
M  V30 3839 O 515.99 5.9812 -5.08098 0
M  V30 3840 O 516.027 7.57503 -3.1866 0
M  V30 3841 C 515.867 8.97357 -2.74833 0
M  V30 3842 C 516.407 9.07548 -1.32709 0
M  V30 3843 O 515.351 8.62072 -0.606159 0
M  V30 3844 C 517.625 8.25383 -0.938334 0
M  V30 3845 O 518.363 8.74577 0.146954 0
M  V30 3846 C 516.956 6.8802 -0.712559 0
M  V30 3847 O 517.755 6.1189 0.194655 0
M  V30 3848 C 515.619 7.27966 -0.139777 0
M  V30 3849 H 515.651 7.25354 0.961601 0
M  V30 3850 H 516.834 6.32557 -1.65702 0
M  V30 3851 H 518.318 8.19355 -1.79097 0
M  V30 3852 H 516.624 10.1294 -1.10029 0
M  V30 3853 H 516.434 9.64276 -3.41316 0
M  V30 3854 H 514.804 9.25417 -2.76357 0
M  V30 3855 H 517.443 6.25267 1.07847 0
M  V30 3856 P 519.3 8.791 3.21367e-12 0
M  V30 3857 O 520.701 9.36698 -0.018734 0
M  V30 3858 O 518.922 7.82499 -1.07878 0
M  V30 3859 O 518.977 8.09434 1.41446 0
M  V30 3860 C 518.817 9.0349 2.53943 0
M  V30 3861 C 519.357 8.35135 3.78975 0
M  V30 3862 O 518.301 7.57904 4.1503 0
M  V30 3863 C 520.574 7.45087 3.67298 0
M  V30 3864 O 521.313 7.27796 4.85194 0
M  V30 3865 C 519.907 6.17323 3.12027 0
M  V30 3866 O 520.705 5.04149 3.47132 0
M  V30 3867 C 518.569 6.19961 3.81809 0
M  V30 3868 N 517.526 5.71575 2.93223 0
M  V30 3869 C 516.491 4.99452 3.47592 0
M  V30 3870 O 516.53 4.7199 4.69732 0
M  V30 3871 N 515.479 4.58505 2.6803 0
M  V30 3872 C 515.527 4.85544 1.36995 0
M  V30 3873 N 514.517 4.45052 0.609031 0
M  V30 3874 C 516.623 5.55532 0.788532 0
M  V30 3875 C 517.589 5.97426 1.60849 0
M  V30 3876 H 518.601 5.58142 4.72986 0
M  V30 3877 H 519.784 6.21428 2.0318 0
M  V30 3878 H 521.268 7.85913 2.93131 0
M  V30 3879 H 519.574 9.11171 4.55987 0
M  V30 3880 H 519.383 9.9573 2.34194 0
M  V30 3881 H 517.753 9.27824 2.67805 0
M  V30 3882 H 516.671 5.7421 -0.281588 0
M  V30 3883 H 518.435 6.53132 1.202 0
M  V30 3884 H 513.727 3.94123 1.03159 0
M  V30 3885 H 514.522 4.64377 -0.400352 0
M  V30 3886 H 520.489 4.76386 4.34983 0
M  V30 3887 P 522.251 7.39546 4.75277 0
M  V30 3888 O 523.673 7.81777 5.05738 0
M  V30 3889 O 521.891 7.1065 3.32998 0
M  V30 3890 O 521.928 6.04542 5.56673 0
M  V30 3891 C 521.768 6.22772 7.02095 0
M  V30 3892 C 522.308 4.97725 7.70406 0
M  V30 3893 O 521.252 4.13256 7.58987 0
M  V30 3894 C 523.526 4.28231 7.11815 0
M  V30 3895 O 524.264 3.49945 8.01648 0
M  V30 3896 C 522.857 3.5063 5.96244 0
M  V30 3897 O 523.656 2.36482 5.64681 0
M  V30 3898 C 521.52 3.15122 6.56374 0
M  V30 3899 H 521.552 2.13853 6.99751 0
M  V30 3900 H 522.735 4.13501 5.06559 0
M  V30 3901 H 524.219 5.03285 6.70911 0
M  V30 3902 H 522.525 5.20877 8.75697 0
M  V30 3903 H 522.335 7.11046 7.35349 0
M  V30 3904 H 520.705 6.35815 7.26986 0
M  V30 3905 H 523.344 1.61644 6.13565 0
M  V30 3906 P 525.201 3.65191 7.99657 0
M  V30 3907 O 526.623 3.8425 8.48115 0
M  V30 3908 O 524.841 4.17805 6.64342 0
M  V30 3909 O 524.878 2.07613 7.95143 0
M  V30 3910 C 524.718 1.44328 9.27336 0
M  V30 3911 C 525.258 0.0220036 9.17197 0
M  V30 3912 O 524.202 -0.626867 8.61923 0
M  V30 3913 C 526.476 -0.24586 8.30336 0
M  V30 3914 O 527.214 -1.39011 8.63583 0
M  V30 3915 C 525.807 -0.273849 6.91158 0
M  V30 3916 O 526.606 -1.06348 6.02892 0
M  V30 3917 C 524.47 -0.897649 7.22545 0
M  V30 3918 H 524.502 -1.9841 7.04286 0
M  V30 3919 H 525.685 0.739928 6.497 0
M  V30 3920 H 527.169 0.60668 8.36503 0
M  V30 3921 H 525.475 -0.352479 10.1829 0
M  V30 3922 H 525.285 2.00611 10.0304 0
M  V30 3923 H 523.655 1.41843 9.55327 0
M  V30 3924 H 526.294 -1.95734 6.03555 0
M  V30 3925 P 528.152 -1.25109 8.70152 0
M  V30 3926 O 529.574 -1.35274 9.21221 0
M  V30 3927 O 527.792 -0.0769065 7.84762 0
M  V30 3928 O 527.829 -2.55232 7.81161 0
M  V30 3929 C 527.669 -3.79939 8.58154 0
M  V30 3930 C 528.209 -4.94023 7.72785 0
M  V30 3931 O 527.153 -5.18726 6.91205 0
M  V30 3932 C 529.427 -4.69597 6.85231 0
M  V30 3933 O 530.165 -5.83832 6.51337 0
M  V30 3934 C 528.758 -3.96706 5.66633 0
M  V30 3935 O 529.557 -4.15414 4.49689 0
M  V30 3936 C 527.421 -4.66153 5.59313 0
M  V30 3937 H 527.453 -5.47679 4.85214 0
M  V30 3938 H 528.636 -2.89008 5.86566 0
M  V30 3939 H 530.12 -4.0121 7.36511 0
M  V30 3940 H 528.426 -5.80182 8.37584 0
M  V30 3941 H 528.236 -3.73517 9.52265 0
M  V30 3942 H 526.606 -3.97163 8.80359 0
M  V30 3943 H 529.245 -4.90969 4.01921 0
M  V30 3944 P 531.103 -5.75688 6.64379 0
M  V30 3945 O 532.504 -6.11991 7.09136 0
M  V30 3946 O 530.725 -4.30899 6.62018 0
M  V30 3947 O 530.78 -6.36965 5.19102 0
M  V30 3948 C 530.62 -7.83578 5.16515 0
M  V30 3949 C 531.16 -8.33307 3.82977 0
M  V30 3950 O 530.104 -8.0998 3.00999 0
M  V30 3951 C 532.377 -7.65514 3.2257 0
M  V30 3952 O 533.116 -8.4329 2.32297 0
M  V30 3953 C 531.71 -6.40075 2.62207 0
M  V30 3954 O 532.508 -5.92492 1.53687 0
M  V30 3955 C 530.372 -6.9454 2.18503 0
M  V30 3956 N 529.329 -5.95905 2.39948 0
M  V30 3957 C 528.294 -5.89764 1.49837 0
M  V30 3958 O 528.333 -6.64088 0.490975 0
M  V30 3959 N 527.282 -5.02821 1.70992 0
M  V30 3960 C 527.33 -4.21498 2.77236 0
M  V30 3961 C 528.426 -4.23389 3.68205 0
M  V30 3962 C 529.392 -5.12792 3.46171 0
M  V30 3963 H 530.404 -7.22964 1.12076 0
M  V30 3964 H 531.587 -5.60502 3.36589 0
M  V30 3965 H 533.071 -7.36197 4.01993 0
M  V30 3966 H 531.377 -9.41302 3.90009 0
M  V30 3967 H 531.186 -8.29056 5.99158 0
M  V30 3968 H 529.556 -8.09989 5.25828 0
M  V30 3969 H 528.474 -3.54747 4.52399 0
M  V30 3970 H 530.238 -5.18551 4.1489 0
M  V30 3971 H 532.292 -6.40705 0.751752 0
M  V30 3972 P 534.053 -8.4349 2.47671 0
M  V30 3973 O 535.454 -8.98227 2.65696 0
M  V30 3974 O 533.675 -7.20409 3.23964 0
M  V30 3975 O 533.73 -8.16496 0.923275 0
M  V30 3976 C 533.57 -9.38437 0.108857 0
M  V30 3977 C 534.11 -9.08076 -1.28339 0
M  V30 3978 O 533.054 -8.44131 -1.84692 0
M  V30 3979 C 535.327 -8.18386 -1.42505 0
M  V30 3980 O 536.066 -8.3501 -2.60497 0
M  V30 3981 C 534.66 -6.80225 -1.25468 0
M  V30 3982 O 535.458 -5.81526 -1.91035 0
M  V30 3983 C 533.322 -7.02416 -1.9168 0
M  V30 3984 N 532.279 -6.31033 -1.20314 0
M  V30 3985 C 531.244 -5.77149 -1.928 0
M  V30 3986 O 531.283 -5.8521 -3.17729 0
M  V30 3987 N 530.232 -5.15445 -1.27997 0
M  V30 3988 C 530.28 -5.04472 0.0534726 0
M  V30 3989 C 531.376 -5.55244 0.808522 0
M  V30 3990 C 532.342 -6.18542 0.13981 0
M  V30 3991 H 533.354 -6.68789 -2.9658 0
M  V30 3992 H 534.537 -6.53498 -0.198729 0
M  V30 3993 H 536.021 -8.36663 -0.5984 0
M  V30 3994 H 534.327 -10.0273 -1.8081 0
M  V30 3995 H 534.136 -10.2138 0.558219 0
M  V30 3996 H 532.506 -9.6569 0.0444156 0
M  V30 3997 H 531.424 -5.43017 1.88792 0
M  V30 3998 H 533.188 -6.60539 0.686773 0
M  V30 3999 H 535.242 -5.79638 -2.8315 0
M  V30 4000 P 537.004 -8.4349 -2.47671 0
M  V30 4001 O 538.426 -8.92593 -2.65 0
M  V30 4002 O 536.644 -7.7568 -1.19296 0
M  V30 4003 O 536.681 -7.36886 -3.63805 0
M  V30 4004 C 536.521 -7.95349 -4.982 0
M  V30 4005 C 537.061 -6.94612 -5.98974 0
M  V30 4006 O 536.005 -6.10347 -6.11815 0
M  V30 4007 C 538.279 -6.11426 -5.62335 0
M  V30 4008 O 539.017 -5.6162 -6.70584 0
M  V30 4009 C 537.61 -5.04409 -4.73308 0
M  V30 4010 O 538.409 -3.85992 -4.75183 0
M  V30 4011 C 536.273 -4.8728 -5.41006 0
M  V30 4012 H 536.305 -4.02333 -6.11157 0
M  V30 4013 H 537.488 -5.39466 -3.69543 0
M  V30 4014 H 538.972 -6.71916 -5.01943 0
M  V30 4015 H 537.278 -7.4649 -6.93477 0
M  V30 4016 H 537.088 -8.89416 -5.05237 0
M  V30 4017 H 535.458 -8.14876 -5.18409 0
M  V30 4018 H 538.097 -3.27957 -5.4317 0
M  V30 4019 P 539.954 -5.75688 -6.64379 0
M  V30 4020 O 541.376 -6.07627 -7.05504 0
M  V30 4021 O 539.594 -5.88047 -5.19722 0
M  V30 4022 O 539.631 -4.2322 -7.04443 0
M  V30 4023 C 539.471 -3.99743 -8.4911 0
M  V30 4024 C 540.011 -2.60516 -8.79425 0
M  V30 4025 O 538.955 -1.82684 -8.4467 0
M  V30 4026 C 541.229 -2.10343 -8.03628 0
M  V30 4027 O 541.967 -1.09919 -8.67766 0
M  V30 4028 C 540.56 -1.68446 -6.70876 0
M  V30 4029 O 541.359 -0.678137 -6.08433 0
M  V30 4030 C 539.223 -1.17436 -7.18567 0
M  V30 4031 H 539.255 -0.0804732 -7.31656 0
M  V30 4032 H 540.438 -2.54037 -6.02537 0
M  V30 4033 H 541.922 -2.93881 -7.85526 0
M  V30 4034 H 540.228 -2.53065 -9.86973 0
M  V30 4035 H 540.038 -4.75072 -9.05887 0
M  V30 4036 H 538.408 -4.05244 -8.76668 0
M  V30 4037 H 541.047 0.177647 -6.34251 0
M  V30 4038 P 542.905 -1.25109 -8.70152 0
M  V30 4039 O 544.327 -1.29744 -9.22016 0
M  V30 4040 O 542.545 -2.13714 -7.55141 0
M  V30 4041 O 542.582 0.248149 -8.21425 0
M  V30 4042 C 542.422 1.22779 -9.30434 0
M  V30 4043 C 542.962 2.56293 -8.80664 0
M  V30 4044 O 541.906 3.02979 -8.09349 0
M  V30 4045 C 544.18 2.57523 -7.89775 0
M  V30 4046 O 544.918 3.7668 -7.89438 0
M  V30 4047 C 543.511 2.20997 -6.55446 0
M  V30 4048 O 544.31 2.71895 -5.48509 0
M  V30 4049 C 542.174 2.89693 -6.67988 0
M  V30 4050 H 542.206 3.88793 -6.19859 0
M  V30 4051 H 543.389 1.12046 -6.44229 0
M  V30 4052 H 544.873 1.7746 -8.19711 0
M  V30 4053 H 543.179 3.20706 -9.67112 0
M  V30 4054 H 542.989 0.901032 -10.1892 0
M  V30 4055 H 541.359 1.33049 -9.56592 0
M  V30 4056 H 543.998 3.57847 -5.23962 0
M  V30 4057 P 545.855 3.65191 -7.99657 0
M  V30 4058 O 547.277 3.89332 -8.45794 0
M  V30 4059 O 545.495 2.28472 -7.50807 0
M  V30 4060 O 545.532 4.64972 -6.77611 0
M  V30 4061 C 545.372 6.06319 -7.16352 0
M  V30 4062 C 545.912 6.91731 -6.02299 0
M  V30 4063 O 544.856 6.92449 -5.17064 0
M  V30 4064 C 547.13 6.43627 -5.25174 0
M  V30 4065 O 547.868 7.43686 -4.60469 0
M  V30 4066 C 546.461 5.40275 -4.31916 0
M  V30 4067 O 547.26 5.25279 -3.14438 0
M  V30 4068 C 545.124 6.04847 -4.05327 0
M  V30 4069 H 545.156 6.62195 -3.11261 0
M  V30 4070 H 546.339 4.42556 -4.81383 0
M  V30 4071 H 547.823 5.92458 -5.93643 0
M  V30 4072 H 546.129 7.92655 -6.402 0
M  V30 4073 H 545.939 6.26671 -8.0846 0
M  V30 4074 H 544.309 6.29101 -7.32804 0
M  V30 4075 H 546.948 5.84315 -2.47318 0
M  V30 4076 P 548.806 7.39546 -4.75277 0
M  V30 4077 O 550.207 7.86988 -5.07993 0
M  V30 4078 O 548.428 5.99957 -5.13804 0
M  V30 4079 O 548.483 7.57411 -3.18621 0
M  V30 4080 C 548.323 8.97357 -2.74833 0
M  V30 4081 C 548.863 9.0745 -1.32694 0
M  V30 4082 O 547.807 8.61972 -0.606089 0
M  V30 4083 C 550.08 8.25383 -0.938334 0
M  V30 4084 O 550.819 8.74577 0.146954 0
M  V30 4085 C 549.413 6.8802 -0.712559 0
M  V30 4086 O 550.211 6.11791 0.194623 0
M  V30 4087 C 548.075 7.27966 -0.139777 0
M  V30 4088 N 547.032 6.39368 -0.623421 0
M  V30 4089 C 545.997 6.08088 0.223886 0
M  V30 4090 O 546.036 6.5102 1.39986 0
M  V30 4091 N 544.985 5.30627 -0.224051 0
M  V30 4092 C 545.033 4.82531 -1.47257 0
M  V30 4093 C 546.129 5.09974 -2.34008 0
M  V30 4094 C 547.095 5.89548 -1.87678 0
M  V30 4095 H 548.107 7.25255 0.961469 0
M  V30 4096 H 549.29 6.32625 -1.65044 0
M  V30 4097 H 550.774 8.19631 -1.78299 0
M  V30 4098 H 549.08 10.1305 -1.09016 0
M  V30 4099 H 548.889 9.64276 -3.41316 0
M  V30 4100 H 547.259 9.25321 -2.76328 0
M  V30 4101 H 546.177 4.67832 -3.3413 0
M  V30 4102 H 547.941 6.14434 -2.51991 0
M  V30 4103 H 549.995 6.35931 1.08377 0
M  V30 4104 P 551.757 8.791 3.52383e-12 0
M  V30 4105 O 553.179 9.31096 0.027933 0
M  V30 4106 O 551.397 7.77869 -1.04071 0
M  V30 4107 O 551.434 8.09533 1.41463 0
M  V30 4108 C 551.274 9.0349 2.53943 0
M  V30 4109 C 551.814 8.35226 3.79016 0
M  V30 4110 O 550.758 7.57992 4.15078 0
M  V30 4111 C 553.032 7.45087 3.67298 0
M  V30 4112 O 553.77 7.27796 4.85194 0
M  V30 4113 C 552.363 6.17323 3.12027 0
M  V30 4114 O 553.162 5.04231 3.47188 0
M  V30 4115 C 551.026 6.19961 3.81809 0
M  V30 4116 H 551.058 5.58218 4.73051 0
M  V30 4117 H 552.241 6.21726 2.02589 0
M  V30 4118 H 553.725 7.86112 2.9231 0
M  V30 4119 H 552.031 9.11627 4.55076 0
M  V30 4120 H 551.841 9.9573 2.34194 0
M  V30 4121 H 550.211 9.2792 2.67832 0
M  V30 4122 H 552.85 4.67702 4.28772 0
M  V30 4123 P 554.707 7.39546 4.75277 0
M  V30 4124 O 556.129 7.81777 5.05738 0
M  V30 4125 O 554.347 7.1065 3.32998 0
M  V30 4126 O 554.384 6.04542 5.56673 0
M  V30 4127 C 554.224 6.22772 7.02095 0
M  V30 4128 C 554.764 4.97725 7.70406 0
M  V30 4129 O 553.708 4.13256 7.58987 0
M  V30 4130 C 555.982 4.28231 7.11815 0
M  V30 4131 O 556.72 3.49945 8.01648 0
M  V30 4132 C 555.313 3.5063 5.96244 0
M  V30 4133 O 556.112 2.36482 5.64681 0
M  V30 4134 C 553.976 3.15122 6.56374 0
M  V30 4135 H 554.008 2.13853 6.99751 0
M  V30 4136 H 555.191 4.13501 5.06559 0
M  V30 4137 H 556.675 5.03285 6.70911 0
M  V30 4138 H 554.981 5.20877 8.75697 0
M  V30 4139 H 554.791 7.11046 7.35349 0
M  V30 4140 H 553.161 6.35815 7.26986 0
M  V30 4141 H 555.8 1.61644 6.13565 0
M  V30 4142 P 557.658 3.65191 7.99657 0
M  V30 4143 O 559.08 3.8425 8.48115 0
M  V30 4144 O 557.298 4.17805 6.64342 0
M  V30 4145 O 557.335 2.07613 7.95143 0
M  V30 4146 C 557.175 1.44328 9.27336 0
M  V30 4147 C 557.715 0.0220036 9.17197 0
M  V30 4148 O 556.659 -0.626867 8.61923 0
M  V30 4149 C 558.933 -0.24586 8.30336 0
M  V30 4150 O 559.671 -1.39011 8.63583 0
M  V30 4151 C 558.264 -0.273849 6.91158 0
M  V30 4152 O 559.063 -1.06348 6.02892 0
M  V30 4153 C 556.927 -0.897649 7.22545 0
M  V30 4154 H 556.959 -1.9841 7.04286 0
M  V30 4155 H 558.142 0.739928 6.497 0
M  V30 4156 H 559.626 0.60668 8.36503 0
M  V30 4157 H 557.932 -0.352479 10.1829 0
M  V30 4158 H 557.742 2.00611 10.0304 0
M  V30 4159 H 556.112 1.41843 9.55327 0
M  V30 4160 H 558.751 -1.95734 6.03555 0
M  V30 4161 P 560.608 -1.25109 8.70152 0
M  V30 4162 O 562.03 -1.35274 9.21221 0
M  V30 4163 O 560.248 -0.0769065 7.84762 0
M  V30 4164 O 560.285 -2.55232 7.81161 0
M  V30 4165 C 560.125 -3.79939 8.58154 0
M  V30 4166 C 560.665 -4.94023 7.72785 0
M  V30 4167 O 559.609 -5.18726 6.91205 0
M  V30 4168 C 561.883 -4.69597 6.85231 0
M  V30 4169 O 562.621 -5.83832 6.51337 0
M  V30 4170 C 561.214 -3.96706 5.66633 0
M  V30 4171 O 562.013 -4.15414 4.49689 0
M  V30 4172 C 559.877 -4.66153 5.59313 0
M  V30 4173 H 559.909 -5.47679 4.85214 0
M  V30 4174 H 561.092 -2.89008 5.86566 0
M  V30 4175 H 562.576 -4.0121 7.36511 0
M  V30 4176 H 560.882 -5.80182 8.37584 0
M  V30 4177 H 560.692 -3.73517 9.52265 0
M  V30 4178 H 559.062 -3.97163 8.80359 0
M  V30 4179 H 561.701 -4.90969 4.01921 0
M  V30 4180 P 563.559 -5.75688 6.64379 0
M  V30 4181 O 564.981 -6.11849 7.01846 0
M  V30 4182 O 563.199 -4.30744 6.56026 0
M  V30 4183 O 563.236 -6.37042 5.19165 0
M  V30 4184 C 563.076 -7.83578 5.16515 0
M  V30 4185 C 563.616 -8.33398 3.83019 0
M  V30 4186 O 562.56 -8.10074 3.01034 0
M  V30 4187 C 564.834 -7.65514 3.2257 0
M  V30 4188 O 565.572 -8.4329 2.32297 0
M  V30 4189 C 564.165 -6.40075 2.62207 0
M  V30 4190 O 564.964 -5.92589 1.53712 0
M  V30 4191 C 562.828 -6.9454 2.18503 0
M  V30 4192 H 562.86 -7.23063 1.12091 0
M  V30 4193 H 564.043 -5.6025 3.37201 0
M  V30 4194 H 565.527 -7.35707 4.02681 0
M  V30 4195 H 563.833 -9.40912 3.9095 0
M  V30 4196 H 563.643 -8.29056 5.99158 0
M  V30 4197 H 562.013 -8.10073 5.25882 0
M  V30 4198 H 564.652 -6.30324 0.726794 0
M  V30 4199 P 566.509 -8.4349 2.47671 0
M  V30 4200 O 567.91 -8.98227 2.65696 0
M  V30 4201 O 566.131 -7.20409 3.23964 0
M  V30 4202 O 566.186 -8.16496 0.923275 0
M  V30 4203 C 566.026 -9.38437 0.108857 0
M  V30 4204 C 566.566 -9.08076 -1.28339 0
M  V30 4205 O 565.51 -8.44131 -1.84692 0
M  V30 4206 C 567.783 -8.18386 -1.42505 0
M  V30 4207 O 568.522 -8.3501 -2.60497 0
M  V30 4208 C 567.116 -6.80225 -1.25468 0
M  V30 4209 O 567.914 -5.81526 -1.91035 0
M  V30 4210 C 565.778 -7.02416 -1.9168 0
M  V30 4211 N 564.735 -6.31033 -1.20314 0
M  V30 4212 C 563.7 -5.77149 -1.928 0
M  V30 4213 O 563.739 -5.8521 -3.17729 0
M  V30 4214 N 562.688 -5.15445 -1.27997 0
M  V30 4215 C 562.736 -5.04472 0.0534726 0
M  V30 4216 C 563.832 -5.55244 0.808522 0
M  V30 4217 C 564.798 -6.18542 0.13981 0
M  V30 4218 H 565.81 -6.68789 -2.9658 0
M  V30 4219 H 566.993 -6.53498 -0.198729 0
M  V30 4220 H 568.477 -8.36663 -0.5984 0
M  V30 4221 H 566.783 -10.0273 -1.8081 0
M  V30 4222 H 566.592 -10.2138 0.558219 0
M  V30 4223 H 564.962 -9.6569 0.0444156 0
M  V30 4224 H 563.88 -5.43017 1.88792 0
M  V30 4225 H 565.644 -6.60539 0.686773 0
M  V30 4226 H 567.698 -5.79638 -2.8315 0
M  V30 4227 P 569.46 -8.4349 -2.47671 0
M  V30 4228 O 570.882 -8.92593 -2.65 0
M  V30 4229 O 569.1 -7.7568 -1.19296 0
M  V30 4230 O 569.137 -7.36886 -3.63805 0
M  V30 4231 C 568.977 -7.95349 -4.982 0
M  V30 4232 C 569.517 -6.94612 -5.98974 0
M  V30 4233 O 568.461 -6.10347 -6.11815 0
M  V30 4234 C 570.735 -6.11426 -5.62335 0
M  V30 4235 O 571.473 -5.6162 -6.70584 0
M  V30 4236 C 570.066 -5.04409 -4.73308 0
M  V30 4237 O 570.865 -3.85992 -4.75183 0
M  V30 4238 C 568.729 -4.8728 -5.41006 0
M  V30 4239 H 568.761 -4.02333 -6.11157 0
M  V30 4240 H 569.944 -5.39466 -3.69543 0
M  V30 4241 H 571.428 -6.71916 -5.01943 0
M  V30 4242 H 569.734 -7.4649 -6.93477 0
M  V30 4243 H 569.544 -8.89416 -5.05237 0
M  V30 4244 H 567.914 -8.14876 -5.18409 0
M  V30 4245 H 570.553 -3.27957 -5.4317 0
M  V30 4246 P 572.411 -5.75688 -6.64379 0
M  V30 4247 O 573.832 -6.07692 -7.0558 0
M  V30 4248 O 572.051 -5.88047 -5.19722 0
M  V30 4249 O 572.088 -4.2322 -7.04443 0
M  V30 4250 C 571.927 -3.99785 -8.49201 0
M  V30 4251 C 572.468 -2.60516 -8.79425 0
M  V30 4252 O 571.413 -1.82663 -8.44573 0
M  V30 4253 C 573.686 -2.10343 -8.03628 0
M  V30 4254 O 574.424 -1.09919 -8.67766 0
M  V30 4255 C 573.018 -1.68446 -6.70876 0
M  V30 4256 O 573.816 -0.684109 -6.08265 0
M  V30 4257 C 571.68 -1.17436 -7.18567 0
M  V30 4258 N 570.637 -1.52699 -6.23988 0
M  V30 4259 C 570.806 -2.578 -5.40574 0
M  V30 4260 N 569.779 -2.78966 -4.61193 0
M  V30 4261 C 568.894 -1.78725 -4.95769 0
M  V30 4262 C 567.627 -1.45727 -4.44207 0
M  V30 4263 N 567.028 -2.13994 -3.43613 0
M  V30 4264 N 567.062 -0.374977 -5.05812 0
M  V30 4265 C 567.664 0.345585 -6.05615 0
M  V30 4266 N 568.841 0.0787651 -6.56253 0
M  V30 4267 C 569.416 -1.00499 -5.96189 0
M  V30 4268 H 571.712 -0.0804622 -7.31556 0
M  V30 4269 H 572.895 -2.53396 -6.02698 0
M  V30 4270 H 574.378 -2.93881 -7.85526 0
M  V30 4271 H 572.684 -2.52078 -9.87225 0
M  V30 4272 H 572.494 -4.75072 -9.05887 0
M  V30 4273 H 570.864 -4.05244 -8.76668 0
M  V30 4274 H 567.128 1.20098 -6.4532 0
M  V30 4275 H 571.706 -3.18977 -5.3945 0
M  V30 4276 H 566.098 -1.84983 -3.10004 0
M  V30 4277 H 567.502 -2.9465 -3.00843 0
M  V30 4278 H 573.504 0.177619 -6.34151 0
M  V30 4279 P 575.361 -1.25109 -8.70152 0
M  V30 4280 O 576.783 -1.29772 -9.22214 0
M  V30 4281 O 575.001 -2.13714 -7.55141 0
M  V30 4282 O 575.038 0.248149 -8.21425 0
M  V30 4283 C 574.878 1.22779 -9.30434 0
M  V30 4284 C 575.418 2.56265 -8.80568 0
M  V30 4285 O 574.363 3.02979 -8.09349 0
M  V30 4286 C 576.636 2.57523 -7.89775 0
M  V30 4287 O 577.374 3.7668 -7.89438 0
M  V30 4288 C 575.968 2.20997 -6.55446 0
M  V30 4289 O 576.766 2.71851 -5.48419 0
M  V30 4290 C 574.63 2.89693 -6.67988 0
M  V30 4291 N 573.587 2.08895 -6.07487 0
M  V30 4292 C 573.649 0.760559 -6.14209 0
M  V30 4293 N 572.604 0.200108 -5.52538 0
M  V30 4294 C 571.87 1.22692 -5.09742 0
M  V30 4295 C 570.564 1.24782 -4.48775 0
M  V30 4296 O 569.831 0.290617 -4.19294 0
M  V30 4297 N 570.134 2.50468 -4.22428 0
M  V30 4298 C 570.883 3.67142 -4.51974 0
M  V30 4299 N 570.286 4.85096 -4.14091 0
M  V30 4300 N 572.036 3.67821 -5.12831 0
M  V30 4301 C 572.493 2.43698 -5.4105 0
M  V30 4302 H 574.662 3.88793 -6.19859 0
M  V30 4303 H 575.845 1.12029 -6.4413 0
M  V30 4304 H 577.33 1.78279 -8.19533 0
M  V30 4305 H 575.635 3.20706 -9.67112 0
M  V30 4306 H 575.445 0.901032 -10.1892 0
M  V30 4307 H 573.814 1.33049 -9.56592 0
M  V30 4308 H 569.238 2.61953 -3.79465 0
M  V30 4309 H 574.445 0.200439 -6.63497 0
M  V30 4310 H 569.375 4.8334 -3.66367 0
M  V30 4311 H 570.751 5.7474 -4.33841 0
M  V30 4312 H 576.455 3.5779 -5.23879 0
M  V30 4313 P 578.312 3.65191 -7.99657 0
M  V30 4314 O 579.734 3.89332 -8.45794 0
M  V30 4315 O 577.952 2.28472 -7.50807 0
M  V30 4316 O 577.989 4.64972 -6.77611 0
M  V30 4317 C 577.829 6.06319 -7.16352 0
M  V30 4318 C 578.369 6.91731 -6.02299 0
M  V30 4319 O 577.313 6.92449 -5.17064 0
M  V30 4320 C 579.587 6.43627 -5.25174 0
M  V30 4321 O 580.325 7.43686 -4.60469 0
M  V30 4322 C 578.918 5.40275 -4.31916 0
M  V30 4323 O 579.717 5.25279 -3.14438 0
M  V30 4324 C 577.581 6.04847 -4.05327 0
M  V30 4325 H 577.613 6.62195 -3.11261 0
M  V30 4326 H 578.796 4.42556 -4.81383 0
M  V30 4327 H 580.28 5.92458 -5.93643 0
M  V30 4328 H 578.586 7.92655 -6.402 0
M  V30 4329 H 578.396 6.26671 -8.0846 0
M  V30 4330 H 576.766 6.29101 -7.32804 0
M  V30 4331 H 579.405 5.84315 -2.47318 0
M  V30 4332 P 581.262 7.39546 -4.75277 0
M  V30 4333 O 582.683 7.84882 -5.01092 0
M  V30 4334 O 580.902 5.9812 -5.08098 0
M  V30 4335 O 580.939 7.57503 -3.1866 0
M  V30 4336 C 580.778 8.97452 -2.74862 0
M  V30 4337 C 581.319 9.07548 -1.32709 0
M  V30 4338 O 580.264 8.61972 -0.606089 0
M  V30 4339 C 582.537 8.25383 -0.938334 0
M  V30 4340 O 583.275 8.74577 0.146954 0
M  V30 4341 C 581.869 6.8802 -0.712559 0
M  V30 4342 O 582.667 6.1181 0.188505 0
M  V30 4343 C 580.531 7.27966 -0.139777 0
M  V30 4344 N 579.488 6.39368 -0.623421 0
M  V30 4345 C 579.657 5.71761 -1.78245 0
M  V30 4346 N 578.63 4.962 -2.10491 0
M  V30 4347 C 577.745 5.16158 -1.0635 0
M  V30 4348 C 576.478 4.60425 -0.810266 0
M  V30 4349 N 575.879 3.7057 -1.62914 0
M  V30 4350 N 575.913 5.06 0.348685 0
M  V30 4351 C 576.515 5.94532 1.20395 0
M  V30 4352 N 577.692 6.48452 1.01191 0
M  V30 4353 C 578.267 6.04423 -0.146291 0
M  V30 4354 H 580.563 7.25255 0.961469 0
M  V30 4355 H 581.746 6.32625 -1.65044 0
M  V30 4356 H 583.229 8.19355 -1.79097 0
M  V30 4357 H 581.535 10.1305 -1.09016 0
M  V30 4358 H 581.345 9.64276 -3.41316 0
M  V30 4359 H 579.715 9.25417 -2.76357 0
M  V30 4360 H 575.979 6.21659 2.10714 0
M  V30 4361 H 580.557 5.79354 -2.38959 0
M  V30 4362 H 574.949 3.33174 -1.38982 0
M  V30 4363 H 576.353 3.39714 -2.48836 0
M  V30 4364 H 582.355 6.25169 1.0783 0
M  V30 4365 P 584.213 8.791 3.834e-12 0
M  V30 4366 O 585.614 9.36698 -0.018734 0
M  V30 4367 O 583.835 7.82499 -1.07878 0
M  V30 4368 O 583.89 8.09434 1.41446 0
M  V30 4369 C 583.73 9.0349 2.53943 0
M  V30 4370 C 584.27 8.35135 3.78975 0
M  V30 4371 O 583.214 7.57904 4.1503 0
M  V30 4372 C 585.487 7.45087 3.67298 0
M  V30 4373 O 586.226 7.27796 4.85194 0
M  V30 4374 C 584.82 6.17323 3.12027 0
M  V30 4375 O 585.618 5.04149 3.47132 0
M  V30 4376 C 583.482 6.19961 3.81809 0
M  V30 4377 N 582.439 5.71575 2.93223 0
M  V30 4378 C 581.404 4.99452 3.47592 0
M  V30 4379 O 581.443 4.7199 4.69732 0
M  V30 4380 N 580.392 4.58505 2.6803 0
M  V30 4381 C 580.44 4.85544 1.36995 0
M  V30 4382 C 581.536 5.55532 0.788532 0
M  V30 4383 C 582.502 5.97426 1.60849 0
M  V30 4384 H 583.514 5.58142 4.72986 0
M  V30 4385 H 584.697 6.21428 2.0318 0
M  V30 4386 H 586.181 7.85913 2.93131 0
M  V30 4387 H 584.487 9.11171 4.55987 0
M  V30 4388 H 584.296 9.9573 2.34194 0
M  V30 4389 H 582.666 9.27824 2.67805 0
M  V30 4390 H 581.584 5.7421 -0.281588 0
M  V30 4391 H 583.348 6.53132 1.202 0
M  V30 4392 H 585.402 4.76386 4.34983 0
M  V30 4393 P 587.163 7.39546 4.75277 0
M  V30 4394 O 588.585 7.81777 5.05738 0
M  V30 4395 O 586.803 7.1065 3.32998 0
M  V30 4396 O 586.84 6.04542 5.56673 0
M  V30 4397 C 586.68 6.22772 7.02095 0
M  V30 4398 C 587.22 4.97725 7.70406 0
M  V30 4399 O 586.164 4.13256 7.58987 0
M  V30 4400 C 588.438 4.28231 7.11815 0
M  V30 4401 O 589.176 3.49945 8.01648 0
M  V30 4402 C 587.769 3.5063 5.96244 0
M  V30 4403 O 588.568 2.36482 5.64681 0
M  V30 4404 C 586.432 3.15122 6.56374 0
M  V30 4405 H 586.464 2.13853 6.99751 0
M  V30 4406 H 587.647 4.13501 5.06559 0
M  V30 4407 H 589.131 5.03285 6.70911 0
M  V30 4408 H 587.437 5.20877 8.75697 0
M  V30 4409 H 587.247 7.11046 7.35349 0
M  V30 4410 H 585.617 6.35815 7.26986 0
M  V30 4411 H 588.256 1.61644 6.13565 0
M  V30 4412 P 590.114 3.65191 7.99657 0
M  V30 4413 O 591.536 3.8425 8.48115 0
M  V30 4414 O 589.754 4.17805 6.64342 0
M  V30 4415 O 589.791 2.07613 7.95143 0
M  V30 4416 C 589.631 1.44328 9.27336 0
M  V30 4417 C 590.171 0.0220036 9.17197 0
M  V30 4418 O 589.115 -0.626867 8.61923 0
M  V30 4419 C 591.389 -0.24586 8.30336 0
M  V30 4420 O 592.127 -1.39011 8.63583 0
M  V30 4421 C 590.72 -0.273849 6.91158 0
M  V30 4422 O 591.519 -1.06348 6.02892 0
M  V30 4423 C 589.383 -0.897649 7.22545 0
M  V30 4424 H 589.415 -1.9841 7.04286 0
M  V30 4425 H 590.598 0.739928 6.497 0
M  V30 4426 H 592.082 0.60668 8.36503 0
M  V30 4427 H 590.388 -0.352479 10.1829 0
M  V30 4428 H 590.198 2.00611 10.0304 0
M  V30 4429 H 588.568 1.41843 9.55327 0
M  V30 4430 H 591.207 -1.95734 6.03555 0
M  V30 4431 P 593.065 -1.25109 8.70152 0
M  V30 4432 O 594.487 -1.35274 9.21221 0
M  V30 4433 O 592.705 -0.0769065 7.84762 0
M  V30 4434 O 592.742 -2.55232 7.81161 0
M  V30 4435 C 592.582 -3.79939 8.58154 0
M  V30 4436 C 593.122 -4.94023 7.72785 0
M  V30 4437 O 592.066 -5.18726 6.91205 0
M  V30 4438 C 594.34 -4.69597 6.85231 0
M  V30 4439 O 595.078 -5.83832 6.51337 0
M  V30 4440 C 593.671 -3.96706 5.66633 0
M  V30 4441 O 594.47 -4.15414 4.49689 0
M  V30 4442 C 592.334 -4.66153 5.59313 0
M  V30 4443 H 592.366 -5.47679 4.85214 0
M  V30 4444 H 593.549 -2.89008 5.86566 0
M  V30 4445 H 595.033 -4.0121 7.36511 0
M  V30 4446 H 593.339 -5.80182 8.37584 0
M  V30 4447 H 593.149 -3.73517 9.52265 0
M  V30 4448 H 591.519 -3.97163 8.80359 0
M  V30 4449 H 594.158 -4.90969 4.01921 0
M  V30 4450 P 596.015 -5.75688 6.64379 0
M  V30 4451 O 597.436 -6.11915 7.01921 0
M  V30 4452 O 595.655 -4.30744 6.56026 0
M  V30 4453 O 595.692 -6.37042 5.19165 0
M  V30 4454 C 595.531 -7.83662 5.1657 0
M  V30 4455 C 596.072 -8.33398 3.83019 0
M  V30 4456 O 595.017 -8.0998 3.00999 0
M  V30 4457 C 597.29 -7.65514 3.2257 0
M  V30 4458 O 598.028 -8.4329 2.32297 0
M  V30 4459 C 596.622 -6.40075 2.62207 0
M  V30 4460 O 597.42 -5.92338 1.5428 0
M  V30 4461 C 595.284 -6.9454 2.18503 0
M  V30 4462 N 594.241 -5.95905 2.39948 0
M  V30 4463 C 594.41 -4.98383 3.32108 0
M  V30 4464 N 593.383 -4.16798 3.41761 0
M  V30 4465 C 592.498 -4.65287 2.47461 0
M  V30 4466 C 591.231 -4.18946 2.07461 0
M  V30 4467 N 590.632 -3.09661 2.60717 0
M  V30 4468 N 590.666 -4.95327 1.09101 0
M  V30 4469 C 591.268 -6.04369 0.519812 0
M  V30 4470 N 592.445 -6.50694 0.855982 0
M  V30 4471 C 593.02 -5.75818 1.84322 0
M  V30 4472 H 595.316 -7.22964 1.12076 0
M  V30 4473 H 596.499 -5.60502 3.36589 0
M  V30 4474 H 597.982 -7.35707 4.02681 0
M  V30 4475 H 596.288 -9.41302 3.90009 0
M  V30 4476 H 596.098 -8.29056 5.99158 0
M  V30 4477 H 594.468 -8.10073 5.25882 0
M  V30 4478 H 590.732 -6.55843 -0.270373 0
M  V30 4479 H 595.31 -4.88564 3.92502 0
M  V30 4480 H 589.702 -2.80523 2.27218 0
M  V30 4481 H 591.106 -2.55848 3.34465 0
M  V30 4482 H 597.108 -6.30224 0.72668 0
M  V30 4483 P 598.966 -8.4349 2.47671 0
M  V30 4484 O 600.388 -8.94167 2.5964 0
M  V30 4485 O 598.606 -7.1704 3.19006 0
M  V30 4486 O 598.643 -8.16596 0.923387 0
M  V30 4487 C 598.483 -9.38437 0.108857 0
M  V30 4488 C 599.023 -9.08175 -1.28353 0
M  V30 4489 O 597.967 -8.44229 -1.84713 0
M  V30 4490 C 600.241 -8.18386 -1.42505 0
M  V30 4491 O 600.979 -8.3501 -2.60497 0
M  V30 4492 C 599.572 -6.80225 -1.25468 0
M  V30 4493 O 600.371 -5.81621 -1.91066 0
M  V30 4494 C 598.235 -7.02416 -1.9168 0
M  V30 4495 H 598.267 -6.6888 -2.96621 0
M  V30 4496 H 599.45 -6.53617 -0.192223 0
M  V30 4497 H 600.934 -8.36622 -0.589963 0
M  V30 4498 H 599.24 -10.0291 -1.79807 0
M  V30 4499 H 599.05 -10.2138 0.558219 0
M  V30 4500 H 597.42 -9.6579 0.0444202 0
M  V30 4501 H 600.059 -5.69556 -2.79637 0
M  V30 4502 P 601.916 -8.4349 -2.47671 0
M  V30 4503 O 603.338 -8.92593 -2.65 0
M  V30 4504 O 601.556 -7.7568 -1.19296 0
M  V30 4505 O 601.593 -7.36886 -3.63805 0
M  V30 4506 C 601.433 -7.95349 -4.982 0
M  V30 4507 C 601.973 -6.94612 -5.98974 0
M  V30 4508 O 600.917 -6.10347 -6.11815 0
M  V30 4509 C 603.191 -6.11426 -5.62335 0
M  V30 4510 O 603.929 -5.6162 -6.70584 0
M  V30 4511 C 602.522 -5.04409 -4.73308 0
M  V30 4512 O 603.321 -3.85992 -4.75183 0
M  V30 4513 C 601.185 -4.8728 -5.41006 0
M  V30 4514 H 601.217 -4.02333 -6.11157 0
M  V30 4515 H 602.4 -5.39466 -3.69543 0
M  V30 4516 H 603.884 -6.71916 -5.01943 0
M  V30 4517 H 602.19 -7.4649 -6.93477 0
M  V30 4518 H 602 -8.89416 -5.05237 0
M  V30 4519 H 600.37 -8.14876 -5.18409 0
M  V30 4520 H 603.009 -3.27957 -5.4317 0
M  V30 4521 P 604.867 -5.75688 -6.64379 0
M  V30 4522 O 606.289 -6.07627 -7.05504 0
M  V30 4523 O 604.507 -5.88047 -5.19722 0
M  V30 4524 O 604.544 -4.2322 -7.04443 0
M  V30 4525 C 604.384 -3.99743 -8.4911 0
M  V30 4526 C 604.924 -2.60516 -8.79425 0
M  V30 4527 O 603.868 -1.82684 -8.4467 0
M  V30 4528 C 606.142 -2.10343 -8.03628 0
M  V30 4529 O 606.88 -1.09919 -8.67766 0
M  V30 4530 C 605.473 -1.68446 -6.70876 0
M  V30 4531 O 606.272 -0.678137 -6.08433 0
M  V30 4532 C 604.136 -1.17436 -7.18567 0
M  V30 4533 H 604.168 -0.0804732 -7.31656 0
M  V30 4534 H 605.351 -2.54037 -6.02537 0
M  V30 4535 H 606.835 -2.93881 -7.85526 0
M  V30 4536 H 605.141 -2.53065 -9.86973 0
M  V30 4537 H 604.951 -4.75072 -9.05887 0
M  V30 4538 H 603.321 -4.05244 -8.76668 0
M  V30 4539 H 605.96 0.177647 -6.34251 0
M  V30 4540 P 607.817 -1.25109 -8.70152 0
M  V30 4541 O 609.239 -1.29744 -9.22016 0
M  V30 4542 O 607.457 -2.13714 -7.55141 0
M  V30 4543 O 607.494 0.248149 -8.21425 0
M  V30 4544 C 607.334 1.22779 -9.30434 0
M  V30 4545 C 607.874 2.56293 -8.80664 0
M  V30 4546 O 606.818 3.02979 -8.09349 0
M  V30 4547 C 609.092 2.57523 -7.89775 0
M  V30 4548 O 609.83 3.7668 -7.89438 0
M  V30 4549 C 608.423 2.20997 -6.55446 0
M  V30 4550 O 609.222 2.71895 -5.48509 0
M  V30 4551 C 607.086 2.89693 -6.67988 0
M  V30 4552 H 607.118 3.88793 -6.19859 0
M  V30 4553 H 608.301 1.12046 -6.44229 0
M  V30 4554 H 609.785 1.7746 -8.19711 0
M  V30 4555 H 608.091 3.20706 -9.67112 0
M  V30 4556 H 607.901 0.901032 -10.1892 0
M  V30 4557 H 606.271 1.33049 -9.56592 0
M  V30 4558 H 608.91 3.57847 -5.23962 0
M  V30 4559 P 610.768 3.65191 -7.99657 0
M  V30 4560 O 612.19 3.89332 -8.45794 0
M  V30 4561 O 610.408 2.28472 -7.50807 0
M  V30 4562 O 610.445 4.64972 -6.77611 0
M  V30 4563 C 610.285 6.06319 -7.16352 0
M  V30 4564 C 610.825 6.91731 -6.02299 0
M  V30 4565 O 609.769 6.92449 -5.17064 0
M  V30 4566 C 612.043 6.43627 -5.25174 0
M  V30 4567 O 612.781 7.43686 -4.60469 0
M  V30 4568 C 611.374 5.40275 -4.31916 0
M  V30 4569 O 612.173 5.25279 -3.14438 0
M  V30 4570 C 610.037 6.04847 -4.05327 0
M  V30 4571 H 610.069 6.62195 -3.11261 0
M  V30 4572 H 611.252 4.42556 -4.81383 0
M  V30 4573 H 612.736 5.92458 -5.93643 0
M  V30 4574 H 611.042 7.92655 -6.402 0
M  V30 4575 H 610.852 6.26671 -8.0846 0
M  V30 4576 H 609.222 6.29101 -7.32804 0
M  V30 4577 H 611.861 5.84315 -2.47318 0
M  V30 4578 P 613.719 7.39546 -4.75277 0
M  V30 4579 O 615.141 7.84798 -5.01039 0
M  V30 4580 O 613.359 5.9812 -5.08098 0
M  V30 4581 O 613.396 7.57503 -3.1866 0
M  V30 4582 C 613.236 8.97357 -2.74833 0
M  V30 4583 C 613.776 9.07548 -1.32709 0
M  V30 4584 O 612.72 8.62072 -0.606159 0
M  V30 4585 C 614.994 8.25383 -0.938334 0
M  V30 4586 O 615.732 8.74577 0.146954 0
M  V30 4587 C 614.325 6.8802 -0.712559 0
M  V30 4588 O 615.124 6.1189 0.194655 0
M  V30 4589 C 612.988 7.27966 -0.139777 0
M  V30 4590 H 613.02 7.25354 0.961601 0
M  V30 4591 H 614.203 6.32557 -1.65702 0
M  V30 4592 H 615.687 8.19355 -1.79097 0
M  V30 4593 H 613.993 10.1294 -1.10029 0
M  V30 4594 H 613.803 9.64276 -3.41316 0
M  V30 4595 H 612.173 9.25417 -2.76357 0
M  V30 4596 H 614.812 6.25267 1.07847 0
M  V30 4597 P 616.669 8.791 4.14417e-12 0
M  V30 4598 O 618.091 9.31096 0.027933 0
M  V30 4599 O 616.309 7.77869 -1.04071 0
M  V30 4600 O 616.346 8.09533 1.41463 0
M  V30 4601 C 616.186 9.0349 2.53943 0
M  V30 4602 C 616.726 8.35226 3.79016 0
M  V30 4603 O 615.67 7.57992 4.15078 0
M  V30 4604 C 617.944 7.45087 3.67298 0
M  V30 4605 O 618.682 7.27796 4.85194 0
M  V30 4606 C 617.275 6.17323 3.12027 0
M  V30 4607 O 618.074 5.04231 3.47188 0
M  V30 4608 C 615.938 6.19961 3.81809 0
M  V30 4609 H 615.97 5.58218 4.73051 0
M  V30 4610 H 617.153 6.21726 2.02589 0
M  V30 4611 H 618.637 7.86112 2.9231 0
M  V30 4612 H 616.943 9.11627 4.55076 0
M  V30 4613 H 616.753 9.9573 2.34194 0
M  V30 4614 H 615.123 9.2792 2.67832 0
M  V30 4615 H 617.762 4.67702 4.28772 0
M  V30 4616 P 619.62 7.39546 4.75277 0
M  V30 4617 O 621.042 7.81777 5.05738 0
M  V30 4618 O 619.26 7.1065 3.32998 0
M  V30 4619 O 619.297 6.04542 5.56673 0
M  V30 4620 C 619.137 6.22772 7.02095 0
M  V30 4621 C 619.677 4.97725 7.70406 0
M  V30 4622 O 618.621 4.13256 7.58987 0
M  V30 4623 C 620.895 4.28231 7.11815 0
M  V30 4624 O 621.633 3.49945 8.01648 0
M  V30 4625 C 620.226 3.5063 5.96244 0
M  V30 4626 O 621.025 2.36482 5.64681 0
M  V30 4627 C 618.889 3.15122 6.56374 0
M  V30 4628 H 618.921 2.13853 6.99751 0
M  V30 4629 H 620.104 4.13501 5.06559 0
M  V30 4630 H 621.588 5.03285 6.70911 0
M  V30 4631 H 619.894 5.20877 8.75697 0
M  V30 4632 H 619.704 7.11046 7.35349 0
M  V30 4633 H 618.074 6.35815 7.26986 0
M  V30 4634 H 620.713 1.61644 6.13565 0
M  V30 4635 P 622.57 3.65191 7.99657 0
M  V30 4636 O 623.992 3.8425 8.48115 0
M  V30 4637 O 622.21 4.17805 6.64342 0
M  V30 4638 O 622.247 2.07613 7.95143 0
M  V30 4639 C 622.087 1.44328 9.27336 0
M  V30 4640 C 622.627 0.0220036 9.17197 0
M  V30 4641 O 621.571 -0.626867 8.61923 0
M  V30 4642 C 623.845 -0.24586 8.30336 0
M  V30 4643 O 624.583 -1.39011 8.63583 0
M  V30 4644 C 623.176 -0.273849 6.91158 0
M  V30 4645 O 623.975 -1.06348 6.02892 0
M  V30 4646 C 621.839 -0.897649 7.22545 0
M  V30 4647 H 621.871 -1.9841 7.04286 0
M  V30 4648 H 623.054 0.739928 6.497 0
M  V30 4649 H 624.538 0.60668 8.36503 0
M  V30 4650 H 622.844 -0.352479 10.1829 0
M  V30 4651 H 622.654 2.00611 10.0304 0
M  V30 4652 H 621.024 1.41843 9.55327 0
M  V30 4653 H 623.663 -1.95734 6.03555 0
M  V30 4654 P 625.521 -1.25109 8.70152 0
M  V30 4655 O 626.943 -1.35274 9.21221 0
M  V30 4656 O 625.161 -0.0769065 7.84762 0
M  V30 4657 O 625.198 -2.55232 7.81161 0
M  V30 4658 C 625.038 -3.79939 8.58154 0
M  V30 4659 C 625.578 -4.94023 7.72785 0
M  V30 4660 O 624.522 -5.18726 6.91205 0
M  V30 4661 C 626.796 -4.69597 6.85231 0
M  V30 4662 O 627.534 -5.83832 6.51337 0
M  V30 4663 C 626.127 -3.96706 5.66633 0
M  V30 4664 O 626.926 -4.15414 4.49689 0
M  V30 4665 C 624.79 -4.66153 5.59313 0
M  V30 4666 H 624.822 -5.47679 4.85214 0
M  V30 4667 H 626.005 -2.89008 5.86566 0
M  V30 4668 H 627.489 -4.0121 7.36511 0
M  V30 4669 H 625.795 -5.80182 8.37584 0
M  V30 4670 H 625.605 -3.73517 9.52265 0
M  V30 4671 H 623.975 -3.97163 8.80359 0
M  V30 4672 H 626.614 -4.90969 4.01921 0
M  V30 4673 P 628.471 -5.75688 6.64379 0
M  V30 4674 O 629.893 -6.11849 7.01846 0
M  V30 4675 O 628.111 -4.30744 6.56026 0
M  V30 4676 O 628.148 -6.37042 5.19165 0
M  V30 4677 C 627.988 -7.83578 5.16515 0
M  V30 4678 C 628.528 -8.33398 3.83019 0
M  V30 4679 O 627.472 -8.10074 3.01034 0
M  V30 4680 C 629.746 -7.65514 3.2257 0
M  V30 4681 O 630.484 -8.4329 2.32297 0
M  V30 4682 C 629.077 -6.40075 2.62207 0
M  V30 4683 O 629.876 -5.92589 1.53712 0
M  V30 4684 C 627.74 -6.9454 2.18503 0
M  V30 4685 H 627.772 -7.23063 1.12091 0
M  V30 4686 H 628.955 -5.6025 3.37201 0
M  V30 4687 H 630.439 -7.35707 4.02681 0
M  V30 4688 H 628.745 -9.40912 3.9095 0
M  V30 4689 H 628.555 -8.29056 5.99158 0
M  V30 4690 H 626.925 -8.10073 5.25882 0
M  V30 4691 H 629.564 -6.30324 0.726794 0
M  V30 4692 P 631.422 -8.4349 2.47671 0
M  V30 4693 O 632.844 -8.94167 2.5964 0
M  V30 4694 O 631.062 -7.1704 3.19006 0
M  V30 4695 O 631.099 -8.16596 0.923387 0
M  V30 4696 C 630.939 -9.38437 0.108857 0
M  V30 4697 C 631.479 -9.08175 -1.28353 0
M  V30 4698 O 630.423 -8.44229 -1.84713 0
M  V30 4699 C 632.697 -8.18386 -1.42505 0
M  V30 4700 O 633.435 -8.3501 -2.60497 0
M  V30 4701 C 632.028 -6.80225 -1.25468 0
M  V30 4702 O 632.827 -5.81621 -1.91066 0
M  V30 4703 C 630.691 -7.02416 -1.9168 0
M  V30 4704 H 630.723 -6.6888 -2.96621 0
M  V30 4705 H 631.906 -6.53617 -0.192223 0
M  V30 4706 H 633.39 -8.36622 -0.589963 0
M  V30 4707 H 631.696 -10.0291 -1.79807 0
M  V30 4708 H 631.506 -10.2138 0.558219 0
M  V30 4709 H 629.876 -9.6579 0.0444202 0
M  V30 4710 H 632.515 -5.69556 -2.79637 0
M  V30 4711 P 634.373 -8.4349 -2.47671 0
M  V30 4712 O 635.794 -8.92689 -2.65029 0
M  V30 4713 O 634.013 -7.7568 -1.19296 0
M  V30 4714 O 634.05 -7.36886 -3.63805 0
M  V30 4715 C 633.889 -7.95433 -4.98253 0
M  V30 4716 C 634.43 -6.94612 -5.98974 0
M  V30 4717 O 633.375 -6.10277 -6.11744 0
M  V30 4718 C 635.648 -6.11426 -5.62335 0
M  V30 4719 O 636.386 -5.6162 -6.70584 0
M  V30 4720 C 634.98 -5.04409 -4.73308 0
M  V30 4721 O 635.778 -3.86404 -4.74719 0
M  V30 4722 C 633.642 -4.8728 -5.41006 0
M  V30 4723 N 632.599 -4.65812 -4.42377 0
M  V30 4724 C 632.768 -5.09132 -3.15382 0
M  V30 4725 N 631.741 -4.84021 -2.3716 0
M  V30 4726 C 630.856 -4.18386 -3.20441 0
M  V30 4727 C 629.589 -3.6275 -2.94905 0
M  V30 4728 N 628.99 -3.65794 -1.73372 0
M  V30 4729 N 629.024 -3.05008 -4.05243 0
M  V30 4730 C 629.626 -2.98348 -5.28159 0
M  V30 4731 N 630.803 -3.48171 -5.56333 0
M  V30 4732 C 631.378 -4.06869 -4.47212 0
M  V30 4733 H 633.674 -4.02278 -6.11074 0
M  V30 4734 H 634.857 -5.39013 -3.70026 0
M  V30 4735 H 636.34 -6.71916 -5.01943 0
M  V30 4736 H 634.646 -7.45796 -6.94223 0
M  V30 4737 H 634.456 -8.89416 -5.05237 0
M  V30 4738 H 632.826 -8.14876 -5.18409 0
M  V30 4739 H 629.09 -2.47853 -6.07807 0
M  V30 4740 H 633.668 -5.59989 -2.81362 0
M  V30 4741 H 628.06 -3.23218 -1.60782 0
M  V30 4742 H 629.464 -4.10523 -0.937856 0
M  V30 4743 H 635.466 -3.27906 -5.43085 0
M  V30 4744 P 637.323 -5.75688 -6.64379 0
M  V30 4745 O 638.745 -6.07627 -7.05504 0
M  V30 4746 O 636.963 -5.88047 -5.19722 0
M  V30 4747 O 637 -4.2322 -7.04443 0
M  V30 4748 C 636.84 -3.99743 -8.4911 0
M  V30 4749 C 637.38 -2.60516 -8.79425 0
M  V30 4750 O 636.324 -1.82684 -8.4467 0
M  V30 4751 C 638.598 -2.10343 -8.03628 0
M  V30 4752 O 639.336 -1.09919 -8.67766 0
M  V30 4753 C 637.929 -1.68446 -6.70876 0
M  V30 4754 O 638.728 -0.678137 -6.08433 0
M  V30 4755 C 636.592 -1.17436 -7.18567 0
M  V30 4756 H 636.624 -0.0804732 -7.31656 0
M  V30 4757 H 637.807 -2.54037 -6.02537 0
M  V30 4758 H 639.291 -2.93881 -7.85526 0
M  V30 4759 H 637.597 -2.53065 -9.86973 0
M  V30 4760 H 637.407 -4.75072 -9.05887 0
M  V30 4761 H 635.777 -4.05244 -8.76668 0
M  V30 4762 H 638.416 0.177647 -6.34251 0
M  V30 4763 P 640.274 -1.25109 -8.70152 0
M  V30 4764 O 641.696 -1.29744 -9.22016 0
M  V30 4765 O 639.914 -2.13714 -7.55141 0
M  V30 4766 O 639.951 0.248149 -8.21425 0
M  V30 4767 C 639.791 1.22779 -9.30434 0
M  V30 4768 C 640.331 2.56293 -8.80664 0
M  V30 4769 O 639.275 3.02979 -8.09349 0
M  V30 4770 C 641.549 2.57523 -7.89775 0
M  V30 4771 O 642.287 3.7668 -7.89438 0
M  V30 4772 C 640.88 2.20997 -6.55446 0
M  V30 4773 O 641.679 2.71895 -5.48509 0
M  V30 4774 C 639.543 2.89693 -6.67988 0
M  V30 4775 H 639.575 3.88793 -6.19859 0
M  V30 4776 H 640.758 1.12046 -6.44229 0
M  V30 4777 H 642.242 1.7746 -8.19711 0
M  V30 4778 H 640.548 3.20706 -9.67112 0
M  V30 4779 H 640.358 0.901032 -10.1892 0
M  V30 4780 H 638.728 1.33049 -9.56592 0
M  V30 4781 H 641.367 3.57847 -5.23962 0
M  V30 4782 P 643.224 3.65191 -7.99657 0
M  V30 4783 O 644.646 3.89332 -8.45794 0
M  V30 4784 O 642.864 2.28472 -7.50807 0
M  V30 4785 O 642.901 4.64972 -6.77611 0
M  V30 4786 C 642.741 6.06319 -7.16352 0
M  V30 4787 C 643.281 6.91731 -6.02299 0
M  V30 4788 O 642.225 6.92449 -5.17064 0
M  V30 4789 C 644.499 6.43627 -5.25174 0
M  V30 4790 O 645.237 7.43686 -4.60469 0
M  V30 4791 C 643.83 5.40275 -4.31916 0
M  V30 4792 O 644.629 5.25279 -3.14438 0
M  V30 4793 C 642.493 6.04847 -4.05327 0
M  V30 4794 H 642.525 6.62195 -3.11261 0
M  V30 4795 H 643.708 4.42556 -4.81383 0
M  V30 4796 H 645.192 5.92458 -5.93643 0
M  V30 4797 H 643.498 7.92655 -6.402 0
M  V30 4798 H 643.308 6.26671 -8.0846 0
M  V30 4799 H 641.678 6.29101 -7.32804 0
M  V30 4800 H 644.317 5.84315 -2.47318 0
M  V30 4801 P 646.175 7.39546 -4.75277 0
M  V30 4802 O 647.597 7.84798 -5.01039 0
M  V30 4803 O 645.815 5.9812 -5.08098 0
M  V30 4804 O 645.852 7.57503 -3.1866 0
M  V30 4805 C 645.692 8.97357 -2.74833 0
M  V30 4806 C 646.232 9.07548 -1.32709 0
M  V30 4807 O 645.176 8.62072 -0.606159 0
M  V30 4808 C 647.45 8.25383 -0.938334 0
M  V30 4809 O 648.188 8.74577 0.146954 0
M  V30 4810 C 646.781 6.8802 -0.712559 0
M  V30 4811 O 647.58 6.1189 0.194655 0
M  V30 4812 C 645.444 7.27966 -0.139777 0
M  V30 4813 H 645.476 7.25354 0.961601 0
M  V30 4814 H 646.659 6.32557 -1.65702 0
M  V30 4815 H 648.143 8.19355 -1.79097 0
M  V30 4816 H 646.449 10.1294 -1.10029 0
M  V30 4817 H 646.259 9.64276 -3.41316 0
M  V30 4818 H 644.629 9.25417 -2.76357 0
M  V30 4819 H 647.268 6.25267 1.07847 0
M  V30 4820 P 649.125 8.791 4.45433e-12 0
M  V30 4821 O 650.547 9.31096 0.027933 0
M  V30 4822 O 648.765 7.77869 -1.04071 0
M  V30 4823 O 648.802 8.09533 1.41463 0
M  V30 4824 C 648.642 9.0349 2.53943 0
M  V30 4825 C 649.182 8.35226 3.79016 0
M  V30 4826 O 648.126 7.57992 4.15078 0
M  V30 4827 C 650.4 7.45087 3.67298 0
M  V30 4828 O 651.138 7.27796 4.85194 0
M  V30 4829 C 649.731 6.17323 3.12027 0
M  V30 4830 O 650.53 5.04231 3.47188 0
M  V30 4831 C 648.394 6.19961 3.81809 0
M  V30 4832 H 648.426 5.58218 4.73051 0
M  V30 4833 H 649.609 6.21726 2.02589 0
M  V30 4834 H 651.093 7.86112 2.9231 0
M  V30 4835 H 649.399 9.11627 4.55076 0
M  V30 4836 H 649.209 9.9573 2.34194 0
M  V30 4837 H 647.579 9.2792 2.67832 0
M  V30 4838 H 650.218 4.67702 4.28772 0
M  V30 4839 P 652.076 7.39546 4.75277 0
M  V30 4840 O 653.498 7.81777 5.05738 0
M  V30 4841 O 651.716 7.1065 3.32998 0
M  V30 4842 O 651.753 6.04542 5.56673 0
M  V30 4843 C 651.593 6.22772 7.02095 0
M  V30 4844 C 652.133 4.97725 7.70406 0
M  V30 4845 O 651.077 4.13256 7.58987 0
M  V30 4846 C 653.351 4.28231 7.11815 0
M  V30 4847 O 654.089 3.49945 8.01648 0
M  V30 4848 C 652.682 3.5063 5.96244 0
M  V30 4849 O 653.481 2.36482 5.64681 0
M  V30 4850 C 651.345 3.15122 6.56374 0
M  V30 4851 H 651.377 2.13853 6.99751 0
M  V30 4852 H 652.56 4.13501 5.06559 0
M  V30 4853 H 654.044 5.03285 6.70911 0
M  V30 4854 H 652.35 5.20877 8.75697 0
M  V30 4855 H 652.16 7.11046 7.35349 0
M  V30 4856 H 650.53 6.35815 7.26986 0
M  V30 4857 H 653.169 1.61644 6.13565 0
M  V30 4858 P 655.027 3.65191 7.99657 0
M  V30 4859 O 656.449 3.8425 8.48115 0
M  V30 4860 O 654.667 4.17805 6.64342 0
M  V30 4861 O 654.704 2.07613 7.95143 0
M  V30 4862 C 654.544 1.44328 9.27336 0
M  V30 4863 C 655.084 0.0220036 9.17197 0
M  V30 4864 O 654.028 -0.626867 8.61923 0
M  V30 4865 C 656.302 -0.24586 8.30336 0
M  V30 4866 O 657.04 -1.39011 8.63583 0
M  V30 4867 C 655.633 -0.273849 6.91158 0
M  V30 4868 O 656.432 -1.06348 6.02892 0
M  V30 4869 C 654.296 -0.897649 7.22545 0
M  V30 4870 H 654.328 -1.9841 7.04286 0
M  V30 4871 H 655.511 0.739928 6.497 0
M  V30 4872 H 656.995 0.60668 8.36503 0
M  V30 4873 H 655.301 -0.352479 10.1829 0
M  V30 4874 H 655.111 2.00611 10.0304 0
M  V30 4875 H 653.481 1.41843 9.55327 0
M  V30 4876 H 656.12 -1.95734 6.03555 0
M  V30 4877 P 657.977 -1.25109 8.70152 0
M  V30 4878 O 659.399 -1.35303 9.21419 0
M  V30 4879 O 657.617 -0.0769065 7.84762 0
M  V30 4880 O 657.654 -2.55232 7.81161 0
M  V30 4881 C 657.494 -3.79939 8.58154 0
M  V30 4882 C 658.034 -4.93969 7.72701 0
M  V30 4883 O 656.979 -5.18726 6.91205 0
M  V30 4884 C 659.252 -4.69597 6.85231 0
M  V30 4885 O 659.99 -5.83832 6.51337 0
M  V30 4886 C 658.584 -3.96706 5.66633 0
M  V30 4887 O 659.382 -4.15346 4.49615 0
M  V30 4888 C 657.246 -4.66153 5.59313 0
M  V30 4889 N 656.203 -3.71582 5.24027 0
M  V30 4890 C 656.265 -2.46018 5.67902 0
M  V30 4891 N 655.22 -1.74868 5.24518 0
M  V30 4892 C 654.486 -2.61333 4.54528 0
M  V30 4893 C 653.18 -2.46162 3.95441 0
M  V30 4894 O 652.447 -1.46013 3.94122 0
M  V30 4895 N 652.75 -3.59334 3.34752 0
M  V30 4896 C 653.499 -4.79605 3.3023 0
M  V30 4897 N 652.902 -5.82109 2.6065 0
M  V30 4898 N 654.652 -4.97402 3.8843 0
M  V30 4899 C 655.109 -3.86258 4.50476 0
M  V30 4900 H 657.278 -5.47679 4.85214 0
M  V30 4901 H 658.461 -2.88964 5.86476 0
M  V30 4902 H 659.946 -4.01947 7.36109 0
M  V30 4903 H 658.251 -5.80182 8.37584 0
M  V30 4904 H 658.061 -3.73517 9.52265 0
M  V30 4905 H 656.43 -3.97163 8.80359 0
M  V30 4906 H 651.854 -3.5825 2.90294 0
M  V30 4907 H 657.061 -2.06161 6.30974 0
M  V30 4908 H 651.991 -5.66979 2.15354 0
M  V30 4909 H 653.367 -6.73686 2.54344 0
M  V30 4910 H 659.071 -4.90891 4.01857 0
M  V30 4911 P 660.928 -5.75688 6.64379 0
M  V30 4912 O 662.329 -6.11991 7.09136 0
M  V30 4913 O 660.55 -4.30899 6.62018 0
M  V30 4914 O 660.605 -6.36965 5.19102 0
M  V30 4915 C 660.445 -7.83578 5.16515 0
M  V30 4916 C 660.985 -8.33307 3.82977 0
M  V30 4917 O 659.929 -8.0998 3.00999 0
M  V30 4918 C 662.202 -7.65514 3.2257 0
M  V30 4919 O 662.941 -8.4329 2.32297 0
M  V30 4920 C 661.535 -6.40075 2.62207 0
M  V30 4921 O 662.333 -5.92492 1.53687 0
M  V30 4922 C 660.197 -6.9454 2.18503 0
M  V30 4923 N 659.154 -5.95905 2.39948 0
M  V30 4924 C 658.119 -5.89764 1.49837 0
M  V30 4925 O 658.158 -6.64088 0.490975 0
M  V30 4926 N 657.107 -5.02821 1.70992 0
M  V30 4927 C 657.155 -4.21498 2.77236 0
M  V30 4928 N 656.145 -3.37475 2.96465 0
M  V30 4929 C 658.251 -4.23389 3.68205 0
M  V30 4930 C 659.217 -5.12792 3.46171 0
M  V30 4931 H 660.229 -7.22964 1.12076 0
M  V30 4932 H 661.412 -5.60502 3.36589 0
M  V30 4933 H 662.896 -7.36197 4.01993 0
M  V30 4934 H 661.202 -9.41302 3.90009 0
M  V30 4935 H 661.011 -8.29056 5.99158 0
M  V30 4936 H 659.381 -8.09989 5.25828 0
M  V30 4937 H 658.299 -3.54747 4.52399 0
M  V30 4938 H 660.063 -5.18551 4.1489 0
M  V30 4939 H 655.355 -3.36058 2.30304 0
M  V30 4940 H 656.15 -2.73846 3.77171 0
M  V30 4941 H 662.117 -6.40705 0.751752 0
M  V30 4942 P 663.878 -8.4349 2.47671 0
M  V30 4943 O 665.3 -8.94167 2.5964 0
M  V30 4944 O 663.518 -7.1704 3.19006 0
M  V30 4945 O 663.555 -8.16596 0.923387 0
M  V30 4946 C 663.395 -9.38437 0.108857 0
M  V30 4947 C 663.935 -9.08175 -1.28353 0
M  V30 4948 O 662.879 -8.44229 -1.84713 0
M  V30 4949 C 665.153 -8.18386 -1.42505 0
M  V30 4950 O 665.891 -8.3501 -2.60497 0
M  V30 4951 C 664.484 -6.80225 -1.25468 0
M  V30 4952 O 665.283 -5.81621 -1.91066 0
M  V30 4953 C 663.147 -7.02416 -1.9168 0
M  V30 4954 H 663.179 -6.6888 -2.96621 0
M  V30 4955 H 664.362 -6.53617 -0.192223 0
M  V30 4956 H 665.846 -8.36622 -0.589963 0
M  V30 4957 H 664.152 -10.0291 -1.79807 0
M  V30 4958 H 663.962 -10.2138 0.558219 0
M  V30 4959 H 662.332 -9.6579 0.0444202 0
M  V30 4960 H 664.971 -5.69556 -2.79637 0
M  V30 4961 P 666.829 -8.4349 -2.47671 0
M  V30 4962 O 668.251 -8.92593 -2.65 0
M  V30 4963 O 666.469 -7.7568 -1.19296 0
M  V30 4964 O 666.506 -7.36886 -3.63805 0
M  V30 4965 C 666.346 -7.95349 -4.982 0
M  V30 4966 C 666.886 -6.94612 -5.98974 0
M  V30 4967 O 665.83 -6.10347 -6.11815 0
M  V30 4968 C 668.104 -6.11426 -5.62335 0
M  V30 4969 O 668.842 -5.6162 -6.70584 0
M  V30 4970 C 667.435 -5.04409 -4.73308 0
M  V30 4971 O 668.234 -3.85992 -4.75183 0
M  V30 4972 C 666.098 -4.8728 -5.41006 0
M  V30 4973 H 666.13 -4.02333 -6.11157 0
M  V30 4974 H 667.313 -5.39466 -3.69543 0
M  V30 4975 H 668.797 -6.71916 -5.01943 0
M  V30 4976 H 667.103 -7.4649 -6.93477 0
M  V30 4977 H 666.913 -8.89416 -5.05237 0
M  V30 4978 H 665.283 -8.14876 -5.18409 0
M  V30 4979 H 667.922 -3.27957 -5.4317 0
M  V30 4980 P 669.779 -5.75688 -6.64379 0
M  V30 4981 O 671.2 -6.07692 -7.0558 0
M  V30 4982 O 669.419 -5.88047 -5.19722 0
M  V30 4983 O 669.456 -4.2322 -7.04443 0
M  V30 4984 C 669.295 -3.99785 -8.49201 0
M  V30 4985 C 669.836 -2.60516 -8.79425 0
M  V30 4986 O 668.781 -1.82663 -8.44573 0
M  V30 4987 C 671.054 -2.10343 -8.03628 0
M  V30 4988 O 671.792 -1.09919 -8.67766 0
M  V30 4989 C 670.386 -1.68446 -6.70876 0
M  V30 4990 O 671.184 -0.684109 -6.08265 0
M  V30 4991 C 669.048 -1.17436 -7.18567 0
M  V30 4992 N 668.005 -1.52699 -6.23988 0
M  V30 4993 C 668.174 -2.578 -5.40574 0
M  V30 4994 N 667.147 -2.78966 -4.61193 0
M  V30 4995 C 666.262 -1.78725 -4.95769 0
M  V30 4996 C 664.995 -1.45727 -4.44207 0
M  V30 4997 N 664.43 -0.374977 -5.05812 0
M  V30 4998 C 665.032 0.345585 -6.05615 0
M  V30 4999 N 666.209 0.0787651 -6.56253 0
M  V30 5000 C 666.784 -1.00499 -5.96189 0
M  V30 5001 H 670.263 -2.53396 -6.02698 0
M  V30 5002 H 671.746 -2.93881 -7.85526 0
M  V30 5003 H 670.052 -2.52078 -9.87225 0
M  V30 5004 H 669.862 -4.75072 -9.05887 0
M  V30 5005 H 668.232 -4.05244 -8.76668 0
M  V30 5006 H 669.074 -3.18977 -5.3945 0
M  V30 5007 H 670.872 0.177619 -6.34151 0
M  V30 5008 P 672.73 -1.25109 -8.70152 0
M  V30 5009 O 674.152 -1.29744 -9.22016 0
M  V30 5010 O 672.37 -2.13714 -7.55141 0
M  V30 5011 O 672.407 0.248149 -8.21425 0
M  V30 5012 C 672.247 1.22779 -9.30434 0
M  V30 5013 C 672.787 2.56293 -8.80664 0
M  V30 5014 O 671.731 3.02979 -8.09349 0
M  V30 5015 C 674.005 2.57523 -7.89775 0
M  V30 5016 O 674.743 3.7668 -7.89438 0
M  V30 5017 C 673.336 2.20997 -6.55446 0
M  V30 5018 O 674.135 2.71895 -5.48509 0
M  V30 5019 C 671.999 2.89693 -6.67988 0
M  V30 5020 H 672.031 3.88793 -6.19859 0
M  V30 5021 H 673.214 1.12046 -6.44229 0
M  V30 5022 H 674.698 1.7746 -8.19711 0
M  V30 5023 H 673.004 3.20706 -9.67112 0
M  V30 5024 H 672.814 0.901032 -10.1892 0
M  V30 5025 H 671.184 1.33049 -9.56592 0
M  V30 5026 H 673.823 3.57847 -5.23962 0
M  V30 5027 P 675.681 3.65191 -7.99657 0
M  V30 5028 O 677.103 3.89416 -8.45976 0
M  V30 5029 O 675.321 2.28472 -7.50807 0
M  V30 5030 O 675.358 4.64972 -6.77611 0
M  V30 5031 C 675.198 6.06319 -7.16352 0
M  V30 5032 C 675.738 6.91655 -6.02234 0
M  V30 5033 O 674.683 6.92449 -5.17064 0
M  V30 5034 C 676.956 6.43627 -5.25174 0
M  V30 5035 O 677.694 7.43686 -4.60469 0
M  V30 5036 C 676.288 5.40275 -4.31916 0
M  V30 5037 O 677.086 5.25193 -3.14386 0
M  V30 5038 C 674.95 6.04847 -4.05327 0
M  V30 5039 N 673.907 5.04166 -3.98114 0
M  V30 5040 C 673.969 3.96049 -4.75587 0
M  V30 5041 N 672.924 3.15559 -4.54006 0
M  V30 5042 C 672.19 3.78802 -3.62491 0
M  V30 5043 C 670.884 3.476 -3.10071 0
M  V30 5044 O 670.151 2.51136 -3.37021 0
M  V30 5045 N 670.454 4.39088 -2.19956 0
M  V30 5046 C 671.203 5.53215 -1.81733 0
M  V30 5047 N 670.606 6.31963 -0.860928 0
M  V30 5048 N 672.356 5.86688 -2.32562 0
M  V30 5049 C 672.813 4.97525 -3.23407 0
M  V30 5050 H 674.982 6.62195 -3.11261 0
M  V30 5051 H 676.165 4.42488 -4.8131 0
M  V30 5052 H 677.65 5.93051 -5.9305 0
M  V30 5053 H 675.955 7.92655 -6.402 0
M  V30 5054 H 675.765 6.26671 -8.0846 0
M  V30 5055 H 674.134 6.29101 -7.32804 0
M  V30 5056 H 669.558 4.25523 -1.77604 0
M  V30 5057 H 674.765 3.75576 -5.47333 0
M  V30 5058 H 669.695 6.04684 -0.468946 0
M  V30 5059 H 671.071 7.18054 -0.542422 0
M  V30 5060 H 676.775 5.84223 -2.47279 0
M  V30 5061 P 678.631 7.39546 -4.75277 0
M  V30 5062 O 680.052 7.84882 -5.01092 0
M  V30 5063 O 678.271 5.9812 -5.08098 0
M  V30 5064 O 678.308 7.57503 -3.1866 0
M  V30 5065 C 678.147 8.97452 -2.74862 0
M  V30 5066 C 678.688 9.07548 -1.32709 0
M  V30 5067 O 677.633 8.61972 -0.606089 0
M  V30 5068 C 679.906 8.25383 -0.938334 0
M  V30 5069 O 680.644 8.74577 0.146954 0
M  V30 5070 C 679.238 6.8802 -0.712559 0
M  V30 5071 O 680.036 6.1181 0.188505 0
M  V30 5072 C 677.9 7.27966 -0.139777 0
M  V30 5073 N 676.857 6.39368 -0.623421 0
M  V30 5074 C 677.026 5.71761 -1.78245 0
M  V30 5075 N 675.999 4.962 -2.10491 0
M  V30 5076 C 675.114 5.16158 -1.0635 0
M  V30 5077 C 673.847 4.60425 -0.810266 0
M  V30 5078 N 673.248 3.7057 -1.62914 0
M  V30 5079 N 673.282 5.06 0.348685 0
M  V30 5080 C 673.884 5.94532 1.20395 0
M  V30 5081 N 675.061 6.48452 1.01191 0
M  V30 5082 C 675.636 6.04423 -0.146291 0
M  V30 5083 H 677.932 7.25255 0.961469 0
M  V30 5084 H 679.115 6.32625 -1.65044 0
M  V30 5085 H 680.598 8.19355 -1.79097 0
M  V30 5086 H 678.904 10.1305 -1.09016 0
M  V30 5087 H 678.714 9.64276 -3.41316 0
M  V30 5088 H 677.084 9.25417 -2.76357 0
M  V30 5089 H 673.348 6.21659 2.10714 0
M  V30 5090 H 677.926 5.79354 -2.38959 0
M  V30 5091 H 672.318 3.33174 -1.38982 0
M  V30 5092 H 673.722 3.39714 -2.48836 0
M  V30 5093 H 679.724 6.25169 1.0783 0
M  V30 5094 P 681.582 8.791 4.7645e-12 0
M  V30 5095 O 683.004 9.31096 0.027933 0
M  V30 5096 O 681.222 7.77869 -1.04071 0
M  V30 5097 O 681.259 8.09533 1.41463 0
M  V30 5098 C 681.099 9.0349 2.53943 0
M  V30 5099 C 681.639 8.35226 3.79016 0
M  V30 5100 O 680.583 7.57992 4.15078 0
M  V30 5101 C 682.857 7.45087 3.67298 0
M  V30 5102 O 683.595 7.27796 4.85194 0
M  V30 5103 C 682.188 6.17323 3.12027 0
M  V30 5104 O 682.987 5.04231 3.47188 0
M  V30 5105 C 680.851 6.19961 3.81809 0
M  V30 5106 H 680.883 5.58218 4.73051 0
M  V30 5107 H 682.066 6.21726 2.02589 0
M  V30 5108 H 683.55 7.86112 2.9231 0
M  V30 5109 H 681.856 9.11627 4.55076 0
M  V30 5110 H 681.666 9.9573 2.34194 0
M  V30 5111 H 680.036 9.2792 2.67832 0
M  V30 5112 H 682.675 4.67702 4.28772 0
M  V30 5113 P 684.532 7.39546 4.75277 0
M  V30 5114 O 685.954 7.81777 5.05738 0
M  V30 5115 O 684.172 7.1065 3.32998 0
M  V30 5116 O 684.209 6.04542 5.56673 0
M  V30 5117 C 684.049 6.22772 7.02095 0
M  V30 5118 C 684.589 4.97725 7.70406 0
M  V30 5119 O 683.533 4.13256 7.58987 0
M  V30 5120 C 685.807 4.28231 7.11815 0
M  V30 5121 O 686.545 3.49945 8.01648 0
M  V30 5122 C 685.138 3.5063 5.96244 0
M  V30 5123 O 685.937 2.36482 5.64681 0
M  V30 5124 C 683.801 3.15122 6.56374 0
M  V30 5125 H 683.833 2.13853 6.99751 0
M  V30 5126 H 685.016 4.13501 5.06559 0
M  V30 5127 H 686.5 5.03285 6.70911 0
M  V30 5128 H 684.806 5.20877 8.75697 0
M  V30 5129 H 684.616 7.11046 7.35349 0
M  V30 5130 H 682.986 6.35815 7.26986 0
M  V30 5131 H 685.625 1.61644 6.13565 0
M  V30 5132 P 687.483 3.65191 7.99657 0
M  V30 5133 O 688.905 3.8425 8.48115 0
M  V30 5134 O 687.123 4.17805 6.64342 0
M  V30 5135 O 687.16 2.07613 7.95143 0
M  V30 5136 C 687 1.44328 9.27336 0
M  V30 5137 C 687.54 0.0220036 9.17197 0
M  V30 5138 O 686.484 -0.626867 8.61923 0
M  V30 5139 C 688.758 -0.24586 8.30336 0
M  V30 5140 O 689.496 -1.39011 8.63583 0
M  V30 5141 C 688.089 -0.273849 6.91158 0
M  V30 5142 O 688.888 -1.06348 6.02892 0
M  V30 5143 C 686.752 -0.897649 7.22545 0
M  V30 5144 H 686.784 -1.9841 7.04286 0
M  V30 5145 H 687.967 0.739928 6.497 0
M  V30 5146 H 689.451 0.60668 8.36503 0
M  V30 5147 H 687.757 -0.352479 10.1829 0
M  V30 5148 H 687.567 2.00611 10.0304 0
M  V30 5149 H 685.937 1.41843 9.55327 0
M  V30 5150 H 688.576 -1.95734 6.03555 0
M  V30 5151 P 690.433 -1.25109 8.70152 0
M  V30 5152 O 691.855 -1.35274 9.21221 0
M  V30 5153 O 690.073 -0.0769065 7.84762 0
M  V30 5154 O 690.11 -2.55232 7.81161 0
M  V30 5155 C 689.95 -3.79939 8.58154 0
M  V30 5156 C 690.49 -4.94023 7.72785 0
M  V30 5157 O 689.434 -5.18726 6.91205 0
M  V30 5158 C 691.708 -4.69597 6.85231 0
M  V30 5159 O 692.446 -5.83832 6.51337 0
M  V30 5160 C 691.039 -3.96706 5.66633 0
M  V30 5161 O 691.838 -4.15414 4.49689 0
M  V30 5162 C 689.702 -4.66153 5.59313 0
M  V30 5163 H 689.734 -5.47679 4.85214 0
M  V30 5164 H 690.917 -2.89008 5.86566 0
M  V30 5165 H 692.401 -4.0121 7.36511 0
M  V30 5166 H 690.707 -5.80182 8.37584 0
M  V30 5167 H 690.517 -3.73517 9.52265 0
M  V30 5168 H 688.887 -3.97163 8.80359 0
M  V30 5169 H 691.526 -4.90969 4.01921 0
M  V30 5170 P 693.384 -5.75688 6.64379 0
M  V30 5171 O 694.806 -6.11849 7.01846 0
M  V30 5172 O 693.024 -4.30744 6.56026 0
M  V30 5173 O 693.061 -6.37042 5.19165 0
M  V30 5174 C 692.901 -7.83578 5.16515 0
M  V30 5175 C 693.441 -8.33398 3.83019 0
M  V30 5176 O 692.385 -8.10074 3.01034 0
M  V30 5177 C 694.659 -7.65514 3.2257 0
M  V30 5178 O 695.397 -8.4329 2.32297 0
M  V30 5179 C 693.99 -6.40075 2.62207 0
M  V30 5180 O 694.789 -5.92589 1.53712 0
M  V30 5181 C 692.653 -6.9454 2.18503 0
M  V30 5182 H 692.685 -7.23063 1.12091 0
M  V30 5183 H 693.868 -5.6025 3.37201 0
M  V30 5184 H 695.352 -7.35707 4.02681 0
M  V30 5185 H 693.658 -9.40912 3.9095 0
M  V30 5186 H 693.468 -8.29056 5.99158 0
M  V30 5187 H 691.838 -8.10073 5.25882 0
M  V30 5188 H 694.477 -6.30324 0.726794 0
M  V30 5189 P 696.335 -8.4349 2.47671 0
M  V30 5190 O 697.736 -8.98227 2.65696 0
M  V30 5191 O 695.957 -7.20409 3.23964 0
M  V30 5192 O 696.012 -8.16496 0.923275 0
M  V30 5193 C 695.852 -9.38437 0.108857 0
M  V30 5194 C 696.392 -9.08076 -1.28339 0
M  V30 5195 O 695.336 -8.44131 -1.84692 0
M  V30 5196 C 697.609 -8.18386 -1.42505 0
M  V30 5197 O 698.348 -8.3501 -2.60497 0
M  V30 5198 C 696.942 -6.80225 -1.25468 0
M  V30 5199 O 697.74 -5.81526 -1.91035 0
M  V30 5200 C 695.604 -7.02416 -1.9168 0
M  V30 5201 N 694.561 -6.31033 -1.20314 0
M  V30 5202 C 693.526 -5.77149 -1.928 0
M  V30 5203 O 693.565 -5.8521 -3.17729 0
M  V30 5204 N 692.514 -5.15445 -1.27997 0
M  V30 5205 C 692.562 -5.04472 0.0534726 0
M  V30 5206 C 693.658 -5.55244 0.808522 0
M  V30 5207 C 694.624 -6.18542 0.13981 0
M  V30 5208 H 695.636 -6.68789 -2.9658 0
M  V30 5209 H 696.819 -6.53498 -0.198729 0
M  V30 5210 H 698.303 -8.36663 -0.5984 0
M  V30 5211 H 696.609 -10.0273 -1.8081 0
M  V30 5212 H 696.418 -10.2138 0.558219 0
M  V30 5213 H 694.788 -9.6569 0.0444156 0
M  V30 5214 H 693.706 -5.43017 1.88792 0
M  V30 5215 H 695.47 -6.60539 0.686773 0
M  V30 5216 H 697.524 -5.79638 -2.8315 0
M  V30 5217 P 699.285 -8.4349 -2.47671 0
M  V30 5218 O 700.707 -8.92593 -2.65 0
M  V30 5219 O 698.925 -7.7568 -1.19296 0
M  V30 5220 O 698.962 -7.36886 -3.63805 0
M  V30 5221 C 698.802 -7.95349 -4.982 0
M  V30 5222 C 699.342 -6.94612 -5.98974 0
M  V30 5223 O 698.286 -6.10347 -6.11815 0
M  V30 5224 C 700.56 -6.11426 -5.62335 0
M  V30 5225 O 701.298 -5.6162 -6.70584 0
M  V30 5226 C 699.891 -5.04409 -4.73308 0
M  V30 5227 O 700.69 -3.85992 -4.75183 0
M  V30 5228 C 698.554 -4.8728 -5.41006 0
M  V30 5229 H 698.586 -4.02333 -6.11157 0
M  V30 5230 H 699.769 -5.39466 -3.69543 0
M  V30 5231 H 701.253 -6.71916 -5.01943 0
M  V30 5232 H 699.559 -7.4649 -6.93477 0
M  V30 5233 H 699.369 -8.89416 -5.05237 0
M  V30 5234 H 697.739 -8.14876 -5.18409 0
M  V30 5235 H 700.378 -3.27957 -5.4317 0
M  V30 5236 P 702.236 -5.75688 -6.64379 0
M  V30 5237 O 703.657 -6.07692 -7.0558 0
M  V30 5238 O 701.876 -5.88047 -5.19722 0
M  V30 5239 O 701.913 -4.2322 -7.04443 0
M  V30 5240 C 701.752 -3.99785 -8.49201 0
M  V30 5241 C 702.293 -2.60516 -8.79425 0
M  V30 5242 O 701.238 -1.82663 -8.44573 0
M  V30 5243 C 703.511 -2.10343 -8.03628 0
M  V30 5244 O 704.249 -1.09919 -8.67766 0
M  V30 5245 C 702.843 -1.68446 -6.70876 0
M  V30 5246 O 703.641 -0.684109 -6.08265 0
M  V30 5247 C 701.505 -1.17436 -7.18567 0
M  V30 5248 N 700.462 -1.52699 -6.23988 0
M  V30 5249 C 700.631 -2.578 -5.40574 0
M  V30 5250 N 699.604 -2.78966 -4.61193 0
M  V30 5251 C 698.719 -1.78725 -4.95769 0
M  V30 5252 C 697.452 -1.45727 -4.44207 0
M  V30 5253 N 696.887 -0.374977 -5.05812 0
M  V30 5254 C 697.489 0.345585 -6.05615 0
M  V30 5255 N 698.666 0.0787651 -6.56253 0
M  V30 5256 C 699.241 -1.00499 -5.96189 0
M  V30 5257 H 702.72 -2.53396 -6.02698 0
M  V30 5258 H 704.203 -2.93881 -7.85526 0
M  V30 5259 H 702.509 -2.52078 -9.87225 0
M  V30 5260 H 702.319 -4.75072 -9.05887 0
M  V30 5261 H 700.689 -4.05244 -8.76668 0
M  V30 5262 H 701.531 -3.18977 -5.3945 0
M  V30 5263 H 703.329 0.177619 -6.34151 0
M  V30 5264 P 705.186 -1.25109 -8.70152 0
M  V30 5265 O 706.608 -1.29744 -9.22016 0
M  V30 5266 O 704.826 -2.13714 -7.55141 0
M  V30 5267 O 704.863 0.248149 -8.21425 0
M  V30 5268 C 704.703 1.22779 -9.30434 0
M  V30 5269 C 705.243 2.56293 -8.80664 0
M  V30 5270 O 704.187 3.02979 -8.09349 0
M  V30 5271 C 706.461 2.57523 -7.89775 0
M  V30 5272 O 707.199 3.7668 -7.89438 0
M  V30 5273 C 705.792 2.20997 -6.55446 0
M  V30 5274 O 706.591 2.71895 -5.48509 0
M  V30 5275 C 704.455 2.89693 -6.67988 0
M  V30 5276 H 704.487 3.88793 -6.19859 0
M  V30 5277 H 705.67 1.12046 -6.44229 0
M  V30 5278 H 707.154 1.7746 -8.19711 0
M  V30 5279 H 705.46 3.20706 -9.67112 0
M  V30 5280 H 705.27 0.901032 -10.1892 0
M  V30 5281 H 703.64 1.33049 -9.56592 0
M  V30 5282 H 706.279 3.57847 -5.23962 0
M  V30 5283 P 708.137 3.65191 -7.99657 0
M  V30 5284 O 709.559 3.89332 -8.45794 0
M  V30 5285 O 707.777 2.28472 -7.50807 0
M  V30 5286 O 707.814 4.64972 -6.77611 0
M  V30 5287 C 707.654 6.06319 -7.16352 0
M  V30 5288 C 708.194 6.91731 -6.02299 0
M  V30 5289 O 707.138 6.92449 -5.17064 0
M  V30 5290 C 709.412 6.43627 -5.25174 0
M  V30 5291 O 710.15 7.43686 -4.60469 0
M  V30 5292 C 708.743 5.40275 -4.31916 0
M  V30 5293 O 709.542 5.25279 -3.14438 0
M  V30 5294 C 707.406 6.04847 -4.05327 0
M  V30 5295 H 707.438 6.62195 -3.11261 0
M  V30 5296 H 708.621 4.42556 -4.81383 0
M  V30 5297 H 710.105 5.92458 -5.93643 0
M  V30 5298 H 708.411 7.92655 -6.402 0
M  V30 5299 H 708.221 6.26671 -8.0846 0
M  V30 5300 H 706.591 6.29101 -7.32804 0
M  V30 5301 H 709.23 5.84315 -2.47318 0
M  V30 5302 P 711.087 7.39546 -4.75277 0
M  V30 5303 O 712.509 7.84798 -5.01039 0
M  V30 5304 O 710.727 5.9812 -5.08098 0
M  V30 5305 O 710.764 7.57503 -3.1866 0
M  V30 5306 C 710.604 8.97357 -2.74833 0
M  V30 5307 C 711.144 9.07548 -1.32709 0
M  V30 5308 O 710.088 8.62072 -0.606159 0
M  V30 5309 C 712.362 8.25383 -0.938334 0
M  V30 5310 O 713.1 8.74577 0.146954 0
M  V30 5311 C 711.693 6.8802 -0.712559 0
M  V30 5312 O 712.492 6.1189 0.194655 0
M  V30 5313 C 710.356 7.27966 -0.139777 0
M  V30 5314 H 710.388 7.25354 0.961601 0
M  V30 5315 H 711.571 6.32557 -1.65702 0
M  V30 5316 H 713.055 8.19355 -1.79097 0
M  V30 5317 H 711.361 10.1294 -1.10029 0
M  V30 5318 H 711.171 9.64276 -3.41316 0
M  V30 5319 H 709.541 9.25417 -2.76357 0
M  V30 5320 H 712.18 6.25267 1.07847 0
M  V30 5321 P 714.038 8.791 5.07466e-12 0
M  V30 5322 O 715.46 9.31096 0.027933 0
M  V30 5323 O 713.678 7.77869 -1.04071 0
M  V30 5324 O 713.715 8.09533 1.41463 0
M  V30 5325 C 713.555 9.0349 2.53943 0
M  V30 5326 C 714.095 8.35226 3.79016 0
M  V30 5327 O 713.039 7.57992 4.15078 0
M  V30 5328 C 715.313 7.45087 3.67298 0
M  V30 5329 O 716.051 7.27796 4.85194 0
M  V30 5330 C 714.644 6.17323 3.12027 0
M  V30 5331 O 715.443 5.04231 3.47188 0
M  V30 5332 C 713.307 6.19961 3.81809 0
M  V30 5333 H 713.339 5.58218 4.73051 0
M  V30 5334 H 714.522 6.21726 2.02589 0
M  V30 5335 H 716.006 7.86112 2.9231 0
M  V30 5336 H 714.312 9.11627 4.55076 0
M  V30 5337 H 714.122 9.9573 2.34194 0
M  V30 5338 H 712.492 9.2792 2.67832 0
M  V30 5339 H 715.131 4.67702 4.28772 0
M  V30 5340 P 716.989 7.39546 4.75277 0
M  V30 5341 O 718.411 7.81777 5.05738 0
M  V30 5342 O 716.629 7.1065 3.32998 0
M  V30 5343 O 716.666 6.04542 5.56673 0
M  V30 5344 C 716.506 6.22772 7.02095 0
M  V30 5345 C 717.046 4.97725 7.70406 0
M  V30 5346 O 715.99 4.13256 7.58987 0
M  V30 5347 C 718.264 4.28231 7.11815 0
M  V30 5348 O 719.002 3.49945 8.01648 0
M  V30 5349 C 717.595 3.5063 5.96244 0
M  V30 5350 O 718.394 2.36482 5.64681 0
M  V30 5351 C 716.258 3.15122 6.56374 0
M  V30 5352 H 716.29 2.13853 6.99751 0
M  V30 5353 H 717.473 4.13501 5.06559 0
M  V30 5354 H 718.957 5.03285 6.70911 0
M  V30 5355 H 717.263 5.20877 8.75697 0
M  V30 5356 H 717.073 7.11046 7.35349 0
M  V30 5357 H 715.443 6.35815 7.26986 0
M  V30 5358 H 718.082 1.61644 6.13565 0
M  V30 5359 P 719.939 3.65191 7.99657 0
M  V30 5360 O 721.361 3.8425 8.48115 0
M  V30 5361 O 719.579 4.17805 6.64342 0
M  V30 5362 O 719.616 2.07613 7.95143 0
M  V30 5363 C 719.456 1.44328 9.27336 0
M  V30 5364 C 719.996 0.0220036 9.17197 0
M  V30 5365 O 718.94 -0.626867 8.61923 0
M  V30 5366 C 721.214 -0.24586 8.30336 0
M  V30 5367 O 721.952 -1.39011 8.63583 0
M  V30 5368 C 720.545 -0.273849 6.91158 0
M  V30 5369 O 721.344 -1.06348 6.02892 0
M  V30 5370 C 719.208 -0.897649 7.22545 0
M  V30 5371 H 719.24 -1.9841 7.04286 0
M  V30 5372 H 720.423 0.739928 6.497 0
M  V30 5373 H 721.907 0.60668 8.36503 0
M  V30 5374 H 720.213 -0.352479 10.1829 0
M  V30 5375 H 720.023 2.00611 10.0304 0
M  V30 5376 H 718.393 1.41843 9.55327 0
M  V30 5377 H 721.032 -1.95734 6.03555 0
M  V30 5378 P 722.89 -1.25109 8.70152 0
M  V30 5379 O 724.312 -1.35274 9.21221 0
M  V30 5380 O 722.53 -0.0769065 7.84762 0
M  V30 5381 O 722.567 -2.55232 7.81161 0
M  V30 5382 C 722.407 -3.79939 8.58154 0
M  V30 5383 C 722.947 -4.94023 7.72785 0
M  V30 5384 O 721.891 -5.18726 6.91205 0
M  V30 5385 C 724.165 -4.69597 6.85231 0
M  V30 5386 O 724.903 -5.83832 6.51337 0
M  V30 5387 C 723.496 -3.96706 5.66633 0
M  V30 5388 O 724.295 -4.15414 4.49689 0
M  V30 5389 C 722.159 -4.66153 5.59313 0
M  V30 5390 H 722.191 -5.47679 4.85214 0
M  V30 5391 H 723.374 -2.89008 5.86566 0
M  V30 5392 H 724.858 -4.0121 7.36511 0
M  V30 5393 H 723.164 -5.80182 8.37584 0
M  V30 5394 H 722.974 -3.73517 9.52265 0
M  V30 5395 H 721.344 -3.97163 8.80359 0
M  V30 5396 H 723.983 -4.90969 4.01921 0
M  V30 5397 P 725.84 -5.75688 6.64379 0
M  V30 5398 O 727.261 -6.11915 7.01921 0
M  V30 5399 O 725.48 -4.30744 6.56026 0
M  V30 5400 O 725.517 -6.37042 5.19165 0
M  V30 5401 C 725.356 -7.83662 5.1657 0
M  V30 5402 C 725.897 -8.33398 3.83019 0
M  V30 5403 O 724.842 -8.0998 3.00999 0
M  V30 5404 C 727.115 -7.65514 3.2257 0
M  V30 5405 O 727.853 -8.4329 2.32297 0
M  V30 5406 C 726.447 -6.40075 2.62207 0
M  V30 5407 O 727.245 -5.92338 1.5428 0
M  V30 5408 C 725.109 -6.9454 2.18503 0
M  V30 5409 N 724.066 -5.95905 2.39948 0
M  V30 5410 C 724.235 -4.98383 3.32108 0
M  V30 5411 N 723.208 -4.16798 3.41761 0
M  V30 5412 C 722.323 -4.65287 2.47461 0
M  V30 5413 C 721.056 -4.18946 2.07461 0
M  V30 5414 N 720.457 -3.09661 2.60717 0
M  V30 5415 N 720.491 -4.95327 1.09101 0
M  V30 5416 C 721.093 -6.04369 0.519812 0
M  V30 5417 N 722.27 -6.50694 0.855982 0
M  V30 5418 C 722.845 -5.75818 1.84322 0
M  V30 5419 H 725.141 -7.22964 1.12076 0
M  V30 5420 H 726.324 -5.60502 3.36589 0
M  V30 5421 H 727.807 -7.35707 4.02681 0
M  V30 5422 H 726.113 -9.41302 3.90009 0
M  V30 5423 H 725.923 -8.29056 5.99158 0
M  V30 5424 H 724.293 -8.10073 5.25882 0
M  V30 5425 H 720.557 -6.55843 -0.270373 0
M  V30 5426 H 725.135 -4.88564 3.92502 0
M  V30 5427 H 719.527 -2.80523 2.27218 0
M  V30 5428 H 720.931 -2.55848 3.34465 0
M  V30 5429 H 726.933 -6.30224 0.72668 0
M  V30 5430 P 728.791 -8.4349 2.47671 0
M  V30 5431 O 730.192 -8.98227 2.65696 0
M  V30 5432 O 728.413 -7.20409 3.23964 0
M  V30 5433 O 728.468 -8.16496 0.923275 0
M  V30 5434 C 728.308 -9.38437 0.108857 0
M  V30 5435 C 728.848 -9.08076 -1.28339 0
M  V30 5436 O 727.792 -8.44131 -1.84692 0
M  V30 5437 C 730.065 -8.18386 -1.42505 0
M  V30 5438 O 730.804 -8.3501 -2.60497 0
M  V30 5439 C 729.398 -6.80225 -1.25468 0
M  V30 5440 O 730.196 -5.81526 -1.91035 0
M  V30 5441 C 728.06 -7.02416 -1.9168 0
M  V30 5442 N 727.017 -6.31033 -1.20314 0
M  V30 5443 C 725.982 -5.77149 -1.928 0
M  V30 5444 O 726.021 -5.8521 -3.17729 0
M  V30 5445 N 724.97 -5.15445 -1.27997 0
M  V30 5446 C 725.018 -5.04472 0.0534726 0
M  V30 5447 C 726.114 -5.55244 0.808522 0
M  V30 5448 C 727.08 -6.18542 0.13981 0
M  V30 5449 H 728.092 -6.68789 -2.9658 0
M  V30 5450 H 729.275 -6.53498 -0.198729 0
M  V30 5451 H 730.759 -8.36663 -0.5984 0
M  V30 5452 H 729.065 -10.0273 -1.8081 0
M  V30 5453 H 728.874 -10.2138 0.558219 0
M  V30 5454 H 727.244 -9.6569 0.0444156 0
M  V30 5455 H 726.162 -5.43017 1.88792 0
M  V30 5456 H 727.926 -6.60539 0.686773 0
M  V30 5457 H 729.98 -5.79638 -2.8315 0
M  V30 5458 P 731.741 -8.4349 -2.47671 0
M  V30 5459 O 733.162 -8.92689 -2.65029 0
M  V30 5460 O 731.381 -7.7568 -1.19296 0
M  V30 5461 O 731.418 -7.36886 -3.63805 0
M  V30 5462 C 731.257 -7.95433 -4.98253 0
M  V30 5463 C 731.798 -6.94612 -5.98974 0
M  V30 5464 O 730.743 -6.10277 -6.11744 0
M  V30 5465 C 733.016 -6.11426 -5.62335 0
M  V30 5466 O 733.754 -5.6162 -6.70584 0
M  V30 5467 C 732.348 -5.04409 -4.73308 0
M  V30 5468 O 733.146 -3.86404 -4.74719 0
M  V30 5469 C 731.01 -4.8728 -5.41006 0
M  V30 5470 N 729.967 -4.65812 -4.42377 0
M  V30 5471 C 730.136 -5.09132 -3.15382 0
M  V30 5472 N 729.109 -4.84021 -2.3716 0
M  V30 5473 C 728.224 -4.18386 -3.20441 0
M  V30 5474 C 726.957 -3.6275 -2.94905 0
M  V30 5475 N 726.358 -3.65794 -1.73372 0
M  V30 5476 N 726.392 -3.05008 -4.05243 0
M  V30 5477 C 726.994 -2.98348 -5.28159 0
M  V30 5478 N 728.171 -3.48171 -5.56333 0
M  V30 5479 C 728.746 -4.06869 -4.47212 0
M  V30 5480 H 731.042 -4.02278 -6.11074 0
M  V30 5481 H 732.225 -5.39013 -3.70026 0
M  V30 5482 H 733.708 -6.71916 -5.01943 0
M  V30 5483 H 732.014 -7.45796 -6.94223 0
M  V30 5484 H 731.824 -8.89416 -5.05237 0
M  V30 5485 H 730.194 -8.14876 -5.18409 0
M  V30 5486 H 726.458 -2.47853 -6.07807 0
M  V30 5487 H 731.036 -5.59989 -2.81362 0
M  V30 5488 H 725.428 -3.23218 -1.60782 0
M  V30 5489 H 726.832 -4.10523 -0.937856 0
M  V30 5490 H 732.834 -3.27906 -5.43085 0
M  V30 5491 P 734.692 -5.75688 -6.64379 0
M  V30 5492 O 736.114 -6.07627 -7.05504 0
M  V30 5493 O 734.332 -5.88047 -5.19722 0
M  V30 5494 O 734.369 -4.2322 -7.04443 0
M  V30 5495 C 734.209 -3.99743 -8.4911 0
M  V30 5496 C 734.749 -2.60516 -8.79425 0
M  V30 5497 O 733.693 -1.82684 -8.4467 0
M  V30 5498 C 735.967 -2.10343 -8.03628 0
M  V30 5499 O 736.705 -1.09919 -8.67766 0
M  V30 5500 C 735.298 -1.68446 -6.70876 0
M  V30 5501 O 736.097 -0.678137 -6.08433 0
M  V30 5502 C 733.961 -1.17436 -7.18567 0
M  V30 5503 H 733.993 -0.0804732 -7.31656 0
M  V30 5504 H 735.176 -2.54037 -6.02537 0
M  V30 5505 H 736.66 -2.93881 -7.85526 0
M  V30 5506 H 734.966 -2.53065 -9.86973 0
M  V30 5507 H 734.776 -4.75072 -9.05887 0
M  V30 5508 H 733.146 -4.05244 -8.76668 0
M  V30 5509 H 735.785 0.177647 -6.34251 0
M  V30 5510 P 737.643 -1.25109 -8.70152 0
M  V30 5511 O 739.064 -1.29758 -9.22115 0
M  V30 5512 O 737.283 -2.13714 -7.55141 0
M  V30 5513 O 737.32 0.248149 -8.21425 0
M  V30 5514 C 737.159 1.22792 -9.30533 0
M  V30 5515 C 737.7 2.56293 -8.80664 0
M  V30 5516 O 736.644 3.02944 -8.09255 0
M  V30 5517 C 738.918 2.57523 -7.89775 0
M  V30 5518 O 739.656 3.7668 -7.89438 0
M  V30 5519 C 738.25 2.20997 -6.55446 0
M  V30 5520 O 739.048 2.71302 -5.48691 0
M  V30 5521 C 736.912 2.89693 -6.67988 0
M  V30 5522 N 735.869 2.08895 -6.07487 0
M  V30 5523 C 736.038 0.753809 -5.94137 0
M  V30 5524 N 735.011 0.146592 -5.38801 0
M  V30 5525 C 734.125 1.1768 -5.13693 0
M  V30 5526 C 732.859 1.17563 -4.52477 0
M  V30 5527 N 732.26 0.057481 -4.04759 0
M  V30 5528 N 732.293 2.41918 -4.45789 0
M  V30 5529 C 732.896 3.56493 -4.90792 0
M  V30 5530 N 734.072 3.61423 -5.47817 0
M  V30 5531 C 734.648 2.37779 -5.5588 0
M  V30 5532 H 736.944 3.8874 -6.19774 0
M  V30 5533 H 738.127 1.12673 -6.44018 0
M  V30 5534 H 739.61 1.7746 -8.19711 0
M  V30 5535 H 737.916 3.21673 -9.66791 0
M  V30 5536 H 737.726 0.901032 -10.1892 0
M  V30 5537 H 736.096 1.33049 -9.56592 0
M  V30 5538 H 732.36 4.49919 -4.77947 0
M  V30 5539 H 736.938 0.233081 -6.26266 0
M  V30 5540 H 731.33 0.119831 -3.60801 0
M  V30 5541 H 732.734 -0.852272 -4.12385 0
M  V30 5542 H 738.736 3.5779 -5.23879 0
M  V30 5543 P 740.593 3.65191 -7.99657 0
M  V30 5544 O 742.015 3.89332 -8.45794 0
M  V30 5545 O 740.233 2.28472 -7.50807 0
M  V30 5546 O 740.27 4.64972 -6.77611 0
M  V30 5547 C 740.11 6.06319 -7.16352 0
M  V30 5548 C 740.65 6.91731 -6.02299 0
M  V30 5549 O 739.594 6.92449 -5.17064 0
M  V30 5550 C 741.868 6.43627 -5.25174 0
M  V30 5551 O 742.606 7.43686 -4.60469 0
M  V30 5552 C 741.199 5.40275 -4.31916 0
M  V30 5553 O 741.998 5.25279 -3.14438 0
M  V30 5554 C 739.862 6.04847 -4.05327 0
M  V30 5555 H 739.894 6.62195 -3.11261 0
M  V30 5556 H 741.077 4.42556 -4.81383 0
M  V30 5557 H 742.561 5.92458 -5.93643 0
M  V30 5558 H 740.867 7.92655 -6.402 0
M  V30 5559 H 740.677 6.26671 -8.0846 0
M  V30 5560 H 739.047 6.29101 -7.32804 0
M  V30 5561 H 741.686 5.84315 -2.47318 0
M  V30 5562 P 743.544 7.39546 -4.75277 0
M  V30 5563 O 744.966 7.84798 -5.01039 0
M  V30 5564 O 743.184 5.9812 -5.08098 0
M  V30 5565 O 743.221 7.57503 -3.1866 0
M  V30 5566 C 743.061 8.97357 -2.74833 0
M  V30 5567 C 743.601 9.07548 -1.32709 0
M  V30 5568 O 742.545 8.62072 -0.606159 0
M  V30 5569 C 744.819 8.25383 -0.938334 0
M  V30 5570 O 745.557 8.74577 0.146954 0
M  V30 5571 C 744.15 6.8802 -0.712559 0
M  V30 5572 O 744.949 6.1189 0.194655 0
M  V30 5573 C 742.813 7.27966 -0.139777 0
M  V30 5574 H 742.845 7.25354 0.961601 0
M  V30 5575 H 744.028 6.32557 -1.65702 0
M  V30 5576 H 745.512 8.19355 -1.79097 0
M  V30 5577 H 743.818 10.1294 -1.10029 0
M  V30 5578 H 743.628 9.64276 -3.41316 0
M  V30 5579 H 741.998 9.25417 -2.76357 0
M  V30 5580 H 744.637 6.25267 1.07847 0
M  V30 5581 P 746.494 8.791 5.38483e-12 0
M  V30 5582 O 747.916 9.31096 0.027933 0
M  V30 5583 O 746.134 7.77869 -1.04071 0
M  V30 5584 O 746.171 8.09533 1.41463 0
M  V30 5585 C 746.011 9.0349 2.53943 0
M  V30 5586 C 746.551 8.35226 3.79016 0
M  V30 5587 O 745.495 7.57992 4.15078 0
M  V30 5588 C 747.769 7.45087 3.67298 0
M  V30 5589 O 748.507 7.27796 4.85194 0
M  V30 5590 C 747.1 6.17323 3.12027 0
M  V30 5591 O 747.899 5.04231 3.47188 0
M  V30 5592 C 745.763 6.19961 3.81809 0
M  V30 5593 H 745.795 5.58218 4.73051 0
M  V30 5594 H 746.978 6.21726 2.02589 0
M  V30 5595 H 748.462 7.86112 2.9231 0
M  V30 5596 H 746.768 9.11627 4.55076 0
M  V30 5597 H 746.578 9.9573 2.34194 0
M  V30 5598 H 744.948 9.2792 2.67832 0
M  V30 5599 H 747.587 4.67702 4.28772 0
M  V30 5600 P 749.445 7.39546 4.75277 0
M  V30 5601 O 750.866 7.81861 5.05793 0
M  V30 5602 O 749.085 7.1065 3.32998 0
M  V30 5603 O 749.122 6.04542 5.56673 0
M  V30 5604 C 748.961 6.22839 7.02169 0
M  V30 5605 C 749.502 4.97725 7.70406 0
M  V30 5606 O 748.447 4.13208 7.58899 0
M  V30 5607 C 750.72 4.28231 7.11815 0
M  V30 5608 O 751.458 3.49945 8.01648 0
M  V30 5609 C 750.052 3.5063 5.96244 0
M  V30 5610 O 750.85 2.37008 5.64352 0
M  V30 5611 C 748.714 3.15122 6.56374 0
M  V30 5612 N 747.671 3.22311 5.55692 0
M  V30 5613 C 747.84 3.99655 4.46046 0
M  V30 5614 N 746.813 3.97599 3.63918 0
M  V30 5615 C 745.928 3.11159 4.25334 0
M  V30 5616 C 744.661 2.64972 3.85157 0
M  V30 5617 N 744.062 3.02132 2.69405 0
M  V30 5618 N 744.096 1.78482 4.74759 0
M  V30 5619 C 744.698 1.37463 5.90819 0
M  V30 5620 N 745.875 1.7733 6.31889 0
M  V30 5621 C 746.45 2.64393 5.43725 0
M  V30 5622 H 748.746 2.13823 6.99656 0
M  V30 5623 H 749.929 4.12931 5.06895 0
M  V30 5624 H 751.412 5.03285 6.70911 0
M  V30 5625 H 749.718 5.20001 8.76217 0
M  V30 5626 H 749.528 7.11046 7.35349 0
M  V30 5627 H 747.898 6.35815 7.26986 0
M  V30 5628 H 744.162 0.66574 6.53015 0
M  V30 5629 H 748.74 4.58037 4.27732 0
M  V30 5630 H 743.132 2.64828 2.45331 0
M  V30 5631 H 744.536 3.67472 2.05644 0
M  V30 5632 H 750.538 1.61619 6.13468 0
M  V30 5633 P 752.395 3.65191 7.99657 0
M  V30 5634 O 753.817 3.8425 8.48115 0
M  V30 5635 O 752.035 4.17805 6.64342 0
M  V30 5636 O 752.072 2.07613 7.95143 0
M  V30 5637 C 751.912 1.44328 9.27336 0
M  V30 5638 C 752.452 0.0220036 9.17197 0
M  V30 5639 O 751.396 -0.626867 8.61923 0
M  V30 5640 C 753.67 -0.24586 8.30336 0
M  V30 5641 O 754.408 -1.39011 8.63583 0
M  V30 5642 C 753.001 -0.273849 6.91158 0
M  V30 5643 O 753.8 -1.06348 6.02892 0
M  V30 5644 C 751.664 -0.897649 7.22545 0
M  V30 5645 H 751.696 -1.9841 7.04286 0
M  V30 5646 H 752.879 0.739928 6.497 0
M  V30 5647 H 754.363 0.60668 8.36503 0
M  V30 5648 H 752.669 -0.352479 10.1829 0
M  V30 5649 H 752.479 2.00611 10.0304 0
M  V30 5650 H 750.849 1.41843 9.55327 0
M  V30 5651 H 753.488 -1.95734 6.03555 0
M  V30 5652 P 755.346 -1.25109 8.70152 0
M  V30 5653 O 756.767 -1.35288 9.2132 0
M  V30 5654 O 754.986 -0.0769065 7.84762 0
M  V30 5655 O 755.023 -2.55232 7.81161 0
M  V30 5656 C 754.862 -3.79979 8.58246 0
M  V30 5657 C 755.403 -4.94023 7.72785 0
M  V30 5658 O 754.348 -5.18666 6.91125 0
M  V30 5659 C 756.621 -4.69597 6.85231 0
M  V30 5660 O 757.359 -5.83832 6.51337 0
M  V30 5661 C 755.953 -3.96706 5.66633 0
M  V30 5662 O 756.751 -4.14896 4.5003 0
M  V30 5663 C 754.615 -4.66153 5.59313 0
M  V30 5664 N 753.572 -3.71582 5.24027 0
M  V30 5665 C 753.741 -2.39715 5.48833 0
M  V30 5666 N 752.714 -1.65863 5.12845 0
M  V30 5667 C 751.829 -2.57637 4.5973 0
M  V30 5668 C 750.562 -2.40278 4.01027 0
M  V30 5669 N 749.963 -1.19549 3.86744 0
M  V30 5670 N 749.997 -3.57711 3.59575 0
M  V30 5671 C 750.599 -4.80324 3.70476 0
M  V30 5672 N 751.776 -5.01121 4.23801 0
M  V30 5673 C 752.351 -3.84757 4.66372 0
M  V30 5674 H 754.647 -5.47604 4.85148 0
M  V30 5675 H 755.83 -2.8955 5.86187 0
M  V30 5676 H 757.313 -4.0121 7.36511 0
M  V30 5677 H 755.619 -5.81019 8.37003 0
M  V30 5678 H 755.429 -3.73517 9.52265 0
M  V30 5679 H 753.799 -3.97163 8.80359 0
M  V30 5680 H 750.063 -5.66348 3.3183 0
M  V30 5681 H 754.641 -1.98804 5.94332 0
M  V30 5682 H 749.033 -1.13147 3.4281 0
M  V30 5683 H 750.437 -0.344074 4.19692 0
M  V30 5684 H 756.439 -4.90891 4.01857 0
M  V30 5685 P 758.296 -5.75688 6.64379 0
M  V30 5686 O 759.718 -6.11849 7.01846 0
M  V30 5687 O 757.936 -4.30744 6.56026 0
M  V30 5688 O 757.973 -6.37042 5.19165 0
M  V30 5689 C 757.813 -7.83578 5.16515 0
M  V30 5690 C 758.353 -8.33398 3.83019 0
M  V30 5691 O 757.297 -8.10074 3.01034 0
M  V30 5692 C 759.571 -7.65514 3.2257 0
M  V30 5693 O 760.309 -8.4329 2.32297 0
M  V30 5694 C 758.902 -6.40075 2.62207 0
M  V30 5695 O 759.701 -5.92589 1.53712 0
M  V30 5696 C 757.565 -6.9454 2.18503 0
M  V30 5697 H 757.597 -7.23063 1.12091 0
M  V30 5698 H 758.78 -5.6025 3.37201 0
M  V30 5699 H 760.264 -7.35707 4.02681 0
M  V30 5700 H 758.57 -9.40912 3.9095 0
M  V30 5701 H 758.38 -8.29056 5.99158 0
M  V30 5702 H 756.75 -8.10073 5.25882 0
M  V30 5703 H 759.389 -6.30324 0.726794 0
M  V30 5704 P 761.247 -8.4349 2.47671 0
M  V30 5705 O 762.669 -8.94167 2.5964 0
M  V30 5706 O 760.887 -7.1704 3.19006 0
M  V30 5707 O 760.924 -8.16596 0.923387 0
M  V30 5708 C 760.764 -9.38437 0.108857 0
M  V30 5709 C 761.304 -9.08175 -1.28353 0
M  V30 5710 O 760.248 -8.44229 -1.84713 0
M  V30 5711 C 762.522 -8.18386 -1.42505 0
M  V30 5712 O 763.26 -8.3501 -2.60497 0
M  V30 5713 C 761.853 -6.80225 -1.25468 0
M  V30 5714 O 762.652 -5.81621 -1.91066 0
M  V30 5715 C 760.516 -7.02416 -1.9168 0
M  V30 5716 H 760.548 -6.6888 -2.96621 0
M  V30 5717 H 761.731 -6.53617 -0.192223 0
M  V30 5718 H 763.215 -8.36622 -0.589963 0
M  V30 5719 H 761.521 -10.0291 -1.79807 0
M  V30 5720 H 761.331 -10.2138 0.558219 0
M  V30 5721 H 759.701 -9.6579 0.0444202 0
M  V30 5722 H 762.34 -5.69556 -2.79637 0
M  V30 5723 P 764.198 -8.4349 -2.47671 0
M  V30 5724 O 765.62 -8.92593 -2.65 0
M  V30 5725 O 763.838 -7.7568 -1.19296 0
M  V30 5726 O 763.875 -7.36886 -3.63805 0
M  V30 5727 C 763.715 -7.95349 -4.982 0
M  V30 5728 C 764.255 -6.94612 -5.98974 0
M  V30 5729 O 763.199 -6.10347 -6.11815 0
M  V30 5730 C 765.473 -6.11426 -5.62335 0
M  V30 5731 O 766.211 -5.6162 -6.70584 0
M  V30 5732 C 764.804 -5.04409 -4.73308 0
M  V30 5733 O 765.603 -3.85992 -4.75183 0
M  V30 5734 C 763.467 -4.8728 -5.41006 0
M  V30 5735 H 763.499 -4.02333 -6.11157 0
M  V30 5736 H 764.682 -5.39466 -3.69543 0
M  V30 5737 H 766.166 -6.71916 -5.01943 0
M  V30 5738 H 764.472 -7.4649 -6.93477 0
M  V30 5739 H 764.282 -8.89416 -5.05237 0
M  V30 5740 H 762.652 -8.14876 -5.18409 0
M  V30 5741 H 765.291 -3.27957 -5.4317 0
M  V30 5742 P 767.148 -5.75688 -6.64379 0
M  V30 5743 O 768.57 -6.07627 -7.05504 0
M  V30 5744 O 766.788 -5.88047 -5.19722 0
M  V30 5745 O 766.825 -4.2322 -7.04443 0
M  V30 5746 C 766.665 -3.99743 -8.4911 0
M  V30 5747 C 767.205 -2.60516 -8.79425 0
M  V30 5748 O 766.149 -1.82684 -8.4467 0
M  V30 5749 C 768.423 -2.10343 -8.03628 0
M  V30 5750 O 769.161 -1.09919 -8.67766 0
M  V30 5751 C 767.754 -1.68446 -6.70876 0
M  V30 5752 O 768.553 -0.678137 -6.08433 0
M  V30 5753 C 766.417 -1.17436 -7.18567 0
M  V30 5754 H 766.449 -0.0804732 -7.31656 0
M  V30 5755 H 767.632 -2.54037 -6.02537 0
M  V30 5756 H 769.116 -2.93881 -7.85526 0
M  V30 5757 H 767.422 -2.53065 -9.86973 0
M  V30 5758 H 767.232 -4.75072 -9.05887 0
M  V30 5759 H 765.602 -4.05244 -8.76668 0
M  V30 5760 H 768.241 0.177647 -6.34251 0
M  V30 5761 P 770.099 -1.25109 -8.70152 0
M  V30 5762 O 771.521 -1.29744 -9.22016 0
M  V30 5763 O 769.739 -2.13714 -7.55141 0
M  V30 5764 O 769.776 0.248149 -8.21425 0
M  V30 5765 C 769.616 1.22779 -9.30434 0
M  V30 5766 C 770.156 2.56293 -8.80664 0
M  V30 5767 O 769.1 3.02979 -8.09349 0
M  V30 5768 C 771.374 2.57523 -7.89775 0
M  V30 5769 O 772.112 3.7668 -7.89438 0
M  V30 5770 C 770.705 2.20997 -6.55446 0
M  V30 5771 O 771.504 2.71895 -5.48509 0
M  V30 5772 C 769.368 2.89693 -6.67988 0
M  V30 5773 H 769.4 3.88793 -6.19859 0
M  V30 5774 H 770.583 1.12046 -6.44229 0
M  V30 5775 H 772.067 1.7746 -8.19711 0
M  V30 5776 H 770.373 3.20706 -9.67112 0
M  V30 5777 H 770.183 0.901032 -10.1892 0
M  V30 5778 H 768.553 1.33049 -9.56592 0
M  V30 5779 H 771.192 3.57847 -5.23962 0
M  V30 5780 P 773.049 3.65191 -7.99657 0
M  V30 5781 O 774.45 3.87414 -8.52829 0
M  V30 5782 O 772.671 2.26932 -7.566 0
M  V30 5783 O 772.726 4.64915 -6.77529 0
M  V30 5784 C 772.566 6.06319 -7.16352 0
M  V30 5785 C 773.106 6.91655 -6.02234 0
M  V30 5786 O 772.05 6.92369 -5.17005 0
M  V30 5787 C 774.323 6.43627 -5.25174 0
M  V30 5788 O 775.062 7.43686 -4.60469 0
M  V30 5789 C 773.656 5.40275 -4.31916 0
M  V30 5790 O 774.454 5.25193 -3.14386 0
M  V30 5791 C 772.318 6.04847 -4.05327 0
M  V30 5792 N 771.275 5.04166 -3.98114 0
M  V30 5793 C 770.24 5.2366 -3.09923 0
M  V30 5794 O 770.279 6.23355 -2.34204 0
M  V30 5795 N 769.228 4.34279 -3.05727 0
M  V30 5796 C 769.276 3.26317 -3.84756 0
M  V30 5797 C 770.372 3.02504 -4.72573 0
M  V30 5798 C 771.338 3.94493 -4.76618 0
M  V30 5799 H 772.35 6.62104 -3.11218 0
M  V30 5800 H 773.533 4.42969 -4.80867 0
M  V30 5801 H 775.017 5.93122 -5.93121 0
M  V30 5802 H 773.323 7.93295 -6.39407 0
M  V30 5803 H 773.132 6.26671 -8.0846 0
M  V30 5804 H 771.502 6.29036 -7.32728 0
M  V30 5805 H 770.42 2.12921 -5.34017 0
M  V30 5806 H 772.184 3.80658 -5.44176 0
M  V30 5807 H 774.238 5.93572 -2.52637 0
M  V30 5808 P 776 7.39546 -4.75277 0
M  V30 5809 O 777.422 7.84966 -5.01146 0
M  V30 5810 O 775.64 5.9812 -5.08098 0
M  V30 5811 O 775.677 7.57503 -3.1866 0
M  V30 5812 C 775.517 8.97357 -2.74833 0
M  V30 5813 C 776.057 9.0745 -1.32694 0
M  V30 5814 O 775.002 8.62072 -0.606159 0
M  V30 5815 C 777.275 8.25383 -0.938334 0
M  V30 5816 O 778.013 8.74577 0.146954 0
M  V30 5817 C 776.607 6.8802 -0.712559 0
M  V30 5818 O 777.405 6.11791 0.194623 0
M  V30 5819 C 775.269 7.27966 -0.139777 0
M  V30 5820 N 774.226 6.39368 -0.623421 0
M  V30 5821 C 774.288 5.90299 -1.85969 0
M  V30 5822 N 773.243 5.10919 -2.1133 0
M  V30 5823 C 772.509 5.14646 -1.0015 0
M  V30 5824 C 771.203 4.60057 -0.729219 0
M  V30 5825 O 770.47 3.93476 -1.47746 0
M  V30 5826 N 770.773 4.88302 0.523505 0
M  V30 5827 C 771.522 5.63646 1.46207 0
M  V30 5828 N 770.925 5.78186 2.69239 0
M  V30 5829 N 772.675 6.19285 1.21544 0
M  V30 5830 C 773.132 5.93392 -0.0308487 0
M  V30 5831 H 775.301 7.25354 0.961601 0
M  V30 5832 H 776.484 6.3246 -1.65676 0
M  V30 5833 H 777.969 8.19533 -1.78278 0
M  V30 5834 H 776.274 10.1294 -1.10029 0
M  V30 5835 H 776.084 9.64276 -3.41316 0
M  V30 5836 H 774.453 9.25417 -2.76357 0
M  V30 5837 H 769.877 4.53993 0.806451 0
M  V30 5838 H 775.084 6.11865 -2.57394 0
M  V30 5839 H 770.014 5.34046 2.87467 0
M  V30 5840 H 771.39 6.33391 3.42578 0
M  V30 5841 H 777.094 6.25169 1.0783 0
M  V30 5842 P 778.95 8.791 5.69499e-12 0
M  V30 5843 O 780.372 9.31096 0.027933 0
M  V30 5844 O 778.59 7.77869 -1.04071 0
M  V30 5845 O 778.627 8.09533 1.41463 0
M  V30 5846 C 778.467 9.0349 2.53943 0
M  V30 5847 C 779.007 8.35226 3.79016 0
M  V30 5848 O 777.951 7.57992 4.15078 0
M  V30 5849 C 780.225 7.45087 3.67298 0
M  V30 5850 O 780.963 7.27796 4.85194 0
M  V30 5851 C 779.556 6.17323 3.12027 0
M  V30 5852 O 780.355 5.04231 3.47188 0
M  V30 5853 C 778.219 6.19961 3.81809 0
M  V30 5854 H 778.251 5.58218 4.73051 0
M  V30 5855 H 779.434 6.21726 2.02589 0
M  V30 5856 H 780.918 7.86112 2.9231 0
M  V30 5857 H 779.224 9.11627 4.55076 0
M  V30 5858 H 779.034 9.9573 2.34194 0
M  V30 5859 H 777.404 9.2792 2.67832 0
M  V30 5860 H 780.043 4.67702 4.28772 0
M  V30 5861 P 781.901 7.39546 4.75277 0
M  V30 5862 O 783.323 7.81777 5.05738 0
M  V30 5863 O 781.541 7.1065 3.32998 0
M  V30 5864 O 781.578 6.04542 5.56673 0
M  V30 5865 C 781.418 6.22772 7.02095 0
M  V30 5866 C 781.958 4.97725 7.70406 0
M  V30 5867 O 780.902 4.13256 7.58987 0
M  V30 5868 C 783.176 4.28231 7.11815 0
M  V30 5869 O 783.914 3.49945 8.01648 0
M  V30 5870 C 782.507 3.5063 5.96244 0
M  V30 5871 O 783.306 2.36482 5.64681 0
M  V30 5872 C 781.17 3.15122 6.56374 0
M  V30 5873 H 781.202 2.13853 6.99751 0
M  V30 5874 H 782.385 4.13501 5.06559 0
M  V30 5875 H 783.869 5.03285 6.70911 0
M  V30 5876 H 782.175 5.20877 8.75697 0
M  V30 5877 H 781.985 7.11046 7.35349 0
M  V30 5878 H 780.355 6.35815 7.26986 0
M  V30 5879 H 782.994 1.61644 6.13565 0
M  V30 5880 P 784.852 3.65191 7.99657 0
M  V30 5881 O 786.274 3.84333 8.48297 0
M  V30 5882 O 784.492 4.17805 6.64342 0
M  V30 5883 O 784.529 2.07613 7.95143 0
M  V30 5884 C 784.369 1.44328 9.27336 0
M  V30 5885 C 784.909 0.0220012 9.17097 0
M  V30 5886 O 783.854 -0.626867 8.61923 0
M  V30 5887 C 786.127 -0.24586 8.30336 0
M  V30 5888 O 786.865 -1.39011 8.63583 0
M  V30 5889 C 785.459 -0.273849 6.91158 0
M  V30 5890 O 786.257 -1.06331 6.02794 0
M  V30 5891 C 784.121 -0.897649 7.22545 0
M  V30 5892 N 783.078 -0.292839 6.41732 0
M  V30 5893 C 783.14 1.00068 6.10757 0
M  V30 5894 N 782.095 1.36468 5.35794 0
M  V30 5895 C 781.361 0.258894 5.2366 0
M  V30 5896 C 780.055 0.0670682 4.65752 0
M  V30 5897 O 779.322 0.902443 4.10497 0
M  V30 5898 N 779.625 -1.2131 4.75881 0
M  V30 5899 C 780.374 -2.24934 5.37101 0
M  V30 5900 N 779.777 -3.48783 5.33984 0
M  V30 5901 N 781.527 -2.0844 5.95684 0
M  V30 5902 C 781.984 -0.81395 5.87791 0
M  V30 5903 H 784.153 -1.9841 7.04286 0
M  V30 5904 H 785.336 0.739815 6.49601 0
M  V30 5905 H 786.821 0.598315 8.36563 0
M  V30 5906 H 785.126 -0.352479 10.1829 0
M  V30 5907 H 784.936 2.00611 10.0304 0
M  V30 5908 H 783.305 1.41843 9.55327 0
M  V30 5909 H 778.729 -1.44434 4.37895 0
M  V30 5910 H 783.936 1.67697 6.42268 0
M  V30 5911 H 778.866 -3.60543 4.87699 0
M  V30 5912 H 780.242 -4.29232 5.7819 0
M  V30 5913 H 785.946 -1.95704 6.0346 0
M  V30 5914 P 787.802 -1.25109 8.70152 0
M  V30 5915 O 789.224 -1.35274 9.21221 0
M  V30 5916 O 787.442 -0.0769065 7.84762 0
M  V30 5917 O 787.479 -2.55232 7.81161 0
M  V30 5918 C 787.319 -3.79939 8.58154 0
M  V30 5919 C 787.859 -4.94023 7.72785 0
M  V30 5920 O 786.803 -5.18726 6.91205 0
M  V30 5921 C 789.077 -4.69597 6.85231 0
M  V30 5922 O 789.815 -5.83832 6.51337 0
M  V30 5923 C 788.408 -3.96706 5.66633 0
M  V30 5924 O 789.207 -4.15414 4.49689 0
M  V30 5925 C 787.071 -4.66153 5.59313 0
M  V30 5926 H 787.103 -5.47679 4.85214 0
M  V30 5927 H 788.286 -2.89008 5.86566 0
M  V30 5928 H 789.77 -4.0121 7.36511 0
M  V30 5929 H 788.076 -5.80182 8.37584 0
M  V30 5930 H 787.886 -3.73517 9.52265 0
M  V30 5931 H 786.256 -3.97163 8.80359 0
M  V30 5932 H 788.895 -4.90969 4.01921 0
M  V30 5933 P 790.753 -5.75688 6.64379 0
M  V30 5934 O 792.175 -6.11849 7.01846 0
M  V30 5935 O 790.393 -4.30744 6.56026 0
M  V30 5936 O 790.43 -6.37042 5.19165 0
M  V30 5937 C 790.27 -7.83578 5.16515 0
M  V30 5938 C 790.81 -8.33398 3.83019 0
M  V30 5939 O 789.754 -8.10074 3.01034 0
M  V30 5940 C 792.028 -7.65514 3.2257 0
M  V30 5941 O 792.766 -8.4329 2.32297 0
M  V30 5942 C 791.359 -6.40075 2.62207 0
M  V30 5943 O 792.158 -5.92589 1.53712 0
M  V30 5944 C 790.022 -6.9454 2.18503 0
M  V30 5945 H 790.054 -7.23063 1.12091 0
M  V30 5946 H 791.237 -5.6025 3.37201 0
M  V30 5947 H 792.721 -7.35707 4.02681 0
M  V30 5948 H 791.027 -9.40912 3.9095 0
M  V30 5949 H 790.837 -8.29056 5.99158 0
M  V30 5950 H 789.207 -8.10073 5.25882 0
M  V30 5951 H 791.846 -6.30324 0.726794 0
M  V30 5952 P 793.703 -8.4349 2.47671 0
M  V30 5953 O 795.124 -8.94263 2.59668 0
M  V30 5954 O 793.343 -7.1704 3.19006 0
M  V30 5955 O 793.38 -8.16596 0.923387 0
M  V30 5956 C 793.219 -9.38537 0.108869 0
M  V30 5957 C 793.76 -9.08175 -1.28353 0
M  V30 5958 O 792.705 -8.44131 -1.84692 0
M  V30 5959 C 794.978 -8.18386 -1.42505 0
M  V30 5960 O 795.716 -8.3501 -2.60497 0
M  V30 5961 C 794.31 -6.80225 -1.25468 0
M  V30 5962 O 795.108 -5.81716 -1.90454 0
M  V30 5963 C 792.972 -7.02416 -1.9168 0
M  V30 5964 N 791.929 -6.31033 -1.20314 0
M  V30 5965 C 792.098 -5.98817 0.0994088 0
M  V30 5966 N 791.071 -5.35403 0.621694 0
M  V30 5967 C 790.186 -5.25212 -0.43376 0
M  V30 5968 C 788.919 -4.64602 -0.519722 0
M  V30 5969 N 788.32 -4.01457 0.519136 0
M  V30 5970 N 788.354 -4.7568 -1.76013 0
M  V30 5971 C 788.956 -5.3653 -2.83017 0
M  V30 5972 N 790.133 -5.93676 -2.79782 0
M  V30 5973 C 790.708 -5.84061 -1.56249 0
M  V30 5974 H 793.004 -6.68789 -2.9658 0
M  V30 5975 H 794.187 -6.53498 -0.198729 0
M  V30 5976 H 795.67 -8.36622 -0.589963 0
M  V30 5977 H 793.976 -10.0273 -1.8081 0
M  V30 5978 H 793.786 -10.2138 0.558219 0
M  V30 5979 H 792.156 -9.6579 0.0444202 0
M  V30 5980 H 788.42 -5.37113 -3.77321 0
M  V30 5981 H 792.998 -6.23209 0.660562 0
M  V30 5982 H 787.39 -3.58834 0.394862 0
M  V30 5983 H 788.794 -3.96059 1.43048 0
M  V30 5984 H 794.796 -5.69466 -2.79593 0
M  V30 5985 P 796.654 -8.4349 -2.47671 0
M  V30 5986 O 798.076 -8.92593 -2.65 0
M  V30 5987 O 796.294 -7.7568 -1.19296 0
M  V30 5988 O 796.331 -7.36886 -3.63805 0
M  V30 5989 C 796.171 -7.95349 -4.982 0
M  V30 5990 C 796.711 -6.94612 -5.98974 0
M  V30 5991 O 795.655 -6.10347 -6.11815 0
M  V30 5992 C 797.929 -6.11426 -5.62335 0
M  V30 5993 O 798.667 -5.6162 -6.70584 0
M  V30 5994 C 797.26 -5.04409 -4.73308 0
M  V30 5995 O 798.059 -3.85992 -4.75183 0
M  V30 5996 C 795.923 -4.8728 -5.41006 0
M  V30 5997 H 795.955 -4.02333 -6.11157 0
M  V30 5998 H 797.138 -5.39466 -3.69543 0
M  V30 5999 H 798.622 -6.71916 -5.01943 0
M  V30 6000 H 796.928 -7.4649 -6.93477 0
M  V30 6001 H 796.738 -8.89416 -5.05237 0
M  V30 6002 H 795.108 -8.14876 -5.18409 0
M  V30 6003 H 797.747 -3.27957 -5.4317 0
M  V30 6004 P 799.604 -5.75688 -6.64379 0
M  V30 6005 O 801.026 -6.07627 -7.05504 0
M  V30 6006 O 799.244 -5.88047 -5.19722 0
M  V30 6007 O 799.281 -4.2322 -7.04443 0
M  V30 6008 C 799.121 -3.99743 -8.4911 0
M  V30 6009 C 799.661 -2.60516 -8.79425 0
M  V30 6010 O 798.605 -1.82684 -8.4467 0
M  V30 6011 C 800.879 -2.10343 -8.03628 0
M  V30 6012 O 801.617 -1.09919 -8.67766 0
M  V30 6013 C 800.21 -1.68446 -6.70876 0
M  V30 6014 O 801.009 -0.678137 -6.08433 0
M  V30 6015 C 798.873 -1.17436 -7.18567 0
M  V30 6016 H 798.905 -0.0804732 -7.31656 0
M  V30 6017 H 800.088 -2.54037 -6.02537 0
M  V30 6018 H 801.572 -2.93881 -7.85526 0
M  V30 6019 H 799.878 -2.53065 -9.86973 0
M  V30 6020 H 799.688 -4.75072 -9.05887 0
M  V30 6021 H 798.058 -4.05244 -8.76668 0
M  V30 6022 H 800.697 0.177647 -6.34251 0
M  V30 6023 P 802.555 -1.25109 -8.70152 0
M  V30 6024 O 803.977 -1.29744 -9.22016 0
M  V30 6025 O 802.195 -2.13714 -7.55141 0
M  V30 6026 O 802.232 0.248149 -8.21425 0
M  V30 6027 C 802.072 1.22779 -9.30434 0
M  V30 6028 C 802.612 2.56293 -8.80664 0
M  V30 6029 O 801.556 3.02979 -8.09349 0
M  V30 6030 C 803.83 2.57523 -7.89775 0
M  V30 6031 O 804.568 3.7668 -7.89438 0
M  V30 6032 C 803.161 2.20997 -6.55446 0
M  V30 6033 O 803.96 2.71895 -5.48509 0
M  V30 6034 C 801.824 2.89693 -6.67988 0
M  V30 6035 H 801.856 3.88793 -6.19859 0
M  V30 6036 H 803.039 1.12046 -6.44229 0
M  V30 6037 H 804.523 1.7746 -8.19711 0
M  V30 6038 H 802.829 3.20706 -9.67112 0
M  V30 6039 H 802.639 0.901032 -10.1892 0
M  V30 6040 H 801.009 1.33049 -9.56592 0
M  V30 6041 H 803.648 3.57847 -5.23962 0
M  V30 6042 P 805.506 3.65191 -7.99657 0
M  V30 6043 O 806.928 3.89416 -8.45976 0
M  V30 6044 O 805.146 2.28472 -7.50807 0
M  V30 6045 O 805.183 4.64972 -6.77611 0
M  V30 6046 C 805.023 6.06319 -7.16352 0
M  V30 6047 C 805.563 6.91655 -6.02234 0
M  V30 6048 O 804.508 6.92449 -5.17064 0
M  V30 6049 C 806.781 6.43627 -5.25174 0
M  V30 6050 O 807.519 7.43686 -4.60469 0
M  V30 6051 C 806.113 5.40275 -4.31916 0
M  V30 6052 O 806.911 5.25193 -3.14386 0
M  V30 6053 C 804.775 6.04847 -4.05327 0
M  V30 6054 N 803.732 5.04166 -3.98114 0
M  V30 6055 C 803.794 3.96049 -4.75587 0
M  V30 6056 N 802.749 3.15559 -4.54006 0
M  V30 6057 C 802.015 3.78802 -3.62491 0
M  V30 6058 C 800.709 3.476 -3.10071 0
M  V30 6059 O 799.976 2.51136 -3.37021 0
M  V30 6060 N 800.279 4.39088 -2.19956 0
M  V30 6061 C 801.028 5.53215 -1.81733 0
M  V30 6062 N 800.431 6.31963 -0.860928 0
M  V30 6063 N 802.181 5.86688 -2.32562 0
M  V30 6064 C 802.638 4.97525 -3.23407 0
M  V30 6065 H 804.807 6.62195 -3.11261 0
M  V30 6066 H 805.99 4.42488 -4.8131 0
M  V30 6067 H 807.475 5.93051 -5.9305 0
M  V30 6068 H 805.78 7.92655 -6.402 0
M  V30 6069 H 805.59 6.26671 -8.0846 0
M  V30 6070 H 803.959 6.29101 -7.32804 0
M  V30 6071 H 799.383 4.25523 -1.77604 0
M  V30 6072 H 804.59 3.75576 -5.47333 0
M  V30 6073 H 799.52 6.04684 -0.468946 0
M  V30 6074 H 800.896 7.18054 -0.542422 0
M  V30 6075 H 806.6 5.84223 -2.47279 0
M  V30 6076 P 808.456 7.39546 -4.75277 0
M  V30 6077 O 809.878 7.84798 -5.01039 0
M  V30 6078 O 808.096 5.9812 -5.08098 0
M  V30 6079 O 808.133 7.57503 -3.1866 0
M  V30 6080 C 807.973 8.97357 -2.74833 0
M  V30 6081 C 808.513 9.07548 -1.32709 0
M  V30 6082 O 807.457 8.62072 -0.606159 0
M  V30 6083 C 809.731 8.25383 -0.938334 0
M  V30 6084 O 810.469 8.74577 0.146954 0
M  V30 6085 C 809.062 6.8802 -0.712559 0
M  V30 6086 O 809.861 6.1189 0.194655 0
M  V30 6087 C 807.725 7.27966 -0.139777 0
M  V30 6088 H 807.757 7.25354 0.961601 0
M  V30 6089 H 808.94 6.32557 -1.65702 0
M  V30 6090 H 810.424 8.19355 -1.79097 0
M  V30 6091 H 808.73 10.1294 -1.10029 0
M  V30 6092 H 808.54 9.64276 -3.41316 0
M  V30 6093 H 806.91 9.25417 -2.76357 0
M  V30 6094 H 809.549 6.25267 1.07847 0
M  V30 6095 P 811.407 8.791 6.00516e-12 0
M  V30 6096 O 812.808 9.36698 -0.018734 0
M  V30 6097 O 811.029 7.82499 -1.07878 0
M  V30 6098 O 811.084 8.09434 1.41446 0
M  V30 6099 C 810.924 9.0349 2.53943 0
M  V30 6100 C 811.464 8.35135 3.78975 0
M  V30 6101 O 810.408 7.57904 4.1503 0
M  V30 6102 C 812.681 7.45087 3.67298 0
M  V30 6103 O 813.42 7.27796 4.85194 0
M  V30 6104 C 812.014 6.17323 3.12027 0
M  V30 6105 O 812.812 5.04149 3.47132 0
M  V30 6106 C 810.676 6.19961 3.81809 0
M  V30 6107 N 809.633 5.71575 2.93223 0
M  V30 6108 C 808.598 4.99452 3.47592 0
M  V30 6109 O 808.637 4.7199 4.69732 0
M  V30 6110 N 807.586 4.58505 2.6803 0
M  V30 6111 C 807.634 4.85544 1.36995 0
M  V30 6112 N 806.624 4.45052 0.609031 0
M  V30 6113 C 808.73 5.55532 0.788532 0
M  V30 6114 C 809.696 5.97426 1.60849 0
M  V30 6115 H 810.708 5.58142 4.72986 0
M  V30 6116 H 811.891 6.21428 2.0318 0
M  V30 6117 H 813.375 7.85913 2.93131 0
M  V30 6118 H 811.681 9.11171 4.55987 0
M  V30 6119 H 811.49 9.9573 2.34194 0
M  V30 6120 H 809.86 9.27824 2.67805 0
M  V30 6121 H 808.778 5.7421 -0.281588 0
M  V30 6122 H 810.542 6.53132 1.202 0
M  V30 6123 H 805.834 3.94123 1.03159 0
M  V30 6124 H 806.629 4.64377 -0.400352 0
M  V30 6125 H 812.596 4.76386 4.34983 0
M  V30 6126 P 814.357 7.39546 4.75277 0
M  V30 6127 O 815.779 7.81777 5.05738 0
M  V30 6128 O 813.997 7.1065 3.32998 0
M  V30 6129 O 814.034 6.04542 5.56673 0
M  V30 6130 C 813.874 6.22772 7.02095 0
M  V30 6131 C 814.414 4.97725 7.70406 0
M  V30 6132 O 813.358 4.13256 7.58987 0
M  V30 6133 C 815.632 4.28231 7.11815 0
M  V30 6134 O 816.37 3.49945 8.01648 0
M  V30 6135 C 814.963 3.5063 5.96244 0
M  V30 6136 O 815.762 2.36482 5.64681 0
M  V30 6137 C 813.626 3.15122 6.56374 0
M  V30 6138 H 813.658 2.13853 6.99751 0
M  V30 6139 H 814.841 4.13501 5.06559 0
M  V30 6140 H 816.325 5.03285 6.70911 0
M  V30 6141 H 814.631 5.20877 8.75697 0
M  V30 6142 H 814.441 7.11046 7.35349 0
M  V30 6143 H 812.811 6.35815 7.26986 0
M  V30 6144 H 815.45 1.61644 6.13565 0
M  V30 6145 P 817.308 3.65191 7.99657 0
M  V30 6146 O 818.73 3.84333 8.48297 0
M  V30 6147 O 816.948 4.17805 6.64342 0
M  V30 6148 O 816.985 2.07613 7.95143 0
M  V30 6149 C 816.825 1.44328 9.27336 0
M  V30 6150 C 817.365 0.0220012 9.17097 0
M  V30 6151 O 816.31 -0.626867 8.61923 0
M  V30 6152 C 818.583 -0.24586 8.30336 0
M  V30 6153 O 819.321 -1.39011 8.63583 0
M  V30 6154 C 817.915 -0.273849 6.91158 0
M  V30 6155 O 818.713 -1.06331 6.02794 0
M  V30 6156 C 816.577 -0.897649 7.22545 0
M  V30 6157 N 815.534 -0.292839 6.41732 0
M  V30 6158 C 815.596 1.00068 6.10757 0
M  V30 6159 N 814.551 1.36468 5.35794 0
M  V30 6160 C 813.817 0.258894 5.2366 0
M  V30 6161 C 812.511 0.0670682 4.65752 0
M  V30 6162 O 811.778 0.902443 4.10497 0
M  V30 6163 N 812.081 -1.2131 4.75881 0
M  V30 6164 C 812.83 -2.24934 5.37101 0
M  V30 6165 N 812.233 -3.48783 5.33984 0
M  V30 6166 N 813.983 -2.0844 5.95684 0
M  V30 6167 C 814.44 -0.81395 5.87791 0
M  V30 6168 H 816.609 -1.9841 7.04286 0
M  V30 6169 H 817.792 0.739815 6.49601 0
M  V30 6170 H 819.277 0.598315 8.36563 0
M  V30 6171 H 817.582 -0.352479 10.1829 0
M  V30 6172 H 817.392 2.00611 10.0304 0
M  V30 6173 H 815.761 1.41843 9.55327 0
M  V30 6174 H 811.185 -1.44434 4.37895 0
M  V30 6175 H 816.392 1.67697 6.42268 0
M  V30 6176 H 811.322 -3.60543 4.87699 0
M  V30 6177 H 812.698 -4.29232 5.7819 0
M  V30 6178 H 818.402 -1.95704 6.0346 0
M  V30 6179 P 820.258 -1.25109 8.70152 0
M  V30 6180 O 821.659 -1.31452 9.27431 0
M  V30 6181 O 819.88 -0.0458113 7.89887 0
M  V30 6182 O 819.935 -2.55201 7.81066 0
M  V30 6183 C 819.775 -3.79939 8.58154 0
M  V30 6184 C 820.315 -4.93969 7.72701 0
M  V30 6185 O 819.259 -5.18666 6.91125 0
M  V30 6186 C 821.532 -4.69597 6.85231 0
M  V30 6187 O 822.271 -5.83832 6.51337 0
M  V30 6188 C 820.865 -3.96706 5.66633 0
M  V30 6189 O 821.663 -4.15346 4.49615 0
M  V30 6190 C 819.527 -4.66153 5.59313 0
M  V30 6191 N 818.484 -3.71582 5.24027 0
M  V30 6192 C 817.449 -4.15133 4.44901 0
M  V30 6193 O 817.488 -5.32122 4.00336 0
M  V30 6194 N 816.437 -3.30554 4.15693 0
M  V30 6195 C 816.485 -2.04701 4.61105 0
M  V30 6196 N 815.475 -1.23621 4.31855 0
M  V30 6197 C 817.581 -1.57111 5.38655 0
M  V30 6198 C 818.547 -2.44234 5.68454 0
M  V30 6199 H 819.559 -5.47604 4.85148 0
M  V30 6200 H 820.742 -2.8955 5.86187 0
M  V30 6201 H 822.226 -4.01995 7.36197 0
M  V30 6202 H 820.532 -5.81019 8.37003 0
M  V30 6203 H 820.341 -3.73517 9.52265 0
M  V30 6204 H 818.711 -3.97122 8.80267 0
M  V30 6205 H 817.629 -0.538464 5.72373 0
M  V30 6206 H 819.393 -2.11927 6.29377 0
M  V30 6207 H 814.685 -1.58199 3.7543 0
M  V30 6208 H 815.48 -0.264601 4.65348 0
M  V30 6209 H 821.447 -4.98352 4.09633 0
M  V30 6210 P 823.209 -5.75688 6.64379 0
M  V30 6211 O 824.631 -6.11849 7.01846 0
M  V30 6212 O 822.849 -4.30744 6.56026 0
M  V30 6213 O 822.886 -6.37042 5.19165 0
M  V30 6214 C 822.726 -7.83578 5.16515 0
M  V30 6215 C 823.266 -8.33398 3.83019 0
M  V30 6216 O 822.21 -8.10074 3.01034 0
M  V30 6217 C 824.484 -7.65514 3.2257 0
M  V30 6218 O 825.222 -8.4329 2.32297 0
M  V30 6219 C 823.815 -6.40075 2.62207 0
M  V30 6220 O 824.614 -5.92589 1.53712 0
M  V30 6221 C 822.478 -6.9454 2.18503 0
M  V30 6222 H 822.51 -7.23063 1.12091 0
M  V30 6223 H 823.693 -5.6025 3.37201 0
M  V30 6224 H 825.177 -7.35707 4.02681 0
M  V30 6225 H 823.483 -9.40912 3.9095 0
M  V30 6226 H 823.293 -8.29056 5.99158 0
M  V30 6227 H 821.663 -8.10073 5.25882 0
M  V30 6228 H 824.302 -6.30324 0.726794 0
M  V30 6229 P 826.16 -8.4349 2.47671 0
M  V30 6230 O 827.582 -8.94167 2.5964 0
M  V30 6231 O 825.8 -7.1704 3.19006 0
M  V30 6232 O 825.837 -8.16596 0.923387 0
M  V30 6233 C 825.677 -9.38437 0.108857 0
M  V30 6234 C 826.217 -9.08175 -1.28353 0
M  V30 6235 O 825.161 -8.44229 -1.84713 0
M  V30 6236 C 827.435 -8.18386 -1.42505 0
M  V30 6237 O 828.173 -8.3501 -2.60497 0
M  V30 6238 C 826.766 -6.80225 -1.25468 0
M  V30 6239 O 827.565 -5.81621 -1.91066 0
M  V30 6240 C 825.429 -7.02416 -1.9168 0
M  V30 6241 H 825.461 -6.6888 -2.96621 0
M  V30 6242 H 826.644 -6.53617 -0.192223 0
M  V30 6243 H 828.128 -8.36622 -0.589963 0
M  V30 6244 H 826.434 -10.0291 -1.79807 0
M  V30 6245 H 826.244 -10.2138 0.558219 0
M  V30 6246 H 824.614 -9.6579 0.0444202 0
M  V30 6247 H 827.253 -5.69556 -2.79637 0
M  V30 6248 P 829.11 -8.4349 -2.47671 0
M  V30 6249 O 830.532 -8.92593 -2.65 0
M  V30 6250 O 828.75 -7.7568 -1.19296 0
M  V30 6251 O 828.787 -7.36886 -3.63805 0
M  V30 6252 C 828.627 -7.95349 -4.982 0
M  V30 6253 C 829.167 -6.94612 -5.98974 0
M  V30 6254 O 828.111 -6.10347 -6.11815 0
M  V30 6255 C 830.385 -6.11426 -5.62335 0
M  V30 6256 O 831.123 -5.6162 -6.70584 0
M  V30 6257 C 829.716 -5.04409 -4.73308 0
M  V30 6258 O 830.515 -3.85992 -4.75183 0
M  V30 6259 C 828.379 -4.8728 -5.41006 0
M  V30 6260 H 828.411 -4.02333 -6.11157 0
M  V30 6261 H 829.594 -5.39466 -3.69543 0
M  V30 6262 H 831.078 -6.71916 -5.01943 0
M  V30 6263 H 829.384 -7.4649 -6.93477 0
M  V30 6264 H 829.194 -8.89416 -5.05237 0
M  V30 6265 H 827.564 -8.14876 -5.18409 0
M  V30 6266 H 830.203 -3.27957 -5.4317 0
M  V30 6267 P 832.061 -5.75688 -6.64379 0
M  V30 6268 O 833.483 -6.07627 -7.05504 0
M  V30 6269 O 831.701 -5.88047 -5.19722 0
M  V30 6270 O 831.738 -4.2322 -7.04443 0
M  V30 6271 C 831.578 -3.99743 -8.4911 0
M  V30 6272 C 832.118 -2.60516 -8.79425 0
M  V30 6273 O 831.062 -1.82684 -8.4467 0
M  V30 6274 C 833.336 -2.10343 -8.03628 0
M  V30 6275 O 834.074 -1.09919 -8.67766 0
M  V30 6276 C 832.667 -1.68446 -6.70876 0
M  V30 6277 O 833.466 -0.678137 -6.08433 0
M  V30 6278 C 831.33 -1.17436 -7.18567 0
M  V30 6279 H 831.362 -0.0804732 -7.31656 0
M  V30 6280 H 832.545 -2.54037 -6.02537 0
M  V30 6281 H 834.029 -2.93881 -7.85526 0
M  V30 6282 H 832.335 -2.53065 -9.86973 0
M  V30 6283 H 832.145 -4.75072 -9.05887 0
M  V30 6284 H 830.515 -4.05244 -8.76668 0
M  V30 6285 H 833.154 0.177647 -6.34251 0
M  V30 6286 P 835.011 -1.25109 -8.70152 0
M  V30 6287 O 836.433 -1.29744 -9.22016 0
M  V30 6288 O 834.651 -2.13714 -7.55141 0
M  V30 6289 O 834.688 0.248149 -8.21425 0
M  V30 6290 C 834.528 1.22779 -9.30434 0
M  V30 6291 C 835.068 2.56293 -8.80664 0
M  V30 6292 O 834.012 3.02979 -8.09349 0
M  V30 6293 C 836.286 2.57523 -7.89775 0
M  V30 6294 O 837.024 3.7668 -7.89438 0
M  V30 6295 C 835.617 2.20997 -6.55446 0
M  V30 6296 O 836.416 2.71895 -5.48509 0
M  V30 6297 C 834.28 2.89693 -6.67988 0
M  V30 6298 H 834.312 3.88793 -6.19859 0
M  V30 6299 H 835.495 1.12046 -6.44229 0
M  V30 6300 H 836.979 1.7746 -8.19711 0
M  V30 6301 H 835.285 3.20706 -9.67112 0
M  V30 6302 H 835.095 0.901032 -10.1892 0
M  V30 6303 H 833.465 1.33049 -9.56592 0
M  V30 6304 H 836.104 3.57847 -5.23962 0
M  V30 6305 P 837.962 3.65191 -7.99657 0
M  V30 6306 O 839.384 3.89332 -8.45794 0
M  V30 6307 O 837.602 2.28472 -7.50807 0
M  V30 6308 O 837.639 4.64972 -6.77611 0
M  V30 6309 C 837.479 6.06319 -7.16352 0
M  V30 6310 C 838.019 6.91731 -6.02299 0
M  V30 6311 O 836.963 6.92449 -5.17064 0
M  V30 6312 C 839.237 6.43627 -5.25174 0
M  V30 6313 O 839.975 7.43686 -4.60469 0
M  V30 6314 C 838.568 5.40275 -4.31916 0
M  V30 6315 O 839.367 5.25279 -3.14438 0
M  V30 6316 C 837.231 6.04847 -4.05327 0
M  V30 6317 H 837.263 6.62195 -3.11261 0
M  V30 6318 H 838.446 4.42556 -4.81383 0
M  V30 6319 H 839.93 5.92458 -5.93643 0
M  V30 6320 H 838.236 7.92655 -6.402 0
M  V30 6321 H 838.046 6.26671 -8.0846 0
M  V30 6322 H 836.416 6.29101 -7.32804 0
M  V30 6323 H 839.055 5.84315 -2.47318 0
M  V30 6324 P 840.912 7.39546 -4.75277 0
M  V30 6325 O 842.334 7.84798 -5.01039 0
M  V30 6326 O 840.552 5.9812 -5.08098 0
M  V30 6327 O 840.589 7.57503 -3.1866 0
M  V30 6328 C 840.429 8.97357 -2.74833 0
M  V30 6329 C 840.969 9.07548 -1.32709 0
M  V30 6330 O 839.913 8.62072 -0.606159 0
M  V30 6331 C 842.187 8.25383 -0.938334 0
M  V30 6332 O 842.925 8.74577 0.146954 0
M  V30 6333 C 841.518 6.8802 -0.712559 0
M  V30 6334 O 842.317 6.1189 0.194655 0
M  V30 6335 C 840.181 7.27966 -0.139777 0
M  V30 6336 H 840.213 7.25354 0.961601 0
M  V30 6337 H 841.396 6.32557 -1.65702 0
M  V30 6338 H 842.88 8.19355 -1.79097 0
M  V30 6339 H 841.186 10.1294 -1.10029 0
M  V30 6340 H 840.996 9.64276 -3.41316 0
M  V30 6341 H 839.366 9.25417 -2.76357 0
M  V30 6342 H 842.005 6.25267 1.07847 0
M  V30 6343 P 843.863 8.791 6.31533e-12 0
M  V30 6344 O 845.285 9.31096 0.027933 0
M  V30 6345 O 843.503 7.77869 -1.04071 0
M  V30 6346 O 843.54 8.09533 1.41463 0
M  V30 6347 C 843.38 9.0349 2.53943 0
M  V30 6348 C 843.92 8.35226 3.79016 0
M  V30 6349 O 842.864 7.57992 4.15078 0
M  V30 6350 C 845.138 7.45087 3.67298 0
M  V30 6351 O 845.876 7.27796 4.85194 0
M  V30 6352 C 844.469 6.17323 3.12027 0
M  V30 6353 O 845.268 5.04231 3.47188 0
M  V30 6354 C 843.132 6.19961 3.81809 0
M  V30 6355 H 843.164 5.58218 4.73051 0
M  V30 6356 H 844.347 6.21726 2.02589 0
M  V30 6357 H 845.831 7.86112 2.9231 0
M  V30 6358 H 844.137 9.11627 4.55076 0
M  V30 6359 H 843.947 9.9573 2.34194 0
M  V30 6360 H 842.317 9.2792 2.67832 0
M  V30 6361 H 844.956 4.67702 4.28772 0
M  V30 6362 P 846.814 7.39546 4.75277 0
M  V30 6363 O 848.236 7.81777 5.05738 0
M  V30 6364 O 846.454 7.1065 3.32998 0
M  V30 6365 O 846.491 6.04542 5.56673 0
M  V30 6366 C 846.331 6.22772 7.02095 0
M  V30 6367 C 846.871 4.97725 7.70406 0
M  V30 6368 O 845.815 4.13256 7.58987 0
M  V30 6369 C 848.089 4.28231 7.11815 0
M  V30 6370 O 848.827 3.49945 8.01648 0
M  V30 6371 C 847.42 3.5063 5.96244 0
M  V30 6372 O 848.219 2.36482 5.64681 0
M  V30 6373 C 846.083 3.15122 6.56374 0
M  V30 6374 H 846.115 2.13853 6.99751 0
M  V30 6375 H 847.298 4.13501 5.06559 0
M  V30 6376 H 848.782 5.03285 6.70911 0
M  V30 6377 H 847.088 5.20877 8.75697 0
M  V30 6378 H 846.898 7.11046 7.35349 0
M  V30 6379 H 845.268 6.35815 7.26986 0
M  V30 6380 H 847.907 1.61644 6.13565 0
M  V30 6381 P 849.764 3.65191 7.99657 0
M  V30 6382 O 851.186 3.84333 8.48297 0
M  V30 6383 O 849.404 4.17805 6.64342 0
M  V30 6384 O 849.441 2.07613 7.95143 0
M  V30 6385 C 849.281 1.44328 9.27336 0
M  V30 6386 C 849.821 0.0220012 9.17097 0
M  V30 6387 O 848.766 -0.626867 8.61923 0
M  V30 6388 C 851.039 -0.24586 8.30336 0
M  V30 6389 O 851.777 -1.39011 8.63583 0
M  V30 6390 C 850.371 -0.273849 6.91158 0
M  V30 6391 O 851.169 -1.06331 6.02794 0
M  V30 6392 C 849.033 -0.897649 7.22545 0
M  V30 6393 N 847.99 -0.292839 6.41732 0
M  V30 6394 C 848.052 1.00068 6.10757 0
M  V30 6395 N 847.007 1.36468 5.35794 0
M  V30 6396 C 846.273 0.258894 5.2366 0
M  V30 6397 C 844.967 0.0670682 4.65752 0
M  V30 6398 O 844.234 0.902443 4.10497 0
M  V30 6399 N 844.537 -1.2131 4.75881 0
M  V30 6400 C 845.286 -2.24934 5.37101 0
M  V30 6401 N 844.689 -3.48783 5.33984 0
M  V30 6402 N 846.439 -2.0844 5.95684 0
M  V30 6403 C 846.896 -0.81395 5.87791 0
M  V30 6404 H 849.065 -1.9841 7.04286 0
M  V30 6405 H 850.248 0.739815 6.49601 0
M  V30 6406 H 851.733 0.598315 8.36563 0
M  V30 6407 H 850.038 -0.352479 10.1829 0
M  V30 6408 H 849.848 2.00611 10.0304 0
M  V30 6409 H 848.217 1.41843 9.55327 0
M  V30 6410 H 843.641 -1.44434 4.37895 0
M  V30 6411 H 848.848 1.67697 6.42268 0
M  V30 6412 H 843.778 -3.60543 4.87699 0
M  V30 6413 H 845.154 -4.29232 5.7819 0
M  V30 6414 H 850.858 -1.95704 6.0346 0
M  V30 6415 P 852.715 -1.25109 8.70152 0
M  V30 6416 O 854.137 -1.35274 9.21221 0
M  V30 6417 O 852.355 -0.0769065 7.84762 0
M  V30 6418 O 852.392 -2.55232 7.81161 0
M  V30 6419 C 852.232 -3.79939 8.58154 0
M  V30 6420 C 852.772 -4.94023 7.72785 0
M  V30 6421 O 851.716 -5.18726 6.91205 0
M  V30 6422 C 853.99 -4.69597 6.85231 0
M  V30 6423 O 854.728 -5.83832 6.51337 0
M  V30 6424 C 853.321 -3.96706 5.66633 0
M  V30 6425 O 854.12 -4.15414 4.49689 0
M  V30 6426 C 851.984 -4.66153 5.59313 0
M  V30 6427 H 852.016 -5.47679 4.85214 0
M  V30 6428 H 853.199 -2.89008 5.86566 0
M  V30 6429 H 854.683 -4.0121 7.36511 0
M  V30 6430 H 852.989 -5.80182 8.37584 0
M  V30 6431 H 852.799 -3.73517 9.52265 0
M  V30 6432 H 851.169 -3.97163 8.80359 0
M  V30 6433 H 853.808 -4.90969 4.01921 0
M  V30 6434 P 855.665 -5.75688 6.64379 0
M  V30 6435 O 857.086 -6.11915 7.01921 0
M  V30 6436 O 855.305 -4.30744 6.56026 0
M  V30 6437 O 855.342 -6.37042 5.19165 0
M  V30 6438 C 855.181 -7.83662 5.1657 0
M  V30 6439 C 855.722 -8.33398 3.83019 0
M  V30 6440 O 854.667 -8.0998 3.00999 0
M  V30 6441 C 856.94 -7.65514 3.2257 0
M  V30 6442 O 857.678 -8.4329 2.32297 0
M  V30 6443 C 856.272 -6.40075 2.62207 0
M  V30 6444 O 857.07 -5.92338 1.5428 0
M  V30 6445 C 854.934 -6.9454 2.18503 0
M  V30 6446 N 853.891 -5.95905 2.39948 0
M  V30 6447 C 854.06 -4.98383 3.32108 0
M  V30 6448 N 853.033 -4.16798 3.41761 0
M  V30 6449 C 852.148 -4.65287 2.47461 0
M  V30 6450 C 850.881 -4.18946 2.07461 0
M  V30 6451 N 850.282 -3.09661 2.60717 0
M  V30 6452 N 850.316 -4.95327 1.09101 0
M  V30 6453 C 850.918 -6.04369 0.519812 0
M  V30 6454 N 852.095 -6.50694 0.855982 0
M  V30 6455 C 852.67 -5.75818 1.84322 0
M  V30 6456 H 854.966 -7.22964 1.12076 0
M  V30 6457 H 856.149 -5.60502 3.36589 0
M  V30 6458 H 857.632 -7.35707 4.02681 0
M  V30 6459 H 855.938 -9.41302 3.90009 0
M  V30 6460 H 855.748 -8.29056 5.99158 0
M  V30 6461 H 854.118 -8.10073 5.25882 0
M  V30 6462 H 850.382 -6.55843 -0.270373 0
M  V30 6463 H 854.96 -4.88564 3.92502 0
M  V30 6464 H 849.352 -2.80523 2.27218 0
M  V30 6465 H 850.756 -2.55848 3.34465 0
M  V30 6466 H 856.758 -6.30224 0.72668 0
M  V30 6467 P 858.616 -8.4349 2.47671 0
M  V30 6468 O 860.038 -8.94167 2.5964 0
M  V30 6469 O 858.256 -7.1704 3.19006 0
M  V30 6470 O 858.293 -8.16596 0.923387 0
M  V30 6471 C 858.133 -9.38437 0.108857 0
M  V30 6472 C 858.673 -9.08175 -1.28353 0
M  V30 6473 O 857.617 -8.44229 -1.84713 0
M  V30 6474 C 859.891 -8.18386 -1.42505 0
M  V30 6475 O 860.629 -8.3501 -2.60497 0
M  V30 6476 C 859.222 -6.80225 -1.25468 0
M  V30 6477 O 860.021 -5.81621 -1.91066 0
M  V30 6478 C 857.885 -7.02416 -1.9168 0
M  V30 6479 H 857.917 -6.6888 -2.96621 0
M  V30 6480 H 859.1 -6.53617 -0.192223 0
M  V30 6481 H 860.584 -8.36622 -0.589963 0
M  V30 6482 H 858.89 -10.0291 -1.79807 0
M  V30 6483 H 858.7 -10.2138 0.558219 0
M  V30 6484 H 857.07 -9.6579 0.0444202 0
M  V30 6485 H 859.709 -5.69556 -2.79637 0
M  V30 6486 P 861.566 -8.4349 -2.47671 0
M  V30 6487 O 862.988 -8.92785 -2.65057 0
M  V30 6488 O 861.206 -7.7568 -1.19296 0
M  V30 6489 O 861.243 -7.36886 -3.63805 0
M  V30 6490 C 861.083 -7.95349 -4.982 0
M  V30 6491 C 861.623 -6.94537 -5.98908 0
M  V30 6492 O 860.568 -6.10347 -6.11815 0
M  V30 6493 C 862.841 -6.11426 -5.62335 0
M  V30 6494 O 863.579 -5.6162 -6.70584 0
M  V30 6495 C 862.173 -5.04409 -4.73308 0
M  V30 6496 O 862.971 -3.85929 -4.75106 0
M  V30 6497 C 860.835 -4.8728 -5.41006 0
M  V30 6498 N 859.792 -4.65812 -4.42377 0
M  V30 6499 C 859.854 -5.27109 -3.24335 0
M  V30 6500 N 858.809 -4.94293 -2.47735 0
M  V30 6501 C 858.075 -4.1271 -3.23359 0
M  V30 6502 C 856.769 -3.56384 -2.99934 0
M  V30 6503 O 856.036 -3.69331 -2.00616 0
M  V30 6504 N 856.339 -2.80206 -4.03316 0
M  V30 6505 C 857.088 -2.58614 -5.2172 0
M  V30 6506 N 856.491 -1.75154 -6.13278 0
M  V30 6507 N 858.241 -3.13689 -5.47619 0
M  V30 6508 C 858.698 -3.90921 -4.46436 0
M  V30 6509 H 860.867 -4.02333 -6.11157 0
M  V30 6510 H 862.05 -5.39383 -3.69487 0
M  V30 6511 H 863.535 -6.71414 -5.02615 0
M  V30 6512 H 861.84 -7.4649 -6.93477 0
M  V30 6513 H 861.65 -8.89416 -5.05237 0
M  V30 6514 H 860.019 -8.14876 -5.18409 0
M  V30 6515 H 855.443 -2.36355 -3.95916 0
M  V30 6516 H 860.65 -5.95212 -2.93859 0
M  V30 6517 H 855.58 -1.32473 -5.91856 0
M  V30 6518 H 856.956 -1.5588 -7.03026 0
M  V30 6519 H 862.66 -3.27906 -5.43085 0
M  V30 6520 P 864.517 -5.75688 -6.64379 0
M  V30 6521 O 865.939 -6.07627 -7.05504 0
M  V30 6522 O 864.157 -5.88047 -5.19722 0
M  V30 6523 O 864.194 -4.2322 -7.04443 0
M  V30 6524 C 864.034 -3.99743 -8.4911 0
M  V30 6525 C 864.574 -2.60516 -8.79425 0
M  V30 6526 O 863.518 -1.82684 -8.4467 0
M  V30 6527 C 865.792 -2.10343 -8.03628 0
M  V30 6528 O 866.53 -1.09919 -8.67766 0
M  V30 6529 C 865.123 -1.68446 -6.70876 0
M  V30 6530 O 865.922 -0.678137 -6.08433 0
M  V30 6531 C 863.786 -1.17436 -7.18567 0
M  V30 6532 H 863.818 -0.0804732 -7.31656 0
M  V30 6533 H 865.001 -2.54037 -6.02537 0
M  V30 6534 H 866.485 -2.93881 -7.85526 0
M  V30 6535 H 864.791 -2.53065 -9.86973 0
M  V30 6536 H 864.601 -4.75072 -9.05887 0
M  V30 6537 H 862.971 -4.05244 -8.76668 0
M  V30 6538 H 865.61 0.177647 -6.34251 0
M  V30 6539 P 867.468 -1.25109 -8.70152 0
M  V30 6540 O 868.89 -1.29744 -9.22016 0
M  V30 6541 O 867.108 -2.13714 -7.55141 0
M  V30 6542 O 867.145 0.248149 -8.21425 0
M  V30 6543 C 866.985 1.22779 -9.30434 0
M  V30 6544 C 867.525 2.56293 -8.80664 0
M  V30 6545 O 866.469 3.02979 -8.09349 0
M  V30 6546 C 868.743 2.57523 -7.89775 0
M  V30 6547 O 869.481 3.7668 -7.89438 0
M  V30 6548 C 868.074 2.20997 -6.55446 0
M  V30 6549 O 868.873 2.71895 -5.48509 0
M  V30 6550 C 866.737 2.89693 -6.67988 0
M  V30 6551 H 866.769 3.88793 -6.19859 0
M  V30 6552 H 867.952 1.12046 -6.44229 0
M  V30 6553 H 869.436 1.7746 -8.19711 0
M  V30 6554 H 867.742 3.20706 -9.67112 0
M  V30 6555 H 867.552 0.901032 -10.1892 0
M  V30 6556 H 865.922 1.33049 -9.56592 0
M  V30 6557 H 868.561 3.57847 -5.23962 0
M  V30 6558 P 870.418 3.65191 -7.99657 0
M  V30 6559 O 871.84 3.89332 -8.45794 0
M  V30 6560 O 870.058 2.28472 -7.50807 0
M  V30 6561 O 870.095 4.64972 -6.77611 0
M  V30 6562 C 869.935 6.06319 -7.16352 0
M  V30 6563 C 870.475 6.91731 -6.02299 0
M  V30 6564 O 869.419 6.92449 -5.17064 0
M  V30 6565 C 871.693 6.43627 -5.25174 0
M  V30 6566 O 872.431 7.43686 -4.60469 0
M  V30 6567 C 871.024 5.40275 -4.31916 0
M  V30 6568 O 871.823 5.25279 -3.14438 0
M  V30 6569 C 869.687 6.04847 -4.05327 0
M  V30 6570 H 869.719 6.62195 -3.11261 0
M  V30 6571 H 870.902 4.42556 -4.81383 0
M  V30 6572 H 872.386 5.92458 -5.93643 0
M  V30 6573 H 870.692 7.92655 -6.402 0
M  V30 6574 H 870.502 6.26671 -8.0846 0
M  V30 6575 H 868.872 6.29101 -7.32804 0
M  V30 6576 H 871.511 5.84315 -2.47318 0
M  V30 6577 P 873.369 7.39546 -4.75277 0
M  V30 6578 O 874.791 7.84798 -5.01039 0
M  V30 6579 O 873.009 5.9812 -5.08098 0
M  V30 6580 O 873.046 7.57503 -3.1866 0
M  V30 6581 C 872.886 8.97357 -2.74833 0
M  V30 6582 C 873.426 9.07548 -1.32709 0
M  V30 6583 O 872.37 8.62072 -0.606159 0
M  V30 6584 C 874.644 8.25383 -0.938334 0
M  V30 6585 O 875.382 8.74577 0.146954 0
M  V30 6586 C 873.975 6.8802 -0.712559 0
M  V30 6587 O 874.774 6.1189 0.194655 0
M  V30 6588 C 872.638 7.27966 -0.139777 0
M  V30 6589 H 872.67 7.25354 0.961601 0
M  V30 6590 H 873.853 6.32557 -1.65702 0
M  V30 6591 H 875.337 8.19355 -1.79097 0
M  V30 6592 H 873.643 10.1294 -1.10029 0
M  V30 6593 H 873.453 9.64276 -3.41316 0
M  V30 6594 H 871.823 9.25417 -2.76357 0
M  V30 6595 H 874.462 6.25267 1.07847 0
M  V30 6596 P 876.319 8.791 6.62549e-12 0
M  V30 6597 O 877.74 9.31196 0.027936 0
M  V30 6598 O 875.959 7.77869 -1.04071 0
M  V30 6599 O 875.996 8.09533 1.41463 0
M  V30 6600 C 875.835 9.03587 2.5397 0
M  V30 6601 C 876.376 8.35226 3.79016 0
M  V30 6602 O 875.321 7.57904 4.1503 0
M  V30 6603 C 877.594 7.45087 3.67298 0
M  V30 6604 O 878.332 7.27796 4.85194 0
M  V30 6605 C 876.926 6.17323 3.12027 0
M  V30 6606 O 877.724 5.04496 3.46627 0
M  V30 6607 C 875.588 6.19961 3.81809 0
M  V30 6608 N 874.545 5.71575 2.93223 0
M  V30 6609 C 874.714 5.77362 1.59168 0
M  V30 6610 N 873.687 5.3123 0.911893 0
M  V30 6611 C 872.802 4.91717 1.89588 0
M  V30 6612 C 871.535 4.3114 1.8076 0
M  V30 6613 N 870.936 3.99821 0.632928 0
M  V30 6614 N 870.97 4.06823 3.02898 0
M  V30 6615 C 871.572 4.35062 4.22711 0
M  V30 6616 N 872.749 4.90805 4.35707 0
M  V30 6617 C 873.324 5.16382 3.14469 0
M  V30 6618 H 875.62 5.58142 4.72986 0
M  V30 6619 H 876.803 6.21428 2.0318 0
M  V30 6620 H 878.286 7.86112 2.9231 0
M  V30 6621 H 876.592 9.11171 4.55987 0
M  V30 6622 H 876.402 9.9573 2.34194 0
M  V30 6623 H 874.772 9.2792 2.67832 0
M  V30 6624 H 871.036 4.09052 5.13359 0
M  V30 6625 H 875.614 6.16575 1.12198 0
M  V30 6626 H 870.006 3.55423 0.632085 0
M  V30 6627 H 871.41 4.20317 -0.256712 0
M  V30 6628 H 877.412 4.67628 4.28704 0
M  V30 6629 P 879.27 7.39546 4.75277 0
M  V30 6630 O 880.671 7.89013 5.04841 0
M  V30 6631 O 878.892 7.16603 3.32298 0
M  V30 6632 O 878.947 6.04468 5.56605 0
M  V30 6633 C 878.787 6.22772 7.02095 0
M  V30 6634 C 879.327 4.97671 7.70322 0
M  V30 6635 O 878.271 4.13208 7.58899 0
M  V30 6636 C 880.544 4.28231 7.11815 0
M  V30 6637 O 881.283 3.49945 8.01648 0
M  V30 6638 C 879.877 3.5063 5.96244 0
M  V30 6639 O 880.675 2.36443 5.64589 0
M  V30 6640 C 878.539 3.15122 6.56374 0
M  V30 6641 N 877.496 3.22311 5.55692 0
M  V30 6642 C 876.461 2.32244 5.62437 0
M  V30 6643 O 876.5 1.43107 6.50341 0
M  V30 6644 N 875.449 2.40811 4.73368 0
M  V30 6645 C 875.497 3.344 3.77753 0
M  V30 6646 C 876.593 4.24712 3.66679 0
M  V30 6647 C 877.559 4.15625 4.58307 0
M  V30 6648 H 878.571 2.13823 6.99656 0
M  V30 6649 H 879.754 4.12931 5.06895 0
M  V30 6650 H 881.238 5.02674 6.71494 0
M  V30 6651 H 879.544 5.20001 8.76217 0
M  V30 6652 H 879.353 7.11046 7.35349 0
M  V30 6653 H 877.723 6.35749 7.26911 0
M  V30 6654 H 876.641 4.9828 2.86753 0
M  V30 6655 H 878.405 4.84464 4.54228 0
M  V30 6656 H 880.459 1.65592 6.23485 0
M  V30 6657 P 882.22 3.65191 7.99657 0
M  V30 6658 O 883.642 3.8425 8.48115 0
M  V30 6659 O 881.86 4.17805 6.64342 0
M  V30 6660 O 881.897 2.07613 7.95143 0
M  V30 6661 C 881.737 1.44328 9.27336 0
M  V30 6662 C 882.277 0.0220036 9.17197 0
M  V30 6663 O 881.221 -0.626867 8.61923 0
M  V30 6664 C 883.495 -0.24586 8.30336 0
M  V30 6665 O 884.233 -1.39011 8.63583 0
M  V30 6666 C 882.826 -0.273849 6.91158 0
M  V30 6667 O 883.625 -1.06348 6.02892 0
M  V30 6668 C 881.489 -0.897649 7.22545 0
M  V30 6669 H 881.521 -1.9841 7.04286 0
M  V30 6670 H 882.704 0.739928 6.497 0
M  V30 6671 H 884.188 0.60668 8.36503 0
M  V30 6672 H 882.494 -0.352479 10.1829 0
M  V30 6673 H 882.304 2.00611 10.0304 0
M  V30 6674 H 880.674 1.41843 9.55327 0
M  V30 6675 H 883.313 -1.95734 6.03555 0
M  V30 6676 P 885.171 -1.25109 8.70152 0
M  V30 6677 O 886.592 -1.35288 9.2132 0
M  V30 6678 O 884.811 -0.0769065 7.84762 0
M  V30 6679 O 884.848 -2.55232 7.81161 0
M  V30 6680 C 884.687 -3.79979 8.58246 0
M  V30 6681 C 885.228 -4.94023 7.72785 0
M  V30 6682 O 884.173 -5.18666 6.91125 0
M  V30 6683 C 886.446 -4.69597 6.85231 0
M  V30 6684 O 887.184 -5.83832 6.51337 0
M  V30 6685 C 885.778 -3.96706 5.66633 0
M  V30 6686 O 886.576 -4.14896 4.5003 0
M  V30 6687 C 884.44 -4.66153 5.59313 0
M  V30 6688 N 883.397 -3.71582 5.24027 0
M  V30 6689 C 883.566 -2.39715 5.48833 0
M  V30 6690 N 882.539 -1.65863 5.12845 0
M  V30 6691 C 881.654 -2.57637 4.5973 0
M  V30 6692 C 880.387 -2.40278 4.01027 0
M  V30 6693 N 879.788 -1.19549 3.86744 0
M  V30 6694 N 879.822 -3.57711 3.59575 0
M  V30 6695 C 880.424 -4.80324 3.70476 0
M  V30 6696 N 881.601 -5.01121 4.23801 0
M  V30 6697 C 882.176 -3.84757 4.66372 0
M  V30 6698 H 884.472 -5.47604 4.85148 0
M  V30 6699 H 885.655 -2.8955 5.86187 0
M  V30 6700 H 887.138 -4.0121 7.36511 0
M  V30 6701 H 885.444 -5.81019 8.37003 0
M  V30 6702 H 885.254 -3.73517 9.52265 0
M  V30 6703 H 883.624 -3.97163 8.80359 0
M  V30 6704 H 879.888 -5.66348 3.3183 0
M  V30 6705 H 884.466 -1.98804 5.94332 0
M  V30 6706 H 878.858 -1.13147 3.4281 0
M  V30 6707 H 880.262 -0.344074 4.19692 0
M  V30 6708 H 886.264 -4.90891 4.01857 0
M  V30 6709 P 888.122 -5.75688 6.64379 0
M  V30 6710 O 889.544 -6.11849 7.01846 0
M  V30 6711 O 887.762 -4.30744 6.56026 0
M  V30 6712 O 887.799 -6.37042 5.19165 0
M  V30 6713 C 887.639 -7.83578 5.16515 0
M  V30 6714 C 888.179 -8.33398 3.83019 0
M  V30 6715 O 887.123 -8.10074 3.01034 0
M  V30 6716 C 889.397 -7.65514 3.2257 0
M  V30 6717 O 890.135 -8.4329 2.32297 0
M  V30 6718 C 888.728 -6.40075 2.62207 0
M  V30 6719 O 889.527 -5.92589 1.53712 0
M  V30 6720 C 887.391 -6.9454 2.18503 0
M  V30 6721 H 887.423 -7.23063 1.12091 0
M  V30 6722 H 888.606 -5.6025 3.37201 0
M  V30 6723 H 890.09 -7.35707 4.02681 0
M  V30 6724 H 888.396 -9.40912 3.9095 0
M  V30 6725 H 888.206 -8.29056 5.99158 0
M  V30 6726 H 886.576 -8.10073 5.25882 0
M  V30 6727 H 889.215 -6.30324 0.726794 0
M  V30 6728 P 891.072 -8.4349 2.47671 0
M  V30 6729 O 892.494 -8.94167 2.5964 0
M  V30 6730 O 890.712 -7.1704 3.19006 0
M  V30 6731 O 890.749 -8.16596 0.923387 0
M  V30 6732 C 890.589 -9.38437 0.108857 0
M  V30 6733 C 891.129 -9.08175 -1.28353 0
M  V30 6734 O 890.073 -8.44229 -1.84713 0
M  V30 6735 C 892.347 -8.18386 -1.42505 0
M  V30 6736 O 893.085 -8.3501 -2.60497 0
M  V30 6737 C 891.678 -6.80225 -1.25468 0
M  V30 6738 O 892.477 -5.81621 -1.91066 0
M  V30 6739 C 890.341 -7.02416 -1.9168 0
M  V30 6740 H 890.373 -6.6888 -2.96621 0
M  V30 6741 H 891.556 -6.53617 -0.192223 0
M  V30 6742 H 893.04 -8.36622 -0.589963 0
M  V30 6743 H 891.346 -10.0291 -1.79807 0
M  V30 6744 H 891.156 -10.2138 0.558219 0
M  V30 6745 H 889.526 -9.6579 0.0444202 0
M  V30 6746 H 892.165 -5.69556 -2.79637 0
M  V30 6747 P 894.023 -8.4349 -2.47671 0
M  V30 6748 O 895.445 -8.92593 -2.65 0
M  V30 6749 O 893.663 -7.7568 -1.19296 0
M  V30 6750 O 893.7 -7.36886 -3.63805 0
M  V30 6751 C 893.54 -7.95349 -4.982 0
M  V30 6752 C 894.08 -6.94612 -5.98974 0
M  V30 6753 O 893.024 -6.10347 -6.11815 0
M  V30 6754 C 895.298 -6.11426 -5.62335 0
M  V30 6755 O 896.036 -5.6162 -6.70584 0
M  V30 6756 C 894.629 -5.04409 -4.73308 0
M  V30 6757 O 895.428 -3.85992 -4.75183 0
M  V30 6758 C 893.292 -4.8728 -5.41006 0
M  V30 6759 H 893.324 -4.02333 -6.11157 0
M  V30 6760 H 894.507 -5.39466 -3.69543 0
M  V30 6761 H 895.991 -6.71916 -5.01943 0
M  V30 6762 H 894.297 -7.4649 -6.93477 0
M  V30 6763 H 894.107 -8.89416 -5.05237 0
M  V30 6764 H 892.477 -8.14876 -5.18409 0
M  V30 6765 H 895.116 -3.27957 -5.4317 0
M  V30 6766 P 896.973 -5.75688 -6.64379 0
M  V30 6767 O 898.394 -6.07692 -7.0558 0
M  V30 6768 O 896.613 -5.88047 -5.19722 0
M  V30 6769 O 896.65 -4.2322 -7.04443 0
M  V30 6770 C 896.489 -3.99785 -8.49201 0
M  V30 6771 C 897.03 -2.60516 -8.79425 0
M  V30 6772 O 895.975 -1.82663 -8.44573 0
M  V30 6773 C 898.248 -2.10343 -8.03628 0
M  V30 6774 O 898.986 -1.09919 -8.67766 0
M  V30 6775 C 897.58 -1.68446 -6.70876 0
M  V30 6776 O 898.378 -0.684109 -6.08265 0
M  V30 6777 C 896.242 -1.17436 -7.18567 0
M  V30 6778 N 895.199 -1.52699 -6.23988 0
M  V30 6779 C 895.368 -2.578 -5.40574 0
M  V30 6780 N 894.341 -2.78966 -4.61193 0
M  V30 6781 C 893.456 -1.78725 -4.95769 0
M  V30 6782 C 892.189 -1.45727 -4.44207 0
M  V30 6783 N 891.59 -2.13994 -3.43613 0
M  V30 6784 N 891.624 -0.374977 -5.05812 0
M  V30 6785 C 892.226 0.345585 -6.05615 0
M  V30 6786 N 893.403 0.0787651 -6.56253 0
M  V30 6787 C 893.978 -1.00499 -5.96189 0
M  V30 6788 H 896.274 -0.0804622 -7.31556 0
M  V30 6789 H 897.457 -2.53396 -6.02698 0
M  V30 6790 H 898.94 -2.93881 -7.85526 0
M  V30 6791 H 897.246 -2.52078 -9.87225 0
M  V30 6792 H 897.056 -4.75072 -9.05887 0
M  V30 6793 H 895.426 -4.05244 -8.76668 0
M  V30 6794 H 891.69 1.20098 -6.4532 0
M  V30 6795 H 896.268 -3.18977 -5.3945 0
M  V30 6796 H 890.66 -1.84983 -3.10004 0
M  V30 6797 H 892.064 -2.9465 -3.00843 0
M  V30 6798 H 898.066 0.177619 -6.34151 0
M  V30 6799 P 899.924 -1.25109 -8.70152 0
M  V30 6800 O 901.346 -1.29744 -9.22016 0
M  V30 6801 O 899.564 -2.13714 -7.55141 0
M  V30 6802 O 899.601 0.248149 -8.21425 0
M  V30 6803 C 899.441 1.22779 -9.30434 0
M  V30 6804 C 899.981 2.56293 -8.80664 0
M  V30 6805 O 898.925 3.02979 -8.09349 0
M  V30 6806 C 901.199 2.57523 -7.89775 0
M  V30 6807 O 901.937 3.7668 -7.89438 0
M  V30 6808 C 900.53 2.20997 -6.55446 0
M  V30 6809 O 901.329 2.71895 -5.48509 0
M  V30 6810 C 899.193 2.89693 -6.67988 0
M  V30 6811 H 899.225 3.88793 -6.19859 0
M  V30 6812 H 900.408 1.12046 -6.44229 0
M  V30 6813 H 901.892 1.7746 -8.19711 0
M  V30 6814 H 900.198 3.20706 -9.67112 0
M  V30 6815 H 900.008 0.901032 -10.1892 0
M  V30 6816 H 898.378 1.33049 -9.56592 0
M  V30 6817 H 901.017 3.57847 -5.23962 0
M  V30 6818 P 902.874 3.65191 -7.99657 0
M  V30 6819 O 904.275 3.87414 -8.52829 0
M  V30 6820 O 902.496 2.26932 -7.566 0
M  V30 6821 O 902.551 4.64915 -6.77529 0
M  V30 6822 C 902.391 6.06319 -7.16352 0
M  V30 6823 C 902.931 6.91655 -6.02234 0
M  V30 6824 O 901.875 6.92369 -5.17005 0
M  V30 6825 C 904.148 6.43627 -5.25174 0
M  V30 6826 O 904.887 7.43686 -4.60469 0
M  V30 6827 C 903.481 5.40275 -4.31916 0
M  V30 6828 O 904.279 5.25193 -3.14386 0
M  V30 6829 C 902.143 6.04847 -4.05327 0
M  V30 6830 N 901.1 5.04166 -3.98114 0
M  V30 6831 C 900.065 5.2366 -3.09923 0
M  V30 6832 O 900.104 6.23355 -2.34204 0
M  V30 6833 N 899.053 4.34279 -3.05727 0
M  V30 6834 C 899.101 3.26317 -3.84756 0
M  V30 6835 C 900.197 3.02504 -4.72573 0
M  V30 6836 C 901.163 3.94493 -4.76618 0
M  V30 6837 H 902.175 6.62104 -3.11218 0
M  V30 6838 H 903.358 4.42969 -4.80867 0
M  V30 6839 H 904.842 5.93122 -5.93121 0
M  V30 6840 H 903.148 7.93295 -6.39407 0
M  V30 6841 H 902.957 6.26671 -8.0846 0
M  V30 6842 H 901.327 6.29036 -7.32728 0
M  V30 6843 H 900.245 2.12921 -5.34017 0
M  V30 6844 H 902.009 3.80658 -5.44176 0
M  V30 6845 H 904.063 5.93572 -2.52637 0
M  V30 6846 P 905.825 7.39546 -4.75277 0
M  V30 6847 O 907.247 7.84966 -5.01146 0
M  V30 6848 O 905.465 5.9812 -5.08098 0
M  V30 6849 O 905.502 7.57503 -3.1866 0
M  V30 6850 C 905.342 8.97357 -2.74833 0
M  V30 6851 C 905.882 9.0745 -1.32694 0
M  V30 6852 O 904.827 8.62072 -0.606159 0
M  V30 6853 C 907.1 8.25383 -0.938334 0
M  V30 6854 O 907.838 8.74577 0.146954 0
M  V30 6855 C 906.432 6.8802 -0.712559 0
M  V30 6856 O 907.23 6.11791 0.194623 0
M  V30 6857 C 905.094 7.27966 -0.139777 0
M  V30 6858 N 904.051 6.39368 -0.623421 0
M  V30 6859 C 904.113 5.90299 -1.85969 0
M  V30 6860 N 903.068 5.10919 -2.1133 0
M  V30 6861 C 902.334 5.14646 -1.0015 0
M  V30 6862 C 901.028 4.60057 -0.729219 0
M  V30 6863 O 900.295 3.93476 -1.47746 0
M  V30 6864 N 900.598 4.88302 0.523505 0
M  V30 6865 C 901.347 5.63646 1.46207 0
M  V30 6866 N 900.75 5.78186 2.69239 0
M  V30 6867 N 902.5 6.19285 1.21544 0
M  V30 6868 C 902.957 5.93392 -0.0308487 0
M  V30 6869 H 905.126 7.25354 0.961601 0
M  V30 6870 H 906.309 6.3246 -1.65676 0
M  V30 6871 H 907.794 8.19533 -1.78278 0
M  V30 6872 H 906.099 10.1294 -1.10029 0
M  V30 6873 H 905.909 9.64276 -3.41316 0
M  V30 6874 H 904.278 9.25417 -2.76357 0
M  V30 6875 H 899.702 4.53993 0.806451 0
M  V30 6876 H 904.909 6.11865 -2.57394 0
M  V30 6877 H 899.839 5.34046 2.87467 0
M  V30 6878 H 901.215 6.33391 3.42578 0
M  V30 6879 H 906.919 6.25169 1.0783 0
M  V30 6880 P 908.776 8.791 6.93566e-12 0
M  V30 6881 O 910.198 9.31096 0.027933 0
M  V30 6882 O 908.416 7.77869 -1.04071 0
M  V30 6883 O 908.453 8.09533 1.41463 0
M  V30 6884 C 908.293 9.0349 2.53943 0
M  V30 6885 C 908.833 8.35226 3.79016 0
M  V30 6886 O 907.777 7.57992 4.15078 0
M  V30 6887 C 910.051 7.45087 3.67298 0
M  V30 6888 O 910.789 7.27796 4.85194 0
M  V30 6889 C 909.382 6.17323 3.12027 0
M  V30 6890 O 910.181 5.04231 3.47188 0
M  V30 6891 C 908.045 6.19961 3.81809 0
M  V30 6892 H 908.077 5.58218 4.73051 0
M  V30 6893 H 909.26 6.21726 2.02589 0
M  V30 6894 H 910.744 7.86112 2.9231 0
M  V30 6895 H 909.05 9.11627 4.55076 0
M  V30 6896 H 908.86 9.9573 2.34194 0
M  V30 6897 H 907.23 9.2792 2.67832 0
M  V30 6898 H 909.869 4.67702 4.28772 0
M  V30 6899 P 911.726 7.39546 4.75277 0
M  V30 6900 O 913.148 7.81777 5.05738 0
M  V30 6901 O 911.366 7.1065 3.32998 0
M  V30 6902 O 911.403 6.04542 5.56673 0
M  V30 6903 C 911.243 6.22772 7.02095 0
M  V30 6904 C 911.783 4.97725 7.70406 0
M  V30 6905 O 910.727 4.13256 7.58987 0
M  V30 6906 C 913.001 4.28231 7.11815 0
M  V30 6907 O 913.739 3.49945 8.01648 0
M  V30 6908 C 912.332 3.5063 5.96244 0
M  V30 6909 O 913.131 2.36482 5.64681 0
M  V30 6910 C 910.995 3.15122 6.56374 0
M  V30 6911 H 911.027 2.13853 6.99751 0
M  V30 6912 H 912.21 4.13501 5.06559 0
M  V30 6913 H 913.694 5.03285 6.70911 0
M  V30 6914 H 912 5.20877 8.75697 0
M  V30 6915 H 911.81 7.11046 7.35349 0
M  V30 6916 H 910.18 6.35815 7.26986 0
M  V30 6917 H 912.819 1.61644 6.13565 0
M  V30 6918 P 914.677 3.65191 7.99657 0
M  V30 6919 O 916.099 3.8425 8.48115 0
M  V30 6920 O 914.317 4.17805 6.64342 0
M  V30 6921 O 914.354 2.07613 7.95143 0
M  V30 6922 C 914.194 1.44328 9.27336 0
M  V30 6923 C 914.734 0.0220036 9.17197 0
M  V30 6924 O 913.678 -0.626867 8.61923 0
M  V30 6925 C 915.952 -0.24586 8.30336 0
M  V30 6926 O 916.69 -1.39011 8.63583 0
M  V30 6927 C 915.283 -0.273849 6.91158 0
M  V30 6928 O 916.082 -1.06348 6.02892 0
M  V30 6929 C 913.946 -0.897649 7.22545 0
M  V30 6930 H 913.978 -1.9841 7.04286 0
M  V30 6931 H 915.161 0.739928 6.497 0
M  V30 6932 H 916.645 0.60668 8.36503 0
M  V30 6933 H 914.951 -0.352479 10.1829 0
M  V30 6934 H 914.761 2.00611 10.0304 0
M  V30 6935 H 913.131 1.41843 9.55327 0
M  V30 6936 H 915.77 -1.95734 6.03555 0
M  V30 6937 P 917.627 -1.25109 8.70152 0
M  V30 6938 O 919.049 -1.35274 9.21221 0
M  V30 6939 O 917.267 -0.0769065 7.84762 0
M  V30 6940 O 917.304 -2.55232 7.81161 0
M  V30 6941 C 917.144 -3.79939 8.58154 0
M  V30 6942 C 917.684 -4.94023 7.72785 0
M  V30 6943 O 916.628 -5.18726 6.91205 0
M  V30 6944 C 918.902 -4.69597 6.85231 0
M  V30 6945 O 919.64 -5.83832 6.51337 0
M  V30 6946 C 918.233 -3.96706 5.66633 0
M  V30 6947 O 919.032 -4.15414 4.49689 0
M  V30 6948 C 916.896 -4.66153 5.59313 0
M  V30 6949 H 916.928 -5.47679 4.85214 0
M  V30 6950 H 918.111 -2.89008 5.86566 0
M  V30 6951 H 919.595 -4.0121 7.36511 0
M  V30 6952 H 917.901 -5.80182 8.37584 0
M  V30 6953 H 917.711 -3.73517 9.52265 0
M  V30 6954 H 916.081 -3.97163 8.80359 0
M  V30 6955 H 918.72 -4.90969 4.01921 0
M  V30 6956 P 920.578 -5.75688 6.64379 0
M  V30 6957 O 921.999 -6.11915 7.01921 0
M  V30 6958 O 920.218 -4.30744 6.56026 0
M  V30 6959 O 920.255 -6.37042 5.19165 0
M  V30 6960 C 920.094 -7.83662 5.1657 0
M  V30 6961 C 920.635 -8.33398 3.83019 0
M  V30 6962 O 919.58 -8.0998 3.00999 0
M  V30 6963 C 921.853 -7.65514 3.2257 0
M  V30 6964 O 922.591 -8.4329 2.32297 0
M  V30 6965 C 921.185 -6.40075 2.62207 0
M  V30 6966 O 921.983 -5.92338 1.5428 0
M  V30 6967 C 919.847 -6.9454 2.18503 0
M  V30 6968 N 918.804 -5.95905 2.39948 0
M  V30 6969 C 918.973 -4.98383 3.32108 0
M  V30 6970 N 917.946 -4.16798 3.41761 0
M  V30 6971 C 917.061 -4.65287 2.47461 0
M  V30 6972 C 915.794 -4.18946 2.07461 0
M  V30 6973 N 915.195 -3.09661 2.60717 0
M  V30 6974 N 915.229 -4.95327 1.09101 0
M  V30 6975 C 915.831 -6.04369 0.519812 0
M  V30 6976 N 917.008 -6.50694 0.855982 0
M  V30 6977 C 917.583 -5.75818 1.84322 0
M  V30 6978 H 919.879 -7.22964 1.12076 0
M  V30 6979 H 921.062 -5.60502 3.36589 0
M  V30 6980 H 922.545 -7.35707 4.02681 0
M  V30 6981 H 920.851 -9.41302 3.90009 0
M  V30 6982 H 920.661 -8.29056 5.99158 0
M  V30 6983 H 919.031 -8.10073 5.25882 0
M  V30 6984 H 915.295 -6.55843 -0.270373 0
M  V30 6985 H 919.873 -4.88564 3.92502 0
M  V30 6986 H 914.265 -2.80523 2.27218 0
M  V30 6987 H 915.669 -2.55848 3.34465 0
M  V30 6988 H 921.671 -6.30224 0.72668 0
M  V30 6989 P 923.528 -8.4349 2.47671 0
M  V30 6990 O 924.95 -8.94167 2.5964 0
M  V30 6991 O 923.168 -7.1704 3.19006 0
M  V30 6992 O 923.205 -8.16596 0.923387 0
M  V30 6993 C 923.045 -9.38437 0.108857 0
M  V30 6994 C 923.585 -9.08175 -1.28353 0
M  V30 6995 O 922.529 -8.44229 -1.84713 0
M  V30 6996 C 924.803 -8.18386 -1.42505 0
M  V30 6997 O 925.541 -8.3501 -2.60497 0
M  V30 6998 C 924.134 -6.80225 -1.25468 0
M  V30 6999 O 924.933 -5.81621 -1.91066 0
M  V30 7000 C 922.797 -7.02416 -1.9168 0
M  V30 7001 H 922.829 -6.6888 -2.96621 0
M  V30 7002 H 924.012 -6.53617 -0.192223 0
M  V30 7003 H 925.496 -8.36622 -0.589963 0
M  V30 7004 H 923.802 -10.0291 -1.79807 0
M  V30 7005 H 923.612 -10.2138 0.558219 0
M  V30 7006 H 921.982 -9.6579 0.0444202 0
M  V30 7007 H 924.621 -5.69556 -2.79637 0
M  V30 7008 P 926.479 -8.4349 -2.47671 0
M  V30 7009 O 927.901 -8.92593 -2.65 0
M  V30 7010 O 926.119 -7.7568 -1.19296 0
M  V30 7011 O 926.156 -7.36886 -3.63805 0
M  V30 7012 C 925.996 -7.95349 -4.982 0
M  V30 7013 C 926.536 -6.94612 -5.98974 0
M  V30 7014 O 925.48 -6.10347 -6.11815 0
M  V30 7015 C 927.754 -6.11426 -5.62335 0
M  V30 7016 O 928.492 -5.6162 -6.70584 0
M  V30 7017 C 927.085 -5.04409 -4.73308 0
M  V30 7018 O 927.884 -3.85992 -4.75183 0
M  V30 7019 C 925.748 -4.8728 -5.41006 0
M  V30 7020 H 925.78 -4.02333 -6.11157 0
M  V30 7021 H 926.963 -5.39466 -3.69543 0
M  V30 7022 H 928.447 -6.71916 -5.01943 0
M  V30 7023 H 926.753 -7.4649 -6.93477 0
M  V30 7024 H 926.563 -8.89416 -5.05237 0
M  V30 7025 H 924.933 -8.14876 -5.18409 0
M  V30 7026 H 927.572 -3.27957 -5.4317 0
M  V30 7027 P 929.43 -5.75688 -6.64379 0
M  V30 7028 O 930.852 -6.07627 -7.05504 0
M  V30 7029 O 929.07 -5.88047 -5.19722 0
M  V30 7030 O 929.107 -4.2322 -7.04443 0
M  V30 7031 C 928.947 -3.99743 -8.4911 0
M  V30 7032 C 929.487 -2.60516 -8.79425 0
M  V30 7033 O 928.431 -1.82684 -8.4467 0
M  V30 7034 C 930.705 -2.10343 -8.03628 0
M  V30 7035 O 931.443 -1.09919 -8.67766 0
M  V30 7036 C 930.036 -1.68446 -6.70876 0
M  V30 7037 O 930.835 -0.678137 -6.08433 0
M  V30 7038 C 928.699 -1.17436 -7.18567 0
M  V30 7039 H 928.731 -0.0804732 -7.31656 0
M  V30 7040 H 929.914 -2.54037 -6.02537 0
M  V30 7041 H 931.398 -2.93881 -7.85526 0
M  V30 7042 H 929.704 -2.53065 -9.86973 0
M  V30 7043 H 929.514 -4.75072 -9.05887 0
M  V30 7044 H 927.884 -4.05244 -8.76668 0
M  V30 7045 H 930.523 0.177647 -6.34251 0
M  V30 7046 P 932.38 -1.25109 -8.70152 0
M  V30 7047 O 933.802 -1.29744 -9.22016 0
M  V30 7048 O 932.02 -2.13714 -7.55141 0
M  V30 7049 O 932.057 0.248149 -8.21425 0
M  V30 7050 C 931.897 1.22779 -9.30434 0
M  V30 7051 C 932.437 2.56293 -8.80664 0
M  V30 7052 O 931.381 3.02979 -8.09349 0
M  V30 7053 C 933.655 2.57523 -7.89775 0
M  V30 7054 O 934.393 3.7668 -7.89438 0
M  V30 7055 C 932.986 2.20997 -6.55446 0
M  V30 7056 O 933.785 2.71895 -5.48509 0
M  V30 7057 C 931.649 2.89693 -6.67988 0
M  V30 7058 H 931.681 3.88793 -6.19859 0
M  V30 7059 H 932.864 1.12046 -6.44229 0
M  V30 7060 H 934.348 1.7746 -8.19711 0
M  V30 7061 H 932.654 3.20706 -9.67112 0
M  V30 7062 H 932.464 0.901032 -10.1892 0
M  V30 7063 H 930.834 1.33049 -9.56592 0
M  V30 7064 H 933.473 3.57847 -5.23962 0
M  V30 7065 P 935.331 3.65191 -7.99657 0
M  V30 7066 O 936.753 3.89332 -8.45794 0
M  V30 7067 O 934.971 2.28472 -7.50807 0
M  V30 7068 O 935.008 4.64972 -6.77611 0
M  V30 7069 C 934.848 6.06319 -7.16352 0
M  V30 7070 C 935.388 6.91731 -6.02299 0
M  V30 7071 O 934.332 6.92449 -5.17064 0
M  V30 7072 C 936.606 6.43627 -5.25174 0
M  V30 7073 O 937.344 7.43686 -4.60469 0
M  V30 7074 C 935.937 5.40275 -4.31916 0
M  V30 7075 O 936.736 5.25279 -3.14438 0
M  V30 7076 C 934.6 6.04847 -4.05327 0
M  V30 7077 H 934.632 6.62195 -3.11261 0
M  V30 7078 H 935.815 4.42556 -4.81383 0
M  V30 7079 H 937.299 5.92458 -5.93643 0
M  V30 7080 H 935.605 7.92655 -6.402 0
M  V30 7081 H 935.415 6.26671 -8.0846 0
M  V30 7082 H 933.785 6.29101 -7.32804 0
M  V30 7083 H 936.424 5.84315 -2.47318 0
M  V30 7084 P 938.281 7.39546 -4.75277 0
M  V30 7085 O 939.702 7.84882 -5.01092 0
M  V30 7086 O 937.921 5.9812 -5.08098 0
M  V30 7087 O 937.958 7.57503 -3.1866 0
M  V30 7088 C 937.797 8.97452 -2.74862 0
M  V30 7089 C 938.338 9.07548 -1.32709 0
M  V30 7090 O 937.283 8.61972 -0.606089 0
M  V30 7091 C 939.556 8.25383 -0.938334 0
M  V30 7092 O 940.294 8.74577 0.146954 0
M  V30 7093 C 938.888 6.8802 -0.712559 0
M  V30 7094 O 939.686 6.1181 0.188505 0
M  V30 7095 C 937.55 7.27966 -0.139777 0
M  V30 7096 N 936.507 6.39368 -0.623421 0
M  V30 7097 C 936.676 5.71761 -1.78245 0
M  V30 7098 N 935.649 4.962 -2.10491 0
M  V30 7099 C 934.764 5.16158 -1.0635 0
M  V30 7100 C 933.497 4.60425 -0.810266 0
M  V30 7101 N 932.932 5.06 0.348685 0
M  V30 7102 C 933.534 5.94532 1.20395 0
M  V30 7103 N 934.711 6.48452 1.01191 0
M  V30 7104 C 935.286 6.04423 -0.146291 0
M  V30 7105 H 938.765 6.32625 -1.65044 0
M  V30 7106 H 940.248 8.19355 -1.79097 0
M  V30 7107 H 938.554 10.1305 -1.09016 0
M  V30 7108 H 938.364 9.64276 -3.41316 0
M  V30 7109 H 936.734 9.25417 -2.76357 0
M  V30 7110 H 937.576 5.79354 -2.38959 0
M  V30 7111 H 939.374 6.25169 1.0783 0
M  V30 7112 P 941.232 8.791 7.24582e-12 0
M  V30 7113 O 942.654 9.31096 0.027933 0
M  V30 7114 O 940.872 7.77869 -1.04071 0
M  V30 7115 O 940.909 8.09533 1.41463 0
M  V30 7116 C 940.749 9.0349 2.53943 0
M  V30 7117 C 941.289 8.35226 3.79016 0
M  V30 7118 O 940.233 7.57992 4.15078 0
M  V30 7119 C 942.507 7.45087 3.67298 0
M  V30 7120 O 943.245 7.27796 4.85194 0
M  V30 7121 C 941.838 6.17323 3.12027 0
M  V30 7122 O 942.637 5.04231 3.47188 0
M  V30 7123 C 940.501 6.19961 3.81809 0
M  V30 7124 H 940.533 5.58218 4.73051 0
M  V30 7125 H 941.716 6.21726 2.02589 0
M  V30 7126 H 943.2 7.86112 2.9231 0
M  V30 7127 H 941.506 9.11627 4.55076 0
M  V30 7128 H 941.316 9.9573 2.34194 0
M  V30 7129 H 939.686 9.2792 2.67832 0
M  V30 7130 H 942.325 4.67702 4.28772 0
M  V30 7131 P 944.182 7.39546 4.75277 0
M  V30 7132 O 945.604 7.81777 5.05738 0
M  V30 7133 O 943.822 7.1065 3.32998 0
M  V30 7134 O 943.859 6.04542 5.56673 0
M  V30 7135 C 943.699 6.22772 7.02095 0
M  V30 7136 C 944.239 4.97725 7.70406 0
M  V30 7137 O 943.183 4.13256 7.58987 0
M  V30 7138 C 945.457 4.28231 7.11815 0
M  V30 7139 O 946.195 3.49945 8.01648 0
M  V30 7140 C 944.788 3.5063 5.96244 0
M  V30 7141 O 945.587 2.36482 5.64681 0
M  V30 7142 C 943.451 3.15122 6.56374 0
M  V30 7143 H 943.483 2.13853 6.99751 0
M  V30 7144 H 944.666 4.13501 5.06559 0
M  V30 7145 H 946.15 5.03285 6.70911 0
M  V30 7146 H 944.456 5.20877 8.75697 0
M  V30 7147 H 944.266 7.11046 7.35349 0
M  V30 7148 H 942.636 6.35815 7.26986 0
M  V30 7149 H 945.275 1.61644 6.13565 0
M  V30 7150 P 947.133 3.65191 7.99657 0
M  V30 7151 O 948.555 3.8425 8.48115 0
M  V30 7152 O 946.773 4.17805 6.64342 0
M  V30 7153 O 946.81 2.07613 7.95143 0
M  V30 7154 C 946.65 1.44328 9.27336 0
M  V30 7155 C 947.19 0.0220036 9.17197 0
M  V30 7156 O 946.134 -0.626867 8.61923 0
M  V30 7157 C 948.408 -0.24586 8.30336 0
M  V30 7158 O 949.146 -1.39011 8.63583 0
M  V30 7159 C 947.739 -0.273849 6.91158 0
M  V30 7160 O 948.538 -1.06348 6.02892 0
M  V30 7161 C 946.402 -0.897649 7.22545 0
M  V30 7162 H 946.434 -1.9841 7.04286 0
M  V30 7163 H 947.617 0.739928 6.497 0
M  V30 7164 H 949.101 0.60668 8.36503 0
M  V30 7165 H 947.407 -0.352479 10.1829 0
M  V30 7166 H 947.217 2.00611 10.0304 0
M  V30 7167 H 945.587 1.41843 9.55327 0
M  V30 7168 H 948.226 -1.95734 6.03555 0
M  V30 7169 P 950.084 -1.25109 8.70152 0
M  V30 7170 O 951.506 -1.35303 9.21419 0
M  V30 7171 O 949.724 -0.0769065 7.84762 0
M  V30 7172 O 949.761 -2.55232 7.81161 0
M  V30 7173 C 949.601 -3.79939 8.58154 0
M  V30 7174 C 950.141 -4.93969 7.72701 0
M  V30 7175 O 949.086 -5.18726 6.91205 0
M  V30 7176 C 951.359 -4.69597 6.85231 0
M  V30 7177 O 952.097 -5.83832 6.51337 0
M  V30 7178 C 950.691 -3.96706 5.66633 0
M  V30 7179 O 951.489 -4.15346 4.49615 0
M  V30 7180 C 949.353 -4.66153 5.59313 0
M  V30 7181 N 948.31 -3.71582 5.24027 0
M  V30 7182 C 948.372 -2.46018 5.67902 0
M  V30 7183 N 947.327 -1.74868 5.24518 0
M  V30 7184 C 946.593 -2.61333 4.54528 0
M  V30 7185 C 945.287 -2.46162 3.95441 0
M  V30 7186 O 944.554 -1.46013 3.94122 0
M  V30 7187 N 944.857 -3.59334 3.34752 0
M  V30 7188 C 945.606 -4.79605 3.3023 0
M  V30 7189 N 945.009 -5.82109 2.6065 0
M  V30 7190 N 946.759 -4.97402 3.8843 0
M  V30 7191 C 947.216 -3.86258 4.50476 0
M  V30 7192 H 949.385 -5.47679 4.85214 0
M  V30 7193 H 950.568 -2.88964 5.86476 0
M  V30 7194 H 952.053 -4.01947 7.36109 0
M  V30 7195 H 950.358 -5.80182 8.37584 0
M  V30 7196 H 950.168 -3.73517 9.52265 0
M  V30 7197 H 948.537 -3.97163 8.80359 0
M  V30 7198 H 943.961 -3.5825 2.90294 0
M  V30 7199 H 949.168 -2.06161 6.30974 0
M  V30 7200 H 944.098 -5.66979 2.15354 0
M  V30 7201 H 945.474 -6.73686 2.54344 0
M  V30 7202 H 951.178 -4.90891 4.01857 0
M  V30 7203 P 953.034 -5.75688 6.64379 0
M  V30 7204 O 954.456 -6.11849 7.01846 0
M  V30 7205 O 952.674 -4.30744 6.56026 0
M  V30 7206 O 952.711 -6.37042 5.19165 0
M  V30 7207 C 952.551 -7.83578 5.16515 0
M  V30 7208 C 953.091 -8.33398 3.83019 0
M  V30 7209 O 952.035 -8.10074 3.01034 0
M  V30 7210 C 954.309 -7.65514 3.2257 0
M  V30 7211 O 955.047 -8.4329 2.32297 0
M  V30 7212 C 953.64 -6.40075 2.62207 0
M  V30 7213 O 954.439 -5.92589 1.53712 0
M  V30 7214 C 952.303 -6.9454 2.18503 0
M  V30 7215 H 952.335 -7.23063 1.12091 0
M  V30 7216 H 953.518 -5.6025 3.37201 0
M  V30 7217 H 955.002 -7.35707 4.02681 0
M  V30 7218 H 953.308 -9.40912 3.9095 0
M  V30 7219 H 953.118 -8.29056 5.99158 0
M  V30 7220 H 951.488 -8.10073 5.25882 0
M  V30 7221 H 954.127 -6.30324 0.726794 0
M  V30 7222 P 955.985 -8.4349 2.47671 0
M  V30 7223 O 957.407 -8.94167 2.5964 0
M  V30 7224 O 955.625 -7.1704 3.19006 0
M  V30 7225 O 955.662 -8.16596 0.923387 0
M  V30 7226 C 955.502 -9.38437 0.108857 0
M  V30 7227 C 956.042 -9.08175 -1.28353 0
M  V30 7228 O 954.986 -8.44229 -1.84713 0
M  V30 7229 C 957.26 -8.18386 -1.42505 0
M  V30 7230 O 957.998 -8.3501 -2.60497 0
M  V30 7231 C 956.591 -6.80225 -1.25468 0
M  V30 7232 O 957.39 -5.81621 -1.91066 0
M  V30 7233 C 955.254 -7.02416 -1.9168 0
M  V30 7234 H 955.286 -6.6888 -2.96621 0
M  V30 7235 H 956.469 -6.53617 -0.192223 0
M  V30 7236 H 957.953 -8.36622 -0.589963 0
M  V30 7237 H 956.259 -10.0291 -1.79807 0
M  V30 7238 H 956.069 -10.2138 0.558219 0
M  V30 7239 H 954.439 -9.6579 0.0444202 0
M  V30 7240 H 957.078 -5.69556 -2.79637 0
M  V30 7241 P 958.935 -8.4349 -2.47671 0
M  V30 7242 O 960.357 -8.92593 -2.65 0
M  V30 7243 O 958.575 -7.7568 -1.19296 0
M  V30 7244 O 958.612 -7.36886 -3.63805 0
M  V30 7245 C 958.452 -7.95349 -4.982 0
M  V30 7246 C 958.992 -6.94612 -5.98974 0
M  V30 7247 O 957.936 -6.10347 -6.11815 0
M  V30 7248 C 960.21 -6.11426 -5.62335 0
M  V30 7249 O 960.948 -5.6162 -6.70584 0
M  V30 7250 C 959.541 -5.04409 -4.73308 0
M  V30 7251 O 960.34 -3.85992 -4.75183 0
M  V30 7252 C 958.204 -4.8728 -5.41006 0
M  V30 7253 H 958.236 -4.02333 -6.11157 0
M  V30 7254 H 959.419 -5.39466 -3.69543 0
M  V30 7255 H 960.903 -6.71916 -5.01943 0
M  V30 7256 H 959.209 -7.4649 -6.93477 0
M  V30 7257 H 959.019 -8.89416 -5.05237 0
M  V30 7258 H 957.389 -8.14876 -5.18409 0
M  V30 7259 H 960.028 -3.27957 -5.4317 0
M  V30 7260 P 961.886 -5.75688 -6.64379 0
M  V30 7261 O 963.308 -6.07627 -7.05504 0
M  V30 7262 O 961.526 -5.88047 -5.19722 0
M  V30 7263 O 961.563 -4.2322 -7.04443 0
M  V30 7264 C 961.403 -3.99743 -8.4911 0
M  V30 7265 C 961.943 -2.60516 -8.79425 0
M  V30 7266 O 960.887 -1.82684 -8.4467 0
M  V30 7267 C 963.161 -2.10343 -8.03628 0
M  V30 7268 O 963.899 -1.09919 -8.67766 0
M  V30 7269 C 962.492 -1.68446 -6.70876 0
M  V30 7270 O 963.291 -0.678137 -6.08433 0
M  V30 7271 C 961.155 -1.17436 -7.18567 0
M  V30 7272 H 961.187 -0.0804732 -7.31656 0
M  V30 7273 H 962.37 -2.54037 -6.02537 0
M  V30 7274 H 963.854 -2.93881 -7.85526 0
M  V30 7275 H 962.16 -2.53065 -9.86973 0
M  V30 7276 H 961.97 -4.75072 -9.05887 0
M  V30 7277 H 960.34 -4.05244 -8.76668 0
M  V30 7278 H 962.979 0.177647 -6.34251 0
M  V30 7279 P 964.836 -1.25109 -8.70152 0
M  V30 7280 O 966.258 -1.29744 -9.22016 0
M  V30 7281 O 964.476 -2.13714 -7.55141 0
M  V30 7282 O 964.513 0.248149 -8.21425 0
M  V30 7283 C 964.353 1.22779 -9.30434 0
M  V30 7284 C 964.893 2.56293 -8.80664 0
M  V30 7285 O 963.837 3.02979 -8.09349 0
M  V30 7286 C 966.111 2.57523 -7.89775 0
M  V30 7287 O 966.849 3.7668 -7.89438 0
M  V30 7288 C 965.442 2.20997 -6.55446 0
M  V30 7289 O 966.241 2.71895 -5.48509 0
M  V30 7290 C 964.105 2.89693 -6.67988 0
M  V30 7291 H 964.137 3.88793 -6.19859 0
M  V30 7292 H 965.32 1.12046 -6.44229 0
M  V30 7293 H 966.804 1.7746 -8.19711 0
M  V30 7294 H 965.11 3.20706 -9.67112 0
M  V30 7295 H 964.92 0.901032 -10.1892 0
M  V30 7296 H 963.29 1.33049 -9.56592 0
M  V30 7297 H 965.929 3.57847 -5.23962 0
M  V30 7298 P 967.787 3.65191 -7.99657 0
M  V30 7299 O 969.209 3.89332 -8.45794 0
M  V30 7300 O 967.427 2.28472 -7.50807 0
M  V30 7301 O 967.464 4.64972 -6.77611 0
M  V30 7302 C 967.304 6.06319 -7.16352 0
M  V30 7303 C 967.844 6.91731 -6.02299 0
M  V30 7304 O 966.788 6.92449 -5.17064 0
M  V30 7305 C 969.062 6.43627 -5.25174 0
M  V30 7306 O 969.8 7.43686 -4.60469 0
M  V30 7307 C 968.393 5.40275 -4.31916 0
M  V30 7308 O 969.192 5.25279 -3.14438 0
M  V30 7309 C 967.056 6.04847 -4.05327 0
M  V30 7310 H 967.088 6.62195 -3.11261 0
M  V30 7311 H 968.271 4.42556 -4.81383 0
M  V30 7312 H 969.755 5.92458 -5.93643 0
M  V30 7313 H 968.061 7.92655 -6.402 0
M  V30 7314 H 967.871 6.26671 -8.0846 0
M  V30 7315 H 966.241 6.29101 -7.32804 0
M  V30 7316 H 968.88 5.84315 -2.47318 0
M  V30 7317 P 970.738 7.39546 -4.75277 0
M  V30 7318 O 972.159 7.84882 -5.01092 0
M  V30 7319 O 970.378 5.9812 -5.08098 0
M  V30 7320 O 970.415 7.57503 -3.1866 0
M  V30 7321 C 970.254 8.97452 -2.74862 0
M  V30 7322 C 970.795 9.07548 -1.32709 0
M  V30 7323 O 969.74 8.61972 -0.606089 0
M  V30 7324 C 972.013 8.25383 -0.938334 0
M  V30 7325 O 972.751 8.74577 0.146954 0
M  V30 7326 C 971.345 6.8802 -0.712559 0
M  V30 7327 O 972.143 6.1181 0.188505 0
M  V30 7328 C 970.007 7.27966 -0.139777 0
M  V30 7329 N 968.964 6.39368 -0.623421 0
M  V30 7330 C 969.133 5.71761 -1.78245 0
M  V30 7331 N 968.106 4.962 -2.10491 0
M  V30 7332 C 967.221 5.16158 -1.0635 0
M  V30 7333 C 965.954 4.60425 -0.810266 0
M  V30 7334 N 965.355 3.7057 -1.62914 0
M  V30 7335 N 965.389 5.06 0.348685 0
M  V30 7336 C 965.991 5.94532 1.20395 0
M  V30 7337 N 967.168 6.48452 1.01191 0
M  V30 7338 C 967.743 6.04423 -0.146291 0
M  V30 7339 H 970.039 7.25255 0.961469 0
M  V30 7340 H 971.222 6.32625 -1.65044 0
M  V30 7341 H 972.705 8.19355 -1.79097 0
M  V30 7342 H 971.011 10.1305 -1.09016 0
M  V30 7343 H 970.821 9.64276 -3.41316 0
M  V30 7344 H 969.191 9.25417 -2.76357 0
M  V30 7345 H 965.455 6.21659 2.10714 0
M  V30 7346 H 970.033 5.79354 -2.38959 0
M  V30 7347 H 964.425 3.33174 -1.38982 0
M  V30 7348 H 965.829 3.39714 -2.48836 0
M  V30 7349 H 971.831 6.25169 1.0783 0
M  V30 7350 P 973.688 8.791 7.55599e-12 0
M  V30 7351 O 975.11 9.31096 0.027933 0
M  V30 7352 O 973.328 7.77869 -1.04071 0
M  V30 7353 O 973.365 8.09533 1.41463 0
M  V30 7354 C 973.205 9.0349 2.53943 0
M  V30 7355 C 973.745 8.35226 3.79016 0
M  V30 7356 O 972.689 7.57992 4.15078 0
M  V30 7357 C 974.963 7.45087 3.67298 0
M  V30 7358 O 975.701 7.27796 4.85194 0
M  V30 7359 C 974.294 6.17323 3.12027 0
M  V30 7360 O 975.093 5.04231 3.47188 0
M  V30 7361 C 972.957 6.19961 3.81809 0
M  V30 7362 H 972.989 5.58218 4.73051 0
M  V30 7363 H 974.172 6.21726 2.02589 0
M  V30 7364 H 975.656 7.86112 2.9231 0
M  V30 7365 H 973.962 9.11627 4.55076 0
M  V30 7366 H 973.772 9.9573 2.34194 0
M  V30 7367 H 972.142 9.2792 2.67832 0
M  V30 7368 H 974.781 4.67702 4.28772 0
M  V30 7369 P 976.639 7.39546 4.75277 0
M  V30 7370 O 978.06 7.81861 5.05793 0
M  V30 7371 O 976.279 7.1065 3.32998 0
M  V30 7372 O 976.316 6.04542 5.56673 0
M  V30 7373 C 976.155 6.22839 7.02169 0
M  V30 7374 C 976.696 4.97725 7.70406 0
M  V30 7375 O 975.641 4.13208 7.58899 0
M  V30 7376 C 977.914 4.28231 7.11815 0
M  V30 7377 O 978.652 3.49945 8.01648 0
M  V30 7378 C 977.246 3.5063 5.96244 0
M  V30 7379 O 978.044 2.37008 5.64352 0
M  V30 7380 C 975.908 3.15122 6.56374 0
M  V30 7381 N 974.865 3.22311 5.55692 0
M  V30 7382 C 975.034 3.99655 4.46046 0
M  V30 7383 N 974.007 3.97599 3.63918 0
M  V30 7384 C 973.122 3.11159 4.25334 0
M  V30 7385 C 971.855 2.64972 3.85157 0
M  V30 7386 N 971.29 1.78482 4.74759 0
M  V30 7387 C 971.892 1.37463 5.90819 0
M  V30 7388 N 973.069 1.7733 6.31889 0
M  V30 7389 C 973.644 2.64393 5.43725 0
M  V30 7390 H 977.123 4.12931 5.06895 0
M  V30 7391 H 978.606 5.03285 6.70911 0
M  V30 7392 H 976.912 5.20001 8.76217 0
M  V30 7393 H 976.722 7.11046 7.35349 0
M  V30 7394 H 975.092 6.35815 7.26986 0
M  V30 7395 H 975.934 4.58037 4.27732 0
M  V30 7396 H 977.732 1.61619 6.13468 0
M  V30 7397 P 979.589 3.65191 7.99657 0
M  V30 7398 O 981.011 3.8425 8.48115 0
M  V30 7399 O 979.229 4.17805 6.64342 0
M  V30 7400 O 979.266 2.07613 7.95143 0
M  V30 7401 C 979.106 1.44328 9.27336 0
M  V30 7402 C 979.646 0.0220036 9.17197 0
M  V30 7403 O 978.59 -0.626867 8.61923 0
M  V30 7404 C 980.864 -0.24586 8.30336 0
M  V30 7405 O 981.602 -1.39011 8.63583 0
M  V30 7406 C 980.195 -0.273849 6.91158 0
M  V30 7407 O 980.994 -1.06348 6.02892 0
M  V30 7408 C 978.858 -0.897649 7.22545 0
M  V30 7409 H 978.89 -1.9841 7.04286 0
M  V30 7410 H 980.073 0.739928 6.497 0
M  V30 7411 H 981.557 0.60668 8.36503 0
M  V30 7412 H 979.863 -0.352479 10.1829 0
M  V30 7413 H 979.673 2.00611 10.0304 0
M  V30 7414 H 978.043 1.41843 9.55327 0
M  V30 7415 H 980.682 -1.95734 6.03555 0
M  V30 7416 P 982.54 -1.25109 8.70152 0
M  V30 7417 O 983.961 -1.35288 9.2132 0
M  V30 7418 O 982.18 -0.0769065 7.84762 0
M  V30 7419 O 982.217 -2.55232 7.81161 0
M  V30 7420 C 982.056 -3.79979 8.58246 0
M  V30 7421 C 982.597 -4.94023 7.72785 0
M  V30 7422 O 981.542 -5.18666 6.91125 0
M  V30 7423 C 983.815 -4.69597 6.85231 0
M  V30 7424 O 984.553 -5.83832 6.51337 0
M  V30 7425 C 983.147 -3.96706 5.66633 0
M  V30 7426 O 983.945 -4.14896 4.5003 0
M  V30 7427 C 981.809 -4.66153 5.59313 0
M  V30 7428 N 980.766 -3.71582 5.24027 0
M  V30 7429 C 980.935 -2.39715 5.48833 0
M  V30 7430 N 979.908 -1.65863 5.12845 0
M  V30 7431 C 979.023 -2.57637 4.5973 0
M  V30 7432 C 977.756 -2.40278 4.01027 0
M  V30 7433 N 977.157 -1.19549 3.86744 0
M  V30 7434 N 977.191 -3.57711 3.59575 0
M  V30 7435 C 977.793 -4.80324 3.70476 0
M  V30 7436 N 978.97 -5.01121 4.23801 0
M  V30 7437 C 979.545 -3.84757 4.66372 0
M  V30 7438 H 981.841 -5.47604 4.85148 0
M  V30 7439 H 983.024 -2.8955 5.86187 0
M  V30 7440 H 984.507 -4.0121 7.36511 0
M  V30 7441 H 982.813 -5.81019 8.37003 0
M  V30 7442 H 982.623 -3.73517 9.52265 0
M  V30 7443 H 980.993 -3.97163 8.80359 0
M  V30 7444 H 977.257 -5.66348 3.3183 0
M  V30 7445 H 981.835 -1.98804 5.94332 0
M  V30 7446 H 976.227 -1.13147 3.4281 0
M  V30 7447 H 977.631 -0.344074 4.19692 0
M  V30 7448 H 983.633 -4.90891 4.01857 0
M  V30 7449 P 985.49 -5.75688 6.64379 0
M  V30 7450 O 986.912 -6.11849 7.01846 0
M  V30 7451 O 985.13 -4.30744 6.56026 0
M  V30 7452 O 985.167 -6.37042 5.19165 0
M  V30 7453 C 985.007 -7.83578 5.16515 0
M  V30 7454 C 985.547 -8.33398 3.83019 0
M  V30 7455 O 984.491 -8.10074 3.01034 0
M  V30 7456 C 986.765 -7.65514 3.2257 0
M  V30 7457 O 987.503 -8.4329 2.32297 0
M  V30 7458 C 986.096 -6.40075 2.62207 0
M  V30 7459 O 986.895 -5.92589 1.53712 0
M  V30 7460 C 984.759 -6.9454 2.18503 0
M  V30 7461 H 984.791 -7.23063 1.12091 0
M  V30 7462 H 985.974 -5.6025 3.37201 0
M  V30 7463 H 987.458 -7.35707 4.02681 0
M  V30 7464 H 985.764 -9.40912 3.9095 0
M  V30 7465 H 985.574 -8.29056 5.99158 0
M  V30 7466 H 983.944 -8.10073 5.25882 0
M  V30 7467 H 986.583 -6.30324 0.726794 0
M  V30 7468 P 988.441 -8.4349 2.47671 0
M  V30 7469 O 989.863 -8.94167 2.5964 0
M  V30 7470 O 988.081 -7.1704 3.19006 0
M  V30 7471 O 988.118 -8.16596 0.923387 0
M  V30 7472 C 987.958 -9.38437 0.108857 0
M  V30 7473 C 988.498 -9.08175 -1.28353 0
M  V30 7474 O 987.442 -8.44229 -1.84713 0
M  V30 7475 C 989.716 -8.18386 -1.42505 0
M  V30 7476 O 990.454 -8.3501 -2.60497 0
M  V30 7477 C 989.047 -6.80225 -1.25468 0
M  V30 7478 O 989.846 -5.81621 -1.91066 0
M  V30 7479 C 987.71 -7.02416 -1.9168 0
M  V30 7480 H 987.742 -6.6888 -2.96621 0
M  V30 7481 H 988.925 -6.53617 -0.192223 0
M  V30 7482 H 990.409 -8.36622 -0.589963 0
M  V30 7483 H 988.715 -10.0291 -1.79807 0
M  V30 7484 H 988.525 -10.2138 0.558219 0
M  V30 7485 H 986.895 -9.6579 0.0444202 0
M  V30 7486 H 989.534 -5.69556 -2.79637 0
M  V30 7487 P 991.392 -8.4349 -2.47671 0
M  V30 7488 O 992.814 -8.92593 -2.65 0
M  V30 7489 O 991.032 -7.7568 -1.19296 0
M  V30 7490 O 991.069 -7.36886 -3.63805 0
M  V30 7491 C 990.909 -7.95349 -4.982 0
M  V30 7492 C 991.449 -6.94612 -5.98974 0
M  V30 7493 O 990.393 -6.10347 -6.11815 0
M  V30 7494 C 992.667 -6.11426 -5.62335 0
M  V30 7495 O 993.405 -5.6162 -6.70584 0
M  V30 7496 C 991.998 -5.04409 -4.73308 0
M  V30 7497 O 992.797 -3.85992 -4.75183 0
M  V30 7498 C 990.661 -4.8728 -5.41006 0
M  V30 7499 H 990.693 -4.02333 -6.11157 0
M  V30 7500 H 991.876 -5.39466 -3.69543 0
M  V30 7501 H 993.36 -6.71916 -5.01943 0
M  V30 7502 H 991.666 -7.4649 -6.93477 0
M  V30 7503 H 991.476 -8.89416 -5.05237 0
M  V30 7504 H 989.846 -8.14876 -5.18409 0
M  V30 7505 H 992.485 -3.27957 -5.4317 0
M  V30 7506 P 994.342 -5.75688 -6.64379 0
M  V30 7507 O 995.764 -6.07758 -7.05656 0
M  V30 7508 O 993.982 -5.88047 -5.19722 0
M  V30 7509 O 994.019 -4.2322 -7.04443 0
M  V30 7510 C 993.859 -3.99743 -8.4911 0
M  V30 7511 C 994.399 -2.60487 -8.79329 0
M  V30 7512 O 993.344 -1.82684 -8.4467 0
M  V30 7513 C 995.617 -2.10343 -8.03628 0
M  V30 7514 O 996.355 -1.09919 -8.67766 0
M  V30 7515 C 994.949 -1.68446 -6.70876 0
M  V30 7516 O 995.747 -0.678026 -6.08333 0
M  V30 7517 C 993.611 -1.17436 -7.18567 0
M  V30 7518 N 992.568 -1.52699 -6.23988 0
M  V30 7519 C 992.63 -2.68084 -5.57824 0
M  V30 7520 N 991.585 -2.8189 -4.75643 0
M  V30 7521 C 990.851 -1.72373 -4.95155 0
M  V30 7522 C 989.545 -1.37653 -4.44996 0
M  V30 7523 O 988.812 -2.02239 -3.68445 0
M  V30 7524 N 989.115 -0.17675 -4.90782 0
M  V30 7525 C 989.864 0.645036 -5.78716 0
M  V30 7526 N 989.267 1.84214 -6.10618 0
M  V30 7527 N 991.017 0.321732 -6.30279 0
M  V30 7528 C 991.474 -0.87502 -5.86913 0
M  V30 7529 H 993.643 -0.0804732 -7.31656 0
M  V30 7530 H 994.826 -2.53998 -6.02444 0
M  V30 7531 H 996.311 -2.93095 -7.8582 0
M  V30 7532 H 994.616 -2.53065 -9.86973 0
M  V30 7533 H 994.426 -4.75072 -9.05887 0
M  V30 7534 H 992.795 -4.05244 -8.76668 0
M  V30 7535 H 988.219 0.152143 -4.60849 0
M  V30 7536 H 993.426 -3.41852 -5.69006 0
M  V30 7537 H 988.356 2.08538 -5.69521 0
M  V30 7538 H 989.732 2.4895 -6.75698 0
M  V30 7539 H 995.436 0.177619 -6.34151 0
M  V30 7540 P 997.293 -1.25109 -8.70152 0
M  V30 7541 O 998.715 -1.29744 -9.22016 0
M  V30 7542 O 996.933 -2.13714 -7.55141 0
M  V30 7543 O 996.97 0.248149 -8.21425 0
M  V30 7544 C 996.81 1.22779 -9.30434 0
M  V30 7545 C 997.35 2.56293 -8.80664 0
M  V30 7546 O 996.294 3.02979 -8.09349 0
M  V30 7547 C 998.568 2.57523 -7.89775 0
M  V30 7548 O 999.306 3.7668 -7.89438 0
M  V30 7549 C 997.899 2.20997 -6.55446 0
M  V30 7550 O 998.698 2.71895 -5.48509 0
M  V30 7551 C 996.562 2.89693 -6.67988 0
M  V30 7552 H 996.594 3.88793 -6.19859 0
M  V30 7553 H 997.777 1.12046 -6.44229 0
M  V30 7554 H 999.261 1.7746 -8.19711 0
M  V30 7555 H 997.567 3.20706 -9.67112 0
M  V30 7556 H 997.377 0.901032 -10.1892 0
M  V30 7557 H 995.747 1.33049 -9.56592 0
M  V30 7558 H 998.386 3.57847 -5.23962 0
M  V30 7559 P 1000.24 3.65191 -7.99657 0
M  V30 7560 O 1001.67 3.89332 -8.45794 0
M  V30 7561 O 999.883 2.28472 -7.50807 0
M  V30 7562 O 999.92 4.64972 -6.77611 0
M  V30 7563 C 999.76 6.06319 -7.16352 0
M  V30 7564 C 1000.3 6.91731 -6.02299 0
M  V30 7565 O 999.244 6.92449 -5.17064 0
M  V30 7566 C 1001.52 6.43627 -5.25174 0
M  V30 7567 O 1002.26 7.43686 -4.60469 0
M  V30 7568 C 1000.85 5.40275 -4.31916 0
M  V30 7569 O 1001.65 5.25279 -3.14438 0
M  V30 7570 C 999.512 6.04847 -4.05327 0
M  V30 7571 H 999.544 6.62195 -3.11261 0
M  V30 7572 H 1000.73 4.42556 -4.81383 0
M  V30 7573 H 1002.21 5.92458 -5.93643 0
M  V30 7574 H 1000.52 7.92655 -6.402 0
M  V30 7575 H 1000.33 6.26671 -8.0846 0
M  V30 7576 H 998.697 6.29101 -7.32804 0
M  V30 7577 H 1001.34 5.84315 -2.47318 0
M  V30 7578 P 1003.19 7.39546 -4.75277 0
M  V30 7579 O 1004.59 7.86988 -5.07993 0
M  V30 7580 O 1002.82 5.99957 -5.13804 0
M  V30 7581 O 1002.87 7.57411 -3.18621 0
M  V30 7582 C 1002.71 8.97357 -2.74833 0
M  V30 7583 C 1003.25 9.0745 -1.32694 0
M  V30 7584 O 1002.19 8.61972 -0.606089 0
M  V30 7585 C 1004.47 8.25383 -0.938334 0
M  V30 7586 O 1005.21 8.74577 0.146954 0
M  V30 7587 C 1003.8 6.8802 -0.712559 0
M  V30 7588 O 1004.6 6.11791 0.194623 0
M  V30 7589 C 1002.46 7.27966 -0.139777 0
M  V30 7590 N 1001.42 6.39368 -0.623421 0
M  V30 7591 C 1000.38 6.08088 0.223886 0
M  V30 7592 O 1000.42 6.5102 1.39986 0
M  V30 7593 N 999.373 5.30627 -0.224051 0
M  V30 7594 C 999.421 4.82531 -1.47257 0
M  V30 7595 N 998.411 4.07328 -1.89378 0
M  V30 7596 C 1000.52 5.09974 -2.34008 0
M  V30 7597 C 1001.48 5.89548 -1.87678 0
M  V30 7598 H 1002.49 7.25255 0.961469 0
M  V30 7599 H 1003.68 6.32625 -1.65044 0
M  V30 7600 H 1005.16 8.19631 -1.78299 0
M  V30 7601 H 1003.47 10.1305 -1.09016 0
M  V30 7602 H 1003.28 9.64276 -3.41316 0
M  V30 7603 H 1001.65 9.25321 -2.76328 0
M  V30 7604 H 1000.56 4.67832 -3.3413 0
M  V30 7605 H 1002.33 6.14434 -2.51991 0
M  V30 7606 H 997.621 3.87329 -1.26296 0
M  V30 7607 H 998.416 3.69014 -2.84741 0
M  V30 7608 H 1004.38 6.35931 1.08377 0
M  V30 7609 P 1006.14 8.791 7.86616e-12 0
M  V30 7610 O 1007.57 9.31096 0.027933 0
M  V30 7611 O 1005.78 7.77869 -1.04071 0
M  V30 7612 O 1005.82 8.09533 1.41463 0
M  V30 7613 C 1005.66 9.0349 2.53943 0
M  V30 7614 C 1006.2 8.35226 3.79016 0
M  V30 7615 O 1005.15 7.57992 4.15078 0
M  V30 7616 C 1007.42 7.45087 3.67298 0
M  V30 7617 O 1008.16 7.27796 4.85194 0
M  V30 7618 C 1006.75 6.17323 3.12027 0
M  V30 7619 O 1007.55 5.04231 3.47188 0
M  V30 7620 C 1005.41 6.19961 3.81809 0
M  V30 7621 H 1005.45 5.58218 4.73051 0
M  V30 7622 H 1006.63 6.21726 2.02589 0
M  V30 7623 H 1008.11 7.86112 2.9231 0
M  V30 7624 H 1006.42 9.11627 4.55076 0
M  V30 7625 H 1006.23 9.9573 2.34194 0
M  V30 7626 H 1004.6 9.2792 2.67832 0
M  V30 7627 H 1007.24 4.67702 4.28772 0
M  V30 7628 P 1009.09 7.39546 4.75277 0
M  V30 7629 O 1010.52 7.81777 5.05738 0
M  V30 7630 O 1008.73 7.1065 3.32998 0
M  V30 7631 O 1008.77 6.04542 5.56673 0
M  V30 7632 C 1008.61 6.22772 7.02095 0
M  V30 7633 C 1009.15 4.97725 7.70406 0
M  V30 7634 O 1008.1 4.13256 7.58987 0
M  V30 7635 C 1010.37 4.28231 7.11815 0
M  V30 7636 O 1011.11 3.49945 8.01648 0
M  V30 7637 C 1009.7 3.5063 5.96244 0
M  V30 7638 O 1010.5 2.36482 5.64681 0
M  V30 7639 C 1008.36 3.15122 6.56374 0
M  V30 7640 H 1008.4 2.13853 6.99751 0
M  V30 7641 H 1009.58 4.13501 5.06559 0
M  V30 7642 H 1011.06 5.03285 6.70911 0
M  V30 7643 H 1009.37 5.20877 8.75697 0
M  V30 7644 H 1009.18 7.11046 7.35349 0
M  V30 7645 H 1007.55 6.35815 7.26986 0
M  V30 7646 H 1010.19 1.61644 6.13565 0
M  V30 7647 P 1012.05 3.65191 7.99657 0
M  V30 7648 O 1013.47 3.8425 8.48115 0
M  V30 7649 O 1011.69 4.17805 6.64342 0
M  V30 7650 O 1011.72 2.07613 7.95143 0
M  V30 7651 C 1011.56 1.44328 9.27336 0
M  V30 7652 C 1012.1 0.0220036 9.17197 0
M  V30 7653 O 1011.05 -0.626867 8.61923 0
M  V30 7654 C 1013.32 -0.24586 8.30336 0
M  V30 7655 O 1014.06 -1.39011 8.63583 0
M  V30 7656 C 1012.65 -0.273849 6.91158 0
M  V30 7657 O 1013.45 -1.06348 6.02892 0
M  V30 7658 C 1011.31 -0.897649 7.22545 0
M  V30 7659 H 1011.35 -1.9841 7.04286 0
M  V30 7660 H 1012.53 0.739928 6.497 0
M  V30 7661 H 1014.01 0.60668 8.36503 0
M  V30 7662 H 1012.32 -0.352479 10.1829 0
M  V30 7663 H 1012.13 2.00611 10.0304 0
M  V30 7664 H 1010.5 1.41843 9.55327 0
M  V30 7665 H 1013.14 -1.95734 6.03555 0
M  V30 7666 P 1015 -1.25109 8.70152 0
M  V30 7667 O 1016.42 -1.35274 9.21221 0
M  V30 7668 O 1014.64 -0.0769065 7.84762 0
M  V30 7669 O 1014.67 -2.55232 7.81161 0
M  V30 7670 C 1014.51 -3.79939 8.58154 0
M  V30 7671 C 1015.05 -4.94023 7.72785 0
M  V30 7672 O 1014 -5.18726 6.91205 0
M  V30 7673 C 1016.27 -4.69597 6.85231 0
M  V30 7674 O 1017.01 -5.83832 6.51337 0
M  V30 7675 C 1015.6 -3.96706 5.66633 0
M  V30 7676 O 1016.4 -4.15414 4.49689 0
M  V30 7677 C 1014.27 -4.66153 5.59313 0
M  V30 7678 H 1014.3 -5.47679 4.85214 0
M  V30 7679 H 1015.48 -2.89008 5.86566 0
M  V30 7680 H 1016.96 -4.0121 7.36511 0
M  V30 7681 H 1015.27 -5.80182 8.37584 0
M  V30 7682 H 1015.08 -3.73517 9.52265 0
M  V30 7683 H 1013.45 -3.97163 8.80359 0
M  V30 7684 H 1016.09 -4.90969 4.01921 0
M  V30 7685 P 1017.95 -5.75688 6.64379 0
M  V30 7686 O 1019.37 -6.11849 7.01846 0
M  V30 7687 O 1017.59 -4.30744 6.56026 0
M  V30 7688 O 1017.62 -6.37042 5.19165 0
M  V30 7689 C 1017.46 -7.83578 5.16515 0
M  V30 7690 C 1018 -8.33398 3.83019 0
M  V30 7691 O 1016.95 -8.10074 3.01034 0
M  V30 7692 C 1019.22 -7.65514 3.2257 0
M  V30 7693 O 1019.96 -8.4329 2.32297 0
M  V30 7694 C 1018.55 -6.40075 2.62207 0
M  V30 7695 O 1019.35 -5.92589 1.53712 0
M  V30 7696 C 1017.22 -6.9454 2.18503 0
M  V30 7697 H 1017.25 -7.23063 1.12091 0
M  V30 7698 H 1018.43 -5.6025 3.37201 0
M  V30 7699 H 1019.91 -7.35707 4.02681 0
M  V30 7700 H 1018.22 -9.40912 3.9095 0
M  V30 7701 H 1018.03 -8.29056 5.99158 0
M  V30 7702 H 1016.4 -8.10073 5.25882 0
M  V30 7703 H 1019.04 -6.30324 0.726794 0
M  V30 7704 P 1020.9 -8.4349 2.47671 0
M  V30 7705 O 1022.32 -8.94263 2.59668 0
M  V30 7706 O 1020.54 -7.1704 3.19006 0
M  V30 7707 O 1020.57 -8.16596 0.923387 0
M  V30 7708 C 1020.41 -9.38537 0.108869 0
M  V30 7709 C 1020.95 -9.08175 -1.28353 0
M  V30 7710 O 1019.9 -8.44131 -1.84692 0
M  V30 7711 C 1022.17 -8.18386 -1.42505 0
M  V30 7712 O 1022.91 -8.3501 -2.60497 0
M  V30 7713 C 1021.5 -6.80225 -1.25468 0
M  V30 7714 O 1022.3 -5.81716 -1.90454 0
M  V30 7715 C 1020.17 -7.02416 -1.9168 0
M  V30 7716 N 1019.12 -6.31033 -1.20314 0
M  V30 7717 C 1019.29 -5.98817 0.0994088 0
M  V30 7718 N 1018.27 -5.35403 0.621694 0
M  V30 7719 C 1017.38 -5.25212 -0.43376 0
M  V30 7720 C 1016.11 -4.64602 -0.519722 0
M  V30 7721 N 1015.51 -4.01457 0.519136 0
M  V30 7722 N 1015.55 -4.7568 -1.76013 0
M  V30 7723 C 1016.15 -5.3653 -2.83017 0
M  V30 7724 N 1017.33 -5.93676 -2.79782 0
M  V30 7725 C 1017.9 -5.84061 -1.56249 0
M  V30 7726 H 1020.2 -6.68789 -2.9658 0
M  V30 7727 H 1021.38 -6.53498 -0.198729 0
M  V30 7728 H 1022.86 -8.36622 -0.589963 0
M  V30 7729 H 1021.17 -10.0273 -1.8081 0
M  V30 7730 H 1020.98 -10.2138 0.558219 0
M  V30 7731 H 1019.35 -9.6579 0.0444202 0
M  V30 7732 H 1015.61 -5.37113 -3.77321 0
M  V30 7733 H 1020.19 -6.23209 0.660562 0
M  V30 7734 H 1014.58 -3.58834 0.394862 0
M  V30 7735 H 1015.99 -3.96059 1.43048 0
M  V30 7736 H 1021.99 -5.69466 -2.79593 0
M  V30 7737 P 1023.85 -8.4349 -2.47671 0
M  V30 7738 O 1025.27 -8.92593 -2.65 0
M  V30 7739 O 1023.49 -7.7568 -1.19296 0
M  V30 7740 O 1023.52 -7.36886 -3.63805 0
M  V30 7741 C 1023.36 -7.95349 -4.982 0
M  V30 7742 C 1023.9 -6.94612 -5.98974 0
M  V30 7743 O 1022.85 -6.10347 -6.11815 0
M  V30 7744 C 1025.12 -6.11426 -5.62335 0
M  V30 7745 O 1025.86 -5.6162 -6.70584 0
M  V30 7746 C 1024.45 -5.04409 -4.73308 0
M  V30 7747 O 1025.25 -3.85992 -4.75183 0
M  V30 7748 C 1023.12 -4.8728 -5.41006 0
M  V30 7749 H 1023.15 -4.02333 -6.11157 0
M  V30 7750 H 1024.33 -5.39466 -3.69543 0
M  V30 7751 H 1025.82 -6.71916 -5.01943 0
M  V30 7752 H 1024.12 -7.4649 -6.93477 0
M  V30 7753 H 1023.93 -8.89416 -5.05237 0
M  V30 7754 H 1022.3 -8.14876 -5.18409 0
M  V30 7755 H 1024.94 -3.27957 -5.4317 0
M  V30 7756 P 1026.8 -5.75688 -6.64379 0
M  V30 7757 O 1028.22 -6.07627 -7.05504 0
M  V30 7758 O 1026.44 -5.88047 -5.19722 0
M  V30 7759 O 1026.48 -4.2322 -7.04443 0
M  V30 7760 C 1026.32 -3.99743 -8.4911 0
M  V30 7761 C 1026.86 -2.60516 -8.79425 0
M  V30 7762 O 1025.8 -1.82684 -8.4467 0
M  V30 7763 C 1028.07 -2.10343 -8.03628 0
M  V30 7764 O 1028.81 -1.09919 -8.67766 0
M  V30 7765 C 1027.4 -1.68446 -6.70876 0
M  V30 7766 O 1028.2 -0.678137 -6.08433 0
M  V30 7767 C 1026.07 -1.17436 -7.18567 0
M  V30 7768 H 1026.1 -0.0804732 -7.31656 0
M  V30 7769 H 1027.28 -2.54037 -6.02537 0
M  V30 7770 H 1028.77 -2.93881 -7.85526 0
M  V30 7771 H 1027.07 -2.53065 -9.86973 0
M  V30 7772 H 1026.88 -4.75072 -9.05887 0
M  V30 7773 H 1025.25 -4.05244 -8.76668 0
M  V30 7774 H 1027.89 0.177647 -6.34251 0
M  V30 7775 P 1029.75 -1.25109 -8.70152 0
M  V30 7776 O 1031.17 -1.29744 -9.22016 0
M  V30 7777 O 1029.39 -2.13714 -7.55141 0
M  V30 7778 O 1029.43 0.248149 -8.21425 0
M  V30 7779 C 1029.27 1.22779 -9.30434 0
M  V30 7780 C 1029.81 2.56293 -8.80664 0
M  V30 7781 O 1028.75 3.02979 -8.09349 0
M  V30 7782 C 1031.02 2.57523 -7.89775 0
M  V30 7783 O 1031.76 3.7668 -7.89438 0
M  V30 7784 C 1030.35 2.20997 -6.55446 0
M  V30 7785 O 1031.15 2.71895 -5.48509 0
M  V30 7786 C 1029.02 2.89693 -6.67988 0
M  V30 7787 H 1029.05 3.88793 -6.19859 0
M  V30 7788 H 1030.23 1.12046 -6.44229 0
M  V30 7789 H 1031.72 1.7746 -8.19711 0
M  V30 7790 H 1030.02 3.20706 -9.67112 0
M  V30 7791 H 1029.83 0.901032 -10.1892 0
M  V30 7792 H 1028.2 1.33049 -9.56592 0
M  V30 7793 H 1030.84 3.57847 -5.23962 0
M  V30 7794 P 1032.7 3.65191 -7.99657 0
M  V30 7795 O 1034.12 3.89332 -8.45794 0
M  V30 7796 O 1032.34 2.28472 -7.50807 0
M  V30 7797 O 1032.38 4.64972 -6.77611 0
M  V30 7798 C 1032.22 6.06319 -7.16352 0
M  V30 7799 C 1032.76 6.91731 -6.02299 0
M  V30 7800 O 1031.7 6.92449 -5.17064 0
M  V30 7801 C 1033.97 6.43627 -5.25174 0
M  V30 7802 O 1034.71 7.43686 -4.60469 0
M  V30 7803 C 1033.31 5.40275 -4.31916 0
M  V30 7804 O 1034.1 5.25279 -3.14438 0
M  V30 7805 C 1031.97 6.04847 -4.05327 0
M  V30 7806 H 1032 6.62195 -3.11261 0
M  V30 7807 H 1033.18 4.42556 -4.81383 0
M  V30 7808 H 1034.67 5.92458 -5.93643 0
M  V30 7809 H 1032.97 7.92655 -6.402 0
M  V30 7810 H 1032.78 6.26671 -8.0846 0
M  V30 7811 H 1031.15 6.29101 -7.32804 0
M  V30 7812 H 1033.79 5.84315 -2.47318 0
M  V30 7813 P 1035.65 7.39546 -4.75277 0
M  V30 7814 O 1037.07 7.84798 -5.01039 0
M  V30 7815 O 1035.29 5.9812 -5.08098 0
M  V30 7816 O 1035.33 7.57503 -3.1866 0
M  V30 7817 C 1035.17 8.97357 -2.74833 0
M  V30 7818 C 1035.71 9.07548 -1.32709 0
M  V30 7819 O 1034.65 8.62072 -0.606159 0
M  V30 7820 C 1036.93 8.25383 -0.938334 0
M  V30 7821 O 1037.66 8.74577 0.146954 0
M  V30 7822 C 1036.26 6.8802 -0.712559 0
M  V30 7823 O 1037.06 6.1189 0.194655 0
M  V30 7824 C 1034.92 7.27966 -0.139777 0
M  V30 7825 H 1034.95 7.25354 0.961601 0
M  V30 7826 H 1036.13 6.32557 -1.65702 0
M  V30 7827 H 1037.62 8.19355 -1.79097 0
M  V30 7828 H 1035.92 10.1294 -1.10029 0
M  V30 7829 H 1035.73 9.64276 -3.41316 0
M  V30 7830 H 1034.1 9.25417 -2.76357 0
M  V30 7831 H 1036.74 6.25267 1.07847 0
M  V30 7832 P 1038.6 8.791 8.17632e-12 0
M  V30 7833 O 1040.02 9.31096 0.027933 0
M  V30 7834 O 1038.24 7.77869 -1.04071 0
M  V30 7835 O 1038.28 8.09533 1.41463 0
M  V30 7836 C 1038.12 9.0349 2.53943 0
M  V30 7837 C 1038.66 8.35226 3.79016 0
M  V30 7838 O 1037.6 7.57992 4.15078 0
M  V30 7839 C 1039.88 7.45087 3.67298 0
M  V30 7840 O 1040.61 7.27796 4.85194 0
M  V30 7841 C 1039.21 6.17323 3.12027 0
M  V30 7842 O 1040.01 5.04231 3.47188 0
M  V30 7843 C 1037.87 6.19961 3.81809 0
M  V30 7844 H 1037.9 5.58218 4.73051 0
M  V30 7845 H 1039.08 6.21726 2.02589 0
M  V30 7846 H 1040.57 7.86112 2.9231 0
M  V30 7847 H 1038.87 9.11627 4.55076 0
M  V30 7848 H 1038.68 9.9573 2.34194 0
M  V30 7849 H 1037.05 9.2792 2.67832 0
M  V30 7850 H 1039.69 4.67702 4.28772 0
M  V30 7851 P 1041.55 7.39546 4.75277 0
M  V30 7852 O 1042.97 7.81777 5.05738 0
M  V30 7853 O 1041.19 7.1065 3.32998 0
M  V30 7854 O 1041.23 6.04542 5.56673 0
M  V30 7855 C 1041.07 6.22772 7.02095 0
M  V30 7856 C 1041.61 4.97725 7.70406 0
M  V30 7857 O 1040.55 4.13256 7.58987 0
M  V30 7858 C 1042.83 4.28231 7.11815 0
M  V30 7859 O 1043.56 3.49945 8.01648 0
M  V30 7860 C 1042.16 3.5063 5.96244 0
M  V30 7861 O 1042.96 2.36482 5.64681 0
M  V30 7862 C 1040.82 3.15122 6.56374 0
M  V30 7863 H 1040.85 2.13853 6.99751 0
M  V30 7864 H 1042.04 4.13501 5.06559 0
M  V30 7865 H 1043.52 5.03285 6.70911 0
M  V30 7866 H 1041.83 5.20877 8.75697 0
M  V30 7867 H 1041.64 7.11046 7.35349 0
M  V30 7868 H 1040.01 6.35815 7.26986 0
M  V30 7869 H 1042.64 1.61644 6.13565 0
M  V30 7870 P 1044.5 3.65191 7.99657 0
M  V30 7871 O 1045.92 3.8425 8.48115 0
M  V30 7872 O 1044.14 4.17805 6.64342 0
M  V30 7873 O 1044.18 2.07613 7.95143 0
M  V30 7874 C 1044.02 1.44328 9.27336 0
M  V30 7875 C 1044.56 0.0220036 9.17197 0
M  V30 7876 O 1043.5 -0.626867 8.61923 0
M  V30 7877 C 1045.78 -0.24586 8.30336 0
M  V30 7878 O 1046.51 -1.39011 8.63583 0
M  V30 7879 C 1045.11 -0.273849 6.91158 0
M  V30 7880 O 1045.91 -1.06348 6.02892 0
M  V30 7881 C 1043.77 -0.897649 7.22545 0
M  V30 7882 H 1043.8 -1.9841 7.04286 0
M  V30 7883 H 1044.99 0.739928 6.497 0
M  V30 7884 H 1046.47 0.60668 8.36503 0
M  V30 7885 H 1044.78 -0.352479 10.1829 0
M  V30 7886 H 1044.59 2.00611 10.0304 0
M  V30 7887 H 1042.96 1.41843 9.55327 0
M  V30 7888 H 1045.59 -1.95734 6.03555 0
M  V30 7889 P 1047.45 -1.25109 8.70152 0
M  V30 7890 O 1048.87 -1.35274 9.21221 0
M  V30 7891 O 1047.09 -0.0769065 7.84762 0
M  V30 7892 O 1047.13 -2.55232 7.81161 0
M  V30 7893 C 1046.97 -3.79939 8.58154 0
M  V30 7894 C 1047.51 -4.94023 7.72785 0
M  V30 7895 O 1046.45 -5.18726 6.91205 0
M  V30 7896 C 1048.73 -4.69597 6.85231 0
M  V30 7897 O 1049.47 -5.83832 6.51337 0
M  V30 7898 C 1048.06 -3.96706 5.66633 0
M  V30 7899 O 1048.86 -4.15414 4.49689 0
M  V30 7900 C 1046.72 -4.66153 5.59313 0
M  V30 7901 H 1046.75 -5.47679 4.85214 0
M  V30 7902 H 1047.94 -2.89008 5.86566 0
M  V30 7903 H 1049.42 -4.0121 7.36511 0
M  V30 7904 H 1047.73 -5.80182 8.37584 0
M  V30 7905 H 1047.54 -3.73517 9.52265 0
M  V30 7906 H 1045.91 -3.97163 8.80359 0
M  V30 7907 H 1048.55 -4.90969 4.01921 0
M  V30 7908 P 1050.4 -5.75688 6.64379 0
M  V30 7909 O 1051.82 -6.11849 7.01846 0
M  V30 7910 O 1050.04 -4.30744 6.56026 0
M  V30 7911 O 1050.08 -6.37042 5.19165 0
M  V30 7912 C 1049.92 -7.83578 5.16515 0
M  V30 7913 C 1050.46 -8.33398 3.83019 0
M  V30 7914 O 1049.4 -8.10074 3.01034 0
M  V30 7915 C 1051.68 -7.65514 3.2257 0
M  V30 7916 O 1052.42 -8.4329 2.32297 0
M  V30 7917 C 1051.01 -6.40075 2.62207 0
M  V30 7918 O 1051.81 -5.92589 1.53712 0
M  V30 7919 C 1049.67 -6.9454 2.18503 0
M  V30 7920 H 1049.7 -7.23063 1.12091 0
M  V30 7921 H 1050.89 -5.6025 3.37201 0
M  V30 7922 H 1052.37 -7.35707 4.02681 0
M  V30 7923 H 1050.68 -9.40912 3.9095 0
M  V30 7924 H 1050.49 -8.29056 5.99158 0
M  V30 7925 H 1048.86 -8.10073 5.25882 0
M  V30 7926 H 1051.5 -6.30324 0.726794 0
M  V30 7927 P 1053.35 -8.4349 2.47671 0
M  V30 7928 O 1054.78 -8.94167 2.5964 0
M  V30 7929 O 1052.99 -7.1704 3.19006 0
M  V30 7930 O 1053.03 -8.16596 0.923387 0
M  V30 7931 C 1052.87 -9.38437 0.108857 0
M  V30 7932 C 1053.41 -9.08175 -1.28353 0
M  V30 7933 O 1052.35 -8.44229 -1.84713 0
M  V30 7934 C 1054.63 -8.18386 -1.42505 0
M  V30 7935 O 1055.37 -8.3501 -2.60497 0
M  V30 7936 C 1053.96 -6.80225 -1.25468 0
M  V30 7937 O 1054.76 -5.81621 -1.91066 0
M  V30 7938 C 1052.62 -7.02416 -1.9168 0
M  V30 7939 H 1052.65 -6.6888 -2.96621 0
M  V30 7940 H 1053.84 -6.53617 -0.192223 0
M  V30 7941 H 1055.32 -8.36622 -0.589963 0
M  V30 7942 H 1053.63 -10.0291 -1.79807 0
M  V30 7943 H 1053.44 -10.2138 0.558219 0
M  V30 7944 H 1051.81 -9.6579 0.0444202 0
M  V30 7945 H 1054.45 -5.69556 -2.79637 0
M  V30 7946 P 1056.3 -8.4349 -2.47671 0
M  V30 7947 O 1057.73 -8.92593 -2.65 0
M  V30 7948 O 1055.94 -7.7568 -1.19296 0
M  V30 7949 O 1055.98 -7.36886 -3.63805 0
M  V30 7950 C 1055.82 -7.95349 -4.982 0
M  V30 7951 C 1056.36 -6.94612 -5.98974 0
M  V30 7952 O 1055.31 -6.10347 -6.11815 0
M  V30 7953 C 1057.58 -6.11426 -5.62335 0
M  V30 7954 O 1058.32 -5.6162 -6.70584 0
M  V30 7955 C 1056.91 -5.04409 -4.73308 0
M  V30 7956 O 1057.71 -3.85992 -4.75183 0
M  V30 7957 C 1055.57 -4.8728 -5.41006 0
M  V30 7958 H 1055.61 -4.02333 -6.11157 0
M  V30 7959 H 1056.79 -5.39466 -3.69543 0
M  V30 7960 H 1058.27 -6.71916 -5.01943 0
M  V30 7961 H 1056.58 -7.4649 -6.93477 0
M  V30 7962 H 1056.39 -8.89416 -5.05237 0
M  V30 7963 H 1054.76 -8.14876 -5.18409 0
M  V30 7964 H 1057.4 -3.27957 -5.4317 0
M  V30 7965 P 1059.25 -5.75688 -6.64379 0
M  V30 7966 O 1060.68 -6.07627 -7.05504 0
M  V30 7967 O 1058.89 -5.88047 -5.19722 0
M  V30 7968 O 1058.93 -4.2322 -7.04443 0
M  V30 7969 C 1058.77 -3.99743 -8.4911 0
M  V30 7970 C 1059.31 -2.60516 -8.79425 0
M  V30 7971 O 1058.26 -1.82684 -8.4467 0
M  V30 7972 C 1060.53 -2.10343 -8.03628 0
M  V30 7973 O 1061.27 -1.09919 -8.67766 0
M  V30 7974 C 1059.86 -1.68446 -6.70876 0
M  V30 7975 O 1060.66 -0.678137 -6.08433 0
M  V30 7976 C 1058.52 -1.17436 -7.18567 0
M  V30 7977 H 1058.56 -0.0804732 -7.31656 0
M  V30 7978 H 1059.74 -2.54037 -6.02537 0
M  V30 7979 H 1061.22 -2.93881 -7.85526 0
M  V30 7980 H 1059.53 -2.53065 -9.86973 0
M  V30 7981 H 1059.34 -4.75072 -9.05887 0
M  V30 7982 H 1057.71 -4.05244 -8.76668 0
M  V30 7983 H 1060.35 0.177647 -6.34251 0
M  V30 7984 P 1062.21 -1.25109 -8.70152 0
M  V30 7985 O 1063.63 -1.29744 -9.22016 0
M  V30 7986 O 1061.85 -2.13714 -7.55141 0
M  V30 7987 O 1061.88 0.248149 -8.21425 0
M  V30 7988 C 1061.72 1.22779 -9.30434 0
M  V30 7989 C 1062.26 2.56293 -8.80664 0
M  V30 7990 O 1061.21 3.02979 -8.09349 0
M  V30 7991 C 1063.48 2.57523 -7.89775 0
M  V30 7992 O 1064.22 3.7668 -7.89438 0
M  V30 7993 C 1062.81 2.20997 -6.55446 0
M  V30 7994 O 1063.61 2.71895 -5.48509 0
M  V30 7995 C 1061.47 2.89693 -6.67988 0
M  V30 7996 H 1061.51 3.88793 -6.19859 0
M  V30 7997 H 1062.69 1.12046 -6.44229 0
M  V30 7998 H 1064.17 1.7746 -8.19711 0
M  V30 7999 H 1062.48 3.20706 -9.67112 0
M  V30 8000 H 1062.29 0.901032 -10.1892 0
M  V30 8001 H 1060.66 1.33049 -9.56592 0
M  V30 8002 H 1063.3 3.57847 -5.23962 0
M  V30 8003 P 1065.16 3.65191 -7.99657 0
M  V30 8004 O 1066.58 3.89374 -8.45885 0
M  V30 8005 O 1064.8 2.28472 -7.50807 0
M  V30 8006 O 1064.83 4.64972 -6.77611 0
M  V30 8007 C 1064.67 6.06383 -7.16428 0
M  V30 8008 C 1065.21 6.91731 -6.02299 0
M  V30 8009 O 1064.16 6.92369 -5.17005 0
M  V30 8010 C 1066.43 6.43627 -5.25174 0
M  V30 8011 O 1067.17 7.43686 -4.60469 0
M  V30 8012 C 1065.76 5.40275 -4.31916 0
M  V30 8013 O 1066.56 5.24878 -3.14911 0
M  V30 8014 C 1064.42 6.04847 -4.05327 0
M  V30 8015 N 1063.38 5.04166 -3.98114 0
M  V30 8016 C 1063.55 3.84629 -4.59066 0
M  V30 8017 N 1062.52 3.0363 -4.45343 0
M  V30 8018 C 1061.64 3.76722 -3.68523 0
M  V30 8019 C 1060.37 3.43528 -3.17088 0
M  V30 8020 N 1059.77 2.23665 -3.37397 0
M  V30 8021 N 1059.81 4.44526 -2.44231 0
M  V30 8022 C 1060.41 5.65243 -2.20146 0
M  V30 8023 N 1061.59 6.00221 -2.65453 0
M  V30 8024 C 1062.16 5.00564 -3.39083 0
M  V30 8025 H 1064.46 6.62104 -3.11218 0
M  V30 8026 H 1065.64 4.42969 -4.80867 0
M  V30 8027 H 1067.12 5.92458 -5.93643 0
M  V30 8028 H 1065.43 7.93295 -6.39407 0
M  V30 8029 H 1065.24 6.26671 -8.0846 0
M  V30 8030 H 1063.61 6.29101 -7.32804 0
M  V30 8031 H 1059.87 6.36894 -1.5883 0
M  V30 8032 H 1064.45 3.58193 -5.14248 0
M  V30 8033 H 1058.84 2.05145 -2.97047 0
M  V30 8034 H 1060.25 1.51255 -3.92998 0
M  V30 8035 H 1066.25 5.84223 -2.47279 0
M  V30 8036 P 1068.11 7.39546 -4.75277 0
M  V30 8037 O 1069.53 7.84798 -5.01039 0
M  V30 8038 O 1067.75 5.9812 -5.08098 0
M  V30 8039 O 1067.78 7.57503 -3.1866 0
M  V30 8040 C 1067.62 8.97357 -2.74833 0
M  V30 8041 C 1068.16 9.07548 -1.32709 0
M  V30 8042 O 1067.11 8.62072 -0.606159 0
M  V30 8043 C 1069.38 8.25383 -0.938334 0
M  V30 8044 O 1070.12 8.74577 0.146954 0
M  V30 8045 C 1068.71 6.8802 -0.712559 0
M  V30 8046 O 1069.51 6.1189 0.194655 0
M  V30 8047 C 1067.38 7.27966 -0.139777 0
M  V30 8048 H 1067.41 7.25354 0.961601 0
M  V30 8049 H 1068.59 6.32557 -1.65702 0
M  V30 8050 H 1070.07 8.19355 -1.79097 0
M  V30 8051 H 1068.38 10.1294 -1.10029 0
M  V30 8052 H 1068.19 9.64276 -3.41316 0
M  V30 8053 H 1066.56 9.25417 -2.76357 0
M  V30 8054 H 1069.2 6.25267 1.07847 0
M  V30 8055 P 1071.06 8.791 8.48649e-12 0
M  V30 8056 O 1072.48 9.31196 0.027936 0
M  V30 8057 O 1070.7 7.77869 -1.04071 0
M  V30 8058 O 1070.73 8.09533 1.41463 0
M  V30 8059 C 1070.57 9.03587 2.5397 0
M  V30 8060 C 1071.11 8.35226 3.79016 0
M  V30 8061 O 1070.06 7.57904 4.1503 0
M  V30 8062 C 1072.33 7.45087 3.67298 0
M  V30 8063 O 1073.07 7.27796 4.85194 0
M  V30 8064 C 1071.66 6.17323 3.12027 0
M  V30 8065 O 1072.46 5.04496 3.46627 0
M  V30 8066 C 1070.33 6.19961 3.81809 0
M  V30 8067 N 1069.28 5.71575 2.93223 0
M  V30 8068 C 1069.45 5.77362 1.59168 0
M  V30 8069 N 1068.42 5.3123 0.911893 0
M  V30 8070 C 1067.54 4.91717 1.89588 0
M  V30 8071 C 1066.27 4.3114 1.8076 0
M  V30 8072 N 1065.67 3.99821 0.632928 0
M  V30 8073 N 1065.71 4.06823 3.02898 0
M  V30 8074 C 1066.31 4.35062 4.22711 0
M  V30 8075 N 1067.49 4.90805 4.35707 0
M  V30 8076 C 1068.06 5.16382 3.14469 0
M  V30 8077 H 1070.36 5.58142 4.72986 0
M  V30 8078 H 1071.54 6.21428 2.0318 0
M  V30 8079 H 1073.02 7.86112 2.9231 0
M  V30 8080 H 1071.33 9.11171 4.55987 0
M  V30 8081 H 1071.14 9.9573 2.34194 0
M  V30 8082 H 1069.51 9.2792 2.67832 0
M  V30 8083 H 1065.77 4.09052 5.13359 0
M  V30 8084 H 1070.35 6.16575 1.12198 0
M  V30 8085 H 1064.74 3.55423 0.632085 0
M  V30 8086 H 1066.15 4.20317 -0.256712 0
M  V30 8087 H 1072.15 4.67628 4.28704 0
M  V30 8088 P 1074.01 7.39546 4.75277 0
M  V30 8089 O 1075.43 7.81777 5.05738 0
M  V30 8090 O 1073.65 7.1065 3.32998 0
M  V30 8091 O 1073.68 6.04542 5.56673 0
M  V30 8092 C 1073.52 6.22772 7.02095 0
M  V30 8093 C 1074.06 4.97725 7.70406 0
M  V30 8094 O 1073.01 4.13256 7.58987 0
M  V30 8095 C 1075.28 4.28231 7.11815 0
M  V30 8096 O 1076.02 3.49945 8.01648 0
M  V30 8097 C 1074.61 3.5063 5.96244 0
M  V30 8098 O 1075.41 2.36482 5.64681 0
M  V30 8099 C 1073.28 3.15122 6.56374 0
M  V30 8100 H 1073.31 2.13853 6.99751 0
M  V30 8101 H 1074.49 4.13501 5.06559 0
M  V30 8102 H 1075.98 5.03285 6.70911 0
M  V30 8103 H 1074.28 5.20877 8.75697 0
M  V30 8104 H 1074.09 7.11046 7.35349 0
M  V30 8105 H 1072.46 6.35815 7.26986 0
M  V30 8106 H 1075.1 1.61644 6.13565 0
M  V30 8107 P 1076.96 3.65191 7.99657 0
M  V30 8108 O 1078.38 3.8425 8.48115 0
M  V30 8109 O 1076.6 4.17805 6.64342 0
M  V30 8110 O 1076.64 2.07613 7.95143 0
M  V30 8111 C 1076.48 1.44328 9.27336 0
M  V30 8112 C 1077.02 0.0220036 9.17197 0
M  V30 8113 O 1075.96 -0.626867 8.61923 0
M  V30 8114 C 1078.23 -0.24586 8.30336 0
M  V30 8115 O 1078.97 -1.39011 8.63583 0
M  V30 8116 C 1077.56 -0.273849 6.91158 0
M  V30 8117 O 1078.36 -1.06348 6.02892 0
M  V30 8118 C 1076.23 -0.897649 7.22545 0
M  V30 8119 H 1076.26 -1.9841 7.04286 0
M  V30 8120 H 1077.44 0.739928 6.497 0
M  V30 8121 H 1078.93 0.60668 8.36503 0
M  V30 8122 H 1077.23 -0.352479 10.1829 0
M  V30 8123 H 1077.04 2.00611 10.0304 0
M  V30 8124 H 1075.41 1.41843 9.55327 0
M  V30 8125 H 1078.05 -1.95734 6.03555 0
M  V30 8126 P 1079.91 -1.25109 8.70152 0
M  V30 8127 O 1081.33 -1.35274 9.21221 0
M  V30 8128 O 1079.55 -0.0769065 7.84762 0
M  V30 8129 O 1079.59 -2.55232 7.81161 0
M  V30 8130 C 1079.43 -3.79939 8.58154 0
M  V30 8131 C 1079.97 -4.94023 7.72785 0
M  V30 8132 O 1078.91 -5.18726 6.91205 0
M  V30 8133 C 1081.18 -4.69597 6.85231 0
M  V30 8134 O 1081.92 -5.83832 6.51337 0
M  V30 8135 C 1080.51 -3.96706 5.66633 0
M  V30 8136 O 1081.31 -4.15414 4.49689 0
M  V30 8137 C 1079.18 -4.66153 5.59313 0
M  V30 8138 H 1079.21 -5.47679 4.85214 0
M  V30 8139 H 1080.39 -2.89008 5.86566 0
M  V30 8140 H 1081.88 -4.0121 7.36511 0
M  V30 8141 H 1080.18 -5.80182 8.37584 0
M  V30 8142 H 1079.99 -3.73517 9.52265 0
M  V30 8143 H 1078.36 -3.97163 8.80359 0
M  V30 8144 H 1081 -4.90969 4.01921 0
M  V30 8145 P 1082.86 -5.75688 6.64379 0
M  V30 8146 O 1084.28 -6.11981 7.01997 0
M  V30 8147 O 1082.5 -4.30744 6.56026 0
M  V30 8148 O 1082.54 -6.37042 5.19165 0
M  V30 8149 C 1082.38 -7.83578 5.16515 0
M  V30 8150 C 1082.92 -8.33307 3.82977 0
M  V30 8151 O 1081.86 -8.10074 3.01034 0
M  V30 8152 C 1084.13 -7.65514 3.2257 0
M  V30 8153 O 1084.87 -8.4329 2.32297 0
M  V30 8154 C 1083.47 -6.40075 2.62207 0
M  V30 8155 O 1084.26 -5.92492 1.53687 0
M  V30 8156 C 1082.13 -6.9454 2.18503 0
M  V30 8157 N 1081.09 -5.95905 2.39948 0
M  V30 8158 C 1081.15 -5.13994 3.44742 0
M  V30 8159 N 1080.1 -4.30684 3.46712 0
M  V30 8160 C 1079.37 -4.65583 2.41086 0
M  V30 8161 C 1078.06 -4.20877 1.99581 0
M  V30 8162 O 1077.33 -3.35913 2.52616 0
M  V30 8163 N 1077.63 -4.83271 0.873406 0
M  V30 8164 C 1078.38 -5.82006 0.185129 0
M  V30 8165 N 1077.78 -6.30619 -0.95439 0
M  V30 8166 N 1079.53 -6.28443 0.578524 0
M  V30 8167 C 1079.99 -5.68486 1.70138 0
M  V30 8168 H 1082.16 -7.23063 1.12091 0
M  V30 8169 H 1083.34 -5.60165 3.3715 0
M  V30 8170 H 1084.83 -7.3611 4.01946 0
M  V30 8171 H 1083.13 -9.40912 3.9095 0
M  V30 8172 H 1082.94 -8.29056 5.99158 0
M  V30 8173 H 1081.31 -8.10073 5.25882 0
M  V30 8174 H 1076.74 -4.58323 0.505262 0
M  V30 8175 H 1081.94 -5.14564 4.1935 0
M  V30 8176 H 1076.87 -5.93402 -1.25364 0
M  V30 8177 H 1078.25 -7.0425 -1.50254 0
M  V30 8178 H 1083.95 -6.30224 0.72668 0
M  V30 8179 P 1085.81 -8.4349 2.47671 0
M  V30 8180 O 1087.23 -8.94167 2.5964 0
M  V30 8181 O 1085.45 -7.1704 3.19006 0
M  V30 8182 O 1085.49 -8.16596 0.923387 0
M  V30 8183 C 1085.33 -9.38437 0.108857 0
M  V30 8184 C 1085.87 -9.08175 -1.28353 0
M  V30 8185 O 1084.81 -8.44229 -1.84713 0
M  V30 8186 C 1087.08 -8.18386 -1.42505 0
M  V30 8187 O 1087.82 -8.3501 -2.60497 0
M  V30 8188 C 1086.42 -6.80225 -1.25468 0
M  V30 8189 O 1087.21 -5.81621 -1.91066 0
M  V30 8190 C 1085.08 -7.02416 -1.9168 0
M  V30 8191 H 1085.11 -6.6888 -2.96621 0
M  V30 8192 H 1086.29 -6.53617 -0.192223 0
M  V30 8193 H 1087.78 -8.36622 -0.589963 0
M  V30 8194 H 1086.08 -10.0291 -1.79807 0
M  V30 8195 H 1085.89 -10.2138 0.558219 0
M  V30 8196 H 1084.26 -9.6579 0.0444202 0
M  V30 8197 H 1086.9 -5.69556 -2.79637 0
M  V30 8198 P 1088.76 -8.4349 -2.47671 0
M  V30 8199 O 1090.18 -8.92593 -2.65 0
M  V30 8200 O 1088.4 -7.7568 -1.19296 0
M  V30 8201 O 1088.44 -7.36886 -3.63805 0
M  V30 8202 C 1088.28 -7.95349 -4.982 0
M  V30 8203 C 1088.82 -6.94612 -5.98974 0
M  V30 8204 O 1087.76 -6.10347 -6.11815 0
M  V30 8205 C 1090.04 -6.11426 -5.62335 0
M  V30 8206 O 1090.77 -5.6162 -6.70584 0
M  V30 8207 C 1089.37 -5.04409 -4.73308 0
M  V30 8208 O 1090.17 -3.85992 -4.75183 0
M  V30 8209 C 1088.03 -4.8728 -5.41006 0
M  V30 8210 H 1088.06 -4.02333 -6.11157 0
M  V30 8211 H 1089.24 -5.39466 -3.69543 0
M  V30 8212 H 1090.73 -6.71916 -5.01943 0
M  V30 8213 H 1089.03 -7.4649 -6.93477 0
M  V30 8214 H 1088.84 -8.89416 -5.05237 0
M  V30 8215 H 1087.21 -8.14876 -5.18409 0
M  V30 8216 H 1089.85 -3.27957 -5.4317 0
M  V30 8217 P 1091.71 -5.75688 -6.64379 0
M  V30 8218 O 1093.13 -6.07627 -7.05504 0
M  V30 8219 O 1091.35 -5.88047 -5.19722 0
M  V30 8220 O 1091.39 -4.2322 -7.04443 0
M  V30 8221 C 1091.23 -3.99743 -8.4911 0
M  V30 8222 C 1091.77 -2.60516 -8.79425 0
M  V30 8223 O 1090.71 -1.82684 -8.4467 0
M  V30 8224 C 1092.99 -2.10343 -8.03628 0
M  V30 8225 O 1093.72 -1.09919 -8.67766 0
M  V30 8226 C 1092.32 -1.68446 -6.70876 0
M  V30 8227 O 1093.12 -0.678137 -6.08433 0
M  V30 8228 C 1090.98 -1.17436 -7.18567 0
M  V30 8229 H 1091.01 -0.0804732 -7.31656 0
M  V30 8230 H 1092.19 -2.54037 -6.02537 0
M  V30 8231 H 1093.68 -2.93881 -7.85526 0
M  V30 8232 H 1091.98 -2.53065 -9.86973 0
M  V30 8233 H 1091.79 -4.75072 -9.05887 0
M  V30 8234 H 1090.16 -4.05244 -8.76668 0
M  V30 8235 H 1092.8 0.177647 -6.34251 0
M  V30 8236 P 1094.66 -1.25109 -8.70152 0
M  V30 8237 O 1096.08 -1.29744 -9.22016 0
M  V30 8238 O 1094.3 -2.13714 -7.55141 0
M  V30 8239 O 1094.34 0.248149 -8.21425 0
M  V30 8240 C 1094.18 1.22779 -9.30434 0
M  V30 8241 C 1094.72 2.56293 -8.80664 0
M  V30 8242 O 1093.66 3.02979 -8.09349 0
M  V30 8243 C 1095.94 2.57523 -7.89775 0
M  V30 8244 O 1096.67 3.7668 -7.89438 0
M  V30 8245 C 1095.27 2.20997 -6.55446 0
M  V30 8246 O 1096.07 2.71895 -5.48509 0
M  V30 8247 C 1093.93 2.89693 -6.67988 0
M  V30 8248 H 1093.96 3.88793 -6.19859 0
M  V30 8249 H 1095.15 1.12046 -6.44229 0
M  V30 8250 H 1096.63 1.7746 -8.19711 0
M  V30 8251 H 1094.94 3.20706 -9.67112 0
M  V30 8252 H 1094.75 0.901032 -10.1892 0
M  V30 8253 H 1093.12 1.33049 -9.56592 0
M  V30 8254 H 1095.75 3.57847 -5.23962 0
M  V30 8255 P 1097.61 3.65191 -7.99657 0
M  V30 8256 O 1099.03 3.89332 -8.45794 0
M  V30 8257 O 1097.25 2.28472 -7.50807 0
M  V30 8258 O 1097.29 4.64972 -6.77611 0
M  V30 8259 C 1097.13 6.06319 -7.16352 0
M  V30 8260 C 1097.67 6.91731 -6.02299 0
M  V30 8261 O 1096.61 6.92449 -5.17064 0
M  V30 8262 C 1098.89 6.43627 -5.25174 0
M  V30 8263 O 1099.63 7.43686 -4.60469 0
M  V30 8264 C 1098.22 5.40275 -4.31916 0
M  V30 8265 O 1099.02 5.25279 -3.14438 0
M  V30 8266 C 1096.88 6.04847 -4.05327 0
M  V30 8267 H 1096.91 6.62195 -3.11261 0
M  V30 8268 H 1098.1 4.42556 -4.81383 0
M  V30 8269 H 1099.58 5.92458 -5.93643 0
M  V30 8270 H 1097.89 7.92655 -6.402 0
M  V30 8271 H 1097.7 6.26671 -8.0846 0
M  V30 8272 H 1096.07 6.29101 -7.32804 0
M  V30 8273 H 1098.71 5.84315 -2.47318 0
M  V30 8274 P 1100.56 7.39546 -4.75277 0
M  V30 8275 O 1101.98 7.84798 -5.01039 0
M  V30 8276 O 1100.2 5.9812 -5.08098 0
M  V30 8277 O 1100.24 7.57503 -3.1866 0
M  V30 8278 C 1100.08 8.97357 -2.74833 0
M  V30 8279 C 1100.62 9.07548 -1.32709 0
M  V30 8280 O 1099.56 8.62072 -0.606159 0
M  V30 8281 C 1101.84 8.25383 -0.938334 0
M  V30 8282 O 1102.58 8.74577 0.146954 0
M  V30 8283 C 1101.17 6.8802 -0.712559 0
M  V30 8284 O 1101.97 6.1189 0.194655 0
M  V30 8285 C 1099.83 7.27966 -0.139777 0
M  V30 8286 H 1099.86 7.25354 0.961601 0
M  V30 8287 H 1101.05 6.32557 -1.65702 0
M  V30 8288 H 1102.53 8.19355 -1.79097 0
M  V30 8289 H 1100.84 10.1294 -1.10029 0
M  V30 8290 H 1100.65 9.64276 -3.41316 0
M  V30 8291 H 1099.02 9.25417 -2.76357 0
M  V30 8292 H 1101.66 6.25267 1.07847 0
M  V30 8293 P 1103.51 8.791 8.79665e-12 0
M  V30 8294 O 1104.94 9.31296 0.027939 0
M  V30 8295 O 1103.15 7.77869 -1.04071 0
M  V30 8296 O 1103.19 8.09533 1.41463 0
M  V30 8297 C 1103.03 9.0349 2.53943 0
M  V30 8298 C 1103.57 8.35135 3.78975 0
M  V30 8299 O 1102.52 7.57992 4.15078 0
M  V30 8300 C 1104.79 7.45087 3.67298 0
M  V30 8301 O 1105.53 7.27796 4.85194 0
M  V30 8302 C 1104.12 6.17323 3.12027 0
M  V30 8303 O 1104.92 5.04149 3.47132 0
M  V30 8304 C 1102.78 6.19961 3.81809 0
M  V30 8305 N 1101.74 5.71575 2.93223 0
M  V30 8306 C 1101.8 5.97133 1.62693 0
M  V30 8307 N 1100.76 5.44066 0.984414 0
M  V30 8308 C 1100.02 4.87093 1.93987 0
M  V30 8309 C 1098.72 4.26449 1.8738 0
M  V30 8310 O 1097.98 4.1089 0.884377 0
M  V30 8311 N 1098.29 3.82483 3.08036 0
M  V30 8312 C 1099.04 3.95124 4.27727 0
M  V30 8313 N 1098.44 3.4084 5.39089 0
M  V30 8314 N 1100.19 4.55264 4.3706 0
M  V30 8315 C 1100.65 5.00861 3.18217 0
M  V30 8316 H 1102.81 5.58218 4.73051 0
M  V30 8317 H 1104 6.21631 2.02558 0
M  V30 8318 H 1105.48 7.85819 2.93096 0
M  V30 8319 H 1103.79 9.11627 4.55076 0
M  V30 8320 H 1103.6 9.9573 2.34194 0
M  V30 8321 H 1101.97 9.2792 2.67832 0
M  V30 8322 H 1097.39 3.38323 3.1329 0
M  V30 8323 H 1102.6 6.53891 1.14265 0
M  V30 8324 H 1097.53 2.93852 5.30559 0
M  V30 8325 H 1098.9 3.47631 6.30632 0
M  V30 8326 H 1104.61 4.67628 4.28704 0
M  V30 8327 P 1106.46 7.39546 4.75277 0
M  V30 8328 O 1107.89 7.81777 5.05738 0
M  V30 8329 O 1106.1 7.1065 3.32998 0
M  V30 8330 O 1106.14 6.04542 5.56673 0
M  V30 8331 C 1105.98 6.22772 7.02095 0
M  V30 8332 C 1106.52 4.97725 7.70406 0
M  V30 8333 O 1105.46 4.13256 7.58987 0
M  V30 8334 C 1107.74 4.28231 7.11815 0
M  V30 8335 O 1108.48 3.49945 8.01648 0
M  V30 8336 C 1107.07 3.5063 5.96244 0
M  V30 8337 O 1107.87 2.36482 5.64681 0
M  V30 8338 C 1105.73 3.15122 6.56374 0
M  V30 8339 H 1105.76 2.13853 6.99751 0
M  V30 8340 H 1106.95 4.13501 5.06559 0
M  V30 8341 H 1108.43 5.03285 6.70911 0
M  V30 8342 H 1106.74 5.20877 8.75697 0
M  V30 8343 H 1106.55 7.11046 7.35349 0
M  V30 8344 H 1104.92 6.35815 7.26986 0
M  V30 8345 H 1107.56 1.61644 6.13565 0
M  V30 8346 P 1109.41 3.65191 7.99657 0
M  V30 8347 O 1110.84 3.8425 8.48115 0
M  V30 8348 O 1109.05 4.17805 6.64342 0
M  V30 8349 O 1109.09 2.07613 7.95143 0
M  V30 8350 C 1108.93 1.44328 9.27336 0
M  V30 8351 C 1109.47 0.0220036 9.17197 0
M  V30 8352 O 1108.42 -0.626867 8.61923 0
M  V30 8353 C 1110.69 -0.24586 8.30336 0
M  V30 8354 O 1111.43 -1.39011 8.63583 0
M  V30 8355 C 1110.02 -0.273849 6.91158 0
M  V30 8356 O 1110.82 -1.06348 6.02892 0
M  V30 8357 C 1108.68 -0.897649 7.22545 0
M  V30 8358 H 1108.72 -1.9841 7.04286 0
M  V30 8359 H 1109.9 0.739928 6.497 0
M  V30 8360 H 1111.38 0.60668 8.36503 0
M  V30 8361 H 1109.69 -0.352479 10.1829 0
M  V30 8362 H 1109.5 2.00611 10.0304 0
M  V30 8363 H 1107.87 1.41843 9.55327 0
M  V30 8364 H 1110.51 -1.95734 6.03555 0
M  V30 8365 P 1112.36 -1.25109 8.70152 0
M  V30 8366 O 1113.79 -1.35274 9.21221 0
M  V30 8367 O 1112 -0.0769065 7.84762 0
M  V30 8368 O 1112.04 -2.55232 7.81161 0
M  V30 8369 C 1111.88 -3.79939 8.58154 0
M  V30 8370 C 1112.42 -4.94023 7.72785 0
M  V30 8371 O 1111.37 -5.18726 6.91205 0
M  V30 8372 C 1113.64 -4.69597 6.85231 0
M  V30 8373 O 1114.38 -5.83832 6.51337 0
M  V30 8374 C 1112.97 -3.96706 5.66633 0
M  V30 8375 O 1113.77 -4.15414 4.49689 0
M  V30 8376 C 1111.63 -4.66153 5.59313 0
M  V30 8377 H 1111.67 -5.47679 4.85214 0
M  V30 8378 H 1112.85 -2.89008 5.86566 0
M  V30 8379 H 1114.33 -4.0121 7.36511 0
M  V30 8380 H 1112.64 -5.80182 8.37584 0
M  V30 8381 H 1112.45 -3.73517 9.52265 0
M  V30 8382 H 1110.82 -3.97163 8.80359 0
M  V30 8383 H 1113.46 -4.90969 4.01921 0
M  V30 8384 P 1115.32 -5.75688 6.64379 0
M  V30 8385 O 1116.74 -6.11849 7.01846 0
M  V30 8386 O 1114.96 -4.30744 6.56026 0
M  V30 8387 O 1114.99 -6.37042 5.19165 0
M  V30 8388 C 1114.83 -7.83578 5.16515 0
M  V30 8389 C 1115.37 -8.33398 3.83019 0
M  V30 8390 O 1114.32 -8.10074 3.01034 0
M  V30 8391 C 1116.59 -7.65514 3.2257 0
M  V30 8392 O 1117.33 -8.4329 2.32297 0
M  V30 8393 C 1115.92 -6.40075 2.62207 0
M  V30 8394 O 1116.72 -5.92589 1.53712 0
M  V30 8395 C 1114.58 -6.9454 2.18503 0
M  V30 8396 H 1114.62 -7.23063 1.12091 0
M  V30 8397 H 1115.8 -5.6025 3.37201 0
M  V30 8398 H 1117.28 -7.35707 4.02681 0
M  V30 8399 H 1115.59 -9.40912 3.9095 0
M  V30 8400 H 1115.4 -8.29056 5.99158 0
M  V30 8401 H 1113.77 -8.10073 5.25882 0
M  V30 8402 H 1116.41 -6.30324 0.726794 0
M  V30 8403 P 1118.27 -8.4349 2.47671 0
M  V30 8404 O 1119.69 -8.94167 2.5964 0
M  V30 8405 O 1117.91 -7.1704 3.19006 0
M  V30 8406 O 1117.94 -8.16596 0.923387 0
M  V30 8407 C 1117.78 -9.38437 0.108857 0
M  V30 8408 C 1118.32 -9.08175 -1.28353 0
M  V30 8409 O 1117.27 -8.44229 -1.84713 0
M  V30 8410 C 1119.54 -8.18386 -1.42505 0
M  V30 8411 O 1120.28 -8.3501 -2.60497 0
M  V30 8412 C 1118.87 -6.80225 -1.25468 0
M  V30 8413 O 1119.67 -5.81621 -1.91066 0
M  V30 8414 C 1117.54 -7.02416 -1.9168 0
M  V30 8415 H 1117.57 -6.6888 -2.96621 0
M  V30 8416 H 1118.75 -6.53617 -0.192223 0
M  V30 8417 H 1120.23 -8.36622 -0.589963 0
M  V30 8418 H 1118.54 -10.0291 -1.79807 0
M  V30 8419 H 1118.35 -10.2138 0.558219 0
M  V30 8420 H 1116.72 -9.6579 0.0444202 0
M  V30 8421 H 1119.36 -5.69556 -2.79637 0
M  V30 8422 P 1121.22 -8.4349 -2.47671 0
M  V30 8423 O 1122.64 -8.92593 -2.65 0
M  V30 8424 O 1120.86 -7.7568 -1.19296 0
M  V30 8425 O 1120.89 -7.36886 -3.63805 0
M  V30 8426 C 1120.73 -7.95349 -4.982 0
M  V30 8427 C 1121.27 -6.94612 -5.98974 0
M  V30 8428 O 1120.22 -6.10347 -6.11815 0
M  V30 8429 C 1122.49 -6.11426 -5.62335 0
M  V30 8430 O 1123.23 -5.6162 -6.70584 0
M  V30 8431 C 1121.82 -5.04409 -4.73308 0
M  V30 8432 O 1122.62 -3.85992 -4.75183 0
M  V30 8433 C 1120.49 -4.8728 -5.41006 0
M  V30 8434 H 1120.52 -4.02333 -6.11157 0
M  V30 8435 H 1121.7 -5.39466 -3.69543 0
M  V30 8436 H 1123.18 -6.71916 -5.01943 0
M  V30 8437 H 1121.49 -7.4649 -6.93477 0
M  V30 8438 H 1121.3 -8.89416 -5.05237 0
M  V30 8439 H 1119.67 -8.14876 -5.18409 0
M  V30 8440 H 1122.31 -3.27957 -5.4317 0
M  V30 8441 P 1124.17 -5.75688 -6.64379 0
M  V30 8442 O 1125.59 -6.07627 -7.05504 0
M  V30 8443 O 1123.81 -5.88047 -5.19722 0
M  V30 8444 O 1123.84 -4.2322 -7.04443 0
M  V30 8445 C 1123.68 -3.99743 -8.4911 0
M  V30 8446 C 1124.22 -2.60516 -8.79425 0
M  V30 8447 O 1123.17 -1.82684 -8.4467 0
M  V30 8448 C 1125.44 -2.10343 -8.03628 0
M  V30 8449 O 1126.18 -1.09919 -8.67766 0
M  V30 8450 C 1124.77 -1.68446 -6.70876 0
M  V30 8451 O 1125.57 -0.678137 -6.08433 0
M  V30 8452 C 1123.44 -1.17436 -7.18567 0
M  V30 8453 H 1123.47 -0.0804732 -7.31656 0
M  V30 8454 H 1124.65 -2.54037 -6.02537 0
M  V30 8455 H 1126.14 -2.93881 -7.85526 0
M  V30 8456 H 1124.44 -2.53065 -9.86973 0
M  V30 8457 H 1124.25 -4.75072 -9.05887 0
M  V30 8458 H 1122.62 -4.05244 -8.76668 0
M  V30 8459 H 1125.26 0.177647 -6.34251 0
M  V30 8460 P 1127.12 -1.25109 -8.70152 0
M  V30 8461 O 1128.54 -1.29744 -9.22016 0
M  V30 8462 O 1126.76 -2.13714 -7.55141 0
M  V30 8463 O 1126.79 0.248149 -8.21425 0
M  V30 8464 C 1126.63 1.22779 -9.30434 0
M  V30 8465 C 1127.17 2.56293 -8.80664 0
M  V30 8466 O 1126.12 3.02979 -8.09349 0
M  V30 8467 C 1128.39 2.57523 -7.89775 0
M  V30 8468 O 1129.13 3.7668 -7.89438 0
M  V30 8469 C 1127.72 2.20997 -6.55446 0
M  V30 8470 O 1128.52 2.71895 -5.48509 0
M  V30 8471 C 1126.39 2.89693 -6.67988 0
M  V30 8472 H 1126.42 3.88793 -6.19859 0
M  V30 8473 H 1127.6 1.12046 -6.44229 0
M  V30 8474 H 1129.09 1.7746 -8.19711 0
M  V30 8475 H 1127.39 3.20706 -9.67112 0
M  V30 8476 H 1127.2 0.901032 -10.1892 0
M  V30 8477 H 1125.57 1.33049 -9.56592 0
M  V30 8478 H 1128.21 3.57847 -5.23962 0
M  V30 8479 P 1130.07 3.65191 -7.99657 0
M  V30 8480 O 1131.49 3.89332 -8.45794 0
M  V30 8481 O 1129.71 2.28472 -7.50807 0
M  V30 8482 O 1129.75 4.64972 -6.77611 0
M  V30 8483 C 1129.59 6.06319 -7.16352 0
M  V30 8484 C 1130.13 6.91731 -6.02299 0
M  V30 8485 O 1129.07 6.92449 -5.17064 0
M  V30 8486 C 1131.34 6.43627 -5.25174 0
M  V30 8487 O 1132.08 7.43686 -4.60469 0
M  V30 8488 C 1130.67 5.40275 -4.31916 0
M  V30 8489 O 1131.47 5.25279 -3.14438 0
M  V30 8490 C 1129.34 6.04847 -4.05327 0
M  V30 8491 H 1129.37 6.62195 -3.11261 0
M  V30 8492 H 1130.55 4.42556 -4.81383 0
M  V30 8493 H 1132.04 5.92458 -5.93643 0
M  V30 8494 H 1130.34 7.92655 -6.402 0
M  V30 8495 H 1130.15 6.26671 -8.0846 0
M  V30 8496 H 1128.52 6.29101 -7.32804 0
M  V30 8497 H 1131.16 5.84315 -2.47318 0
M  V30 8498 P 1133.02 7.39546 -4.75277 0
M  V30 8499 O 1134.44 7.84798 -5.01039 0
M  V30 8500 O 1132.66 5.9812 -5.08098 0
M  V30 8501 O 1132.7 7.57503 -3.1866 0
M  V30 8502 C 1132.54 8.97357 -2.74833 0
M  V30 8503 C 1133.08 9.07548 -1.32709 0
M  V30 8504 O 1132.02 8.62072 -0.606159 0
M  V30 8505 C 1134.29 8.25383 -0.938334 0
M  V30 8506 O 1135.03 8.74577 0.146954 0
M  V30 8507 C 1133.62 6.8802 -0.712559 0
M  V30 8508 O 1134.42 6.1189 0.194655 0
M  V30 8509 C 1132.29 7.27966 -0.139777 0
M  V30 8510 H 1132.32 7.25354 0.961601 0
M  V30 8511 H 1133.5 6.32557 -1.65702 0
M  V30 8512 H 1134.99 8.19355 -1.79097 0
M  V30 8513 H 1133.29 10.1294 -1.10029 0
M  V30 8514 H 1133.1 9.64276 -3.41316 0
M  V30 8515 H 1131.47 9.25417 -2.76357 0
M  V30 8516 H 1134.11 6.25267 1.07847 0
M  V30 8517 P 1135.97 8.791 9.10682e-12 0
M  V30 8518 O 1137.39 9.31096 0.027933 0
M  V30 8519 O 1135.61 7.77869 -1.04071 0
M  V30 8520 O 1135.65 8.09533 1.41463 0
M  V30 8521 C 1135.49 9.0349 2.53943 0
M  V30 8522 C 1136.03 8.35226 3.79016 0
M  V30 8523 O 1134.97 7.57992 4.15078 0
M  V30 8524 C 1137.24 7.45087 3.67298 0
M  V30 8525 O 1137.98 7.27796 4.85194 0
M  V30 8526 C 1136.58 6.17323 3.12027 0
M  V30 8527 O 1137.37 5.04231 3.47188 0
M  V30 8528 C 1135.24 6.19961 3.81809 0
M  V30 8529 H 1135.27 5.58218 4.73051 0
M  V30 8530 H 1136.45 6.21726 2.02589 0
M  V30 8531 H 1137.94 7.86112 2.9231 0
M  V30 8532 H 1136.24 9.11627 4.55076 0
M  V30 8533 H 1136.05 9.9573 2.34194 0
M  V30 8534 H 1134.42 9.2792 2.67832 0
M  V30 8535 H 1137.06 4.67702 4.28772 0
M  V30 8536 P 1138.92 7.39546 4.75277 0
M  V30 8537 O 1140.34 7.81861 5.05793 0
M  V30 8538 O 1138.56 7.1065 3.32998 0
M  V30 8539 O 1138.6 6.04542 5.56673 0
M  V30 8540 C 1138.44 6.22839 7.02169 0
M  V30 8541 C 1138.98 4.97725 7.70406 0
M  V30 8542 O 1137.92 4.13208 7.58899 0
M  V30 8543 C 1140.2 4.28231 7.11815 0
M  V30 8544 O 1140.93 3.49945 8.01648 0
M  V30 8545 C 1139.53 3.5063 5.96244 0
M  V30 8546 O 1140.33 2.37008 5.64352 0
M  V30 8547 C 1138.19 3.15122 6.56374 0
M  V30 8548 N 1137.15 3.22311 5.55692 0
M  V30 8549 C 1137.32 3.99655 4.46046 0
M  V30 8550 N 1136.29 3.97599 3.63918 0
M  V30 8551 C 1135.4 3.11159 4.25334 0
M  V30 8552 C 1134.14 2.64972 3.85157 0
M  V30 8553 N 1133.54 3.02132 2.69405 0
M  V30 8554 N 1133.57 1.78482 4.74759 0
M  V30 8555 C 1134.17 1.37463 5.90819 0
M  V30 8556 N 1135.35 1.7733 6.31889 0
M  V30 8557 C 1135.93 2.64393 5.43725 0
M  V30 8558 H 1138.22 2.13823 6.99656 0
M  V30 8559 H 1139.4 4.12931 5.06895 0
M  V30 8560 H 1140.89 5.03285 6.70911 0
M  V30 8561 H 1139.19 5.20001 8.76217 0
M  V30 8562 H 1139 7.11046 7.35349 0
M  V30 8563 H 1137.37 6.35815 7.26986 0
M  V30 8564 H 1133.64 0.66574 6.53015 0
M  V30 8565 H 1138.22 4.58037 4.27732 0
M  V30 8566 H 1132.61 2.64828 2.45331 0
M  V30 8567 H 1134.01 3.67472 2.05644 0
M  V30 8568 H 1140.01 1.61619 6.13468 0
M  V30 8569 P 1141.87 3.65191 7.99657 0
M  V30 8570 O 1143.29 3.8425 8.48115 0
M  V30 8571 O 1141.51 4.17805 6.64342 0
M  V30 8572 O 1141.55 2.07613 7.95143 0
M  V30 8573 C 1141.39 1.44328 9.27336 0
M  V30 8574 C 1141.93 0.0220036 9.17197 0
M  V30 8575 O 1140.87 -0.626867 8.61923 0
M  V30 8576 C 1143.15 -0.24586 8.30336 0
M  V30 8577 O 1143.88 -1.39011 8.63583 0
M  V30 8578 C 1142.48 -0.273849 6.91158 0
M  V30 8579 O 1143.28 -1.06348 6.02892 0
M  V30 8580 C 1141.14 -0.897649 7.22545 0
M  V30 8581 H 1141.17 -1.9841 7.04286 0
M  V30 8582 H 1142.35 0.739928 6.497 0
M  V30 8583 H 1143.84 0.60668 8.36503 0
M  V30 8584 H 1142.14 -0.352479 10.1829 0
M  V30 8585 H 1141.95 2.00611 10.0304 0
M  V30 8586 H 1140.32 1.41843 9.55327 0
M  V30 8587 H 1142.96 -1.95734 6.03555 0
M  V30 8588 P 1144.82 -1.25109 8.70152 0
M  V30 8589 O 1146.24 -1.35274 9.21221 0
M  V30 8590 O 1144.46 -0.0769065 7.84762 0
M  V30 8591 O 1144.5 -2.55232 7.81161 0
M  V30 8592 C 1144.34 -3.79939 8.58154 0
M  V30 8593 C 1144.88 -4.94023 7.72785 0
M  V30 8594 O 1143.82 -5.18726 6.91205 0
M  V30 8595 C 1146.1 -4.69597 6.85231 0
M  V30 8596 O 1146.83 -5.83832 6.51337 0
M  V30 8597 C 1145.43 -3.96706 5.66633 0
M  V30 8598 O 1146.23 -4.15414 4.49689 0
M  V30 8599 C 1144.09 -4.66153 5.59313 0
M  V30 8600 H 1144.12 -5.47679 4.85214 0
M  V30 8601 H 1145.31 -2.89008 5.86566 0
M  V30 8602 H 1146.79 -4.0121 7.36511 0
M  V30 8603 H 1145.1 -5.80182 8.37584 0
M  V30 8604 H 1144.91 -3.73517 9.52265 0
M  V30 8605 H 1143.28 -3.97163 8.80359 0
M  V30 8606 H 1145.91 -4.90969 4.01921 0
M  V30 8607 P 1147.77 -5.75688 6.64379 0
M  V30 8608 O 1149.19 -6.11849 7.01846 0
M  V30 8609 O 1147.41 -4.30744 6.56026 0
M  V30 8610 O 1147.45 -6.37042 5.19165 0
M  V30 8611 C 1147.29 -7.83578 5.16515 0
M  V30 8612 C 1147.83 -8.33398 3.83019 0
M  V30 8613 O 1146.77 -8.10074 3.01034 0
M  V30 8614 C 1149.05 -7.65514 3.2257 0
M  V30 8615 O 1149.78 -8.4329 2.32297 0
M  V30 8616 C 1148.38 -6.40075 2.62207 0
M  V30 8617 O 1149.18 -5.92589 1.53712 0
M  V30 8618 C 1147.04 -6.9454 2.18503 0
M  V30 8619 H 1147.07 -7.23063 1.12091 0
M  V30 8620 H 1148.26 -5.6025 3.37201 0
M  V30 8621 H 1149.74 -7.35707 4.02681 0
M  V30 8622 H 1148.05 -9.40912 3.9095 0
M  V30 8623 H 1147.86 -8.29056 5.99158 0
M  V30 8624 H 1146.23 -8.10073 5.25882 0
M  V30 8625 H 1148.86 -6.30324 0.726794 0
M  V30 8626 P 1150.72 -8.4349 2.47671 0
M  V30 8627 O 1152.14 -8.94359 2.59696 0
M  V30 8628 O 1150.36 -7.1704 3.19006 0
M  V30 8629 O 1150.4 -8.16596 0.923387 0
M  V30 8630 C 1150.24 -9.38437 0.108857 0
M  V30 8631 C 1150.78 -9.08076 -1.28339 0
M  V30 8632 O 1149.72 -8.44229 -1.84713 0
M  V30 8633 C 1152 -8.18386 -1.42505 0
M  V30 8634 O 1152.74 -8.3501 -2.60497 0
M  V30 8635 C 1151.33 -6.80225 -1.25468 0
M  V30 8636 O 1152.13 -5.81526 -1.91035 0
M  V30 8637 C 1149.99 -7.02416 -1.9168 0
M  V30 8638 N 1148.95 -6.31033 -1.20314 0
M  V30 8639 C 1149.01 -6.18781 0.121293 0
M  V30 8640 N 1147.97 -5.49762 0.588272 0
M  V30 8641 C 1147.23 -5.22015 -0.488988 0
M  V30 8642 C 1145.93 -4.61966 -0.596448 0
M  V30 8643 O 1145.19 -4.19162 0.309059 0
M  V30 8644 N 1145.5 -4.53773 -1.878 0
M  V30 8645 C 1146.24 -4.99623 -2.99082 0
M  V30 8646 N 1145.65 -4.78912 -4.21227 0
M  V30 8647 N 1147.4 -5.59957 -2.91093 0
M  V30 8648 C 1147.85 -5.70225 -1.64218 0
M  V30 8649 H 1150.02 -6.6888 -2.96621 0
M  V30 8650 H 1151.21 -6.53517 -0.192194 0
M  V30 8651 H 1152.69 -8.36563 -0.598329 0
M  V30 8652 H 1151 -10.0291 -1.79807 0
M  V30 8653 H 1150.81 -10.2138 0.558219 0
M  V30 8654 H 1149.18 -9.6579 0.0444202 0
M  V30 8655 H 1144.6 -4.12883 -2.05283 0
M  V30 8656 H 1149.81 -6.59596 0.745856 0
M  V30 8657 H 1144.74 -4.31425 -4.2628 0
M  V30 8658 H 1146.11 -5.11219 -5.07148 0
M  V30 8659 H 1151.82 -5.69466 -2.79593 0
M  V30 8660 P 1153.67 -8.4349 -2.47671 0
M  V30 8661 O 1155.09 -8.92593 -2.65 0
M  V30 8662 O 1153.31 -7.7568 -1.19296 0
M  V30 8663 O 1153.35 -7.36886 -3.63805 0
M  V30 8664 C 1153.19 -7.95349 -4.982 0
M  V30 8665 C 1153.73 -6.94612 -5.98974 0
M  V30 8666 O 1152.67 -6.10347 -6.11815 0
M  V30 8667 C 1154.95 -6.11426 -5.62335 0
M  V30 8668 O 1155.69 -5.6162 -6.70584 0
M  V30 8669 C 1154.28 -5.04409 -4.73308 0
M  V30 8670 O 1155.08 -3.85992 -4.75183 0
M  V30 8671 C 1152.94 -4.8728 -5.41006 0
M  V30 8672 H 1152.97 -4.02333 -6.11157 0
M  V30 8673 H 1154.16 -5.39466 -3.69543 0
M  V30 8674 H 1155.64 -6.71916 -5.01943 0
M  V30 8675 H 1153.95 -7.4649 -6.93477 0
M  V30 8676 H 1153.76 -8.89416 -5.05237 0
M  V30 8677 H 1152.13 -8.14876 -5.18409 0
M  V30 8678 H 1154.77 -3.27957 -5.4317 0
M  V30 8679 P 1156.62 -5.75688 -6.64379 0
M  V30 8680 O 1158.04 -6.07692 -7.0558 0
M  V30 8681 O 1156.26 -5.88047 -5.19722 0
M  V30 8682 O 1156.3 -4.2322 -7.04443 0
M  V30 8683 C 1156.14 -3.99785 -8.49201 0
M  V30 8684 C 1156.68 -2.60516 -8.79425 0
M  V30 8685 O 1155.63 -1.82663 -8.44573 0
M  V30 8686 C 1157.9 -2.10343 -8.03628 0
M  V30 8687 O 1158.64 -1.09919 -8.67766 0
M  V30 8688 C 1157.23 -1.68446 -6.70876 0
M  V30 8689 O 1158.03 -0.684109 -6.08265 0
M  V30 8690 C 1155.89 -1.17436 -7.18567 0
M  V30 8691 N 1154.85 -1.52699 -6.23988 0
M  V30 8692 C 1155.02 -2.578 -5.40574 0
M  V30 8693 N 1153.99 -2.78966 -4.61193 0
M  V30 8694 C 1153.11 -1.78725 -4.95769 0
M  V30 8695 C 1151.84 -1.45727 -4.44207 0
M  V30 8696 N 1151.24 -2.13994 -3.43613 0
M  V30 8697 N 1151.27 -0.374977 -5.05812 0
M  V30 8698 C 1151.88 0.345585 -6.05615 0
M  V30 8699 N 1153.05 0.0787651 -6.56253 0
M  V30 8700 C 1153.63 -1.00499 -5.96189 0
M  V30 8701 H 1155.92 -0.0804622 -7.31556 0
M  V30 8702 H 1157.11 -2.53396 -6.02698 0
M  V30 8703 H 1158.59 -2.93881 -7.85526 0
M  V30 8704 H 1156.9 -2.52078 -9.87225 0
M  V30 8705 H 1156.71 -4.75072 -9.05887 0
M  V30 8706 H 1155.08 -4.05244 -8.76668 0
M  V30 8707 H 1151.34 1.20098 -6.4532 0
M  V30 8708 H 1155.92 -3.18977 -5.3945 0
M  V30 8709 H 1150.31 -1.84983 -3.10004 0
M  V30 8710 H 1151.71 -2.9465 -3.00843 0
M  V30 8711 H 1157.72 0.177619 -6.34151 0
M  V30 8712 P 1159.57 -1.25109 -8.70152 0
M  V30 8713 O 1160.98 -1.3516 -9.26897 0
M  V30 8714 O 1159.2 -2.18141 -7.59181 0
M  V30 8715 O 1159.25 0.248118 -8.21325 0
M  V30 8716 C 1159.09 1.22779 -9.30434 0
M  V30 8717 C 1159.63 2.56265 -8.80568 0
M  V30 8718 O 1158.58 3.02944 -8.09255 0
M  V30 8719 C 1160.85 2.57523 -7.89775 0
M  V30 8720 O 1161.59 3.7668 -7.89438 0
M  V30 8721 C 1160.18 2.20997 -6.55446 0
M  V30 8722 O 1160.98 2.71851 -5.48419 0
M  V30 8723 C 1158.84 2.89693 -6.67988 0
M  V30 8724 N 1157.8 2.08895 -6.07487 0
M  V30 8725 C 1156.77 2.72974 -5.43836 0
M  V30 8726 O 1156.8 3.97779 -5.34036 0
M  V30 8727 N 1155.75 2.0005 -4.91983 0
M  V30 8728 C 1155.8 0.66501 -5.00098 0
M  V30 8729 C 1156.9 -0.0100979 -5.61099 0
M  V30 8730 C 1157.86 0.74189 -6.14236 0
M  V30 8731 H 1158.88 3.8874 -6.19774 0
M  V30 8732 H 1160.06 1.12673 -6.44018 0
M  V30 8733 H 1161.54 1.783 -8.19631 0
M  V30 8734 H 1159.85 3.21673 -9.66791 0
M  V30 8735 H 1159.66 0.901032 -10.1892 0
M  V30 8736 H 1158.03 1.33036 -9.56493 0
M  V30 8737 H 1156.95 -1.09591 -5.64358 0
M  V30 8738 H 1158.71 0.260263 -6.6359 0
M  V30 8739 H 1160.76 3.62759 -5.33442 0
M  V30 8740 P 1162.52 3.65191 -7.99657 0
M  V30 8741 O 1163.95 3.89332 -8.45794 0
M  V30 8742 O 1162.16 2.28472 -7.50807 0
M  V30 8743 O 1162.2 4.64972 -6.77611 0
M  V30 8744 C 1162.04 6.06319 -7.16352 0
M  V30 8745 C 1162.58 6.91731 -6.02299 0
M  V30 8746 O 1161.53 6.92449 -5.17064 0
M  V30 8747 C 1163.8 6.43627 -5.25174 0
M  V30 8748 O 1164.54 7.43686 -4.60469 0
M  V30 8749 C 1163.13 5.40275 -4.31916 0
M  V30 8750 O 1163.93 5.25279 -3.14438 0
M  V30 8751 C 1161.79 6.04847 -4.05327 0
M  V30 8752 H 1161.83 6.62195 -3.11261 0
M  V30 8753 H 1163.01 4.42556 -4.81383 0
M  V30 8754 H 1164.49 5.92458 -5.93643 0
M  V30 8755 H 1162.8 7.92655 -6.402 0
M  V30 8756 H 1162.61 6.26671 -8.0846 0
M  V30 8757 H 1160.98 6.29101 -7.32804 0
M  V30 8758 H 1163.62 5.84315 -2.47318 0
M  V30 8759 P 1165.48 7.39546 -4.75277 0
M  V30 8760 O 1166.9 7.84798 -5.01039 0
M  V30 8761 O 1165.12 5.9812 -5.08098 0
M  V30 8762 O 1165.15 7.57503 -3.1866 0
M  V30 8763 C 1164.99 8.97357 -2.74833 0
M  V30 8764 C 1165.53 9.07548 -1.32709 0
M  V30 8765 O 1164.48 8.62072 -0.606159 0
M  V30 8766 C 1166.75 8.25383 -0.938334 0
M  V30 8767 O 1167.49 8.74577 0.146954 0
M  V30 8768 C 1166.08 6.8802 -0.712559 0
M  V30 8769 O 1166.88 6.1189 0.194655 0
M  V30 8770 C 1164.74 7.27966 -0.139777 0
M  V30 8771 H 1164.78 7.25354 0.961601 0
M  V30 8772 H 1165.96 6.32557 -1.65702 0
M  V30 8773 H 1167.44 8.19355 -1.79097 0
M  V30 8774 H 1165.75 10.1294 -1.10029 0
M  V30 8775 H 1165.56 9.64276 -3.41316 0
M  V30 8776 H 1163.93 9.25417 -2.76357 0
M  V30 8777 H 1166.57 6.25267 1.07847 0
M  V30 8778 P 1168.43 8.791 9.41699e-12 0
M  V30 8779 O 1169.85 9.31096 0.027933 0
M  V30 8780 O 1168.07 7.77869 -1.04071 0
M  V30 8781 O 1168.1 8.09533 1.41463 0
M  V30 8782 C 1167.94 9.0349 2.53943 0
M  V30 8783 C 1168.48 8.35226 3.79016 0
M  V30 8784 O 1167.43 7.57992 4.15078 0
M  V30 8785 C 1169.7 7.45087 3.67298 0
M  V30 8786 O 1170.44 7.27796 4.85194 0
M  V30 8787 C 1169.03 6.17323 3.12027 0
M  V30 8788 O 1169.83 5.04231 3.47188 0
M  V30 8789 C 1167.69 6.19961 3.81809 0
M  V30 8790 H 1167.73 5.58218 4.73051 0
M  V30 8791 H 1168.91 6.21726 2.02589 0
M  V30 8792 H 1170.39 7.86112 2.9231 0
M  V30 8793 H 1168.7 9.11627 4.55076 0
M  V30 8794 H 1168.51 9.9573 2.34194 0
M  V30 8795 H 1166.88 9.2792 2.67832 0
M  V30 8796 H 1169.52 4.67702 4.28772 0
M  V30 8797 P 1171.38 7.39546 4.75277 0
M  V30 8798 O 1172.8 7.81777 5.05738 0
M  V30 8799 O 1171.02 7.1065 3.32998 0
M  V30 8800 O 1171.05 6.04542 5.56673 0
M  V30 8801 C 1170.89 6.22772 7.02095 0
M  V30 8802 C 1171.43 4.97725 7.70406 0
M  V30 8803 O 1170.38 4.13256 7.58987 0
M  V30 8804 C 1172.65 4.28231 7.11815 0
M  V30 8805 O 1173.39 3.49945 8.01648 0
M  V30 8806 C 1171.98 3.5063 5.96244 0
M  V30 8807 O 1172.78 2.36482 5.64681 0
M  V30 8808 C 1170.65 3.15122 6.56374 0
M  V30 8809 H 1170.68 2.13853 6.99751 0
M  V30 8810 H 1171.86 4.13501 5.06559 0
M  V30 8811 H 1173.34 5.03285 6.70911 0
M  V30 8812 H 1171.65 5.20877 8.75697 0
M  V30 8813 H 1171.46 7.11046 7.35349 0
M  V30 8814 H 1169.83 6.35815 7.26986 0
M  V30 8815 H 1172.47 1.61644 6.13565 0
M  V30 8816 P 1174.33 3.65191 7.99657 0
M  V30 8817 O 1175.75 3.8425 8.48115 0
M  V30 8818 O 1173.97 4.17805 6.64342 0
M  V30 8819 O 1174 2.07613 7.95143 0
M  V30 8820 C 1173.84 1.44328 9.27336 0
M  V30 8821 C 1174.38 0.0220036 9.17197 0
M  V30 8822 O 1173.33 -0.626867 8.61923 0
M  V30 8823 C 1175.6 -0.24586 8.30336 0
M  V30 8824 O 1176.34 -1.39011 8.63583 0
M  V30 8825 C 1174.93 -0.273849 6.91158 0
M  V30 8826 O 1175.73 -1.06348 6.02892 0
M  V30 8827 C 1173.6 -0.897649 7.22545 0
M  V30 8828 H 1173.63 -1.9841 7.04286 0
M  V30 8829 H 1174.81 0.739928 6.497 0
M  V30 8830 H 1176.29 0.60668 8.36503 0
M  V30 8831 H 1174.6 -0.352479 10.1829 0
M  V30 8832 H 1174.41 2.00611 10.0304 0
M  V30 8833 H 1172.78 1.41843 9.55327 0
M  V30 8834 H 1175.42 -1.95734 6.03555 0
M  V30 8835 P 1177.28 -1.25109 8.70152 0
M  V30 8836 O 1178.7 -1.35274 9.21221 0
M  V30 8837 O 1176.92 -0.0769065 7.84762 0
M  V30 8838 O 1176.95 -2.55232 7.81161 0
M  V30 8839 C 1176.79 -3.79939 8.58154 0
M  V30 8840 C 1177.33 -4.94023 7.72785 0
M  V30 8841 O 1176.28 -5.18726 6.91205 0
M  V30 8842 C 1178.55 -4.69597 6.85231 0
M  V30 8843 O 1179.29 -5.83832 6.51337 0
M  V30 8844 C 1177.88 -3.96706 5.66633 0
M  V30 8845 O 1178.68 -4.15414 4.49689 0
M  V30 8846 C 1176.55 -4.66153 5.59313 0
M  V30 8847 H 1176.58 -5.47679 4.85214 0
M  V30 8848 H 1177.76 -2.89008 5.86566 0
M  V30 8849 H 1179.25 -4.0121 7.36511 0
M  V30 8850 H 1177.55 -5.80182 8.37584 0
M  V30 8851 H 1177.36 -3.73517 9.52265 0
M  V30 8852 H 1175.73 -3.97163 8.80359 0
M  V30 8853 H 1178.37 -4.90969 4.01921 0
M  V30 8854 P 1180.23 -5.75688 6.64379 0
M  V30 8855 O 1181.65 -6.11849 7.01846 0
M  V30 8856 O 1179.87 -4.30744 6.56026 0
M  V30 8857 O 1179.9 -6.37042 5.19165 0
M  V30 8858 C 1179.74 -7.83578 5.16515 0
M  V30 8859 C 1180.28 -8.33398 3.83019 0
M  V30 8860 O 1179.23 -8.10074 3.01034 0
M  V30 8861 C 1181.5 -7.65514 3.2257 0
M  V30 8862 O 1182.24 -8.4329 2.32297 0
M  V30 8863 C 1180.83 -6.40075 2.62207 0
M  V30 8864 O 1181.63 -5.92589 1.53712 0
M  V30 8865 C 1179.5 -6.9454 2.18503 0
M  V30 8866 H 1179.53 -7.23063 1.12091 0
M  V30 8867 H 1180.71 -5.6025 3.37201 0
M  V30 8868 H 1182.2 -7.35707 4.02681 0
M  V30 8869 H 1180.5 -9.40912 3.9095 0
M  V30 8870 H 1180.31 -8.29056 5.99158 0
M  V30 8871 H 1178.68 -8.10073 5.25882 0
M  V30 8872 H 1181.32 -6.30324 0.726794 0
M  V30 8873 P 1183.18 -8.4349 2.47671 0
M  V30 8874 O 1184.6 -8.94167 2.5964 0
M  V30 8875 O 1182.82 -7.1704 3.19006 0
M  V30 8876 O 1182.86 -8.16596 0.923387 0
M  V30 8877 C 1182.7 -9.38437 0.108857 0
M  V30 8878 C 1183.24 -9.08175 -1.28353 0
M  V30 8879 O 1182.18 -8.44229 -1.84713 0
M  V30 8880 C 1184.45 -8.18386 -1.42505 0
M  V30 8881 O 1185.19 -8.3501 -2.60497 0
M  V30 8882 C 1183.78 -6.80225 -1.25468 0
M  V30 8883 O 1184.58 -5.81621 -1.91066 0
M  V30 8884 C 1182.45 -7.02416 -1.9168 0
M  V30 8885 H 1182.48 -6.6888 -2.96621 0
M  V30 8886 H 1183.66 -6.53617 -0.192223 0
M  V30 8887 H 1185.15 -8.36622 -0.589963 0
M  V30 8888 H 1183.45 -10.0291 -1.79807 0
M  V30 8889 H 1183.26 -10.2138 0.558219 0
M  V30 8890 H 1181.63 -9.6579 0.0444202 0
M  V30 8891 H 1184.27 -5.69556 -2.79637 0
M  V30 8892 P 1186.13 -8.4349 -2.47671 0
M  V30 8893 O 1187.55 -8.92593 -2.65 0
M  V30 8894 O 1185.77 -7.7568 -1.19296 0
M  V30 8895 O 1185.81 -7.36886 -3.63805 0
M  V30 8896 C 1185.65 -7.95349 -4.982 0
M  V30 8897 C 1186.19 -6.94612 -5.98974 0
M  V30 8898 O 1185.13 -6.10347 -6.11815 0
M  V30 8899 C 1187.4 -6.11426 -5.62335 0
M  V30 8900 O 1188.14 -5.6162 -6.70584 0
M  V30 8901 C 1186.74 -5.04409 -4.73308 0
M  V30 8902 O 1187.53 -3.85992 -4.75183 0
M  V30 8903 C 1185.4 -4.8728 -5.41006 0
M  V30 8904 H 1185.43 -4.02333 -6.11157 0
M  V30 8905 H 1186.61 -5.39466 -3.69543 0
M  V30 8906 H 1188.1 -6.71916 -5.01943 0
M  V30 8907 H 1186.4 -7.4649 -6.93477 0
M  V30 8908 H 1186.21 -8.89416 -5.05237 0
M  V30 8909 H 1184.58 -8.14876 -5.18409 0
M  V30 8910 H 1187.22 -3.27957 -5.4317 0
M  V30 8911 P 1189.08 -5.75688 -6.64379 0
M  V30 8912 O 1190.5 -6.07758 -7.05656 0
M  V30 8913 O 1188.72 -5.88047 -5.19722 0
M  V30 8914 O 1188.76 -4.2322 -7.04443 0
M  V30 8915 C 1188.6 -3.99743 -8.4911 0
M  V30 8916 C 1189.14 -2.60487 -8.79329 0
M  V30 8917 O 1188.08 -1.82684 -8.4467 0
M  V30 8918 C 1190.35 -2.10343 -8.03628 0
M  V30 8919 O 1191.09 -1.09919 -8.67766 0
M  V30 8920 C 1189.69 -1.68446 -6.70876 0
M  V30 8921 O 1190.48 -0.678026 -6.08333 0
M  V30 8922 C 1188.35 -1.17436 -7.18567 0
M  V30 8923 N 1187.31 -1.52699 -6.23988 0
M  V30 8924 C 1187.37 -2.68084 -5.57824 0
M  V30 8925 N 1186.32 -2.8189 -4.75643 0
M  V30 8926 C 1185.59 -1.72373 -4.95155 0
M  V30 8927 C 1184.28 -1.37653 -4.44996 0
M  V30 8928 O 1183.55 -2.02239 -3.68445 0
M  V30 8929 N 1183.85 -0.17675 -4.90782 0
M  V30 8930 C 1184.6 0.645036 -5.78716 0
M  V30 8931 N 1184 1.84214 -6.10618 0
M  V30 8932 N 1185.75 0.321732 -6.30279 0
M  V30 8933 C 1186.21 -0.87502 -5.86913 0
M  V30 8934 H 1188.38 -0.0804732 -7.31656 0
M  V30 8935 H 1189.56 -2.53998 -6.02444 0
M  V30 8936 H 1191.05 -2.93095 -7.8582 0
M  V30 8937 H 1189.35 -2.53065 -9.86973 0
M  V30 8938 H 1189.16 -4.75072 -9.05887 0
M  V30 8939 H 1187.53 -4.05244 -8.76668 0
M  V30 8940 H 1182.96 0.152143 -4.60849 0
M  V30 8941 H 1188.16 -3.41852 -5.69006 0
M  V30 8942 H 1183.09 2.08538 -5.69521 0
M  V30 8943 H 1184.47 2.4895 -6.75698 0
M  V30 8944 H 1190.17 0.177619 -6.34151 0
M  V30 8945 P 1192.03 -1.25109 -8.70152 0
M  V30 8946 O 1193.45 -1.29744 -9.22016 0
M  V30 8947 O 1191.67 -2.13714 -7.55141 0
M  V30 8948 O 1191.71 0.248149 -8.21425 0
M  V30 8949 C 1191.55 1.22779 -9.30434 0
M  V30 8950 C 1192.09 2.56293 -8.80664 0
M  V30 8951 O 1191.03 3.02979 -8.09349 0
M  V30 8952 C 1193.31 2.57523 -7.89775 0
M  V30 8953 O 1194.04 3.7668 -7.89438 0
M  V30 8954 C 1192.64 2.20997 -6.55446 0
M  V30 8955 O 1193.44 2.71895 -5.48509 0
M  V30 8956 C 1191.3 2.89693 -6.67988 0
M  V30 8957 H 1191.33 3.88793 -6.19859 0
M  V30 8958 H 1192.51 1.12046 -6.44229 0
M  V30 8959 H 1194 1.7746 -8.19711 0
M  V30 8960 H 1192.3 3.20706 -9.67112 0
M  V30 8961 H 1192.11 0.901032 -10.1892 0
M  V30 8962 H 1190.48 1.33049 -9.56592 0
M  V30 8963 H 1193.12 3.57847 -5.23962 0
M  V30 8964 P 1194.98 3.65191 -7.99657 0
M  V30 8965 O 1196.4 3.89332 -8.45794 0
M  V30 8966 O 1194.62 2.28472 -7.50807 0
M  V30 8967 O 1194.66 4.64972 -6.77611 0
M  V30 8968 C 1194.5 6.06319 -7.16352 0
M  V30 8969 C 1195.04 6.91731 -6.02299 0
M  V30 8970 O 1193.98 6.92449 -5.17064 0
M  V30 8971 C 1196.26 6.43627 -5.25174 0
M  V30 8972 O 1196.99 7.43686 -4.60469 0
M  V30 8973 C 1195.59 5.40275 -4.31916 0
M  V30 8974 O 1196.39 5.25279 -3.14438 0
M  V30 8975 C 1194.25 6.04847 -4.05327 0
M  V30 8976 H 1194.28 6.62195 -3.11261 0
M  V30 8977 H 1195.46 4.42556 -4.81383 0
M  V30 8978 H 1196.95 5.92458 -5.93643 0
M  V30 8979 H 1195.25 7.92655 -6.402 0
M  V30 8980 H 1195.06 6.26671 -8.0846 0
M  V30 8981 H 1193.43 6.29101 -7.32804 0
M  V30 8982 H 1196.07 5.84315 -2.47318 0
M  V30 8983 P 1197.93 7.39546 -4.75277 0
M  V30 8984 O 1199.35 7.84882 -5.01092 0
M  V30 8985 O 1197.57 5.9812 -5.08098 0
M  V30 8986 O 1197.61 7.57503 -3.1866 0
M  V30 8987 C 1197.45 8.97452 -2.74862 0
M  V30 8988 C 1197.99 9.07548 -1.32709 0
M  V30 8989 O 1196.93 8.61972 -0.606089 0
M  V30 8990 C 1199.21 8.25383 -0.938334 0
M  V30 8991 O 1199.94 8.74577 0.146954 0
M  V30 8992 C 1198.54 6.8802 -0.712559 0
M  V30 8993 O 1199.34 6.1181 0.188505 0
M  V30 8994 C 1197.2 7.27966 -0.139777 0
M  V30 8995 N 1196.16 6.39368 -0.623421 0
M  V30 8996 C 1196.33 5.71761 -1.78245 0
M  V30 8997 N 1195.3 4.962 -2.10491 0
M  V30 8998 C 1194.41 5.16158 -1.0635 0
M  V30 8999 C 1193.15 4.60425 -0.810266 0
M  V30 9000 N 1192.58 5.06 0.348685 0
M  V30 9001 C 1193.18 5.94532 1.20395 0
M  V30 9002 N 1194.36 6.48452 1.01191 0
M  V30 9003 C 1194.94 6.04423 -0.146291 0
M  V30 9004 H 1198.42 6.32625 -1.65044 0
M  V30 9005 H 1199.9 8.19355 -1.79097 0
M  V30 9006 H 1198.2 10.1305 -1.09016 0
M  V30 9007 H 1198.01 9.64276 -3.41316 0
M  V30 9008 H 1196.38 9.25417 -2.76357 0
M  V30 9009 H 1197.23 5.79354 -2.38959 0
M  V30 9010 H 1199.02 6.25169 1.0783 0
M  V30 9011 P 1200.88 8.791 9.72715e-12 0
M  V30 9012 O 1202.3 9.31096 0.027933 0
M  V30 9013 O 1200.52 7.77869 -1.04071 0
M  V30 9014 O 1200.56 8.09533 1.41463 0
M  V30 9015 C 1200.4 9.0349 2.53943 0
M  V30 9016 C 1200.94 8.35226 3.79016 0
M  V30 9017 O 1199.88 7.57992 4.15078 0
M  V30 9018 C 1202.16 7.45087 3.67298 0
M  V30 9019 O 1202.89 7.27796 4.85194 0
M  V30 9020 C 1201.49 6.17323 3.12027 0
M  V30 9021 O 1202.29 5.04231 3.47188 0
M  V30 9022 C 1200.15 6.19961 3.81809 0
M  V30 9023 H 1200.18 5.58218 4.73051 0
M  V30 9024 H 1201.37 6.21726 2.02589 0
M  V30 9025 H 1202.85 7.86112 2.9231 0
M  V30 9026 H 1201.16 9.11627 4.55076 0
M  V30 9027 H 1200.97 9.9573 2.34194 0
M  V30 9028 H 1199.34 9.2792 2.67832 0
M  V30 9029 H 1201.97 4.67702 4.28772 0
M  V30 9030 P 1203.83 7.39546 4.75277 0
M  V30 9031 O 1205.25 7.81777 5.05738 0
M  V30 9032 O 1203.47 7.1065 3.32998 0
M  V30 9033 O 1203.51 6.04542 5.56673 0
M  V30 9034 C 1203.35 6.22772 7.02095 0
M  V30 9035 C 1203.89 4.97725 7.70406 0
M  V30 9036 O 1202.83 4.13256 7.58987 0
M  V30 9037 C 1205.11 4.28231 7.11815 0
M  V30 9038 O 1205.85 3.49945 8.01648 0
M  V30 9039 C 1204.44 3.5063 5.96244 0
M  V30 9040 O 1205.24 2.36482 5.64681 0
M  V30 9041 C 1203.1 3.15122 6.56374 0
M  V30 9042 H 1203.13 2.13853 6.99751 0
M  V30 9043 H 1204.32 4.13501 5.06559 0
M  V30 9044 H 1205.8 5.03285 6.70911 0
M  V30 9045 H 1204.11 5.20877 8.75697 0
M  V30 9046 H 1203.92 7.11046 7.35349 0
M  V30 9047 H 1202.29 6.35815 7.26986 0
M  V30 9048 H 1204.93 1.61644 6.13565 0
M  V30 9049 P 1206.78 3.65191 7.99657 0
M  V30 9050 O 1208.21 3.8425 8.48115 0
M  V30 9051 O 1206.42 4.17805 6.64342 0
M  V30 9052 O 1206.46 2.07613 7.95143 0
M  V30 9053 C 1206.3 1.44328 9.27336 0
M  V30 9054 C 1206.84 0.0220036 9.17197 0
M  V30 9055 O 1205.78 -0.626867 8.61923 0
M  V30 9056 C 1208.06 -0.24586 8.30336 0
M  V30 9057 O 1208.8 -1.39011 8.63583 0
M  V30 9058 C 1207.39 -0.273849 6.91158 0
M  V30 9059 O 1208.19 -1.06348 6.02892 0
M  V30 9060 C 1206.05 -0.897649 7.22545 0
M  V30 9061 H 1206.08 -1.9841 7.04286 0
M  V30 9062 H 1207.27 0.739928 6.497 0
M  V30 9063 H 1208.75 0.60668 8.36503 0
M  V30 9064 H 1207.06 -0.352479 10.1829 0
M  V30 9065 H 1206.87 2.00611 10.0304 0
M  V30 9066 H 1205.24 1.41843 9.55327 0
M  V30 9067 H 1207.88 -1.95734 6.03555 0
M  V30 9068 P 1209.73 -1.25109 8.70152 0
M  V30 9069 O 1211.16 -1.35274 9.21221 0
M  V30 9070 O 1209.37 -0.0769065 7.84762 0
M  V30 9071 O 1209.41 -2.55232 7.81161 0
M  V30 9072 C 1209.25 -3.79939 8.58154 0
M  V30 9073 C 1209.79 -4.94023 7.72785 0
M  V30 9074 O 1208.73 -5.18726 6.91205 0
M  V30 9075 C 1211.01 -4.69597 6.85231 0
M  V30 9076 O 1211.75 -5.83832 6.51337 0
M  V30 9077 C 1210.34 -3.96706 5.66633 0
M  V30 9078 O 1211.14 -4.15414 4.49689 0
M  V30 9079 C 1209 -4.66153 5.59313 0
M  V30 9080 H 1209.03 -5.47679 4.85214 0
M  V30 9081 H 1210.22 -2.89008 5.86566 0
M  V30 9082 H 1211.7 -4.0121 7.36511 0
M  V30 9083 H 1210.01 -5.80182 8.37584 0
M  V30 9084 H 1209.82 -3.73517 9.52265 0
M  V30 9085 H 1208.19 -3.97163 8.80359 0
M  V30 9086 H 1210.83 -4.90969 4.01921 0
M  V30 9087 P 1212.68 -5.75688 6.64379 0
M  V30 9088 O 1214.11 -6.11915 7.01921 0
M  V30 9089 O 1212.32 -4.30744 6.56026 0
M  V30 9090 O 1212.36 -6.37042 5.19165 0
M  V30 9091 C 1212.2 -7.83662 5.1657 0
M  V30 9092 C 1212.74 -8.33398 3.83019 0
M  V30 9093 O 1211.69 -8.0998 3.00999 0
M  V30 9094 C 1213.96 -7.65514 3.2257 0
M  V30 9095 O 1214.7 -8.4329 2.32297 0
M  V30 9096 C 1213.29 -6.40075 2.62207 0
M  V30 9097 O 1214.09 -5.92338 1.5428 0
M  V30 9098 C 1211.95 -6.9454 2.18503 0
M  V30 9099 N 1210.91 -5.95905 2.39948 0
M  V30 9100 C 1211.08 -4.98383 3.32108 0
M  V30 9101 N 1210.05 -4.16798 3.41761 0
M  V30 9102 C 1209.17 -4.65287 2.47461 0
M  V30 9103 C 1207.9 -4.18946 2.07461 0
M  V30 9104 N 1207.3 -3.09661 2.60717 0
M  V30 9105 N 1207.34 -4.95327 1.09101 0
M  V30 9106 C 1207.94 -6.04369 0.519812 0
M  V30 9107 N 1209.11 -6.50694 0.855982 0
M  V30 9108 C 1209.69 -5.75818 1.84322 0
M  V30 9109 H 1211.99 -7.22964 1.12076 0
M  V30 9110 H 1213.17 -5.60502 3.36589 0
M  V30 9111 H 1214.65 -7.35707 4.02681 0
M  V30 9112 H 1212.96 -9.41302 3.90009 0
M  V30 9113 H 1212.77 -8.29056 5.99158 0
M  V30 9114 H 1211.14 -8.10073 5.25882 0
M  V30 9115 H 1207.4 -6.55843 -0.270373 0
M  V30 9116 H 1211.98 -4.88564 3.92502 0
M  V30 9117 H 1206.37 -2.80523 2.27218 0
M  V30 9118 H 1207.78 -2.55848 3.34465 0
M  V30 9119 H 1213.78 -6.30224 0.72668 0
M  V30 9120 P 1215.63 -8.4349 2.47671 0
M  V30 9121 O 1217.06 -8.94167 2.5964 0
M  V30 9122 O 1215.27 -7.1704 3.19006 0
M  V30 9123 O 1215.31 -8.16596 0.923387 0
M  V30 9124 C 1215.15 -9.38437 0.108857 0
M  V30 9125 C 1215.69 -9.08175 -1.28353 0
M  V30 9126 O 1214.64 -8.44229 -1.84713 0
M  V30 9127 C 1216.91 -8.18386 -1.42505 0
M  V30 9128 O 1217.65 -8.3501 -2.60497 0
M  V30 9129 C 1216.24 -6.80225 -1.25468 0
M  V30 9130 O 1217.04 -5.81621 -1.91066 0
M  V30 9131 C 1214.9 -7.02416 -1.9168 0
M  V30 9132 H 1214.94 -6.6888 -2.96621 0
M  V30 9133 H 1216.12 -6.53617 -0.192223 0
M  V30 9134 H 1217.6 -8.36622 -0.589963 0
M  V30 9135 H 1215.91 -10.0291 -1.79807 0
M  V30 9136 H 1215.72 -10.2138 0.558219 0
M  V30 9137 H 1214.09 -9.6579 0.0444202 0
M  V30 9138 H 1216.73 -5.69556 -2.79637 0
M  V30 9139 P 1218.59 -8.4349 -2.47671 0
M  V30 9140 O 1220.01 -8.92593 -2.65 0
M  V30 9141 O 1218.23 -7.7568 -1.19296 0
M  V30 9142 O 1218.26 -7.36886 -3.63805 0
M  V30 9143 C 1218.1 -7.95349 -4.982 0
M  V30 9144 C 1218.64 -6.94612 -5.98974 0
M  V30 9145 O 1217.59 -6.10347 -6.11815 0
M  V30 9146 C 1219.86 -6.11426 -5.62335 0
M  V30 9147 O 1220.6 -5.6162 -6.70584 0
M  V30 9148 C 1219.19 -5.04409 -4.73308 0
M  V30 9149 O 1219.99 -3.85992 -4.75183 0
M  V30 9150 C 1217.85 -4.8728 -5.41006 0
M  V30 9151 H 1217.89 -4.02333 -6.11157 0
M  V30 9152 H 1219.07 -5.39466 -3.69543 0
M  V30 9153 H 1220.55 -6.71916 -5.01943 0
M  V30 9154 H 1218.86 -7.4649 -6.93477 0
M  V30 9155 H 1218.67 -8.89416 -5.05237 0
M  V30 9156 H 1217.04 -8.14876 -5.18409 0
M  V30 9157 H 1219.68 -3.27957 -5.4317 0
M  V30 9158 P 1221.54 -5.75688 -6.64379 0
M  V30 9159 O 1222.96 -6.07627 -7.05504 0
M  V30 9160 O 1221.18 -5.88047 -5.19722 0
M  V30 9161 O 1221.21 -4.2322 -7.04443 0
M  V30 9162 C 1221.05 -3.99743 -8.4911 0
M  V30 9163 C 1221.59 -2.60516 -8.79425 0
M  V30 9164 O 1220.54 -1.82684 -8.4467 0
M  V30 9165 C 1222.81 -2.10343 -8.03628 0
M  V30 9166 O 1223.55 -1.09919 -8.67766 0
M  V30 9167 C 1222.14 -1.68446 -6.70876 0
M  V30 9168 O 1222.94 -0.678137 -6.08433 0
M  V30 9169 C 1220.8 -1.17436 -7.18567 0
M  V30 9170 H 1220.84 -0.0804732 -7.31656 0
M  V30 9171 H 1222.02 -2.54037 -6.02537 0
M  V30 9172 H 1223.5 -2.93881 -7.85526 0
M  V30 9173 H 1221.81 -2.53065 -9.86973 0
M  V30 9174 H 1221.62 -4.75072 -9.05887 0
M  V30 9175 H 1219.99 -4.05244 -8.76668 0
M  V30 9176 H 1222.63 0.177647 -6.34251 0
M  V30 9177 P 1224.49 -1.25109 -8.70152 0
M  V30 9178 O 1225.91 -1.29772 -9.22214 0
M  V30 9179 O 1224.13 -2.13714 -7.55141 0
M  V30 9180 O 1224.16 0.248149 -8.21425 0
M  V30 9181 C 1224 1.22779 -9.30434 0
M  V30 9182 C 1224.54 2.56265 -8.80568 0
M  V30 9183 O 1223.49 3.02979 -8.09349 0
M  V30 9184 C 1225.76 2.57523 -7.89775 0
M  V30 9185 O 1226.5 3.7668 -7.89438 0
M  V30 9186 C 1225.09 2.20997 -6.55446 0
M  V30 9187 O 1225.89 2.71851 -5.48419 0
M  V30 9188 C 1223.76 2.89693 -6.67988 0
M  V30 9189 N 1222.71 2.08895 -6.07487 0
M  V30 9190 C 1222.77 0.760559 -6.14209 0
M  V30 9191 N 1221.73 0.200108 -5.52538 0
M  V30 9192 C 1221 1.22692 -5.09742 0
M  V30 9193 C 1219.69 1.24782 -4.48775 0
M  V30 9194 O 1218.96 0.290617 -4.19294 0
M  V30 9195 N 1219.26 2.50468 -4.22428 0
M  V30 9196 C 1220.01 3.67142 -4.51974 0
M  V30 9197 N 1219.41 4.85096 -4.14091 0
M  V30 9198 N 1221.16 3.67821 -5.12831 0
M  V30 9199 C 1221.62 2.43698 -5.4105 0
M  V30 9200 H 1223.79 3.88793 -6.19859 0
M  V30 9201 H 1224.97 1.12029 -6.4413 0
M  V30 9202 H 1226.46 1.78279 -8.19533 0
M  V30 9203 H 1224.76 3.20706 -9.67112 0
M  V30 9204 H 1224.57 0.901032 -10.1892 0
M  V30 9205 H 1222.94 1.33049 -9.56592 0
M  V30 9206 H 1218.36 2.61953 -3.79465 0
M  V30 9207 H 1223.57 0.200439 -6.63497 0
M  V30 9208 H 1218.5 4.8334 -3.66367 0
M  V30 9209 H 1219.88 5.7474 -4.33841 0
M  V30 9210 H 1225.58 3.5779 -5.23879 0
M  V30 9211 P 1227.44 3.65191 -7.99657 0
M  V30 9212 O 1228.86 3.89332 -8.45794 0
M  V30 9213 O 1227.08 2.28472 -7.50807 0
M  V30 9214 O 1227.11 4.64972 -6.77611 0
M  V30 9215 C 1226.95 6.06319 -7.16352 0
M  V30 9216 C 1227.49 6.91731 -6.02299 0
M  V30 9217 O 1226.44 6.92449 -5.17064 0
M  V30 9218 C 1228.71 6.43627 -5.25174 0
M  V30 9219 O 1229.45 7.43686 -4.60469 0
M  V30 9220 C 1228.04 5.40275 -4.31916 0
M  V30 9221 O 1228.84 5.25279 -3.14438 0
M  V30 9222 C 1226.71 6.04847 -4.05327 0
M  V30 9223 H 1226.74 6.62195 -3.11261 0
M  V30 9224 H 1227.92 4.42556 -4.81383 0
M  V30 9225 H 1229.41 5.92458 -5.93643 0
M  V30 9226 H 1227.71 7.92655 -6.402 0
M  V30 9227 H 1227.52 6.26671 -8.0846 0
M  V30 9228 H 1225.89 6.29101 -7.32804 0
M  V30 9229 H 1228.53 5.84315 -2.47318 0
M  V30 9230 P 1230.39 7.39546 -4.75277 0
M  V30 9231 O 1231.81 7.84798 -5.01039 0
M  V30 9232 O 1230.03 5.9812 -5.08098 0
M  V30 9233 O 1230.06 7.57503 -3.1866 0
M  V30 9234 C 1229.9 8.97357 -2.74833 0
M  V30 9235 C 1230.44 9.07548 -1.32709 0
M  V30 9236 O 1229.39 8.62072 -0.606159 0
M  V30 9237 C 1231.66 8.25383 -0.938334 0
M  V30 9238 O 1232.4 8.74577 0.146954 0
M  V30 9239 C 1230.99 6.8802 -0.712559 0
M  V30 9240 O 1231.79 6.1189 0.194655 0
M  V30 9241 C 1229.66 7.27966 -0.139777 0
M  V30 9242 H 1229.69 7.25354 0.961601 0
M  V30 9243 H 1230.87 6.32557 -1.65702 0
M  V30 9244 H 1232.36 8.19355 -1.79097 0
M  V30 9245 H 1230.66 10.1294 -1.10029 0
M  V30 9246 H 1230.47 9.64276 -3.41316 0
M  V30 9247 H 1228.84 9.25417 -2.76357 0
M  V30 9248 H 1231.48 6.25267 1.07847 0
M  V30 9249 P 1233.34 8.791 1.00373e-11 0
M  V30 9250 O 1234.76 9.31196 0.027936 0
M  V30 9251 O 1232.98 7.77869 -1.04071 0
M  V30 9252 O 1233.02 8.09533 1.41463 0
M  V30 9253 C 1232.85 9.03587 2.5397 0
M  V30 9254 C 1233.4 8.35226 3.79016 0
M  V30 9255 O 1232.34 7.57904 4.1503 0
M  V30 9256 C 1234.61 7.45087 3.67298 0
M  V30 9257 O 1235.35 7.27796 4.85194 0
M  V30 9258 C 1233.95 6.17323 3.12027 0
M  V30 9259 O 1234.74 5.04496 3.46627 0
M  V30 9260 C 1232.61 6.19961 3.81809 0
M  V30 9261 N 1231.56 5.71575 2.93223 0
M  V30 9262 C 1231.73 5.77362 1.59168 0
M  V30 9263 N 1230.71 5.3123 0.911893 0
M  V30 9264 C 1229.82 4.91717 1.89588 0
M  V30 9265 C 1228.55 4.3114 1.8076 0
M  V30 9266 N 1227.99 4.06823 3.02898 0
M  V30 9267 C 1228.59 4.35062 4.22711 0
M  V30 9268 N 1229.77 4.90805 4.35707 0
M  V30 9269 C 1230.34 5.16382 3.14469 0
M  V30 9270 H 1233.82 6.21428 2.0318 0
M  V30 9271 H 1235.31 7.86112 2.9231 0
M  V30 9272 H 1233.61 9.11171 4.55987 0
M  V30 9273 H 1233.42 9.9573 2.34194 0
M  V30 9274 H 1231.79 9.2792 2.67832 0
M  V30 9275 H 1232.63 6.16575 1.12198 0
M  V30 9276 H 1234.43 4.67628 4.28704 0
M  V30 9277 P 1236.29 7.39546 4.75277 0
M  V30 9278 O 1237.71 7.81777 5.05738 0
M  V30 9279 O 1235.93 7.1065 3.32998 0
M  V30 9280 O 1235.97 6.04542 5.56673 0
M  V30 9281 C 1235.81 6.22772 7.02095 0
M  V30 9282 C 1236.35 4.97725 7.70406 0
M  V30 9283 O 1235.29 4.13256 7.58987 0
M  V30 9284 C 1237.56 4.28231 7.11815 0
M  V30 9285 O 1238.3 3.49945 8.01648 0
M  V30 9286 C 1236.89 3.5063 5.96244 0
M  V30 9287 O 1237.69 2.36482 5.64681 0
M  V30 9288 C 1235.56 3.15122 6.56374 0
M  V30 9289 H 1235.59 2.13853 6.99751 0
M  V30 9290 H 1236.77 4.13501 5.06559 0
M  V30 9291 H 1238.26 5.03285 6.70911 0
M  V30 9292 H 1236.56 5.20877 8.75697 0
M  V30 9293 H 1236.37 7.11046 7.35349 0
M  V30 9294 H 1234.74 6.35815 7.26986 0
M  V30 9295 H 1237.38 1.61644 6.13565 0
M  V30 9296 P 1239.24 3.65191 7.99657 0
M  V30 9297 O 1240.66 3.8425 8.48115 0
M  V30 9298 O 1238.88 4.17805 6.64342 0
M  V30 9299 O 1238.92 2.07613 7.95143 0
M  V30 9300 C 1238.76 1.44328 9.27336 0
M  V30 9301 C 1239.3 0.0220036 9.17197 0
M  V30 9302 O 1238.24 -0.626867 8.61923 0
M  V30 9303 C 1240.51 -0.24586 8.30336 0
M  V30 9304 O 1241.25 -1.39011 8.63583 0
M  V30 9305 C 1239.85 -0.273849 6.91158 0
M  V30 9306 O 1240.64 -1.06348 6.02892 0
M  V30 9307 C 1238.51 -0.897649 7.22545 0
M  V30 9308 H 1238.54 -1.9841 7.04286 0
M  V30 9309 H 1239.72 0.739928 6.497 0
M  V30 9310 H 1241.21 0.60668 8.36503 0
M  V30 9311 H 1239.51 -0.352479 10.1829 0
M  V30 9312 H 1239.32 2.00611 10.0304 0
M  V30 9313 H 1237.69 1.41843 9.55327 0
M  V30 9314 H 1240.33 -1.95734 6.03555 0
M  V30 9315 P 1242.19 -1.25109 8.70152 0
M  V30 9316 O 1243.61 -1.35288 9.2132 0
M  V30 9317 O 1241.83 -0.0769065 7.84762 0
M  V30 9318 O 1241.87 -2.55232 7.81161 0
M  V30 9319 C 1241.71 -3.79979 8.58246 0
M  V30 9320 C 1242.25 -4.94023 7.72785 0
M  V30 9321 O 1241.19 -5.18666 6.91125 0
M  V30 9322 C 1243.46 -4.69597 6.85231 0
M  V30 9323 O 1244.2 -5.83832 6.51337 0
M  V30 9324 C 1242.8 -3.96706 5.66633 0
M  V30 9325 O 1243.59 -4.14896 4.5003 0
M  V30 9326 C 1241.46 -4.66153 5.59313 0
M  V30 9327 N 1240.42 -3.71582 5.24027 0
M  V30 9328 C 1240.58 -2.39715 5.48833 0
M  V30 9329 N 1239.56 -1.65863 5.12845 0
M  V30 9330 C 1238.67 -2.57637 4.5973 0
M  V30 9331 C 1237.41 -2.40278 4.01027 0
M  V30 9332 N 1236.81 -1.19549 3.86744 0
M  V30 9333 N 1236.84 -3.57711 3.59575 0
M  V30 9334 C 1237.44 -4.80324 3.70476 0
M  V30 9335 N 1238.62 -5.01121 4.23801 0
M  V30 9336 C 1239.19 -3.84757 4.66372 0
M  V30 9337 H 1241.49 -5.47604 4.85148 0
M  V30 9338 H 1242.67 -2.8955 5.86187 0
M  V30 9339 H 1244.16 -4.0121 7.36511 0
M  V30 9340 H 1242.46 -5.81019 8.37003 0
M  V30 9341 H 1242.27 -3.73517 9.52265 0
M  V30 9342 H 1240.64 -3.97163 8.80359 0
M  V30 9343 H 1236.91 -5.66348 3.3183 0
M  V30 9344 H 1241.48 -1.98804 5.94332 0
M  V30 9345 H 1235.88 -1.13147 3.4281 0
M  V30 9346 H 1237.28 -0.344074 4.19692 0
M  V30 9347 H 1243.28 -4.90891 4.01857 0
M  V30 9348 P 1245.14 -5.75688 6.64379 0
M  V30 9349 O 1246.56 -6.11849 7.01846 0
M  V30 9350 O 1244.78 -4.30744 6.56026 0
M  V30 9351 O 1244.82 -6.37042 5.19165 0
M  V30 9352 C 1244.66 -7.83578 5.16515 0
M  V30 9353 C 1245.2 -8.33398 3.83019 0
M  V30 9354 O 1244.14 -8.10074 3.01034 0
M  V30 9355 C 1246.42 -7.65514 3.2257 0
M  V30 9356 O 1247.15 -8.4329 2.32297 0
M  V30 9357 C 1245.75 -6.40075 2.62207 0
M  V30 9358 O 1246.55 -5.92589 1.53712 0
M  V30 9359 C 1244.41 -6.9454 2.18503 0
M  V30 9360 H 1244.44 -7.23063 1.12091 0
M  V30 9361 H 1245.62 -5.6025 3.37201 0
M  V30 9362 H 1247.11 -7.35707 4.02681 0
M  V30 9363 H 1245.41 -9.40912 3.9095 0
M  V30 9364 H 1245.22 -8.29056 5.99158 0
M  V30 9365 H 1243.59 -8.10073 5.25882 0
M  V30 9366 H 1246.23 -6.30324 0.726794 0
M  V30 9367 P 1248.09 -8.4349 2.47671 0
M  V30 9368 O 1249.51 -8.94167 2.5964 0
M  V30 9369 O 1247.73 -7.1704 3.19006 0
M  V30 9370 O 1247.77 -8.16596 0.923387 0
M  V30 9371 C 1247.61 -9.38437 0.108857 0
M  V30 9372 C 1248.15 -9.08175 -1.28353 0
M  V30 9373 O 1247.09 -8.44229 -1.84713 0
M  V30 9374 C 1249.37 -8.18386 -1.42505 0
M  V30 9375 O 1250.1 -8.3501 -2.60497 0
M  V30 9376 C 1248.7 -6.80225 -1.25468 0
M  V30 9377 O 1249.5 -5.81621 -1.91066 0
M  V30 9378 C 1247.36 -7.02416 -1.9168 0
M  V30 9379 H 1247.39 -6.6888 -2.96621 0
M  V30 9380 H 1248.58 -6.53617 -0.192223 0
M  V30 9381 H 1250.06 -8.36622 -0.589963 0
M  V30 9382 H 1248.37 -10.0291 -1.79807 0
M  V30 9383 H 1248.18 -10.2138 0.558219 0
M  V30 9384 H 1246.55 -9.6579 0.0444202 0
M  V30 9385 H 1249.18 -5.69556 -2.79637 0
M  V30 9386 P 1251.04 -8.4349 -2.47671 0
M  V30 9387 O 1252.46 -8.92689 -2.65029 0
M  V30 9388 O 1250.68 -7.7568 -1.19296 0
M  V30 9389 O 1250.72 -7.36886 -3.63805 0
M  V30 9390 C 1250.56 -7.95433 -4.98253 0
M  V30 9391 C 1251.1 -6.94612 -5.98974 0
M  V30 9392 O 1250.04 -6.10277 -6.11744 0
M  V30 9393 C 1252.32 -6.11426 -5.62335 0
M  V30 9394 O 1253.05 -5.6162 -6.70584 0
M  V30 9395 C 1251.65 -5.04409 -4.73308 0
M  V30 9396 O 1252.45 -3.86404 -4.74719 0
M  V30 9397 C 1250.31 -4.8728 -5.41006 0
M  V30 9398 N 1249.27 -4.65812 -4.42377 0
M  V30 9399 C 1249.44 -5.09132 -3.15382 0
M  V30 9400 N 1248.41 -4.84021 -2.3716 0
M  V30 9401 C 1247.52 -4.18386 -3.20441 0
M  V30 9402 C 1246.26 -3.6275 -2.94905 0
M  V30 9403 N 1245.66 -3.65794 -1.73372 0
M  V30 9404 N 1245.69 -3.05008 -4.05243 0
M  V30 9405 C 1246.29 -2.98348 -5.28159 0
M  V30 9406 N 1247.47 -3.48171 -5.56333 0
M  V30 9407 C 1248.05 -4.06869 -4.47212 0
M  V30 9408 H 1250.34 -4.02278 -6.11074 0
M  V30 9409 H 1251.53 -5.39013 -3.70026 0
M  V30 9410 H 1253.01 -6.71916 -5.01943 0
M  V30 9411 H 1251.31 -7.45796 -6.94223 0
M  V30 9412 H 1251.12 -8.89416 -5.05237 0
M  V30 9413 H 1249.49 -8.14876 -5.18409 0
M  V30 9414 H 1245.76 -2.47853 -6.07807 0
M  V30 9415 H 1250.34 -5.59989 -2.81362 0
M  V30 9416 H 1244.73 -3.23218 -1.60782 0
M  V30 9417 H 1246.13 -4.10523 -0.937856 0
M  V30 9418 H 1252.13 -3.27906 -5.43085 0
M  V30 9419 P 1253.99 -5.75688 -6.64379 0
M  V30 9420 O 1255.41 -6.07627 -7.05504 0
M  V30 9421 O 1253.63 -5.88047 -5.19722 0
M  V30 9422 O 1253.67 -4.2322 -7.04443 0
M  V30 9423 C 1253.51 -3.99743 -8.4911 0
M  V30 9424 C 1254.05 -2.60516 -8.79425 0
M  V30 9425 O 1252.99 -1.82684 -8.4467 0
M  V30 9426 C 1255.27 -2.10343 -8.03628 0
M  V30 9427 O 1256.01 -1.09919 -8.67766 0
M  V30 9428 C 1254.6 -1.68446 -6.70876 0
M  V30 9429 O 1255.4 -0.678137 -6.08433 0
M  V30 9430 C 1253.26 -1.17436 -7.18567 0
M  V30 9431 H 1253.29 -0.0804732 -7.31656 0
M  V30 9432 H 1254.48 -2.54037 -6.02537 0
M  V30 9433 H 1255.96 -2.93881 -7.85526 0
M  V30 9434 H 1254.27 -2.53065 -9.86973 0
M  V30 9435 H 1254.08 -4.75072 -9.05887 0
M  V30 9436 H 1252.45 -4.05244 -8.76668 0
M  V30 9437 H 1255.09 0.177647 -6.34251 0
M  V30 9438 P 1256.94 -1.25109 -8.70152 0
M  V30 9439 O 1258.36 -1.29744 -9.22016 0
M  V30 9440 O 1256.58 -2.13714 -7.55141 0
M  V30 9441 O 1256.62 0.248149 -8.21425 0
M  V30 9442 C 1256.46 1.22779 -9.30434 0
M  V30 9443 C 1257 2.56293 -8.80664 0
M  V30 9444 O 1255.94 3.02979 -8.09349 0
M  V30 9445 C 1258.22 2.57523 -7.89775 0
M  V30 9446 O 1258.96 3.7668 -7.89438 0
M  V30 9447 C 1257.55 2.20997 -6.55446 0
M  V30 9448 O 1258.35 2.71895 -5.48509 0
M  V30 9449 C 1256.21 2.89693 -6.67988 0
M  V30 9450 H 1256.24 3.88793 -6.19859 0
M  V30 9451 H 1257.43 1.12046 -6.44229 0
M  V30 9452 H 1258.91 1.7746 -8.19711 0
M  V30 9453 H 1257.22 3.20706 -9.67112 0
M  V30 9454 H 1257.03 0.901032 -10.1892 0
M  V30 9455 H 1255.4 1.33049 -9.56592 0
M  V30 9456 H 1258.04 3.57847 -5.23962 0
M  V30 9457 P 1259.89 3.65191 -7.99657 0
M  V30 9458 O 1261.32 3.89332 -8.45794 0
M  V30 9459 O 1259.53 2.28472 -7.50807 0
M  V30 9460 O 1259.57 4.64972 -6.77611 0
M  V30 9461 C 1259.41 6.06319 -7.16352 0
M  V30 9462 C 1259.95 6.91731 -6.02299 0
M  V30 9463 O 1258.89 6.92449 -5.17064 0
M  V30 9464 C 1261.17 6.43627 -5.25174 0
M  V30 9465 O 1261.91 7.43686 -4.60469 0
M  V30 9466 C 1260.5 5.40275 -4.31916 0
M  V30 9467 O 1261.3 5.25279 -3.14438 0
M  V30 9468 C 1259.16 6.04847 -4.05327 0
M  V30 9469 H 1259.19 6.62195 -3.11261 0
M  V30 9470 H 1260.38 4.42556 -4.81383 0
M  V30 9471 H 1261.86 5.92458 -5.93643 0
M  V30 9472 H 1260.17 7.92655 -6.402 0
M  V30 9473 H 1259.98 6.26671 -8.0846 0
M  V30 9474 H 1258.35 6.29101 -7.32804 0
M  V30 9475 H 1260.99 5.84315 -2.47318 0
M  V30 9476 P 1262.84 7.39546 -4.75277 0
M  V30 9477 O 1264.27 7.84798 -5.01039 0
M  V30 9478 O 1262.48 5.9812 -5.08098 0
M  V30 9479 O 1262.52 7.57503 -3.1866 0
M  V30 9480 C 1262.36 8.97357 -2.74833 0
M  V30 9481 C 1262.9 9.07548 -1.32709 0
M  V30 9482 O 1261.84 8.62072 -0.606159 0
M  V30 9483 C 1264.12 8.25383 -0.938334 0
M  V30 9484 O 1264.86 8.74577 0.146954 0
M  V30 9485 C 1263.45 6.8802 -0.712559 0
M  V30 9486 O 1264.25 6.1189 0.194655 0
M  V30 9487 C 1262.11 7.27966 -0.139777 0
M  V30 9488 H 1262.14 7.25354 0.961601 0
M  V30 9489 H 1263.33 6.32557 -1.65702 0
M  V30 9490 H 1264.81 8.19355 -1.79097 0
M  V30 9491 H 1263.12 10.1294 -1.10029 0
M  V30 9492 H 1262.93 9.64276 -3.41316 0
M  V30 9493 H 1261.3 9.25417 -2.76357 0
M  V30 9494 H 1263.94 6.25267 1.07847 0
M  V30 9495 P 1265.79 8.791 1.03475e-11 0
M  V30 9496 O 1267.22 9.31196 0.027936 0
M  V30 9497 O 1265.43 7.77869 -1.04071 0
M  V30 9498 O 1265.47 8.09533 1.41463 0
M  V30 9499 C 1265.31 9.03587 2.5397 0
M  V30 9500 C 1265.85 8.35226 3.79016 0
M  V30 9501 O 1264.8 7.57904 4.1503 0
M  V30 9502 C 1267.07 7.45087 3.67298 0
M  V30 9503 O 1267.81 7.27796 4.85194 0
M  V30 9504 C 1266.4 6.17323 3.12027 0
M  V30 9505 O 1267.2 5.04496 3.46627 0
M  V30 9506 C 1265.06 6.19961 3.81809 0
M  V30 9507 N 1264.02 5.71575 2.93223 0
M  V30 9508 C 1264.19 5.77362 1.59168 0
M  V30 9509 N 1263.16 5.3123 0.911893 0
M  V30 9510 C 1262.28 4.91717 1.89588 0
M  V30 9511 C 1261.01 4.3114 1.8076 0
M  V30 9512 N 1260.41 3.99821 0.632928 0
M  V30 9513 N 1260.45 4.06823 3.02898 0
M  V30 9514 C 1261.05 4.35062 4.22711 0
M  V30 9515 N 1262.22 4.90805 4.35707 0
M  V30 9516 C 1262.8 5.16382 3.14469 0
M  V30 9517 H 1265.1 5.58142 4.72986 0
M  V30 9518 H 1266.28 6.21428 2.0318 0
M  V30 9519 H 1267.76 7.86112 2.9231 0
M  V30 9520 H 1266.07 9.11171 4.55987 0
M  V30 9521 H 1265.88 9.9573 2.34194 0
M  V30 9522 H 1264.25 9.2792 2.67832 0
M  V30 9523 H 1260.51 4.09052 5.13359 0
M  V30 9524 H 1265.09 6.16575 1.12198 0
M  V30 9525 H 1259.48 3.55423 0.632085 0
M  V30 9526 H 1260.89 4.20317 -0.256712 0
M  V30 9527 H 1266.89 4.67628 4.28704 0
M  V30 9528 P 1268.75 7.39546 4.75277 0
M  V30 9529 O 1270.17 7.81861 5.05793 0
M  V30 9530 O 1268.39 7.1065 3.32998 0
M  V30 9531 O 1268.42 6.04542 5.56673 0
M  V30 9532 C 1268.26 6.22839 7.02169 0
M  V30 9533 C 1268.8 4.97725 7.70406 0
M  V30 9534 O 1267.75 4.13208 7.58899 0
M  V30 9535 C 1270.02 4.28231 7.11815 0
M  V30 9536 O 1270.76 3.49945 8.01648 0
M  V30 9537 C 1269.35 3.5063 5.96244 0
M  V30 9538 O 1270.15 2.37008 5.64352 0
M  V30 9539 C 1268.01 3.15122 6.56374 0
M  V30 9540 N 1266.97 3.22311 5.55692 0
M  V30 9541 C 1267.14 3.99655 4.46046 0
M  V30 9542 N 1266.11 3.97599 3.63918 0
M  V30 9543 C 1265.23 3.11159 4.25334 0
M  V30 9544 C 1263.96 2.64972 3.85157 0
M  V30 9545 N 1263.4 1.78482 4.74759 0
M  V30 9546 C 1264 1.37463 5.90819 0
M  V30 9547 N 1265.18 1.7733 6.31889 0
M  V30 9548 C 1265.75 2.64393 5.43725 0
M  V30 9549 H 1269.23 4.12931 5.06895 0
M  V30 9550 H 1270.71 5.03285 6.70911 0
M  V30 9551 H 1269.02 5.20001 8.76217 0
M  V30 9552 H 1268.83 7.11046 7.35349 0
M  V30 9553 H 1267.2 6.35815 7.26986 0
M  V30 9554 H 1268.04 4.58037 4.27732 0
M  V30 9555 H 1269.84 1.61619 6.13468 0
M  V30 9556 P 1271.7 3.65191 7.99657 0
M  V30 9557 O 1273.12 3.84333 8.48297 0
M  V30 9558 O 1271.34 4.17805 6.64342 0
M  V30 9559 O 1271.37 2.07613 7.95143 0
M  V30 9560 C 1271.21 1.44328 9.27336 0
M  V30 9561 C 1271.75 0.0220012 9.17097 0
M  V30 9562 O 1270.7 -0.626867 8.61923 0
M  V30 9563 C 1272.97 -0.24586 8.30336 0
M  V30 9564 O 1273.71 -1.39011 8.63583 0
M  V30 9565 C 1272.3 -0.273849 6.91158 0
M  V30 9566 O 1273.1 -1.06331 6.02794 0
M  V30 9567 C 1270.96 -0.897649 7.22545 0
M  V30 9568 N 1269.92 -0.292839 6.41732 0
M  V30 9569 C 1269.98 1.00068 6.10757 0
M  V30 9570 N 1268.94 1.36468 5.35794 0
M  V30 9571 C 1268.2 0.258894 5.2366 0
M  V30 9572 C 1266.9 0.0670682 4.65752 0
M  V30 9573 O 1266.17 0.902443 4.10497 0
M  V30 9574 N 1266.47 -1.2131 4.75881 0
M  V30 9575 C 1267.22 -2.24934 5.37101 0
M  V30 9576 N 1266.62 -3.48783 5.33984 0
M  V30 9577 N 1268.37 -2.0844 5.95684 0
M  V30 9578 C 1268.83 -0.81395 5.87791 0
M  V30 9579 H 1271 -1.9841 7.04286 0
M  V30 9580 H 1272.18 0.739815 6.49601 0
M  V30 9581 H 1273.66 0.598315 8.36563 0
M  V30 9582 H 1271.97 -0.352479 10.1829 0
M  V30 9583 H 1271.78 2.00611 10.0304 0
M  V30 9584 H 1270.15 1.41843 9.55327 0
M  V30 9585 H 1265.57 -1.44434 4.37895 0
M  V30 9586 H 1270.78 1.67697 6.42268 0
M  V30 9587 H 1265.71 -3.60543 4.87699 0
M  V30 9588 H 1267.09 -4.29232 5.7819 0
M  V30 9589 H 1272.79 -1.95704 6.0346 0
M  V30 9590 P 1274.65 -1.25109 8.70152 0
M  V30 9591 O 1276.07 -1.35274 9.21221 0
M  V30 9592 O 1274.29 -0.0769065 7.84762 0
M  V30 9593 O 1274.32 -2.55232 7.81161 0
M  V30 9594 C 1274.16 -3.79939 8.58154 0
M  V30 9595 C 1274.7 -4.94023 7.72785 0
M  V30 9596 O 1273.65 -5.18726 6.91205 0
M  V30 9597 C 1275.92 -4.69597 6.85231 0
M  V30 9598 O 1276.66 -5.83832 6.51337 0
M  V30 9599 C 1275.25 -3.96706 5.66633 0
M  V30 9600 O 1276.05 -4.15414 4.49689 0
M  V30 9601 C 1273.92 -4.66153 5.59313 0
M  V30 9602 H 1273.95 -5.47679 4.85214 0
M  V30 9603 H 1275.13 -2.89008 5.86566 0
M  V30 9604 H 1276.61 -4.0121 7.36511 0
M  V30 9605 H 1274.92 -5.80182 8.37584 0
M  V30 9606 H 1274.73 -3.73517 9.52265 0
M  V30 9607 H 1273.1 -3.97163 8.80359 0
M  V30 9608 H 1275.74 -4.90969 4.01921 0
M  V30 9609 P 1277.6 -5.75688 6.64379 0
M  V30 9610 O 1279.02 -6.11915 7.01921 0
M  V30 9611 O 1277.24 -4.30744 6.56026 0
M  V30 9612 O 1277.27 -6.37042 5.19165 0
M  V30 9613 C 1277.11 -7.83662 5.1657 0
M  V30 9614 C 1277.65 -8.33398 3.83019 0
M  V30 9615 O 1276.6 -8.0998 3.00999 0
M  V30 9616 C 1278.87 -7.65514 3.2257 0
M  V30 9617 O 1279.61 -8.4329 2.32297 0
M  V30 9618 C 1278.2 -6.40075 2.62207 0
M  V30 9619 O 1279 -5.92338 1.5428 0
M  V30 9620 C 1276.87 -6.9454 2.18503 0
M  V30 9621 N 1275.82 -5.95905 2.39948 0
M  V30 9622 C 1275.99 -4.98383 3.32108 0
M  V30 9623 N 1274.96 -4.16798 3.41761 0
M  V30 9624 C 1274.08 -4.65287 2.47461 0
M  V30 9625 C 1272.81 -4.18946 2.07461 0
M  V30 9626 N 1272.25 -4.95327 1.09101 0
M  V30 9627 C 1272.85 -6.04369 0.519812 0
M  V30 9628 N 1274.03 -6.50694 0.855982 0
M  V30 9629 C 1274.6 -5.75818 1.84322 0
M  V30 9630 H 1278.08 -5.60502 3.36589 0
M  V30 9631 H 1279.56 -7.35707 4.02681 0
M  V30 9632 H 1277.87 -9.41302 3.90009 0
M  V30 9633 H 1277.68 -8.29056 5.99158 0
M  V30 9634 H 1276.05 -8.10073 5.25882 0
M  V30 9635 H 1276.89 -4.88564 3.92502 0
M  V30 9636 H 1278.69 -6.30224 0.72668 0
M  V30 9637 P 1280.55 -8.4349 2.47671 0
M  V30 9638 O 1281.97 -8.94167 2.5964 0
M  V30 9639 O 1280.19 -7.1704 3.19006 0
M  V30 9640 O 1280.22 -8.16596 0.923387 0
M  V30 9641 C 1280.06 -9.38437 0.108857 0
M  V30 9642 C 1280.6 -9.08175 -1.28353 0
M  V30 9643 O 1279.55 -8.44229 -1.84713 0
M  V30 9644 C 1281.82 -8.18386 -1.42505 0
M  V30 9645 O 1282.56 -8.3501 -2.60497 0
M  V30 9646 C 1281.15 -6.80225 -1.25468 0
M  V30 9647 O 1281.95 -5.81621 -1.91066 0
M  V30 9648 C 1279.82 -7.02416 -1.9168 0
M  V30 9649 H 1279.85 -6.6888 -2.96621 0
M  V30 9650 H 1281.03 -6.53617 -0.192223 0
M  V30 9651 H 1282.52 -8.36622 -0.589963 0
M  V30 9652 H 1280.82 -10.0291 -1.79807 0
M  V30 9653 H 1280.63 -10.2138 0.558219 0
M  V30 9654 H 1279 -9.6579 0.0444202 0
M  V30 9655 H 1281.64 -5.69556 -2.79637 0
M  V30 9656 P 1283.5 -8.4349 -2.47671 0
M  V30 9657 O 1284.92 -8.92785 -2.65057 0
M  V30 9658 O 1283.14 -7.7568 -1.19296 0
M  V30 9659 O 1283.17 -7.36886 -3.63805 0
M  V30 9660 C 1283.01 -7.95349 -4.982 0
M  V30 9661 C 1283.55 -6.94537 -5.98908 0
M  V30 9662 O 1282.5 -6.10347 -6.11815 0
M  V30 9663 C 1284.77 -6.11426 -5.62335 0
M  V30 9664 O 1285.51 -5.6162 -6.70584 0
M  V30 9665 C 1284.1 -5.04409 -4.73308 0
M  V30 9666 O 1284.9 -3.85929 -4.75106 0
M  V30 9667 C 1282.77 -4.8728 -5.41006 0
M  V30 9668 N 1281.72 -4.65812 -4.42377 0
M  V30 9669 C 1281.79 -5.27109 -3.24335 0
M  V30 9670 N 1280.74 -4.94293 -2.47735 0
M  V30 9671 C 1280.01 -4.1271 -3.23359 0
M  V30 9672 C 1278.7 -3.56384 -2.99934 0
M  V30 9673 O 1277.97 -3.69331 -2.00616 0
M  V30 9674 N 1278.27 -2.80206 -4.03316 0
M  V30 9675 C 1279.02 -2.58614 -5.2172 0
M  V30 9676 N 1278.42 -1.75154 -6.13278 0
M  V30 9677 N 1280.17 -3.13689 -5.47619 0
M  V30 9678 C 1280.63 -3.90921 -4.46436 0
M  V30 9679 H 1282.8 -4.02333 -6.11157 0
M  V30 9680 H 1283.98 -5.39383 -3.69487 0
M  V30 9681 H 1285.47 -6.71414 -5.02615 0
M  V30 9682 H 1283.77 -7.4649 -6.93477 0
M  V30 9683 H 1283.58 -8.89416 -5.05237 0
M  V30 9684 H 1281.95 -8.14876 -5.18409 0
M  V30 9685 H 1277.37 -2.36355 -3.95916 0
M  V30 9686 H 1282.58 -5.95212 -2.93859 0
M  V30 9687 H 1277.51 -1.32473 -5.91856 0
M  V30 9688 H 1278.89 -1.5588 -7.03026 0
M  V30 9689 H 1284.59 -3.27906 -5.43085 0
M  V30 9690 P 1286.45 -5.75688 -6.64379 0
M  V30 9691 O 1287.87 -6.07758 -7.05656 0
M  V30 9692 O 1286.09 -5.88047 -5.19722 0
M  V30 9693 O 1286.13 -4.2322 -7.04443 0
M  V30 9694 C 1285.97 -3.99743 -8.4911 0
M  V30 9695 C 1286.51 -2.60487 -8.79329 0
M  V30 9696 O 1285.45 -1.82684 -8.4467 0
M  V30 9697 C 1287.72 -2.10343 -8.03628 0
M  V30 9698 O 1288.46 -1.09919 -8.67766 0
M  V30 9699 C 1287.06 -1.68446 -6.70876 0
M  V30 9700 O 1287.85 -0.678026 -6.08333 0
M  V30 9701 C 1285.72 -1.17436 -7.18567 0
M  V30 9702 N 1284.67 -1.52699 -6.23988 0
M  V30 9703 C 1284.74 -2.68084 -5.57824 0
M  V30 9704 N 1283.69 -2.8189 -4.75643 0
M  V30 9705 C 1282.96 -1.72373 -4.95155 0
M  V30 9706 C 1281.65 -1.37653 -4.44996 0
M  V30 9707 O 1280.92 -2.02239 -3.68445 0
M  V30 9708 N 1281.22 -0.17675 -4.90782 0
M  V30 9709 C 1281.97 0.645036 -5.78716 0
M  V30 9710 N 1281.37 1.84214 -6.10618 0
M  V30 9711 N 1283.12 0.321732 -6.30279 0
M  V30 9712 C 1283.58 -0.87502 -5.86913 0
M  V30 9713 H 1285.75 -0.0804732 -7.31656 0
M  V30 9714 H 1286.93 -2.53998 -6.02444 0
M  V30 9715 H 1288.42 -2.93095 -7.8582 0
M  V30 9716 H 1286.72 -2.53065 -9.86973 0
M  V30 9717 H 1286.53 -4.75072 -9.05887 0
M  V30 9718 H 1284.9 -4.05244 -8.76668 0
M  V30 9719 H 1280.33 0.152143 -4.60849 0
M  V30 9720 H 1285.53 -3.41852 -5.69006 0
M  V30 9721 H 1280.46 2.08538 -5.69521 0
M  V30 9722 H 1281.84 2.4895 -6.75698 0
M  V30 9723 H 1287.54 0.177619 -6.34151 0
M  V30 9724 P 1289.4 -1.25109 -8.70152 0
M  V30 9725 O 1290.82 -1.29744 -9.22016 0
M  V30 9726 O 1289.04 -2.13714 -7.55141 0
M  V30 9727 O 1289.08 0.248149 -8.21425 0
M  V30 9728 C 1288.92 1.22779 -9.30434 0
M  V30 9729 C 1289.46 2.56293 -8.80664 0
M  V30 9730 O 1288.4 3.02979 -8.09349 0
M  V30 9731 C 1290.67 2.57523 -7.89775 0
M  V30 9732 O 1291.41 3.7668 -7.89438 0
M  V30 9733 C 1290.01 2.20997 -6.55446 0
M  V30 9734 O 1290.8 2.71895 -5.48509 0
M  V30 9735 C 1288.67 2.89693 -6.67988 0
M  V30 9736 H 1288.7 3.88793 -6.19859 0
M  V30 9737 H 1289.88 1.12046 -6.44229 0
M  V30 9738 H 1291.37 1.7746 -8.19711 0
M  V30 9739 H 1289.67 3.20706 -9.67112 0
M  V30 9740 H 1289.48 0.901032 -10.1892 0
M  V30 9741 H 1287.85 1.33049 -9.56592 0
M  V30 9742 H 1290.49 3.57847 -5.23962 0
M  V30 9743 P 1292.35 3.65191 -7.99657 0
M  V30 9744 O 1293.77 3.89332 -8.45794 0
M  V30 9745 O 1291.99 2.28472 -7.50807 0
M  V30 9746 O 1292.03 4.64972 -6.77611 0
M  V30 9747 C 1291.87 6.06319 -7.16352 0
M  V30 9748 C 1292.41 6.91731 -6.02299 0
M  V30 9749 O 1291.35 6.92449 -5.17064 0
M  V30 9750 C 1293.62 6.43627 -5.25174 0
M  V30 9751 O 1294.36 7.43686 -4.60469 0
M  V30 9752 C 1292.96 5.40275 -4.31916 0
M  V30 9753 O 1293.75 5.25279 -3.14438 0
M  V30 9754 C 1291.62 6.04847 -4.05327 0
M  V30 9755 H 1291.65 6.62195 -3.11261 0
M  V30 9756 H 1292.83 4.42556 -4.81383 0
M  V30 9757 H 1294.32 5.92458 -5.93643 0
M  V30 9758 H 1292.62 7.92655 -6.402 0
M  V30 9759 H 1292.43 6.26671 -8.0846 0
M  V30 9760 H 1290.8 6.29101 -7.32804 0
M  V30 9761 H 1293.44 5.84315 -2.47318 0
M  V30 9762 P 1295.3 7.39546 -4.75277 0
M  V30 9763 O 1296.72 7.84798 -5.01039 0
M  V30 9764 O 1294.94 5.9812 -5.08098 0
M  V30 9765 O 1294.98 7.57503 -3.1866 0
M  V30 9766 C 1294.82 8.97357 -2.74833 0
M  V30 9767 C 1295.36 9.07548 -1.32709 0
M  V30 9768 O 1294.3 8.62072 -0.606159 0
M  V30 9769 C 1296.58 8.25383 -0.938334 0
M  V30 9770 O 1297.31 8.74577 0.146954 0
M  V30 9771 C 1295.91 6.8802 -0.712559 0
M  V30 9772 O 1296.71 6.1189 0.194655 0
M  V30 9773 C 1294.57 7.27966 -0.139777 0
M  V30 9774 H 1294.6 7.25354 0.961601 0
M  V30 9775 H 1295.78 6.32557 -1.65702 0
M  V30 9776 H 1297.27 8.19355 -1.79097 0
M  V30 9777 H 1295.57 10.1294 -1.10029 0
M  V30 9778 H 1295.38 9.64276 -3.41316 0
M  V30 9779 H 1293.75 9.25417 -2.76357 0
M  V30 9780 H 1296.39 6.25267 1.07847 0
M  V30 9781 P 1298.25 8.791 1.06576e-11 0
M  V30 9782 O 1299.67 9.31096 0.027933 0
M  V30 9783 O 1297.89 7.77869 -1.04071 0
M  V30 9784 O 1297.93 8.09533 1.41463 0
M  V30 9785 C 1297.77 9.0349 2.53943 0
M  V30 9786 C 1298.31 8.35226 3.79016 0
M  V30 9787 O 1297.25 7.57992 4.15078 0
M  V30 9788 C 1299.53 7.45087 3.67298 0
M  V30 9789 O 1300.26 7.27796 4.85194 0
M  V30 9790 C 1298.86 6.17323 3.12027 0
M  V30 9791 O 1299.66 5.04231 3.47188 0
M  V30 9792 C 1297.52 6.19961 3.81809 0
M  V30 9793 H 1297.55 5.58218 4.73051 0
M  V30 9794 H 1298.73 6.21726 2.02589 0
M  V30 9795 H 1300.22 7.86112 2.9231 0
M  V30 9796 H 1298.52 9.11627 4.55076 0
M  V30 9797 H 1298.33 9.9573 2.34194 0
M  V30 9798 H 1296.7 9.2792 2.67832 0
M  V30 9799 H 1299.34 4.67702 4.28772 0
M  V30 9800 P 1301.2 7.39546 4.75277 0
M  V30 9801 O 1302.62 7.81777 5.05738 0
M  V30 9802 O 1300.84 7.1065 3.32998 0
M  V30 9803 O 1300.88 6.04542 5.56673 0
M  V30 9804 C 1300.72 6.22772 7.02095 0
M  V30 9805 C 1301.26 4.97725 7.70406 0
M  V30 9806 O 1300.2 4.13256 7.58987 0
M  V30 9807 C 1302.48 4.28231 7.11815 0
M  V30 9808 O 1303.21 3.49945 8.01648 0
M  V30 9809 C 1301.81 3.5063 5.96244 0
M  V30 9810 O 1302.61 2.36482 5.64681 0
M  V30 9811 C 1300.47 3.15122 6.56374 0
M  V30 9812 H 1300.5 2.13853 6.99751 0
M  V30 9813 H 1301.69 4.13501 5.06559 0
M  V30 9814 H 1303.17 5.03285 6.70911 0
M  V30 9815 H 1301.48 5.20877 8.75697 0
M  V30 9816 H 1301.29 7.11046 7.35349 0
M  V30 9817 H 1299.66 6.35815 7.26986 0
M  V30 9818 H 1302.29 1.61644 6.13565 0
M  V30 9819 P 1304.15 3.65191 7.99657 0
M  V30 9820 O 1305.57 3.8425 8.48115 0
M  V30 9821 O 1303.79 4.17805 6.64342 0
M  V30 9822 O 1303.83 2.07613 7.95143 0
M  V30 9823 C 1303.67 1.44328 9.27336 0
M  V30 9824 C 1304.21 0.0220036 9.17197 0
M  V30 9825 O 1303.15 -0.626867 8.61923 0
M  V30 9826 C 1305.43 -0.24586 8.30336 0
M  V30 9827 O 1306.16 -1.39011 8.63583 0
M  V30 9828 C 1304.76 -0.273849 6.91158 0
M  V30 9829 O 1305.56 -1.06348 6.02892 0
M  V30 9830 C 1303.42 -0.897649 7.22545 0
M  V30 9831 H 1303.45 -1.9841 7.04286 0
M  V30 9832 H 1304.64 0.739928 6.497 0
M  V30 9833 H 1306.12 0.60668 8.36503 0
M  V30 9834 H 1304.43 -0.352479 10.1829 0
M  V30 9835 H 1304.24 2.00611 10.0304 0
M  V30 9836 H 1302.61 1.41843 9.55327 0
M  V30 9837 H 1305.24 -1.95734 6.03555 0
M  V30 9838 P 1307.1 -1.25109 8.70152 0
M  V30 9839 O 1308.52 -1.35274 9.21221 0
M  V30 9840 O 1306.74 -0.0769065 7.84762 0
M  V30 9841 O 1306.78 -2.55232 7.81161 0
M  V30 9842 C 1306.62 -3.79939 8.58154 0
M  V30 9843 C 1307.16 -4.94023 7.72785 0
M  V30 9844 O 1306.1 -5.18726 6.91205 0
M  V30 9845 C 1308.38 -4.69597 6.85231 0
M  V30 9846 O 1309.12 -5.83832 6.51337 0
M  V30 9847 C 1307.71 -3.96706 5.66633 0
M  V30 9848 O 1308.51 -4.15414 4.49689 0
M  V30 9849 C 1306.37 -4.66153 5.59313 0
M  V30 9850 H 1306.4 -5.47679 4.85214 0
M  V30 9851 H 1307.59 -2.89008 5.86566 0
M  V30 9852 H 1309.07 -4.0121 7.36511 0
M  V30 9853 H 1307.38 -5.80182 8.37584 0
M  V30 9854 H 1307.19 -3.73517 9.52265 0
M  V30 9855 H 1305.56 -3.97163 8.80359 0
M  V30 9856 H 1308.2 -4.90969 4.01921 0
M  V30 9857 P 1310.05 -5.75688 6.64379 0
M  V30 9858 O 1311.48 -6.11849 7.01846 0
M  V30 9859 O 1309.69 -4.30744 6.56026 0
M  V30 9860 O 1309.73 -6.37042 5.19165 0
M  V30 9861 C 1309.57 -7.83578 5.16515 0
M  V30 9862 C 1310.11 -8.33398 3.83019 0
M  V30 9863 O 1309.05 -8.10074 3.01034 0
M  V30 9864 C 1311.33 -7.65514 3.2257 0
M  V30 9865 O 1312.07 -8.4329 2.32297 0
M  V30 9866 C 1310.66 -6.40075 2.62207 0
M  V30 9867 O 1311.46 -5.92589 1.53712 0
M  V30 9868 C 1309.32 -6.9454 2.18503 0
M  V30 9869 H 1309.35 -7.23063 1.12091 0
M  V30 9870 H 1310.54 -5.6025 3.37201 0
M  V30 9871 H 1312.02 -7.35707 4.02681 0
M  V30 9872 H 1310.33 -9.40912 3.9095 0
M  V30 9873 H 1310.14 -8.29056 5.99158 0
M  V30 9874 H 1308.51 -8.10073 5.25882 0
M  V30 9875 H 1311.15 -6.30324 0.726794 0
M  V30 9876 P 1313 -8.4349 2.47671 0
M  V30 9877 O 1314.43 -8.94167 2.5964 0
M  V30 9878 O 1312.64 -7.1704 3.19006 0
M  V30 9879 O 1312.68 -8.16596 0.923387 0
M  V30 9880 C 1312.52 -9.38437 0.108857 0
M  V30 9881 C 1313.06 -9.08175 -1.28353 0
M  V30 9882 O 1312 -8.44229 -1.84713 0
M  V30 9883 C 1314.28 -8.18386 -1.42505 0
M  V30 9884 O 1315.02 -8.3501 -2.60497 0
M  V30 9885 C 1313.61 -6.80225 -1.25468 0
M  V30 9886 O 1314.41 -5.81621 -1.91066 0
M  V30 9887 C 1312.27 -7.02416 -1.9168 0
M  V30 9888 H 1312.3 -6.6888 -2.96621 0
M  V30 9889 H 1313.49 -6.53617 -0.192223 0
M  V30 9890 H 1314.97 -8.36622 -0.589963 0
M  V30 9891 H 1313.28 -10.0291 -1.79807 0
M  V30 9892 H 1313.09 -10.2138 0.558219 0
M  V30 9893 H 1311.46 -9.6579 0.0444202 0
M  V30 9894 H 1314.1 -5.69556 -2.79637 0
M  V30 9895 P 1315.95 -8.4349 -2.47671 0
M  V30 9896 O 1317.38 -8.92593 -2.65 0
M  V30 9897 O 1315.59 -7.7568 -1.19296 0
M  V30 9898 O 1315.63 -7.36886 -3.63805 0
M  V30 9899 C 1315.47 -7.95349 -4.982 0
M  V30 9900 C 1316.01 -6.94612 -5.98974 0
M  V30 9901 O 1314.96 -6.10347 -6.11815 0
M  V30 9902 C 1317.23 -6.11426 -5.62335 0
M  V30 9903 O 1317.97 -5.6162 -6.70584 0
M  V30 9904 C 1316.56 -5.04409 -4.73308 0
M  V30 9905 O 1317.36 -3.85992 -4.75183 0
M  V30 9906 C 1315.22 -4.8728 -5.41006 0
M  V30 9907 H 1315.26 -4.02333 -6.11157 0
M  V30 9908 H 1316.44 -5.39466 -3.69543 0
M  V30 9909 H 1317.92 -6.71916 -5.01943 0
M  V30 9910 H 1316.23 -7.4649 -6.93477 0
M  V30 9911 H 1316.04 -8.89416 -5.05237 0
M  V30 9912 H 1314.41 -8.14876 -5.18409 0
M  V30 9913 H 1317.05 -3.27957 -5.4317 0
M  V30 9914 P 1318.9 -5.75688 -6.64379 0
M  V30 9915 O 1320.33 -6.07627 -7.05504 0
M  V30 9916 O 1318.54 -5.88047 -5.19722 0
M  V30 9917 O 1318.58 -4.2322 -7.04443 0
M  V30 9918 C 1318.42 -3.99743 -8.4911 0
M  V30 9919 C 1318.96 -2.60516 -8.79425 0
M  V30 9920 O 1317.91 -1.82684 -8.4467 0
M  V30 9921 C 1320.18 -2.10343 -8.03628 0
M  V30 9922 O 1320.92 -1.09919 -8.67766 0
M  V30 9923 C 1319.51 -1.68446 -6.70876 0
M  V30 9924 O 1320.31 -0.678137 -6.08433 0
M  V30 9925 C 1318.17 -1.17436 -7.18567 0
M  V30 9926 H 1318.21 -0.0804732 -7.31656 0
M  V30 9927 H 1319.39 -2.54037 -6.02537 0
M  V30 9928 H 1320.87 -2.93881 -7.85526 0
M  V30 9929 H 1319.18 -2.53065 -9.86973 0
M  V30 9930 H 1318.99 -4.75072 -9.05887 0
M  V30 9931 H 1317.36 -4.05244 -8.76668 0
M  V30 9932 H 1320 0.177647 -6.34251 0
M  V30 9933 P 1321.86 -1.25109 -8.70152 0
M  V30 9934 O 1323.28 -1.29744 -9.22016 0
M  V30 9935 O 1321.5 -2.13714 -7.55141 0
M  V30 9936 O 1321.53 0.248149 -8.21425 0
M  V30 9937 C 1321.37 1.22779 -9.30434 0
M  V30 9938 C 1321.91 2.56293 -8.80664 0
M  V30 9939 O 1320.86 3.02979 -8.09349 0
M  V30 9940 C 1323.13 2.57523 -7.89775 0
M  V30 9941 O 1323.87 3.7668 -7.89438 0
M  V30 9942 C 1322.46 2.20997 -6.55446 0
M  V30 9943 O 1323.26 2.71895 -5.48509 0
M  V30 9944 C 1321.12 2.89693 -6.67988 0
M  V30 9945 H 1321.16 3.88793 -6.19859 0
M  V30 9946 H 1322.34 1.12046 -6.44229 0
M  V30 9947 H 1323.82 1.7746 -8.19711 0
M  V30 9948 H 1322.13 3.20706 -9.67112 0
M  V30 9949 H 1321.94 0.901032 -10.1892 0
M  V30 9950 H 1320.31 1.33049 -9.56592 0
M  V30 9951 H 1322.95 3.57847 -5.23962 0
M  V30 9952 P 1324.81 3.65191 -7.99657 0
M  V30 9953 O 1326.23 3.89332 -8.45794 0
M  V30 9954 O 1324.45 2.28472 -7.50807 0
M  V30 9955 O 1324.48 4.64972 -6.77611 0
M  V30 9956 C 1324.32 6.06319 -7.16352 0
M  V30 9957 C 1324.86 6.91731 -6.02299 0
M  V30 9958 O 1323.81 6.92449 -5.17064 0
M  V30 9959 C 1326.08 6.43627 -5.25174 0
M  V30 9960 O 1326.82 7.43686 -4.60469 0
M  V30 9961 C 1325.41 5.40275 -4.31916 0
M  V30 9962 O 1326.21 5.25279 -3.14438 0
M  V30 9963 C 1324.07 6.04847 -4.05327 0
M  V30 9964 H 1324.11 6.62195 -3.11261 0
M  V30 9965 H 1325.29 4.42556 -4.81383 0
M  V30 9966 H 1326.77 5.92458 -5.93643 0
M  V30 9967 H 1325.08 7.92655 -6.402 0
M  V30 9968 H 1324.89 6.26671 -8.0846 0
M  V30 9969 H 1323.26 6.29101 -7.32804 0
M  V30 9970 H 1325.9 5.84315 -2.47318 0
M  V30 9971 P 1327.76 7.39546 -4.75277 0
M  V30 9972 O 1329.18 7.84882 -5.01092 0
M  V30 9973 O 1327.4 5.9812 -5.08098 0
M  V30 9974 O 1327.43 7.57503 -3.1866 0
M  V30 9975 C 1327.27 8.97452 -2.74862 0
M  V30 9976 C 1327.81 9.07548 -1.32709 0
M  V30 9977 O 1326.76 8.61972 -0.606089 0
M  V30 9978 C 1329.03 8.25383 -0.938334 0
M  V30 9979 O 1329.77 8.74577 0.146954 0
M  V30 9980 C 1328.36 6.8802 -0.712559 0
M  V30 9981 O 1329.16 6.1181 0.188505 0
M  V30 9982 C 1327.03 7.27966 -0.139777 0
M  V30 9983 N 1325.98 6.39368 -0.623421 0
M  V30 9984 C 1326.15 5.71761 -1.78245 0
M  V30 9985 N 1325.12 4.962 -2.10491 0
M  V30 9986 C 1324.24 5.16158 -1.0635 0
M  V30 9987 C 1322.97 4.60425 -0.810266 0
M  V30 9988 N 1322.41 5.06 0.348685 0
M  V30 9989 C 1323.01 5.94532 1.20395 0
M  V30 9990 N 1324.19 6.48452 1.01191 0
M  V30 9991 C 1324.76 6.04423 -0.146291 0
M  V30 9992 H 1328.24 6.32625 -1.65044 0
M  V30 9993 H 1329.72 8.19355 -1.79097 0
M  V30 9994 H 1328.03 10.1305 -1.09016 0
M  V30 9995 H 1327.84 9.64276 -3.41316 0
M  V30 9996 H 1326.21 9.25417 -2.76357 0
M  V30 9997 H 1327.05 5.79354 -2.38959 0
M  V30 9998 H 1328.85 6.25169 1.0783 0
M  V30 9999 P 1330.71 8.791 1.0718e-11 0
M  V30 10000 O 1332.13 9.31096 0.027933 0
M  V30 10001 O 1330.35 7.77869 -1.04071 0
M  V30 10002 O 1330.38 8.09533 1.41463 0
M  V30 10003 C 1330.22 9.0349 2.53943 0
M  V30 10004 C 1330.76 8.35226 3.79016 0
M  V30 10005 O 1329.71 7.57992 4.15078 0
M  V30 10006 C 1331.98 7.45087 3.67298 0
M  V30 10007 O 1332.72 7.27796 4.85194 0
M  V30 10008 C 1331.31 6.17323 3.12027 0
M  V30 10009 O 1332.11 5.04231 3.47188 0
M  V30 10010 C 1329.98 6.19961 3.81809 0
M  V30 10011 H 1330.01 5.58218 4.73051 0
M  V30 10012 H 1331.19 6.21726 2.02589 0
M  V30 10013 H 1332.68 7.86112 2.9231 0
M  V30 10014 H 1330.98 9.11627 4.55076 0
M  V30 10015 H 1330.79 9.9573 2.34194 0
M  V30 10016 H 1329.16 9.2792 2.67832 0
M  V30 10017 H 1331.8 4.67702 4.28772 0
M  V30 10018 P 1333.66 7.39546 4.75277 0
M  V30 10019 O 1335.08 7.81861 5.05793 0
M  V30 10020 O 1333.3 7.1065 3.32998 0
M  V30 10021 O 1333.33 6.04542 5.56673 0
M  V30 10022 C 1333.17 6.22839 7.02169 0
M  V30 10023 C 1333.71 4.97725 7.70406 0
M  V30 10024 O 1332.66 4.13208 7.58899 0
M  V30 10025 C 1334.93 4.28231 7.11815 0
M  V30 10026 O 1335.67 3.49945 8.01648 0
M  V30 10027 C 1334.26 3.5063 5.96244 0
M  V30 10028 O 1335.06 2.37008 5.64352 0
M  V30 10029 C 1332.93 3.15122 6.56374 0
M  V30 10030 N 1331.88 3.22311 5.55692 0
M  V30 10031 C 1332.05 3.99655 4.46046 0
M  V30 10032 N 1331.03 3.97599 3.63918 0
M  V30 10033 C 1330.14 3.11159 4.25334 0
M  V30 10034 C 1328.87 2.64972 3.85157 0
M  V30 10035 N 1328.31 1.78482 4.74759 0
M  V30 10036 C 1328.91 1.37463 5.90819 0
M  V30 10037 N 1330.09 1.7733 6.31889 0
M  V30 10038 C 1330.66 2.64393 5.43725 0
M  V30 10039 H 1334.14 4.12931 5.06895 0
M  V30 10040 H 1335.62 5.03285 6.70911 0
M  V30 10041 H 1333.93 5.20001 8.76217 0
M  V30 10042 H 1333.74 7.11046 7.35349 0
M  V30 10043 H 1332.11 6.35815 7.26986 0
M  V30 10044 H 1332.95 4.58037 4.27732 0
M  V30 10045 H 1334.75 1.61619 6.13468 0
M  V30 10046 P 1336.61 3.65191 7.99657 0
M  V30 10047 O 1338.01 3.90823 8.51272 0
M  V30 10048 O 1336.23 4.23191 6.66972 0
M  V30 10049 O 1336.29 2.07587 7.95046 0
M  V30 10050 C 1336.13 1.44328 9.27336 0
M  V30 10051 C 1336.67 0.0220012 9.17097 0
M  V30 10052 O 1335.61 -0.626794 8.61824 0
M  V30 10053 C 1337.88 -0.24586 8.30336 0
M  V30 10054 O 1338.62 -1.39011 8.63583 0
M  V30 10055 C 1337.22 -0.273849 6.91158 0
M  V30 10056 O 1338.01 -1.06331 6.02794 0
M  V30 10057 C 1335.88 -0.897649 7.22545 0
M  V30 10058 N 1334.83 -0.292839 6.41732 0
M  V30 10059 C 1333.8 -1.08701 5.98712 0
M  V30 10060 O 1333.84 -2.31211 6.24471 0
M  V30 10061 N 1332.79 -0.533391 5.28415 0
M  V30 10062 C 1332.84 0.770866 4.98576 0
M  V30 10063 C 1333.93 1.59049 5.38086 0
M  V30 10064 C 1334.9 1.01866 6.10256 0
M  V30 10065 H 1335.91 -1.98383 7.04189 0
M  V30 10066 H 1337.09 0.733318 6.49674 0
M  V30 10067 H 1338.58 0.598386 8.36663 0
M  V30 10068 H 1336.88 -0.362662 10.1825 0
M  V30 10069 H 1336.69 2.00611 10.0304 0
M  V30 10070 H 1335.06 1.41828 9.55228 0
M  V30 10071 H 1333.98 2.6415 5.10622 0
M  V30 10072 H 1335.74 1.61983 6.44042 0
M  V30 10073 H 1337.8 -1.97777 6.14035 0
M  V30 10074 P 1339.56 -1.25109 8.70152 0
M  V30 10075 O 1340.98 -1.35274 9.21221 0
M  V30 10076 O 1339.2 -0.0769065 7.84762 0
M  V30 10077 O 1339.24 -2.55232 7.81161 0
M  V30 10078 C 1339.08 -3.79939 8.58154 0
M  V30 10079 C 1339.62 -4.94023 7.72785 0
M  V30 10080 O 1338.56 -5.18726 6.91205 0
M  V30 10081 C 1340.83 -4.69597 6.85231 0
M  V30 10082 O 1341.57 -5.83832 6.51337 0
M  V30 10083 C 1340.16 -3.96706 5.66633 0
M  V30 10084 O 1340.96 -4.15414 4.49689 0
M  V30 10085 C 1338.83 -4.66153 5.59313 0
M  V30 10086 H 1338.86 -5.47679 4.85214 0
M  V30 10087 H 1340.04 -2.89008 5.86566 0
M  V30 10088 H 1341.53 -4.0121 7.36511 0
M  V30 10089 H 1339.83 -5.80182 8.37584 0
M  V30 10090 H 1339.64 -3.73517 9.52265 0
M  V30 10091 H 1338.01 -3.97163 8.80359 0
M  V30 10092 H 1340.65 -4.90969 4.01921 0
M  V30 10093 P 1342.51 -5.75688 6.64379 0
M  V30 10094 O 1343.93 -6.11981 7.01997 0
M  V30 10095 O 1342.15 -4.30744 6.56026 0
M  V30 10096 O 1342.19 -6.37042 5.19165 0
M  V30 10097 C 1342.03 -7.83578 5.16515 0
M  V30 10098 C 1342.57 -8.33307 3.82977 0
M  V30 10099 O 1341.51 -8.10074 3.01034 0
M  V30 10100 C 1343.78 -7.65514 3.2257 0
M  V30 10101 O 1344.52 -8.4329 2.32297 0
M  V30 10102 C 1343.12 -6.40075 2.62207 0
M  V30 10103 O 1343.91 -5.92492 1.53687 0
M  V30 10104 C 1341.78 -6.9454 2.18503 0
M  V30 10105 N 1340.74 -5.95905 2.39948 0
M  V30 10106 C 1340.8 -5.13994 3.44742 0
M  V30 10107 N 1339.75 -4.30684 3.46712 0
M  V30 10108 C 1339.02 -4.65583 2.41086 0
M  V30 10109 C 1337.71 -4.20877 1.99581 0
M  V30 10110 O 1336.98 -3.35913 2.52616 0
M  V30 10111 N 1337.28 -4.83271 0.873406 0
M  V30 10112 C 1338.03 -5.82006 0.185129 0
M  V30 10113 N 1337.43 -6.30619 -0.95439 0
M  V30 10114 N 1339.18 -6.28443 0.578524 0
M  V30 10115 C 1339.64 -5.68486 1.70138 0
M  V30 10116 H 1341.81 -7.23063 1.12091 0
M  V30 10117 H 1342.99 -5.60165 3.3715 0
M  V30 10118 H 1344.48 -7.3611 4.01946 0
M  V30 10119 H 1342.78 -9.40912 3.9095 0
M  V30 10120 H 1342.59 -8.29056 5.99158 0
M  V30 10121 H 1340.96 -8.10073 5.25882 0
M  V30 10122 H 1336.39 -4.58323 0.505262 0
M  V30 10123 H 1341.59 -5.14564 4.1935 0
M  V30 10124 H 1336.52 -5.93402 -1.25364 0
M  V30 10125 H 1337.9 -7.0425 -1.50254 0
M  V30 10126 H 1343.6 -6.30224 0.72668 0
M  V30 10127 P 1345.46 -8.4349 2.47671 0
M  V30 10128 O 1346.88 -8.94167 2.5964 0
M  V30 10129 O 1345.1 -7.1704 3.19006 0
M  V30 10130 O 1345.14 -8.16596 0.923387 0
M  V30 10131 C 1344.98 -9.38437 0.108857 0
M  V30 10132 C 1345.52 -9.08175 -1.28353 0
M  V30 10133 O 1344.46 -8.44229 -1.84713 0
M  V30 10134 C 1346.73 -8.18386 -1.42505 0
M  V30 10135 O 1347.47 -8.3501 -2.60497 0
M  V30 10136 C 1346.07 -6.80225 -1.25468 0
M  V30 10137 O 1346.86 -5.81621 -1.91066 0
M  V30 10138 C 1344.73 -7.02416 -1.9168 0
M  V30 10139 H 1344.76 -6.6888 -2.96621 0
M  V30 10140 H 1345.94 -6.53617 -0.192223 0
M  V30 10141 H 1347.43 -8.36622 -0.589963 0
M  V30 10142 H 1345.73 -10.0291 -1.79807 0
M  V30 10143 H 1345.54 -10.2138 0.558219 0
M  V30 10144 H 1343.91 -9.6579 0.0444202 0
M  V30 10145 H 1346.55 -5.69556 -2.79637 0
M  V30 10146 P 1348.41 -8.4349 -2.47671 0
M  V30 10147 O 1349.83 -8.92593 -2.65 0
M  V30 10148 O 1348.05 -7.7568 -1.19296 0
M  V30 10149 O 1348.09 -7.36886 -3.63805 0
M  V30 10150 C 1347.93 -7.95349 -4.982 0
M  V30 10151 C 1348.47 -6.94612 -5.98974 0
M  V30 10152 O 1347.41 -6.10347 -6.11815 0
M  V30 10153 C 1349.69 -6.11426 -5.62335 0
M  V30 10154 O 1350.42 -5.6162 -6.70584 0
M  V30 10155 C 1349.02 -5.04409 -4.73308 0
M  V30 10156 O 1349.82 -3.85992 -4.75183 0
M  V30 10157 C 1347.68 -4.8728 -5.41006 0
M  V30 10158 H 1347.71 -4.02333 -6.11157 0
M  V30 10159 H 1348.89 -5.39466 -3.69543 0
M  V30 10160 H 1350.38 -6.71916 -5.01943 0
M  V30 10161 H 1348.68 -7.4649 -6.93477 0
M  V30 10162 H 1348.49 -8.89416 -5.05237 0
M  V30 10163 H 1346.86 -8.14876 -5.18409 0
M  V30 10164 H 1349.5 -3.27957 -5.4317 0
M  V30 10165 P 1351.36 -5.75688 -6.64379 0
M  V30 10166 O 1352.78 -6.07627 -7.05504 0
M  V30 10167 O 1351 -5.88047 -5.19722 0
M  V30 10168 O 1351.04 -4.2322 -7.04443 0
M  V30 10169 C 1350.88 -3.99743 -8.4911 0
M  V30 10170 C 1351.42 -2.60516 -8.79425 0
M  V30 10171 O 1350.36 -1.82684 -8.4467 0
M  V30 10172 C 1352.64 -2.10343 -8.03628 0
M  V30 10173 O 1353.37 -1.09919 -8.67766 0
M  V30 10174 C 1351.97 -1.68446 -6.70876 0
M  V30 10175 O 1352.77 -0.678137 -6.08433 0
M  V30 10176 C 1350.63 -1.17436 -7.18567 0
M  V30 10177 H 1350.66 -0.0804732 -7.31656 0
M  V30 10178 H 1351.85 -2.54037 -6.02537 0
M  V30 10179 H 1353.33 -2.93881 -7.85526 0
M  V30 10180 H 1351.64 -2.53065 -9.86973 0
M  V30 10181 H 1351.45 -4.75072 -9.05887 0
M  V30 10182 H 1349.82 -4.05244 -8.76668 0
M  V30 10183 H 1352.45 0.177647 -6.34251 0
M  V30 10184 P 1354.31 -1.25109 -8.70152 0
M  V30 10185 O 1355.73 -1.29744 -9.22016 0
M  V30 10186 O 1353.95 -2.13714 -7.55141 0
M  V30 10187 O 1353.99 0.248149 -8.21425 0
M  V30 10188 C 1353.83 1.22779 -9.30434 0
M  V30 10189 C 1354.37 2.56293 -8.80664 0
M  V30 10190 O 1353.31 3.02979 -8.09349 0
M  V30 10191 C 1355.59 2.57523 -7.89775 0
M  V30 10192 O 1356.32 3.7668 -7.89438 0
M  V30 10193 C 1354.92 2.20997 -6.55446 0
M  V30 10194 O 1355.72 2.71895 -5.48509 0
M  V30 10195 C 1353.58 2.89693 -6.67988 0
M  V30 10196 H 1353.61 3.88793 -6.19859 0
M  V30 10197 H 1354.8 1.12046 -6.44229 0
M  V30 10198 H 1356.28 1.7746 -8.19711 0
M  V30 10199 H 1354.59 3.20706 -9.67112 0
M  V30 10200 H 1354.4 0.901032 -10.1892 0
M  V30 10201 H 1352.77 1.33049 -9.56592 0
M  V30 10202 H 1355.4 3.57847 -5.23962 0
M  V30 10203 P 1357.26 3.65191 -7.99657 0
M  V30 10204 O 1358.68 3.89332 -8.45794 0
M  V30 10205 O 1356.9 2.28472 -7.50807 0
M  V30 10206 O 1356.94 4.64972 -6.77611 0
M  V30 10207 C 1356.78 6.06319 -7.16352 0
M  V30 10208 C 1357.32 6.91731 -6.02299 0
M  V30 10209 O 1356.26 6.92449 -5.17064 0
M  V30 10210 C 1358.54 6.43627 -5.25174 0
M  V30 10211 O 1359.28 7.43686 -4.60469 0
M  V30 10212 C 1357.87 5.40275 -4.31916 0
M  V30 10213 O 1358.67 5.25279 -3.14438 0
M  V30 10214 C 1356.53 6.04847 -4.05327 0
M  V30 10215 H 1356.56 6.62195 -3.11261 0
M  V30 10216 H 1357.75 4.42556 -4.81383 0
M  V30 10217 H 1359.23 5.92458 -5.93643 0
M  V30 10218 H 1357.54 7.92655 -6.402 0
M  V30 10219 H 1357.35 6.26671 -8.0846 0
M  V30 10220 H 1355.72 6.29101 -7.32804 0
M  V30 10221 H 1358.36 5.84315 -2.47318 0
M  V30 10222 P 1360.21 7.39546 -4.75277 0
M  V30 10223 O 1361.63 7.84798 -5.01039 0
M  V30 10224 O 1359.85 5.9812 -5.08098 0
M  V30 10225 O 1359.89 7.57503 -3.1866 0
M  V30 10226 C 1359.73 8.97357 -2.74833 0
M  V30 10227 C 1360.27 9.07548 -1.32709 0
M  V30 10228 O 1359.21 8.62072 -0.606159 0
M  V30 10229 C 1361.49 8.25383 -0.938334 0
M  V30 10230 O 1362.23 8.74577 0.146954 0
M  V30 10231 C 1360.82 6.8802 -0.712559 0
M  V30 10232 O 1361.62 6.1189 0.194655 0
M  V30 10233 C 1359.48 7.27966 -0.139777 0
M  V30 10234 H 1359.51 7.25354 0.961601 0
M  V30 10235 H 1360.7 6.32557 -1.65702 0
M  V30 10236 H 1362.18 8.19355 -1.79097 0
M  V30 10237 H 1360.49 10.1294 -1.10029 0
M  V30 10238 H 1360.3 9.64276 -3.41316 0
M  V30 10239 H 1358.67 9.25417 -2.76357 0
M  V30 10240 H 1361.31 6.25267 1.07847 0
M  V30 10241 P 1363.16 8.791 1.10281e-11 0
M  V30 10242 O 1364.59 9.31096 0.027933 0
M  V30 10243 O 1362.8 7.77869 -1.04071 0
M  V30 10244 O 1362.84 8.09533 1.41463 0
M  V30 10245 C 1362.68 9.0349 2.53943 0
M  V30 10246 C 1363.22 8.35226 3.79016 0
M  V30 10247 O 1362.16 7.57992 4.15078 0
M  V30 10248 C 1364.44 7.45087 3.67298 0
M  V30 10249 O 1365.18 7.27796 4.85194 0
M  V30 10250 C 1363.77 6.17323 3.12027 0
M  V30 10251 O 1364.57 5.04231 3.47188 0
M  V30 10252 C 1362.43 6.19961 3.81809 0
M  V30 10253 H 1362.46 5.58218 4.73051 0
M  V30 10254 H 1363.65 6.21726 2.02589 0
M  V30 10255 H 1365.13 7.86112 2.9231 0
M  V30 10256 H 1363.44 9.11627 4.55076 0
M  V30 10257 H 1363.25 9.9573 2.34194 0
M  V30 10258 H 1361.62 9.2792 2.67832 0
M  V30 10259 H 1364.26 4.67702 4.28772 0
M  V30 10260 P 1366.11 7.39546 4.75277 0
M  V30 10261 O 1367.51 7.89013 5.04841 0
M  V30 10262 O 1365.74 7.16603 3.32298 0
M  V30 10263 O 1365.79 6.04468 5.56605 0
M  V30 10264 C 1365.63 6.22772 7.02095 0
M  V30 10265 C 1366.17 4.97671 7.70322 0
M  V30 10266 O 1365.11 4.13208 7.58899 0
M  V30 10267 C 1367.39 4.28231 7.11815 0
M  V30 10268 O 1368.13 3.49945 8.01648 0
M  V30 10269 C 1366.72 3.5063 5.96244 0
M  V30 10270 O 1367.52 2.36443 5.64589 0
M  V30 10271 C 1365.38 3.15122 6.56374 0
M  V30 10272 N 1364.34 3.22311 5.55692 0
M  V30 10273 C 1363.3 2.32244 5.62437 0
M  V30 10274 O 1363.34 1.43107 6.50341 0
M  V30 10275 N 1362.29 2.40811 4.73368 0
M  V30 10276 C 1362.34 3.344 3.77753 0
M  V30 10277 N 1361.33 3.41475 2.91848 0
M  V30 10278 C 1363.44 4.24712 3.66679 0
M  V30 10279 C 1364.4 4.15625 4.58307 0
M  V30 10280 H 1365.41 2.13823 6.99656 0
M  V30 10281 H 1366.6 4.12931 5.06895 0
M  V30 10282 H 1368.08 5.02674 6.71494 0
M  V30 10283 H 1366.39 5.20001 8.76217 0
M  V30 10284 H 1366.2 7.11046 7.35349 0
M  V30 10285 H 1364.57 6.35749 7.26911 0
M  V30 10286 H 1363.48 4.9828 2.86753 0
M  V30 10287 H 1365.25 4.84464 4.54228 0
M  V30 10288 H 1360.54 2.75785 2.99862 0
M  V30 10289 H 1361.34 4.12304 2.17382 0
M  V30 10290 H 1367.3 1.65592 6.23485 0
M  V30 10291 P 1369.06 3.65191 7.99657 0
M  V30 10292 O 1370.49 3.8425 8.48115 0
M  V30 10293 O 1368.7 4.17805 6.64342 0
M  V30 10294 O 1368.74 2.07613 7.95143 0
M  V30 10295 C 1368.58 1.44328 9.27336 0
M  V30 10296 C 1369.12 0.0220036 9.17197 0
M  V30 10297 O 1368.07 -0.626867 8.61923 0
M  V30 10298 C 1370.34 -0.24586 8.30336 0
M  V30 10299 O 1371.08 -1.39011 8.63583 0
M  V30 10300 C 1369.67 -0.273849 6.91158 0
M  V30 10301 O 1370.47 -1.06348 6.02892 0
M  V30 10302 C 1368.33 -0.897649 7.22545 0
M  V30 10303 H 1368.37 -1.9841 7.04286 0
M  V30 10304 H 1369.55 0.739928 6.497 0
M  V30 10305 H 1371.03 0.60668 8.36503 0
M  V30 10306 H 1369.34 -0.352479 10.1829 0
M  V30 10307 H 1369.15 2.00611 10.0304 0
M  V30 10308 H 1367.52 1.41843 9.55327 0
M  V30 10309 H 1370.16 -1.95734 6.03555 0
M  V30 10310 P 1372.02 -1.25109 8.70152 0
M  V30 10311 O 1373.44 -1.35274 9.21221 0
M  V30 10312 O 1371.66 -0.0769065 7.84762 0
M  V30 10313 O 1371.69 -2.55232 7.81161 0
M  V30 10314 C 1371.53 -3.79939 8.58154 0
M  V30 10315 C 1372.07 -4.94023 7.72785 0
M  V30 10316 O 1371.02 -5.18726 6.91205 0
M  V30 10317 C 1373.29 -4.69597 6.85231 0
M  V30 10318 O 1374.03 -5.83832 6.51337 0
M  V30 10319 C 1372.62 -3.96706 5.66633 0
M  V30 10320 O 1373.42 -4.15414 4.49689 0
M  V30 10321 C 1371.28 -4.66153 5.59313 0
M  V30 10322 H 1371.32 -5.47679 4.85214 0
M  V30 10323 H 1372.5 -2.89008 5.86566 0
M  V30 10324 H 1373.98 -4.0121 7.36511 0
M  V30 10325 H 1372.29 -5.80182 8.37584 0
M  V30 10326 H 1372.1 -3.73517 9.52265 0
M  V30 10327 H 1370.47 -3.97163 8.80359 0
M  V30 10328 H 1373.11 -4.90969 4.01921 0
M  V30 10329 P 1374.97 -5.75688 6.64379 0
M  V30 10330 O 1376.37 -6.11991 7.09136 0
M  V30 10331 O 1374.59 -4.30899 6.62018 0
M  V30 10332 O 1374.64 -6.36965 5.19102 0
M  V30 10333 C 1374.48 -7.83578 5.16515 0
M  V30 10334 C 1375.02 -8.33307 3.82977 0
M  V30 10335 O 1373.97 -8.0998 3.00999 0
M  V30 10336 C 1376.24 -7.65514 3.2257 0
M  V30 10337 O 1376.98 -8.4329 2.32297 0
M  V30 10338 C 1375.57 -6.40075 2.62207 0
M  V30 10339 O 1376.37 -5.92492 1.53687 0
M  V30 10340 C 1374.23 -6.9454 2.18503 0
M  V30 10341 N 1373.19 -5.95905 2.39948 0
M  V30 10342 C 1372.16 -5.89764 1.49837 0
M  V30 10343 O 1372.2 -6.64088 0.490975 0
M  V30 10344 N 1371.14 -5.02821 1.70992 0
M  V30 10345 C 1371.19 -4.21498 2.77236 0
M  V30 10346 N 1370.18 -3.37475 2.96465 0
M  V30 10347 C 1372.29 -4.23389 3.68205 0
M  V30 10348 C 1373.25 -5.12792 3.46171 0
M  V30 10349 H 1374.27 -7.22964 1.12076 0
M  V30 10350 H 1375.45 -5.60502 3.36589 0
M  V30 10351 H 1376.93 -7.36197 4.01993 0
M  V30 10352 H 1375.24 -9.41302 3.90009 0
M  V30 10353 H 1375.05 -8.29056 5.99158 0
M  V30 10354 H 1373.42 -8.09989 5.25828 0
M  V30 10355 H 1372.34 -3.54747 4.52399 0
M  V30 10356 H 1374.1 -5.18551 4.1489 0
M  V30 10357 H 1369.39 -3.36058 2.30304 0
M  V30 10358 H 1370.19 -2.73846 3.77171 0
M  V30 10359 H 1376.15 -6.40705 0.751752 0
M  V30 10360 P 1377.92 -8.4349 2.47671 0
M  V30 10361 O 1379.34 -8.94359 2.59696 0
M  V30 10362 O 1377.56 -7.1704 3.19006 0
M  V30 10363 O 1377.59 -8.16596 0.923387 0
M  V30 10364 C 1377.43 -9.38437 0.108857 0
M  V30 10365 C 1377.97 -9.08076 -1.28339 0
M  V30 10366 O 1376.92 -8.44229 -1.84713 0
M  V30 10367 C 1379.19 -8.18386 -1.42505 0
M  V30 10368 O 1379.93 -8.3501 -2.60497 0
M  V30 10369 C 1378.52 -6.80225 -1.25468 0
M  V30 10370 O 1379.32 -5.81526 -1.91035 0
M  V30 10371 C 1377.19 -7.02416 -1.9168 0
M  V30 10372 N 1376.14 -6.31033 -1.20314 0
M  V30 10373 C 1376.2 -6.18781 0.121293 0
M  V30 10374 N 1375.16 -5.49762 0.588272 0
M  V30 10375 C 1374.43 -5.22015 -0.488988 0
M  V30 10376 C 1373.12 -4.61966 -0.596448 0
M  V30 10377 O 1372.39 -4.19162 0.309059 0
M  V30 10378 N 1372.69 -4.53773 -1.878 0
M  V30 10379 C 1373.44 -4.99623 -2.99082 0
M  V30 10380 N 1372.84 -4.78912 -4.21227 0
M  V30 10381 N 1374.59 -5.59957 -2.91093 0
M  V30 10382 C 1375.05 -5.70225 -1.64218 0
M  V30 10383 H 1377.22 -6.6888 -2.96621 0
M  V30 10384 H 1378.4 -6.53517 -0.192194 0
M  V30 10385 H 1379.89 -8.36563 -0.598329 0
M  V30 10386 H 1378.19 -10.0291 -1.79807 0
M  V30 10387 H 1378 -10.2138 0.558219 0
M  V30 10388 H 1376.37 -9.6579 0.0444202 0
M  V30 10389 H 1371.79 -4.12883 -2.05283 0
M  V30 10390 H 1377 -6.59596 0.745856 0
M  V30 10391 H 1371.93 -4.31425 -4.2628 0
M  V30 10392 H 1373.31 -5.11219 -5.07148 0
M  V30 10393 H 1379.01 -5.69466 -2.79593 0
M  V30 10394 P 1380.87 -8.4349 -2.47671 0
M  V30 10395 O 1382.29 -8.92593 -2.65 0
M  V30 10396 O 1380.51 -7.7568 -1.19296 0
M  V30 10397 O 1380.54 -7.36886 -3.63805 0
M  V30 10398 C 1380.38 -7.95349 -4.982 0
M  V30 10399 C 1380.92 -6.94612 -5.98974 0
M  V30 10400 O 1379.87 -6.10347 -6.11815 0
M  V30 10401 C 1382.14 -6.11426 -5.62335 0
M  V30 10402 O 1382.88 -5.6162 -6.70584 0
M  V30 10403 C 1381.47 -5.04409 -4.73308 0
M  V30 10404 O 1382.27 -3.85992 -4.75183 0
M  V30 10405 C 1380.14 -4.8728 -5.41006 0
M  V30 10406 H 1380.17 -4.02333 -6.11157 0
M  V30 10407 H 1381.35 -5.39466 -3.69543 0
M  V30 10408 H 1382.83 -6.71916 -5.01943 0
M  V30 10409 H 1381.14 -7.4649 -6.93477 0
M  V30 10410 H 1380.95 -8.89416 -5.05237 0
M  V30 10411 H 1379.32 -8.14876 -5.18409 0
M  V30 10412 H 1381.96 -3.27957 -5.4317 0
M  V30 10413 P 1383.82 -5.75688 -6.64379 0
M  V30 10414 O 1385.24 -6.07627 -7.05504 0
M  V30 10415 O 1383.46 -5.88047 -5.19722 0
M  V30 10416 O 1383.49 -4.2322 -7.04443 0
M  V30 10417 C 1383.33 -3.99743 -8.4911 0
M  V30 10418 C 1383.87 -2.60516 -8.79425 0
M  V30 10419 O 1382.82 -1.82684 -8.4467 0
M  V30 10420 C 1385.09 -2.10343 -8.03628 0
M  V30 10421 O 1385.83 -1.09919 -8.67766 0
M  V30 10422 C 1384.42 -1.68446 -6.70876 0
M  V30 10423 O 1385.22 -0.678137 -6.08433 0
M  V30 10424 C 1383.09 -1.17436 -7.18567 0
M  V30 10425 H 1383.12 -0.0804732 -7.31656 0
M  V30 10426 H 1384.3 -2.54037 -6.02537 0
M  V30 10427 H 1385.79 -2.93881 -7.85526 0
M  V30 10428 H 1384.09 -2.53065 -9.86973 0
M  V30 10429 H 1383.9 -4.75072 -9.05887 0
M  V30 10430 H 1382.27 -4.05244 -8.76668 0
M  V30 10431 H 1384.91 0.177647 -6.34251 0
M  V30 10432 P 1386.77 -1.25109 -8.70152 0
M  V30 10433 O 1388.19 -1.29744 -9.22016 0
M  V30 10434 O 1386.41 -2.13714 -7.55141 0
M  V30 10435 O 1386.44 0.248149 -8.21425 0
M  V30 10436 C 1386.28 1.22779 -9.30434 0
M  V30 10437 C 1386.82 2.56293 -8.80664 0
M  V30 10438 O 1385.77 3.02979 -8.09349 0
M  V30 10439 C 1388.04 2.57523 -7.89775 0
M  V30 10440 O 1388.78 3.7668 -7.89438 0
M  V30 10441 C 1387.37 2.20997 -6.55446 0
M  V30 10442 O 1388.17 2.71895 -5.48509 0
M  V30 10443 C 1386.04 2.89693 -6.67988 0
M  V30 10444 H 1386.07 3.88793 -6.19859 0
M  V30 10445 H 1387.25 1.12046 -6.44229 0
M  V30 10446 H 1388.74 1.7746 -8.19711 0
M  V30 10447 H 1387.04 3.20706 -9.67112 0
M  V30 10448 H 1386.85 0.901032 -10.1892 0
M  V30 10449 H 1385.22 1.33049 -9.56592 0
M  V30 10450 H 1387.86 3.57847 -5.23962 0
M  V30 10451 P 1389.72 3.65191 -7.99657 0
M  V30 10452 O 1391.14 3.89332 -8.45794 0
M  V30 10453 O 1389.36 2.28472 -7.50807 0
M  V30 10454 O 1389.4 4.64972 -6.77611 0
M  V30 10455 C 1389.24 6.06319 -7.16352 0
M  V30 10456 C 1389.78 6.91731 -6.02299 0
M  V30 10457 O 1388.72 6.92449 -5.17064 0
M  V30 10458 C 1390.99 6.43627 -5.25174 0
M  V30 10459 O 1391.73 7.43686 -4.60469 0
M  V30 10460 C 1390.32 5.40275 -4.31916 0
M  V30 10461 O 1391.12 5.25279 -3.14438 0
M  V30 10462 C 1388.99 6.04847 -4.05327 0
M  V30 10463 H 1389.02 6.62195 -3.11261 0
M  V30 10464 H 1390.2 4.42556 -4.81383 0
M  V30 10465 H 1391.69 5.92458 -5.93643 0
M  V30 10466 H 1389.99 7.92655 -6.402 0
M  V30 10467 H 1389.8 6.26671 -8.0846 0
M  V30 10468 H 1388.17 6.29101 -7.32804 0
M  V30 10469 H 1390.81 5.84315 -2.47318 0
M  V30 10470 P 1392.67 7.39546 -4.75277 0
M  V30 10471 O 1394.09 7.84798 -5.01039 0
M  V30 10472 O 1392.31 5.9812 -5.08098 0
M  V30 10473 O 1392.35 7.57503 -3.1866 0
M  V30 10474 C 1392.19 8.97357 -2.74833 0
M  V30 10475 C 1392.73 9.07548 -1.32709 0
M  V30 10476 O 1391.67 8.62072 -0.606159 0
M  V30 10477 C 1393.94 8.25383 -0.938334 0
M  V30 10478 O 1394.68 8.74577 0.146954 0
M  V30 10479 C 1393.28 6.8802 -0.712559 0
M  V30 10480 O 1394.07 6.1189 0.194655 0
M  V30 10481 C 1391.94 7.27966 -0.139777 0
M  V30 10482 H 1391.97 7.25354 0.961601 0
M  V30 10483 H 1393.15 6.32557 -1.65702 0
M  V30 10484 H 1394.64 8.19355 -1.79097 0
M  V30 10485 H 1392.94 10.1294 -1.10029 0
M  V30 10486 H 1392.75 9.64276 -3.41316 0
M  V30 10487 H 1391.12 9.25417 -2.76357 0
M  V30 10488 H 1393.76 6.25267 1.07847 0
M  V30 10489 P 1395.62 8.791 1.13383e-11 0
M  V30 10490 O 1397.04 9.31096 0.027933 0
M  V30 10491 O 1395.26 7.77869 -1.04071 0
M  V30 10492 O 1395.3 8.09533 1.41463 0
M  V30 10493 C 1395.14 9.0349 2.53943 0
M  V30 10494 C 1395.68 8.35226 3.79016 0
M  V30 10495 O 1394.62 7.57992 4.15078 0
M  V30 10496 C 1396.89 7.45087 3.67298 0
M  V30 10497 O 1397.63 7.27796 4.85194 0
M  V30 10498 C 1396.23 6.17323 3.12027 0
M  V30 10499 O 1397.02 5.04231 3.47188 0
M  V30 10500 C 1394.89 6.19961 3.81809 0
M  V30 10501 H 1394.92 5.58218 4.73051 0
M  V30 10502 H 1396.1 6.21726 2.02589 0
M  V30 10503 H 1397.59 7.86112 2.9231 0
M  V30 10504 H 1395.89 9.11627 4.55076 0
M  V30 10505 H 1395.7 9.9573 2.34194 0
M  V30 10506 H 1394.07 9.2792 2.67832 0
M  V30 10507 H 1396.71 4.67702 4.28772 0
M  V30 10508 P 1398.57 7.39546 4.75277 0
M  V30 10509 O 1399.99 7.81777 5.05738 0
M  V30 10510 O 1398.21 7.1065 3.32998 0
M  V30 10511 O 1398.25 6.04542 5.56673 0
M  V30 10512 C 1398.09 6.22772 7.02095 0
M  V30 10513 C 1398.63 4.97725 7.70406 0
M  V30 10514 O 1397.57 4.13256 7.58987 0
M  V30 10515 C 1399.85 4.28231 7.11815 0
M  V30 10516 O 1400.58 3.49945 8.01648 0
M  V30 10517 C 1399.18 3.5063 5.96244 0
M  V30 10518 O 1399.98 2.36482 5.64681 0
M  V30 10519 C 1397.84 3.15122 6.56374 0
M  V30 10520 H 1397.87 2.13853 6.99751 0
M  V30 10521 H 1399.05 4.13501 5.06559 0
M  V30 10522 H 1400.54 5.03285 6.70911 0
M  V30 10523 H 1398.84 5.20877 8.75697 0
M  V30 10524 H 1398.65 7.11046 7.35349 0
M  V30 10525 H 1397.02 6.35815 7.26986 0
M  V30 10526 H 1399.66 1.61644 6.13565 0
M  V30 10527 P 1401.52 3.65191 7.99657 0
M  V30 10528 O 1402.94 3.8425 8.48115 0
M  V30 10529 O 1401.16 4.17805 6.64342 0
M  V30 10530 O 1401.2 2.07613 7.95143 0
M  V30 10531 C 1401.04 1.44328 9.27336 0
M  V30 10532 C 1401.58 0.0220036 9.17197 0
M  V30 10533 O 1400.52 -0.626867 8.61923 0
M  V30 10534 C 1402.8 -0.24586 8.30336 0
M  V30 10535 O 1403.53 -1.39011 8.63583 0
M  V30 10536 C 1402.13 -0.273849 6.91158 0
M  V30 10537 O 1402.93 -1.06348 6.02892 0
M  V30 10538 C 1400.79 -0.897649 7.22545 0
M  V30 10539 H 1400.82 -1.9841 7.04286 0
M  V30 10540 H 1402 0.739928 6.497 0
M  V30 10541 H 1403.49 0.60668 8.36503 0
M  V30 10542 H 1401.79 -0.352479 10.1829 0
M  V30 10543 H 1401.6 2.00611 10.0304 0
M  V30 10544 H 1399.97 1.41843 9.55327 0
M  V30 10545 H 1402.61 -1.95734 6.03555 0
M  V30 10546 P 1404.47 -1.25109 8.70152 0
M  V30 10547 O 1405.89 -1.35274 9.21221 0
M  V30 10548 O 1404.11 -0.0769065 7.84762 0
M  V30 10549 O 1404.15 -2.55232 7.81161 0
M  V30 10550 C 1403.99 -3.79939 8.58154 0
M  V30 10551 C 1404.53 -4.94023 7.72785 0
M  V30 10552 O 1403.47 -5.18726 6.91205 0
M  V30 10553 C 1405.75 -4.69597 6.85231 0
M  V30 10554 O 1406.48 -5.83832 6.51337 0
M  V30 10555 C 1405.08 -3.96706 5.66633 0
M  V30 10556 O 1405.88 -4.15414 4.49689 0
M  V30 10557 C 1403.74 -4.66153 5.59313 0
M  V30 10558 H 1403.77 -5.47679 4.85214 0
M  V30 10559 H 1404.96 -2.89008 5.86566 0
M  V30 10560 H 1406.44 -4.0121 7.36511 0
M  V30 10561 H 1404.75 -5.80182 8.37584 0
M  V30 10562 H 1404.56 -3.73517 9.52265 0
M  V30 10563 H 1402.93 -3.97163 8.80359 0
M  V30 10564 H 1405.56 -4.90969 4.01921 0
M  V30 10565 P 1407.42 -5.75688 6.64379 0
M  V30 10566 O 1408.84 -6.11849 7.01846 0
M  V30 10567 O 1407.06 -4.30744 6.56026 0
M  V30 10568 O 1407.1 -6.37042 5.19165 0
M  V30 10569 C 1406.94 -7.83578 5.16515 0
M  V30 10570 C 1407.48 -8.33398 3.83019 0
M  V30 10571 O 1406.42 -8.10074 3.01034 0
M  V30 10572 C 1408.7 -7.65514 3.2257 0
M  V30 10573 O 1409.43 -8.4329 2.32297 0
M  V30 10574 C 1408.03 -6.40075 2.62207 0
M  V30 10575 O 1408.83 -5.92589 1.53712 0
M  V30 10576 C 1406.69 -6.9454 2.18503 0
M  V30 10577 H 1406.72 -7.23063 1.12091 0
M  V30 10578 H 1407.91 -5.6025 3.37201 0
M  V30 10579 H 1409.39 -7.35707 4.02681 0
M  V30 10580 H 1407.7 -9.40912 3.9095 0
M  V30 10581 H 1407.51 -8.29056 5.99158 0
M  V30 10582 H 1405.88 -8.10073 5.25882 0
M  V30 10583 H 1408.51 -6.30324 0.726794 0
M  V30 10584 P 1410.37 -8.4349 2.47671 0
M  V30 10585 O 1411.79 -8.94167 2.5964 0
M  V30 10586 O 1410.01 -7.1704 3.19006 0
M  V30 10587 O 1410.05 -8.16596 0.923387 0
M  V30 10588 C 1409.89 -9.38437 0.108857 0
M  V30 10589 C 1410.43 -9.08175 -1.28353 0
M  V30 10590 O 1409.37 -8.44229 -1.84713 0
M  V30 10591 C 1411.65 -8.18386 -1.42505 0
M  V30 10592 O 1412.39 -8.3501 -2.60497 0
M  V30 10593 C 1410.98 -6.80225 -1.25468 0
M  V30 10594 O 1411.78 -5.81621 -1.91066 0
M  V30 10595 C 1409.64 -7.02416 -1.9168 0
M  V30 10596 H 1409.67 -6.6888 -2.96621 0
M  V30 10597 H 1410.86 -6.53617 -0.192223 0
M  V30 10598 H 1412.34 -8.36622 -0.589963 0
M  V30 10599 H 1410.65 -10.0291 -1.79807 0
M  V30 10600 H 1410.46 -10.2138 0.558219 0
M  V30 10601 H 1408.83 -9.6579 0.0444202 0
M  V30 10602 H 1411.47 -5.69556 -2.79637 0
M  V30 10603 P 1413.32 -8.4349 -2.47671 0
M  V30 10604 O 1414.75 -8.92593 -2.65 0
M  V30 10605 O 1412.96 -7.7568 -1.19296 0
M  V30 10606 O 1413 -7.36886 -3.63805 0
M  V30 10607 C 1412.84 -7.95349 -4.982 0
M  V30 10608 C 1413.38 -6.94612 -5.98974 0
M  V30 10609 O 1412.32 -6.10347 -6.11815 0
M  V30 10610 C 1414.6 -6.11426 -5.62335 0
M  V30 10611 O 1415.34 -5.6162 -6.70584 0
M  V30 10612 C 1413.93 -5.04409 -4.73308 0
M  V30 10613 O 1414.73 -3.85992 -4.75183 0
M  V30 10614 C 1412.59 -4.8728 -5.41006 0
M  V30 10615 H 1412.62 -4.02333 -6.11157 0
M  V30 10616 H 1413.81 -5.39466 -3.69543 0
M  V30 10617 H 1415.29 -6.71916 -5.01943 0
M  V30 10618 H 1413.6 -7.4649 -6.93477 0
M  V30 10619 H 1413.41 -8.89416 -5.05237 0
M  V30 10620 H 1411.78 -8.14876 -5.18409 0
M  V30 10621 H 1414.42 -3.27957 -5.4317 0
M  V30 10622 P 1416.27 -5.75688 -6.64379 0
M  V30 10623 O 1417.7 -6.07627 -7.05504 0
M  V30 10624 O 1415.91 -5.88047 -5.19722 0
M  V30 10625 O 1415.95 -4.2322 -7.04443 0
M  V30 10626 C 1415.79 -3.99743 -8.4911 0
M  V30 10627 C 1416.33 -2.60516 -8.79425 0
M  V30 10628 O 1415.27 -1.82684 -8.4467 0
M  V30 10629 C 1417.55 -2.10343 -8.03628 0
M  V30 10630 O 1418.29 -1.09919 -8.67766 0
M  V30 10631 C 1416.88 -1.68446 -6.70876 0
M  V30 10632 O 1417.68 -0.678137 -6.08433 0
M  V30 10633 C 1415.54 -1.17436 -7.18567 0
M  V30 10634 H 1415.57 -0.0804732 -7.31656 0
M  V30 10635 H 1416.76 -2.54037 -6.02537 0
M  V30 10636 H 1418.24 -2.93881 -7.85526 0
M  V30 10637 H 1416.55 -2.53065 -9.86973 0
M  V30 10638 H 1416.36 -4.75072 -9.05887 0
M  V30 10639 H 1414.73 -4.05244 -8.76668 0
M  V30 10640 H 1417.37 0.177647 -6.34251 0
M  V30 10641 P 1419.22 -1.25109 -8.70152 0
M  V30 10642 O 1420.65 -1.29744 -9.22016 0
M  V30 10643 O 1418.86 -2.13714 -7.55141 0
M  V30 10644 O 1418.9 0.248149 -8.21425 0
M  V30 10645 C 1418.74 1.22779 -9.30434 0
M  V30 10646 C 1419.28 2.56293 -8.80664 0
M  V30 10647 O 1418.23 3.02979 -8.09349 0
M  V30 10648 C 1420.5 2.57523 -7.89775 0
M  V30 10649 O 1421.24 3.7668 -7.89438 0
M  V30 10650 C 1419.83 2.20997 -6.55446 0
M  V30 10651 O 1420.63 2.71895 -5.48509 0
M  V30 10652 C 1418.49 2.89693 -6.67988 0
M  V30 10653 H 1418.53 3.88793 -6.19859 0
M  V30 10654 H 1419.71 1.12046 -6.44229 0
M  V30 10655 H 1421.19 1.7746 -8.19711 0
M  V30 10656 H 1419.5 3.20706 -9.67112 0
M  V30 10657 H 1419.31 0.901032 -10.1892 0
M  V30 10658 H 1417.68 1.33049 -9.56592 0
M  V30 10659 H 1420.32 3.57847 -5.23962 0
M  V30 10660 P 1422.17 3.65191 -7.99657 0
M  V30 10661 O 1423.6 3.89332 -8.45794 0
M  V30 10662 O 1421.81 2.28472 -7.50807 0
M  V30 10663 O 1421.85 4.64972 -6.77611 0
M  V30 10664 C 1421.69 6.06319 -7.16352 0
M  V30 10665 C 1422.23 6.91731 -6.02299 0
M  V30 10666 O 1421.18 6.92449 -5.17064 0
M  V30 10667 C 1423.45 6.43627 -5.25174 0
M  V30 10668 O 1424.19 7.43686 -4.60469 0
M  V30 10669 C 1422.78 5.40275 -4.31916 0
M  V30 10670 O 1423.58 5.25279 -3.14438 0
M  V30 10671 C 1421.44 6.04847 -4.05327 0
M  V30 10672 H 1421.48 6.62195 -3.11261 0
M  V30 10673 H 1422.66 4.42556 -4.81383 0
M  V30 10674 H 1424.14 5.92458 -5.93643 0
M  V30 10675 H 1422.45 7.92655 -6.402 0
M  V30 10676 H 1422.26 6.26671 -8.0846 0
M  V30 10677 H 1420.63 6.29101 -7.32804 0
M  V30 10678 H 1423.27 5.84315 -2.47318 0
M  V30 10679 P 1425.13 7.39546 -4.75277 0
M  V30 10680 O 1426.55 7.84798 -5.01039 0
M  V30 10681 O 1424.77 5.9812 -5.08098 0
M  V30 10682 O 1424.8 7.57503 -3.1866 0
M  V30 10683 C 1424.64 8.97357 -2.74833 0
M  V30 10684 C 1425.18 9.07548 -1.32709 0
M  V30 10685 O 1424.13 8.62072 -0.606159 0
M  V30 10686 C 1426.4 8.25383 -0.938334 0
M  V30 10687 O 1427.14 8.74577 0.146954 0
M  V30 10688 C 1425.73 6.8802 -0.712559 0
M  V30 10689 O 1426.53 6.1189 0.194655 0
M  V30 10690 C 1424.39 7.27966 -0.139777 0
M  V30 10691 H 1424.43 7.25354 0.961601 0
M  V30 10692 H 1425.61 6.32557 -1.65702 0
M  V30 10693 H 1427.09 8.19355 -1.79097 0
M  V30 10694 H 1425.4 10.1294 -1.10029 0
M  V30 10695 H 1425.21 9.64276 -3.41316 0
M  V30 10696 H 1423.58 9.25417 -2.76357 0
M  V30 10697 H 1426.22 6.25267 1.07847 0
M  V30 10698 P 1428.08 8.791 1.16485e-11 0
M  V30 10699 O 1429.5 9.31196 0.027936 0
M  V30 10700 O 1427.72 7.77869 -1.04071 0
M  V30 10701 O 1427.75 8.09533 1.41463 0
M  V30 10702 C 1427.59 9.03587 2.5397 0
M  V30 10703 C 1428.13 8.35226 3.79016 0
M  V30 10704 O 1427.08 7.57904 4.1503 0
M  V30 10705 C 1429.35 7.45087 3.67298 0
M  V30 10706 O 1430.09 7.27796 4.85194 0
M  V30 10707 C 1428.68 6.17323 3.12027 0
M  V30 10708 O 1429.48 5.04496 3.46627 0
M  V30 10709 C 1427.34 6.19961 3.81809 0
M  V30 10710 N 1426.3 5.71575 2.93223 0
M  V30 10711 C 1426.47 5.77362 1.59168 0
M  V30 10712 N 1425.44 5.3123 0.911893 0
M  V30 10713 C 1424.56 4.91717 1.89588 0
M  V30 10714 C 1423.29 4.3114 1.8076 0
M  V30 10715 N 1422.69 3.99821 0.632928 0
M  V30 10716 N 1422.73 4.06823 3.02898 0
M  V30 10717 C 1423.33 4.35062 4.22711 0
M  V30 10718 N 1424.51 4.90805 4.35707 0
M  V30 10719 C 1425.08 5.16382 3.14469 0
M  V30 10720 H 1427.38 5.58142 4.72986 0
M  V30 10721 H 1428.56 6.21428 2.0318 0
M  V30 10722 H 1430.04 7.86112 2.9231 0
M  V30 10723 H 1428.35 9.11171 4.55987 0
M  V30 10724 H 1428.16 9.9573 2.34194 0
M  V30 10725 H 1426.53 9.2792 2.67832 0
M  V30 10726 H 1422.79 4.09052 5.13359 0
M  V30 10727 H 1427.37 6.16575 1.12198 0
M  V30 10728 H 1421.76 3.55423 0.632085 0
M  V30 10729 H 1423.17 4.20317 -0.256712 0
M  V30 10730 H 1429.17 4.67628 4.28704 0
M  V30 10731 P 1431.03 7.39546 4.75277 0
M  V30 10732 O 1432.45 7.81777 5.05738 0
M  V30 10733 O 1430.67 7.1065 3.32998 0
M  V30 10734 O 1430.7 6.04542 5.56673 0
M  V30 10735 C 1430.54 6.22772 7.02095 0
M  V30 10736 C 1431.08 4.97725 7.70406 0
M  V30 10737 O 1430.03 4.13256 7.58987 0
M  V30 10738 C 1432.3 4.28231 7.11815 0
M  V30 10739 O 1433.04 3.49945 8.01648 0
M  V30 10740 C 1431.63 3.5063 5.96244 0
M  V30 10741 O 1432.43 2.36482 5.64681 0
M  V30 10742 C 1430.3 3.15122 6.56374 0
M  V30 10743 H 1430.33 2.13853 6.99751 0
M  V30 10744 H 1431.51 4.13501 5.06559 0
M  V30 10745 H 1432.99 5.03285 6.70911 0
M  V30 10746 H 1431.3 5.20877 8.75697 0
M  V30 10747 H 1431.11 7.11046 7.35349 0
M  V30 10748 H 1429.48 6.35815 7.26986 0
M  V30 10749 H 1432.12 1.61644 6.13565 0
M  V30 10750 P 1433.98 3.65191 7.99657 0
M  V30 10751 O 1435.4 3.8425 8.48115 0
M  V30 10752 O 1433.62 4.17805 6.64342 0
M  V30 10753 O 1433.65 2.07613 7.95143 0
M  V30 10754 C 1433.49 1.44328 9.27336 0
M  V30 10755 C 1434.03 0.0220036 9.17197 0
M  V30 10756 O 1432.98 -0.626867 8.61923 0
M  V30 10757 C 1435.25 -0.24586 8.30336 0
M  V30 10758 O 1435.99 -1.39011 8.63583 0
M  V30 10759 C 1434.58 -0.273849 6.91158 0
M  V30 10760 O 1435.38 -1.06348 6.02892 0
M  V30 10761 C 1433.25 -0.897649 7.22545 0
M  V30 10762 H 1433.28 -1.9841 7.04286 0
M  V30 10763 H 1434.46 0.739928 6.497 0
M  V30 10764 H 1435.95 0.60668 8.36503 0
M  V30 10765 H 1434.25 -0.352479 10.1829 0
M  V30 10766 H 1434.06 2.00611 10.0304 0
M  V30 10767 H 1432.43 1.41843 9.55327 0
M  V30 10768 H 1435.07 -1.95734 6.03555 0
M  V30 10769 P 1436.93 -1.25109 8.70152 0
M  V30 10770 O 1438.35 -1.35274 9.21221 0
M  V30 10771 O 1436.57 -0.0769065 7.84762 0
M  V30 10772 O 1436.6 -2.55232 7.81161 0
M  V30 10773 C 1436.44 -3.79939 8.58154 0
M  V30 10774 C 1436.98 -4.94023 7.72785 0
M  V30 10775 O 1435.93 -5.18726 6.91205 0
M  V30 10776 C 1438.2 -4.69597 6.85231 0
M  V30 10777 O 1438.94 -5.83832 6.51337 0
M  V30 10778 C 1437.53 -3.96706 5.66633 0
M  V30 10779 O 1438.33 -4.15414 4.49689 0
M  V30 10780 C 1436.2 -4.66153 5.59313 0
M  V30 10781 H 1436.23 -5.47679 4.85214 0
M  V30 10782 H 1437.41 -2.89008 5.86566 0
M  V30 10783 H 1438.9 -4.0121 7.36511 0
M  V30 10784 H 1437.2 -5.80182 8.37584 0
M  V30 10785 H 1437.01 -3.73517 9.52265 0
M  V30 10786 H 1435.38 -3.97163 8.80359 0
M  V30 10787 H 1438.02 -4.90969 4.01921 0
M  V30 10788 P 1439.88 -5.75688 6.64379 0
M  V30 10789 O 1441.3 -6.11981 7.01997 0
M  V30 10790 O 1439.52 -4.30744 6.56026 0
M  V30 10791 O 1439.56 -6.37042 5.19165 0
M  V30 10792 C 1439.4 -7.83578 5.16515 0
M  V30 10793 C 1439.94 -8.33307 3.82977 0
M  V30 10794 O 1438.88 -8.10074 3.01034 0
M  V30 10795 C 1441.15 -7.65514 3.2257 0
M  V30 10796 O 1441.89 -8.4329 2.32297 0
M  V30 10797 C 1440.49 -6.40075 2.62207 0
M  V30 10798 O 1441.28 -5.92492 1.53687 0
M  V30 10799 C 1439.15 -6.9454 2.18503 0
M  V30 10800 N 1438.1 -5.95905 2.39948 0
M  V30 10801 C 1438.17 -5.13994 3.44742 0
M  V30 10802 N 1437.12 -4.30684 3.46712 0
M  V30 10803 C 1436.39 -4.65583 2.41086 0
M  V30 10804 C 1435.08 -4.20877 1.99581 0
M  V30 10805 O 1434.35 -3.35913 2.52616 0
M  V30 10806 N 1434.65 -4.83271 0.873406 0
M  V30 10807 C 1435.4 -5.82006 0.185129 0
M  V30 10808 N 1434.8 -6.30619 -0.95439 0
M  V30 10809 N 1436.55 -6.28443 0.578524 0
M  V30 10810 C 1437.01 -5.68486 1.70138 0
M  V30 10811 H 1439.18 -7.23063 1.12091 0
M  V30 10812 H 1440.36 -5.60165 3.3715 0
M  V30 10813 H 1441.85 -7.3611 4.01946 0
M  V30 10814 H 1440.15 -9.40912 3.9095 0
M  V30 10815 H 1439.96 -8.29056 5.99158 0
M  V30 10816 H 1438.33 -8.10073 5.25882 0
M  V30 10817 H 1433.76 -4.58323 0.505262 0
M  V30 10818 H 1438.96 -5.14564 4.1935 0
M  V30 10819 H 1433.89 -5.93402 -1.25364 0
M  V30 10820 H 1435.27 -7.0425 -1.50254 0
M  V30 10821 H 1440.97 -6.30224 0.72668 0
M  V30 10822 P 1442.83 -8.4349 2.47671 0
M  V30 10823 O 1444.25 -8.94167 2.5964 0
M  V30 10824 O 1442.47 -7.1704 3.19006 0
M  V30 10825 O 1442.51 -8.16596 0.923387 0
M  V30 10826 C 1442.35 -9.38437 0.108857 0
M  V30 10827 C 1442.89 -9.08175 -1.28353 0
M  V30 10828 O 1441.83 -8.44229 -1.84713 0
M  V30 10829 C 1444.1 -8.18386 -1.42505 0
M  V30 10830 O 1444.84 -8.3501 -2.60497 0
M  V30 10831 C 1443.43 -6.80225 -1.25468 0
M  V30 10832 O 1444.23 -5.81621 -1.91066 0
M  V30 10833 C 1442.1 -7.02416 -1.9168 0
M  V30 10834 H 1442.13 -6.6888 -2.96621 0
M  V30 10835 H 1443.31 -6.53617 -0.192223 0
M  V30 10836 H 1444.8 -8.36622 -0.589963 0
M  V30 10837 H 1443.1 -10.0291 -1.79807 0
M  V30 10838 H 1442.91 -10.2138 0.558219 0
M  V30 10839 H 1441.28 -9.6579 0.0444202 0
M  V30 10840 H 1443.92 -5.69556 -2.79637 0
M  V30 10841 P 1445.78 -8.4349 -2.47671 0
M  V30 10842 O 1447.2 -8.92785 -2.65057 0
M  V30 10843 O 1445.42 -7.7568 -1.19296 0
M  V30 10844 O 1445.46 -7.36886 -3.63805 0
M  V30 10845 C 1445.3 -7.95349 -4.982 0
M  V30 10846 C 1445.84 -6.94537 -5.98908 0
M  V30 10847 O 1444.78 -6.10347 -6.11815 0
M  V30 10848 C 1447.05 -6.11426 -5.62335 0
M  V30 10849 O 1447.79 -5.6162 -6.70584 0
M  V30 10850 C 1446.39 -5.04409 -4.73308 0
M  V30 10851 O 1447.18 -3.85929 -4.75106 0
M  V30 10852 C 1445.05 -4.8728 -5.41006 0
M  V30 10853 N 1444.01 -4.65812 -4.42377 0
M  V30 10854 C 1444.07 -5.27109 -3.24335 0
M  V30 10855 N 1443.02 -4.94293 -2.47735 0
M  V30 10856 C 1442.29 -4.1271 -3.23359 0
M  V30 10857 C 1440.98 -3.56384 -2.99934 0
M  V30 10858 O 1440.25 -3.69331 -2.00616 0
M  V30 10859 N 1440.55 -2.80206 -4.03316 0
M  V30 10860 C 1441.3 -2.58614 -5.2172 0
M  V30 10861 N 1440.7 -1.75154 -6.13278 0
M  V30 10862 N 1442.45 -3.13689 -5.47619 0
M  V30 10863 C 1442.91 -3.90921 -4.46436 0
M  V30 10864 H 1445.08 -4.02333 -6.11157 0
M  V30 10865 H 1446.26 -5.39383 -3.69487 0
M  V30 10866 H 1447.75 -6.71414 -5.02615 0
M  V30 10867 H 1446.05 -7.4649 -6.93477 0
M  V30 10868 H 1445.86 -8.89416 -5.05237 0
M  V30 10869 H 1444.23 -8.14876 -5.18409 0
M  V30 10870 H 1439.66 -2.36355 -3.95916 0
M  V30 10871 H 1444.86 -5.95212 -2.93859 0
M  V30 10872 H 1439.79 -1.32473 -5.91856 0
M  V30 10873 H 1441.17 -1.5588 -7.03026 0
M  V30 10874 H 1446.87 -3.27906 -5.43085 0
M  V30 10875 P 1448.73 -5.75688 -6.64379 0
M  V30 10876 O 1450.15 -6.07758 -7.05656 0
M  V30 10877 O 1448.37 -5.88047 -5.19722 0
M  V30 10878 O 1448.41 -4.2322 -7.04443 0
M  V30 10879 C 1448.25 -3.99743 -8.4911 0
M  V30 10880 C 1448.79 -2.60487 -8.79329 0
M  V30 10881 O 1447.73 -1.82684 -8.4467 0
M  V30 10882 C 1450 -2.10343 -8.03628 0
M  V30 10883 O 1450.74 -1.09919 -8.67766 0
M  V30 10884 C 1449.34 -1.68446 -6.70876 0
M  V30 10885 O 1450.13 -0.678026 -6.08333 0
M  V30 10886 C 1448 -1.17436 -7.18567 0
M  V30 10887 N 1446.96 -1.52699 -6.23988 0
M  V30 10888 C 1447.02 -2.68084 -5.57824 0
M  V30 10889 N 1445.97 -2.8189 -4.75643 0
M  V30 10890 C 1445.24 -1.72373 -4.95155 0
M  V30 10891 C 1443.93 -1.37653 -4.44996 0
M  V30 10892 O 1443.2 -2.02239 -3.68445 0
M  V30 10893 N 1443.5 -0.17675 -4.90782 0
M  V30 10894 C 1444.25 0.645036 -5.78716 0
M  V30 10895 N 1443.65 1.84214 -6.10618 0
M  V30 10896 N 1445.4 0.321732 -6.30279 0
M  V30 10897 C 1445.86 -0.87502 -5.86913 0
M  V30 10898 H 1448.03 -0.0804732 -7.31656 0
M  V30 10899 H 1449.21 -2.53998 -6.02444 0
M  V30 10900 H 1450.7 -2.93095 -7.8582 0
M  V30 10901 H 1449 -2.53065 -9.86973 0
M  V30 10902 H 1448.81 -4.75072 -9.05887 0
M  V30 10903 H 1447.18 -4.05244 -8.76668 0
M  V30 10904 H 1442.61 0.152143 -4.60849 0
M  V30 10905 H 1447.81 -3.41852 -5.69006 0
M  V30 10906 H 1442.74 2.08538 -5.69521 0
M  V30 10907 H 1444.12 2.4895 -6.75698 0
M  V30 10908 H 1449.82 0.177619 -6.34151 0
M  V30 10909 P 1451.68 -1.25109 -8.70152 0
M  V30 10910 O 1453.1 -1.29744 -9.22016 0
M  V30 10911 O 1451.32 -2.13714 -7.55141 0
M  V30 10912 O 1451.36 0.248149 -8.21425 0
M  V30 10913 C 1451.2 1.22779 -9.30434 0
M  V30 10914 C 1451.74 2.56293 -8.80664 0
M  V30 10915 O 1450.68 3.02979 -8.09349 0
M  V30 10916 C 1452.96 2.57523 -7.89775 0
M  V30 10917 O 1453.69 3.7668 -7.89438 0
M  V30 10918 C 1452.29 2.20997 -6.55446 0
M  V30 10919 O 1453.09 2.71895 -5.48509 0
M  V30 10920 C 1450.95 2.89693 -6.67988 0
M  V30 10921 H 1450.98 3.88793 -6.19859 0
M  V30 10922 H 1452.16 1.12046 -6.44229 0
M  V30 10923 H 1453.65 1.7746 -8.19711 0
M  V30 10924 H 1451.95 3.20706 -9.67112 0
M  V30 10925 H 1451.76 0.901032 -10.1892 0
M  V30 10926 H 1450.13 1.33049 -9.56592 0
M  V30 10927 H 1452.77 3.57847 -5.23962 0
M  V30 10928 P 1454.63 3.65191 -7.99657 0
M  V30 10929 O 1456.05 3.89332 -8.45794 0
M  V30 10930 O 1454.27 2.28472 -7.50807 0
M  V30 10931 O 1454.31 4.64972 -6.77611 0
M  V30 10932 C 1454.15 6.06319 -7.16352 0
M  V30 10933 C 1454.69 6.91731 -6.02299 0
M  V30 10934 O 1453.63 6.92449 -5.17064 0
M  V30 10935 C 1455.91 6.43627 -5.25174 0
M  V30 10936 O 1456.64 7.43686 -4.60469 0
M  V30 10937 C 1455.24 5.40275 -4.31916 0
M  V30 10938 O 1456.04 5.25279 -3.14438 0
M  V30 10939 C 1453.9 6.04847 -4.05327 0
M  V30 10940 H 1453.93 6.62195 -3.11261 0
M  V30 10941 H 1455.12 4.42556 -4.81383 0
M  V30 10942 H 1456.6 5.92458 -5.93643 0
M  V30 10943 H 1454.91 7.92655 -6.402 0
M  V30 10944 H 1454.72 6.26671 -8.0846 0
M  V30 10945 H 1453.09 6.29101 -7.32804 0
M  V30 10946 H 1455.72 5.84315 -2.47318 0
M  V30 10947 P 1457.58 7.39546 -4.75277 0
M  V30 10948 O 1459 7.84798 -5.01039 0
M  V30 10949 O 1457.22 5.9812 -5.08098 0
M  V30 10950 O 1457.26 7.57503 -3.1866 0
M  V30 10951 C 1457.1 8.97357 -2.74833 0
M  V30 10952 C 1457.64 9.07548 -1.32709 0
M  V30 10953 O 1456.58 8.62072 -0.606159 0
M  V30 10954 C 1458.86 8.25383 -0.938334 0
M  V30 10955 O 1459.59 8.74577 0.146954 0
M  V30 10956 C 1458.19 6.8802 -0.712559 0
M  V30 10957 O 1458.99 6.1189 0.194655 0
M  V30 10958 C 1456.85 7.27966 -0.139777 0
M  V30 10959 H 1456.88 7.25354 0.961601 0
M  V30 10960 H 1458.07 6.32557 -1.65702 0
M  V30 10961 H 1459.55 8.19355 -1.79097 0
M  V30 10962 H 1457.86 10.1294 -1.10029 0
M  V30 10963 H 1457.67 9.64276 -3.41316 0
M  V30 10964 H 1456.04 9.25417 -2.76357 0
M  V30 10965 H 1458.67 6.25267 1.07847 0
M  V30 10966 P 1460.53 8.791 1.19586e-11 0
M  V30 10967 O 1461.95 9.31196 0.027936 0
M  V30 10968 O 1460.17 7.77869 -1.04071 0
M  V30 10969 O 1460.21 8.09533 1.41463 0
M  V30 10970 C 1460.05 9.03587 2.5397 0
M  V30 10971 C 1460.59 8.35226 3.79016 0
M  V30 10972 O 1459.53 7.57904 4.1503 0
M  V30 10973 C 1461.81 7.45087 3.67298 0
M  V30 10974 O 1462.55 7.27796 4.85194 0
M  V30 10975 C 1461.14 6.17323 3.12027 0
M  V30 10976 O 1461.94 5.04496 3.46627 0
M  V30 10977 C 1459.8 6.19961 3.81809 0
M  V30 10978 N 1458.76 5.71575 2.93223 0
M  V30 10979 C 1458.93 5.77362 1.59168 0
M  V30 10980 N 1457.9 5.3123 0.911893 0
M  V30 10981 C 1457.02 4.91717 1.89588 0
M  V30 10982 C 1455.75 4.3114 1.8076 0
M  V30 10983 N 1455.15 3.99821 0.632928 0
M  V30 10984 N 1455.18 4.06823 3.02898 0
M  V30 10985 C 1455.79 4.35062 4.22711 0
M  V30 10986 N 1456.96 4.90805 4.35707 0
M  V30 10987 C 1457.54 5.16382 3.14469 0
M  V30 10988 H 1459.83 5.58142 4.72986 0
M  V30 10989 H 1461.02 6.21428 2.0318 0
M  V30 10990 H 1462.5 7.86112 2.9231 0
M  V30 10991 H 1460.81 9.11171 4.55987 0
M  V30 10992 H 1460.62 9.9573 2.34194 0
M  V30 10993 H 1458.99 9.2792 2.67832 0
M  V30 10994 H 1455.25 4.09052 5.13359 0
M  V30 10995 H 1459.83 6.16575 1.12198 0
M  V30 10996 H 1454.22 3.55423 0.632085 0
M  V30 10997 H 1455.62 4.20317 -0.256712 0
M  V30 10998 H 1461.63 4.67628 4.28704 0
M  V30 10999 P 1463.48 7.39546 4.75277 0
M  V30 11000 O 1464.9 7.81777 5.05738 0
M  V30 11001 O 1463.12 7.1065 3.32998 0
M  V30 11002 O 1463.16 6.04542 5.56673 0
M  V30 11003 C 1463 6.22772 7.02095 0
M  V30 11004 C 1463.54 4.97725 7.70406 0
M  V30 11005 O 1462.48 4.13256 7.58987 0
M  V30 11006 C 1464.76 4.28231 7.11815 0
M  V30 11007 O 1465.5 3.49945 8.01648 0
M  V30 11008 C 1464.09 3.5063 5.96244 0
M  V30 11009 O 1464.89 2.36482 5.64681 0
M  V30 11010 C 1462.75 3.15122 6.56374 0
M  V30 11011 H 1462.78 2.13853 6.99751 0
M  V30 11012 H 1463.97 4.13501 5.06559 0
M  V30 11013 H 1465.45 5.03285 6.70911 0
M  V30 11014 H 1463.76 5.20877 8.75697 0
M  V30 11015 H 1463.57 7.11046 7.35349 0
M  V30 11016 H 1461.94 6.35815 7.26986 0
M  V30 11017 H 1464.58 1.61644 6.13565 0
M  V30 11018 P 1466.43 3.65191 7.99657 0
M  V30 11019 O 1467.85 3.84292 8.48206 0
M  V30 11020 O 1466.07 4.17805 6.64342 0
M  V30 11021 O 1466.11 2.07613 7.95143 0
M  V30 11022 C 1465.95 1.44344 9.27435 0
M  V30 11023 C 1466.49 0.0220036 9.17197 0
M  V30 11024 O 1465.44 -0.626794 8.61824 0
M  V30 11025 C 1467.71 -0.24586 8.30336 0
M  V30 11026 O 1468.45 -1.39011 8.63583 0
M  V30 11027 C 1467.04 -0.273849 6.91158 0
M  V30 11028 O 1467.84 -1.05728 6.029 0
M  V30 11029 C 1465.7 -0.897649 7.22545 0
M  V30 11030 N 1464.66 -0.292839 6.41732 0
M  V30 11031 C 1464.83 0.950603 5.91308 0
M  V30 11032 N 1463.8 1.37732 5.21105 0
M  V30 11033 C 1462.92 0.318109 5.26039 0
M  V30 11034 C 1461.65 0.146766 4.6727 0
M  V30 11035 N 1461.05 1.08519 3.89983 0
M  V30 11036 N 1461.08 -1.06525 4.95887 0
M  V30 11037 C 1461.69 -2.0378 5.71347 0
M  V30 11038 N 1462.86 -1.92445 6.27451 0
M  V30 11039 C 1463.44 -0.715382 6.00353 0
M  V30 11040 H 1465.73 -1.98383 7.04189 0
M  V30 11041 H 1466.92 0.733318 6.49674 0
M  V30 11042 H 1468.4 0.60668 8.36503 0
M  V30 11043 H 1466.71 -0.362662 10.1825 0
M  V30 11044 H 1466.52 2.00611 10.0304 0
M  V30 11045 H 1464.89 1.41843 9.55327 0
M  V30 11046 H 1461.15 -2.97041 5.85344 0
M  V30 11047 H 1465.73 1.54076 6.07465 0
M  V30 11048 H 1460.12 0.901517 3.49562 0
M  V30 11049 H 1461.52 1.97957 3.71669 0
M  V30 11050 H 1467.53 -1.95704 6.0346 0
M  V30 11051 P 1469.38 -1.25109 8.70152 0
M  V30 11052 O 1470.81 -1.35274 9.21221 0
M  V30 11053 O 1469.02 -0.0769065 7.84762 0
M  V30 11054 O 1469.06 -2.55232 7.81161 0
M  V30 11055 C 1468.9 -3.79939 8.58154 0
M  V30 11056 C 1469.44 -4.94023 7.72785 0
M  V30 11057 O 1468.38 -5.18726 6.91205 0
M  V30 11058 C 1470.66 -4.69597 6.85231 0
M  V30 11059 O 1471.4 -5.83832 6.51337 0
M  V30 11060 C 1469.99 -3.96706 5.66633 0
M  V30 11061 O 1470.79 -4.15414 4.49689 0
M  V30 11062 C 1468.65 -4.66153 5.59313 0
M  V30 11063 H 1468.68 -5.47679 4.85214 0
M  V30 11064 H 1469.87 -2.89008 5.86566 0
M  V30 11065 H 1471.35 -4.0121 7.36511 0
M  V30 11066 H 1469.66 -5.80182 8.37584 0
M  V30 11067 H 1469.47 -3.73517 9.52265 0
M  V30 11068 H 1467.84 -3.97163 8.80359 0
M  V30 11069 H 1470.48 -4.90969 4.01921 0
M  V30 11070 P 1472.33 -5.75688 6.64379 0
M  V30 11071 O 1473.76 -6.11849 7.01846 0
M  V30 11072 O 1471.97 -4.30744 6.56026 0
M  V30 11073 O 1472.01 -6.37042 5.19165 0
M  V30 11074 C 1471.85 -7.83578 5.16515 0
M  V30 11075 C 1472.39 -8.33398 3.83019 0
M  V30 11076 O 1471.34 -8.10074 3.01034 0
M  V30 11077 C 1473.61 -7.65514 3.2257 0
M  V30 11078 O 1474.35 -8.4329 2.32297 0
M  V30 11079 C 1472.94 -6.40075 2.62207 0
M  V30 11080 O 1473.74 -5.92589 1.53712 0
M  V30 11081 C 1471.6 -6.9454 2.18503 0
M  V30 11082 H 1471.64 -7.23063 1.12091 0
M  V30 11083 H 1472.82 -5.6025 3.37201 0
M  V30 11084 H 1474.3 -7.35707 4.02681 0
M  V30 11085 H 1472.61 -9.40912 3.9095 0
M  V30 11086 H 1472.42 -8.29056 5.99158 0
M  V30 11087 H 1470.79 -8.10073 5.25882 0
M  V30 11088 H 1473.43 -6.30324 0.726794 0
M  V30 11089 P 1475.28 -8.4349 2.47671 0
M  V30 11090 O 1476.71 -8.94167 2.5964 0
M  V30 11091 O 1474.92 -7.1704 3.19006 0
M  V30 11092 O 1474.96 -8.16596 0.923387 0
M  V30 11093 C 1474.8 -9.38437 0.108857 0
M  V30 11094 C 1475.34 -9.08175 -1.28353 0
M  V30 11095 O 1474.29 -8.44229 -1.84713 0
M  V30 11096 C 1476.56 -8.18386 -1.42505 0
M  V30 11097 O 1477.3 -8.3501 -2.60497 0
M  V30 11098 C 1475.89 -6.80225 -1.25468 0
M  V30 11099 O 1476.69 -5.81621 -1.91066 0
M  V30 11100 C 1474.55 -7.02416 -1.9168 0
M  V30 11101 H 1474.59 -6.6888 -2.96621 0
M  V30 11102 H 1475.77 -6.53617 -0.192223 0
M  V30 11103 H 1477.25 -8.36622 -0.589963 0
M  V30 11104 H 1475.56 -10.0291 -1.79807 0
M  V30 11105 H 1475.37 -10.2138 0.558219 0
M  V30 11106 H 1473.74 -9.6579 0.0444202 0
M  V30 11107 H 1476.38 -5.69556 -2.79637 0
M  V30 11108 P 1478.24 -8.4349 -2.47671 0
M  V30 11109 O 1479.66 -8.92593 -2.65 0
M  V30 11110 O 1477.88 -7.7568 -1.19296 0
M  V30 11111 O 1477.91 -7.36886 -3.63805 0
M  V30 11112 C 1477.75 -7.95349 -4.982 0
M  V30 11113 C 1478.29 -6.94612 -5.98974 0
M  V30 11114 O 1477.24 -6.10347 -6.11815 0
M  V30 11115 C 1479.51 -6.11426 -5.62335 0
M  V30 11116 O 1480.25 -5.6162 -6.70584 0
M  V30 11117 C 1478.84 -5.04409 -4.73308 0
M  V30 11118 O 1479.64 -3.85992 -4.75183 0
M  V30 11119 C 1477.5 -4.8728 -5.41006 0
M  V30 11120 H 1477.54 -4.02333 -6.11157 0
M  V30 11121 H 1478.72 -5.39466 -3.69543 0
M  V30 11122 H 1480.2 -6.71916 -5.01943 0
M  V30 11123 H 1478.51 -7.4649 -6.93477 0
M  V30 11124 H 1478.32 -8.89416 -5.05237 0
M  V30 11125 H 1476.69 -8.14876 -5.18409 0
M  V30 11126 H 1479.33 -3.27957 -5.4317 0
M  V30 11127 P 1481.19 -5.75688 -6.64379 0
M  V30 11128 O 1482.61 -6.07627 -7.05504 0
M  V30 11129 O 1480.83 -5.88047 -5.19722 0
M  V30 11130 O 1480.86 -4.2322 -7.04443 0
M  V30 11131 C 1480.7 -3.99743 -8.4911 0
M  V30 11132 C 1481.24 -2.60516 -8.79425 0
M  V30 11133 O 1480.19 -1.82684 -8.4467 0
M  V30 11134 C 1482.46 -2.10343 -8.03628 0
M  V30 11135 O 1483.2 -1.09919 -8.67766 0
M  V30 11136 C 1481.79 -1.68446 -6.70876 0
M  V30 11137 O 1482.59 -0.678137 -6.08433 0
M  V30 11138 C 1480.46 -1.17436 -7.18567 0
M  V30 11139 H 1480.49 -0.0804732 -7.31656 0
M  V30 11140 H 1481.67 -2.54037 -6.02537 0
M  V30 11141 H 1483.15 -2.93881 -7.85526 0
M  V30 11142 H 1481.46 -2.53065 -9.86973 0
M  V30 11143 H 1481.27 -4.75072 -9.05887 0
M  V30 11144 H 1479.64 -4.05244 -8.76668 0
M  V30 11145 H 1482.28 0.177647 -6.34251 0
M  V30 11146 P 1484.14 -1.25109 -8.70152 0
M  V30 11147 O 1485.54 -1.3516 -9.26897 0
M  V30 11148 O 1483.76 -2.18141 -7.59181 0
M  V30 11149 O 1483.81 0.248118 -8.21325 0
M  V30 11150 C 1483.65 1.22779 -9.30434 0
M  V30 11151 C 1484.19 2.56265 -8.80568 0
M  V30 11152 O 1483.14 3.02944 -8.09255 0
M  V30 11153 C 1485.41 2.57523 -7.89775 0
M  V30 11154 O 1486.15 3.7668 -7.89438 0
M  V30 11155 C 1484.74 2.20997 -6.55446 0
M  V30 11156 O 1485.54 2.71851 -5.48419 0
M  V30 11157 C 1483.41 2.89693 -6.67988 0
M  V30 11158 N 1482.36 2.08895 -6.07487 0
M  V30 11159 C 1481.33 2.72974 -5.43836 0
M  V30 11160 O 1481.37 3.97779 -5.34036 0
M  V30 11161 N 1480.32 2.0005 -4.91983 0
M  V30 11162 C 1480.36 0.66501 -5.00098 0
M  V30 11163 N 1479.35 -0.0305439 -4.4919 0
M  V30 11164 C 1481.46 -0.0100979 -5.61099 0
M  V30 11165 C 1482.43 0.74189 -6.14236 0
M  V30 11166 H 1483.44 3.8874 -6.19774 0
M  V30 11167 H 1484.62 1.12673 -6.44018 0
M  V30 11168 H 1486.1 1.783 -8.19631 0
M  V30 11169 H 1484.41 3.21673 -9.66791 0
M  V30 11170 H 1484.22 0.901032 -10.1892 0
M  V30 11171 H 1482.59 1.33036 -9.56493 0
M  V30 11172 H 1481.51 -1.09591 -5.64358 0
M  V30 11173 H 1483.27 0.260263 -6.6359 0
M  V30 11174 H 1478.56 0.460194 -4.04793 0
M  V30 11175 H 1479.36 -1.05716 -4.53953 0
M  V30 11176 H 1485.33 3.62759 -5.33442 0
M  V30 11177 P 1487.09 3.65191 -7.99657 0
M  V30 11178 O 1488.51 3.89332 -8.45794 0
M  V30 11179 O 1486.73 2.28472 -7.50807 0
M  V30 11180 O 1486.76 4.64972 -6.77611 0
M  V30 11181 C 1486.6 6.06319 -7.16352 0
M  V30 11182 C 1487.14 6.91731 -6.02299 0
M  V30 11183 O 1486.09 6.92449 -5.17064 0
M  V30 11184 C 1488.36 6.43627 -5.25174 0
M  V30 11185 O 1489.1 7.43686 -4.60469 0
M  V30 11186 C 1487.69 5.40275 -4.31916 0
M  V30 11187 O 1488.49 5.25279 -3.14438 0
M  V30 11188 C 1486.36 6.04847 -4.05327 0
M  V30 11189 H 1486.39 6.62195 -3.11261 0
M  V30 11190 H 1487.57 4.42556 -4.81383 0
M  V30 11191 H 1489.06 5.92458 -5.93643 0
M  V30 11192 H 1487.36 7.92655 -6.402 0
M  V30 11193 H 1487.17 6.26671 -8.0846 0
M  V30 11194 H 1485.54 6.29101 -7.32804 0
M  V30 11195 H 1488.18 5.84315 -2.47318 0
M  V30 11196 P 1490.04 7.39546 -4.75277 0
M  V30 11197 O 1491.44 7.86988 -5.07993 0
M  V30 11198 O 1489.66 5.99957 -5.13804 0
M  V30 11199 O 1489.71 7.57411 -3.18621 0
M  V30 11200 C 1489.55 8.97357 -2.74833 0
M  V30 11201 C 1490.09 9.0745 -1.32694 0
M  V30 11202 O 1489.04 8.61972 -0.606089 0
M  V30 11203 C 1491.31 8.25383 -0.938334 0
M  V30 11204 O 1492.05 8.74577 0.146954 0
M  V30 11205 C 1490.64 6.8802 -0.712559 0
M  V30 11206 O 1491.44 6.11791 0.194623 0
M  V30 11207 C 1489.31 7.27966 -0.139777 0
M  V30 11208 N 1488.26 6.39368 -0.623421 0
M  V30 11209 C 1487.23 6.08088 0.223886 0
M  V30 11210 O 1487.27 6.5102 1.39986 0
M  V30 11211 N 1486.22 5.30627 -0.224051 0
M  V30 11212 C 1486.26 4.82531 -1.47257 0
M  V30 11213 N 1485.25 4.07328 -1.89378 0
M  V30 11214 C 1487.36 5.09974 -2.34008 0
M  V30 11215 C 1488.33 5.89548 -1.87678 0
M  V30 11216 H 1489.34 7.25255 0.961469 0
M  V30 11217 H 1490.52 6.32625 -1.65044 0
M  V30 11218 H 1492.01 8.19631 -1.78299 0
M  V30 11219 H 1490.31 10.1305 -1.09016 0
M  V30 11220 H 1490.12 9.64276 -3.41316 0
M  V30 11221 H 1488.49 9.25321 -2.76328 0
M  V30 11222 H 1487.41 4.67832 -3.3413 0
M  V30 11223 H 1489.17 6.14434 -2.51991 0
M  V30 11224 H 1484.46 3.87329 -1.26296 0
M  V30 11225 H 1485.26 3.69014 -2.84741 0
M  V30 11226 H 1491.23 6.35931 1.08377 0
M  V30 11227 P 1492.99 8.791 1.22688e-11 0
M  V30 11228 O 1494.41 9.31096 0.027933 0
M  V30 11229 O 1492.63 7.77869 -1.04071 0
M  V30 11230 O 1492.67 8.09533 1.41463 0
M  V30 11231 C 1492.51 9.0349 2.53943 0
M  V30 11232 C 1493.05 8.35226 3.79016 0
M  V30 11233 O 1491.99 7.57992 4.15078 0
M  V30 11234 C 1494.26 7.45087 3.67298 0
M  V30 11235 O 1495 7.27796 4.85194 0
M  V30 11236 C 1493.59 6.17323 3.12027 0
M  V30 11237 O 1494.39 5.04231 3.47188 0
M  V30 11238 C 1492.26 6.19961 3.81809 0
M  V30 11239 H 1492.29 5.58218 4.73051 0
M  V30 11240 H 1493.47 6.21726 2.02589 0
M  V30 11241 H 1494.96 7.86112 2.9231 0
M  V30 11242 H 1493.26 9.11627 4.55076 0
M  V30 11243 H 1493.07 9.9573 2.34194 0
M  V30 11244 H 1491.44 9.2792 2.67832 0
M  V30 11245 H 1494.08 4.67702 4.28772 0
M  V30 11246 P 1495.94 7.39546 4.75277 0
M  V30 11247 O 1497.36 7.81861 5.05793 0
M  V30 11248 O 1495.58 7.1065 3.32998 0
M  V30 11249 O 1495.62 6.04542 5.56673 0
M  V30 11250 C 1495.45 6.22839 7.02169 0
M  V30 11251 C 1496 4.97725 7.70406 0
M  V30 11252 O 1494.94 4.13208 7.58899 0
M  V30 11253 C 1497.21 4.28231 7.11815 0
M  V30 11254 O 1497.95 3.49945 8.01648 0
M  V30 11255 C 1496.55 3.5063 5.96244 0
M  V30 11256 O 1497.34 2.37008 5.64352 0
M  V30 11257 C 1495.21 3.15122 6.56374 0
M  V30 11258 N 1494.16 3.22311 5.55692 0
M  V30 11259 C 1494.33 3.99655 4.46046 0
M  V30 11260 N 1493.31 3.97599 3.63918 0
M  V30 11261 C 1492.42 3.11159 4.25334 0
M  V30 11262 C 1491.15 2.64972 3.85157 0
M  V30 11263 N 1490.59 1.78482 4.74759 0
M  V30 11264 C 1491.19 1.37463 5.90819 0
M  V30 11265 N 1492.37 1.7733 6.31889 0
M  V30 11266 C 1492.94 2.64393 5.43725 0
M  V30 11267 H 1496.42 4.12931 5.06895 0
M  V30 11268 H 1497.91 5.03285 6.70911 0
M  V30 11269 H 1496.21 5.20001 8.76217 0
M  V30 11270 H 1496.02 7.11046 7.35349 0
M  V30 11271 H 1494.39 6.35815 7.26986 0
M  V30 11272 H 1495.23 4.58037 4.27732 0
M  V30 11273 H 1497.03 1.61619 6.13468 0
M  V30 11274 P 1498.89 3.65191 7.99657 0
M  V30 11275 O 1500.29 3.90823 8.51272 0
M  V30 11276 O 1498.51 4.23191 6.66972 0
M  V30 11277 O 1498.57 2.07587 7.95046 0
M  V30 11278 C 1498.41 1.44328 9.27336 0
M  V30 11279 C 1498.95 0.0220012 9.17097 0
M  V30 11280 O 1497.89 -0.626794 8.61824 0
M  V30 11281 C 1500.16 -0.24586 8.30336 0
M  V30 11282 O 1500.9 -1.39011 8.63583 0
M  V30 11283 C 1499.5 -0.273849 6.91158 0
M  V30 11284 O 1500.29 -1.06331 6.02794 0
M  V30 11285 C 1498.16 -0.897649 7.22545 0
M  V30 11286 N 1497.12 -0.292839 6.41732 0
M  V30 11287 C 1496.08 -1.08701 5.98712 0
M  V30 11288 O 1496.12 -2.31211 6.24471 0
M  V30 11289 N 1495.07 -0.533391 5.28415 0
M  V30 11290 C 1495.12 0.770866 4.98576 0
M  V30 11291 N 1494.11 1.29482 4.30134 0
M  V30 11292 C 1496.21 1.59049 5.38086 0
M  V30 11293 C 1497.18 1.01866 6.10256 0
M  V30 11294 H 1498.19 -1.98383 7.04189 0
M  V30 11295 H 1499.37 0.733318 6.49674 0
M  V30 11296 H 1500.86 0.598386 8.36663 0
M  V30 11297 H 1499.16 -0.362662 10.1825 0
M  V30 11298 H 1498.97 2.00611 10.0304 0
M  V30 11299 H 1497.34 1.41828 9.55228 0
M  V30 11300 H 1496.26 2.6415 5.10622 0
M  V30 11301 H 1498.02 1.61983 6.44042 0
M  V30 11302 H 1493.32 0.69888 4.01361 0
M  V30 11303 H 1494.11 2.29327 4.05781 0
M  V30 11304 H 1500.08 -1.97777 6.14035 0
M  V30 11305 P 1501.84 -1.25109 8.70152 0
M  V30 11306 O 1503.26 -1.35274 9.21221 0
M  V30 11307 O 1501.48 -0.0769065 7.84762 0
M  V30 11308 O 1501.52 -2.55232 7.81161 0
M  V30 11309 C 1501.36 -3.79939 8.58154 0
M  V30 11310 C 1501.9 -4.94023 7.72785 0
M  V30 11311 O 1500.84 -5.18726 6.91205 0
M  V30 11312 C 1503.12 -4.69597 6.85231 0
M  V30 11313 O 1503.85 -5.83832 6.51337 0
M  V30 11314 C 1502.45 -3.96706 5.66633 0
M  V30 11315 O 1503.25 -4.15414 4.49689 0
M  V30 11316 C 1501.11 -4.66153 5.59313 0
M  V30 11317 H 1501.14 -5.47679 4.85214 0
M  V30 11318 H 1502.32 -2.89008 5.86566 0
M  V30 11319 H 1503.81 -4.0121 7.36511 0
M  V30 11320 H 1502.11 -5.80182 8.37584 0
M  V30 11321 H 1501.92 -3.73517 9.52265 0
M  V30 11322 H 1500.29 -3.97163 8.80359 0
M  V30 11323 H 1502.93 -4.90969 4.01921 0
M  V30 11324 P 1504.79 -5.75688 6.64379 0
M  V30 11325 O 1506.21 -6.11981 7.01997 0
M  V30 11326 O 1504.43 -4.30744 6.56026 0
M  V30 11327 O 1504.47 -6.37042 5.19165 0
M  V30 11328 C 1504.31 -7.83578 5.16515 0
M  V30 11329 C 1504.85 -8.33307 3.82977 0
M  V30 11330 O 1503.79 -8.10074 3.01034 0
M  V30 11331 C 1506.07 -7.65514 3.2257 0
M  V30 11332 O 1506.8 -8.4329 2.32297 0
M  V30 11333 C 1505.4 -6.40075 2.62207 0
M  V30 11334 O 1506.2 -5.92492 1.53687 0
M  V30 11335 C 1504.06 -6.9454 2.18503 0
M  V30 11336 N 1503.02 -5.95905 2.39948 0
M  V30 11337 C 1503.08 -5.13994 3.44742 0
M  V30 11338 N 1502.03 -4.30684 3.46712 0
M  V30 11339 C 1501.3 -4.65583 2.41086 0
M  V30 11340 C 1499.99 -4.20877 1.99581 0
M  V30 11341 O 1499.26 -3.35913 2.52616 0
M  V30 11342 N 1499.56 -4.83271 0.873406 0
M  V30 11343 C 1500.31 -5.82006 0.185129 0
M  V30 11344 N 1499.72 -6.30619 -0.95439 0
M  V30 11345 N 1501.47 -6.28443 0.578524 0
M  V30 11346 C 1501.92 -5.68486 1.70138 0
M  V30 11347 H 1504.09 -7.23063 1.12091 0
M  V30 11348 H 1505.27 -5.60165 3.3715 0
M  V30 11349 H 1506.76 -7.3611 4.01946 0
M  V30 11350 H 1505.06 -9.40912 3.9095 0
M  V30 11351 H 1504.87 -8.29056 5.99158 0
M  V30 11352 H 1503.24 -8.10073 5.25882 0
M  V30 11353 H 1498.67 -4.58323 0.505262 0
M  V30 11354 H 1503.87 -5.14564 4.1935 0
M  V30 11355 H 1498.8 -5.93402 -1.25364 0
M  V30 11356 H 1500.18 -7.0425 -1.50254 0
M  V30 11357 H 1505.88 -6.30224 0.72668 0
M  V30 11358 P 1507.74 -8.4349 2.47671 0
M  V30 11359 O 1509.16 -8.94263 2.59668 0
M  V30 11360 O 1507.38 -7.1704 3.19006 0
M  V30 11361 O 1507.42 -8.16596 0.923387 0
M  V30 11362 C 1507.26 -9.38537 0.108869 0
M  V30 11363 C 1507.8 -9.08175 -1.28353 0
M  V30 11364 O 1506.74 -8.44131 -1.84692 0
M  V30 11365 C 1509.02 -8.18386 -1.42505 0
M  V30 11366 O 1509.75 -8.3501 -2.60497 0
M  V30 11367 C 1508.35 -6.80225 -1.25468 0
M  V30 11368 O 1509.15 -5.81716 -1.90454 0
M  V30 11369 C 1507.01 -7.02416 -1.9168 0
M  V30 11370 N 1505.97 -6.31033 -1.20314 0
M  V30 11371 C 1506.14 -5.98817 0.0994088 0
M  V30 11372 N 1505.11 -5.35403 0.621694 0
M  V30 11373 C 1504.22 -5.25212 -0.43376 0
M  V30 11374 C 1502.96 -4.64602 -0.519722 0
M  V30 11375 N 1502.36 -4.01457 0.519136 0
M  V30 11376 N 1502.39 -4.7568 -1.76013 0
M  V30 11377 C 1502.99 -5.3653 -2.83017 0
M  V30 11378 N 1504.17 -5.93676 -2.79782 0
M  V30 11379 C 1504.75 -5.84061 -1.56249 0
M  V30 11380 H 1507.04 -6.68789 -2.9658 0
M  V30 11381 H 1508.23 -6.53498 -0.198729 0
M  V30 11382 H 1509.71 -8.36622 -0.589963 0
M  V30 11383 H 1508.01 -10.0273 -1.8081 0
M  V30 11384 H 1507.82 -10.2138 0.558219 0
M  V30 11385 H 1506.19 -9.6579 0.0444202 0
M  V30 11386 H 1502.46 -5.37113 -3.77321 0
M  V30 11387 H 1507.04 -6.23209 0.660562 0
M  V30 11388 H 1501.43 -3.58834 0.394862 0
M  V30 11389 H 1502.83 -3.96059 1.43048 0
M  V30 11390 H 1508.83 -5.69466 -2.79593 0
M  V30 11391 P 1510.69 -8.4349 -2.47671 0
M  V30 11392 O 1512.11 -8.92689 -2.65029 0
M  V30 11393 O 1510.33 -7.7568 -1.19296 0
M  V30 11394 O 1510.37 -7.36886 -3.63805 0
M  V30 11395 C 1510.21 -7.95433 -4.98253 0
M  V30 11396 C 1510.75 -6.94612 -5.98974 0
M  V30 11397 O 1509.69 -6.10277 -6.11744 0
M  V30 11398 C 1511.97 -6.11426 -5.62335 0
M  V30 11399 O 1512.7 -5.6162 -6.70584 0
M  V30 11400 C 1511.3 -5.04409 -4.73308 0
M  V30 11401 O 1512.1 -3.86404 -4.74719 0
M  V30 11402 C 1509.96 -4.8728 -5.41006 0
M  V30 11403 N 1508.92 -4.65812 -4.42377 0
M  V30 11404 C 1509.09 -5.09132 -3.15382 0
M  V30 11405 N 1508.06 -4.84021 -2.3716 0
M  V30 11406 C 1507.17 -4.18386 -3.20441 0
M  V30 11407 C 1505.91 -3.6275 -2.94905 0
M  V30 11408 N 1505.31 -3.65794 -1.73372 0
M  V30 11409 N 1505.34 -3.05008 -4.05243 0
M  V30 11410 C 1505.94 -2.98348 -5.28159 0
M  V30 11411 N 1507.12 -3.48171 -5.56333 0
M  V30 11412 C 1507.7 -4.06869 -4.47212 0
M  V30 11413 H 1509.99 -4.02278 -6.11074 0
M  V30 11414 H 1511.18 -5.39013 -3.70026 0
M  V30 11415 H 1512.66 -6.71916 -5.01943 0
M  V30 11416 H 1510.96 -7.45796 -6.94223 0
M  V30 11417 H 1510.77 -8.89416 -5.05237 0
M  V30 11418 H 1509.14 -8.14876 -5.18409 0
M  V30 11419 H 1505.41 -2.47853 -6.07807 0
M  V30 11420 H 1509.99 -5.59989 -2.81362 0
M  V30 11421 H 1504.38 -3.23218 -1.60782 0
M  V30 11422 H 1505.78 -4.10523 -0.937856 0
M  V30 11423 H 1511.78 -3.27906 -5.43085 0
M  V30 11424 P 1513.64 -5.75688 -6.64379 0
M  V30 11425 O 1515.06 -6.07627 -7.05504 0
M  V30 11426 O 1513.28 -5.88047 -5.19722 0
M  V30 11427 O 1513.32 -4.2322 -7.04443 0
M  V30 11428 C 1513.16 -3.99743 -8.4911 0
M  V30 11429 C 1513.7 -2.60516 -8.79425 0
M  V30 11430 O 1512.64 -1.82684 -8.4467 0
M  V30 11431 C 1514.92 -2.10343 -8.03628 0
M  V30 11432 O 1515.66 -1.09919 -8.67766 0
M  V30 11433 C 1514.25 -1.68446 -6.70876 0
M  V30 11434 O 1515.05 -0.678137 -6.08433 0
M  V30 11435 C 1512.91 -1.17436 -7.18567 0
M  V30 11436 H 1512.94 -0.0804732 -7.31656 0
M  V30 11437 H 1514.13 -2.54037 -6.02537 0
M  V30 11438 H 1515.61 -2.93881 -7.85526 0
M  V30 11439 H 1513.92 -2.53065 -9.86973 0
M  V30 11440 H 1513.73 -4.75072 -9.05887 0
M  V30 11441 H 1512.1 -4.05244 -8.76668 0
M  V30 11442 H 1514.74 0.177647 -6.34251 0
M  V30 11443 P 1516.59 -1.25109 -8.70152 0
M  V30 11444 O 1518.01 -1.29758 -9.22115 0
M  V30 11445 O 1516.23 -2.13714 -7.55141 0
M  V30 11446 O 1516.27 0.248149 -8.21425 0
M  V30 11447 C 1516.11 1.22792 -9.30533 0
M  V30 11448 C 1516.65 2.56293 -8.80664 0
M  V30 11449 O 1515.59 3.02944 -8.09255 0
M  V30 11450 C 1517.87 2.57523 -7.89775 0
M  V30 11451 O 1518.61 3.7668 -7.89438 0
M  V30 11452 C 1517.2 2.20997 -6.55446 0
M  V30 11453 O 1518 2.71302 -5.48691 0
M  V30 11454 C 1515.86 2.89693 -6.67988 0
M  V30 11455 N 1514.82 2.08895 -6.07487 0
M  V30 11456 C 1514.99 0.753809 -5.94137 0
M  V30 11457 N 1513.96 0.146592 -5.38801 0
M  V30 11458 C 1513.08 1.1768 -5.13693 0
M  V30 11459 C 1511.81 1.17563 -4.52477 0
M  V30 11460 N 1511.24 2.41918 -4.45789 0
M  V30 11461 C 1511.85 3.56493 -4.90792 0
M  V30 11462 N 1513.02 3.61423 -5.47817 0
M  V30 11463 C 1513.6 2.37779 -5.5588 0
M  V30 11464 H 1517.08 1.12673 -6.44018 0
M  V30 11465 H 1518.56 1.7746 -8.19711 0
M  V30 11466 H 1516.87 3.21673 -9.66791 0
M  V30 11467 H 1516.68 0.901032 -10.1892 0
M  V30 11468 H 1515.05 1.33049 -9.56592 0
M  V30 11469 H 1515.89 0.233081 -6.26266 0
M  V30 11470 H 1517.69 3.5779 -5.23879 0
M  V30 11471 P 1519.54 3.65191 -7.99657 0
M  V30 11472 O 1520.97 3.89332 -8.45794 0
M  V30 11473 O 1519.18 2.28472 -7.50807 0
M  V30 11474 O 1519.22 4.64972 -6.77611 0
M  V30 11475 C 1519.06 6.06319 -7.16352 0
M  V30 11476 C 1519.6 6.91731 -6.02299 0
M  V30 11477 O 1518.54 6.92449 -5.17064 0
M  V30 11478 C 1520.82 6.43627 -5.25174 0
M  V30 11479 O 1521.56 7.43686 -4.60469 0
M  V30 11480 C 1520.15 5.40275 -4.31916 0
M  V30 11481 O 1520.95 5.25279 -3.14438 0
M  V30 11482 C 1518.81 6.04847 -4.05327 0
M  V30 11483 H 1518.84 6.62195 -3.11261 0
M  V30 11484 H 1520.03 4.42556 -4.81383 0
M  V30 11485 H 1521.51 5.92458 -5.93643 0
M  V30 11486 H 1519.82 7.92655 -6.402 0
M  V30 11487 H 1519.63 6.26671 -8.0846 0
M  V30 11488 H 1518 6.29101 -7.32804 0
M  V30 11489 H 1520.64 5.84315 -2.47318 0
M  V30 11490 P 1522.49 7.39546 -4.75277 0
M  V30 11491 O 1523.92 7.84798 -5.01039 0
M  V30 11492 O 1522.13 5.9812 -5.08098 0
M  V30 11493 O 1522.17 7.57503 -3.1866 0
M  V30 11494 C 1522.01 8.97357 -2.74833 0
M  V30 11495 C 1522.55 9.07548 -1.32709 0
M  V30 11496 O 1521.5 8.62072 -0.606159 0
M  V30 11497 C 1523.77 8.25383 -0.938334 0
M  V30 11498 O 1524.51 8.74577 0.146954 0
M  V30 11499 C 1523.1 6.8802 -0.712559 0
M  V30 11500 O 1523.9 6.1189 0.194655 0
M  V30 11501 C 1521.76 7.27966 -0.139777 0
M  V30 11502 H 1521.8 7.25354 0.961601 0
M  V30 11503 H 1522.98 6.32557 -1.65702 0
M  V30 11504 H 1524.46 8.19355 -1.79097 0
M  V30 11505 H 1522.77 10.1294 -1.10029 0
M  V30 11506 H 1522.58 9.64276 -3.41316 0
M  V30 11507 H 1520.95 9.25417 -2.76357 0
M  V30 11508 H 1523.59 6.25267 1.07847 0
M  V30 11509 P 1525.44 8.791 1.2579e-11 0
M  V30 11510 O 1526.87 9.31096 0.027933 0
M  V30 11511 O 1525.08 7.77869 -1.04071 0
M  V30 11512 O 1525.12 8.09533 1.41463 0
M  V30 11513 C 1524.96 9.0349 2.53943 0
M  V30 11514 C 1525.5 8.35226 3.79016 0
M  V30 11515 O 1524.45 7.57992 4.15078 0
M  V30 11516 C 1526.72 7.45087 3.67298 0
M  V30 11517 O 1527.46 7.27796 4.85194 0
M  V30 11518 C 1526.05 6.17323 3.12027 0
M  V30 11519 O 1526.85 5.04231 3.47188 0
M  V30 11520 C 1524.71 6.19961 3.81809 0
M  V30 11521 H 1524.75 5.58218 4.73051 0
M  V30 11522 H 1525.93 6.21726 2.02589 0
M  V30 11523 H 1527.41 7.86112 2.9231 0
M  V30 11524 H 1525.72 9.11627 4.55076 0
M  V30 11525 H 1525.53 9.9573 2.34194 0
M  V30 11526 H 1523.9 9.2792 2.67832 0
M  V30 11527 H 1526.54 4.67702 4.28772 0
M  V30 11528 P 1528.4 7.39546 4.75277 0
M  V30 11529 O 1529.82 7.81777 5.05738 0
M  V30 11530 O 1528.04 7.1065 3.32998 0
M  V30 11531 O 1528.07 6.04542 5.56673 0
M  V30 11532 C 1527.91 6.22772 7.02095 0
M  V30 11533 C 1528.45 4.97725 7.70406 0
M  V30 11534 O 1527.4 4.13256 7.58987 0
M  V30 11535 C 1529.67 4.28231 7.11815 0
M  V30 11536 O 1530.41 3.49945 8.01648 0
M  V30 11537 C 1529 3.5063 5.96244 0
M  V30 11538 O 1529.8 2.36482 5.64681 0
M  V30 11539 C 1527.66 3.15122 6.56374 0
M  V30 11540 H 1527.7 2.13853 6.99751 0
M  V30 11541 H 1528.88 4.13501 5.06559 0
M  V30 11542 H 1530.36 5.03285 6.70911 0
M  V30 11543 H 1528.67 5.20877 8.75697 0
M  V30 11544 H 1528.48 7.11046 7.35349 0
M  V30 11545 H 1526.85 6.35815 7.26986 0
M  V30 11546 H 1529.49 1.61644 6.13565 0
M  V30 11547 P 1531.35 3.65191 7.99657 0
M  V30 11548 O 1532.77 3.8425 8.48115 0
M  V30 11549 O 1530.99 4.17805 6.64342 0
M  V30 11550 O 1531.02 2.07613 7.95143 0
M  V30 11551 C 1530.86 1.44328 9.27336 0
M  V30 11552 C 1531.4 0.0220036 9.17197 0
M  V30 11553 O 1530.35 -0.626867 8.61923 0
M  V30 11554 C 1532.62 -0.24586 8.30336 0
M  V30 11555 O 1533.36 -1.39011 8.63583 0
M  V30 11556 C 1531.95 -0.273849 6.91158 0
M  V30 11557 O 1532.75 -1.06348 6.02892 0
M  V30 11558 C 1530.61 -0.897649 7.22545 0
M  V30 11559 H 1530.65 -1.9841 7.04286 0
M  V30 11560 H 1531.83 0.739928 6.497 0
M  V30 11561 H 1533.31 0.60668 8.36503 0
M  V30 11562 H 1531.62 -0.352479 10.1829 0
M  V30 11563 H 1531.43 2.00611 10.0304 0
M  V30 11564 H 1529.8 1.41843 9.55327 0
M  V30 11565 H 1532.44 -1.95734 6.03555 0
M  V30 11566 P 1534.3 -1.25109 8.70152 0
M  V30 11567 O 1535.72 -1.35274 9.21221 0
M  V30 11568 O 1533.94 -0.0769065 7.84762 0
M  V30 11569 O 1533.97 -2.55232 7.81161 0
M  V30 11570 C 1533.81 -3.79939 8.58154 0
M  V30 11571 C 1534.35 -4.94023 7.72785 0
M  V30 11572 O 1533.3 -5.18726 6.91205 0
M  V30 11573 C 1535.57 -4.69597 6.85231 0
M  V30 11574 O 1536.31 -5.83832 6.51337 0
M  V30 11575 C 1534.9 -3.96706 5.66633 0
M  V30 11576 O 1535.7 -4.15414 4.49689 0
M  V30 11577 C 1533.57 -4.66153 5.59313 0
M  V30 11578 H 1533.6 -5.47679 4.85214 0
M  V30 11579 H 1534.78 -2.89008 5.86566 0
M  V30 11580 H 1536.26 -4.0121 7.36511 0
M  V30 11581 H 1534.57 -5.80182 8.37584 0
M  V30 11582 H 1534.38 -3.73517 9.52265 0
M  V30 11583 H 1532.75 -3.97163 8.80359 0
M  V30 11584 H 1535.39 -4.90969 4.01921 0
M  V30 11585 P 1537.25 -5.75688 6.64379 0
M  V30 11586 O 1538.67 -6.11849 7.01846 0
M  V30 11587 O 1536.89 -4.30744 6.56026 0
M  V30 11588 O 1536.92 -6.37042 5.19165 0
M  V30 11589 C 1536.76 -7.83578 5.16515 0
M  V30 11590 C 1537.3 -8.33398 3.83019 0
M  V30 11591 O 1536.25 -8.10074 3.01034 0
M  V30 11592 C 1538.52 -7.65514 3.2257 0
M  V30 11593 O 1539.26 -8.4329 2.32297 0
M  V30 11594 C 1537.85 -6.40075 2.62207 0
M  V30 11595 O 1538.65 -5.92589 1.53712 0
M  V30 11596 C 1536.52 -6.9454 2.18503 0
M  V30 11597 H 1536.55 -7.23063 1.12091 0
M  V30 11598 H 1537.73 -5.6025 3.37201 0
M  V30 11599 H 1539.21 -7.35707 4.02681 0
M  V30 11600 H 1537.52 -9.40912 3.9095 0
M  V30 11601 H 1537.33 -8.29056 5.99158 0
M  V30 11602 H 1535.7 -8.10073 5.25882 0
M  V30 11603 H 1538.34 -6.30324 0.726794 0
M  V30 11604 P 1540.2 -8.4349 2.47671 0
M  V30 11605 O 1541.62 -8.94167 2.5964 0
M  V30 11606 O 1539.84 -7.1704 3.19006 0
M  V30 11607 O 1539.87 -8.16596 0.923387 0
M  V30 11608 C 1539.71 -9.38437 0.108857 0
M  V30 11609 C 1540.25 -9.08175 -1.28353 0
M  V30 11610 O 1539.2 -8.44229 -1.84713 0
M  V30 11611 C 1541.47 -8.18386 -1.42505 0
M  V30 11612 O 1542.21 -8.3501 -2.60497 0
M  V30 11613 C 1540.8 -6.80225 -1.25468 0
M  V30 11614 O 1541.6 -5.81621 -1.91066 0
M  V30 11615 C 1539.47 -7.02416 -1.9168 0
M  V30 11616 H 1539.5 -6.6888 -2.96621 0
M  V30 11617 H 1540.68 -6.53617 -0.192223 0
M  V30 11618 H 1542.17 -8.36622 -0.589963 0
M  V30 11619 H 1540.47 -10.0291 -1.79807 0
M  V30 11620 H 1540.28 -10.2138 0.558219 0
M  V30 11621 H 1538.65 -9.6579 0.0444202 0
M  V30 11622 H 1541.29 -5.69556 -2.79637 0
M  V30 11623 P 1543.15 -8.4349 -2.47671 0
M  V30 11624 O 1544.57 -8.92593 -2.65 0
M  V30 11625 O 1542.79 -7.7568 -1.19296 0
M  V30 11626 O 1542.83 -7.36886 -3.63805 0
M  V30 11627 C 1542.67 -7.95349 -4.982 0
M  V30 11628 C 1543.21 -6.94612 -5.98974 0
M  V30 11629 O 1542.15 -6.10347 -6.11815 0
M  V30 11630 C 1544.42 -6.11426 -5.62335 0
M  V30 11631 O 1545.16 -5.6162 -6.70584 0
M  V30 11632 C 1543.75 -5.04409 -4.73308 0
M  V30 11633 O 1544.55 -3.85992 -4.75183 0
M  V30 11634 C 1542.42 -4.8728 -5.41006 0
M  V30 11635 H 1542.45 -4.02333 -6.11157 0
M  V30 11636 H 1543.63 -5.39466 -3.69543 0
M  V30 11637 H 1545.12 -6.71916 -5.01943 0
M  V30 11638 H 1543.42 -7.4649 -6.93477 0
M  V30 11639 H 1543.23 -8.89416 -5.05237 0
M  V30 11640 H 1541.6 -8.14876 -5.18409 0
M  V30 11641 H 1544.24 -3.27957 -5.4317 0
M  V30 11642 P 1546.1 -5.75688 -6.64379 0
M  V30 11643 O 1547.52 -6.07627 -7.05504 0
M  V30 11644 O 1545.74 -5.88047 -5.19722 0
M  V30 11645 O 1545.78 -4.2322 -7.04443 0
M  V30 11646 C 1545.62 -3.99743 -8.4911 0
M  V30 11647 C 1546.16 -2.60516 -8.79425 0
M  V30 11648 O 1545.1 -1.82684 -8.4467 0
M  V30 11649 C 1547.37 -2.10343 -8.03628 0
M  V30 11650 O 1548.11 -1.09919 -8.67766 0
M  V30 11651 C 1546.7 -1.68446 -6.70876 0
M  V30 11652 O 1547.5 -0.678137 -6.08433 0
M  V30 11653 C 1545.37 -1.17436 -7.18567 0
M  V30 11654 H 1545.4 -0.0804732 -7.31656 0
M  V30 11655 H 1546.58 -2.54037 -6.02537 0
M  V30 11656 H 1548.07 -2.93881 -7.85526 0
M  V30 11657 H 1546.37 -2.53065 -9.86973 0
M  V30 11658 H 1546.18 -4.75072 -9.05887 0
M  V30 11659 H 1544.55 -4.05244 -8.76668 0
M  V30 11660 H 1547.19 0.177647 -6.34251 0
M  V30 11661 P 1549.05 -1.25109 -8.70152 0
M  V30 11662 O 1550.47 -1.29744 -9.22016 0
M  V30 11663 O 1548.69 -2.13714 -7.55141 0
M  V30 11664 O 1548.73 0.248149 -8.21425 0
M  V30 11665 C 1548.57 1.22779 -9.30434 0
M  V30 11666 C 1549.11 2.56293 -8.80664 0
M  V30 11667 O 1548.05 3.02979 -8.09349 0
M  V30 11668 C 1550.32 2.57523 -7.89775 0
M  V30 11669 O 1551.06 3.7668 -7.89438 0
M  V30 11670 C 1549.66 2.20997 -6.55446 0
M  V30 11671 O 1550.45 2.71895 -5.48509 0
M  V30 11672 C 1548.32 2.89693 -6.67988 0
M  V30 11673 H 1548.35 3.88793 -6.19859 0
M  V30 11674 H 1549.53 1.12046 -6.44229 0
M  V30 11675 H 1551.02 1.7746 -8.19711 0
M  V30 11676 H 1549.32 3.20706 -9.67112 0
M  V30 11677 H 1549.13 0.901032 -10.1892 0
M  V30 11678 H 1547.5 1.33049 -9.56592 0
M  V30 11679 H 1550.14 3.57847 -5.23962 0
M  V30 11680 P 1552 3.65191 -7.99657 0
M  V30 11681 O 1553.42 3.89374 -8.45885 0
M  V30 11682 O 1551.64 2.28472 -7.50807 0
M  V30 11683 O 1551.68 4.64972 -6.77611 0
M  V30 11684 C 1551.52 6.06383 -7.16428 0
M  V30 11685 C 1552.06 6.91731 -6.02299 0
M  V30 11686 O 1551 6.92369 -5.17005 0
M  V30 11687 C 1553.27 6.43627 -5.25174 0
M  V30 11688 O 1554.01 7.43686 -4.60469 0
M  V30 11689 C 1552.61 5.40275 -4.31916 0
M  V30 11690 O 1553.4 5.24878 -3.14911 0
M  V30 11691 C 1551.27 6.04847 -4.05327 0
M  V30 11692 N 1550.23 5.04166 -3.98114 0
M  V30 11693 C 1550.39 3.84629 -4.59066 0
M  V30 11694 N 1549.37 3.0363 -4.45343 0
M  V30 11695 C 1548.48 3.76722 -3.68523 0
M  V30 11696 C 1547.22 3.43528 -3.17088 0
M  V30 11697 N 1546.62 2.23665 -3.37397 0
M  V30 11698 N 1546.65 4.44526 -2.44231 0
M  V30 11699 C 1547.25 5.65243 -2.20146 0
M  V30 11700 N 1548.43 6.00221 -2.65453 0
M  V30 11701 C 1549 5.00564 -3.39083 0
M  V30 11702 H 1551.3 6.62104 -3.11218 0
M  V30 11703 H 1552.48 4.42969 -4.80867 0
M  V30 11704 H 1553.97 5.92458 -5.93643 0
M  V30 11705 H 1552.27 7.93295 -6.39407 0
M  V30 11706 H 1552.08 6.26671 -8.0846 0
M  V30 11707 H 1550.45 6.29101 -7.32804 0
M  V30 11708 H 1546.72 6.36894 -1.5883 0
M  V30 11709 H 1551.29 3.58193 -5.14248 0
M  V30 11710 H 1545.69 2.05145 -2.97047 0
M  V30 11711 H 1547.09 1.51255 -3.92998 0
M  V30 11712 H 1553.09 5.84223 -2.47279 0
M  V30 11713 P 1554.95 7.39546 -4.75277 0
M  V30 11714 O 1556.37 7.84798 -5.01039 0
M  V30 11715 O 1554.59 5.9812 -5.08098 0
M  V30 11716 O 1554.63 7.57503 -3.1866 0
M  V30 11717 C 1554.47 8.97357 -2.74833 0
M  V30 11718 C 1555.01 9.07548 -1.32709 0
M  V30 11719 O 1553.95 8.62072 -0.606159 0
M  V30 11720 C 1556.23 8.25383 -0.938334 0
M  V30 11721 O 1556.96 8.74577 0.146954 0
M  V30 11722 C 1555.56 6.8802 -0.712559 0
M  V30 11723 O 1556.36 6.1189 0.194655 0
M  V30 11724 C 1554.22 7.27966 -0.139777 0
M  V30 11725 H 1554.25 7.25354 0.961601 0
M  V30 11726 H 1555.43 6.32557 -1.65702 0
M  V30 11727 H 1556.92 8.19355 -1.79097 0
M  V30 11728 H 1555.22 10.1294 -1.10029 0
M  V30 11729 H 1555.03 9.64276 -3.41316 0
M  V30 11730 H 1553.4 9.25417 -2.76357 0
M  V30 11731 H 1556.04 6.25267 1.07847 0
M  V30 11732 P 1557.9 8.791 1.28891e-11 0
M  V30 11733 O 1559.3 9.36698 -0.018734 0
M  V30 11734 O 1557.52 7.82499 -1.07878 0
M  V30 11735 O 1557.58 8.09434 1.41446 0
M  V30 11736 C 1557.42 9.0349 2.53943 0
M  V30 11737 C 1557.96 8.35135 3.78975 0
M  V30 11738 O 1556.9 7.57904 4.1503 0
M  V30 11739 C 1559.17 7.45087 3.67298 0
M  V30 11740 O 1559.91 7.27796 4.85194 0
M  V30 11741 C 1558.51 6.17323 3.12027 0
M  V30 11742 O 1559.31 5.04149 3.47132 0
M  V30 11743 C 1557.17 6.19961 3.81809 0
M  V30 11744 N 1556.13 5.71575 2.93223 0
M  V30 11745 C 1555.09 4.99452 3.47592 0
M  V30 11746 O 1555.13 4.7199 4.69732 0
M  V30 11747 N 1554.08 4.58505 2.6803 0
M  V30 11748 C 1554.13 4.85544 1.36995 0
M  V30 11749 C 1555.22 5.55532 0.788532 0
M  V30 11750 C 1556.19 5.97426 1.60849 0
M  V30 11751 H 1557.2 5.58142 4.72986 0
M  V30 11752 H 1558.38 6.21428 2.0318 0
M  V30 11753 H 1559.87 7.85913 2.93131 0
M  V30 11754 H 1558.17 9.11171 4.55987 0
M  V30 11755 H 1557.98 9.9573 2.34194 0
M  V30 11756 H 1556.35 9.27824 2.67805 0
M  V30 11757 H 1555.27 5.7421 -0.281588 0
M  V30 11758 H 1557.04 6.53132 1.202 0
M  V30 11759 H 1559.09 4.76386 4.34983 0
M  V30 11760 P 1560.85 7.39546 4.75277 0
M  V30 11761 O 1562.25 7.89013 5.04841 0
M  V30 11762 O 1560.47 7.16603 3.32298 0
M  V30 11763 O 1560.53 6.04468 5.56605 0
M  V30 11764 C 1560.37 6.22772 7.02095 0
M  V30 11765 C 1560.91 4.97671 7.70322 0
M  V30 11766 O 1559.85 4.13208 7.58899 0
M  V30 11767 C 1562.13 4.28231 7.11815 0
M  V30 11768 O 1562.86 3.49945 8.01648 0
M  V30 11769 C 1561.46 3.5063 5.96244 0
M  V30 11770 O 1562.26 2.36443 5.64589 0
M  V30 11771 C 1560.12 3.15122 6.56374 0
M  V30 11772 N 1559.08 3.22311 5.55692 0
M  V30 11773 C 1558.04 2.32244 5.62437 0
M  V30 11774 O 1558.08 1.43107 6.50341 0
M  V30 11775 N 1557.03 2.40811 4.73368 0
M  V30 11776 C 1557.08 3.344 3.77753 0
M  V30 11777 C 1558.17 4.24712 3.66679 0
M  V30 11778 C 1559.14 4.15625 4.58307 0
M  V30 11779 H 1560.15 2.13823 6.99656 0
M  V30 11780 H 1561.34 4.12931 5.06895 0
M  V30 11781 H 1562.82 5.02674 6.71494 0
M  V30 11782 H 1561.13 5.20001 8.76217 0
M  V30 11783 H 1560.93 7.11046 7.35349 0
M  V30 11784 H 1559.3 6.35749 7.26911 0
M  V30 11785 H 1558.22 4.9828 2.86753 0
M  V30 11786 H 1559.99 4.84464 4.54228 0
M  V30 11787 H 1562.04 1.65592 6.23485 0
M  V30 11788 P 1563.8 3.65191 7.99657 0
M  V30 11789 O 1565.22 3.8425 8.48115 0
M  V30 11790 O 1563.44 4.17805 6.64342 0
M  V30 11791 O 1563.48 2.07613 7.95143 0
M  V30 11792 C 1563.32 1.44328 9.27336 0
M  V30 11793 C 1563.86 0.0220036 9.17197 0
M  V30 11794 O 1562.8 -0.626867 8.61923 0
M  V30 11795 C 1565.08 -0.24586 8.30336 0
M  V30 11796 O 1565.82 -1.39011 8.63583 0
M  V30 11797 C 1564.41 -0.273849 6.91158 0
M  V30 11798 O 1565.21 -1.06348 6.02892 0
M  V30 11799 C 1563.07 -0.897649 7.22545 0
M  V30 11800 H 1563.1 -1.9841 7.04286 0
M  V30 11801 H 1564.29 0.739928 6.497 0
M  V30 11802 H 1565.77 0.60668 8.36503 0
M  V30 11803 H 1564.08 -0.352479 10.1829 0
M  V30 11804 H 1563.89 2.00611 10.0304 0
M  V30 11805 H 1562.26 1.41843 9.55327 0
M  V30 11806 H 1564.9 -1.95734 6.03555 0
M  V30 11807 P 1566.75 -1.25109 8.70152 0
M  V30 11808 O 1568.17 -1.35288 9.2132 0
M  V30 11809 O 1566.39 -0.0769065 7.84762 0
M  V30 11810 O 1566.43 -2.55232 7.81161 0
M  V30 11811 C 1566.27 -3.79979 8.58246 0
M  V30 11812 C 1566.81 -4.94023 7.72785 0
M  V30 11813 O 1565.75 -5.18666 6.91125 0
M  V30 11814 C 1568.03 -4.69597 6.85231 0
M  V30 11815 O 1568.77 -5.83832 6.51337 0
M  V30 11816 C 1567.36 -3.96706 5.66633 0
M  V30 11817 O 1568.16 -4.14896 4.5003 0
M  V30 11818 C 1566.02 -4.66153 5.59313 0
M  V30 11819 N 1564.98 -3.71582 5.24027 0
M  V30 11820 C 1565.15 -2.39715 5.48833 0
M  V30 11821 N 1564.12 -1.65863 5.12845 0
M  V30 11822 C 1563.24 -2.57637 4.5973 0
M  V30 11823 C 1561.97 -2.40278 4.01027 0
M  V30 11824 N 1561.4 -3.57711 3.59575 0
M  V30 11825 C 1562.01 -4.80324 3.70476 0
M  V30 11826 N 1563.18 -5.01121 4.23801 0
M  V30 11827 C 1563.76 -3.84757 4.66372 0
M  V30 11828 H 1567.24 -2.8955 5.86187 0
M  V30 11829 H 1568.72 -4.0121 7.36511 0
M  V30 11830 H 1567.03 -5.81019 8.37003 0
M  V30 11831 H 1566.84 -3.73517 9.52265 0
M  V30 11832 H 1565.21 -3.97163 8.80359 0
M  V30 11833 H 1566.05 -1.98804 5.94332 0
M  V30 11834 H 1567.85 -4.90891 4.01857 0
M  V30 11835 P 1569.7 -5.75688 6.64379 0
M  V30 11836 O 1571.1 -6.11991 7.09136 0
M  V30 11837 O 1569.33 -4.30899 6.62018 0
M  V30 11838 O 1569.38 -6.36965 5.19102 0
M  V30 11839 C 1569.22 -7.83578 5.16515 0
M  V30 11840 C 1569.76 -8.33307 3.82977 0
M  V30 11841 O 1568.7 -8.0998 3.00999 0
M  V30 11842 C 1570.98 -7.65514 3.2257 0
M  V30 11843 O 1571.72 -8.4329 2.32297 0
M  V30 11844 C 1570.31 -6.40075 2.62207 0
M  V30 11845 O 1571.11 -5.92492 1.53687 0
M  V30 11846 C 1568.97 -6.9454 2.18503 0
M  V30 11847 N 1567.93 -5.95905 2.39948 0
M  V30 11848 C 1566.89 -5.89764 1.49837 0
M  V30 11849 O 1566.93 -6.64088 0.490975 0
M  V30 11850 N 1565.88 -5.02821 1.70992 0
M  V30 11851 C 1565.93 -4.21498 2.77236 0
M  V30 11852 C 1567.03 -4.23389 3.68205 0
M  V30 11853 C 1567.99 -5.12792 3.46171 0
M  V30 11854 H 1569 -7.22964 1.12076 0
M  V30 11855 H 1570.19 -5.60502 3.36589 0
M  V30 11856 H 1571.67 -7.36197 4.01993 0
M  V30 11857 H 1569.98 -9.41302 3.90009 0
M  V30 11858 H 1569.79 -8.29056 5.99158 0
M  V30 11859 H 1568.16 -8.09989 5.25828 0
M  V30 11860 H 1567.07 -3.54747 4.52399 0
M  V30 11861 H 1568.84 -5.18551 4.1489 0
M  V30 11862 H 1570.89 -6.40705 0.751752 0
M  V30 11863 P 1572.65 -8.4349 2.47671 0
M  V30 11864 O 1574.08 -8.94167 2.5964 0
M  V30 11865 O 1572.29 -7.1704 3.19006 0
M  V30 11866 O 1572.33 -8.16596 0.923387 0
M  V30 11867 C 1572.17 -9.38437 0.108857 0
M  V30 11868 C 1572.71 -9.08175 -1.28353 0
M  V30 11869 O 1571.65 -8.44229 -1.84713 0
M  V30 11870 C 1573.93 -8.18386 -1.42505 0
M  V30 11871 O 1574.67 -8.3501 -2.60497 0
M  V30 11872 C 1573.26 -6.80225 -1.25468 0
M  V30 11873 O 1574.06 -5.81621 -1.91066 0
M  V30 11874 C 1571.92 -7.02416 -1.9168 0
M  V30 11875 H 1571.95 -6.6888 -2.96621 0
M  V30 11876 H 1573.14 -6.53617 -0.192223 0
M  V30 11877 H 1574.62 -8.36622 -0.589963 0
M  V30 11878 H 1572.93 -10.0291 -1.79807 0
M  V30 11879 H 1572.74 -10.2138 0.558219 0
M  V30 11880 H 1571.11 -9.6579 0.0444202 0
M  V30 11881 H 1573.75 -5.69556 -2.79637 0
M  V30 11882 P 1575.6 -8.4349 -2.47671 0
M  V30 11883 O 1577.03 -8.92593 -2.65 0
M  V30 11884 O 1575.24 -7.7568 -1.19296 0
M  V30 11885 O 1575.28 -7.36886 -3.63805 0
M  V30 11886 C 1575.12 -7.95349 -4.982 0
M  V30 11887 C 1575.66 -6.94612 -5.98974 0
M  V30 11888 O 1574.61 -6.10347 -6.11815 0
M  V30 11889 C 1576.88 -6.11426 -5.62335 0
M  V30 11890 O 1577.62 -5.6162 -6.70584 0
M  V30 11891 C 1576.21 -5.04409 -4.73308 0
M  V30 11892 O 1577.01 -3.85992 -4.75183 0
M  V30 11893 C 1574.87 -4.8728 -5.41006 0
M  V30 11894 H 1574.91 -4.02333 -6.11157 0
M  V30 11895 H 1576.09 -5.39466 -3.69543 0
M  V30 11896 H 1577.57 -6.71916 -5.01943 0
M  V30 11897 H 1575.88 -7.4649 -6.93477 0
M  V30 11898 H 1575.69 -8.89416 -5.05237 0
M  V30 11899 H 1574.06 -8.14876 -5.18409 0
M  V30 11900 H 1576.7 -3.27957 -5.4317 0
M  V30 11901 P 1578.55 -5.75688 -6.64379 0
M  V30 11902 O 1579.98 -6.07627 -7.05504 0
M  V30 11903 O 1578.19 -5.88047 -5.19722 0
M  V30 11904 O 1578.23 -4.2322 -7.04443 0
M  V30 11905 C 1578.07 -3.99743 -8.4911 0
M  V30 11906 C 1578.61 -2.60516 -8.79425 0
M  V30 11907 O 1577.56 -1.82684 -8.4467 0
M  V30 11908 C 1579.83 -2.10343 -8.03628 0
M  V30 11909 O 1580.57 -1.09919 -8.67766 0
M  V30 11910 C 1579.16 -1.68446 -6.70876 0
M  V30 11911 O 1579.96 -0.678137 -6.08433 0
M  V30 11912 C 1577.82 -1.17436 -7.18567 0
M  V30 11913 H 1577.86 -0.0804732 -7.31656 0
M  V30 11914 H 1579.04 -2.54037 -6.02537 0
M  V30 11915 H 1580.52 -2.93881 -7.85526 0
M  V30 11916 H 1578.83 -2.53065 -9.86973 0
M  V30 11917 H 1578.64 -4.75072 -9.05887 0
M  V30 11918 H 1577.01 -4.05244 -8.76668 0
M  V30 11919 H 1579.65 0.177647 -6.34251 0
M  V30 11920 P 1581.51 -1.25109 -8.70152 0
M  V30 11921 O 1582.93 -1.29744 -9.22016 0
M  V30 11922 O 1581.15 -2.13714 -7.55141 0
M  V30 11923 O 1581.18 0.248149 -8.21425 0
M  V30 11924 C 1581.02 1.22779 -9.30434 0
M  V30 11925 C 1581.56 2.56293 -8.80664 0
M  V30 11926 O 1580.51 3.02979 -8.09349 0
M  V30 11927 C 1582.78 2.57523 -7.89775 0
M  V30 11928 O 1583.52 3.7668 -7.89438 0
M  V30 11929 C 1582.11 2.20997 -6.55446 0
M  V30 11930 O 1582.91 2.71895 -5.48509 0
M  V30 11931 C 1580.77 2.89693 -6.67988 0
M  V30 11932 H 1580.81 3.88793 -6.19859 0
M  V30 11933 H 1581.99 1.12046 -6.44229 0
M  V30 11934 H 1583.47 1.7746 -8.19711 0
M  V30 11935 H 1581.78 3.20706 -9.67112 0
M  V30 11936 H 1581.59 0.901032 -10.1892 0
M  V30 11937 H 1579.96 1.33049 -9.56592 0
M  V30 11938 H 1582.6 3.57847 -5.23962 0
M  V30 11939 P 1584.46 3.65191 -7.99657 0
M  V30 11940 O 1585.88 3.89332 -8.45794 0
M  V30 11941 O 1584.1 2.28472 -7.50807 0
M  V30 11942 O 1584.13 4.64972 -6.77611 0
M  V30 11943 C 1583.97 6.06319 -7.16352 0
M  V30 11944 C 1584.51 6.91731 -6.02299 0
M  V30 11945 O 1583.46 6.92449 -5.17064 0
M  V30 11946 C 1585.73 6.43627 -5.25174 0
M  V30 11947 O 1586.47 7.43686 -4.60469 0
M  V30 11948 C 1585.06 5.40275 -4.31916 0
M  V30 11949 O 1585.86 5.25279 -3.14438 0
M  V30 11950 C 1583.73 6.04847 -4.05327 0
M  V30 11951 H 1583.76 6.62195 -3.11261 0
M  V30 11952 H 1584.94 4.42556 -4.81383 0
M  V30 11953 H 1586.42 5.92458 -5.93643 0
M  V30 11954 H 1584.73 7.92655 -6.402 0
M  V30 11955 H 1584.54 6.26671 -8.0846 0
M  V30 11956 H 1582.91 6.29101 -7.32804 0
M  V30 11957 H 1585.55 5.84315 -2.47318 0
M  V30 11958 P 1587.41 7.39546 -4.75277 0
M  V30 11959 O 1588.83 7.84798 -5.01039 0
M  V30 11960 O 1587.05 5.9812 -5.08098 0
M  V30 11961 O 1587.08 7.57503 -3.1866 0
M  V30 11962 C 1586.92 8.97357 -2.74833 0
M  V30 11963 C 1587.46 9.07548 -1.32709 0
M  V30 11964 O 1586.41 8.62072 -0.606159 0
M  V30 11965 C 1588.68 8.25383 -0.938334 0
M  V30 11966 O 1589.42 8.74577 0.146954 0
M  V30 11967 C 1588.01 6.8802 -0.712559 0
M  V30 11968 O 1588.81 6.1189 0.194655 0
M  V30 11969 C 1586.68 7.27966 -0.139777 0
M  V30 11970 H 1586.71 7.25354 0.961601 0
M  V30 11971 H 1587.89 6.32557 -1.65702 0
M  V30 11972 H 1589.37 8.19355 -1.79097 0
M  V30 11973 H 1587.68 10.1294 -1.10029 0
M  V30 11974 H 1587.49 9.64276 -3.41316 0
M  V30 11975 H 1585.86 9.25417 -2.76357 0
M  V30 11976 H 1588.5 6.25267 1.07847 0
M  V30 11977 P 1590.36 8.791 1.31993e-11 0
M  V30 11978 O 1591.78 9.31096 0.027933 0
M  V30 11979 O 1590 7.77869 -1.04071 0
M  V30 11980 O 1590.03 8.09533 1.41463 0
M  V30 11981 C 1589.87 9.0349 2.53943 0
M  V30 11982 C 1590.41 8.35226 3.79016 0
M  V30 11983 O 1589.36 7.57992 4.15078 0
M  V30 11984 C 1591.63 7.45087 3.67298 0
M  V30 11985 O 1592.37 7.27796 4.85194 0
M  V30 11986 C 1590.96 6.17323 3.12027 0
M  V30 11987 O 1591.76 5.04231 3.47188 0
M  V30 11988 C 1589.63 6.19961 3.81809 0
M  V30 11989 H 1589.66 5.58218 4.73051 0
M  V30 11990 H 1590.84 6.21726 2.02589 0
M  V30 11991 H 1592.33 7.86112 2.9231 0
M  V30 11992 H 1590.63 9.11627 4.55076 0
M  V30 11993 H 1590.44 9.9573 2.34194 0
M  V30 11994 H 1588.81 9.2792 2.67832 0
M  V30 11995 H 1591.45 4.67702 4.28772 0
M  V30 11996 P 1593.31 7.39546 4.75277 0
M  V30 11997 O 1594.73 7.81777 5.05738 0
M  V30 11998 O 1592.95 7.1065 3.32998 0
M  V30 11999 O 1592.98 6.04542 5.56673 0
M  V30 12000 C 1592.82 6.22772 7.02095 0
M  V30 12001 C 1593.36 4.97725 7.70406 0
M  V30 12002 O 1592.31 4.13256 7.58987 0
M  V30 12003 C 1594.58 4.28231 7.11815 0
M  V30 12004 O 1595.32 3.49945 8.01648 0
M  V30 12005 C 1593.91 3.5063 5.96244 0
M  V30 12006 O 1594.71 2.36482 5.64681 0
M  V30 12007 C 1592.58 3.15122 6.56374 0
M  V30 12008 H 1592.61 2.13853 6.99751 0
M  V30 12009 H 1593.79 4.13501 5.06559 0
M  V30 12010 H 1595.28 5.03285 6.70911 0
M  V30 12011 H 1593.58 5.20877 8.75697 0
M  V30 12012 H 1593.39 7.11046 7.35349 0
M  V30 12013 H 1591.76 6.35815 7.26986 0
M  V30 12014 H 1594.4 1.61644 6.13565 0
M  V30 12015 P 1596.26 3.65191 7.99657 0
M  V30 12016 O 1597.68 3.8425 8.48115 0
M  V30 12017 O 1595.9 4.17805 6.64342 0
M  V30 12018 O 1595.94 2.07613 7.95143 0
M  V30 12019 C 1595.78 1.44328 9.27336 0
M  V30 12020 C 1596.32 0.0220036 9.17197 0
M  V30 12021 O 1595.26 -0.626867 8.61923 0
M  V30 12022 C 1597.53 -0.24586 8.30336 0
M  V30 12023 O 1598.27 -1.39011 8.63583 0
M  V30 12024 C 1596.86 -0.273849 6.91158 0
M  V30 12025 O 1597.66 -1.06348 6.02892 0
M  V30 12026 C 1595.53 -0.897649 7.22545 0
M  V30 12027 H 1595.56 -1.9841 7.04286 0
M  V30 12028 H 1596.74 0.739928 6.497 0
M  V30 12029 H 1598.23 0.60668 8.36503 0
M  V30 12030 H 1596.53 -0.352479 10.1829 0
M  V30 12031 H 1596.34 2.00611 10.0304 0
M  V30 12032 H 1594.71 1.41843 9.55327 0
M  V30 12033 H 1597.35 -1.95734 6.03555 0
M  V30 12034 P 1599.21 -1.25109 8.70152 0
M  V30 12035 O 1600.63 -1.35274 9.21221 0
M  V30 12036 O 1598.85 -0.0769065 7.84762 0
M  V30 12037 O 1598.89 -2.55232 7.81161 0
M  V30 12038 C 1598.73 -3.79939 8.58154 0
M  V30 12039 C 1599.27 -4.94023 7.72785 0
M  V30 12040 O 1598.21 -5.18726 6.91205 0
M  V30 12041 C 1600.48 -4.69597 6.85231 0
M  V30 12042 O 1601.22 -5.83832 6.51337 0
M  V30 12043 C 1599.81 -3.96706 5.66633 0
M  V30 12044 O 1600.61 -4.15414 4.49689 0
M  V30 12045 C 1598.48 -4.66153 5.59313 0
M  V30 12046 H 1598.51 -5.47679 4.85214 0
M  V30 12047 H 1599.69 -2.89008 5.86566 0
M  V30 12048 H 1601.18 -4.0121 7.36511 0
M  V30 12049 H 1599.48 -5.80182 8.37584 0
M  V30 12050 H 1599.29 -3.73517 9.52265 0
M  V30 12051 H 1597.66 -3.97163 8.80359 0
M  V30 12052 H 1600.3 -4.90969 4.01921 0
M  V30 12053 P 1602.16 -5.75688 6.64379 0
M  V30 12054 O 1603.58 -6.11849 7.01846 0
M  V30 12055 O 1601.8 -4.30744 6.56026 0
M  V30 12056 O 1601.84 -6.37042 5.19165 0
M  V30 12057 C 1601.68 -7.83578 5.16515 0
M  V30 12058 C 1602.22 -8.33398 3.83019 0
M  V30 12059 O 1601.16 -8.10074 3.01034 0
M  V30 12060 C 1603.43 -7.65514 3.2257 0
M  V30 12061 O 1604.17 -8.4329 2.32297 0
M  V30 12062 C 1602.77 -6.40075 2.62207 0
M  V30 12063 O 1603.56 -5.92589 1.53712 0
M  V30 12064 C 1601.43 -6.9454 2.18503 0
M  V30 12065 H 1601.46 -7.23063 1.12091 0
M  V30 12066 H 1602.64 -5.6025 3.37201 0
M  V30 12067 H 1604.13 -7.35707 4.02681 0
M  V30 12068 H 1602.43 -9.40912 3.9095 0
M  V30 12069 H 1602.24 -8.29056 5.99158 0
M  V30 12070 H 1600.61 -8.10073 5.25882 0
M  V30 12071 H 1603.25 -6.30324 0.726794 0
M  V30 12072 P 1605.11 -8.4349 2.47671 0
M  V30 12073 O 1606.53 -8.94167 2.5964 0
M  V30 12074 O 1604.75 -7.1704 3.19006 0
M  V30 12075 O 1604.79 -8.16596 0.923387 0
M  V30 12076 C 1604.63 -9.38437 0.108857 0
M  V30 12077 C 1605.17 -9.08175 -1.28353 0
M  V30 12078 O 1604.11 -8.44229 -1.84713 0
M  V30 12079 C 1606.39 -8.18386 -1.42505 0
M  V30 12080 O 1607.12 -8.3501 -2.60497 0
M  V30 12081 C 1605.72 -6.80225 -1.25468 0
M  V30 12082 O 1606.52 -5.81621 -1.91066 0
M  V30 12083 C 1604.38 -7.02416 -1.9168 0
M  V30 12084 H 1604.41 -6.6888 -2.96621 0
M  V30 12085 H 1605.59 -6.53617 -0.192223 0
M  V30 12086 H 1607.08 -8.36622 -0.589963 0
M  V30 12087 H 1605.38 -10.0291 -1.79807 0
M  V30 12088 H 1605.19 -10.2138 0.558219 0
M  V30 12089 H 1603.56 -9.6579 0.0444202 0
M  V30 12090 H 1606.2 -5.69556 -2.79637 0
M  V30 12091 P 1608.06 -8.4349 -2.47671 0
M  V30 12092 O 1609.48 -8.92689 -2.65029 0
M  V30 12093 O 1607.7 -7.7568 -1.19296 0
M  V30 12094 O 1607.74 -7.36886 -3.63805 0
M  V30 12095 C 1607.58 -7.95433 -4.98253 0
M  V30 12096 C 1608.12 -6.94612 -5.98974 0
M  V30 12097 O 1607.06 -6.10277 -6.11744 0
M  V30 12098 C 1609.34 -6.11426 -5.62335 0
M  V30 12099 O 1610.07 -5.6162 -6.70584 0
M  V30 12100 C 1608.67 -5.04409 -4.73308 0
M  V30 12101 O 1609.47 -3.86404 -4.74719 0
M  V30 12102 C 1607.33 -4.8728 -5.41006 0
M  V30 12103 N 1606.29 -4.65812 -4.42377 0
M  V30 12104 C 1606.46 -5.09132 -3.15382 0
M  V30 12105 N 1605.43 -4.84021 -2.3716 0
M  V30 12106 C 1604.54 -4.18386 -3.20441 0
M  V30 12107 C 1603.28 -3.6275 -2.94905 0
M  V30 12108 N 1602.68 -3.65794 -1.73372 0
M  V30 12109 N 1602.71 -3.05008 -4.05243 0
M  V30 12110 C 1603.31 -2.98348 -5.28159 0
M  V30 12111 N 1604.49 -3.48171 -5.56333 0
M  V30 12112 C 1605.07 -4.06869 -4.47212 0
M  V30 12113 H 1607.36 -4.02278 -6.11074 0
M  V30 12114 H 1608.54 -5.39013 -3.70026 0
M  V30 12115 H 1610.03 -6.71916 -5.01943 0
M  V30 12116 H 1608.33 -7.45796 -6.94223 0
M  V30 12117 H 1608.14 -8.89416 -5.05237 0
M  V30 12118 H 1606.51 -8.14876 -5.18409 0
M  V30 12119 H 1602.78 -2.47853 -6.07807 0
M  V30 12120 H 1607.36 -5.59989 -2.81362 0
M  V30 12121 H 1601.75 -3.23218 -1.60782 0
M  V30 12122 H 1603.15 -4.10523 -0.937856 0
M  V30 12123 H 1609.15 -3.27906 -5.43085 0
M  V30 12124 P 1611.01 -5.75688 -6.64379 0
M  V30 12125 O 1612.43 -6.07627 -7.05504 0
M  V30 12126 O 1610.65 -5.88047 -5.19722 0
M  V30 12127 O 1610.69 -4.2322 -7.04443 0
M  V30 12128 C 1610.53 -3.99743 -8.4911 0
M  V30 12129 C 1611.07 -2.60516 -8.79425 0
M  V30 12130 O 1610.01 -1.82684 -8.4467 0
M  V30 12131 C 1612.29 -2.10343 -8.03628 0
M  V30 12132 O 1613.02 -1.09919 -8.67766 0
M  V30 12133 C 1611.62 -1.68446 -6.70876 0
M  V30 12134 O 1612.42 -0.678137 -6.08433 0
M  V30 12135 C 1610.28 -1.17436 -7.18567 0
M  V30 12136 H 1610.31 -0.0804732 -7.31656 0
M  V30 12137 H 1611.5 -2.54037 -6.02537 0
M  V30 12138 H 1612.98 -2.93881 -7.85526 0
M  V30 12139 H 1611.29 -2.53065 -9.86973 0
M  V30 12140 H 1611.1 -4.75072 -9.05887 0
M  V30 12141 H 1609.47 -4.05244 -8.76668 0
M  V30 12142 H 1612.1 0.177647 -6.34251 0
M  V30 12143 P 1613.96 -1.25109 -8.70152 0
M  V30 12144 O 1615.38 -1.29758 -9.22115 0
M  V30 12145 O 1613.6 -2.13714 -7.55141 0
M  V30 12146 O 1613.64 0.248149 -8.21425 0
M  V30 12147 C 1613.48 1.22792 -9.30533 0
M  V30 12148 C 1614.02 2.56293 -8.80664 0
M  V30 12149 O 1612.96 3.02944 -8.09255 0
M  V30 12150 C 1615.24 2.57523 -7.89775 0
M  V30 12151 O 1615.97 3.7668 -7.89438 0
M  V30 12152 C 1614.57 2.20997 -6.55446 0
M  V30 12153 O 1615.37 2.71302 -5.48691 0
M  V30 12154 C 1613.23 2.89693 -6.67988 0
M  V30 12155 N 1612.19 2.08895 -6.07487 0
M  V30 12156 C 1612.36 0.753809 -5.94137 0
M  V30 12157 N 1611.33 0.146592 -5.38801 0
M  V30 12158 C 1610.44 1.1768 -5.13693 0
M  V30 12159 C 1609.18 1.17563 -4.52477 0
M  V30 12160 N 1608.58 0.057481 -4.04759 0
M  V30 12161 N 1608.61 2.41918 -4.45789 0
M  V30 12162 C 1609.21 3.56493 -4.90792 0
M  V30 12163 N 1610.39 3.61423 -5.47817 0
M  V30 12164 C 1610.97 2.37779 -5.5588 0
M  V30 12165 H 1613.26 3.8874 -6.19774 0
M  V30 12166 H 1614.45 1.12673 -6.44018 0
M  V30 12167 H 1615.93 1.7746 -8.19711 0
M  V30 12168 H 1614.23 3.21673 -9.66791 0
M  V30 12169 H 1614.04 0.901032 -10.1892 0
M  V30 12170 H 1612.41 1.33049 -9.56592 0
M  V30 12171 H 1608.68 4.49919 -4.77947 0
M  V30 12172 H 1613.26 0.233081 -6.26266 0
M  V30 12173 H 1607.65 0.119831 -3.60801 0
M  V30 12174 H 1609.05 -0.852272 -4.12385 0
M  V30 12175 H 1615.05 3.5779 -5.23879 0
M  V30 12176 P 1616.91 3.65191 -7.99657 0
M  V30 12177 O 1618.33 3.89332 -8.45794 0
M  V30 12178 O 1616.55 2.28472 -7.50807 0
M  V30 12179 O 1616.59 4.64972 -6.77611 0
M  V30 12180 C 1616.43 6.06319 -7.16352 0
M  V30 12181 C 1616.97 6.91731 -6.02299 0
M  V30 12182 O 1615.91 6.92449 -5.17064 0
M  V30 12183 C 1618.19 6.43627 -5.25174 0
M  V30 12184 O 1618.93 7.43686 -4.60469 0
M  V30 12185 C 1617.52 5.40275 -4.31916 0
M  V30 12186 O 1618.32 5.25279 -3.14438 0
M  V30 12187 C 1616.18 6.04847 -4.05327 0
M  V30 12188 H 1616.21 6.62195 -3.11261 0
M  V30 12189 H 1617.4 4.42556 -4.81383 0
M  V30 12190 H 1618.88 5.92458 -5.93643 0
M  V30 12191 H 1617.19 7.92655 -6.402 0
M  V30 12192 H 1617 6.26671 -8.0846 0
M  V30 12193 H 1615.37 6.29101 -7.32804 0
M  V30 12194 H 1618.01 5.84315 -2.47318 0
M  V30 12195 P 1619.86 7.39546 -4.75277 0
M  V30 12196 O 1621.26 7.86988 -5.07993 0
M  V30 12197 O 1619.48 5.99957 -5.13804 0
M  V30 12198 O 1619.54 7.57411 -3.18621 0
M  V30 12199 C 1619.38 8.97357 -2.74833 0
M  V30 12200 C 1619.92 9.0745 -1.32694 0
M  V30 12201 O 1618.86 8.61972 -0.606089 0
M  V30 12202 C 1621.14 8.25383 -0.938334 0
M  V30 12203 O 1621.88 8.74577 0.146954 0
M  V30 12204 C 1620.47 6.8802 -0.712559 0
M  V30 12205 O 1621.27 6.11791 0.194623 0
M  V30 12206 C 1619.13 7.27966 -0.139777 0
M  V30 12207 N 1618.09 6.39368 -0.623421 0
M  V30 12208 C 1617.05 6.08088 0.223886 0
M  V30 12209 O 1617.09 6.5102 1.39986 0
M  V30 12210 N 1616.04 5.30627 -0.224051 0
M  V30 12211 C 1616.09 4.82531 -1.47257 0
M  V30 12212 C 1617.19 5.09974 -2.34008 0
M  V30 12213 C 1618.15 5.89548 -1.87678 0
M  V30 12214 H 1619.16 7.25255 0.961469 0
M  V30 12215 H 1620.35 6.32625 -1.65044 0
M  V30 12216 H 1621.83 8.19631 -1.78299 0
M  V30 12217 H 1620.14 10.1305 -1.09016 0
M  V30 12218 H 1619.95 9.64276 -3.41316 0
M  V30 12219 H 1618.32 9.25321 -2.76328 0
M  V30 12220 H 1617.23 4.67832 -3.3413 0
M  V30 12221 H 1619 6.14434 -2.51991 0
M  V30 12222 H 1621.05 6.35931 1.08377 0
M  V30 12223 P 1622.81 8.791 1.35095e-11 0
M  V30 12224 O 1624.24 9.31096 0.027933 0
M  V30 12225 O 1622.45 7.77869 -1.04071 0
M  V30 12226 O 1622.49 8.09533 1.41463 0
M  V30 12227 C 1622.33 9.0349 2.53943 0
M  V30 12228 C 1622.87 8.35226 3.79016 0
M  V30 12229 O 1621.81 7.57992 4.15078 0
M  V30 12230 C 1624.09 7.45087 3.67298 0
M  V30 12231 O 1624.83 7.27796 4.85194 0
M  V30 12232 C 1623.42 6.17323 3.12027 0
M  V30 12233 O 1624.22 5.04231 3.47188 0
M  V30 12234 C 1622.08 6.19961 3.81809 0
M  V30 12235 H 1622.11 5.58218 4.73051 0
M  V30 12236 H 1623.3 6.21726 2.02589 0
M  V30 12237 H 1624.78 7.86112 2.9231 0
M  V30 12238 H 1623.09 9.11627 4.55076 0
M  V30 12239 H 1622.9 9.9573 2.34194 0
M  V30 12240 H 1621.27 9.2792 2.67832 0
M  V30 12241 H 1623.91 4.67702 4.28772 0
M  V30 12242 P 1625.76 7.39546 4.75277 0
M  V30 12243 O 1627.19 7.81777 5.05738 0
M  V30 12244 O 1625.4 7.1065 3.32998 0
M  V30 12245 O 1625.44 6.04542 5.56673 0
M  V30 12246 C 1625.28 6.22772 7.02095 0
M  V30 12247 C 1625.82 4.97725 7.70406 0
M  V30 12248 O 1624.77 4.13256 7.58987 0
M  V30 12249 C 1627.04 4.28231 7.11815 0
M  V30 12250 O 1627.78 3.49945 8.01648 0
M  V30 12251 C 1626.37 3.5063 5.96244 0
M  V30 12252 O 1627.17 2.36482 5.64681 0
M  V30 12253 C 1625.03 3.15122 6.56374 0
M  V30 12254 H 1625.07 2.13853 6.99751 0
M  V30 12255 H 1626.25 4.13501 5.06559 0
M  V30 12256 H 1627.73 5.03285 6.70911 0
M  V30 12257 H 1626.04 5.20877 8.75697 0
M  V30 12258 H 1625.85 7.11046 7.35349 0
M  V30 12259 H 1624.22 6.35815 7.26986 0
M  V30 12260 H 1626.86 1.61644 6.13565 0
M  V30 12261 P 1628.71 3.65191 7.99657 0
M  V30 12262 O 1630.14 3.8425 8.48115 0
M  V30 12263 O 1628.35 4.17805 6.64342 0
M  V30 12264 O 1628.39 2.07613 7.95143 0
M  V30 12265 C 1628.23 1.44328 9.27336 0
M  V30 12266 C 1628.77 0.0220036 9.17197 0
M  V30 12267 O 1627.72 -0.626867 8.61923 0
M  V30 12268 C 1629.99 -0.24586 8.30336 0
M  V30 12269 O 1630.73 -1.39011 8.63583 0
M  V30 12270 C 1629.32 -0.273849 6.91158 0
M  V30 12271 O 1630.12 -1.06348 6.02892 0
M  V30 12272 C 1627.98 -0.897649 7.22545 0
M  V30 12273 H 1628.02 -1.9841 7.04286 0
M  V30 12274 H 1629.2 0.739928 6.497 0
M  V30 12275 H 1630.68 0.60668 8.36503 0
M  V30 12276 H 1628.99 -0.352479 10.1829 0
M  V30 12277 H 1628.8 2.00611 10.0304 0
M  V30 12278 H 1627.17 1.41843 9.55327 0
M  V30 12279 H 1629.81 -1.95734 6.03555 0
M  V30 12280 P 1631.67 -1.25109 8.70152 0
M  V30 12281 O 1633.09 -1.35274 9.21221 0
M  V30 12282 O 1631.31 -0.0769065 7.84762 0
M  V30 12283 O 1631.34 -2.55232 7.81161 0
M  V30 12284 C 1631.18 -3.79939 8.58154 0
M  V30 12285 C 1631.72 -4.94023 7.72785 0
M  V30 12286 O 1630.67 -5.18726 6.91205 0
M  V30 12287 C 1632.94 -4.69597 6.85231 0
M  V30 12288 O 1633.68 -5.83832 6.51337 0
M  V30 12289 C 1632.27 -3.96706 5.66633 0
M  V30 12290 O 1633.07 -4.15414 4.49689 0
M  V30 12291 C 1630.93 -4.66153 5.59313 0
M  V30 12292 H 1630.97 -5.47679 4.85214 0
M  V30 12293 H 1632.15 -2.89008 5.86566 0
M  V30 12294 H 1633.63 -4.0121 7.36511 0
M  V30 12295 H 1631.94 -5.80182 8.37584 0
M  V30 12296 H 1631.75 -3.73517 9.52265 0
M  V30 12297 H 1630.12 -3.97163 8.80359 0
M  V30 12298 H 1632.76 -4.90969 4.01921 0
M  V30 12299 P 1634.62 -5.75688 6.64379 0
M  V30 12300 O 1636.04 -6.11849 7.01846 0
M  V30 12301 O 1634.26 -4.30744 6.56026 0
M  V30 12302 O 1634.29 -6.37042 5.19165 0
M  V30 12303 C 1634.13 -7.83578 5.16515 0
M  V30 12304 C 1634.67 -8.33398 3.83019 0
M  V30 12305 O 1633.62 -8.10074 3.01034 0
M  V30 12306 C 1635.89 -7.65514 3.2257 0
M  V30 12307 O 1636.63 -8.4329 2.32297 0
M  V30 12308 C 1635.22 -6.40075 2.62207 0
M  V30 12309 O 1636.02 -5.92589 1.53712 0
M  V30 12310 C 1633.88 -6.9454 2.18503 0
M  V30 12311 H 1633.92 -7.23063 1.12091 0
M  V30 12312 H 1635.1 -5.6025 3.37201 0
M  V30 12313 H 1636.58 -7.35707 4.02681 0
M  V30 12314 H 1634.89 -9.40912 3.9095 0
M  V30 12315 H 1634.7 -8.29056 5.99158 0
M  V30 12316 H 1633.07 -8.10073 5.25882 0
M  V30 12317 H 1635.71 -6.30324 0.726794 0
M  V30 12318 P 1637.57 -8.4349 2.47671 0
M  V30 12319 O 1638.99 -8.94167 2.5964 0
M  V30 12320 O 1637.21 -7.1704 3.19006 0
M  V30 12321 O 1637.24 -8.16596 0.923387 0
M  V30 12322 C 1637.08 -9.38437 0.108857 0
M  V30 12323 C 1637.62 -9.08175 -1.28353 0
M  V30 12324 O 1636.57 -8.44229 -1.84713 0
M  V30 12325 C 1638.84 -8.18386 -1.42505 0
M  V30 12326 O 1639.58 -8.3501 -2.60497 0
M  V30 12327 C 1638.17 -6.80225 -1.25468 0
M  V30 12328 O 1638.97 -5.81621 -1.91066 0
M  V30 12329 C 1636.84 -7.02416 -1.9168 0
M  V30 12330 H 1636.87 -6.6888 -2.96621 0
M  V30 12331 H 1638.05 -6.53617 -0.192223 0
M  V30 12332 H 1639.53 -8.36622 -0.589963 0
M  V30 12333 H 1637.84 -10.0291 -1.79807 0
M  V30 12334 H 1637.65 -10.2138 0.558219 0
M  V30 12335 H 1636.02 -9.6579 0.0444202 0
M  V30 12336 H 1638.66 -5.69556 -2.79637 0
M  V30 12337 P 1640.52 -8.4349 -2.47671 0
M  V30 12338 O 1641.92 -8.99283 -2.62101 0
M  V30 12339 O 1640.14 -7.81195 -1.16947 0
M  V30 12340 O 1640.19 -7.36797 -3.63761 0
M  V30 12341 C 1640.03 -7.95349 -4.982 0
M  V30 12342 C 1640.57 -6.94537 -5.98908 0
M  V30 12343 O 1639.52 -6.10277 -6.11744 0
M  V30 12344 C 1641.79 -6.11426 -5.62335 0
M  V30 12345 O 1642.53 -5.6162 -6.70584 0
M  V30 12346 C 1641.12 -5.04409 -4.73308 0
M  V30 12347 O 1641.92 -3.85929 -4.75106 0
M  V30 12348 C 1639.79 -4.8728 -5.41006 0
M  V30 12349 N 1638.74 -4.65812 -4.42377 0
M  V30 12350 C 1637.71 -3.81293 -4.74224 0
M  V30 12351 O 1637.75 -3.20533 -5.83679 0
M  V30 12352 N 1636.7 -3.6442 -3.86349 0
M  V30 12353 C 1636.74 -4.2728 -2.6824 0
M  V30 12354 C 1637.84 -5.10813 -2.3217 0
M  V30 12355 C 1638.81 -5.27909 -3.22647 0
M  V30 12356 H 1639.82 -4.02278 -6.11074 0
M  V30 12357 H 1641 -5.39013 -3.70026 0
M  V30 12358 H 1642.48 -6.71494 -5.02675 0
M  V30 12359 H 1640.79 -7.45796 -6.94223 0
M  V30 12360 H 1640.6 -8.89416 -5.05237 0
M  V30 12361 H 1638.97 -8.14791 -5.18355 0
M  V30 12362 H 1637.89 -5.58884 -1.34755 0
M  V30 12363 H 1639.65 -5.92811 -2.9934 0
M  V30 12364 H 1641.71 -3.3454 -5.51577 0
M  V30 12365 P 1643.47 -5.75688 -6.64379 0
M  V30 12366 O 1644.89 -6.07627 -7.05504 0
M  V30 12367 O 1643.11 -5.88047 -5.19722 0
M  V30 12368 O 1643.14 -4.2322 -7.04443 0
M  V30 12369 C 1642.98 -3.99743 -8.4911 0
M  V30 12370 C 1643.52 -2.60516 -8.79425 0
M  V30 12371 O 1642.47 -1.82684 -8.4467 0
M  V30 12372 C 1644.74 -2.10343 -8.03628 0
M  V30 12373 O 1645.48 -1.09919 -8.67766 0
M  V30 12374 C 1644.07 -1.68446 -6.70876 0
M  V30 12375 O 1644.87 -0.678137 -6.08433 0
M  V30 12376 C 1642.74 -1.17436 -7.18567 0
M  V30 12377 H 1642.77 -0.0804732 -7.31656 0
M  V30 12378 H 1643.95 -2.54037 -6.02537 0
M  V30 12379 H 1645.44 -2.93881 -7.85526 0
M  V30 12380 H 1643.74 -2.53065 -9.86973 0
M  V30 12381 H 1643.55 -4.75072 -9.05887 0
M  V30 12382 H 1641.92 -4.05244 -8.76668 0
M  V30 12383 H 1644.56 0.177647 -6.34251 0
M  V30 12384 P 1646.42 -1.25109 -8.70152 0
M  V30 12385 O 1647.84 -1.29772 -9.22214 0
M  V30 12386 O 1646.06 -2.13714 -7.55141 0
M  V30 12387 O 1646.1 0.248149 -8.21425 0
M  V30 12388 C 1645.94 1.22779 -9.30434 0
M  V30 12389 C 1646.48 2.56265 -8.80568 0
M  V30 12390 O 1645.42 3.02979 -8.09349 0
M  V30 12391 C 1647.69 2.57523 -7.89775 0
M  V30 12392 O 1648.43 3.7668 -7.89438 0
M  V30 12393 C 1647.03 2.20997 -6.55446 0
M  V30 12394 O 1647.82 2.71851 -5.48419 0
M  V30 12395 C 1645.69 2.89693 -6.67988 0
M  V30 12396 N 1644.64 2.08895 -6.07487 0
M  V30 12397 C 1644.71 0.760559 -6.14209 0
M  V30 12398 N 1643.66 0.200108 -5.52538 0
M  V30 12399 C 1642.93 1.22692 -5.09742 0
M  V30 12400 C 1641.62 1.24782 -4.48775 0
M  V30 12401 O 1640.89 0.290617 -4.19294 0
M  V30 12402 N 1641.19 2.50468 -4.22428 0
M  V30 12403 C 1641.94 3.67142 -4.51974 0
M  V30 12404 N 1641.34 4.85096 -4.14091 0
M  V30 12405 N 1643.09 3.67821 -5.12831 0
M  V30 12406 C 1643.55 2.43698 -5.4105 0
M  V30 12407 H 1645.72 3.88793 -6.19859 0
M  V30 12408 H 1646.9 1.12029 -6.4413 0
M  V30 12409 H 1648.39 1.78279 -8.19533 0
M  V30 12410 H 1646.69 3.20706 -9.67112 0
M  V30 12411 H 1646.5 0.901032 -10.1892 0
M  V30 12412 H 1644.87 1.33049 -9.56592 0
M  V30 12413 H 1640.3 2.61953 -3.79465 0
M  V30 12414 H 1645.5 0.200439 -6.63497 0
M  V30 12415 H 1640.43 4.8334 -3.66367 0
M  V30 12416 H 1641.81 5.7474 -4.33841 0
M  V30 12417 H 1647.51 3.5779 -5.23879 0
M  V30 12418 P 1649.37 3.65191 -7.99657 0
M  V30 12419 O 1650.79 3.89416 -8.45976 0
M  V30 12420 O 1649.01 2.28472 -7.50807 0
M  V30 12421 O 1649.05 4.64972 -6.77611 0
M  V30 12422 C 1648.89 6.06319 -7.16352 0
M  V30 12423 C 1649.43 6.91655 -6.02234 0
M  V30 12424 O 1648.37 6.92449 -5.17064 0
M  V30 12425 C 1650.64 6.43627 -5.25174 0
M  V30 12426 O 1651.38 7.43686 -4.60469 0
M  V30 12427 C 1649.98 5.40275 -4.31916 0
M  V30 12428 O 1650.77 5.25193 -3.14386 0
M  V30 12429 C 1648.64 6.04847 -4.05327 0
M  V30 12430 N 1647.59 5.04166 -3.98114 0
M  V30 12431 C 1647.66 3.96049 -4.75587 0
M  V30 12432 N 1646.61 3.15559 -4.54006 0
M  V30 12433 C 1645.88 3.78802 -3.62491 0
M  V30 12434 C 1644.57 3.476 -3.10071 0
M  V30 12435 O 1643.84 2.51136 -3.37021 0
M  V30 12436 N 1644.14 4.39088 -2.19956 0
M  V30 12437 C 1644.89 5.53215 -1.81733 0
M  V30 12438 N 1644.29 6.31963 -0.860928 0
M  V30 12439 N 1646.04 5.86688 -2.32562 0
M  V30 12440 C 1646.5 4.97525 -3.23407 0
M  V30 12441 H 1648.67 6.62195 -3.11261 0
M  V30 12442 H 1649.85 4.42488 -4.8131 0
M  V30 12443 H 1651.34 5.93051 -5.9305 0
M  V30 12444 H 1649.64 7.92655 -6.402 0
M  V30 12445 H 1649.45 6.26671 -8.0846 0
M  V30 12446 H 1647.82 6.29101 -7.32804 0
M  V30 12447 H 1643.25 4.25523 -1.77604 0
M  V30 12448 H 1648.45 3.75576 -5.47333 0
M  V30 12449 H 1643.38 6.04684 -0.468946 0
M  V30 12450 H 1644.76 7.18054 -0.542422 0
M  V30 12451 H 1650.46 5.84223 -2.47279 0
M  V30 12452 P 1652.32 7.39546 -4.75277 0
M  V30 12453 O 1653.74 7.84798 -5.01039 0
M  V30 12454 O 1651.96 5.9812 -5.08098 0
M  V30 12455 O 1652 7.57503 -3.1866 0
M  V30 12456 C 1651.84 8.97357 -2.74833 0
M  V30 12457 C 1652.38 9.07548 -1.32709 0
M  V30 12458 O 1651.32 8.62072 -0.606159 0
M  V30 12459 C 1653.59 8.25383 -0.938334 0
M  V30 12460 O 1654.33 8.74577 0.146954 0
M  V30 12461 C 1652.93 6.8802 -0.712559 0
M  V30 12462 O 1653.72 6.1189 0.194655 0
M  V30 12463 C 1651.59 7.27966 -0.139777 0
M  V30 12464 H 1651.62 7.25354 0.961601 0
M  V30 12465 H 1652.8 6.32557 -1.65702 0
M  V30 12466 H 1654.29 8.19355 -1.79097 0
M  V30 12467 H 1652.59 10.1294 -1.10029 0
M  V30 12468 H 1652.4 9.64276 -3.41316 0
M  V30 12469 H 1650.77 9.25417 -2.76357 0
M  V30 12470 H 1653.41 6.25267 1.07847 0
M  V30 12471 P 1655.27 8.791 1.38196e-11 0
M  V30 12472 O 1656.69 9.31096 0.027933 0
M  V30 12473 O 1654.91 7.77869 -1.04071 0
M  V30 12474 O 1654.95 8.09533 1.41463 0
M  V30 12475 C 1654.79 9.0349 2.53943 0
M  V30 12476 C 1655.33 8.35226 3.79016 0
M  V30 12477 O 1654.27 7.57992 4.15078 0
M  V30 12478 C 1656.54 7.45087 3.67298 0
M  V30 12479 O 1657.28 7.27796 4.85194 0
M  V30 12480 C 1655.88 6.17323 3.12027 0
M  V30 12481 O 1656.67 5.04231 3.47188 0
M  V30 12482 C 1654.54 6.19961 3.81809 0
M  V30 12483 H 1654.57 5.58218 4.73051 0
M  V30 12484 H 1655.75 6.21726 2.02589 0
M  V30 12485 H 1657.24 7.86112 2.9231 0
M  V30 12486 H 1655.54 9.11627 4.55076 0
M  V30 12487 H 1655.35 9.9573 2.34194 0
M  V30 12488 H 1653.72 9.2792 2.67832 0
M  V30 12489 H 1656.36 4.67702 4.28772 0
M  V30 12490 P 1658.22 7.39546 4.75277 0
M  V30 12491 O 1659.64 7.81777 5.05738 0
M  V30 12492 O 1657.86 7.1065 3.32998 0
M  V30 12493 O 1657.9 6.04542 5.56673 0
M  V30 12494 C 1657.74 6.22772 7.02095 0
M  V30 12495 C 1658.28 4.97725 7.70406 0
M  V30 12496 O 1657.22 4.13256 7.58987 0
M  V30 12497 C 1659.5 4.28231 7.11815 0
M  V30 12498 O 1660.23 3.49945 8.01648 0
M  V30 12499 C 1658.83 3.5063 5.96244 0
M  V30 12500 O 1659.63 2.36482 5.64681 0
M  V30 12501 C 1657.49 3.15122 6.56374 0
M  V30 12502 H 1657.52 2.13853 6.99751 0
M  V30 12503 H 1658.7 4.13501 5.06559 0
M  V30 12504 H 1660.19 5.03285 6.70911 0
M  V30 12505 H 1658.49 5.20877 8.75697 0
M  V30 12506 H 1658.3 7.11046 7.35349 0
M  V30 12507 H 1656.67 6.35815 7.26986 0
M  V30 12508 H 1659.31 1.61644 6.13565 0
M  V30 12509 P 1661.17 3.65191 7.99657 0
M  V30 12510 O 1662.59 3.84292 8.48206 0
M  V30 12511 O 1660.81 4.17805 6.64342 0
M  V30 12512 O 1660.85 2.07613 7.95143 0
M  V30 12513 C 1660.69 1.44344 9.27435 0
M  V30 12514 C 1661.23 0.0220036 9.17197 0
M  V30 12515 O 1660.17 -0.626794 8.61824 0
M  V30 12516 C 1662.45 -0.24586 8.30336 0
M  V30 12517 O 1663.18 -1.39011 8.63583 0
M  V30 12518 C 1661.78 -0.273849 6.91158 0
M  V30 12519 O 1662.58 -1.05728 6.029 0
M  V30 12520 C 1660.44 -0.897649 7.22545 0
M  V30 12521 N 1659.4 -0.292839 6.41732 0
M  V30 12522 C 1659.57 0.950603 5.91308 0
M  V30 12523 N 1658.54 1.37732 5.21105 0
M  V30 12524 C 1657.65 0.318109 5.26039 0
M  V30 12525 C 1656.39 0.146766 4.6727 0
M  V30 12526 N 1655.79 1.08519 3.89983 0
M  V30 12527 N 1655.82 -1.06525 4.95887 0
M  V30 12528 C 1656.42 -2.0378 5.71347 0
M  V30 12529 N 1657.6 -1.92445 6.27451 0
M  V30 12530 C 1658.18 -0.715382 6.00353 0
M  V30 12531 H 1660.47 -1.98383 7.04189 0
M  V30 12532 H 1661.65 0.733318 6.49674 0
M  V30 12533 H 1663.14 0.60668 8.36503 0
M  V30 12534 H 1661.44 -0.362662 10.1825 0
M  V30 12535 H 1661.25 2.00611 10.0304 0
M  V30 12536 H 1659.62 1.41843 9.55327 0
M  V30 12537 H 1655.89 -2.97041 5.85344 0
M  V30 12538 H 1660.47 1.54076 6.07465 0
M  V30 12539 H 1654.86 0.901517 3.49562 0
M  V30 12540 H 1656.26 1.97957 3.71669 0
M  V30 12541 H 1662.26 -1.95704 6.0346 0
M  V30 12542 P 1664.12 -1.25109 8.70152 0
M  V30 12543 O 1665.54 -1.35274 9.21221 0
M  V30 12544 O 1663.76 -0.0769065 7.84762 0
M  V30 12545 O 1663.8 -2.55232 7.81161 0
M  V30 12546 C 1663.64 -3.79939 8.58154 0
M  V30 12547 C 1664.18 -4.94023 7.72785 0
M  V30 12548 O 1663.12 -5.18726 6.91205 0
M  V30 12549 C 1665.4 -4.69597 6.85231 0
M  V30 12550 O 1666.13 -5.83832 6.51337 0
M  V30 12551 C 1664.73 -3.96706 5.66633 0
M  V30 12552 O 1665.53 -4.15414 4.49689 0
M  V30 12553 C 1663.39 -4.66153 5.59313 0
M  V30 12554 H 1663.42 -5.47679 4.85214 0
M  V30 12555 H 1664.61 -2.89008 5.86566 0
M  V30 12556 H 1666.09 -4.0121 7.36511 0
M  V30 12557 H 1664.4 -5.80182 8.37584 0
M  V30 12558 H 1664.21 -3.73517 9.52265 0
M  V30 12559 H 1662.58 -3.97163 8.80359 0
M  V30 12560 H 1665.21 -4.90969 4.01921 0
M  V30 12561 P 1667.07 -5.75688 6.64379 0
M  V30 12562 O 1668.49 -6.11849 7.01846 0
M  V30 12563 O 1666.71 -4.30744 6.56026 0
M  V30 12564 O 1666.75 -6.37042 5.19165 0
M  V30 12565 C 1666.59 -7.83578 5.16515 0
M  V30 12566 C 1667.13 -8.33398 3.83019 0
M  V30 12567 O 1666.07 -8.10074 3.01034 0
M  V30 12568 C 1668.35 -7.65514 3.2257 0
M  V30 12569 O 1669.09 -8.4329 2.32297 0
M  V30 12570 C 1667.68 -6.40075 2.62207 0
M  V30 12571 O 1668.48 -5.92589 1.53712 0
M  V30 12572 C 1666.34 -6.9454 2.18503 0
M  V30 12573 H 1666.37 -7.23063 1.12091 0
M  V30 12574 H 1667.56 -5.6025 3.37201 0
M  V30 12575 H 1669.04 -7.35707 4.02681 0
M  V30 12576 H 1667.35 -9.40912 3.9095 0
M  V30 12577 H 1667.16 -8.29056 5.99158 0
M  V30 12578 H 1665.53 -8.10073 5.25882 0
M  V30 12579 H 1668.17 -6.30324 0.726794 0
M  V30 12580 P 1670.02 -8.4349 2.47671 0
M  V30 12581 O 1671.44 -8.94167 2.5964 0
M  V30 12582 O 1669.66 -7.1704 3.19006 0
M  V30 12583 O 1669.7 -8.16596 0.923387 0
M  V30 12584 C 1669.54 -9.38437 0.108857 0
M  V30 12585 C 1670.08 -9.08175 -1.28353 0
M  V30 12586 O 1669.02 -8.44229 -1.84713 0
M  V30 12587 C 1671.3 -8.18386 -1.42505 0
M  V30 12588 O 1672.04 -8.3501 -2.60497 0
M  V30 12589 C 1670.63 -6.80225 -1.25468 0
M  V30 12590 O 1671.43 -5.81621 -1.91066 0
M  V30 12591 C 1669.29 -7.02416 -1.9168 0
M  V30 12592 H 1669.32 -6.6888 -2.96621 0
M  V30 12593 H 1670.51 -6.53617 -0.192223 0
M  V30 12594 H 1671.99 -8.36622 -0.589963 0
M  V30 12595 H 1670.3 -10.0291 -1.79807 0
M  V30 12596 H 1670.11 -10.2138 0.558219 0
M  V30 12597 H 1668.48 -9.6579 0.0444202 0
M  V30 12598 H 1671.12 -5.69556 -2.79637 0
M  V30 12599 P 1672.97 -8.4349 -2.47671 0
M  V30 12600 O 1674.4 -8.92593 -2.65 0
M  V30 12601 O 1672.61 -7.7568 -1.19296 0
M  V30 12602 O 1672.65 -7.36886 -3.63805 0
M  V30 12603 C 1672.49 -7.95349 -4.982 0
M  V30 12604 C 1673.03 -6.94612 -5.98974 0
M  V30 12605 O 1671.97 -6.10347 -6.11815 0
M  V30 12606 C 1674.25 -6.11426 -5.62335 0
M  V30 12607 O 1674.99 -5.6162 -6.70584 0
M  V30 12608 C 1673.58 -5.04409 -4.73308 0
M  V30 12609 O 1674.38 -3.85992 -4.75183 0
M  V30 12610 C 1672.24 -4.8728 -5.41006 0
M  V30 12611 H 1672.27 -4.02333 -6.11157 0
M  V30 12612 H 1673.46 -5.39466 -3.69543 0
M  V30 12613 H 1674.94 -6.71916 -5.01943 0
M  V30 12614 H 1673.25 -7.4649 -6.93477 0
M  V30 12615 H 1673.06 -8.89416 -5.05237 0
M  V30 12616 H 1671.43 -8.14876 -5.18409 0
M  V30 12617 H 1674.07 -3.27957 -5.4317 0
M  V30 12618 P 1675.92 -5.75688 -6.64379 0
M  V30 12619 O 1677.35 -6.07627 -7.05504 0
M  V30 12620 O 1675.56 -5.88047 -5.19722 0
M  V30 12621 O 1675.6 -4.2322 -7.04443 0
M  V30 12622 C 1675.44 -3.99743 -8.4911 0
M  V30 12623 C 1675.98 -2.60516 -8.79425 0
M  V30 12624 O 1674.92 -1.82684 -8.4467 0
M  V30 12625 C 1677.2 -2.10343 -8.03628 0
M  V30 12626 O 1677.94 -1.09919 -8.67766 0
M  V30 12627 C 1676.53 -1.68446 -6.70876 0
M  V30 12628 O 1677.33 -0.678137 -6.08433 0
M  V30 12629 C 1675.19 -1.17436 -7.18567 0
M  V30 12630 H 1675.22 -0.0804732 -7.31656 0
M  V30 12631 H 1676.41 -2.54037 -6.02537 0
M  V30 12632 H 1677.89 -2.93881 -7.85526 0
M  V30 12633 H 1676.2 -2.53065 -9.86973 0
M  V30 12634 H 1676.01 -4.75072 -9.05887 0
M  V30 12635 H 1674.38 -4.05244 -8.76668 0
M  V30 12636 H 1677.02 0.177647 -6.34251 0
M  V30 12637 P 1678.87 -1.25109 -8.70152 0
M  V30 12638 O 1680.28 -1.3516 -9.26897 0
M  V30 12639 O 1678.5 -2.18141 -7.59181 0
M  V30 12640 O 1678.55 0.248118 -8.21325 0
M  V30 12641 C 1678.39 1.22779 -9.30434 0
M  V30 12642 C 1678.93 2.56265 -8.80568 0
M  V30 12643 O 1677.88 3.02944 -8.09255 0
M  V30 12644 C 1680.15 2.57523 -7.89775 0
M  V30 12645 O 1680.89 3.7668 -7.89438 0
M  V30 12646 C 1679.48 2.20997 -6.55446 0
M  V30 12647 O 1680.28 2.71851 -5.48419 0
M  V30 12648 C 1678.14 2.89693 -6.67988 0
M  V30 12649 N 1677.1 2.08895 -6.07487 0
M  V30 12650 C 1676.07 2.72974 -5.43836 0
M  V30 12651 O 1676.1 3.97779 -5.34036 0
M  V30 12652 N 1675.05 2.0005 -4.91983 0
M  V30 12653 C 1675.1 0.66501 -5.00098 0
M  V30 12654 C 1676.2 -0.0100979 -5.61099 0
M  V30 12655 C 1677.16 0.74189 -6.14236 0
M  V30 12656 H 1678.18 3.8874 -6.19774 0
M  V30 12657 H 1679.36 1.12673 -6.44018 0
M  V30 12658 H 1680.84 1.783 -8.19631 0
M  V30 12659 H 1679.15 3.21673 -9.66791 0
M  V30 12660 H 1678.96 0.901032 -10.1892 0
M  V30 12661 H 1677.33 1.33036 -9.56493 0
M  V30 12662 H 1676.25 -1.09591 -5.64358 0
M  V30 12663 H 1678.01 0.260263 -6.6359 0
M  V30 12664 H 1680.06 3.62759 -5.33442 0
M  V30 12665 P 1681.82 3.65191 -7.99657 0
M  V30 12666 O 1683.25 3.89374 -8.45885 0
M  V30 12667 O 1681.46 2.28472 -7.50807 0
M  V30 12668 O 1681.5 4.64972 -6.77611 0
M  V30 12669 C 1681.34 6.06383 -7.16428 0
M  V30 12670 C 1681.88 6.91731 -6.02299 0
M  V30 12671 O 1680.83 6.92369 -5.17005 0
M  V30 12672 C 1683.1 6.43627 -5.25174 0
M  V30 12673 O 1683.84 7.43686 -4.60469 0
M  V30 12674 C 1682.43 5.40275 -4.31916 0
M  V30 12675 O 1683.23 5.24878 -3.14911 0
M  V30 12676 C 1681.09 6.04847 -4.05327 0
M  V30 12677 N 1680.05 5.04166 -3.98114 0
M  V30 12678 C 1680.22 3.84629 -4.59066 0
M  V30 12679 N 1679.19 3.0363 -4.45343 0
M  V30 12680 C 1678.31 3.76722 -3.68523 0
M  V30 12681 C 1677.04 3.43528 -3.17088 0
M  V30 12682 N 1676.44 2.23665 -3.37397 0
M  V30 12683 N 1676.48 4.44526 -2.44231 0
M  V30 12684 C 1677.08 5.65243 -2.20146 0
M  V30 12685 N 1678.25 6.00221 -2.65453 0
M  V30 12686 C 1678.83 5.00564 -3.39083 0
M  V30 12687 H 1681.13 6.62104 -3.11218 0
M  V30 12688 H 1682.31 4.42969 -4.80867 0
M  V30 12689 H 1683.79 5.92458 -5.93643 0
M  V30 12690 H 1682.1 7.93295 -6.39407 0
M  V30 12691 H 1681.91 6.26671 -8.0846 0
M  V30 12692 H 1680.28 6.29101 -7.32804 0
M  V30 12693 H 1676.54 6.36894 -1.5883 0
M  V30 12694 H 1681.12 3.58193 -5.14248 0
M  V30 12695 H 1675.51 2.05145 -2.97047 0
M  V30 12696 H 1676.92 1.51255 -3.92998 0
M  V30 12697 H 1682.92 5.84223 -2.47279 0
M  V30 12698 P 1684.78 7.39546 -4.75277 0
M  V30 12699 O 1686.2 7.84882 -5.01092 0
M  V30 12700 O 1684.42 5.9812 -5.08098 0
M  V30 12701 O 1684.45 7.57503 -3.1866 0
M  V30 12702 C 1684.29 8.97452 -2.74862 0
M  V30 12703 C 1684.83 9.07548 -1.32709 0
M  V30 12704 O 1683.78 8.61972 -0.606089 0
M  V30 12705 C 1686.05 8.25383 -0.938334 0
M  V30 12706 O 1686.79 8.74577 0.146954 0
M  V30 12707 C 1685.38 6.8802 -0.712559 0
M  V30 12708 O 1686.18 6.1181 0.188505 0
M  V30 12709 C 1684.04 7.27966 -0.139777 0
M  V30 12710 N 1683 6.39368 -0.623421 0
M  V30 12711 C 1683.17 5.71761 -1.78245 0
M  V30 12712 N 1682.14 4.962 -2.10491 0
M  V30 12713 C 1681.26 5.16158 -1.0635 0
M  V30 12714 C 1679.99 4.60425 -0.810266 0
M  V30 12715 N 1679.43 5.06 0.348685 0
M  V30 12716 C 1680.03 5.94532 1.20395 0
M  V30 12717 N 1681.21 6.48452 1.01191 0
M  V30 12718 C 1681.78 6.04423 -0.146291 0
M  V30 12719 H 1685.26 6.32625 -1.65044 0
M  V30 12720 H 1686.74 8.19355 -1.79097 0
M  V30 12721 H 1685.05 10.1305 -1.09016 0
M  V30 12722 H 1684.86 9.64276 -3.41316 0
M  V30 12723 H 1683.23 9.25417 -2.76357 0
M  V30 12724 H 1684.07 5.79354 -2.38959 0
M  V30 12725 H 1685.87 6.25169 1.0783 0
M  V30 12726 P 1687.73 8.791 1.41298e-11 0
M  V30 12727 O 1689.15 9.31096 0.027933 0
M  V30 12728 O 1687.37 7.77869 -1.04071 0
M  V30 12729 O 1687.4 8.09533 1.41463 0
M  V30 12730 C 1687.24 9.0349 2.53943 0
M  V30 12731 C 1687.78 8.35226 3.79016 0
M  V30 12732 O 1686.73 7.57992 4.15078 0
M  V30 12733 C 1689 7.45087 3.67298 0
M  V30 12734 O 1689.74 7.27796 4.85194 0
M  V30 12735 C 1688.33 6.17323 3.12027 0
M  V30 12736 O 1689.13 5.04231 3.47188 0
M  V30 12737 C 1687 6.19961 3.81809 0
M  V30 12738 H 1687.03 5.58218 4.73051 0
M  V30 12739 H 1688.21 6.21726 2.02589 0
M  V30 12740 H 1689.69 7.86112 2.9231 0
M  V30 12741 H 1688 9.11627 4.55076 0
M  V30 12742 H 1687.81 9.9573 2.34194 0
M  V30 12743 H 1686.18 9.2792 2.67832 0
M  V30 12744 H 1688.82 4.67702 4.28772 0
M  V30 12745 P 1690.68 7.39546 4.75277 0
M  V30 12746 O 1692.1 7.81777 5.05738 0
M  V30 12747 O 1690.32 7.1065 3.32998 0
M  V30 12748 O 1690.35 6.04542 5.56673 0
M  V30 12749 C 1690.19 6.22772 7.02095 0
M  V30 12750 C 1690.73 4.97725 7.70406 0
M  V30 12751 O 1689.68 4.13256 7.58987 0
M  V30 12752 C 1691.95 4.28231 7.11815 0
M  V30 12753 O 1692.69 3.49945 8.01648 0
M  V30 12754 C 1691.28 3.5063 5.96244 0
M  V30 12755 O 1692.08 2.36482 5.64681 0
M  V30 12756 C 1689.95 3.15122 6.56374 0
M  V30 12757 H 1689.98 2.13853 6.99751 0
M  V30 12758 H 1691.16 4.13501 5.06559 0
M  V30 12759 H 1692.64 5.03285 6.70911 0
M  V30 12760 H 1690.95 5.20877 8.75697 0
M  V30 12761 H 1690.76 7.11046 7.35349 0
M  V30 12762 H 1689.13 6.35815 7.26986 0
M  V30 12763 H 1691.77 1.61644 6.13565 0
M  V30 12764 P 1693.63 3.65191 7.99657 0
M  V30 12765 O 1695.05 3.8425 8.48115 0
M  V30 12766 O 1693.27 4.17805 6.64342 0
M  V30 12767 O 1693.3 2.07613 7.95143 0
M  V30 12768 C 1693.14 1.44328 9.27336 0
M  V30 12769 C 1693.68 0.0220036 9.17197 0
M  V30 12770 O 1692.63 -0.626867 8.61923 0
M  V30 12771 C 1694.9 -0.24586 8.30336 0
M  V30 12772 O 1695.64 -1.39011 8.63583 0
M  V30 12773 C 1694.23 -0.273849 6.91158 0
M  V30 12774 O 1695.03 -1.06348 6.02892 0
M  V30 12775 C 1692.9 -0.897649 7.22545 0
M  V30 12776 H 1692.93 -1.9841 7.04286 0
M  V30 12777 H 1694.11 0.739928 6.497 0
M  V30 12778 H 1695.6 0.60668 8.36503 0
M  V30 12779 H 1693.9 -0.352479 10.1829 0
M  V30 12780 H 1693.71 2.00611 10.0304 0
M  V30 12781 H 1692.08 1.41843 9.55327 0
M  V30 12782 H 1694.72 -1.95734 6.03555 0
M  V30 12783 P 1696.58 -1.25109 8.70152 0
M  V30 12784 O 1698 -1.35274 9.21221 0
M  V30 12785 O 1696.22 -0.0769065 7.84762 0
M  V30 12786 O 1696.25 -2.55232 7.81161 0
M  V30 12787 C 1696.09 -3.79939 8.58154 0
M  V30 12788 C 1696.63 -4.94023 7.72785 0
M  V30 12789 O 1695.58 -5.18726 6.91205 0
M  V30 12790 C 1697.85 -4.69597 6.85231 0
M  V30 12791 O 1698.59 -5.83832 6.51337 0
M  V30 12792 C 1697.18 -3.96706 5.66633 0
M  V30 12793 O 1697.98 -4.15414 4.49689 0
M  V30 12794 C 1695.85 -4.66153 5.59313 0
M  V30 12795 H 1695.88 -5.47679 4.85214 0
M  V30 12796 H 1697.06 -2.89008 5.86566 0
M  V30 12797 H 1698.55 -4.0121 7.36511 0
M  V30 12798 H 1696.85 -5.80182 8.37584 0
M  V30 12799 H 1696.66 -3.73517 9.52265 0
M  V30 12800 H 1695.03 -3.97163 8.80359 0
M  V30 12801 H 1697.67 -4.90969 4.01921 0
M  V30 12802 P 1699.53 -5.75688 6.64379 0
M  V30 12803 O 1700.95 -6.11849 7.01846 0
M  V30 12804 O 1699.17 -4.30744 6.56026 0
M  V30 12805 O 1699.21 -6.37042 5.19165 0
M  V30 12806 C 1699.05 -7.83578 5.16515 0
M  V30 12807 C 1699.59 -8.33398 3.83019 0
M  V30 12808 O 1698.53 -8.10074 3.01034 0
M  V30 12809 C 1700.8 -7.65514 3.2257 0
M  V30 12810 O 1701.54 -8.4329 2.32297 0
M  V30 12811 C 1700.13 -6.40075 2.62207 0
M  V30 12812 O 1700.93 -5.92589 1.53712 0
M  V30 12813 C 1698.8 -6.9454 2.18503 0
M  V30 12814 H 1698.83 -7.23063 1.12091 0
M  V30 12815 H 1700.01 -5.6025 3.37201 0
M  V30 12816 H 1701.5 -7.35707 4.02681 0
M  V30 12817 H 1699.8 -9.40912 3.9095 0
M  V30 12818 H 1699.61 -8.29056 5.99158 0
M  V30 12819 H 1697.98 -8.10073 5.25882 0
M  V30 12820 H 1700.62 -6.30324 0.726794 0
M  V30 12821 P 1702.48 -8.4349 2.47671 0
M  V30 12822 O 1703.88 -8.98227 2.65696 0
M  V30 12823 O 1702.1 -7.20409 3.23964 0
M  V30 12824 O 1702.16 -8.16496 0.923275 0
M  V30 12825 C 1702 -9.38437 0.108857 0
M  V30 12826 C 1702.54 -9.08076 -1.28339 0
M  V30 12827 O 1701.48 -8.44131 -1.84692 0
M  V30 12828 C 1703.75 -8.18386 -1.42505 0
M  V30 12829 O 1704.49 -8.3501 -2.60497 0
M  V30 12830 C 1703.09 -6.80225 -1.25468 0
M  V30 12831 O 1703.88 -5.81526 -1.91035 0
M  V30 12832 C 1701.75 -7.02416 -1.9168 0
M  V30 12833 N 1700.7 -6.31033 -1.20314 0
M  V30 12834 C 1699.67 -5.77149 -1.928 0
M  V30 12835 O 1699.71 -5.8521 -3.17729 0
M  V30 12836 N 1698.66 -5.15445 -1.27997 0
M  V30 12837 C 1698.71 -5.04472 0.0534726 0
M  V30 12838 N 1697.7 -4.44183 0.669496 0
M  V30 12839 C 1699.8 -5.55244 0.808522 0
M  V30 12840 C 1700.77 -6.18542 0.13981 0
M  V30 12841 H 1701.78 -6.68789 -2.9658 0
M  V30 12842 H 1702.96 -6.53498 -0.198729 0
M  V30 12843 H 1704.45 -8.36663 -0.5984 0
M  V30 12844 H 1702.75 -10.0273 -1.8081 0
M  V30 12845 H 1702.56 -10.2138 0.558219 0
M  V30 12846 H 1700.93 -9.6569 0.0444156 0
M  V30 12847 H 1699.85 -5.43017 1.88792 0
M  V30 12848 H 1701.61 -6.60539 0.686773 0
M  V30 12849 H 1696.91 -4.07222 0.12057 0
M  V30 12850 H 1697.7 -4.34288 1.69244 0
M  V30 12851 H 1703.67 -5.79638 -2.8315 0
M  V30 12852 P 1705.43 -8.4349 -2.47671 0
M  V30 12853 O 1706.85 -8.92593 -2.65 0
M  V30 12854 O 1705.07 -7.7568 -1.19296 0
M  V30 12855 O 1705.11 -7.36886 -3.63805 0
M  V30 12856 C 1704.95 -7.95349 -4.982 0
M  V30 12857 C 1705.49 -6.94612 -5.98974 0
M  V30 12858 O 1704.43 -6.10347 -6.11815 0
M  V30 12859 C 1706.7 -6.11426 -5.62335 0
M  V30 12860 O 1707.44 -5.6162 -6.70584 0
M  V30 12861 C 1706.04 -5.04409 -4.73308 0
M  V30 12862 O 1706.83 -3.85992 -4.75183 0
M  V30 12863 C 1704.7 -4.8728 -5.41006 0
M  V30 12864 H 1704.73 -4.02333 -6.11157 0
M  V30 12865 H 1705.91 -5.39466 -3.69543 0
M  V30 12866 H 1707.4 -6.71916 -5.01943 0
M  V30 12867 H 1705.7 -7.4649 -6.93477 0
M  V30 12868 H 1705.51 -8.89416 -5.05237 0
M  V30 12869 H 1703.88 -8.14876 -5.18409 0
M  V30 12870 H 1706.52 -3.27957 -5.4317 0
M  V30 12871 P 1708.38 -5.75688 -6.64379 0
M  V30 12872 O 1709.8 -6.07627 -7.05504 0
M  V30 12873 O 1708.02 -5.88047 -5.19722 0
M  V30 12874 O 1708.06 -4.2322 -7.04443 0
M  V30 12875 C 1707.9 -3.99743 -8.4911 0
M  V30 12876 C 1708.44 -2.60516 -8.79425 0
M  V30 12877 O 1707.38 -1.82684 -8.4467 0
M  V30 12878 C 1709.66 -2.10343 -8.03628 0
M  V30 12879 O 1710.39 -1.09919 -8.67766 0
M  V30 12880 C 1708.99 -1.68446 -6.70876 0
M  V30 12881 O 1709.79 -0.678137 -6.08433 0
M  V30 12882 C 1707.65 -1.17436 -7.18567 0
M  V30 12883 H 1707.68 -0.0804732 -7.31656 0
M  V30 12884 H 1708.86 -2.54037 -6.02537 0
M  V30 12885 H 1710.35 -2.93881 -7.85526 0
M  V30 12886 H 1708.65 -2.53065 -9.86973 0
M  V30 12887 H 1708.46 -4.75072 -9.05887 0
M  V30 12888 H 1706.83 -4.05244 -8.76668 0
M  V30 12889 H 1709.47 0.177647 -6.34251 0
M  V30 12890 P 1711.33 -1.25109 -8.70152 0
M  V30 12891 O 1712.75 -1.29744 -9.22016 0
M  V30 12892 O 1710.97 -2.13714 -7.55141 0
M  V30 12893 O 1711.01 0.248149 -8.21425 0
M  V30 12894 C 1710.85 1.22779 -9.30434 0
M  V30 12895 C 1711.39 2.56293 -8.80664 0
M  V30 12896 O 1710.33 3.02979 -8.09349 0
M  V30 12897 C 1712.61 2.57523 -7.89775 0
M  V30 12898 O 1713.34 3.7668 -7.89438 0
M  V30 12899 C 1711.94 2.20997 -6.55446 0
M  V30 12900 O 1712.74 2.71895 -5.48509 0
M  V30 12901 C 1710.6 2.89693 -6.67988 0
M  V30 12902 H 1710.63 3.88793 -6.19859 0
M  V30 12903 H 1711.81 1.12046 -6.44229 0
M  V30 12904 H 1713.3 1.7746 -8.19711 0
M  V30 12905 H 1711.6 3.20706 -9.67112 0
M  V30 12906 H 1711.41 0.901032 -10.1892 0
M  V30 12907 H 1709.78 1.33049 -9.56592 0
M  V30 12908 H 1712.42 3.57847 -5.23962 0
M  V30 12909 P 1714.28 3.65191 -7.99657 0
M  V30 12910 O 1715.7 3.89332 -8.45794 0
M  V30 12911 O 1713.92 2.28472 -7.50807 0
M  V30 12912 O 1713.96 4.64972 -6.77611 0
M  V30 12913 C 1713.8 6.06319 -7.16352 0
M  V30 12914 C 1714.34 6.91731 -6.02299 0
M  V30 12915 O 1713.28 6.92449 -5.17064 0
M  V30 12916 C 1715.56 6.43627 -5.25174 0
M  V30 12917 O 1716.29 7.43686 -4.60469 0
M  V30 12918 C 1714.89 5.40275 -4.31916 0
M  V30 12919 O 1715.69 5.25279 -3.14438 0
M  V30 12920 C 1713.55 6.04847 -4.05327 0
M  V30 12921 H 1713.58 6.62195 -3.11261 0
M  V30 12922 H 1714.77 4.42556 -4.81383 0
M  V30 12923 H 1716.25 5.92458 -5.93643 0
M  V30 12924 H 1714.56 7.92655 -6.402 0
M  V30 12925 H 1714.37 6.26671 -8.0846 0
M  V30 12926 H 1712.74 6.29101 -7.32804 0
M  V30 12927 H 1715.37 5.84315 -2.47318 0
M  V30 12928 P 1717.23 7.39546 -4.75277 0
M  V30 12929 O 1718.65 7.84798 -5.01039 0
M  V30 12930 O 1716.87 5.9812 -5.08098 0
M  V30 12931 O 1716.91 7.57503 -3.1866 0
M  V30 12932 C 1716.75 8.97357 -2.74833 0
M  V30 12933 C 1717.29 9.07548 -1.32709 0
M  V30 12934 O 1716.23 8.62072 -0.606159 0
M  V30 12935 C 1718.51 8.25383 -0.938334 0
M  V30 12936 O 1719.24 8.74577 0.146954 0
M  V30 12937 C 1717.84 6.8802 -0.712559 0
M  V30 12938 O 1718.64 6.1189 0.194655 0
M  V30 12939 C 1716.5 7.27966 -0.139777 0
M  V30 12940 H 1716.53 7.25354 0.961601 0
M  V30 12941 H 1717.72 6.32557 -1.65702 0
M  V30 12942 H 1719.2 8.19355 -1.79097 0
M  V30 12943 H 1717.51 10.1294 -1.10029 0
M  V30 12944 H 1717.32 9.64276 -3.41316 0
M  V30 12945 H 1715.69 9.25417 -2.76357 0
M  V30 12946 H 1718.32 6.25267 1.07847 0
M  V30 12947 P 1720.18 8.791 1.44399e-11 0
M  V30 12948 O 1721.6 9.31096 0.027933 0
M  V30 12949 O 1719.82 7.77869 -1.04071 0
M  V30 12950 O 1719.86 8.09533 1.41463 0
M  V30 12951 C 1719.7 9.0349 2.53943 0
M  V30 12952 C 1720.24 8.35226 3.79016 0
M  V30 12953 O 1719.18 7.57992 4.15078 0
M  V30 12954 C 1721.46 7.45087 3.67298 0
M  V30 12955 O 1722.2 7.27796 4.85194 0
M  V30 12956 C 1720.79 6.17323 3.12027 0
M  V30 12957 O 1721.59 5.04231 3.47188 0
M  V30 12958 C 1719.45 6.19961 3.81809 0
M  V30 12959 H 1719.48 5.58218 4.73051 0
M  V30 12960 H 1720.67 6.21726 2.02589 0
M  V30 12961 H 1722.15 7.86112 2.9231 0
M  V30 12962 H 1720.46 9.11627 4.55076 0
M  V30 12963 H 1720.27 9.9573 2.34194 0
M  V30 12964 H 1718.64 9.2792 2.67832 0
M  V30 12965 H 1721.28 4.67702 4.28772 0
M  V30 12966 P 1723.13 7.39546 4.75277 0
M  V30 12967 O 1724.55 7.81777 5.05738 0
M  V30 12968 O 1722.77 7.1065 3.32998 0
M  V30 12969 O 1722.81 6.04542 5.56673 0
M  V30 12970 C 1722.65 6.22772 7.02095 0
M  V30 12971 C 1723.19 4.97725 7.70406 0
M  V30 12972 O 1722.13 4.13256 7.58987 0
M  V30 12973 C 1724.41 4.28231 7.11815 0
M  V30 12974 O 1725.15 3.49945 8.01648 0
M  V30 12975 C 1723.74 3.5063 5.96244 0
M  V30 12976 O 1724.54 2.36482 5.64681 0
M  V30 12977 C 1722.4 3.15122 6.56374 0
M  V30 12978 H 1722.43 2.13853 6.99751 0
M  V30 12979 H 1723.62 4.13501 5.06559 0
M  V30 12980 H 1725.1 5.03285 6.70911 0
M  V30 12981 H 1723.41 5.20877 8.75697 0
M  V30 12982 H 1723.22 7.11046 7.35349 0
M  V30 12983 H 1721.59 6.35815 7.26986 0
M  V30 12984 H 1724.23 1.61644 6.13565 0
M  V30 12985 P 1726.08 3.65191 7.99657 0
M  V30 12986 O 1727.51 3.8425 8.48115 0
M  V30 12987 O 1725.72 4.17805 6.64342 0
M  V30 12988 O 1725.76 2.07613 7.95143 0
M  V30 12989 C 1725.6 1.44328 9.27336 0
M  V30 12990 C 1726.14 0.0220036 9.17197 0
M  V30 12991 O 1725.08 -0.626867 8.61923 0
M  V30 12992 C 1727.36 -0.24586 8.30336 0
M  V30 12993 O 1728.1 -1.39011 8.63583 0
M  V30 12994 C 1726.69 -0.273849 6.91158 0
M  V30 12995 O 1727.49 -1.06348 6.02892 0
M  V30 12996 C 1725.35 -0.897649 7.22545 0
M  V30 12997 H 1725.38 -1.9841 7.04286 0
M  V30 12998 H 1726.57 0.739928 6.497 0
M  V30 12999 H 1728.05 0.60668 8.36503 0
M  V30 13000 H 1726.36 -0.352479 10.1829 0
M  V30 13001 H 1726.17 2.00611 10.0304 0
M  V30 13002 H 1724.54 1.41843 9.55327 0
M  V30 13003 H 1727.18 -1.95734 6.03555 0
M  V30 13004 P 1729.03 -1.25109 8.70152 0
M  V30 13005 O 1730.46 -1.35288 9.2132 0
M  V30 13006 O 1728.67 -0.0769065 7.84762 0
M  V30 13007 O 1728.71 -2.55232 7.81161 0
M  V30 13008 C 1728.55 -3.79979 8.58246 0
M  V30 13009 C 1729.09 -4.94023 7.72785 0
M  V30 13010 O 1728.04 -5.18666 6.91125 0
M  V30 13011 C 1730.31 -4.69597 6.85231 0
M  V30 13012 O 1731.05 -5.83832 6.51337 0
M  V30 13013 C 1729.64 -3.96706 5.66633 0
M  V30 13014 O 1730.44 -4.14896 4.5003 0
M  V30 13015 C 1728.3 -4.66153 5.59313 0
M  V30 13016 N 1727.26 -3.71582 5.24027 0
M  V30 13017 C 1727.43 -2.39715 5.48833 0
M  V30 13018 N 1726.4 -1.65863 5.12845 0
M  V30 13019 C 1725.52 -2.57637 4.5973 0
M  V30 13020 C 1724.25 -2.40278 4.01027 0
M  V30 13021 N 1723.69 -3.57711 3.59575 0
M  V30 13022 C 1724.29 -4.80324 3.70476 0
M  V30 13023 N 1725.46 -5.01121 4.23801 0
M  V30 13024 C 1726.04 -3.84757 4.66372 0
M  V30 13025 H 1729.52 -2.8955 5.86187 0
M  V30 13026 H 1731 -4.0121 7.36511 0
M  V30 13027 H 1729.31 -5.81019 8.37003 0
M  V30 13028 H 1729.12 -3.73517 9.52265 0
M  V30 13029 H 1727.49 -3.97163 8.80359 0
M  V30 13030 H 1728.33 -1.98804 5.94332 0
M  V30 13031 H 1730.13 -4.90891 4.01857 0
M  V30 13032 P 1731.98 -5.75688 6.64379 0
M  V30 13033 O 1733.41 -6.11849 7.01846 0
M  V30 13034 O 1731.62 -4.30744 6.56026 0
M  V30 13035 O 1731.66 -6.37042 5.19165 0
M  V30 13036 C 1731.5 -7.83578 5.16515 0
M  V30 13037 C 1732.04 -8.33398 3.83019 0
M  V30 13038 O 1730.99 -8.10074 3.01034 0
M  V30 13039 C 1733.26 -7.65514 3.2257 0
M  V30 13040 O 1734 -8.4329 2.32297 0
M  V30 13041 C 1732.59 -6.40075 2.62207 0
M  V30 13042 O 1733.39 -5.92589 1.53712 0
M  V30 13043 C 1731.25 -6.9454 2.18503 0
M  V30 13044 H 1731.29 -7.23063 1.12091 0
M  V30 13045 H 1732.47 -5.6025 3.37201 0
M  V30 13046 H 1733.95 -7.35707 4.02681 0
M  V30 13047 H 1732.26 -9.40912 3.9095 0
M  V30 13048 H 1732.07 -8.29056 5.99158 0
M  V30 13049 H 1730.44 -8.10073 5.25882 0
M  V30 13050 H 1733.08 -6.30324 0.726794 0
M  V30 13051 P 1734.94 -8.4349 2.47671 0
M  V30 13052 O 1736.36 -8.94167 2.5964 0
M  V30 13053 O 1734.58 -7.1704 3.19006 0
M  V30 13054 O 1734.61 -8.16596 0.923387 0
M  V30 13055 C 1734.45 -9.38437 0.108857 0
M  V30 13056 C 1734.99 -9.08175 -1.28353 0
M  V30 13057 O 1733.94 -8.44229 -1.84713 0
M  V30 13058 C 1736.21 -8.18386 -1.42505 0
M  V30 13059 O 1736.95 -8.3501 -2.60497 0
M  V30 13060 C 1735.54 -6.80225 -1.25468 0
M  V30 13061 O 1736.34 -5.81621 -1.91066 0
M  V30 13062 C 1734.2 -7.02416 -1.9168 0
M  V30 13063 H 1734.24 -6.6888 -2.96621 0
M  V30 13064 H 1735.42 -6.53617 -0.192223 0
M  V30 13065 H 1736.9 -8.36622 -0.589963 0
M  V30 13066 H 1735.21 -10.0291 -1.79807 0
M  V30 13067 H 1735.02 -10.2138 0.558219 0
M  V30 13068 H 1733.39 -9.6579 0.0444202 0
M  V30 13069 H 1736.03 -5.69556 -2.79637 0
M  V30 13070 P 1737.89 -8.4349 -2.47671 0
M  V30 13071 O 1739.31 -8.92593 -2.65 0
M  V30 13072 O 1737.53 -7.7568 -1.19296 0
M  V30 13073 O 1737.56 -7.36886 -3.63805 0
M  V30 13074 C 1737.4 -7.95349 -4.982 0
M  V30 13075 C 1737.94 -6.94612 -5.98974 0
M  V30 13076 O 1736.89 -6.10347 -6.11815 0
M  V30 13077 C 1739.16 -6.11426 -5.62335 0
M  V30 13078 O 1739.9 -5.6162 -6.70584 0
M  V30 13079 C 1738.49 -5.04409 -4.73308 0
M  V30 13080 O 1739.29 -3.85992 -4.75183 0
M  V30 13081 C 1737.15 -4.8728 -5.41006 0
M  V30 13082 H 1737.19 -4.02333 -6.11157 0
M  V30 13083 H 1738.37 -5.39466 -3.69543 0
M  V30 13084 H 1739.85 -6.71916 -5.01943 0
M  V30 13085 H 1738.16 -7.4649 -6.93477 0
M  V30 13086 H 1737.97 -8.89416 -5.05237 0
M  V30 13087 H 1736.34 -8.14876 -5.18409 0
M  V30 13088 H 1738.98 -3.27957 -5.4317 0
M  V30 13089 P 1740.84 -5.75688 -6.64379 0
M  V30 13090 O 1742.26 -6.07627 -7.05504 0
M  V30 13091 O 1740.48 -5.88047 -5.19722 0
M  V30 13092 O 1740.51 -4.2322 -7.04443 0
M  V30 13093 C 1740.35 -3.99743 -8.4911 0
M  V30 13094 C 1740.89 -2.60516 -8.79425 0
M  V30 13095 O 1739.84 -1.82684 -8.4467 0
M  V30 13096 C 1742.11 -2.10343 -8.03628 0
M  V30 13097 O 1742.85 -1.09919 -8.67766 0
M  V30 13098 C 1741.44 -1.68446 -6.70876 0
M  V30 13099 O 1742.24 -0.678137 -6.08433 0
M  V30 13100 C 1740.11 -1.17436 -7.18567 0
M  V30 13101 H 1740.14 -0.0804732 -7.31656 0
M  V30 13102 H 1741.32 -2.54037 -6.02537 0
M  V30 13103 H 1742.8 -2.93881 -7.85526 0
M  V30 13104 H 1741.11 -2.53065 -9.86973 0
M  V30 13105 H 1740.92 -4.75072 -9.05887 0
M  V30 13106 H 1739.29 -4.05244 -8.76668 0
M  V30 13107 H 1741.93 0.177647 -6.34251 0
M  V30 13108 P 1743.79 -1.25109 -8.70152 0
M  V30 13109 O 1745.21 -1.29744 -9.22016 0
M  V30 13110 O 1743.43 -2.13714 -7.55141 0
M  V30 13111 O 1743.46 0.248149 -8.21425 0
M  V30 13112 C 1743.3 1.22779 -9.30434 0
M  V30 13113 C 1743.84 2.56293 -8.80664 0
M  V30 13114 O 1742.79 3.02979 -8.09349 0
M  V30 13115 C 1745.06 2.57523 -7.89775 0
M  V30 13116 O 1745.8 3.7668 -7.89438 0
M  V30 13117 C 1744.39 2.20997 -6.55446 0
M  V30 13118 O 1745.19 2.71895 -5.48509 0
M  V30 13119 C 1743.06 2.89693 -6.67988 0
M  V30 13120 H 1743.09 3.88793 -6.19859 0
M  V30 13121 H 1744.27 1.12046 -6.44229 0
M  V30 13122 H 1745.75 1.7746 -8.19711 0
M  V30 13123 H 1744.06 3.20706 -9.67112 0
M  V30 13124 H 1743.87 0.901032 -10.1892 0
M  V30 13125 H 1742.24 1.33049 -9.56592 0
M  V30 13126 H 1744.88 3.57847 -5.23962 0
M  V30 13127 P 1746.74 3.65191 -7.99657 0
M  V30 13128 O 1748.16 3.89332 -8.45794 0
M  V30 13129 O 1746.38 2.28472 -7.50807 0
M  V30 13130 O 1746.41 4.64972 -6.77611 0
M  V30 13131 C 1746.25 6.06319 -7.16352 0
M  V30 13132 C 1746.79 6.91731 -6.02299 0
M  V30 13133 O 1745.74 6.92449 -5.17064 0
M  V30 13134 C 1748.01 6.43627 -5.25174 0
M  V30 13135 O 1748.75 7.43686 -4.60469 0
M  V30 13136 C 1747.34 5.40275 -4.31916 0
M  V30 13137 O 1748.14 5.25279 -3.14438 0
M  V30 13138 C 1746.01 6.04847 -4.05327 0
M  V30 13139 H 1746.04 6.62195 -3.11261 0
M  V30 13140 H 1747.22 4.42556 -4.81383 0
M  V30 13141 H 1748.71 5.92458 -5.93643 0
M  V30 13142 H 1747.01 7.92655 -6.402 0
M  V30 13143 H 1746.82 6.26671 -8.0846 0
M  V30 13144 H 1745.19 6.29101 -7.32804 0
M  V30 13145 H 1747.83 5.84315 -2.47318 0
M  V30 13146 P 1749.69 7.39546 -4.75277 0
M  V30 13147 O 1751.11 7.84798 -5.01039 0
M  V30 13148 O 1749.33 5.9812 -5.08098 0
M  V30 13149 O 1749.37 7.57503 -3.1866 0
M  V30 13150 C 1749.21 8.97357 -2.74833 0
M  V30 13151 C 1749.75 9.07548 -1.32709 0
M  V30 13152 O 1748.69 8.62072 -0.606159 0
M  V30 13153 C 1750.96 8.25383 -0.938334 0
M  V30 13154 O 1751.7 8.74577 0.146954 0
M  V30 13155 C 1750.29 6.8802 -0.712559 0
M  V30 13156 O 1751.09 6.1189 0.194655 0
M  V30 13157 C 1748.96 7.27966 -0.139777 0
M  V30 13158 H 1748.99 7.25354 0.961601 0
M  V30 13159 H 1750.17 6.32557 -1.65702 0
M  V30 13160 H 1751.66 8.19355 -1.79097 0
M  V30 13161 H 1749.96 10.1294 -1.10029 0
M  V30 13162 H 1749.77 9.64276 -3.41316 0
M  V30 13163 H 1748.14 9.25417 -2.76357 0
M  V30 13164 H 1750.78 6.25267 1.07847 0
M  V30 13165 P 1752.64 8.791 1.47501e-11 0
M  V30 13166 O 1754.06 9.31196 0.027936 0
M  V30 13167 O 1752.28 7.77869 -1.04071 0
M  V30 13168 O 1752.32 8.09533 1.41463 0
M  V30 13169 C 1752.15 9.03587 2.5397 0
M  V30 13170 C 1752.7 8.35226 3.79016 0
M  V30 13171 O 1751.64 7.57904 4.1503 0
M  V30 13172 C 1753.91 7.45087 3.67298 0
M  V30 13173 O 1754.65 7.27796 4.85194 0
M  V30 13174 C 1753.25 6.17323 3.12027 0
M  V30 13175 O 1754.04 5.04496 3.46627 0
M  V30 13176 C 1751.91 6.19961 3.81809 0
M  V30 13177 N 1750.86 5.71575 2.93223 0
M  V30 13178 C 1751.03 5.77362 1.59168 0
M  V30 13179 N 1750.01 5.3123 0.911893 0
M  V30 13180 C 1749.12 4.91717 1.89588 0
M  V30 13181 C 1747.85 4.3114 1.8076 0
M  V30 13182 N 1747.26 3.99821 0.632928 0
M  V30 13183 N 1747.29 4.06823 3.02898 0
M  V30 13184 C 1747.89 4.35062 4.22711 0
M  V30 13185 N 1749.07 4.90805 4.35707 0
M  V30 13186 C 1749.64 5.16382 3.14469 0
M  V30 13187 H 1751.94 5.58142 4.72986 0
M  V30 13188 H 1753.12 6.21428 2.0318 0
M  V30 13189 H 1754.61 7.86112 2.9231 0
M  V30 13190 H 1752.91 9.11171 4.55987 0
M  V30 13191 H 1752.72 9.9573 2.34194 0
M  V30 13192 H 1751.09 9.2792 2.67832 0
M  V30 13193 H 1747.36 4.09052 5.13359 0
M  V30 13194 H 1751.93 6.16575 1.12198 0
M  V30 13195 H 1746.33 3.55423 0.632085 0
M  V30 13196 H 1747.73 4.20317 -0.256712 0
M  V30 13197 H 1753.73 4.67628 4.28704 0
M  V30 13198 P 1755.59 7.39546 4.75277 0
M  V30 13199 O 1757.01 7.81777 5.05738 0
M  V30 13200 O 1755.23 7.1065 3.32998 0
M  V30 13201 O 1755.27 6.04542 5.56673 0
M  V30 13202 C 1755.11 6.22772 7.02095 0
M  V30 13203 C 1755.65 4.97725 7.70406 0
M  V30 13204 O 1754.59 4.13256 7.58987 0
M  V30 13205 C 1756.86 4.28231 7.11815 0
M  V30 13206 O 1757.6 3.49945 8.01648 0
M  V30 13207 C 1756.2 3.5063 5.96244 0
M  V30 13208 O 1756.99 2.36482 5.64681 0
M  V30 13209 C 1754.86 3.15122 6.56374 0
M  V30 13210 H 1754.89 2.13853 6.99751 0
M  V30 13211 H 1756.07 4.13501 5.06559 0
M  V30 13212 H 1757.56 5.03285 6.70911 0
M  V30 13213 H 1755.86 5.20877 8.75697 0
M  V30 13214 H 1755.67 7.11046 7.35349 0
M  V30 13215 H 1754.04 6.35815 7.26986 0
M  V30 13216 H 1756.68 1.61644 6.13565 0
M  V30 13217 P 1758.54 3.65191 7.99657 0
M  V30 13218 O 1759.96 3.84333 8.48297 0
M  V30 13219 O 1758.18 4.17805 6.64342 0
M  V30 13220 O 1758.22 2.07613 7.95143 0
M  V30 13221 C 1758.06 1.44328 9.27336 0
M  V30 13222 C 1758.6 0.0220012 9.17097 0
M  V30 13223 O 1757.54 -0.626867 8.61923 0
M  V30 13224 C 1759.81 -0.24586 8.30336 0
M  V30 13225 O 1760.55 -1.39011 8.63583 0
M  V30 13226 C 1759.15 -0.273849 6.91158 0
M  V30 13227 O 1759.94 -1.06331 6.02794 0
M  V30 13228 C 1757.81 -0.897649 7.22545 0
M  V30 13229 N 1756.77 -0.292839 6.41732 0
M  V30 13230 C 1756.83 1.00068 6.10757 0
M  V30 13231 N 1755.78 1.36468 5.35794 0
M  V30 13232 C 1755.05 0.258894 5.2366 0
M  V30 13233 C 1753.74 0.0670682 4.65752 0
M  V30 13234 O 1753.01 0.902443 4.10497 0
M  V30 13235 N 1753.31 -1.2131 4.75881 0
M  V30 13236 C 1754.06 -2.24934 5.37101 0
M  V30 13237 N 1753.46 -3.48783 5.33984 0
M  V30 13238 N 1755.21 -2.0844 5.95684 0
M  V30 13239 C 1755.67 -0.81395 5.87791 0
M  V30 13240 H 1757.84 -1.9841 7.04286 0
M  V30 13241 H 1759.02 0.739815 6.49601 0
M  V30 13242 H 1760.51 0.598315 8.36563 0
M  V30 13243 H 1758.81 -0.352479 10.1829 0
M  V30 13244 H 1758.62 2.00611 10.0304 0
M  V30 13245 H 1756.99 1.41843 9.55327 0
M  V30 13246 H 1752.42 -1.44434 4.37895 0
M  V30 13247 H 1757.62 1.67697 6.42268 0
M  V30 13248 H 1752.55 -3.60543 4.87699 0
M  V30 13249 H 1753.93 -4.29232 5.7819 0
M  V30 13250 H 1759.63 -1.95704 6.0346 0
M  V30 13251 P 1761.49 -1.25109 8.70152 0
M  V30 13252 O 1762.91 -1.35274 9.21221 0
M  V30 13253 O 1761.13 -0.0769065 7.84762 0
M  V30 13254 O 1761.17 -2.55232 7.81161 0
M  V30 13255 C 1761.01 -3.79939 8.58154 0
M  V30 13256 C 1761.55 -4.94023 7.72785 0
M  V30 13257 O 1760.49 -5.18726 6.91205 0
M  V30 13258 C 1762.77 -4.69597 6.85231 0
M  V30 13259 O 1763.5 -5.83832 6.51337 0
M  V30 13260 C 1762.1 -3.96706 5.66633 0
M  V30 13261 O 1762.9 -4.15414 4.49689 0
M  V30 13262 C 1760.76 -4.66153 5.59313 0
M  V30 13263 H 1760.79 -5.47679 4.85214 0
M  V30 13264 H 1761.97 -2.89008 5.86566 0
M  V30 13265 H 1763.46 -4.0121 7.36511 0
M  V30 13266 H 1761.76 -5.80182 8.37584 0
M  V30 13267 H 1761.57 -3.73517 9.52265 0
M  V30 13268 H 1759.94 -3.97163 8.80359 0
M  V30 13269 H 1762.58 -4.90969 4.01921 0
M  V30 13270 P 1764.44 -5.75688 6.64379 0
M  V30 13271 O 1765.86 -6.11849 7.01846 0
M  V30 13272 O 1764.08 -4.30744 6.56026 0
M  V30 13273 O 1764.12 -6.37042 5.19165 0
M  V30 13274 C 1763.96 -7.83578 5.16515 0
M  V30 13275 C 1764.5 -8.33398 3.83019 0
M  V30 13276 O 1763.44 -8.10074 3.01034 0
M  V30 13277 C 1765.72 -7.65514 3.2257 0
M  V30 13278 O 1766.45 -8.4329 2.32297 0
M  V30 13279 C 1765.05 -6.40075 2.62207 0
M  V30 13280 O 1765.85 -5.92589 1.53712 0
M  V30 13281 C 1763.71 -6.9454 2.18503 0
M  V30 13282 H 1763.74 -7.23063 1.12091 0
M  V30 13283 H 1764.92 -5.6025 3.37201 0
M  V30 13284 H 1766.41 -7.35707 4.02681 0
M  V30 13285 H 1764.71 -9.40912 3.9095 0
M  V30 13286 H 1764.52 -8.29056 5.99158 0
M  V30 13287 H 1762.89 -8.10073 5.25882 0
M  V30 13288 H 1765.53 -6.30324 0.726794 0
M  V30 13289 P 1767.39 -8.4349 2.47671 0
M  V30 13290 O 1768.81 -8.94167 2.5964 0
M  V30 13291 O 1767.03 -7.1704 3.19006 0
M  V30 13292 O 1767.07 -8.16596 0.923387 0
M  V30 13293 C 1766.91 -9.38437 0.108857 0
M  V30 13294 C 1767.45 -9.08175 -1.28353 0
M  V30 13295 O 1766.39 -8.44229 -1.84713 0
M  V30 13296 C 1768.67 -8.18386 -1.42505 0
M  V30 13297 O 1769.4 -8.3501 -2.60497 0
M  V30 13298 C 1768 -6.80225 -1.25468 0
M  V30 13299 O 1768.8 -5.81621 -1.91066 0
M  V30 13300 C 1766.66 -7.02416 -1.9168 0
M  V30 13301 H 1766.69 -6.6888 -2.96621 0
M  V30 13302 H 1767.88 -6.53617 -0.192223 0
M  V30 13303 H 1769.36 -8.36622 -0.589963 0
M  V30 13304 H 1767.67 -10.0291 -1.79807 0
M  V30 13305 H 1767.48 -10.2138 0.558219 0
M  V30 13306 H 1765.85 -9.6579 0.0444202 0
M  V30 13307 H 1768.48 -5.69556 -2.79637 0
M  V30 13308 P 1770.34 -8.4349 -2.47671 0
M  V30 13309 O 1771.76 -8.92785 -2.65057 0
M  V30 13310 O 1769.98 -7.7568 -1.19296 0
M  V30 13311 O 1770.02 -7.36886 -3.63805 0
M  V30 13312 C 1769.86 -7.95349 -4.982 0
M  V30 13313 C 1770.4 -6.94537 -5.98908 0
M  V30 13314 O 1769.34 -6.10347 -6.11815 0
M  V30 13315 C 1771.62 -6.11426 -5.62335 0
M  V30 13316 O 1772.35 -5.6162 -6.70584 0
M  V30 13317 C 1770.95 -5.04409 -4.73308 0
M  V30 13318 O 1771.75 -3.85929 -4.75106 0
M  V30 13319 C 1769.61 -4.8728 -5.41006 0
M  V30 13320 N 1768.57 -4.65812 -4.42377 0
M  V30 13321 C 1768.63 -5.27109 -3.24335 0
M  V30 13322 N 1767.58 -4.94293 -2.47735 0
M  V30 13323 C 1766.85 -4.1271 -3.23359 0
M  V30 13324 C 1765.54 -3.56384 -2.99934 0
M  V30 13325 O 1764.81 -3.69331 -2.00616 0
M  V30 13326 N 1765.11 -2.80206 -4.03316 0
M  V30 13327 C 1765.86 -2.58614 -5.2172 0
M  V30 13328 N 1765.27 -1.75154 -6.13278 0
M  V30 13329 N 1767.02 -3.13689 -5.47619 0
M  V30 13330 C 1767.47 -3.90921 -4.46436 0
M  V30 13331 H 1769.64 -4.02333 -6.11157 0
M  V30 13332 H 1770.83 -5.39383 -3.69487 0
M  V30 13333 H 1772.31 -6.71414 -5.02615 0
M  V30 13334 H 1770.62 -7.4649 -6.93477 0
M  V30 13335 H 1770.43 -8.89416 -5.05237 0
M  V30 13336 H 1768.79 -8.14876 -5.18409 0
M  V30 13337 H 1764.22 -2.36355 -3.95916 0
M  V30 13338 H 1769.43 -5.95212 -2.93859 0
M  V30 13339 H 1764.36 -1.32473 -5.91856 0
M  V30 13340 H 1765.73 -1.5588 -7.03026 0
M  V30 13341 H 1771.44 -3.27906 -5.43085 0
M  V30 13342 P 1773.29 -5.75688 -6.64379 0
M  V30 13343 O 1774.71 -6.07627 -7.05504 0
M  V30 13344 O 1772.93 -5.88047 -5.19722 0
M  V30 13345 O 1772.97 -4.2322 -7.04443 0
M  V30 13346 C 1772.81 -3.99743 -8.4911 0
M  V30 13347 C 1773.35 -2.60516 -8.79425 0
M  V30 13348 O 1772.29 -1.82684 -8.4467 0
M  V30 13349 C 1774.57 -2.10343 -8.03628 0
M  V30 13350 O 1775.31 -1.09919 -8.67766 0
M  V30 13351 C 1773.9 -1.68446 -6.70876 0
M  V30 13352 O 1774.7 -0.678137 -6.08433 0
M  V30 13353 C 1772.56 -1.17436 -7.18567 0
M  V30 13354 H 1772.59 -0.0804732 -7.31656 0
M  V30 13355 H 1773.78 -2.54037 -6.02537 0
M  V30 13356 H 1775.26 -2.93881 -7.85526 0
M  V30 13357 H 1773.57 -2.53065 -9.86973 0
M  V30 13358 H 1773.38 -4.75072 -9.05887 0
M  V30 13359 H 1771.75 -4.05244 -8.76668 0
M  V30 13360 H 1774.39 0.177647 -6.34251 0
M  V30 13361 P 1776.24 -1.25109 -8.70152 0
M  V30 13362 O 1777.67 -1.29744 -9.22016 0
M  V30 13363 O 1775.88 -2.13714 -7.55141 0
M  V30 13364 O 1775.92 0.248149 -8.21425 0
M  V30 13365 C 1775.76 1.22779 -9.30434 0
M  V30 13366 C 1776.3 2.56293 -8.80664 0
M  V30 13367 O 1775.24 3.02979 -8.09349 0
M  V30 13368 C 1777.52 2.57523 -7.89775 0
M  V30 13369 O 1778.26 3.7668 -7.89438 0
M  V30 13370 C 1776.85 2.20997 -6.55446 0
M  V30 13371 O 1777.65 2.71895 -5.48509 0
M  V30 13372 C 1775.51 2.89693 -6.67988 0
M  V30 13373 H 1775.54 3.88793 -6.19859 0
M  V30 13374 H 1776.73 1.12046 -6.44229 0
M  V30 13375 H 1778.21 1.7746 -8.19711 0
M  V30 13376 H 1776.52 3.20706 -9.67112 0
M  V30 13377 H 1776.33 0.901032 -10.1892 0
M  V30 13378 H 1774.7 1.33049 -9.56592 0
M  V30 13379 H 1777.34 3.57847 -5.23962 0
M  V30 13380 P 1779.19 3.65191 -7.99657 0
M  V30 13381 O 1780.62 3.89332 -8.45794 0
M  V30 13382 O 1778.83 2.28472 -7.50807 0
M  V30 13383 O 1778.87 4.64972 -6.77611 0
M  V30 13384 C 1778.71 6.06319 -7.16352 0
M  V30 13385 C 1779.25 6.91731 -6.02299 0
M  V30 13386 O 1778.19 6.92449 -5.17064 0
M  V30 13387 C 1780.47 6.43627 -5.25174 0
M  V30 13388 O 1781.21 7.43686 -4.60469 0
M  V30 13389 C 1779.8 5.40275 -4.31916 0
M  V30 13390 O 1780.6 5.25279 -3.14438 0
M  V30 13391 C 1778.46 6.04847 -4.05327 0
M  V30 13392 H 1778.49 6.62195 -3.11261 0
M  V30 13393 H 1779.68 4.42556 -4.81383 0
M  V30 13394 H 1781.16 5.92458 -5.93643 0
M  V30 13395 H 1779.47 7.92655 -6.402 0
M  V30 13396 H 1779.28 6.26671 -8.0846 0
M  V30 13397 H 1777.65 6.29101 -7.32804 0
M  V30 13398 H 1780.29 5.84315 -2.47318 0
M  V30 13399 P 1782.14 7.39546 -4.75277 0
M  V30 13400 O 1783.57 7.84882 -5.01092 0
M  V30 13401 O 1781.78 5.9812 -5.08098 0
M  V30 13402 O 1781.82 7.57503 -3.1866 0
M  V30 13403 C 1781.66 8.97452 -2.74862 0
M  V30 13404 C 1782.2 9.07548 -1.32709 0
M  V30 13405 O 1781.15 8.61972 -0.606089 0
M  V30 13406 C 1783.42 8.25383 -0.938334 0
M  V30 13407 O 1784.16 8.74577 0.146954 0
M  V30 13408 C 1782.75 6.8802 -0.712559 0
M  V30 13409 O 1783.55 6.1181 0.188505 0
M  V30 13410 C 1781.41 7.27966 -0.139777 0
M  V30 13411 N 1780.37 6.39368 -0.623421 0
M  V30 13412 C 1780.54 5.71761 -1.78245 0
M  V30 13413 N 1779.51 4.962 -2.10491 0
M  V30 13414 C 1778.63 5.16158 -1.0635 0
M  V30 13415 C 1777.36 4.60425 -0.810266 0
M  V30 13416 N 1776.8 5.06 0.348685 0
M  V30 13417 C 1777.4 5.94532 1.20395 0
M  V30 13418 N 1778.57 6.48452 1.01191 0
M  V30 13419 C 1779.15 6.04423 -0.146291 0
M  V30 13420 H 1782.63 6.32625 -1.65044 0
M  V30 13421 H 1784.11 8.19355 -1.79097 0
M  V30 13422 H 1782.42 10.1305 -1.09016 0
M  V30 13423 H 1782.23 9.64276 -3.41316 0
M  V30 13424 H 1780.6 9.25417 -2.76357 0
M  V30 13425 H 1781.44 5.79354 -2.38959 0
M  V30 13426 H 1783.24 6.25169 1.0783 0
M  V30 13427 P 1785.09 8.791 1.50603e-11 0
M  V30 13428 O 1786.52 9.31096 0.027933 0
M  V30 13429 O 1784.73 7.77869 -1.04071 0
M  V30 13430 O 1784.77 8.09533 1.41463 0
M  V30 13431 C 1784.61 9.0349 2.53943 0
M  V30 13432 C 1785.15 8.35226 3.79016 0
M  V30 13433 O 1784.1 7.57992 4.15078 0
M  V30 13434 C 1786.37 7.45087 3.67298 0
M  V30 13435 O 1787.11 7.27796 4.85194 0
M  V30 13436 C 1785.7 6.17323 3.12027 0
M  V30 13437 O 1786.5 5.04231 3.47188 0
M  V30 13438 C 1784.36 6.19961 3.81809 0
M  V30 13439 H 1784.4 5.58218 4.73051 0
M  V30 13440 H 1785.58 6.21726 2.02589 0
M  V30 13441 H 1787.06 7.86112 2.9231 0
M  V30 13442 H 1785.37 9.11627 4.55076 0
M  V30 13443 H 1785.18 9.9573 2.34194 0
M  V30 13444 H 1783.55 9.2792 2.67832 0
M  V30 13445 H 1786.19 4.67702 4.28772 0
M  V30 13446 P 1788.05 7.39546 4.75277 0
M  V30 13447 O 1789.47 7.81777 5.05738 0
M  V30 13448 O 1787.69 7.1065 3.32998 0
M  V30 13449 O 1787.72 6.04542 5.56673 0
M  V30 13450 C 1787.56 6.22772 7.02095 0
M  V30 13451 C 1788.1 4.97725 7.70406 0
M  V30 13452 O 1787.05 4.13256 7.58987 0
M  V30 13453 C 1789.32 4.28231 7.11815 0
M  V30 13454 O 1790.06 3.49945 8.01648 0
M  V30 13455 C 1788.65 3.5063 5.96244 0
M  V30 13456 O 1789.45 2.36482 5.64681 0
M  V30 13457 C 1787.31 3.15122 6.56374 0
M  V30 13458 H 1787.35 2.13853 6.99751 0
M  V30 13459 H 1788.53 4.13501 5.06559 0
M  V30 13460 H 1790.01 5.03285 6.70911 0
M  V30 13461 H 1788.32 5.20877 8.75697 0
M  V30 13462 H 1788.13 7.11046 7.35349 0
M  V30 13463 H 1786.5 6.35815 7.26986 0
M  V30 13464 H 1789.14 1.61644 6.13565 0
M  V30 13465 P 1791 3.65191 7.99657 0
M  V30 13466 O 1792.42 3.8425 8.48115 0
M  V30 13467 O 1790.64 4.17805 6.64342 0
M  V30 13468 O 1790.67 2.07613 7.95143 0
M  V30 13469 C 1790.51 1.44328 9.27336 0
M  V30 13470 C 1791.05 0.0220036 9.17197 0
M  V30 13471 O 1790 -0.626867 8.61923 0
M  V30 13472 C 1792.27 -0.24586 8.30336 0
M  V30 13473 O 1793.01 -1.39011 8.63583 0
M  V30 13474 C 1791.6 -0.273849 6.91158 0
M  V30 13475 O 1792.4 -1.06348 6.02892 0
M  V30 13476 C 1790.26 -0.897649 7.22545 0
M  V30 13477 H 1790.3 -1.9841 7.04286 0
M  V30 13478 H 1791.48 0.739928 6.497 0
M  V30 13479 H 1792.96 0.60668 8.36503 0
M  V30 13480 H 1791.27 -0.352479 10.1829 0
M  V30 13481 H 1791.08 2.00611 10.0304 0
M  V30 13482 H 1789.45 1.41843 9.55327 0
M  V30 13483 H 1792.09 -1.95734 6.03555 0
M  V30 13484 P 1793.95 -1.25109 8.70152 0
M  V30 13485 O 1795.37 -1.35303 9.21419 0
M  V30 13486 O 1793.59 -0.0769065 7.84762 0
M  V30 13487 O 1793.62 -2.55232 7.81161 0
M  V30 13488 C 1793.46 -3.79939 8.58154 0
M  V30 13489 C 1794 -4.93969 7.72701 0
M  V30 13490 O 1792.95 -5.18726 6.91205 0
M  V30 13491 C 1795.22 -4.69597 6.85231 0
M  V30 13492 O 1795.96 -5.83832 6.51337 0
M  V30 13493 C 1794.55 -3.96706 5.66633 0
M  V30 13494 O 1795.35 -4.15346 4.49615 0
M  V30 13495 C 1793.22 -4.66153 5.59313 0
M  V30 13496 N 1792.17 -3.71582 5.24027 0
M  V30 13497 C 1792.23 -2.46018 5.67902 0
M  V30 13498 N 1791.19 -1.74868 5.24518 0
M  V30 13499 C 1790.46 -2.61333 4.54528 0
M  V30 13500 C 1789.15 -2.46162 3.95441 0
M  V30 13501 O 1788.42 -1.46013 3.94122 0
M  V30 13502 N 1788.72 -3.59334 3.34752 0
M  V30 13503 C 1789.47 -4.79605 3.3023 0
M  V30 13504 N 1788.87 -5.82109 2.6065 0
M  V30 13505 N 1790.62 -4.97402 3.8843 0
M  V30 13506 C 1791.08 -3.86258 4.50476 0
M  V30 13507 H 1793.25 -5.47679 4.85214 0
M  V30 13508 H 1794.43 -2.88964 5.86476 0
M  V30 13509 H 1795.92 -4.01947 7.36109 0
M  V30 13510 H 1794.22 -5.80182 8.37584 0
M  V30 13511 H 1794.03 -3.73517 9.52265 0
M  V30 13512 H 1792.4 -3.97163 8.80359 0
M  V30 13513 H 1787.82 -3.5825 2.90294 0
M  V30 13514 H 1793.03 -2.06161 6.30974 0
M  V30 13515 H 1787.96 -5.66979 2.15354 0
M  V30 13516 H 1789.34 -6.73686 2.54344 0
M  V30 13517 H 1795.04 -4.90891 4.01857 0
M  V30 13518 P 1796.9 -5.75688 6.64379 0
M  V30 13519 O 1798.32 -6.11849 7.01846 0
M  V30 13520 O 1796.54 -4.30744 6.56026 0
M  V30 13521 O 1796.57 -6.37042 5.19165 0
M  V30 13522 C 1796.41 -7.83578 5.16515 0
M  V30 13523 C 1796.95 -8.33398 3.83019 0
M  V30 13524 O 1795.9 -8.10074 3.01034 0
M  V30 13525 C 1798.17 -7.65514 3.2257 0
M  V30 13526 O 1798.91 -8.4329 2.32297 0
M  V30 13527 C 1797.5 -6.40075 2.62207 0
M  V30 13528 O 1798.3 -5.92589 1.53712 0
M  V30 13529 C 1796.17 -6.9454 2.18503 0
M  V30 13530 H 1796.2 -7.23063 1.12091 0
M  V30 13531 H 1797.38 -5.6025 3.37201 0
M  V30 13532 H 1798.87 -7.35707 4.02681 0
M  V30 13533 H 1797.17 -9.40912 3.9095 0
M  V30 13534 H 1796.98 -8.29056 5.99158 0
M  V30 13535 H 1795.35 -8.10073 5.25882 0
M  V30 13536 H 1797.99 -6.30324 0.726794 0
M  V30 13537 P 1799.85 -8.4349 2.47671 0
M  V30 13538 O 1801.25 -8.98227 2.65696 0
M  V30 13539 O 1799.47 -7.20409 3.23964 0
M  V30 13540 O 1799.52 -8.16496 0.923275 0
M  V30 13541 C 1799.36 -9.38437 0.108857 0
M  V30 13542 C 1799.9 -9.08076 -1.28339 0
M  V30 13543 O 1798.85 -8.44131 -1.84692 0
M  V30 13544 C 1801.12 -8.18386 -1.42505 0
M  V30 13545 O 1801.86 -8.3501 -2.60497 0
M  V30 13546 C 1800.45 -6.80225 -1.25468 0
M  V30 13547 O 1801.25 -5.81526 -1.91035 0
M  V30 13548 C 1799.12 -7.02416 -1.9168 0
M  V30 13549 N 1798.07 -6.31033 -1.20314 0
M  V30 13550 C 1797.04 -5.77149 -1.928 0
M  V30 13551 O 1797.08 -5.8521 -3.17729 0
M  V30 13552 N 1796.03 -5.15445 -1.27997 0
M  V30 13553 C 1796.07 -5.04472 0.0534726 0
M  V30 13554 C 1797.17 -5.55244 0.808522 0
M  V30 13555 C 1798.14 -6.18542 0.13981 0
M  V30 13556 H 1799.15 -6.68789 -2.9658 0
M  V30 13557 H 1800.33 -6.53498 -0.198729 0
M  V30 13558 H 1801.82 -8.36663 -0.5984 0
M  V30 13559 H 1800.12 -10.0273 -1.8081 0
M  V30 13560 H 1799.93 -10.2138 0.558219 0
M  V30 13561 H 1798.3 -9.6569 0.0444156 0
M  V30 13562 H 1797.22 -5.43017 1.88792 0
M  V30 13563 H 1798.98 -6.60539 0.686773 0
M  V30 13564 H 1801.04 -5.79638 -2.8315 0
M  V30 13565 P 1802.8 -8.4349 -2.47671 0
M  V30 13566 O 1804.22 -8.92593 -2.65 0
M  V30 13567 O 1802.44 -7.7568 -1.19296 0
M  V30 13568 O 1802.48 -7.36886 -3.63805 0
M  V30 13569 C 1802.32 -7.95349 -4.982 0
M  V30 13570 C 1802.86 -6.94612 -5.98974 0
M  V30 13571 O 1801.8 -6.10347 -6.11815 0
M  V30 13572 C 1804.07 -6.11426 -5.62335 0
M  V30 13573 O 1804.81 -5.6162 -6.70584 0
M  V30 13574 C 1803.4 -5.04409 -4.73308 0
M  V30 13575 O 1804.2 -3.85992 -4.75183 0
M  V30 13576 C 1802.07 -4.8728 -5.41006 0
M  V30 13577 H 1802.1 -4.02333 -6.11157 0
M  V30 13578 H 1803.28 -5.39466 -3.69543 0
M  V30 13579 H 1804.77 -6.71916 -5.01943 0
M  V30 13580 H 1803.07 -7.4649 -6.93477 0
M  V30 13581 H 1802.88 -8.89416 -5.05237 0
M  V30 13582 H 1801.25 -8.14876 -5.18409 0
M  V30 13583 H 1803.89 -3.27957 -5.4317 0
M  V30 13584 P 1805.75 -5.75688 -6.64379 0
M  V30 13585 O 1807.17 -6.07627 -7.05504 0
M  V30 13586 O 1805.39 -5.88047 -5.19722 0
M  V30 13587 O 1805.43 -4.2322 -7.04443 0
M  V30 13588 C 1805.27 -3.99743 -8.4911 0
M  V30 13589 C 1805.81 -2.60516 -8.79425 0
M  V30 13590 O 1804.75 -1.82684 -8.4467 0
M  V30 13591 C 1807.02 -2.10343 -8.03628 0
M  V30 13592 O 1807.76 -1.09919 -8.67766 0
M  V30 13593 C 1806.35 -1.68446 -6.70876 0
M  V30 13594 O 1807.15 -0.678137 -6.08433 0
M  V30 13595 C 1805.02 -1.17436 -7.18567 0
M  V30 13596 H 1805.05 -0.0804732 -7.31656 0
M  V30 13597 H 1806.23 -2.54037 -6.02537 0
M  V30 13598 H 1807.72 -2.93881 -7.85526 0
M  V30 13599 H 1806.02 -2.53065 -9.86973 0
M  V30 13600 H 1805.83 -4.75072 -9.05887 0
M  V30 13601 H 1804.2 -4.05244 -8.76668 0
M  V30 13602 H 1806.84 0.177647 -6.34251 0
M  V30 13603 P 1808.7 -1.25109 -8.70152 0
M  V30 13604 O 1810.12 -1.29758 -9.22115 0
M  V30 13605 O 1808.34 -2.13714 -7.55141 0
M  V30 13606 O 1808.38 0.248149 -8.21425 0
M  V30 13607 C 1808.22 1.22792 -9.30533 0
M  V30 13608 C 1808.76 2.56293 -8.80664 0
M  V30 13609 O 1807.7 3.02944 -8.09255 0
M  V30 13610 C 1809.97 2.57523 -7.89775 0
M  V30 13611 O 1810.71 3.7668 -7.89438 0
M  V30 13612 C 1809.31 2.20997 -6.55446 0
M  V30 13613 O 1810.1 2.71302 -5.48691 0
M  V30 13614 C 1807.97 2.89693 -6.67988 0
M  V30 13615 N 1806.93 2.08895 -6.07487 0
M  V30 13616 C 1807.09 0.753809 -5.94137 0
M  V30 13617 N 1806.07 0.146592 -5.38801 0
M  V30 13618 C 1805.18 1.1768 -5.13693 0
M  V30 13619 C 1803.92 1.17563 -4.52477 0
M  V30 13620 N 1803.35 2.41918 -4.45789 0
M  V30 13621 C 1803.95 3.56493 -4.90792 0
M  V30 13622 N 1805.13 3.61423 -5.47817 0
M  V30 13623 C 1805.7 2.37779 -5.5588 0
M  V30 13624 H 1809.18 1.12673 -6.44018 0
M  V30 13625 H 1810.67 1.7746 -8.19711 0
M  V30 13626 H 1808.97 3.21673 -9.66791 0
M  V30 13627 H 1808.78 0.901032 -10.1892 0
M  V30 13628 H 1807.15 1.33049 -9.56592 0
M  V30 13629 H 1807.99 0.233081 -6.26266 0
M  V30 13630 H 1809.79 3.5779 -5.23879 0
M  V30 13631 P 1811.65 3.65191 -7.99657 0
M  V30 13632 O 1813.07 3.89332 -8.45794 0
M  V30 13633 O 1811.29 2.28472 -7.50807 0
M  V30 13634 O 1811.33 4.64972 -6.77611 0
M  V30 13635 C 1811.17 6.06319 -7.16352 0
M  V30 13636 C 1811.71 6.91731 -6.02299 0
M  V30 13637 O 1810.65 6.92449 -5.17064 0
M  V30 13638 C 1812.92 6.43627 -5.25174 0
M  V30 13639 O 1813.66 7.43686 -4.60469 0
M  V30 13640 C 1812.26 5.40275 -4.31916 0
M  V30 13641 O 1813.05 5.25279 -3.14438 0
M  V30 13642 C 1810.92 6.04847 -4.05327 0
M  V30 13643 H 1810.95 6.62195 -3.11261 0
M  V30 13644 H 1812.13 4.42556 -4.81383 0
M  V30 13645 H 1813.62 5.92458 -5.93643 0
M  V30 13646 H 1811.92 7.92655 -6.402 0
M  V30 13647 H 1811.73 6.26671 -8.0846 0
M  V30 13648 H 1810.1 6.29101 -7.32804 0
M  V30 13649 H 1812.74 5.84315 -2.47318 0
M  V30 13650 P 1814.6 7.39546 -4.75277 0
M  V30 13651 O 1816.02 7.84798 -5.01039 0
M  V30 13652 O 1814.24 5.9812 -5.08098 0
M  V30 13653 O 1814.28 7.57503 -3.1866 0
M  V30 13654 C 1814.12 8.97357 -2.74833 0
M  V30 13655 C 1814.66 9.07548 -1.32709 0
M  V30 13656 O 1813.6 8.62072 -0.606159 0
M  V30 13657 C 1815.88 8.25383 -0.938334 0
M  V30 13658 O 1816.61 8.74577 0.146954 0
M  V30 13659 C 1815.21 6.8802 -0.712559 0
M  V30 13660 O 1816.01 6.1189 0.194655 0
M  V30 13661 C 1813.87 7.27966 -0.139777 0
M  V30 13662 H 1813.9 7.25354 0.961601 0
M  V30 13663 H 1815.08 6.32557 -1.65702 0
M  V30 13664 H 1816.57 8.19355 -1.79097 0
M  V30 13665 H 1814.87 10.1294 -1.10029 0
M  V30 13666 H 1814.68 9.64276 -3.41316 0
M  V30 13667 H 1813.05 9.25417 -2.76357 0
M  V30 13668 H 1815.69 6.25267 1.07847 0
M  V30 13669 P 1817.55 8.791 1.53704e-11 0
M  V30 13670 O 1818.97 9.31096 0.027933 0
M  V30 13671 O 1817.19 7.77869 -1.04071 0
M  V30 13672 O 1817.23 8.09533 1.41463 0
M  V30 13673 C 1817.07 9.0349 2.53943 0
M  V30 13674 C 1817.61 8.35226 3.79016 0
M  V30 13675 O 1816.55 7.57992 4.15078 0
M  V30 13676 C 1818.83 7.45087 3.67298 0
M  V30 13677 O 1819.56 7.27796 4.85194 0
M  V30 13678 C 1818.16 6.17323 3.12027 0
M  V30 13679 O 1818.96 5.04231 3.47188 0
M  V30 13680 C 1816.82 6.19961 3.81809 0
M  V30 13681 H 1816.85 5.58218 4.73051 0
M  V30 13682 H 1818.04 6.21726 2.02589 0
M  V30 13683 H 1819.52 7.86112 2.9231 0
M  V30 13684 H 1817.83 9.11627 4.55076 0
M  V30 13685 H 1817.64 9.9573 2.34194 0
M  V30 13686 H 1816.01 9.2792 2.67832 0
M  V30 13687 H 1818.64 4.67702 4.28772 0
M  V30 13688 P 1820.5 7.39546 4.75277 0
M  V30 13689 O 1821.92 7.81777 5.05738 0
M  V30 13690 O 1820.14 7.1065 3.32998 0
M  V30 13691 O 1820.18 6.04542 5.56673 0
M  V30 13692 C 1820.02 6.22772 7.02095 0
M  V30 13693 C 1820.56 4.97725 7.70406 0
M  V30 13694 O 1819.5 4.13256 7.58987 0
M  V30 13695 C 1821.78 4.28231 7.11815 0
M  V30 13696 O 1822.51 3.49945 8.01648 0
M  V30 13697 C 1821.11 3.5063 5.96244 0
M  V30 13698 O 1821.91 2.36482 5.64681 0
M  V30 13699 C 1819.77 3.15122 6.56374 0
M  V30 13700 H 1819.8 2.13853 6.99751 0
M  V30 13701 H 1820.99 4.13501 5.06559 0
M  V30 13702 H 1822.47 5.03285 6.70911 0
M  V30 13703 H 1820.78 5.20877 8.75697 0
M  V30 13704 H 1820.59 7.11046 7.35349 0
M  V30 13705 H 1818.96 6.35815 7.26986 0
M  V30 13706 H 1821.59 1.61644 6.13565 0
M  V30 13707 P 1823.45 3.65191 7.99657 0
M  V30 13708 O 1824.87 3.8425 8.48115 0
M  V30 13709 O 1823.09 4.17805 6.64342 0
M  V30 13710 O 1823.13 2.07613 7.95143 0
M  V30 13711 C 1822.97 1.44328 9.27336 0
M  V30 13712 C 1823.51 0.0220036 9.17197 0
M  V30 13713 O 1822.45 -0.626867 8.61923 0
M  V30 13714 C 1824.73 -0.24586 8.30336 0
M  V30 13715 O 1825.47 -1.39011 8.63583 0
M  V30 13716 C 1824.06 -0.273849 6.91158 0
M  V30 13717 O 1824.86 -1.06348 6.02892 0
M  V30 13718 C 1822.72 -0.897649 7.22545 0
M  V30 13719 H 1822.75 -1.9841 7.04286 0
M  V30 13720 H 1823.94 0.739928 6.497 0
M  V30 13721 H 1825.42 0.60668 8.36503 0
M  V30 13722 H 1823.73 -0.352479 10.1829 0
M  V30 13723 H 1823.54 2.00611 10.0304 0
M  V30 13724 H 1821.91 1.41843 9.55327 0
M  V30 13725 H 1824.55 -1.95734 6.03555 0
M  V30 13726 P 1826.4 -1.25109 8.70152 0
M  V30 13727 O 1827.82 -1.35274 9.21221 0
M  V30 13728 O 1826.04 -0.0769065 7.84762 0
M  V30 13729 O 1826.08 -2.55232 7.81161 0
M  V30 13730 C 1825.92 -3.79939 8.58154 0
M  V30 13731 C 1826.46 -4.94023 7.72785 0
M  V30 13732 O 1825.4 -5.18726 6.91205 0
M  V30 13733 C 1827.68 -4.69597 6.85231 0
M  V30 13734 O 1828.42 -5.83832 6.51337 0
M  V30 13735 C 1827.01 -3.96706 5.66633 0
M  V30 13736 O 1827.81 -4.15414 4.49689 0
M  V30 13737 C 1825.67 -4.66153 5.59313 0
M  V30 13738 H 1825.7 -5.47679 4.85214 0
M  V30 13739 H 1826.89 -2.89008 5.86566 0
M  V30 13740 H 1828.37 -4.0121 7.36511 0
M  V30 13741 H 1826.68 -5.80182 8.37584 0
M  V30 13742 H 1826.49 -3.73517 9.52265 0
M  V30 13743 H 1824.86 -3.97163 8.80359 0
M  V30 13744 H 1827.5 -4.90969 4.01921 0
M  V30 13745 P 1829.35 -5.75688 6.64379 0
M  V30 13746 O 1830.78 -6.11981 7.01997 0
M  V30 13747 O 1828.99 -4.30744 6.56026 0
M  V30 13748 O 1829.03 -6.37042 5.19165 0
M  V30 13749 C 1828.87 -7.83578 5.16515 0
M  V30 13750 C 1829.41 -8.33307 3.82977 0
M  V30 13751 O 1828.36 -8.10074 3.01034 0
M  V30 13752 C 1830.63 -7.65514 3.2257 0
M  V30 13753 O 1831.37 -8.4329 2.32297 0
M  V30 13754 C 1829.96 -6.40075 2.62207 0
M  V30 13755 O 1830.76 -5.92492 1.53687 0
M  V30 13756 C 1828.62 -6.9454 2.18503 0
M  V30 13757 N 1827.58 -5.95905 2.39948 0
M  V30 13758 C 1827.64 -5.13994 3.44742 0
M  V30 13759 N 1826.6 -4.30684 3.46712 0
M  V30 13760 C 1825.86 -4.65583 2.41086 0
M  V30 13761 C 1824.56 -4.20877 1.99581 0
M  V30 13762 O 1823.82 -3.35913 2.52616 0
M  V30 13763 N 1824.13 -4.83271 0.873406 0
M  V30 13764 C 1824.88 -5.82006 0.185129 0
M  V30 13765 N 1824.28 -6.30619 -0.95439 0
M  V30 13766 N 1826.03 -6.28443 0.578524 0
M  V30 13767 C 1826.49 -5.68486 1.70138 0
M  V30 13768 H 1828.65 -7.23063 1.12091 0
M  V30 13769 H 1829.84 -5.60165 3.3715 0
M  V30 13770 H 1831.32 -7.3611 4.01946 0
M  V30 13771 H 1829.63 -9.40912 3.9095 0
M  V30 13772 H 1829.44 -8.29056 5.99158 0
M  V30 13773 H 1827.81 -8.10073 5.25882 0
M  V30 13774 H 1823.23 -4.58323 0.505262 0
M  V30 13775 H 1828.44 -5.14564 4.1935 0
M  V30 13776 H 1823.37 -5.93402 -1.25364 0
M  V30 13777 H 1824.74 -7.0425 -1.50254 0
M  V30 13778 H 1830.45 -6.30224 0.72668 0
M  V30 13779 P 1832.3 -8.4349 2.47671 0
M  V30 13780 O 1833.73 -8.94167 2.5964 0
M  V30 13781 O 1831.94 -7.1704 3.19006 0
M  V30 13782 O 1831.98 -8.16596 0.923387 0
M  V30 13783 C 1831.82 -9.38437 0.108857 0
M  V30 13784 C 1832.36 -9.08175 -1.28353 0
M  V30 13785 O 1831.3 -8.44229 -1.84713 0
M  V30 13786 C 1833.58 -8.18386 -1.42505 0
M  V30 13787 O 1834.32 -8.3501 -2.60497 0
M  V30 13788 C 1832.91 -6.80225 -1.25468 0
M  V30 13789 O 1833.71 -5.81621 -1.91066 0
M  V30 13790 C 1831.57 -7.02416 -1.9168 0
M  V30 13791 H 1831.6 -6.6888 -2.96621 0
M  V30 13792 H 1832.79 -6.53617 -0.192223 0
M  V30 13793 H 1834.27 -8.36622 -0.589963 0
M  V30 13794 H 1832.58 -10.0291 -1.79807 0
M  V30 13795 H 1832.39 -10.2138 0.558219 0
M  V30 13796 H 1830.76 -9.6579 0.0444202 0
M  V30 13797 H 1833.4 -5.69556 -2.79637 0
M  V30 13798 P 1835.25 -8.4349 -2.47671 0
M  V30 13799 O 1836.68 -8.92593 -2.65 0
M  V30 13800 O 1834.89 -7.7568 -1.19296 0
M  V30 13801 O 1834.93 -7.36886 -3.63805 0
M  V30 13802 C 1834.77 -7.95349 -4.982 0
M  V30 13803 C 1835.31 -6.94612 -5.98974 0
M  V30 13804 O 1834.26 -6.10347 -6.11815 0
M  V30 13805 C 1836.53 -6.11426 -5.62335 0
M  V30 13806 O 1837.27 -5.6162 -6.70584 0
M  V30 13807 C 1835.86 -5.04409 -4.73308 0
M  V30 13808 O 1836.66 -3.85992 -4.75183 0
M  V30 13809 C 1834.52 -4.8728 -5.41006 0
M  V30 13810 H 1834.56 -4.02333 -6.11157 0
M  V30 13811 H 1835.74 -5.39466 -3.69543 0
M  V30 13812 H 1837.22 -6.71916 -5.01943 0
M  V30 13813 H 1835.53 -7.4649 -6.93477 0
M  V30 13814 H 1835.34 -8.89416 -5.05237 0
M  V30 13815 H 1833.71 -8.14876 -5.18409 0
M  V30 13816 H 1836.35 -3.27957 -5.4317 0
M  V30 13817 P 1838.21 -5.75688 -6.64379 0
M  V30 13818 O 1839.63 -6.07627 -7.05504 0
M  V30 13819 O 1837.85 -5.88047 -5.19722 0
M  V30 13820 O 1837.88 -4.2322 -7.04443 0
M  V30 13821 C 1837.72 -3.99743 -8.4911 0
M  V30 13822 C 1838.26 -2.60516 -8.79425 0
M  V30 13823 O 1837.21 -1.82684 -8.4467 0
M  V30 13824 C 1839.48 -2.10343 -8.03628 0
M  V30 13825 O 1840.22 -1.09919 -8.67766 0
M  V30 13826 C 1838.81 -1.68446 -6.70876 0
M  V30 13827 O 1839.61 -0.678137 -6.08433 0
M  V30 13828 C 1837.47 -1.17436 -7.18567 0
M  V30 13829 H 1837.51 -0.0804732 -7.31656 0
M  V30 13830 H 1838.69 -2.54037 -6.02537 0
M  V30 13831 H 1840.17 -2.93881 -7.85526 0
M  V30 13832 H 1838.48 -2.53065 -9.86973 0
M  V30 13833 H 1838.29 -4.75072 -9.05887 0
M  V30 13834 H 1836.66 -4.05244 -8.76668 0
M  V30 13835 H 1839.3 0.177647 -6.34251 0
M  V30 13836 P 1841.16 -1.25109 -8.70152 0
M  V30 13837 O 1842.58 -1.29744 -9.22016 0
M  V30 13838 O 1840.8 -2.13714 -7.55141 0
M  V30 13839 O 1840.83 0.248149 -8.21425 0
M  V30 13840 C 1840.67 1.22779 -9.30434 0
M  V30 13841 C 1841.21 2.56293 -8.80664 0
M  V30 13842 O 1840.16 3.02979 -8.09349 0
M  V30 13843 C 1842.43 2.57523 -7.89775 0
M  V30 13844 O 1843.17 3.7668 -7.89438 0
M  V30 13845 C 1841.76 2.20997 -6.55446 0
M  V30 13846 O 1842.56 2.71895 -5.48509 0
M  V30 13847 C 1840.42 2.89693 -6.67988 0
M  V30 13848 H 1840.46 3.88793 -6.19859 0
M  V30 13849 H 1841.64 1.12046 -6.44229 0
M  V30 13850 H 1843.12 1.7746 -8.19711 0
M  V30 13851 H 1841.43 3.20706 -9.67112 0
M  V30 13852 H 1841.24 0.901032 -10.1892 0
M  V30 13853 H 1839.61 1.33049 -9.56592 0
M  V30 13854 H 1842.25 3.57847 -5.23962 0
M  V30 13855 P 1844.11 3.65191 -7.99657 0
M  V30 13856 O 1845.53 3.89332 -8.45794 0
M  V30 13857 O 1843.75 2.28472 -7.50807 0
M  V30 13858 O 1843.78 4.64972 -6.77611 0
M  V30 13859 C 1843.62 6.06319 -7.16352 0
M  V30 13860 C 1844.16 6.91731 -6.02299 0
M  V30 13861 O 1843.11 6.92449 -5.17064 0
M  V30 13862 C 1845.38 6.43627 -5.25174 0
M  V30 13863 O 1846.12 7.43686 -4.60469 0
M  V30 13864 C 1844.71 5.40275 -4.31916 0
M  V30 13865 O 1845.51 5.25279 -3.14438 0
M  V30 13866 C 1843.38 6.04847 -4.05327 0
M  V30 13867 H 1843.41 6.62195 -3.11261 0
M  V30 13868 H 1844.59 4.42556 -4.81383 0
M  V30 13869 H 1846.07 5.92458 -5.93643 0
M  V30 13870 H 1844.38 7.92655 -6.402 0
M  V30 13871 H 1844.19 6.26671 -8.0846 0
M  V30 13872 H 1842.56 6.29101 -7.32804 0
M  V30 13873 H 1845.2 5.84315 -2.47318 0
M  V30 13874 P 1847.06 7.39546 -4.75277 0
M  V30 13875 O 1848.48 7.84882 -5.01092 0
M  V30 13876 O 1846.7 5.9812 -5.08098 0
M  V30 13877 O 1846.73 7.57503 -3.1866 0
M  V30 13878 C 1846.57 8.97452 -2.74862 0
M  V30 13879 C 1847.11 9.07548 -1.32709 0
M  V30 13880 O 1846.06 8.61972 -0.606089 0
M  V30 13881 C 1848.33 8.25383 -0.938334 0
M  V30 13882 O 1849.07 8.74577 0.146954 0
M  V30 13883 C 1847.66 6.8802 -0.712559 0
M  V30 13884 O 1848.46 6.1181 0.188505 0
M  V30 13885 C 1846.33 7.27966 -0.139777 0
M  V30 13886 N 1845.28 6.39368 -0.623421 0
M  V30 13887 C 1845.45 5.71761 -1.78245 0
M  V30 13888 N 1844.42 4.962 -2.10491 0
M  V30 13889 C 1843.54 5.16158 -1.0635 0
M  V30 13890 C 1842.27 4.60425 -0.810266 0
M  V30 13891 N 1841.67 3.7057 -1.62914 0
M  V30 13892 N 1841.71 5.06 0.348685 0
M  V30 13893 C 1842.31 5.94532 1.20395 0
M  V30 13894 N 1843.49 6.48452 1.01191 0
M  V30 13895 C 1844.06 6.04423 -0.146291 0
M  V30 13896 H 1846.36 7.25255 0.961469 0
M  V30 13897 H 1847.54 6.32625 -1.65044 0
M  V30 13898 H 1849.02 8.19355 -1.79097 0
M  V30 13899 H 1847.33 10.1305 -1.09016 0
M  V30 13900 H 1847.14 9.64276 -3.41316 0
M  V30 13901 H 1845.51 9.25417 -2.76357 0
M  V30 13902 H 1841.77 6.21659 2.10714 0
M  V30 13903 H 1846.35 5.79354 -2.38959 0
M  V30 13904 H 1840.74 3.33174 -1.38982 0
M  V30 13905 H 1842.15 3.39714 -2.48836 0
M  V30 13906 H 1848.15 6.25169 1.0783 0
M  V30 13907 P 1850.01 8.791 1.56806e-11 0
M  V30 13908 O 1851.43 9.31096 0.027933 0
M  V30 13909 O 1849.65 7.77869 -1.04071 0
M  V30 13910 O 1849.68 8.09533 1.41463 0
M  V30 13911 C 1849.52 9.0349 2.53943 0
M  V30 13912 C 1850.06 8.35226 3.79016 0
M  V30 13913 O 1849.01 7.57992 4.15078 0
M  V30 13914 C 1851.28 7.45087 3.67298 0
M  V30 13915 O 1852.02 7.27796 4.85194 0
M  V30 13916 C 1850.61 6.17323 3.12027 0
M  V30 13917 O 1851.41 5.04231 3.47188 0
M  V30 13918 C 1849.28 6.19961 3.81809 0
M  V30 13919 H 1849.31 5.58218 4.73051 0
M  V30 13920 H 1850.49 6.21726 2.02589 0
M  V30 13921 H 1851.98 7.86112 2.9231 0
M  V30 13922 H 1850.28 9.11627 4.55076 0
M  V30 13923 H 1850.09 9.9573 2.34194 0
M  V30 13924 H 1848.46 9.2792 2.67832 0
M  V30 13925 H 1851.1 4.67702 4.28772 0
M  V30 13926 P 1852.96 7.39546 4.75277 0
M  V30 13927 O 1854.38 7.81777 5.05738 0
M  V30 13928 O 1852.6 7.1065 3.32998 0
M  V30 13929 O 1852.63 6.04542 5.56673 0
M  V30 13930 C 1852.47 6.22772 7.02095 0
M  V30 13931 C 1853.01 4.97725 7.70406 0
M  V30 13932 O 1851.96 4.13256 7.58987 0
M  V30 13933 C 1854.23 4.28231 7.11815 0
M  V30 13934 O 1854.97 3.49945 8.01648 0
M  V30 13935 C 1853.56 3.5063 5.96244 0
M  V30 13936 O 1854.36 2.36482 5.64681 0
M  V30 13937 C 1852.23 3.15122 6.56374 0
M  V30 13938 H 1852.26 2.13853 6.99751 0
M  V30 13939 H 1853.44 4.13501 5.06559 0
M  V30 13940 H 1854.93 5.03285 6.70911 0
M  V30 13941 H 1853.23 5.20877 8.75697 0
M  V30 13942 H 1853.04 7.11046 7.35349 0
M  V30 13943 H 1851.41 6.35815 7.26986 0
M  V30 13944 H 1854.05 1.61644 6.13565 0
M  V30 13945 P 1855.91 3.65191 7.99657 0
M  V30 13946 O 1857.33 3.8425 8.48115 0
M  V30 13947 O 1855.55 4.17805 6.64342 0
M  V30 13948 O 1855.59 2.07613 7.95143 0
M  V30 13949 C 1855.43 1.44328 9.27336 0
M  V30 13950 C 1855.97 0.0220036 9.17197 0
M  V30 13951 O 1854.91 -0.626867 8.61923 0
M  V30 13952 C 1857.18 -0.24586 8.30336 0
M  V30 13953 O 1857.92 -1.39011 8.63583 0
M  V30 13954 C 1856.51 -0.273849 6.91158 0
M  V30 13955 O 1857.31 -1.06348 6.02892 0
M  V30 13956 C 1855.18 -0.897649 7.22545 0
M  V30 13957 H 1855.21 -1.9841 7.04286 0
M  V30 13958 H 1856.39 0.739928 6.497 0
M  V30 13959 H 1857.88 0.60668 8.36503 0
M  V30 13960 H 1856.18 -0.352479 10.1829 0
M  V30 13961 H 1855.99 2.00611 10.0304 0
M  V30 13962 H 1854.36 1.41843 9.55327 0
M  V30 13963 H 1857 -1.95734 6.03555 0
M  V30 13964 P 1858.86 -1.25109 8.70152 0
M  V30 13965 O 1860.28 -1.35274 9.21221 0
M  V30 13966 O 1858.5 -0.0769065 7.84762 0
M  V30 13967 O 1858.54 -2.55232 7.81161 0
M  V30 13968 C 1858.38 -3.79939 8.58154 0
M  V30 13969 C 1858.92 -4.94023 7.72785 0
M  V30 13970 O 1857.86 -5.18726 6.91205 0
M  V30 13971 C 1860.13 -4.69597 6.85231 0
M  V30 13972 O 1860.87 -5.83832 6.51337 0
M  V30 13973 C 1859.47 -3.96706 5.66633 0
M  V30 13974 O 1860.26 -4.15414 4.49689 0
M  V30 13975 C 1858.13 -4.66153 5.59313 0
M  V30 13976 H 1858.16 -5.47679 4.85214 0
M  V30 13977 H 1859.34 -2.89008 5.86566 0
M  V30 13978 H 1860.83 -4.0121 7.36511 0
M  V30 13979 H 1859.13 -5.80182 8.37584 0
M  V30 13980 H 1858.94 -3.73517 9.52265 0
M  V30 13981 H 1857.31 -3.97163 8.80359 0
M  V30 13982 H 1859.95 -4.90969 4.01921 0
M  V30 13983 P 1861.81 -5.75688 6.64379 0
M  V30 13984 O 1863.23 -6.11849 7.01846 0
M  V30 13985 O 1861.45 -4.30744 6.56026 0
M  V30 13986 O 1861.49 -6.37042 5.19165 0
M  V30 13987 C 1861.33 -7.83578 5.16515 0
M  V30 13988 C 1861.87 -8.33398 3.83019 0
M  V30 13989 O 1860.81 -8.10074 3.01034 0
M  V30 13990 C 1863.08 -7.65514 3.2257 0
M  V30 13991 O 1863.82 -8.4329 2.32297 0
M  V30 13992 C 1862.42 -6.40075 2.62207 0
M  V30 13993 O 1863.21 -5.92589 1.53712 0
M  V30 13994 C 1861.08 -6.9454 2.18503 0
M  V30 13995 H 1861.11 -7.23063 1.12091 0
M  V30 13996 H 1862.29 -5.6025 3.37201 0
M  V30 13997 H 1863.78 -7.35707 4.02681 0
M  V30 13998 H 1862.08 -9.40912 3.9095 0
M  V30 13999 H 1861.89 -8.29056 5.99158 0
M  V30 14000 H 1860.26 -8.10073 5.25882 0
M  V30 14001 H 1862.9 -6.30324 0.726794 0
M  V30 14002 P 1864.76 -8.4349 2.47671 0
M  V30 14003 O 1866.18 -8.94167 2.5964 0
M  V30 14004 O 1864.4 -7.1704 3.19006 0
M  V30 14005 O 1864.44 -8.16596 0.923387 0
M  V30 14006 C 1864.28 -9.38437 0.108857 0
M  V30 14007 C 1864.82 -9.08175 -1.28353 0
M  V30 14008 O 1863.76 -8.44229 -1.84713 0
M  V30 14009 C 1866.04 -8.18386 -1.42505 0
M  V30 14010 O 1866.77 -8.3501 -2.60497 0
M  V30 14011 C 1865.37 -6.80225 -1.25468 0
M  V30 14012 O 1866.17 -5.81621 -1.91066 0
M  V30 14013 C 1864.03 -7.02416 -1.9168 0
M  V30 14014 H 1864.06 -6.6888 -2.96621 0
M  V30 14015 H 1865.24 -6.53617 -0.192223 0
M  V30 14016 H 1866.73 -8.36622 -0.589963 0
M  V30 14017 H 1865.03 -10.0291 -1.79807 0
M  V30 14018 H 1864.84 -10.2138 0.558219 0
M  V30 14019 H 1863.21 -9.6579 0.0444202 0
M  V30 14020 H 1865.85 -5.69556 -2.79637 0
M  V30 14021 P 1867.71 -8.4349 -2.47671 0
M  V30 14022 O 1869.13 -8.92593 -2.65 0
M  V30 14023 O 1867.35 -7.7568 -1.19296 0
M  V30 14024 O 1867.39 -7.36886 -3.63805 0
M  V30 14025 C 1867.23 -7.95349 -4.982 0
M  V30 14026 C 1867.77 -6.94612 -5.98974 0
M  V30 14027 O 1866.71 -6.10347 -6.11815 0
M  V30 14028 C 1868.99 -6.11426 -5.62335 0
M  V30 14029 O 1869.72 -5.6162 -6.70584 0
M  V30 14030 C 1868.32 -5.04409 -4.73308 0
M  V30 14031 O 1869.12 -3.85992 -4.75183 0
M  V30 14032 C 1866.98 -4.8728 -5.41006 0
M  V30 14033 H 1867.01 -4.02333 -6.11157 0
M  V30 14034 H 1868.19 -5.39466 -3.69543 0
M  V30 14035 H 1869.68 -6.71916 -5.01943 0
M  V30 14036 H 1867.98 -7.4649 -6.93477 0
M  V30 14037 H 1867.79 -8.89416 -5.05237 0
M  V30 14038 H 1866.16 -8.14876 -5.18409 0
M  V30 14039 H 1868.8 -3.27957 -5.4317 0
M  V30 14040 P 1870.66 -5.75688 -6.64379 0
M  V30 14041 O 1872.08 -6.07627 -7.05504 0
M  V30 14042 O 1870.3 -5.88047 -5.19722 0
M  V30 14043 O 1870.34 -4.2322 -7.04443 0
M  V30 14044 C 1870.18 -3.99743 -8.4911 0
M  V30 14045 C 1870.72 -2.60516 -8.79425 0
M  V30 14046 O 1869.66 -1.82684 -8.4467 0
M  V30 14047 C 1871.94 -2.10343 -8.03628 0
M  V30 14048 O 1872.67 -1.09919 -8.67766 0
M  V30 14049 C 1871.27 -1.68446 -6.70876 0
M  V30 14050 O 1872.07 -0.678137 -6.08433 0
M  V30 14051 C 1869.93 -1.17436 -7.18567 0
M  V30 14052 H 1869.96 -0.0804732 -7.31656 0
M  V30 14053 H 1871.15 -2.54037 -6.02537 0
M  V30 14054 H 1872.63 -2.93881 -7.85526 0
M  V30 14055 H 1870.94 -2.53065 -9.86973 0
M  V30 14056 H 1870.75 -4.75072 -9.05887 0
M  V30 14057 H 1869.12 -4.05244 -8.76668 0
M  V30 14058 H 1871.75 0.177647 -6.34251 0
M  V30 14059 P 1873.61 -1.25109 -8.70152 0
M  V30 14060 O 1875.03 -1.29744 -9.22016 0
M  V30 14061 O 1873.25 -2.13714 -7.55141 0
M  V30 14062 O 1873.29 0.248149 -8.21425 0
M  V30 14063 C 1873.13 1.22779 -9.30434 0
M  V30 14064 C 1873.67 2.56293 -8.80664 0
M  V30 14065 O 1872.61 3.02979 -8.09349 0
M  V30 14066 C 1874.89 2.57523 -7.89775 0
M  V30 14067 O 1875.62 3.7668 -7.89438 0
M  V30 14068 C 1874.22 2.20997 -6.55446 0
M  V30 14069 O 1875.02 2.71895 -5.48509 0
M  V30 14070 C 1872.88 2.89693 -6.67988 0
M  V30 14071 H 1872.91 3.88793 -6.19859 0
M  V30 14072 H 1874.1 1.12046 -6.44229 0
M  V30 14073 H 1875.58 1.7746 -8.19711 0
M  V30 14074 H 1873.89 3.20706 -9.67112 0
M  V30 14075 H 1873.7 0.901032 -10.1892 0
M  V30 14076 H 1872.07 1.33049 -9.56592 0
M  V30 14077 H 1874.7 3.57847 -5.23962 0
M  V30 14078 P 1876.56 3.65191 -7.99657 0
M  V30 14079 O 1877.98 3.89332 -8.45794 0
M  V30 14080 O 1876.2 2.28472 -7.50807 0
M  V30 14081 O 1876.24 4.64972 -6.77611 0
M  V30 14082 C 1876.08 6.06319 -7.16352 0
M  V30 14083 C 1876.62 6.91731 -6.02299 0
M  V30 14084 O 1875.56 6.92449 -5.17064 0
M  V30 14085 C 1877.84 6.43627 -5.25174 0
M  V30 14086 O 1878.58 7.43686 -4.60469 0
M  V30 14087 C 1877.17 5.40275 -4.31916 0
M  V30 14088 O 1877.97 5.25279 -3.14438 0
M  V30 14089 C 1875.83 6.04847 -4.05327 0
M  V30 14090 H 1875.86 6.62195 -3.11261 0
M  V30 14091 H 1877.05 4.42556 -4.81383 0
M  V30 14092 H 1878.53 5.92458 -5.93643 0
M  V30 14093 H 1876.84 7.92655 -6.402 0
M  V30 14094 H 1876.65 6.26671 -8.0846 0
M  V30 14095 H 1875.02 6.29101 -7.32804 0
M  V30 14096 H 1877.66 5.84315 -2.47318 0
M  V30 14097 P 1879.51 7.39546 -4.75277 0
M  V30 14098 O 1880.94 7.84798 -5.01039 0
M  V30 14099 O 1879.15 5.9812 -5.08098 0
M  V30 14100 O 1879.19 7.57503 -3.1866 0
M  V30 14101 C 1879.03 8.97357 -2.74833 0
M  V30 14102 C 1879.57 9.07548 -1.32709 0
M  V30 14103 O 1878.51 8.62072 -0.606159 0
M  V30 14104 C 1880.79 8.25383 -0.938334 0
M  V30 14105 O 1881.53 8.74577 0.146954 0
M  V30 14106 C 1880.12 6.8802 -0.712559 0
M  V30 14107 O 1880.92 6.1189 0.194655 0
M  V30 14108 C 1878.78 7.27966 -0.139777 0
M  V30 14109 H 1878.81 7.25354 0.961601 0
M  V30 14110 H 1880 6.32557 -1.65702 0
M  V30 14111 H 1881.48 8.19355 -1.79097 0
M  V30 14112 H 1879.79 10.1294 -1.10029 0
M  V30 14113 H 1879.6 9.64276 -3.41316 0
M  V30 14114 H 1877.97 9.25417 -2.76357 0
M  V30 14115 H 1880.61 6.25267 1.07847 0
M  V30 14116 P 1882.46 8.791 1.59908e-11 0
M  V30 14117 O 1883.89 9.31096 0.027933 0
M  V30 14118 O 1882.1 7.77869 -1.04071 0
M  V30 14119 O 1882.14 8.09533 1.41463 0
M  V30 14120 C 1881.98 9.0349 2.53943 0
M  V30 14121 C 1882.52 8.35226 3.79016 0
M  V30 14122 O 1881.46 7.57992 4.15078 0
M  V30 14123 C 1883.74 7.45087 3.67298 0
M  V30 14124 O 1884.48 7.27796 4.85194 0
M  V30 14125 C 1883.07 6.17323 3.12027 0
M  V30 14126 O 1883.87 5.04231 3.47188 0
M  V30 14127 C 1881.73 6.19961 3.81809 0
M  V30 14128 H 1881.76 5.58218 4.73051 0
M  V30 14129 H 1882.95 6.21726 2.02589 0
M  V30 14130 H 1884.43 7.86112 2.9231 0
M  V30 14131 H 1882.74 9.11627 4.55076 0
M  V30 14132 H 1882.55 9.9573 2.34194 0
M  V30 14133 H 1880.92 9.2792 2.67832 0
M  V30 14134 H 1883.56 4.67702 4.28772 0
M  V30 14135 P 1885.41 7.39546 4.75277 0
M  V30 14136 O 1886.84 7.81777 5.05738 0
M  V30 14137 O 1885.05 7.1065 3.32998 0
M  V30 14138 O 1885.09 6.04542 5.56673 0
M  V30 14139 C 1884.93 6.22772 7.02095 0
M  V30 14140 C 1885.47 4.97725 7.70406 0
M  V30 14141 O 1884.42 4.13256 7.58987 0
M  V30 14142 C 1886.69 4.28231 7.11815 0
M  V30 14143 O 1887.43 3.49945 8.01648 0
M  V30 14144 C 1886.02 3.5063 5.96244 0
M  V30 14145 O 1886.82 2.36482 5.64681 0
M  V30 14146 C 1884.68 3.15122 6.56374 0
M  V30 14147 H 1884.72 2.13853 6.99751 0
M  V30 14148 H 1885.9 4.13501 5.06559 0
M  V30 14149 H 1887.38 5.03285 6.70911 0
M  V30 14150 H 1885.69 5.20877 8.75697 0
M  V30 14151 H 1885.5 7.11046 7.35349 0
M  V30 14152 H 1883.87 6.35815 7.26986 0
M  V30 14153 H 1886.51 1.61644 6.13565 0
M  V30 14154 P 1888.36 3.65191 7.99657 0
M  V30 14155 O 1889.79 3.8425 8.48115 0
M  V30 14156 O 1888 4.17805 6.64342 0
M  V30 14157 O 1888.04 2.07613 7.95143 0
M  V30 14158 C 1887.88 1.44328 9.27336 0
M  V30 14159 C 1888.42 0.0220036 9.17197 0
M  V30 14160 O 1887.37 -0.626867 8.61923 0
M  V30 14161 C 1889.64 -0.24586 8.30336 0
M  V30 14162 O 1890.38 -1.39011 8.63583 0
M  V30 14163 C 1888.97 -0.273849 6.91158 0
M  V30 14164 O 1889.77 -1.06348 6.02892 0
M  V30 14165 C 1887.63 -0.897649 7.22545 0
M  V30 14166 H 1887.67 -1.9841 7.04286 0
M  V30 14167 H 1888.85 0.739928 6.497 0
M  V30 14168 H 1890.33 0.60668 8.36503 0
M  V30 14169 H 1888.64 -0.352479 10.1829 0
M  V30 14170 H 1888.45 2.00611 10.0304 0
M  V30 14171 H 1886.82 1.41843 9.55327 0
M  V30 14172 H 1889.46 -1.95734 6.03555 0
M  V30 14173 P 1891.32 -1.25109 8.70152 0
M  V30 14174 O 1892.74 -1.35274 9.21221 0
M  V30 14175 O 1890.96 -0.0769065 7.84762 0
M  V30 14176 O 1890.99 -2.55232 7.81161 0
M  V30 14177 C 1890.83 -3.79939 8.58154 0
M  V30 14178 C 1891.37 -4.94023 7.72785 0
M  V30 14179 O 1890.32 -5.18726 6.91205 0
M  V30 14180 C 1892.59 -4.69597 6.85231 0
M  V30 14181 O 1893.33 -5.83832 6.51337 0
M  V30 14182 C 1891.92 -3.96706 5.66633 0
M  V30 14183 O 1892.72 -4.15414 4.49689 0
M  V30 14184 C 1890.58 -4.66153 5.59313 0
M  V30 14185 H 1890.62 -5.47679 4.85214 0
M  V30 14186 H 1891.8 -2.89008 5.86566 0
M  V30 14187 H 1893.28 -4.0121 7.36511 0
M  V30 14188 H 1891.59 -5.80182 8.37584 0
M  V30 14189 H 1891.4 -3.73517 9.52265 0
M  V30 14190 H 1889.77 -3.97163 8.80359 0
M  V30 14191 H 1892.41 -4.90969 4.01921 0
M  V30 14192 P 1894.27 -5.75688 6.64379 0
M  V30 14193 O 1895.69 -6.11849 7.01846 0
M  V30 14194 O 1893.91 -4.30744 6.56026 0
M  V30 14195 O 1893.94 -6.37042 5.19165 0
M  V30 14196 C 1893.78 -7.83578 5.16515 0
M  V30 14197 C 1894.32 -8.33398 3.83019 0
M  V30 14198 O 1893.27 -8.10074 3.01034 0
M  V30 14199 C 1895.54 -7.65514 3.2257 0
M  V30 14200 O 1896.28 -8.4329 2.32297 0
M  V30 14201 C 1894.87 -6.40075 2.62207 0
M  V30 14202 O 1895.67 -5.92589 1.53712 0
M  V30 14203 C 1893.53 -6.9454 2.18503 0
M  V30 14204 H 1893.57 -7.23063 1.12091 0
M  V30 14205 H 1894.75 -5.6025 3.37201 0
M  V30 14206 H 1896.23 -7.35707 4.02681 0
M  V30 14207 H 1894.54 -9.40912 3.9095 0
M  V30 14208 H 1894.35 -8.29056 5.99158 0
M  V30 14209 H 1892.72 -8.10073 5.25882 0
M  V30 14210 H 1895.36 -6.30324 0.726794 0
M  V30 14211 P 1897.22 -8.4349 2.47671 0
M  V30 14212 O 1898.64 -8.94167 2.5964 0
M  V30 14213 O 1896.86 -7.1704 3.19006 0
M  V30 14214 O 1896.89 -8.16596 0.923387 0
M  V30 14215 C 1896.73 -9.38437 0.108857 0
M  V30 14216 C 1897.27 -9.08175 -1.28353 0
M  V30 14217 O 1896.22 -8.44229 -1.84713 0
M  V30 14218 C 1898.49 -8.18386 -1.42505 0
M  V30 14219 O 1899.23 -8.3501 -2.60497 0
M  V30 14220 C 1897.82 -6.80225 -1.25468 0
M  V30 14221 O 1898.62 -5.81621 -1.91066 0
M  V30 14222 C 1896.49 -7.02416 -1.9168 0
M  V30 14223 H 1896.52 -6.6888 -2.96621 0
M  V30 14224 H 1897.7 -6.53617 -0.192223 0
M  V30 14225 H 1899.18 -8.36622 -0.589963 0
M  V30 14226 H 1897.49 -10.0291 -1.79807 0
M  V30 14227 H 1897.3 -10.2138 0.558219 0
M  V30 14228 H 1895.67 -9.6579 0.0444202 0
M  V30 14229 H 1898.31 -5.69556 -2.79637 0
M  V30 14230 P 1900.17 -8.4349 -2.47671 0
M  V30 14231 O 1901.59 -8.92593 -2.65 0
M  V30 14232 O 1899.81 -7.7568 -1.19296 0
M  V30 14233 O 1899.84 -7.36886 -3.63805 0
M  V30 14234 C 1899.68 -7.95349 -4.982 0
M  V30 14235 C 1900.22 -6.94612 -5.98974 0
M  V30 14236 O 1899.17 -6.10347 -6.11815 0
M  V30 14237 C 1901.44 -6.11426 -5.62335 0
M  V30 14238 O 1902.18 -5.6162 -6.70584 0
M  V30 14239 C 1900.77 -5.04409 -4.73308 0
M  V30 14240 O 1901.57 -3.85992 -4.75183 0
M  V30 14241 C 1899.44 -4.8728 -5.41006 0
M  V30 14242 H 1899.47 -4.02333 -6.11157 0
M  V30 14243 H 1900.65 -5.39466 -3.69543 0
M  V30 14244 H 1902.14 -6.71916 -5.01943 0
M  V30 14245 H 1900.44 -7.4649 -6.93477 0
M  V30 14246 H 1900.25 -8.89416 -5.05237 0
M  V30 14247 H 1898.62 -8.14876 -5.18409 0
M  V30 14248 H 1901.26 -3.27957 -5.4317 0
M  V30 14249 P 1903.12 -5.75688 -6.64379 0
M  V30 14250 O 1904.54 -6.07627 -7.05504 0
M  V30 14251 O 1902.76 -5.88047 -5.19722 0
M  V30 14252 O 1902.79 -4.2322 -7.04443 0
M  V30 14253 C 1902.63 -3.99743 -8.4911 0
M  V30 14254 C 1903.17 -2.60516 -8.79425 0
M  V30 14255 O 1902.12 -1.82684 -8.4467 0
M  V30 14256 C 1904.39 -2.10343 -8.03628 0
M  V30 14257 O 1905.13 -1.09919 -8.67766 0
M  V30 14258 C 1903.72 -1.68446 -6.70876 0
M  V30 14259 O 1904.52 -0.678137 -6.08433 0
M  V30 14260 C 1902.39 -1.17436 -7.18567 0
M  V30 14261 H 1902.42 -0.0804732 -7.31656 0
M  V30 14262 H 1903.6 -2.54037 -6.02537 0
M  V30 14263 H 1905.09 -2.93881 -7.85526 0
M  V30 14264 H 1903.39 -2.53065 -9.86973 0
M  V30 14265 H 1903.2 -4.75072 -9.05887 0
M  V30 14266 H 1901.57 -4.05244 -8.76668 0
M  V30 14267 H 1904.21 0.177647 -6.34251 0
M  V30 14268 P 1906.07 -1.25109 -8.70152 0
M  V30 14269 O 1907.49 -1.29772 -9.22214 0
M  V30 14270 O 1905.71 -2.13714 -7.55141 0
M  V30 14271 O 1905.75 0.248149 -8.21425 0
M  V30 14272 C 1905.59 1.22779 -9.30434 0
M  V30 14273 C 1906.13 2.56265 -8.80568 0
M  V30 14274 O 1905.07 3.02979 -8.09349 0
M  V30 14275 C 1907.34 2.57523 -7.89775 0
M  V30 14276 O 1908.08 3.7668 -7.89438 0
M  V30 14277 C 1906.68 2.20997 -6.55446 0
M  V30 14278 O 1907.47 2.71851 -5.48419 0
M  V30 14279 C 1905.34 2.89693 -6.67988 0
M  V30 14280 N 1904.29 2.08895 -6.07487 0
M  V30 14281 C 1904.36 0.760559 -6.14209 0
M  V30 14282 N 1903.31 0.200108 -5.52538 0
M  V30 14283 C 1902.58 1.22692 -5.09742 0
M  V30 14284 C 1901.27 1.24782 -4.48775 0
M  V30 14285 O 1900.54 0.290617 -4.19294 0
M  V30 14286 N 1900.84 2.50468 -4.22428 0
M  V30 14287 C 1901.59 3.67142 -4.51974 0
M  V30 14288 N 1900.99 4.85096 -4.14091 0
M  V30 14289 N 1902.74 3.67821 -5.12831 0
M  V30 14290 C 1903.2 2.43698 -5.4105 0
M  V30 14291 H 1905.37 3.88793 -6.19859 0
M  V30 14292 H 1906.55 1.12029 -6.4413 0
M  V30 14293 H 1908.04 1.78279 -8.19533 0
M  V30 14294 H 1906.34 3.20706 -9.67112 0
M  V30 14295 H 1906.15 0.901032 -10.1892 0
M  V30 14296 H 1904.52 1.33049 -9.56592 0
M  V30 14297 H 1899.95 2.61953 -3.79465 0
M  V30 14298 H 1905.15 0.200439 -6.63497 0
M  V30 14299 H 1900.08 4.8334 -3.66367 0
M  V30 14300 H 1901.46 5.7474 -4.33841 0
M  V30 14301 H 1907.16 3.5779 -5.23879 0
M  V30 14302 P 1909.02 3.65191 -7.99657 0
M  V30 14303 O 1910.44 3.89332 -8.45794 0
M  V30 14304 O 1908.66 2.28472 -7.50807 0
M  V30 14305 O 1908.7 4.64972 -6.77611 0
M  V30 14306 C 1908.54 6.06319 -7.16352 0
M  V30 14307 C 1909.08 6.91731 -6.02299 0
M  V30 14308 O 1908.02 6.92449 -5.17064 0
M  V30 14309 C 1910.29 6.43627 -5.25174 0
M  V30 14310 O 1911.03 7.43686 -4.60469 0
M  V30 14311 C 1909.62 5.40275 -4.31916 0
M  V30 14312 O 1910.42 5.25279 -3.14438 0
M  V30 14313 C 1908.29 6.04847 -4.05327 0
M  V30 14314 H 1908.32 6.62195 -3.11261 0
M  V30 14315 H 1909.5 4.42556 -4.81383 0
M  V30 14316 H 1910.99 5.92458 -5.93643 0
M  V30 14317 H 1909.29 7.92655 -6.402 0
M  V30 14318 H 1909.1 6.26671 -8.0846 0
M  V30 14319 H 1907.47 6.29101 -7.32804 0
M  V30 14320 H 1910.11 5.84315 -2.47318 0
M  V30 14321 P 1911.97 7.39546 -4.75277 0
M  V30 14322 O 1913.39 7.84798 -5.01039 0
M  V30 14323 O 1911.61 5.9812 -5.08098 0
M  V30 14324 O 1911.65 7.57503 -3.1866 0
M  V30 14325 C 1911.49 8.97357 -2.74833 0
M  V30 14326 C 1912.03 9.07548 -1.32709 0
M  V30 14327 O 1910.97 8.62072 -0.606159 0
M  V30 14328 C 1913.24 8.25383 -0.938334 0
M  V30 14329 O 1913.98 8.74577 0.146954 0
M  V30 14330 C 1912.58 6.8802 -0.712559 0
M  V30 14331 O 1913.37 6.1189 0.194655 0
M  V30 14332 C 1911.24 7.27966 -0.139777 0
M  V30 14333 H 1911.27 7.25354 0.961601 0
M  V30 14334 H 1912.45 6.32557 -1.65702 0
M  V30 14335 H 1913.94 8.19355 -1.79097 0
M  V30 14336 H 1912.24 10.1294 -1.10029 0
M  V30 14337 H 1912.05 9.64276 -3.41316 0
M  V30 14338 H 1910.42 9.25417 -2.76357 0
M  V30 14339 H 1913.06 6.25267 1.07847 0
M  V30 14340 P 1914.92 8.791 1.63009e-11 0
M  V30 14341 O 1916.34 9.31096 0.027933 0
M  V30 14342 O 1914.56 7.77869 -1.04071 0
M  V30 14343 O 1914.6 8.09533 1.41463 0
M  V30 14344 C 1914.44 9.0349 2.53943 0
M  V30 14345 C 1914.98 8.35226 3.79016 0
M  V30 14346 O 1913.92 7.57992 4.15078 0
M  V30 14347 C 1916.19 7.45087 3.67298 0
M  V30 14348 O 1916.93 7.27796 4.85194 0
M  V30 14349 C 1915.53 6.17323 3.12027 0
M  V30 14350 O 1916.32 5.04231 3.47188 0
M  V30 14351 C 1914.19 6.19961 3.81809 0
M  V30 14352 H 1914.22 5.58218 4.73051 0
M  V30 14353 H 1915.4 6.21726 2.02589 0
M  V30 14354 H 1916.89 7.86112 2.9231 0
M  V30 14355 H 1915.19 9.11627 4.55076 0
M  V30 14356 H 1915 9.9573 2.34194 0
M  V30 14357 H 1913.37 9.2792 2.67832 0
M  V30 14358 H 1916.01 4.67702 4.28772 0
M  V30 14359 P 1917.87 7.39546 4.75277 0
M  V30 14360 O 1919.29 7.81777 5.05738 0
M  V30 14361 O 1917.51 7.1065 3.32998 0
M  V30 14362 O 1917.55 6.04542 5.56673 0
M  V30 14363 C 1917.39 6.22772 7.02095 0
M  V30 14364 C 1917.93 4.97725 7.70406 0
M  V30 14365 O 1916.87 4.13256 7.58987 0
M  V30 14366 C 1919.15 4.28231 7.11815 0
M  V30 14367 O 1919.88 3.49945 8.01648 0
M  V30 14368 C 1918.48 3.5063 5.96244 0
M  V30 14369 O 1919.28 2.36482 5.64681 0
M  V30 14370 C 1917.14 3.15122 6.56374 0
M  V30 14371 H 1917.17 2.13853 6.99751 0
M  V30 14372 H 1918.35 4.13501 5.06559 0
M  V30 14373 H 1919.84 5.03285 6.70911 0
M  V30 14374 H 1918.14 5.20877 8.75697 0
M  V30 14375 H 1917.95 7.11046 7.35349 0
M  V30 14376 H 1916.32 6.35815 7.26986 0
M  V30 14377 H 1918.96 1.61644 6.13565 0
M  V30 14378 P 1920.82 3.65191 7.99657 0
M  V30 14379 O 1922.24 3.8425 8.48115 0
M  V30 14380 O 1920.46 4.17805 6.64342 0
M  V30 14381 O 1920.5 2.07613 7.95143 0
M  V30 14382 C 1920.34 1.44328 9.27336 0
M  V30 14383 C 1920.88 0.0220036 9.17197 0
M  V30 14384 O 1919.82 -0.626867 8.61923 0
M  V30 14385 C 1922.1 -0.24586 8.30336 0
M  V30 14386 O 1922.83 -1.39011 8.63583 0
M  V30 14387 C 1921.43 -0.273849 6.91158 0
M  V30 14388 O 1922.23 -1.06348 6.02892 0
M  V30 14389 C 1920.09 -0.897649 7.22545 0
M  V30 14390 H 1920.12 -1.9841 7.04286 0
M  V30 14391 H 1921.31 0.739928 6.497 0
M  V30 14392 H 1922.79 0.60668 8.36503 0
M  V30 14393 H 1921.1 -0.352479 10.1829 0
M  V30 14394 H 1920.91 2.00611 10.0304 0
M  V30 14395 H 1919.28 1.41843 9.55327 0
M  V30 14396 H 1921.91 -1.95734 6.03555 0
M  V30 14397 P 1923.77 -1.25109 8.70152 0
M  V30 14398 O 1925.19 -1.35274 9.21221 0
M  V30 14399 O 1923.41 -0.0769065 7.84762 0
M  V30 14400 O 1923.45 -2.55232 7.81161 0
M  V30 14401 C 1923.29 -3.79939 8.58154 0
M  V30 14402 C 1923.83 -4.94023 7.72785 0
M  V30 14403 O 1922.77 -5.18726 6.91205 0
M  V30 14404 C 1925.05 -4.69597 6.85231 0
M  V30 14405 O 1925.78 -5.83832 6.51337 0
M  V30 14406 C 1924.38 -3.96706 5.66633 0
M  V30 14407 O 1925.18 -4.15414 4.49689 0
M  V30 14408 C 1923.04 -4.66153 5.59313 0
M  V30 14409 H 1923.07 -5.47679 4.85214 0
M  V30 14410 H 1924.26 -2.89008 5.86566 0
M  V30 14411 H 1925.74 -4.0121 7.36511 0
M  V30 14412 H 1924.05 -5.80182 8.37584 0
M  V30 14413 H 1923.86 -3.73517 9.52265 0
M  V30 14414 H 1922.23 -3.97163 8.80359 0
M  V30 14415 H 1924.86 -4.90969 4.01921 0
M  V30 14416 P 1926.72 -5.75688 6.64379 0
M  V30 14417 O 1928.14 -6.11849 7.01846 0
M  V30 14418 O 1926.36 -4.30744 6.56026 0
M  V30 14419 O 1926.4 -6.37042 5.19165 0
M  V30 14420 C 1926.24 -7.83578 5.16515 0
M  V30 14421 C 1926.78 -8.33398 3.83019 0
M  V30 14422 O 1925.72 -8.10074 3.01034 0
M  V30 14423 C 1928 -7.65514 3.2257 0
M  V30 14424 O 1928.74 -8.4329 2.32297 0
M  V30 14425 C 1927.33 -6.40075 2.62207 0
M  V30 14426 O 1928.13 -5.92589 1.53712 0
M  V30 14427 C 1925.99 -6.9454 2.18503 0
M  V30 14428 H 1926.02 -7.23063 1.12091 0
M  V30 14429 H 1927.21 -5.6025 3.37201 0
M  V30 14430 H 1928.69 -7.35707 4.02681 0
M  V30 14431 H 1927 -9.40912 3.9095 0
M  V30 14432 H 1926.81 -8.29056 5.99158 0
M  V30 14433 H 1925.18 -8.10073 5.25882 0
M  V30 14434 H 1927.82 -6.30324 0.726794 0
M  V30 14435 P 1929.67 -8.4349 2.47671 0
M  V30 14436 O 1931.09 -8.94167 2.5964 0
M  V30 14437 O 1929.31 -7.1704 3.19006 0
M  V30 14438 O 1929.35 -8.16596 0.923387 0
M  V30 14439 C 1929.19 -9.38437 0.108857 0
M  V30 14440 C 1929.73 -9.08175 -1.28353 0
M  V30 14441 O 1928.67 -8.44229 -1.84713 0
M  V30 14442 C 1930.95 -8.18386 -1.42505 0
M  V30 14443 O 1931.69 -8.3501 -2.60497 0
M  V30 14444 C 1930.28 -6.80225 -1.25468 0
M  V30 14445 O 1931.08 -5.81621 -1.91066 0
M  V30 14446 C 1928.94 -7.02416 -1.9168 0
M  V30 14447 H 1928.97 -6.6888 -2.96621 0
M  V30 14448 H 1930.16 -6.53617 -0.192223 0
M  V30 14449 H 1931.64 -8.36622 -0.589963 0
M  V30 14450 H 1929.95 -10.0291 -1.79807 0
M  V30 14451 H 1929.76 -10.2138 0.558219 0
M  V30 14452 H 1928.13 -9.6579 0.0444202 0
M  V30 14453 H 1930.77 -5.69556 -2.79637 0
M  V30 14454 P 1932.62 -8.4349 -2.47671 0
M  V30 14455 O 1934.05 -8.92593 -2.65 0
M  V30 14456 O 1932.26 -7.7568 -1.19296 0
M  V30 14457 O 1932.3 -7.36886 -3.63805 0
M  V30 14458 C 1932.14 -7.95349 -4.982 0
M  V30 14459 C 1932.68 -6.94612 -5.98974 0
M  V30 14460 O 1931.62 -6.10347 -6.11815 0
M  V30 14461 C 1933.9 -6.11426 -5.62335 0
M  V30 14462 O 1934.64 -5.6162 -6.70584 0
M  V30 14463 C 1933.23 -5.04409 -4.73308 0
M  V30 14464 O 1934.03 -3.85992 -4.75183 0
M  V30 14465 C 1931.89 -4.8728 -5.41006 0
M  V30 14466 H 1931.92 -4.02333 -6.11157 0
M  V30 14467 H 1933.11 -5.39466 -3.69543 0
M  V30 14468 H 1934.59 -6.71916 -5.01943 0
M  V30 14469 H 1932.9 -7.4649 -6.93477 0
M  V30 14470 H 1932.71 -8.89416 -5.05237 0
M  V30 14471 H 1931.08 -8.14876 -5.18409 0
M  V30 14472 H 1933.72 -3.27957 -5.4317 0
M  V30 14473 P 1935.57 -5.75688 -6.64379 0
M  V30 14474 O 1936.97 -6.14823 -7.06682 0
M  V30 14475 O 1935.2 -5.93957 -5.20728 0
M  V30 14476 O 1935.25 -4.23169 -7.04357 0
M  V30 14477 C 1935.09 -3.99743 -8.4911 0
M  V30 14478 C 1935.63 -2.60487 -8.79329 0
M  V30 14479 O 1934.57 -1.82663 -8.44573 0
M  V30 14480 C 1936.85 -2.10343 -8.03628 0
M  V30 14481 O 1937.59 -1.09919 -8.67766 0
M  V30 14482 C 1936.18 -1.68446 -6.70876 0
M  V30 14483 O 1936.98 -0.678026 -6.08333 0
M  V30 14484 C 1934.84 -1.17436 -7.18567 0
M  V30 14485 N 1933.8 -1.52699 -6.23988 0
M  V30 14486 C 1932.76 -0.643793 -6.05085 0
M  V30 14487 O 1932.8 0.459118 -6.64315 0
M  V30 14488 N 1931.75 -0.976931 -5.22038 0
M  V30 14489 C 1931.8 -2.14429 -4.56662 0
M  V30 14490 C 1932.9 -3.04203 -4.71481 0
M  V30 14491 C 1933.86 -2.69669 -5.56838 0
M  V30 14492 H 1934.87 -0.0804622 -7.31556 0
M  V30 14493 H 1936.06 -2.53396 -6.02698 0
M  V30 14494 H 1937.54 -2.9313 -7.85914 0
M  V30 14495 H 1935.85 -2.52078 -9.87225 0
M  V30 14496 H 1935.66 -4.75072 -9.05887 0
M  V30 14497 H 1934.03 -4.05202 -8.76577 0
M  V30 14498 H 1932.94 -3.97309 -4.15519 0
M  V30 14499 H 1934.71 -3.36869 -5.72318 0
M  V30 14500 H 1936.76 0.167718 -6.44882 0
M  V30 14501 P 1938.52 -1.25109 -8.70152 0
M  V30 14502 O 1939.95 -1.29772 -9.22214 0
M  V30 14503 O 1938.16 -2.13714 -7.55141 0
M  V30 14504 O 1938.2 0.248149 -8.21425 0
M  V30 14505 C 1938.04 1.22779 -9.30434 0
M  V30 14506 C 1938.58 2.56265 -8.80568 0
M  V30 14507 O 1937.53 3.02979 -8.09349 0
M  V30 14508 C 1939.8 2.57523 -7.89775 0
M  V30 14509 O 1940.54 3.7668 -7.89438 0
M  V30 14510 C 1939.13 2.20997 -6.55446 0
M  V30 14511 O 1939.93 2.71851 -5.48419 0
M  V30 14512 C 1937.79 2.89693 -6.67988 0
M  V30 14513 N 1936.75 2.08895 -6.07487 0
M  V30 14514 C 1936.81 0.760559 -6.14209 0
M  V30 14515 N 1935.77 0.200108 -5.52538 0
M  V30 14516 C 1935.03 1.22692 -5.09742 0
M  V30 14517 C 1933.73 1.24782 -4.48775 0
M  V30 14518 O 1932.99 0.290617 -4.19294 0
M  V30 14519 N 1933.3 2.50468 -4.22428 0
M  V30 14520 C 1934.05 3.67142 -4.51974 0
M  V30 14521 N 1933.45 4.85096 -4.14091 0
M  V30 14522 N 1935.2 3.67821 -5.12831 0
M  V30 14523 C 1935.66 2.43698 -5.4105 0
M  V30 14524 H 1937.83 3.88793 -6.19859 0
M  V30 14525 H 1939.01 1.12029 -6.4413 0
M  V30 14526 H 1940.49 1.78279 -8.19533 0
M  V30 14527 H 1938.8 3.20706 -9.67112 0
M  V30 14528 H 1938.61 0.901032 -10.1892 0
M  V30 14529 H 1936.98 1.33049 -9.56592 0
M  V30 14530 H 1932.4 2.61953 -3.79465 0
M  V30 14531 H 1937.61 0.200439 -6.63497 0
M  V30 14532 H 1932.54 4.8334 -3.66367 0
M  V30 14533 H 1933.91 5.7474 -4.33841 0
M  V30 14534 H 1939.62 3.5779 -5.23879 0
M  V30 14535 P 1941.48 3.65191 -7.99657 0
M  V30 14536 O 1942.9 3.89332 -8.45794 0
M  V30 14537 O 1941.12 2.28472 -7.50807 0
M  V30 14538 O 1941.15 4.64972 -6.77611 0
M  V30 14539 C 1940.99 6.06319 -7.16352 0
M  V30 14540 C 1941.53 6.91731 -6.02299 0
M  V30 14541 O 1940.48 6.92449 -5.17064 0
M  V30 14542 C 1942.75 6.43627 -5.25174 0
M  V30 14543 O 1943.49 7.43686 -4.60469 0
M  V30 14544 C 1942.08 5.40275 -4.31916 0
M  V30 14545 O 1942.88 5.25279 -3.14438 0
M  V30 14546 C 1940.74 6.04847 -4.05327 0
M  V30 14547 H 1940.78 6.62195 -3.11261 0
M  V30 14548 H 1941.96 4.42556 -4.81383 0
M  V30 14549 H 1943.44 5.92458 -5.93643 0
M  V30 14550 H 1941.75 7.92655 -6.402 0
M  V30 14551 H 1941.56 6.26671 -8.0846 0
M  V30 14552 H 1939.93 6.29101 -7.32804 0
M  V30 14553 H 1942.57 5.84315 -2.47318 0
M  V30 14554 P 1944.43 7.39546 -4.75277 0
M  V30 14555 O 1945.85 7.84798 -5.01039 0
M  V30 14556 O 1944.07 5.9812 -5.08098 0
M  V30 14557 O 1944.1 7.57503 -3.1866 0
M  V30 14558 C 1943.94 8.97357 -2.74833 0
M  V30 14559 C 1944.48 9.07548 -1.32709 0
M  V30 14560 O 1943.43 8.62072 -0.606159 0
M  V30 14561 C 1945.7 8.25383 -0.938334 0
M  V30 14562 O 1946.44 8.74577 0.146954 0
M  V30 14563 C 1945.03 6.8802 -0.712559 0
M  V30 14564 O 1945.83 6.1189 0.194655 0
M  V30 14565 C 1943.69 7.27966 -0.139777 0
M  V30 14566 H 1943.73 7.25354 0.961601 0
M  V30 14567 H 1944.91 6.32557 -1.65702 0
M  V30 14568 H 1946.39 8.19355 -1.79097 0
M  V30 14569 H 1944.7 10.1294 -1.10029 0
M  V30 14570 H 1944.51 9.64276 -3.41316 0
M  V30 14571 H 1942.88 9.25417 -2.76357 0
M  V30 14572 H 1945.52 6.25267 1.07847 0
M  V30 14573 P 1947.38 8.791 1.66111e-11 0
M  V30 14574 O 1948.8 9.31096 0.027933 0
M  V30 14575 O 1947.02 7.77869 -1.04071 0
M  V30 14576 O 1947.05 8.09533 1.41463 0
M  V30 14577 C 1946.89 9.0349 2.53943 0
M  V30 14578 C 1947.43 8.35226 3.79016 0
M  V30 14579 O 1946.38 7.57992 4.15078 0
M  V30 14580 C 1948.65 7.45087 3.67298 0
M  V30 14581 O 1949.39 7.27796 4.85194 0
M  V30 14582 C 1947.98 6.17323 3.12027 0
M  V30 14583 O 1948.78 5.04231 3.47188 0
M  V30 14584 C 1946.65 6.19961 3.81809 0
M  V30 14585 H 1946.68 5.58218 4.73051 0
M  V30 14586 H 1947.86 6.21726 2.02589 0
M  V30 14587 H 1949.34 7.86112 2.9231 0
M  V30 14588 H 1947.65 9.11627 4.55076 0
M  V30 14589 H 1947.46 9.9573 2.34194 0
M  V30 14590 H 1945.83 9.2792 2.67832 0
M  V30 14591 H 1948.47 4.67702 4.28772 0
M  V30 14592 P 1950.33 7.39546 4.75277 0
M  V30 14593 O 1951.75 7.81777 5.05738 0
M  V30 14594 O 1949.97 7.1065 3.32998 0
M  V30 14595 O 1950 6.04542 5.56673 0
M  V30 14596 C 1949.84 6.22772 7.02095 0
M  V30 14597 C 1950.38 4.97725 7.70406 0
M  V30 14598 O 1949.33 4.13256 7.58987 0
M  V30 14599 C 1951.6 4.28231 7.11815 0
M  V30 14600 O 1952.34 3.49945 8.01648 0
M  V30 14601 C 1950.93 3.5063 5.96244 0
M  V30 14602 O 1951.73 2.36482 5.64681 0
M  V30 14603 C 1949.6 3.15122 6.56374 0
M  V30 14604 H 1949.63 2.13853 6.99751 0
M  V30 14605 H 1950.81 4.13501 5.06559 0
M  V30 14606 H 1952.29 5.03285 6.70911 0
M  V30 14607 H 1950.6 5.20877 8.75697 0
M  V30 14608 H 1950.41 7.11046 7.35349 0
M  V30 14609 H 1948.78 6.35815 7.26986 0
M  V30 14610 H 1951.42 1.61644 6.13565 0
M  V30 14611 P 1953.28 3.65191 7.99657 0
M  V30 14612 O 1954.7 3.84292 8.48206 0
M  V30 14613 O 1952.92 4.17805 6.64342 0
M  V30 14614 O 1952.95 2.07613 7.95143 0
M  V30 14615 C 1952.79 1.44344 9.27435 0
M  V30 14616 C 1953.33 0.0220036 9.17197 0
M  V30 14617 O 1952.28 -0.626794 8.61824 0
M  V30 14618 C 1954.55 -0.24586 8.30336 0
M  V30 14619 O 1955.29 -1.39011 8.63583 0
M  V30 14620 C 1953.88 -0.273849 6.91158 0
M  V30 14621 O 1954.68 -1.05728 6.029 0
M  V30 14622 C 1952.55 -0.897649 7.22545 0
M  V30 14623 N 1951.5 -0.292839 6.41732 0
M  V30 14624 C 1951.67 0.950603 5.91308 0
M  V30 14625 N 1950.65 1.37732 5.21105 0
M  V30 14626 C 1949.76 0.318109 5.26039 0
M  V30 14627 C 1948.49 0.146766 4.6727 0
M  V30 14628 N 1947.93 -1.06525 4.95887 0
M  V30 14629 C 1948.53 -2.0378 5.71347 0
M  V30 14630 N 1949.71 -1.92445 6.27451 0
M  V30 14631 C 1950.28 -0.715382 6.00353 0
M  V30 14632 H 1953.76 0.733318 6.49674 0
M  V30 14633 H 1955.24 0.60668 8.36503 0
M  V30 14634 H 1953.55 -0.362662 10.1825 0
M  V30 14635 H 1953.36 2.00611 10.0304 0
M  V30 14636 H 1951.73 1.41843 9.55327 0
M  V30 14637 H 1952.57 1.54076 6.07465 0
M  V30 14638 H 1954.37 -1.95704 6.0346 0
M  V30 14639 P 1956.23 -1.25109 8.70152 0
M  V30 14640 O 1957.65 -1.35274 9.21221 0
M  V30 14641 O 1955.87 -0.0769065 7.84762 0
M  V30 14642 O 1955.9 -2.55232 7.81161 0
M  V30 14643 C 1955.74 -3.79939 8.58154 0
M  V30 14644 C 1956.28 -4.94023 7.72785 0
M  V30 14645 O 1955.23 -5.18726 6.91205 0
M  V30 14646 C 1957.5 -4.69597 6.85231 0
M  V30 14647 O 1958.24 -5.83832 6.51337 0
M  V30 14648 C 1956.83 -3.96706 5.66633 0
M  V30 14649 O 1957.63 -4.15414 4.49689 0
M  V30 14650 C 1955.5 -4.66153 5.59313 0
M  V30 14651 H 1955.53 -5.47679 4.85214 0
M  V30 14652 H 1956.71 -2.89008 5.86566 0
M  V30 14653 H 1958.2 -4.0121 7.36511 0
M  V30 14654 H 1956.5 -5.80182 8.37584 0
M  V30 14655 H 1956.31 -3.73517 9.52265 0
M  V30 14656 H 1954.68 -3.97163 8.80359 0
M  V30 14657 H 1957.32 -4.90969 4.01921 0
M  V30 14658 P 1959.18 -5.75688 6.64379 0
M  V30 14659 O 1960.58 -6.11991 7.09136 0
M  V30 14660 O 1958.8 -4.30899 6.62018 0
M  V30 14661 O 1958.86 -6.36965 5.19102 0
M  V30 14662 C 1958.7 -7.83578 5.16515 0
M  V30 14663 C 1959.24 -8.33307 3.82977 0
M  V30 14664 O 1958.18 -8.0998 3.00999 0
M  V30 14665 C 1960.45 -7.65514 3.2257 0
M  V30 14666 O 1961.19 -8.4329 2.32297 0
M  V30 14667 C 1959.79 -6.40075 2.62207 0
M  V30 14668 O 1960.58 -5.92492 1.53687 0
M  V30 14669 C 1958.45 -6.9454 2.18503 0
M  V30 14670 N 1957.4 -5.95905 2.39948 0
M  V30 14671 C 1956.37 -5.89764 1.49837 0
M  V30 14672 O 1956.41 -6.64088 0.490975 0
M  V30 14673 N 1955.36 -5.02821 1.70992 0
M  V30 14674 C 1955.41 -4.21498 2.77236 0
M  V30 14675 C 1956.5 -4.23389 3.68205 0
M  V30 14676 C 1957.47 -5.12792 3.46171 0
M  V30 14677 H 1958.48 -7.22964 1.12076 0
M  V30 14678 H 1959.66 -5.60502 3.36589 0
M  V30 14679 H 1961.15 -7.36197 4.01993 0
M  V30 14680 H 1959.45 -9.41302 3.90009 0
M  V30 14681 H 1959.26 -8.29056 5.99158 0
M  V30 14682 H 1957.63 -8.09989 5.25828 0
M  V30 14683 H 1956.55 -3.54747 4.52399 0
M  V30 14684 H 1958.31 -5.18551 4.1489 0
M  V30 14685 H 1960.37 -6.40705 0.751752 0
M  V30 14686 P 1962.13 -8.4349 2.47671 0
M  V30 14687 O 1963.55 -8.94167 2.5964 0
M  V30 14688 O 1961.77 -7.1704 3.19006 0
M  V30 14689 O 1961.81 -8.16596 0.923387 0
M  V30 14690 C 1961.65 -9.38437 0.108857 0
M  V30 14691 C 1962.19 -9.08175 -1.28353 0
M  V30 14692 O 1961.13 -8.44229 -1.84713 0
M  V30 14693 C 1963.4 -8.18386 -1.42505 0
M  V30 14694 O 1964.14 -8.3501 -2.60497 0
M  V30 14695 C 1962.74 -6.80225 -1.25468 0
M  V30 14696 O 1963.53 -5.81621 -1.91066 0
M  V30 14697 C 1961.4 -7.02416 -1.9168 0
M  V30 14698 H 1961.43 -6.6888 -2.96621 0
M  V30 14699 H 1962.61 -6.53617 -0.192223 0
M  V30 14700 H 1964.1 -8.36622 -0.589963 0
M  V30 14701 H 1962.4 -10.0291 -1.79807 0
M  V30 14702 H 1962.21 -10.2138 0.558219 0
M  V30 14703 H 1960.58 -9.6579 0.0444202 0
M  V30 14704 H 1963.22 -5.69556 -2.79637 0
M  V30 14705 P 1965.08 -8.4349 -2.47671 0
M  V30 14706 O 1966.5 -8.92593 -2.65 0
M  V30 14707 O 1964.72 -7.7568 -1.19296 0
M  V30 14708 O 1964.76 -7.36886 -3.63805 0
M  V30 14709 C 1964.6 -7.95349 -4.982 0
M  V30 14710 C 1965.14 -6.94612 -5.98974 0
M  V30 14711 O 1964.08 -6.10347 -6.11815 0
M  V30 14712 C 1966.35 -6.11426 -5.62335 0
M  V30 14713 O 1967.09 -5.6162 -6.70584 0
M  V30 14714 C 1965.69 -5.04409 -4.73308 0
M  V30 14715 O 1966.48 -3.85992 -4.75183 0
M  V30 14716 C 1964.35 -4.8728 -5.41006 0
M  V30 14717 H 1964.38 -4.02333 -6.11157 0
M  V30 14718 H 1965.56 -5.39466 -3.69543 0
M  V30 14719 H 1967.05 -6.71916 -5.01943 0
M  V30 14720 H 1965.35 -7.4649 -6.93477 0
M  V30 14721 H 1965.16 -8.89416 -5.05237 0
M  V30 14722 H 1963.53 -8.14876 -5.18409 0
M  V30 14723 H 1966.17 -3.27957 -5.4317 0
M  V30 14724 P 1968.03 -5.75688 -6.64379 0
M  V30 14725 O 1969.45 -6.07627 -7.05504 0
M  V30 14726 O 1967.67 -5.88047 -5.19722 0
M  V30 14727 O 1967.71 -4.2322 -7.04443 0
M  V30 14728 C 1967.55 -3.99743 -8.4911 0
M  V30 14729 C 1968.09 -2.60516 -8.79425 0
M  V30 14730 O 1967.03 -1.82684 -8.4467 0
M  V30 14731 C 1969.31 -2.10343 -8.03628 0
M  V30 14732 O 1970.04 -1.09919 -8.67766 0
M  V30 14733 C 1968.64 -1.68446 -6.70876 0
M  V30 14734 O 1969.44 -0.678137 -6.08433 0
M  V30 14735 C 1967.3 -1.17436 -7.18567 0
M  V30 14736 H 1967.33 -0.0804732 -7.31656 0
M  V30 14737 H 1968.51 -2.54037 -6.02537 0
M  V30 14738 H 1970 -2.93881 -7.85526 0
M  V30 14739 H 1968.3 -2.53065 -9.86973 0
M  V30 14740 H 1968.11 -4.75072 -9.05887 0
M  V30 14741 H 1966.48 -4.05244 -8.76668 0
M  V30 14742 H 1969.12 0.177647 -6.34251 0
M  V30 14743 P 1970.98 -1.25109 -8.70152 0
M  V30 14744 O 1972.4 -1.29758 -9.22115 0
M  V30 14745 O 1970.62 -2.13714 -7.55141 0
M  V30 14746 O 1970.66 0.248149 -8.21425 0
M  V30 14747 C 1970.5 1.22792 -9.30533 0
M  V30 14748 C 1971.04 2.56293 -8.80664 0
M  V30 14749 O 1969.98 3.02944 -8.09255 0
M  V30 14750 C 1972.26 2.57523 -7.89775 0
M  V30 14751 O 1972.99 3.7668 -7.89438 0
M  V30 14752 C 1971.59 2.20997 -6.55446 0
M  V30 14753 O 1972.39 2.71302 -5.48691 0
M  V30 14754 C 1970.25 2.89693 -6.67988 0
M  V30 14755 N 1969.21 2.08895 -6.07487 0
M  V30 14756 C 1969.38 0.753809 -5.94137 0
M  V30 14757 N 1968.35 0.146592 -5.38801 0
M  V30 14758 C 1967.46 1.1768 -5.13693 0
M  V30 14759 C 1966.2 1.17563 -4.52477 0
M  V30 14760 N 1965.6 0.057481 -4.04759 0
M  V30 14761 N 1965.63 2.41918 -4.45789 0
M  V30 14762 C 1966.23 3.56493 -4.90792 0
M  V30 14763 N 1967.41 3.61423 -5.47817 0
M  V30 14764 C 1967.99 2.37779 -5.5588 0
M  V30 14765 H 1970.28 3.8874 -6.19774 0
M  V30 14766 H 1971.46 1.12673 -6.44018 0
M  V30 14767 H 1972.95 1.7746 -8.19711 0
M  V30 14768 H 1971.25 3.21673 -9.66791 0
M  V30 14769 H 1971.06 0.901032 -10.1892 0
M  V30 14770 H 1969.43 1.33049 -9.56592 0
M  V30 14771 H 1965.7 4.49919 -4.77947 0
M  V30 14772 H 1970.28 0.233081 -6.26266 0
M  V30 14773 H 1964.67 0.119831 -3.60801 0
M  V30 14774 H 1966.07 -0.852272 -4.12385 0
M  V30 14775 H 1972.07 3.5779 -5.23879 0
M  V30 14776 P 1973.93 3.65191 -7.99657 0
M  V30 14777 O 1975.35 3.89374 -8.45885 0
M  V30 14778 O 1973.57 2.28472 -7.50807 0
M  V30 14779 O 1973.61 4.64972 -6.77611 0
M  V30 14780 C 1973.45 6.06383 -7.16428 0
M  V30 14781 C 1973.99 6.91731 -6.02299 0
M  V30 14782 O 1972.93 6.92369 -5.17005 0
M  V30 14783 C 1975.21 6.43627 -5.25174 0
M  V30 14784 O 1975.94 7.43686 -4.60469 0
M  V30 14785 C 1974.54 5.40275 -4.31916 0
M  V30 14786 O 1975.34 5.24878 -3.14911 0
M  V30 14787 C 1973.2 6.04847 -4.05327 0
M  V30 14788 N 1972.16 5.04166 -3.98114 0
M  V30 14789 C 1972.33 3.84629 -4.59066 0
M  V30 14790 N 1971.3 3.0363 -4.45343 0
M  V30 14791 C 1970.41 3.76722 -3.68523 0
M  V30 14792 C 1969.15 3.43528 -3.17088 0
M  V30 14793 N 1968.55 2.23665 -3.37397 0
M  V30 14794 N 1968.58 4.44526 -2.44231 0
M  V30 14795 C 1969.18 5.65243 -2.20146 0
M  V30 14796 N 1970.36 6.00221 -2.65453 0
M  V30 14797 C 1970.94 5.00564 -3.39083 0
M  V30 14798 H 1973.23 6.62104 -3.11218 0
M  V30 14799 H 1974.42 4.42969 -4.80867 0
M  V30 14800 H 1975.9 5.92458 -5.93643 0
M  V30 14801 H 1974.2 7.93295 -6.39407 0
M  V30 14802 H 1974.01 6.26671 -8.0846 0
M  V30 14803 H 1972.38 6.29101 -7.32804 0
M  V30 14804 H 1968.65 6.36894 -1.5883 0
M  V30 14805 H 1973.23 3.58193 -5.14248 0
M  V30 14806 H 1967.62 2.05145 -2.97047 0
M  V30 14807 H 1969.02 1.51255 -3.92998 0
M  V30 14808 H 1975.02 5.84223 -2.47279 0
M  V30 14809 P 1976.88 7.39546 -4.75277 0
M  V30 14810 O 1978.3 7.84798 -5.01039 0
M  V30 14811 O 1976.52 5.9812 -5.08098 0
M  V30 14812 O 1976.56 7.57503 -3.1866 0
M  V30 14813 C 1976.4 8.97357 -2.74833 0
M  V30 14814 C 1976.94 9.07548 -1.32709 0
M  V30 14815 O 1975.88 8.62072 -0.606159 0
M  V30 14816 C 1978.16 8.25383 -0.938334 0
M  V30 14817 O 1978.89 8.74577 0.146954 0
M  V30 14818 C 1977.49 6.8802 -0.712559 0
M  V30 14819 O 1978.29 6.1189 0.194655 0
M  V30 14820 C 1976.15 7.27966 -0.139777 0
M  V30 14821 H 1976.18 7.25354 0.961601 0
M  V30 14822 H 1977.37 6.32557 -1.65702 0
M  V30 14823 H 1978.85 8.19355 -1.79097 0
M  V30 14824 H 1977.16 10.1294 -1.10029 0
M  V30 14825 H 1976.97 9.64276 -3.41316 0
M  V30 14826 H 1975.34 9.25417 -2.76357 0
M  V30 14827 H 1977.97 6.25267 1.07847 0
M  V30 14828 P 1979.83 8.791 1.69213e-11 0
M  V30 14829 O 1981.25 9.31096 0.027933 0
M  V30 14830 O 1979.47 7.77869 -1.04071 0
M  V30 14831 O 1979.51 8.09533 1.41463 0
M  V30 14832 C 1979.35 9.0349 2.53943 0
M  V30 14833 C 1979.89 8.35226 3.79016 0
M  V30 14834 O 1978.83 7.57992 4.15078 0
M  V30 14835 C 1981.11 7.45087 3.67298 0
M  V30 14836 O 1981.85 7.27796 4.85194 0
M  V30 14837 C 1980.44 6.17323 3.12027 0
M  V30 14838 O 1981.24 5.04231 3.47188 0
M  V30 14839 C 1979.1 6.19961 3.81809 0
M  V30 14840 H 1979.13 5.58218 4.73051 0
M  V30 14841 H 1980.32 6.21726 2.02589 0
M  V30 14842 H 1981.8 7.86112 2.9231 0
M  V30 14843 H 1980.11 9.11627 4.55076 0
M  V30 14844 H 1979.92 9.9573 2.34194 0
M  V30 14845 H 1978.29 9.2792 2.67832 0
M  V30 14846 H 1980.93 4.67702 4.28772 0
M  V30 14847 P 1982.78 7.39546 4.75277 0
M  V30 14848 O 1984.21 7.81777 5.05738 0
M  V30 14849 O 1982.42 7.1065 3.32998 0
M  V30 14850 O 1982.46 6.04542 5.56673 0
M  V30 14851 C 1982.3 6.22772 7.02095 0
M  V30 14852 C 1982.84 4.97725 7.70406 0
M  V30 14853 O 1981.78 4.13256 7.58987 0
M  V30 14854 C 1984.06 4.28231 7.11815 0
M  V30 14855 O 1984.8 3.49945 8.01648 0
M  V30 14856 C 1983.39 3.5063 5.96244 0
M  V30 14857 O 1984.19 2.36482 5.64681 0
M  V30 14858 C 1982.05 3.15122 6.56374 0
M  V30 14859 H 1982.08 2.13853 6.99751 0
M  V30 14860 H 1983.27 4.13501 5.06559 0
M  V30 14861 H 1984.75 5.03285 6.70911 0
M  V30 14862 H 1983.06 5.20877 8.75697 0
M  V30 14863 H 1982.87 7.11046 7.35349 0
M  V30 14864 H 1981.24 6.35815 7.26986 0
M  V30 14865 H 1983.88 1.61644 6.13565 0
M  V30 14866 P 1985.73 3.65191 7.99657 0
M  V30 14867 O 1987.16 3.8425 8.48115 0
M  V30 14868 O 1985.37 4.17805 6.64342 0
M  V30 14869 O 1985.41 2.07613 7.95143 0
M  V30 14870 C 1985.25 1.44328 9.27336 0
M  V30 14871 C 1985.79 0.0220036 9.17197 0
M  V30 14872 O 1984.73 -0.626867 8.61923 0
M  V30 14873 C 1987.01 -0.24586 8.30336 0
M  V30 14874 O 1987.75 -1.39011 8.63583 0
M  V30 14875 C 1986.34 -0.273849 6.91158 0
M  V30 14876 O 1987.14 -1.06348 6.02892 0
M  V30 14877 C 1985 -0.897649 7.22545 0
M  V30 14878 H 1985.03 -1.9841 7.04286 0
M  V30 14879 H 1986.22 0.739928 6.497 0
M  V30 14880 H 1987.7 0.60668 8.36503 0
M  V30 14881 H 1986.01 -0.352479 10.1829 0
M  V30 14882 H 1985.82 2.00611 10.0304 0
M  V30 14883 H 1984.19 1.41843 9.55327 0
M  V30 14884 H 1986.83 -1.95734 6.03555 0
M  V30 14885 P 1988.68 -1.25109 8.70152 0
M  V30 14886 O 1990.11 -1.35274 9.21221 0
M  V30 14887 O 1988.32 -0.0769065 7.84762 0
M  V30 14888 O 1988.36 -2.55232 7.81161 0
M  V30 14889 C 1988.2 -3.79939 8.58154 0
M  V30 14890 C 1988.74 -4.94023 7.72785 0
M  V30 14891 O 1987.69 -5.18726 6.91205 0
M  V30 14892 C 1989.96 -4.69597 6.85231 0
M  V30 14893 O 1990.7 -5.83832 6.51337 0
M  V30 14894 C 1989.29 -3.96706 5.66633 0
M  V30 14895 O 1990.09 -4.15414 4.49689 0
M  V30 14896 C 1987.95 -4.66153 5.59313 0
M  V30 14897 H 1987.99 -5.47679 4.85214 0
M  V30 14898 H 1989.17 -2.89008 5.86566 0
M  V30 14899 H 1990.65 -4.0121 7.36511 0
M  V30 14900 H 1988.96 -5.80182 8.37584 0
M  V30 14901 H 1988.77 -3.73517 9.52265 0
M  V30 14902 H 1987.14 -3.97163 8.80359 0
M  V30 14903 H 1989.78 -4.90969 4.01921 0
M  V30 14904 P 1991.63 -5.75688 6.64379 0
M  V30 14905 O 1993.06 -6.11849 7.01846 0
M  V30 14906 O 1991.27 -4.30744 6.56026 0
M  V30 14907 O 1991.31 -6.37042 5.19165 0
M  V30 14908 C 1991.15 -7.83578 5.16515 0
M  V30 14909 C 1991.69 -8.33398 3.83019 0
M  V30 14910 O 1990.64 -8.10074 3.01034 0
M  V30 14911 C 1992.91 -7.65514 3.2257 0
M  V30 14912 O 1993.65 -8.4329 2.32297 0
M  V30 14913 C 1992.24 -6.40075 2.62207 0
M  V30 14914 O 1993.04 -5.92589 1.53712 0
M  V30 14915 C 1990.9 -6.9454 2.18503 0
M  V30 14916 H 1990.94 -7.23063 1.12091 0
M  V30 14917 H 1992.12 -5.6025 3.37201 0
M  V30 14918 H 1993.6 -7.35707 4.02681 0
M  V30 14919 H 1991.91 -9.40912 3.9095 0
M  V30 14920 H 1991.72 -8.29056 5.99158 0
M  V30 14921 H 1990.09 -8.10073 5.25882 0
M  V30 14922 H 1992.73 -6.30324 0.726794 0
M  V30 14923 P 1994.59 -8.4349 2.47671 0
M  V30 14924 O 1996.01 -8.94167 2.5964 0
M  V30 14925 O 1994.23 -7.1704 3.19006 0
M  V30 14926 O 1994.26 -8.16596 0.923387 0
M  V30 14927 C 1994.1 -9.38437 0.108857 0
M  V30 14928 C 1994.64 -9.08175 -1.28353 0
M  V30 14929 O 1993.59 -8.44229 -1.84713 0
M  V30 14930 C 1995.86 -8.18386 -1.42505 0
M  V30 14931 O 1996.6 -8.3501 -2.60497 0
M  V30 14932 C 1995.19 -6.80225 -1.25468 0
M  V30 14933 O 1995.99 -5.81621 -1.91066 0
M  V30 14934 C 1993.85 -7.02416 -1.9168 0
M  V30 14935 H 1993.89 -6.6888 -2.96621 0
M  V30 14936 H 1995.07 -6.53617 -0.192223 0
M  V30 14937 H 1996.55 -8.36622 -0.589963 0
M  V30 14938 H 1994.86 -10.0291 -1.79807 0
M  V30 14939 H 1994.67 -10.2138 0.558219 0
M  V30 14940 H 1993.04 -9.6579 0.0444202 0
M  V30 14941 H 1995.68 -5.69556 -2.79637 0
M  V30 14942 P 1997.54 -8.4349 -2.47671 0
M  V30 14943 O 1998.96 -8.92593 -2.65 0
M  V30 14944 O 1997.18 -7.7568 -1.19296 0
M  V30 14945 O 1997.21 -7.36886 -3.63805 0
M  V30 14946 C 1997.05 -7.95349 -4.982 0
M  V30 14947 C 1997.59 -6.94612 -5.98974 0
M  V30 14948 O 1996.54 -6.10347 -6.11815 0
M  V30 14949 C 1998.81 -6.11426 -5.62335 0
M  V30 14950 O 1999.55 -5.6162 -6.70584 0
M  V30 14951 C 1998.14 -5.04409 -4.73308 0
M  V30 14952 O 1998.94 -3.85992 -4.75183 0
M  V30 14953 C 1996.8 -4.8728 -5.41006 0
M  V30 14954 H 1996.84 -4.02333 -6.11157 0
M  V30 14955 H 1998.02 -5.39466 -3.69543 0
M  V30 14956 H 1999.5 -6.71916 -5.01943 0
M  V30 14957 H 1997.81 -7.4649 -6.93477 0
M  V30 14958 H 1997.62 -8.89416 -5.05237 0
M  V30 14959 H 1995.99 -8.14876 -5.18409 0
M  V30 14960 H 1998.63 -3.27957 -5.4317 0
M  V30 14961 P 2000.49 -5.75688 -6.64379 0
M  V30 14962 O 2001.91 -6.07627 -7.05504 0
M  V30 14963 O 2000.13 -5.88047 -5.19722 0
M  V30 14964 O 2000.16 -4.2322 -7.04443 0
M  V30 14965 C 2000 -3.99743 -8.4911 0
M  V30 14966 C 2000.54 -2.60516 -8.79425 0
M  V30 14967 O 1999.49 -1.82684 -8.4467 0
M  V30 14968 C 2001.76 -2.10343 -8.03628 0
M  V30 14969 O 2002.5 -1.09919 -8.67766 0
M  V30 14970 C 2001.09 -1.68446 -6.70876 0
M  V30 14971 O 2001.89 -0.678137 -6.08433 0
M  V30 14972 C 1999.76 -1.17436 -7.18567 0
M  V30 14973 H 1999.79 -0.0804732 -7.31656 0
M  V30 14974 H 2000.97 -2.54037 -6.02537 0
M  V30 14975 H 2002.45 -2.93881 -7.85526 0
M  V30 14976 H 2000.76 -2.53065 -9.86973 0
M  V30 14977 H 2000.57 -4.75072 -9.05887 0
M  V30 14978 H 1998.94 -4.05244 -8.76668 0
M  V30 14979 H 2001.58 0.177647 -6.34251 0
M  V30 14980 P 2003.44 -1.25109 -8.70152 0
M  V30 14981 O 2004.86 -1.29744 -9.22016 0
M  V30 14982 O 2003.08 -2.13714 -7.55141 0
M  V30 14983 O 2003.11 0.248149 -8.21425 0
M  V30 14984 C 2002.95 1.22779 -9.30434 0
M  V30 14985 C 2003.49 2.56293 -8.80664 0
M  V30 14986 O 2002.44 3.02979 -8.09349 0
M  V30 14987 C 2004.71 2.57523 -7.89775 0
M  V30 14988 O 2005.45 3.7668 -7.89438 0
M  V30 14989 C 2004.04 2.20997 -6.55446 0
M  V30 14990 O 2004.84 2.71895 -5.48509 0
M  V30 14991 C 2002.71 2.89693 -6.67988 0
M  V30 14992 H 2002.74 3.88793 -6.19859 0
M  V30 14993 H 2003.92 1.12046 -6.44229 0
M  V30 14994 H 2005.41 1.7746 -8.19711 0
M  V30 14995 H 2003.71 3.20706 -9.67112 0
M  V30 14996 H 2003.52 0.901032 -10.1892 0
M  V30 14997 H 2001.89 1.33049 -9.56592 0
M  V30 14998 H 2004.53 3.57847 -5.23962 0
M  V30 14999 P 2006.39 3.65191 -7.99657 0
M  V30 15000 O 2007.81 3.89332 -8.45794 0
M  V30 15001 O 2006.03 2.28472 -7.50807 0
M  V30 15002 O 2006.06 4.64972 -6.77611 0
M  V30 15003 C 2005.9 6.06319 -7.16352 0
M  V30 15004 C 2006.44 6.91731 -6.02299 0
M  V30 15005 O 2005.39 6.92449 -5.17064 0
M  V30 15006 C 2007.66 6.43627 -5.25174 0
M  V30 15007 O 2008.4 7.43686 -4.60469 0
M  V30 15008 C 2006.99 5.40275 -4.31916 0
M  V30 15009 O 2007.79 5.25279 -3.14438 0
M  V30 15010 C 2005.66 6.04847 -4.05327 0
M  V30 15011 H 2005.69 6.62195 -3.11261 0
M  V30 15012 H 2006.87 4.42556 -4.81383 0
M  V30 15013 H 2008.36 5.92458 -5.93643 0
M  V30 15014 H 2006.66 7.92655 -6.402 0
M  V30 15015 H 2006.47 6.26671 -8.0846 0
M  V30 15016 H 2004.84 6.29101 -7.32804 0
M  V30 15017 H 2007.48 5.84315 -2.47318 0
M  V30 15018 P 2009.34 7.39546 -4.75277 0
M  V30 15019 O 2010.76 7.84798 -5.01039 0
M  V30 15020 O 2008.98 5.9812 -5.08098 0
M  V30 15021 O 2009.02 7.57503 -3.1866 0
M  V30 15022 C 2008.86 8.97357 -2.74833 0
M  V30 15023 C 2009.4 9.07548 -1.32709 0
M  V30 15024 O 2008.34 8.62072 -0.606159 0
M  V30 15025 C 2010.61 8.25383 -0.938334 0
M  V30 15026 O 2011.35 8.74577 0.146954 0
M  V30 15027 C 2009.94 6.8802 -0.712559 0
M  V30 15028 O 2010.74 6.1189 0.194655 0
M  V30 15029 C 2008.61 7.27966 -0.139777 0
M  V30 15030 H 2008.64 7.25354 0.961601 0
M  V30 15031 H 2009.82 6.32557 -1.65702 0
M  V30 15032 H 2011.31 8.19355 -1.79097 0
M  V30 15033 H 2009.61 10.1294 -1.10029 0
M  V30 15034 H 2009.42 9.64276 -3.41316 0
M  V30 15035 H 2007.79 9.25417 -2.76357 0
M  V30 15036 H 2010.43 6.25267 1.07847 0
M  V30 15037 P 2012.29 8.791 1.72314e-11 0
M  V30 15038 O 2013.71 9.31096 0.027933 0
M  V30 15039 O 2011.93 7.77869 -1.04071 0
M  V30 15040 O 2011.97 8.09533 1.41463 0
M  V30 15041 C 2011.81 9.0349 2.53943 0
M  V30 15042 C 2012.35 8.35226 3.79016 0
M  V30 15043 O 2011.29 7.57992 4.15078 0
M  V30 15044 C 2013.56 7.45087 3.67298 0
M  V30 15045 O 2014.3 7.27796 4.85194 0
M  V30 15046 C 2012.89 6.17323 3.12027 0
M  V30 15047 O 2013.69 5.04231 3.47188 0
M  V30 15048 C 2011.56 6.19961 3.81809 0
M  V30 15049 H 2011.59 5.58218 4.73051 0
M  V30 15050 H 2012.77 6.21726 2.02589 0
M  V30 15051 H 2014.26 7.86112 2.9231 0
M  V30 15052 H 2012.56 9.11627 4.55076 0
M  V30 15053 H 2012.37 9.9573 2.34194 0
M  V30 15054 H 2010.74 9.2792 2.67832 0
M  V30 15055 H 2013.38 4.67702 4.28772 0
M  V30 15056 P 2015.24 7.39546 4.75277 0
M  V30 15057 O 2016.66 7.81861 5.05793 0
M  V30 15058 O 2014.88 7.1065 3.32998 0
M  V30 15059 O 2014.92 6.04542 5.56673 0
M  V30 15060 C 2014.76 6.22839 7.02169 0
M  V30 15061 C 2015.3 4.97725 7.70406 0
M  V30 15062 O 2014.24 4.13208 7.58899 0
M  V30 15063 C 2016.51 4.28231 7.11815 0
M  V30 15064 O 2017.25 3.49945 8.01648 0
M  V30 15065 C 2015.85 3.5063 5.96244 0
M  V30 15066 O 2016.64 2.37008 5.64352 0
M  V30 15067 C 2014.51 3.15122 6.56374 0
M  V30 15068 N 2013.47 3.22311 5.55692 0
M  V30 15069 C 2013.63 3.99655 4.46046 0
M  V30 15070 N 2012.61 3.97599 3.63918 0
M  V30 15071 C 2011.72 3.11159 4.25334 0
M  V30 15072 C 2010.46 2.64972 3.85157 0
M  V30 15073 N 2009.86 3.02132 2.69405 0
M  V30 15074 N 2009.89 1.78482 4.74759 0
M  V30 15075 C 2010.49 1.37463 5.90819 0
M  V30 15076 N 2011.67 1.7733 6.31889 0
M  V30 15077 C 2012.24 2.64393 5.43725 0
M  V30 15078 H 2014.54 2.13823 6.99656 0
M  V30 15079 H 2015.72 4.12931 5.06895 0
M  V30 15080 H 2017.21 5.03285 6.70911 0
M  V30 15081 H 2015.51 5.20001 8.76217 0
M  V30 15082 H 2015.32 7.11046 7.35349 0
M  V30 15083 H 2013.69 6.35815 7.26986 0
M  V30 15084 H 2009.96 0.66574 6.53015 0
M  V30 15085 H 2014.53 4.58037 4.27732 0
M  V30 15086 H 2008.93 2.64828 2.45331 0
M  V30 15087 H 2010.33 3.67472 2.05644 0
M  V30 15088 H 2016.33 1.61619 6.13468 0
M  V30 15089 P 2018.19 3.65191 7.99657 0
M  V30 15090 O 2019.61 3.8425 8.48115 0
M  V30 15091 O 2017.83 4.17805 6.64342 0
M  V30 15092 O 2017.87 2.07613 7.95143 0
M  V30 15093 C 2017.71 1.44328 9.27336 0
M  V30 15094 C 2018.25 0.0220036 9.17197 0
M  V30 15095 O 2017.19 -0.626867 8.61923 0
M  V30 15096 C 2019.46 -0.24586 8.30336 0
M  V30 15097 O 2020.2 -1.39011 8.63583 0
M  V30 15098 C 2018.8 -0.273849 6.91158 0
M  V30 15099 O 2019.59 -1.06348 6.02892 0
M  V30 15100 C 2017.46 -0.897649 7.22545 0
M  V30 15101 H 2017.49 -1.9841 7.04286 0
M  V30 15102 H 2018.67 0.739928 6.497 0
M  V30 15103 H 2020.16 0.60668 8.36503 0
M  V30 15104 H 2018.46 -0.352479 10.1829 0
M  V30 15105 H 2018.27 2.00611 10.0304 0
M  V30 15106 H 2016.64 1.41843 9.55327 0
M  V30 15107 H 2019.28 -1.95734 6.03555 0
M  V30 15108 P 2021.14 -1.25109 8.70152 0
M  V30 15109 O 2022.56 -1.35274 9.21221 0
M  V30 15110 O 2020.78 -0.0769065 7.84762 0
M  V30 15111 O 2020.82 -2.55232 7.81161 0
M  V30 15112 C 2020.66 -3.79939 8.58154 0
M  V30 15113 C 2021.2 -4.94023 7.72785 0
M  V30 15114 O 2020.14 -5.18726 6.91205 0
M  V30 15115 C 2022.42 -4.69597 6.85231 0
M  V30 15116 O 2023.15 -5.83832 6.51337 0
M  V30 15117 C 2021.75 -3.96706 5.66633 0
M  V30 15118 O 2022.55 -4.15414 4.49689 0
M  V30 15119 C 2020.41 -4.66153 5.59313 0
M  V30 15120 H 2020.44 -5.47679 4.85214 0
M  V30 15121 H 2021.62 -2.89008 5.86566 0
M  V30 15122 H 2023.11 -4.0121 7.36511 0
M  V30 15123 H 2021.41 -5.80182 8.37584 0
M  V30 15124 H 2021.22 -3.73517 9.52265 0
M  V30 15125 H 2019.59 -3.97163 8.80359 0
M  V30 15126 H 2022.23 -4.90969 4.01921 0
M  V30 15127 P 2024.09 -5.75688 6.64379 0
M  V30 15128 O 2025.51 -6.11981 7.01997 0
M  V30 15129 O 2023.73 -4.30744 6.56026 0
M  V30 15130 O 2023.77 -6.37042 5.19165 0
M  V30 15131 C 2023.61 -7.83578 5.16515 0
M  V30 15132 C 2024.15 -8.33307 3.82977 0
M  V30 15133 O 2023.09 -8.10074 3.01034 0
M  V30 15134 C 2025.37 -7.65514 3.2257 0
M  V30 15135 O 2026.1 -8.4329 2.32297 0
M  V30 15136 C 2024.7 -6.40075 2.62207 0
M  V30 15137 O 2025.5 -5.92492 1.53687 0
M  V30 15138 C 2023.36 -6.9454 2.18503 0
M  V30 15139 N 2022.32 -5.95905 2.39948 0
M  V30 15140 C 2022.38 -5.13994 3.44742 0
M  V30 15141 N 2021.33 -4.30684 3.46712 0
M  V30 15142 C 2020.6 -4.65583 2.41086 0
M  V30 15143 C 2019.29 -4.20877 1.99581 0
M  V30 15144 O 2018.56 -3.35913 2.52616 0
M  V30 15145 N 2018.86 -4.83271 0.873406 0
M  V30 15146 C 2019.61 -5.82006 0.185129 0
M  V30 15147 N 2019.02 -6.30619 -0.95439 0
M  V30 15148 N 2020.77 -6.28443 0.578524 0
M  V30 15149 C 2021.22 -5.68486 1.70138 0
M  V30 15150 H 2023.39 -7.23063 1.12091 0
M  V30 15151 H 2024.58 -5.60165 3.3715 0
M  V30 15152 H 2026.06 -7.3611 4.01946 0
M  V30 15153 H 2024.37 -9.40912 3.9095 0
M  V30 15154 H 2024.18 -8.29056 5.99158 0
M  V30 15155 H 2022.54 -8.10073 5.25882 0
M  V30 15156 H 2017.97 -4.58323 0.505262 0
M  V30 15157 H 2023.18 -5.14564 4.1935 0
M  V30 15158 H 2018.11 -5.93402 -1.25364 0
M  V30 15159 H 2019.48 -7.0425 -1.50254 0
M  V30 15160 H 2025.19 -6.30224 0.72668 0
M  V30 15161 P 2027.04 -8.4349 2.47671 0
M  V30 15162 O 2028.46 -8.94167 2.5964 0
M  V30 15163 O 2026.68 -7.1704 3.19006 0
M  V30 15164 O 2026.72 -8.16596 0.923387 0
M  V30 15165 C 2026.56 -9.38437 0.108857 0
M  V30 15166 C 2027.1 -9.08175 -1.28353 0
M  V30 15167 O 2026.04 -8.44229 -1.84713 0
M  V30 15168 C 2028.32 -8.18386 -1.42505 0
M  V30 15169 O 2029.05 -8.3501 -2.60497 0
M  V30 15170 C 2027.65 -6.80225 -1.25468 0
M  V30 15171 O 2028.45 -5.81621 -1.91066 0
M  V30 15172 C 2026.31 -7.02416 -1.9168 0
M  V30 15173 H 2026.34 -6.6888 -2.96621 0
M  V30 15174 H 2027.53 -6.53617 -0.192223 0
M  V30 15175 H 2029.01 -8.36622 -0.589963 0
M  V30 15176 H 2027.32 -10.0291 -1.79807 0
M  V30 15177 H 2027.13 -10.2138 0.558219 0
M  V30 15178 H 2025.5 -9.6579 0.0444202 0
M  V30 15179 H 2028.13 -5.69556 -2.79637 0
M  V30 15180 P 2029.99 -8.4349 -2.47671 0
M  V30 15181 O 2031.41 -8.92593 -2.65 0
M  V30 15182 O 2029.63 -7.7568 -1.19296 0
M  V30 15183 O 2029.67 -7.36886 -3.63805 0
M  V30 15184 C 2029.51 -7.95349 -4.982 0
M  V30 15185 C 2030.05 -6.94612 -5.98974 0
M  V30 15186 O 2028.99 -6.10347 -6.11815 0
M  V30 15187 C 2031.27 -6.11426 -5.62335 0
M  V30 15188 O 2032.01 -5.6162 -6.70584 0
M  V30 15189 C 2030.6 -5.04409 -4.73308 0
M  V30 15190 O 2031.4 -3.85992 -4.75183 0
M  V30 15191 C 2029.26 -4.8728 -5.41006 0
M  V30 15192 H 2029.29 -4.02333 -6.11157 0
M  V30 15193 H 2030.48 -5.39466 -3.69543 0
M  V30 15194 H 2031.96 -6.71916 -5.01943 0
M  V30 15195 H 2030.27 -7.4649 -6.93477 0
M  V30 15196 H 2030.08 -8.89416 -5.05237 0
M  V30 15197 H 2028.45 -8.14876 -5.18409 0
M  V30 15198 H 2031.09 -3.27957 -5.4317 0
M  V30 15199 P 2032.94 -5.75688 -6.64379 0
M  V30 15200 O 2034.36 -6.07692 -7.0558 0
M  V30 15201 O 2032.58 -5.88047 -5.19722 0
M  V30 15202 O 2032.62 -4.2322 -7.04443 0
M  V30 15203 C 2032.46 -3.99785 -8.49201 0
M  V30 15204 C 2033 -2.60516 -8.79425 0
M  V30 15205 O 2031.94 -1.82663 -8.44573 0
M  V30 15206 C 2034.22 -2.10343 -8.03628 0
M  V30 15207 O 2034.96 -1.09919 -8.67766 0
M  V30 15208 C 2033.55 -1.68446 -6.70876 0
M  V30 15209 O 2034.35 -0.684109 -6.08265 0
M  V30 15210 C 2032.21 -1.17436 -7.18567 0
M  V30 15211 N 2031.17 -1.52699 -6.23988 0
M  V30 15212 C 2031.34 -2.578 -5.40574 0
M  V30 15213 N 2030.31 -2.78966 -4.61193 0
M  V30 15214 C 2029.43 -1.78725 -4.95769 0
M  V30 15215 C 2028.16 -1.45727 -4.44207 0
M  V30 15216 N 2027.59 -0.374977 -5.05812 0
M  V30 15217 C 2028.2 0.345585 -6.05615 0
M  V30 15218 N 2029.37 0.0787651 -6.56253 0
M  V30 15219 C 2029.95 -1.00499 -5.96189 0
M  V30 15220 H 2033.43 -2.53396 -6.02698 0
M  V30 15221 H 2034.91 -2.93881 -7.85526 0
M  V30 15222 H 2033.22 -2.52078 -9.87225 0
M  V30 15223 H 2033.03 -4.75072 -9.05887 0
M  V30 15224 H 2031.4 -4.05244 -8.76668 0
M  V30 15225 H 2032.24 -3.18977 -5.3945 0
M  V30 15226 H 2034.04 0.177619 -6.34151 0
M  V30 15227 P 2035.89 -1.25109 -8.70152 0
M  V30 15228 O 2037.32 -1.29744 -9.22016 0
M  V30 15229 O 2035.53 -2.13714 -7.55141 0
M  V30 15230 O 2035.57 0.248149 -8.21425 0
M  V30 15231 C 2035.41 1.22779 -9.30434 0
M  V30 15232 C 2035.95 2.56293 -8.80664 0
M  V30 15233 O 2034.89 3.02979 -8.09349 0
M  V30 15234 C 2037.17 2.57523 -7.89775 0
M  V30 15235 O 2037.91 3.7668 -7.89438 0
M  V30 15236 C 2036.5 2.20997 -6.55446 0
M  V30 15237 O 2037.3 2.71895 -5.48509 0
M  V30 15238 C 2035.16 2.89693 -6.67988 0
M  V30 15239 H 2035.19 3.88793 -6.19859 0
M  V30 15240 H 2036.38 1.12046 -6.44229 0
M  V30 15241 H 2037.86 1.7746 -8.19711 0
M  V30 15242 H 2036.17 3.20706 -9.67112 0
M  V30 15243 H 2035.98 0.901032 -10.1892 0
M  V30 15244 H 2034.35 1.33049 -9.56592 0
M  V30 15245 H 2036.99 3.57847 -5.23962 0
M  V30 15246 P 2038.84 3.65191 -7.99657 0
M  V30 15247 O 2040.27 3.89332 -8.45794 0
M  V30 15248 O 2038.48 2.28472 -7.50807 0
M  V30 15249 O 2038.52 4.64972 -6.77611 0
M  V30 15250 C 2038.36 6.06319 -7.16352 0
M  V30 15251 C 2038.9 6.91731 -6.02299 0
M  V30 15252 O 2037.84 6.92449 -5.17064 0
M  V30 15253 C 2040.12 6.43627 -5.25174 0
M  V30 15254 O 2040.86 7.43686 -4.60469 0
M  V30 15255 C 2039.45 5.40275 -4.31916 0
M  V30 15256 O 2040.25 5.25279 -3.14438 0
M  V30 15257 C 2038.11 6.04847 -4.05327 0
M  V30 15258 H 2038.14 6.62195 -3.11261 0
M  V30 15259 H 2039.33 4.42556 -4.81383 0
M  V30 15260 H 2040.81 5.92458 -5.93643 0
M  V30 15261 H 2039.12 7.92655 -6.402 0
M  V30 15262 H 2038.93 6.26671 -8.0846 0
M  V30 15263 H 2037.3 6.29101 -7.32804 0
M  V30 15264 H 2039.94 5.84315 -2.47318 0
M  V30 15265 P 2041.79 7.39546 -4.75277 0
M  V30 15266 O 2043.22 7.84798 -5.01039 0
M  V30 15267 O 2041.43 5.9812 -5.08098 0
M  V30 15268 O 2041.47 7.57503 -3.1866 0
M  V30 15269 C 2041.31 8.97357 -2.74833 0
M  V30 15270 C 2041.85 9.07548 -1.32709 0
M  V30 15271 O 2040.8 8.62072 -0.606159 0
M  V30 15272 C 2043.07 8.25383 -0.938334 0
M  V30 15273 O 2043.81 8.74577 0.146954 0
M  V30 15274 C 2042.4 6.8802 -0.712559 0
M  V30 15275 O 2043.2 6.1189 0.194655 0
M  V30 15276 C 2041.06 7.27966 -0.139777 0
M  V30 15277 H 2041.1 7.25354 0.961601 0
M  V30 15278 H 2042.28 6.32557 -1.65702 0
M  V30 15279 H 2043.76 8.19355 -1.79097 0
M  V30 15280 H 2042.07 10.1294 -1.10029 0
M  V30 15281 H 2041.88 9.64276 -3.41316 0
M  V30 15282 H 2040.25 9.25417 -2.76357 0
M  V30 15283 H 2042.89 6.25267 1.07847 0
M  V30 15284 P 2044.75 8.791 1.75416e-11 0
M  V30 15285 O 2046.17 9.31196 0.027936 0
M  V30 15286 O 2044.39 7.77869 -1.04071 0
M  V30 15287 O 2044.42 8.09533 1.41463 0
M  V30 15288 C 2044.26 9.03587 2.5397 0
M  V30 15289 C 2044.8 8.35226 3.79016 0
M  V30 15290 O 2043.75 7.57904 4.1503 0
M  V30 15291 C 2046.02 7.45087 3.67298 0
M  V30 15292 O 2046.76 7.27796 4.85194 0
M  V30 15293 C 2045.35 6.17323 3.12027 0
M  V30 15294 O 2046.15 5.04496 3.46627 0
M  V30 15295 C 2044.01 6.19961 3.81809 0
M  V30 15296 N 2042.97 5.71575 2.93223 0
M  V30 15297 C 2043.14 5.77362 1.59168 0
M  V30 15298 N 2042.11 5.3123 0.911893 0
M  V30 15299 C 2041.23 4.91717 1.89588 0
M  V30 15300 C 2039.96 4.3114 1.8076 0
M  V30 15301 N 2039.4 4.06823 3.02898 0
M  V30 15302 C 2040 4.35062 4.22711 0
M  V30 15303 N 2041.18 4.90805 4.35707 0
M  V30 15304 C 2041.75 5.16382 3.14469 0
M  V30 15305 H 2045.23 6.21428 2.0318 0
M  V30 15306 H 2046.71 7.86112 2.9231 0
M  V30 15307 H 2045.02 9.11171 4.55987 0
M  V30 15308 H 2044.83 9.9573 2.34194 0
M  V30 15309 H 2043.2 9.2792 2.67832 0
M  V30 15310 H 2044.04 6.16575 1.12198 0
M  V30 15311 H 2045.84 4.67628 4.28704 0
M  V30 15312 P 2047.7 7.39546 4.75277 0
M  V30 15313 O 2049.12 7.81777 5.05738 0
M  V30 15314 O 2047.34 7.1065 3.32998 0
M  V30 15315 O 2047.37 6.04542 5.56673 0
M  V30 15316 C 2047.21 6.22772 7.02095 0
M  V30 15317 C 2047.75 4.97725 7.70406 0
M  V30 15318 O 2046.7 4.13256 7.58987 0
M  V30 15319 C 2048.97 4.28231 7.11815 0
M  V30 15320 O 2049.71 3.49945 8.01648 0
M  V30 15321 C 2048.3 3.5063 5.96244 0
M  V30 15322 O 2049.1 2.36482 5.64681 0
M  V30 15323 C 2046.96 3.15122 6.56374 0
M  V30 15324 H 2047 2.13853 6.99751 0
M  V30 15325 H 2048.18 4.13501 5.06559 0
M  V30 15326 H 2049.66 5.03285 6.70911 0
M  V30 15327 H 2047.97 5.20877 8.75697 0
M  V30 15328 H 2047.78 7.11046 7.35349 0
M  V30 15329 H 2046.15 6.35815 7.26986 0
M  V30 15330 H 2048.79 1.61644 6.13565 0
M  V30 15331 P 2050.65 3.65191 7.99657 0
M  V30 15332 O 2052.07 3.8425 8.48115 0
M  V30 15333 O 2050.29 4.17805 6.64342 0
M  V30 15334 O 2050.32 2.07613 7.95143 0
M  V30 15335 C 2050.16 1.44328 9.27336 0
M  V30 15336 C 2050.7 0.0220036 9.17197 0
M  V30 15337 O 2049.65 -0.626867 8.61923 0
M  V30 15338 C 2051.92 -0.24586 8.30336 0
M  V30 15339 O 2052.66 -1.39011 8.63583 0
M  V30 15340 C 2051.25 -0.273849 6.91158 0
M  V30 15341 O 2052.05 -1.06348 6.02892 0
M  V30 15342 C 2049.92 -0.897649 7.22545 0
M  V30 15343 H 2049.95 -1.9841 7.04286 0
M  V30 15344 H 2051.13 0.739928 6.497 0
M  V30 15345 H 2052.61 0.60668 8.36503 0
M  V30 15346 H 2050.92 -0.352479 10.1829 0
M  V30 15347 H 2050.73 2.00611 10.0304 0
M  V30 15348 H 2049.1 1.41843 9.55327 0
M  V30 15349 H 2051.74 -1.95734 6.03555 0
M  V30 15350 P 2053.6 -1.25109 8.70152 0
M  V30 15351 O 2055.02 -1.35274 9.21221 0
M  V30 15352 O 2053.24 -0.0769065 7.84762 0
M  V30 15353 O 2053.27 -2.55232 7.81161 0
M  V30 15354 C 2053.11 -3.79939 8.58154 0
M  V30 15355 C 2053.65 -4.94023 7.72785 0
M  V30 15356 O 2052.6 -5.18726 6.91205 0
M  V30 15357 C 2054.87 -4.69597 6.85231 0
M  V30 15358 O 2055.61 -5.83832 6.51337 0
M  V30 15359 C 2054.2 -3.96706 5.66633 0
M  V30 15360 O 2055 -4.15414 4.49689 0
M  V30 15361 C 2052.87 -4.66153 5.59313 0
M  V30 15362 H 2052.9 -5.47679 4.85214 0
M  V30 15363 H 2054.08 -2.89008 5.86566 0
M  V30 15364 H 2055.56 -4.0121 7.36511 0
M  V30 15365 H 2053.87 -5.80182 8.37584 0
M  V30 15366 H 2053.68 -3.73517 9.52265 0
M  V30 15367 H 2052.05 -3.97163 8.80359 0
M  V30 15368 H 2054.69 -4.90969 4.01921 0
M  V30 15369 P 2056.55 -5.75688 6.64379 0
M  V30 15370 O 2057.97 -6.11849 7.01846 0
M  V30 15371 O 2056.19 -4.30744 6.56026 0
M  V30 15372 O 2056.22 -6.37042 5.19165 0
M  V30 15373 C 2056.06 -7.83578 5.16515 0
M  V30 15374 C 2056.6 -8.33398 3.83019 0
M  V30 15375 O 2055.55 -8.10074 3.01034 0
M  V30 15376 C 2057.82 -7.65514 3.2257 0
M  V30 15377 O 2058.56 -8.4329 2.32297 0
M  V30 15378 C 2057.15 -6.40075 2.62207 0
M  V30 15379 O 2057.95 -5.92589 1.53712 0
M  V30 15380 C 2055.82 -6.9454 2.18503 0
M  V30 15381 H 2055.85 -7.23063 1.12091 0
M  V30 15382 H 2057.03 -5.6025 3.37201 0
M  V30 15383 H 2058.52 -7.35707 4.02681 0
M  V30 15384 H 2056.82 -9.40912 3.9095 0
M  V30 15385 H 2056.63 -8.29056 5.99158 0
M  V30 15386 H 2055 -8.10073 5.25882 0
M  V30 15387 H 2057.64 -6.30324 0.726794 0
M  V30 15388 P 2059.5 -8.4349 2.47671 0
M  V30 15389 O 2060.92 -8.94167 2.5964 0
M  V30 15390 O 2059.14 -7.1704 3.19006 0
M  V30 15391 O 2059.17 -8.16596 0.923387 0
M  V30 15392 C 2059.01 -9.38437 0.108857 0
M  V30 15393 C 2059.55 -9.08175 -1.28353 0
M  V30 15394 O 2058.5 -8.44229 -1.84713 0
M  V30 15395 C 2060.77 -8.18386 -1.42505 0
M  V30 15396 O 2061.51 -8.3501 -2.60497 0
M  V30 15397 C 2060.1 -6.80225 -1.25468 0
M  V30 15398 O 2060.9 -5.81621 -1.91066 0
M  V30 15399 C 2058.77 -7.02416 -1.9168 0
M  V30 15400 H 2058.8 -6.6888 -2.96621 0
M  V30 15401 H 2059.98 -6.53617 -0.192223 0
M  V30 15402 H 2061.47 -8.36622 -0.589963 0
M  V30 15403 H 2059.77 -10.0291 -1.79807 0
M  V30 15404 H 2059.58 -10.2138 0.558219 0
M  V30 15405 H 2057.95 -9.6579 0.0444202 0
M  V30 15406 H 2060.59 -5.69556 -2.79637 0
M  V30 15407 P 2062.45 -8.4349 -2.47671 0
M  V30 15408 O 2063.87 -8.92593 -2.65 0
M  V30 15409 O 2062.09 -7.7568 -1.19296 0
M  V30 15410 O 2062.13 -7.36886 -3.63805 0
M  V30 15411 C 2061.97 -7.95349 -4.982 0
M  V30 15412 C 2062.51 -6.94612 -5.98974 0
M  V30 15413 O 2061.45 -6.10347 -6.11815 0
M  V30 15414 C 2063.72 -6.11426 -5.62335 0
M  V30 15415 O 2064.46 -5.6162 -6.70584 0
M  V30 15416 C 2063.05 -5.04409 -4.73308 0
M  V30 15417 O 2063.85 -3.85992 -4.75183 0
M  V30 15418 C 2061.72 -4.8728 -5.41006 0
M  V30 15419 H 2061.75 -4.02333 -6.11157 0
M  V30 15420 H 2062.93 -5.39466 -3.69543 0
M  V30 15421 H 2064.42 -6.71916 -5.01943 0
M  V30 15422 H 2062.72 -7.4649 -6.93477 0
M  V30 15423 H 2062.53 -8.89416 -5.05237 0
M  V30 15424 H 2060.9 -8.14876 -5.18409 0
M  V30 15425 H 2063.54 -3.27957 -5.4317 0
M  V30 15426 P 2065.4 -5.75688 -6.64379 0
M  V30 15427 O 2066.82 -6.07692 -7.0558 0
M  V30 15428 O 2065.04 -5.88047 -5.19722 0
M  V30 15429 O 2065.08 -4.2322 -7.04443 0
M  V30 15430 C 2064.91 -3.99785 -8.49201 0
M  V30 15431 C 2065.46 -2.60516 -8.79425 0
M  V30 15432 O 2064.4 -1.82663 -8.44573 0
M  V30 15433 C 2066.67 -2.10343 -8.03628 0
M  V30 15434 O 2067.41 -1.09919 -8.67766 0
M  V30 15435 C 2066.01 -1.68446 -6.70876 0
M  V30 15436 O 2066.8 -0.684109 -6.08265 0
M  V30 15437 C 2064.67 -1.17436 -7.18567 0
M  V30 15438 N 2063.62 -1.52699 -6.23988 0
M  V30 15439 C 2063.79 -2.578 -5.40574 0
M  V30 15440 N 2062.77 -2.78966 -4.61193 0
M  V30 15441 C 2061.88 -1.78725 -4.95769 0
M  V30 15442 C 2060.61 -1.45727 -4.44207 0
M  V30 15443 N 2060.05 -0.374977 -5.05812 0
M  V30 15444 C 2060.65 0.345585 -6.05615 0
M  V30 15445 N 2061.83 0.0787651 -6.56253 0
M  V30 15446 C 2062.4 -1.00499 -5.96189 0
M  V30 15447 H 2065.88 -2.53396 -6.02698 0
M  V30 15448 H 2067.37 -2.93881 -7.85526 0
M  V30 15449 H 2065.67 -2.52078 -9.87225 0
M  V30 15450 H 2065.48 -4.75072 -9.05887 0
M  V30 15451 H 2063.85 -4.05244 -8.76668 0
M  V30 15452 H 2064.69 -3.18977 -5.3945 0
M  V30 15453 H 2066.49 0.177619 -6.34151 0
M  V30 15454 P 2068.35 -1.25109 -8.70152 0
M  V30 15455 O 2069.77 -1.29744 -9.22016 0
M  V30 15456 O 2067.99 -2.13714 -7.55141 0
M  V30 15457 O 2068.03 0.248149 -8.21425 0
M  V30 15458 C 2067.87 1.22779 -9.30434 0
M  V30 15459 C 2068.41 2.56293 -8.80664 0
M  V30 15460 O 2067.35 3.02979 -8.09349 0
M  V30 15461 C 2069.62 2.57523 -7.89775 0
M  V30 15462 O 2070.36 3.7668 -7.89438 0
M  V30 15463 C 2068.96 2.20997 -6.55446 0
M  V30 15464 O 2069.75 2.71895 -5.48509 0
M  V30 15465 C 2067.62 2.89693 -6.67988 0
M  V30 15466 H 2067.65 3.88793 -6.19859 0
M  V30 15467 H 2068.83 1.12046 -6.44229 0
M  V30 15468 H 2070.32 1.7746 -8.19711 0
M  V30 15469 H 2068.62 3.20706 -9.67112 0
M  V30 15470 H 2068.43 0.901032 -10.1892 0
M  V30 15471 H 2066.8 1.33049 -9.56592 0
M  V30 15472 H 2069.44 3.57847 -5.23962 0
M  V30 15473 P 2071.3 3.65191 -7.99657 0
M  V30 15474 O 2072.72 3.89332 -8.45794 0
M  V30 15475 O 2070.94 2.28472 -7.50807 0
M  V30 15476 O 2070.98 4.64972 -6.77611 0
M  V30 15477 C 2070.82 6.06319 -7.16352 0
M  V30 15478 C 2071.36 6.91731 -6.02299 0
M  V30 15479 O 2070.3 6.92449 -5.17064 0
M  V30 15480 C 2072.58 6.43627 -5.25174 0
M  V30 15481 O 2073.31 7.43686 -4.60469 0
M  V30 15482 C 2071.91 5.40275 -4.31916 0
M  V30 15483 O 2072.71 5.25279 -3.14438 0
M  V30 15484 C 2070.57 6.04847 -4.05327 0
M  V30 15485 H 2070.6 6.62195 -3.11261 0
M  V30 15486 H 2071.78 4.42556 -4.81383 0
M  V30 15487 H 2073.27 5.92458 -5.93643 0
M  V30 15488 H 2071.57 7.92655 -6.402 0
M  V30 15489 H 2071.38 6.26671 -8.0846 0
M  V30 15490 H 2069.75 6.29101 -7.32804 0
M  V30 15491 H 2072.39 5.84315 -2.47318 0
M  V30 15492 P 2074.25 7.39546 -4.75277 0
M  V30 15493 O 2075.67 7.84798 -5.01039 0
M  V30 15494 O 2073.89 5.9812 -5.08098 0
M  V30 15495 O 2073.93 7.57503 -3.1866 0
M  V30 15496 C 2073.77 8.97357 -2.74833 0
M  V30 15497 C 2074.31 9.07548 -1.32709 0
M  V30 15498 O 2073.25 8.62072 -0.606159 0
M  V30 15499 C 2075.53 8.25383 -0.938334 0
M  V30 15500 O 2076.26 8.74577 0.146954 0
M  V30 15501 C 2074.86 6.8802 -0.712559 0
M  V30 15502 O 2075.66 6.1189 0.194655 0
M  V30 15503 C 2073.52 7.27966 -0.139777 0
M  V30 15504 H 2073.55 7.25354 0.961601 0
M  V30 15505 H 2074.73 6.32557 -1.65702 0
M  V30 15506 H 2076.22 8.19355 -1.79097 0
M  V30 15507 H 2074.52 10.1294 -1.10029 0
M  V30 15508 H 2074.33 9.64276 -3.41316 0
M  V30 15509 H 2072.7 9.25417 -2.76357 0
M  V30 15510 H 2075.34 6.25267 1.07847 0
M  V30 15511 P 2077.2 8.791 1.78518e-11 0
M  V30 15512 O 2078.62 9.31196 0.027936 0
M  V30 15513 O 2076.84 7.77869 -1.04071 0
M  V30 15514 O 2076.88 8.09533 1.41463 0
M  V30 15515 C 2076.72 9.03587 2.5397 0
M  V30 15516 C 2077.26 8.35226 3.79016 0
M  V30 15517 O 2076.2 7.57904 4.1503 0
M  V30 15518 C 2078.48 7.45087 3.67298 0
M  V30 15519 O 2079.21 7.27796 4.85194 0
M  V30 15520 C 2077.81 6.17323 3.12027 0
M  V30 15521 O 2078.61 5.04496 3.46627 0
M  V30 15522 C 2076.47 6.19961 3.81809 0
M  V30 15523 N 2075.43 5.71575 2.93223 0
M  V30 15524 C 2075.6 5.77362 1.59168 0
M  V30 15525 N 2074.57 5.3123 0.911893 0
M  V30 15526 C 2073.68 4.91717 1.89588 0
M  V30 15527 C 2072.42 4.3114 1.8076 0
M  V30 15528 N 2071.82 3.99821 0.632928 0
M  V30 15529 N 2071.85 4.06823 3.02898 0
M  V30 15530 C 2072.45 4.35062 4.22711 0
M  V30 15531 N 2073.63 4.90805 4.35707 0
M  V30 15532 C 2074.21 5.16382 3.14469 0
M  V30 15533 H 2076.5 5.58142 4.72986 0
M  V30 15534 H 2077.69 6.21428 2.0318 0
M  V30 15535 H 2079.17 7.86112 2.9231 0
M  V30 15536 H 2077.47 9.11171 4.55987 0
M  V30 15537 H 2077.28 9.9573 2.34194 0
M  V30 15538 H 2075.65 9.2792 2.67832 0
M  V30 15539 H 2071.92 4.09052 5.13359 0
M  V30 15540 H 2076.5 6.16575 1.12198 0
M  V30 15541 H 2070.89 3.55423 0.632085 0
M  V30 15542 H 2072.29 4.20317 -0.256712 0
M  V30 15543 H 2078.29 4.67628 4.28704 0
M  V30 15544 P 2080.15 7.39546 4.75277 0
M  V30 15545 O 2081.57 7.81861 5.05793 0
M  V30 15546 O 2079.79 7.1065 3.32998 0
M  V30 15547 O 2079.83 6.04542 5.56673 0
M  V30 15548 C 2079.67 6.22839 7.02169 0
M  V30 15549 C 2080.21 4.97725 7.70406 0
M  V30 15550 O 2079.15 4.13208 7.58899 0
M  V30 15551 C 2081.43 4.28231 7.11815 0
M  V30 15552 O 2082.16 3.49945 8.01648 0
M  V30 15553 C 2080.76 3.5063 5.96244 0
M  V30 15554 O 2081.56 2.37008 5.64352 0
M  V30 15555 C 2079.42 3.15122 6.56374 0
M  V30 15556 N 2078.38 3.22311 5.55692 0
M  V30 15557 C 2078.55 3.99655 4.46046 0
M  V30 15558 N 2077.52 3.97599 3.63918 0
M  V30 15559 C 2076.63 3.11159 4.25334 0
M  V30 15560 C 2075.37 2.64972 3.85157 0
M  V30 15561 N 2074.8 1.78482 4.74759 0
M  V30 15562 C 2075.4 1.37463 5.90819 0
M  V30 15563 N 2076.58 1.7733 6.31889 0
M  V30 15564 C 2077.16 2.64393 5.43725 0
M  V30 15565 H 2080.64 4.12931 5.06895 0
M  V30 15566 H 2082.12 5.03285 6.70911 0
M  V30 15567 H 2080.42 5.20001 8.76217 0
M  V30 15568 H 2080.23 7.11046 7.35349 0
M  V30 15569 H 2078.6 6.35815 7.26986 0
M  V30 15570 H 2079.45 4.58037 4.27732 0
M  V30 15571 H 2081.24 1.61619 6.13468 0
M  V30 15572 P 2083.1 3.65191 7.99657 0
M  V30 15573 O 2084.52 3.84292 8.48206 0
M  V30 15574 O 2082.74 4.17805 6.64342 0
M  V30 15575 O 2082.78 2.07613 7.95143 0
M  V30 15576 C 2082.62 1.44344 9.27435 0
M  V30 15577 C 2083.16 0.0220036 9.17197 0
M  V30 15578 O 2082.1 -0.626794 8.61824 0
M  V30 15579 C 2084.38 -0.24586 8.30336 0
M  V30 15580 O 2085.12 -1.39011 8.63583 0
M  V30 15581 C 2083.71 -0.273849 6.91158 0
M  V30 15582 O 2084.51 -1.05728 6.029 0
M  V30 15583 C 2082.37 -0.897649 7.22545 0
M  V30 15584 N 2081.33 -0.292839 6.41732 0
M  V30 15585 C 2081.5 0.950603 5.91308 0
M  V30 15586 N 2080.47 1.37732 5.21105 0
M  V30 15587 C 2079.59 0.318109 5.26039 0
M  V30 15588 C 2078.32 0.146766 4.6727 0
M  V30 15589 N 2077.72 1.08519 3.89983 0
M  V30 15590 N 2077.75 -1.06525 4.95887 0
M  V30 15591 C 2078.36 -2.0378 5.71347 0
M  V30 15592 N 2079.53 -1.92445 6.27451 0
M  V30 15593 C 2080.11 -0.715382 6.00353 0
M  V30 15594 H 2082.4 -1.98383 7.04189 0
M  V30 15595 H 2083.59 0.733318 6.49674 0
M  V30 15596 H 2085.07 0.60668 8.36503 0
M  V30 15597 H 2083.38 -0.362662 10.1825 0
M  V30 15598 H 2083.19 2.00611 10.0304 0
M  V30 15599 H 2081.56 1.41843 9.55327 0
M  V30 15600 H 2077.82 -2.97041 5.85344 0
M  V30 15601 H 2082.4 1.54076 6.07465 0
M  V30 15602 H 2076.79 0.901517 3.49562 0
M  V30 15603 H 2078.19 1.97957 3.71669 0
M  V30 15604 H 2084.2 -1.95704 6.0346 0
M  V30 15605 P 2086.05 -1.25109 8.70152 0
M  V30 15606 O 2087.47 -1.35274 9.21221 0
M  V30 15607 O 2085.69 -0.0769065 7.84762 0
M  V30 15608 O 2085.73 -2.55232 7.81161 0
M  V30 15609 C 2085.57 -3.79939 8.58154 0
M  V30 15610 C 2086.11 -4.94023 7.72785 0
M  V30 15611 O 2085.05 -5.18726 6.91205 0
M  V30 15612 C 2087.33 -4.69597 6.85231 0
M  V30 15613 O 2088.07 -5.83832 6.51337 0
M  V30 15614 C 2086.66 -3.96706 5.66633 0
M  V30 15615 O 2087.46 -4.15414 4.49689 0
M  V30 15616 C 2085.32 -4.66153 5.59313 0
M  V30 15617 H 2085.35 -5.47679 4.85214 0
M  V30 15618 H 2086.54 -2.89008 5.86566 0
M  V30 15619 H 2088.02 -4.0121 7.36511 0
M  V30 15620 H 2086.33 -5.80182 8.37584 0
M  V30 15621 H 2086.14 -3.73517 9.52265 0
M  V30 15622 H 2084.51 -3.97163 8.80359 0
M  V30 15623 H 2087.15 -4.90969 4.01921 0
M  V30 15624 P 2089 -5.75688 6.64379 0
M  V30 15625 O 2090.43 -6.11981 7.01997 0
M  V30 15626 O 2088.64 -4.30744 6.56026 0
M  V30 15627 O 2088.68 -6.37042 5.19165 0
M  V30 15628 C 2088.52 -7.83578 5.16515 0
M  V30 15629 C 2089.06 -8.33307 3.82977 0
M  V30 15630 O 2088.01 -8.10074 3.01034 0
M  V30 15631 C 2090.28 -7.65514 3.2257 0
M  V30 15632 O 2091.02 -8.4329 2.32297 0
M  V30 15633 C 2089.61 -6.40075 2.62207 0
M  V30 15634 O 2090.41 -5.92492 1.53687 0
M  V30 15635 C 2088.27 -6.9454 2.18503 0
M  V30 15636 N 2087.23 -5.95905 2.39948 0
M  V30 15637 C 2087.29 -5.13994 3.44742 0
M  V30 15638 N 2086.25 -4.30684 3.46712 0
M  V30 15639 C 2085.51 -4.65583 2.41086 0
M  V30 15640 C 2084.21 -4.20877 1.99581 0
M  V30 15641 O 2083.47 -3.35913 2.52616 0
M  V30 15642 N 2083.78 -4.83271 0.873406 0
M  V30 15643 C 2084.53 -5.82006 0.185129 0
M  V30 15644 N 2083.93 -6.30619 -0.95439 0
M  V30 15645 N 2085.68 -6.28443 0.578524 0
M  V30 15646 C 2086.14 -5.68486 1.70138 0
M  V30 15647 H 2088.3 -7.23063 1.12091 0
M  V30 15648 H 2089.49 -5.60165 3.3715 0
M  V30 15649 H 2090.97 -7.3611 4.01946 0
M  V30 15650 H 2089.28 -9.40912 3.9095 0
M  V30 15651 H 2089.09 -8.29056 5.99158 0
M  V30 15652 H 2087.46 -8.10073 5.25882 0
M  V30 15653 H 2082.88 -4.58323 0.505262 0
M  V30 15654 H 2088.09 -5.14564 4.1935 0
M  V30 15655 H 2083.02 -5.93402 -1.25364 0
M  V30 15656 H 2084.39 -7.0425 -1.50254 0
M  V30 15657 H 2090.1 -6.30224 0.72668 0
M  V30 15658 P 2091.95 -8.4349 2.47671 0
M  V30 15659 O 2093.38 -8.94167 2.5964 0
M  V30 15660 O 2091.59 -7.1704 3.19006 0
M  V30 15661 O 2091.63 -8.16596 0.923387 0
M  V30 15662 C 2091.47 -9.38437 0.108857 0
M  V30 15663 C 2092.01 -9.08175 -1.28353 0
M  V30 15664 O 2090.96 -8.44229 -1.84713 0
M  V30 15665 C 2093.23 -8.18386 -1.42505 0
M  V30 15666 O 2093.97 -8.3501 -2.60497 0
M  V30 15667 C 2092.56 -6.80225 -1.25468 0
M  V30 15668 O 2093.36 -5.81621 -1.91066 0
M  V30 15669 C 2091.22 -7.02416 -1.9168 0
M  V30 15670 H 2091.26 -6.6888 -2.96621 0
M  V30 15671 H 2092.44 -6.53617 -0.192223 0
M  V30 15672 H 2093.92 -8.36622 -0.589963 0
M  V30 15673 H 2092.23 -10.0291 -1.79807 0
M  V30 15674 H 2092.04 -10.2138 0.558219 0
M  V30 15675 H 2090.41 -9.6579 0.0444202 0
M  V30 15676 H 2093.05 -5.69556 -2.79637 0
M  V30 15677 P 2094.9 -8.4349 -2.47671 0
M  V30 15678 O 2096.33 -8.92593 -2.65 0
M  V30 15679 O 2094.54 -7.7568 -1.19296 0
M  V30 15680 O 2094.58 -7.36886 -3.63805 0
M  V30 15681 C 2094.42 -7.95349 -4.982 0
M  V30 15682 C 2094.96 -6.94612 -5.98974 0
M  V30 15683 O 2093.91 -6.10347 -6.11815 0
M  V30 15684 C 2096.18 -6.11426 -5.62335 0
M  V30 15685 O 2096.92 -5.6162 -6.70584 0
M  V30 15686 C 2095.51 -5.04409 -4.73308 0
M  V30 15687 O 2096.31 -3.85992 -4.75183 0
M  V30 15688 C 2094.17 -4.8728 -5.41006 0
M  V30 15689 H 2094.21 -4.02333 -6.11157 0
M  V30 15690 H 2095.39 -5.39466 -3.69543 0
M  V30 15691 H 2096.87 -6.71916 -5.01943 0
M  V30 15692 H 2095.18 -7.4649 -6.93477 0
M  V30 15693 H 2094.99 -8.89416 -5.05237 0
M  V30 15694 H 2093.36 -8.14876 -5.18409 0
M  V30 15695 H 2096 -3.27957 -5.4317 0
M  V30 15696 P 2097.86 -5.75688 -6.64379 0
M  V30 15697 O 2099.28 -6.07627 -7.05504 0
M  V30 15698 O 2097.5 -5.88047 -5.19722 0
M  V30 15699 O 2097.53 -4.2322 -7.04443 0
M  V30 15700 C 2097.37 -3.99743 -8.4911 0
M  V30 15701 C 2097.91 -2.60516 -8.79425 0
M  V30 15702 O 2096.86 -1.82684 -8.4467 0
M  V30 15703 C 2099.13 -2.10343 -8.03628 0
M  V30 15704 O 2099.87 -1.09919 -8.67766 0
M  V30 15705 C 2098.46 -1.68446 -6.70876 0
M  V30 15706 O 2099.26 -0.678137 -6.08433 0
M  V30 15707 C 2097.12 -1.17436 -7.18567 0
M  V30 15708 H 2097.16 -0.0804732 -7.31656 0
M  V30 15709 H 2098.34 -2.54037 -6.02537 0
M  V30 15710 H 2099.82 -2.93881 -7.85526 0
M  V30 15711 H 2098.13 -2.53065 -9.86973 0
M  V30 15712 H 2097.94 -4.75072 -9.05887 0
M  V30 15713 H 2096.31 -4.05244 -8.76668 0
M  V30 15714 H 2098.95 0.177647 -6.34251 0
M  V30 15715 P 2100.81 -1.25109 -8.70152 0
M  V30 15716 O 2102.23 -1.29744 -9.22016 0
M  V30 15717 O 2100.45 -2.13714 -7.55141 0
M  V30 15718 O 2100.48 0.248149 -8.21425 0
M  V30 15719 C 2100.32 1.22779 -9.30434 0
M  V30 15720 C 2100.86 2.56293 -8.80664 0
M  V30 15721 O 2099.81 3.02979 -8.09349 0
M  V30 15722 C 2102.08 2.57523 -7.89775 0
M  V30 15723 O 2102.82 3.7668 -7.89438 0
M  V30 15724 C 2101.41 2.20997 -6.55446 0
M  V30 15725 O 2102.21 2.71895 -5.48509 0
M  V30 15726 C 2100.07 2.89693 -6.67988 0
M  V30 15727 H 2100.11 3.88793 -6.19859 0
M  V30 15728 H 2101.29 1.12046 -6.44229 0
M  V30 15729 H 2102.77 1.7746 -8.19711 0
M  V30 15730 H 2101.08 3.20706 -9.67112 0
M  V30 15731 H 2100.89 0.901032 -10.1892 0
M  V30 15732 H 2099.26 1.33049 -9.56592 0
M  V30 15733 H 2101.9 3.57847 -5.23962 0
M  V30 15734 P 2103.76 3.65191 -7.99657 0
M  V30 15735 O 2105.18 3.89332 -8.45794 0
M  V30 15736 O 2103.4 2.28472 -7.50807 0
M  V30 15737 O 2103.43 4.64972 -6.77611 0
M  V30 15738 C 2103.27 6.06319 -7.16352 0
M  V30 15739 C 2103.81 6.91731 -6.02299 0
M  V30 15740 O 2102.76 6.92449 -5.17064 0
M  V30 15741 C 2105.03 6.43627 -5.25174 0
M  V30 15742 O 2105.77 7.43686 -4.60469 0
M  V30 15743 C 2104.36 5.40275 -4.31916 0
M  V30 15744 O 2105.16 5.25279 -3.14438 0
M  V30 15745 C 2103.03 6.04847 -4.05327 0
M  V30 15746 H 2103.06 6.62195 -3.11261 0
M  V30 15747 H 2104.24 4.42556 -4.81383 0
M  V30 15748 H 2105.72 5.92458 -5.93643 0
M  V30 15749 H 2104.03 7.92655 -6.402 0
M  V30 15750 H 2103.84 6.26671 -8.0846 0
M  V30 15751 H 2102.21 6.29101 -7.32804 0
M  V30 15752 H 2104.85 5.84315 -2.47318 0
M  V30 15753 P 2106.71 7.39546 -4.75277 0
M  V30 15754 O 2108.13 7.84798 -5.01039 0
M  V30 15755 O 2106.35 5.9812 -5.08098 0
M  V30 15756 O 2106.38 7.57503 -3.1866 0
M  V30 15757 C 2106.22 8.97357 -2.74833 0
M  V30 15758 C 2106.76 9.07548 -1.32709 0
M  V30 15759 O 2105.71 8.62072 -0.606159 0
M  V30 15760 C 2107.98 8.25383 -0.938334 0
M  V30 15761 O 2108.72 8.74577 0.146954 0
M  V30 15762 C 2107.31 6.8802 -0.712559 0
M  V30 15763 O 2108.11 6.1189 0.194655 0
M  V30 15764 C 2105.98 7.27966 -0.139777 0
M  V30 15765 H 2106.01 7.25354 0.961601 0
M  V30 15766 H 2107.19 6.32557 -1.65702 0
M  V30 15767 H 2108.67 8.19355 -1.79097 0
M  V30 15768 H 2106.98 10.1294 -1.10029 0
M  V30 15769 H 2106.79 9.64276 -3.41316 0
M  V30 15770 H 2105.16 9.25417 -2.76357 0
M  V30 15771 H 2107.8 6.25267 1.07847 0
M  V30 15772 P 2109.66 8.791 1.81619e-11 0
M  V30 15773 O 2111.08 9.31096 0.027933 0
M  V30 15774 O 2109.3 7.77869 -1.04071 0
M  V30 15775 O 2109.33 8.09533 1.41463 0
M  V30 15776 C 2109.17 9.0349 2.53943 0
M  V30 15777 C 2109.71 8.35226 3.79016 0
M  V30 15778 O 2108.66 7.57992 4.15078 0
M  V30 15779 C 2110.93 7.45087 3.67298 0
M  V30 15780 O 2111.67 7.27796 4.85194 0
M  V30 15781 C 2110.26 6.17323 3.12027 0
M  V30 15782 O 2111.06 5.04231 3.47188 0
M  V30 15783 C 2108.93 6.19961 3.81809 0
M  V30 15784 H 2108.96 5.58218 4.73051 0
M  V30 15785 H 2110.14 6.21726 2.02589 0
M  V30 15786 H 2111.63 7.86112 2.9231 0
M  V30 15787 H 2109.93 9.11627 4.55076 0
M  V30 15788 H 2109.74 9.9573 2.34194 0
M  V30 15789 H 2108.11 9.2792 2.67832 0
M  V30 15790 H 2110.75 4.67702 4.28772 0
M  V30 15791 P 2112.61 7.39546 4.75277 0
M  V30 15792 O 2114.03 7.81777 5.05738 0
M  V30 15793 O 2112.25 7.1065 3.32998 0
M  V30 15794 O 2112.29 6.04542 5.56673 0
M  V30 15795 C 2112.13 6.22772 7.02095 0
M  V30 15796 C 2112.67 4.97725 7.70406 0
M  V30 15797 O 2111.61 4.13256 7.58987 0
M  V30 15798 C 2113.88 4.28231 7.11815 0
M  V30 15799 O 2114.62 3.49945 8.01648 0
M  V30 15800 C 2113.21 3.5063 5.96244 0
M  V30 15801 O 2114.01 2.36482 5.64681 0
M  V30 15802 C 2111.88 3.15122 6.56374 0
M  V30 15803 H 2111.91 2.13853 6.99751 0
M  V30 15804 H 2113.09 4.13501 5.06559 0
M  V30 15805 H 2114.58 5.03285 6.70911 0
M  V30 15806 H 2112.88 5.20877 8.75697 0
M  V30 15807 H 2112.69 7.11046 7.35349 0
M  V30 15808 H 2111.06 6.35815 7.26986 0
M  V30 15809 H 2113.7 1.61644 6.13565 0
M  V30 15810 P 2115.56 3.65191 7.99657 0
M  V30 15811 O 2116.98 3.8425 8.48115 0
M  V30 15812 O 2115.2 4.17805 6.64342 0
M  V30 15813 O 2115.24 2.07613 7.95143 0
M  V30 15814 C 2115.08 1.44328 9.27336 0
M  V30 15815 C 2115.62 0.0220036 9.17197 0
M  V30 15816 O 2114.56 -0.626867 8.61923 0
M  V30 15817 C 2116.83 -0.24586 8.30336 0
M  V30 15818 O 2117.57 -1.39011 8.63583 0
M  V30 15819 C 2116.16 -0.273849 6.91158 0
M  V30 15820 O 2116.96 -1.06348 6.02892 0
M  V30 15821 C 2114.83 -0.897649 7.22545 0
M  V30 15822 H 2114.86 -1.9841 7.04286 0
M  V30 15823 H 2116.04 0.739928 6.497 0
M  V30 15824 H 2117.53 0.60668 8.36503 0
M  V30 15825 H 2115.83 -0.352479 10.1829 0
M  V30 15826 H 2115.64 2.00611 10.0304 0
M  V30 15827 H 2114.01 1.41843 9.55327 0
M  V30 15828 H 2116.65 -1.95734 6.03555 0
M  V30 15829 P 2118.51 -1.25109 8.70152 0
M  V30 15830 O 2119.93 -1.35274 9.21221 0
M  V30 15831 O 2118.15 -0.0769065 7.84762 0
M  V30 15832 O 2118.19 -2.55232 7.81161 0
M  V30 15833 C 2118.03 -3.79939 8.58154 0
M  V30 15834 C 2118.57 -4.94023 7.72785 0
M  V30 15835 O 2117.51 -5.18726 6.91205 0
M  V30 15836 C 2119.78 -4.69597 6.85231 0
M  V30 15837 O 2120.52 -5.83832 6.51337 0
M  V30 15838 C 2119.12 -3.96706 5.66633 0
M  V30 15839 O 2119.91 -4.15414 4.49689 0
M  V30 15840 C 2117.78 -4.66153 5.59313 0
M  V30 15841 H 2117.81 -5.47679 4.85214 0
M  V30 15842 H 2118.99 -2.89008 5.86566 0
M  V30 15843 H 2120.48 -4.0121 7.36511 0
M  V30 15844 H 2118.78 -5.80182 8.37584 0
M  V30 15845 H 2118.59 -3.73517 9.52265 0
M  V30 15846 H 2116.96 -3.97163 8.80359 0
M  V30 15847 H 2119.6 -4.90969 4.01921 0
M  V30 15848 P 2121.46 -5.75688 6.64379 0
M  V30 15849 O 2122.88 -6.11849 7.01846 0
M  V30 15850 O 2121.1 -4.30744 6.56026 0
M  V30 15851 O 2121.14 -6.37042 5.19165 0
M  V30 15852 C 2120.98 -7.83578 5.16515 0
M  V30 15853 C 2121.52 -8.33398 3.83019 0
M  V30 15854 O 2120.46 -8.10074 3.01034 0
M  V30 15855 C 2122.73 -7.65514 3.2257 0
M  V30 15856 O 2123.47 -8.4329 2.32297 0
M  V30 15857 C 2122.07 -6.40075 2.62207 0
M  V30 15858 O 2122.86 -5.92589 1.53712 0
M  V30 15859 C 2120.73 -6.9454 2.18503 0
M  V30 15860 H 2120.76 -7.23063 1.12091 0
M  V30 15861 H 2121.94 -5.6025 3.37201 0
M  V30 15862 H 2123.43 -7.35707 4.02681 0
M  V30 15863 H 2121.73 -9.40912 3.9095 0
M  V30 15864 H 2121.54 -8.29056 5.99158 0
M  V30 15865 H 2119.91 -8.10073 5.25882 0
M  V30 15866 H 2122.55 -6.30324 0.726794 0
M  V30 15867 P 2124.41 -8.4349 2.47671 0
M  V30 15868 O 2125.83 -8.94167 2.5964 0
M  V30 15869 O 2124.05 -7.1704 3.19006 0
M  V30 15870 O 2124.09 -8.16596 0.923387 0
M  V30 15871 C 2123.93 -9.38437 0.108857 0
M  V30 15872 C 2124.47 -9.08175 -1.28353 0
M  V30 15873 O 2123.41 -8.44229 -1.84713 0
M  V30 15874 C 2125.69 -8.18386 -1.42505 0
M  V30 15875 O 2126.42 -8.3501 -2.60497 0
M  V30 15876 C 2125.02 -6.80225 -1.25468 0
M  V30 15877 O 2125.82 -5.81621 -1.91066 0
M  V30 15878 C 2123.68 -7.02416 -1.9168 0
M  V30 15879 H 2123.71 -6.6888 -2.96621 0
M  V30 15880 H 2124.89 -6.53617 -0.192223 0
M  V30 15881 H 2126.38 -8.36622 -0.589963 0
M  V30 15882 H 2124.68 -10.0291 -1.79807 0
M  V30 15883 H 2124.49 -10.2138 0.558219 0
M  V30 15884 H 2122.86 -9.6579 0.0444202 0
M  V30 15885 H 2125.5 -5.69556 -2.79637 0
M  V30 15886 P 2127.36 -8.4349 -2.47671 0
M  V30 15887 O 2128.78 -8.92593 -2.65 0
M  V30 15888 O 2127 -7.7568 -1.19296 0
M  V30 15889 O 2127.04 -7.36886 -3.63805 0
M  V30 15890 C 2126.88 -7.95349 -4.982 0
M  V30 15891 C 2127.42 -6.94612 -5.98974 0
M  V30 15892 O 2126.36 -6.10347 -6.11815 0
M  V30 15893 C 2128.64 -6.11426 -5.62335 0
M  V30 15894 O 2129.37 -5.6162 -6.70584 0
M  V30 15895 C 2127.97 -5.04409 -4.73308 0
M  V30 15896 O 2128.77 -3.85992 -4.75183 0
M  V30 15897 C 2126.63 -4.8728 -5.41006 0
M  V30 15898 H 2126.66 -4.02333 -6.11157 0
M  V30 15899 H 2127.84 -5.39466 -3.69543 0
M  V30 15900 H 2129.33 -6.71916 -5.01943 0
M  V30 15901 H 2127.63 -7.4649 -6.93477 0
M  V30 15902 H 2127.44 -8.89416 -5.05237 0
M  V30 15903 H 2125.81 -8.14876 -5.18409 0
M  V30 15904 H 2128.45 -3.27957 -5.4317 0
M  V30 15905 P 2130.31 -5.75688 -6.64379 0
M  V30 15906 O 2131.73 -6.07692 -7.0558 0
M  V30 15907 O 2129.95 -5.88047 -5.19722 0
M  V30 15908 O 2129.99 -4.2322 -7.04443 0
M  V30 15909 C 2129.83 -3.99785 -8.49201 0
M  V30 15910 C 2130.37 -2.60516 -8.79425 0
M  V30 15911 O 2129.31 -1.82663 -8.44573 0
M  V30 15912 C 2131.59 -2.10343 -8.03628 0
M  V30 15913 O 2132.32 -1.09919 -8.67766 0
M  V30 15914 C 2130.92 -1.68446 -6.70876 0
M  V30 15915 O 2131.72 -0.684109 -6.08265 0
M  V30 15916 C 2129.58 -1.17436 -7.18567 0
M  V30 15917 N 2128.54 -1.52699 -6.23988 0
M  V30 15918 C 2128.71 -2.578 -5.40574 0
M  V30 15919 N 2127.68 -2.78966 -4.61193 0
M  V30 15920 C 2126.79 -1.78725 -4.95769 0
M  V30 15921 C 2125.53 -1.45727 -4.44207 0
M  V30 15922 N 2124.93 -2.13994 -3.43613 0
M  V30 15923 N 2124.96 -0.374977 -5.05812 0
M  V30 15924 C 2125.56 0.345585 -6.05615 0
M  V30 15925 N 2126.74 0.0787651 -6.56253 0
M  V30 15926 C 2127.32 -1.00499 -5.96189 0
M  V30 15927 H 2129.61 -0.0804622 -7.31556 0
M  V30 15928 H 2130.8 -2.53396 -6.02698 0
M  V30 15929 H 2132.28 -2.93881 -7.85526 0
M  V30 15930 H 2130.58 -2.52078 -9.87225 0
M  V30 15931 H 2130.39 -4.75072 -9.05887 0
M  V30 15932 H 2128.76 -4.05244 -8.76668 0
M  V30 15933 H 2125.03 1.20098 -6.4532 0
M  V30 15934 H 2129.61 -3.18977 -5.3945 0
M  V30 15935 H 2124 -1.84983 -3.10004 0
M  V30 15936 H 2125.4 -2.9465 -3.00843 0
M  V30 15937 H 2131.4 0.177619 -6.34151 0
M  V30 15938 P 2133.26 -1.25109 -8.70152 0
M  V30 15939 O 2134.68 -1.29744 -9.22016 0
M  V30 15940 O 2132.9 -2.13714 -7.55141 0
M  V30 15941 O 2132.94 0.248149 -8.21425 0
M  V30 15942 C 2132.78 1.22779 -9.30434 0
M  V30 15943 C 2133.32 2.56293 -8.80664 0
M  V30 15944 O 2132.26 3.02979 -8.09349 0
M  V30 15945 C 2134.54 2.57523 -7.89775 0
M  V30 15946 O 2135.28 3.7668 -7.89438 0
M  V30 15947 C 2133.87 2.20997 -6.55446 0
M  V30 15948 O 2134.67 2.71895 -5.48509 0
M  V30 15949 C 2132.53 2.89693 -6.67988 0
M  V30 15950 H 2132.56 3.88793 -6.19859 0
M  V30 15951 H 2133.75 1.12046 -6.44229 0
M  V30 15952 H 2135.23 1.7746 -8.19711 0
M  V30 15953 H 2133.54 3.20706 -9.67112 0
M  V30 15954 H 2133.35 0.901032 -10.1892 0
M  V30 15955 H 2131.72 1.33049 -9.56592 0
M  V30 15956 H 2134.36 3.57847 -5.23962 0
M  V30 15957 P 2136.21 3.65191 -7.99657 0
M  V30 15958 O 2137.63 3.89374 -8.45885 0
M  V30 15959 O 2135.85 2.28472 -7.50807 0
M  V30 15960 O 2135.89 4.64972 -6.77611 0
M  V30 15961 C 2135.73 6.06383 -7.16428 0
M  V30 15962 C 2136.27 6.91731 -6.02299 0
M  V30 15963 O 2135.21 6.92369 -5.17005 0
M  V30 15964 C 2137.49 6.43627 -5.25174 0
M  V30 15965 O 2138.23 7.43686 -4.60469 0
M  V30 15966 C 2136.82 5.40275 -4.31916 0
M  V30 15967 O 2137.62 5.24878 -3.14911 0
M  V30 15968 C 2135.48 6.04847 -4.05327 0
M  V30 15969 N 2134.44 5.04166 -3.98114 0
M  V30 15970 C 2134.61 3.84629 -4.59066 0
M  V30 15971 N 2133.58 3.0363 -4.45343 0
M  V30 15972 C 2132.7 3.76722 -3.68523 0
M  V30 15973 C 2131.43 3.43528 -3.17088 0
M  V30 15974 N 2130.83 2.23665 -3.37397 0
M  V30 15975 N 2130.86 4.44526 -2.44231 0
M  V30 15976 C 2131.47 5.65243 -2.20146 0
M  V30 15977 N 2132.64 6.00221 -2.65453 0
M  V30 15978 C 2133.22 5.00564 -3.39083 0
M  V30 15979 H 2135.51 6.62104 -3.11218 0
M  V30 15980 H 2136.7 4.42969 -4.80867 0
M  V30 15981 H 2138.18 5.92458 -5.93643 0
M  V30 15982 H 2136.49 7.93295 -6.39407 0
M  V30 15983 H 2136.3 6.26671 -8.0846 0
M  V30 15984 H 2134.67 6.29101 -7.32804 0
M  V30 15985 H 2130.93 6.36894 -1.5883 0
M  V30 15986 H 2135.51 3.58193 -5.14248 0
M  V30 15987 H 2129.9 2.05145 -2.97047 0
M  V30 15988 H 2131.3 1.51255 -3.92998 0
M  V30 15989 H 2137.31 5.84223 -2.47279 0
M  V30 15990 P 2139.16 7.39546 -4.75277 0
M  V30 15991 O 2140.58 7.84882 -5.01092 0
M  V30 15992 O 2138.8 5.9812 -5.08098 0
M  V30 15993 O 2138.84 7.57503 -3.1866 0
M  V30 15994 C 2138.68 8.97452 -2.74862 0
M  V30 15995 C 2139.22 9.07548 -1.32709 0
M  V30 15996 O 2138.17 8.61972 -0.606089 0
M  V30 15997 C 2140.44 8.25383 -0.938334 0
M  V30 15998 O 2141.18 8.74577 0.146954 0
M  V30 15999 C 2139.77 6.8802 -0.712559 0
M  V30 16000 O 2140.57 6.1181 0.188505 0
M  V30 16001 C 2138.43 7.27966 -0.139777 0
M  V30 16002 N 2137.39 6.39368 -0.623421 0
M  V30 16003 C 2137.56 5.71761 -1.78245 0
M  V30 16004 N 2136.53 4.962 -2.10491 0
M  V30 16005 C 2135.65 5.16158 -1.0635 0
M  V30 16006 C 2134.38 4.60425 -0.810266 0
M  V30 16007 N 2133.81 5.06 0.348685 0
M  V30 16008 C 2134.42 5.94532 1.20395 0
M  V30 16009 N 2135.59 6.48452 1.01191 0
M  V30 16010 C 2136.17 6.04423 -0.146291 0
M  V30 16011 H 2139.65 6.32625 -1.65044 0
M  V30 16012 H 2141.13 8.19355 -1.79097 0
M  V30 16013 H 2139.44 10.1305 -1.09016 0
M  V30 16014 H 2139.25 9.64276 -3.41316 0
M  V30 16015 H 2137.62 9.25417 -2.76357 0
M  V30 16016 H 2138.46 5.79354 -2.38959 0
M  V30 16017 H 2140.26 6.25169 1.0783 0
M  V30 16018 P 2142.11 8.791 1.84721e-11 0
M  V30 16019 O 2143.54 9.31096 0.027933 0
M  V30 16020 O 2141.75 7.77869 -1.04071 0
M  V30 16021 O 2141.79 8.09533 1.41463 0
M  V30 16022 C 2141.63 9.0349 2.53943 0
M  V30 16023 C 2142.17 8.35226 3.79016 0
M  V30 16024 O 2141.11 7.57992 4.15078 0
M  V30 16025 C 2143.39 7.45087 3.67298 0
M  V30 16026 O 2144.13 7.27796 4.85194 0
M  V30 16027 C 2142.72 6.17323 3.12027 0
M  V30 16028 O 2143.52 5.04231 3.47188 0
M  V30 16029 C 2141.38 6.19961 3.81809 0
M  V30 16030 H 2141.41 5.58218 4.73051 0
M  V30 16031 H 2142.6 6.21726 2.02589 0
M  V30 16032 H 2144.08 7.86112 2.9231 0
M  V30 16033 H 2142.39 9.11627 4.55076 0
M  V30 16034 H 2142.2 9.9573 2.34194 0
M  V30 16035 H 2140.57 9.2792 2.67832 0
M  V30 16036 H 2143.21 4.67702 4.28772 0
M  V30 16037 P 2145.06 7.39546 4.75277 0
M  V30 16038 O 2146.49 7.81777 5.05738 0
M  V30 16039 O 2144.7 7.1065 3.32998 0
M  V30 16040 O 2144.74 6.04542 5.56673 0
M  V30 16041 C 2144.58 6.22772 7.02095 0
M  V30 16042 C 2145.12 4.97725 7.70406 0
M  V30 16043 O 2144.07 4.13256 7.58987 0
M  V30 16044 C 2146.34 4.28231 7.11815 0
M  V30 16045 O 2147.08 3.49945 8.01648 0
M  V30 16046 C 2145.67 3.5063 5.96244 0
M  V30 16047 O 2146.47 2.36482 5.64681 0
M  V30 16048 C 2144.33 3.15122 6.56374 0
M  V30 16049 H 2144.37 2.13853 6.99751 0
M  V30 16050 H 2145.55 4.13501 5.06559 0
M  V30 16051 H 2147.03 5.03285 6.70911 0
M  V30 16052 H 2145.34 5.20877 8.75697 0
M  V30 16053 H 2145.15 7.11046 7.35349 0
M  V30 16054 H 2143.52 6.35815 7.26986 0
M  V30 16055 H 2146.16 1.61644 6.13565 0
M  V30 16056 P 2148.01 3.65191 7.99657 0
M  V30 16057 O 2149.44 3.8425 8.48115 0
M  V30 16058 O 2147.65 4.17805 6.64342 0
M  V30 16059 O 2147.69 2.07613 7.95143 0
M  V30 16060 C 2147.53 1.44328 9.27336 0
M  V30 16061 C 2148.07 0.0220036 9.17197 0
M  V30 16062 O 2147.02 -0.626867 8.61923 0
M  V30 16063 C 2149.29 -0.24586 8.30336 0
M  V30 16064 O 2150.03 -1.39011 8.63583 0
M  V30 16065 C 2148.62 -0.273849 6.91158 0
M  V30 16066 O 2149.42 -1.06348 6.02892 0
M  V30 16067 C 2147.28 -0.897649 7.22545 0
M  V30 16068 H 2147.32 -1.9841 7.04286 0
M  V30 16069 H 2148.5 0.739928 6.497 0
M  V30 16070 H 2149.98 0.60668 8.36503 0
M  V30 16071 H 2148.29 -0.352479 10.1829 0
M  V30 16072 H 2148.1 2.00611 10.0304 0
M  V30 16073 H 2146.47 1.41843 9.55327 0
M  V30 16074 H 2149.11 -1.95734 6.03555 0
M  V30 16075 P 2150.97 -1.25109 8.70152 0
M  V30 16076 O 2152.39 -1.35274 9.21221 0
M  V30 16077 O 2150.61 -0.0769065 7.84762 0
M  V30 16078 O 2150.64 -2.55232 7.81161 0
M  V30 16079 C 2150.48 -3.79939 8.58154 0
M  V30 16080 C 2151.02 -4.94023 7.72785 0
M  V30 16081 O 2149.97 -5.18726 6.91205 0
M  V30 16082 C 2152.24 -4.69597 6.85231 0
M  V30 16083 O 2152.98 -5.83832 6.51337 0
M  V30 16084 C 2151.57 -3.96706 5.66633 0
M  V30 16085 O 2152.37 -4.15414 4.49689 0
M  V30 16086 C 2150.23 -4.66153 5.59313 0
M  V30 16087 H 2150.27 -5.47679 4.85214 0
M  V30 16088 H 2151.45 -2.89008 5.86566 0
M  V30 16089 H 2152.93 -4.0121 7.36511 0
M  V30 16090 H 2151.24 -5.80182 8.37584 0
M  V30 16091 H 2151.05 -3.73517 9.52265 0
M  V30 16092 H 2149.42 -3.97163 8.80359 0
M  V30 16093 H 2152.06 -4.90969 4.01921 0
M  V30 16094 P 2153.92 -5.75688 6.64379 0
M  V30 16095 O 2155.32 -6.11991 7.09136 0
M  V30 16096 O 2153.54 -4.30899 6.62018 0
M  V30 16097 O 2153.59 -6.36965 5.19102 0
M  V30 16098 C 2153.43 -7.83578 5.16515 0
M  V30 16099 C 2153.97 -8.33307 3.82977 0
M  V30 16100 O 2152.92 -8.0998 3.00999 0
M  V30 16101 C 2155.19 -7.65514 3.2257 0
M  V30 16102 O 2155.93 -8.4329 2.32297 0
M  V30 16103 C 2154.52 -6.40075 2.62207 0
M  V30 16104 O 2155.32 -5.92492 1.53687 0
M  V30 16105 C 2153.19 -6.9454 2.18503 0
M  V30 16106 N 2152.14 -5.95905 2.39948 0
M  V30 16107 C 2151.11 -5.89764 1.49837 0
M  V30 16108 O 2151.15 -6.64088 0.490975 0
M  V30 16109 N 2150.1 -5.02821 1.70992 0
M  V30 16110 C 2150.14 -4.21498 2.77236 0
M  V30 16111 C 2151.24 -4.23389 3.68205 0
M  V30 16112 C 2152.21 -5.12792 3.46171 0
M  V30 16113 H 2153.22 -7.22964 1.12076 0
M  V30 16114 H 2154.4 -5.60502 3.36589 0
M  V30 16115 H 2155.88 -7.36197 4.01993 0
M  V30 16116 H 2154.19 -9.41302 3.90009 0
M  V30 16117 H 2154 -8.29056 5.99158 0
M  V30 16118 H 2152.37 -8.09989 5.25828 0
M  V30 16119 H 2151.29 -3.54747 4.52399 0
M  V30 16120 H 2153.05 -5.18551 4.1489 0
M  V30 16121 H 2155.11 -6.40705 0.751752 0
M  V30 16122 P 2156.87 -8.4349 2.47671 0
M  V30 16123 O 2158.29 -8.94167 2.5964 0
M  V30 16124 O 2156.51 -7.1704 3.19006 0
M  V30 16125 O 2156.54 -8.16596 0.923387 0
M  V30 16126 C 2156.38 -9.38437 0.108857 0
M  V30 16127 C 2156.92 -9.08175 -1.28353 0
M  V30 16128 O 2155.87 -8.44229 -1.84713 0
M  V30 16129 C 2158.14 -8.18386 -1.42505 0
M  V30 16130 O 2158.88 -8.3501 -2.60497 0
M  V30 16131 C 2157.47 -6.80225 -1.25468 0
M  V30 16132 O 2158.27 -5.81621 -1.91066 0
M  V30 16133 C 2156.14 -7.02416 -1.9168 0
M  V30 16134 H 2156.17 -6.6888 -2.96621 0
M  V30 16135 H 2157.35 -6.53617 -0.192223 0
M  V30 16136 H 2158.83 -8.36622 -0.589963 0
M  V30 16137 H 2157.14 -10.0291 -1.79807 0
M  V30 16138 H 2156.95 -10.2138 0.558219 0
M  V30 16139 H 2155.32 -9.6579 0.0444202 0
M  V30 16140 H 2157.96 -5.69556 -2.79637 0
M  V30 16141 P 2159.82 -8.4349 -2.47671 0
M  V30 16142 O 2161.24 -8.92593 -2.65 0
M  V30 16143 O 2159.46 -7.7568 -1.19296 0
M  V30 16144 O 2159.49 -7.36886 -3.63805 0
M  V30 16145 C 2159.33 -7.95349 -4.982 0
M  V30 16146 C 2159.87 -6.94612 -5.98974 0
M  V30 16147 O 2158.82 -6.10347 -6.11815 0
M  V30 16148 C 2161.09 -6.11426 -5.62335 0
M  V30 16149 O 2161.83 -5.6162 -6.70584 0
M  V30 16150 C 2160.42 -5.04409 -4.73308 0
M  V30 16151 O 2161.22 -3.85992 -4.75183 0
M  V30 16152 C 2159.09 -4.8728 -5.41006 0
M  V30 16153 H 2159.12 -4.02333 -6.11157 0
M  V30 16154 H 2160.3 -5.39466 -3.69543 0
M  V30 16155 H 2161.79 -6.71916 -5.01943 0
M  V30 16156 H 2160.09 -7.4649 -6.93477 0
M  V30 16157 H 2159.9 -8.89416 -5.05237 0
M  V30 16158 H 2158.27 -8.14876 -5.18409 0
M  V30 16159 H 2160.91 -3.27957 -5.4317 0
M  V30 16160 P 2162.77 -5.75688 -6.64379 0
M  V30 16161 O 2164.19 -6.07627 -7.05504 0
M  V30 16162 O 2162.41 -5.88047 -5.19722 0
M  V30 16163 O 2162.44 -4.2322 -7.04443 0
M  V30 16164 C 2162.28 -3.99743 -8.4911 0
M  V30 16165 C 2162.82 -2.60516 -8.79425 0
M  V30 16166 O 2161.77 -1.82684 -8.4467 0
M  V30 16167 C 2164.04 -2.10343 -8.03628 0
M  V30 16168 O 2164.78 -1.09919 -8.67766 0
M  V30 16169 C 2163.37 -1.68446 -6.70876 0
M  V30 16170 O 2164.17 -0.678137 -6.08433 0
M  V30 16171 C 2162.04 -1.17436 -7.18567 0
M  V30 16172 H 2162.07 -0.0804732 -7.31656 0
M  V30 16173 H 2163.25 -2.54037 -6.02537 0
M  V30 16174 H 2164.74 -2.93881 -7.85526 0
M  V30 16175 H 2163.04 -2.53065 -9.86973 0
M  V30 16176 H 2162.85 -4.75072 -9.05887 0
M  V30 16177 H 2161.22 -4.05244 -8.76668 0
M  V30 16178 H 2163.86 0.177647 -6.34251 0
M  V30 16179 P 2165.72 -1.25109 -8.70152 0
M  V30 16180 O 2167.14 -1.29744 -9.22016 0
M  V30 16181 O 2165.36 -2.13714 -7.55141 0
M  V30 16182 O 2165.4 0.248149 -8.21425 0
M  V30 16183 C 2165.24 1.22779 -9.30434 0
M  V30 16184 C 2165.78 2.56293 -8.80664 0
M  V30 16185 O 2164.72 3.02979 -8.09349 0
M  V30 16186 C 2166.99 2.57523 -7.89775 0
M  V30 16187 O 2167.73 3.7668 -7.89438 0
M  V30 16188 C 2166.32 2.20997 -6.55446 0
M  V30 16189 O 2167.12 2.71895 -5.48509 0
M  V30 16190 C 2164.99 2.89693 -6.67988 0
M  V30 16191 H 2165.02 3.88793 -6.19859 0
M  V30 16192 H 2166.2 1.12046 -6.44229 0
M  V30 16193 H 2167.69 1.7746 -8.19711 0
M  V30 16194 H 2165.99 3.20706 -9.67112 0
M  V30 16195 H 2165.8 0.901032 -10.1892 0
M  V30 16196 H 2164.17 1.33049 -9.56592 0
M  V30 16197 H 2166.81 3.57847 -5.23962 0
M  V30 16198 P 2168.67 3.65191 -7.99657 0
M  V30 16199 O 2170.09 3.89332 -8.45794 0
M  V30 16200 O 2168.31 2.28472 -7.50807 0
M  V30 16201 O 2168.35 4.64972 -6.77611 0
M  V30 16202 C 2168.19 6.06319 -7.16352 0
M  V30 16203 C 2168.73 6.91731 -6.02299 0
M  V30 16204 O 2167.67 6.92449 -5.17064 0
M  V30 16205 C 2169.94 6.43627 -5.25174 0
M  V30 16206 O 2170.68 7.43686 -4.60469 0
M  V30 16207 C 2169.27 5.40275 -4.31916 0
M  V30 16208 O 2170.07 5.25279 -3.14438 0
M  V30 16209 C 2167.94 6.04847 -4.05327 0
M  V30 16210 H 2167.97 6.62195 -3.11261 0
M  V30 16211 H 2169.15 4.42556 -4.81383 0
M  V30 16212 H 2170.64 5.92458 -5.93643 0
M  V30 16213 H 2168.94 7.92655 -6.402 0
M  V30 16214 H 2168.75 6.26671 -8.0846 0
M  V30 16215 H 2167.12 6.29101 -7.32804 0
M  V30 16216 H 2169.76 5.84315 -2.47318 0
M  V30 16217 P 2171.62 7.39546 -4.75277 0
M  V30 16218 O 2173.04 7.84798 -5.01039 0
M  V30 16219 O 2171.26 5.9812 -5.08098 0
M  V30 16220 O 2171.3 7.57503 -3.1866 0
M  V30 16221 C 2171.14 8.97357 -2.74833 0
M  V30 16222 C 2171.68 9.07548 -1.32709 0
M  V30 16223 O 2170.62 8.62072 -0.606159 0
M  V30 16224 C 2172.89 8.25383 -0.938334 0
M  V30 16225 O 2173.63 8.74577 0.146954 0
M  V30 16226 C 2172.23 6.8802 -0.712559 0
M  V30 16227 O 2173.02 6.1189 0.194655 0
M  V30 16228 C 2170.89 7.27966 -0.139777 0
M  V30 16229 H 2170.92 7.25354 0.961601 0
M  V30 16230 H 2172.1 6.32557 -1.65702 0
M  V30 16231 H 2173.59 8.19355 -1.79097 0
M  V30 16232 H 2171.89 10.1294 -1.10029 0
M  V30 16233 H 2171.7 9.64276 -3.41316 0
M  V30 16234 H 2170.07 9.25417 -2.76357 0
M  V30 16235 H 2172.71 6.25267 1.07847 0
M  V30 16236 P 2174.57 8.791 1.87823e-11 0
M  V30 16237 O 2175.99 9.31096 0.027933 0
M  V30 16238 O 2174.21 7.77869 -1.04071 0
M  V30 16239 O 2174.25 8.09533 1.41463 0
M  V30 16240 C 2174.09 9.0349 2.53943 0
M  V30 16241 C 2174.63 8.35226 3.79016 0
M  V30 16242 O 2173.57 7.57992 4.15078 0
M  V30 16243 C 2175.85 7.45087 3.67298 0
M  V30 16244 O 2176.58 7.27796 4.85194 0
M  V30 16245 C 2175.18 6.17323 3.12027 0
M  V30 16246 O 2175.98 5.04231 3.47188 0
M  V30 16247 C 2173.84 6.19961 3.81809 0
M  V30 16248 H 2173.87 5.58218 4.73051 0
M  V30 16249 H 2175.05 6.21726 2.02589 0
M  V30 16250 H 2176.54 7.86112 2.9231 0
M  V30 16251 H 2174.84 9.11627 4.55076 0
M  V30 16252 H 2174.65 9.9573 2.34194 0
M  V30 16253 H 2173.02 9.2792 2.67832 0
M  V30 16254 H 2175.66 4.67702 4.28772 0
M  V30 16255 P 2177.52 7.39546 4.75277 0
M  V30 16256 O 2178.94 7.81777 5.05738 0
M  V30 16257 O 2177.16 7.1065 3.32998 0
M  V30 16258 O 2177.2 6.04542 5.56673 0
M  V30 16259 C 2177.04 6.22772 7.02095 0
M  V30 16260 C 2177.58 4.97725 7.70406 0
M  V30 16261 O 2176.52 4.13256 7.58987 0
M  V30 16262 C 2178.8 4.28231 7.11815 0
M  V30 16263 O 2179.53 3.49945 8.01648 0
M  V30 16264 C 2178.13 3.5063 5.96244 0
M  V30 16265 O 2178.93 2.36482 5.64681 0
M  V30 16266 C 2176.79 3.15122 6.56374 0
M  V30 16267 H 2176.82 2.13853 6.99751 0
M  V30 16268 H 2178 4.13501 5.06559 0
M  V30 16269 H 2179.49 5.03285 6.70911 0
M  V30 16270 H 2177.79 5.20877 8.75697 0
M  V30 16271 H 2177.6 7.11046 7.35349 0
M  V30 16272 H 2175.97 6.35815 7.26986 0
M  V30 16273 H 2178.61 1.61644 6.13565 0
M  V30 16274 P 2180.47 3.65191 7.99657 0
M  V30 16275 O 2181.89 3.8425 8.48115 0
M  V30 16276 O 2180.11 4.17805 6.64342 0
M  V30 16277 O 2180.15 2.07613 7.95143 0
M  V30 16278 C 2179.99 1.44328 9.27336 0
M  V30 16279 C 2180.53 0.0220036 9.17197 0
M  V30 16280 O 2179.47 -0.626867 8.61923 0
M  V30 16281 C 2181.75 -0.24586 8.30336 0
M  V30 16282 O 2182.48 -1.39011 8.63583 0
M  V30 16283 C 2181.08 -0.273849 6.91158 0
M  V30 16284 O 2181.88 -1.06348 6.02892 0
M  V30 16285 C 2179.74 -0.897649 7.22545 0
M  V30 16286 H 2179.77 -1.9841 7.04286 0
M  V30 16287 H 2180.96 0.739928 6.497 0
M  V30 16288 H 2182.44 0.60668 8.36503 0
M  V30 16289 H 2180.75 -0.352479 10.1829 0
M  V30 16290 H 2180.56 2.00611 10.0304 0
M  V30 16291 H 2178.93 1.41843 9.55327 0
M  V30 16292 H 2181.56 -1.95734 6.03555 0
M  V30 16293 P 2183.42 -1.25109 8.70152 0
M  V30 16294 O 2184.84 -1.35274 9.21221 0
M  V30 16295 O 2183.06 -0.0769065 7.84762 0
M  V30 16296 O 2183.1 -2.55232 7.81161 0
M  V30 16297 C 2182.94 -3.79939 8.58154 0
M  V30 16298 C 2183.48 -4.94023 7.72785 0
M  V30 16299 O 2182.42 -5.18726 6.91205 0
M  V30 16300 C 2184.7 -4.69597 6.85231 0
M  V30 16301 O 2185.43 -5.83832 6.51337 0
M  V30 16302 C 2184.03 -3.96706 5.66633 0
M  V30 16303 O 2184.83 -4.15414 4.49689 0
M  V30 16304 C 2182.69 -4.66153 5.59313 0
M  V30 16305 H 2182.72 -5.47679 4.85214 0
M  V30 16306 H 2183.91 -2.89008 5.86566 0
M  V30 16307 H 2185.39 -4.0121 7.36511 0
M  V30 16308 H 2183.7 -5.80182 8.37584 0
M  V30 16309 H 2183.51 -3.73517 9.52265 0
M  V30 16310 H 2181.88 -3.97163 8.80359 0
M  V30 16311 H 2184.51 -4.90969 4.01921 0
M  V30 16312 P 2186.37 -5.75688 6.64379 0
M  V30 16313 O 2187.79 -6.11849 7.01846 0
M  V30 16314 O 2186.01 -4.30744 6.56026 0
M  V30 16315 O 2186.05 -6.37042 5.19165 0
M  V30 16316 C 2185.89 -7.83578 5.16515 0
M  V30 16317 C 2186.43 -8.33398 3.83019 0
M  V30 16318 O 2185.37 -8.10074 3.01034 0
M  V30 16319 C 2187.65 -7.65514 3.2257 0
M  V30 16320 O 2188.39 -8.4329 2.32297 0
M  V30 16321 C 2186.98 -6.40075 2.62207 0
M  V30 16322 O 2187.78 -5.92589 1.53712 0
M  V30 16323 C 2185.64 -6.9454 2.18503 0
M  V30 16324 H 2185.67 -7.23063 1.12091 0
M  V30 16325 H 2186.86 -5.6025 3.37201 0
M  V30 16326 H 2188.34 -7.35707 4.02681 0
M  V30 16327 H 2186.65 -9.40912 3.9095 0
M  V30 16328 H 2186.46 -8.29056 5.99158 0
M  V30 16329 H 2184.83 -8.10073 5.25882 0
M  V30 16330 H 2187.47 -6.30324 0.726794 0
M  V30 16331 P 2189.32 -8.4349 2.47671 0
M  V30 16332 O 2190.74 -8.94167 2.5964 0
M  V30 16333 O 2188.96 -7.1704 3.19006 0
M  V30 16334 O 2189 -8.16596 0.923387 0
M  V30 16335 C 2188.84 -9.38437 0.108857 0
M  V30 16336 C 2189.38 -9.08175 -1.28353 0
M  V30 16337 O 2188.32 -8.44229 -1.84713 0
M  V30 16338 C 2190.6 -8.18386 -1.42505 0
M  V30 16339 O 2191.34 -8.3501 -2.60497 0
M  V30 16340 C 2189.93 -6.80225 -1.25468 0
M  V30 16341 O 2190.73 -5.81621 -1.91066 0
M  V30 16342 C 2188.59 -7.02416 -1.9168 0
M  V30 16343 H 2188.62 -6.6888 -2.96621 0
M  V30 16344 H 2189.81 -6.53617 -0.192223 0
M  V30 16345 H 2191.29 -8.36622 -0.589963 0
M  V30 16346 H 2189.6 -10.0291 -1.79807 0
M  V30 16347 H 2189.41 -10.2138 0.558219 0
M  V30 16348 H 2187.78 -9.6579 0.0444202 0
M  V30 16349 H 2190.42 -5.69556 -2.79637 0
M  V30 16350 P 2192.27 -8.4349 -2.47671 0
M  V30 16351 O 2193.7 -8.92593 -2.65 0
M  V30 16352 O 2191.91 -7.7568 -1.19296 0
M  V30 16353 O 2191.95 -7.36886 -3.63805 0
M  V30 16354 C 2191.79 -7.95349 -4.982 0
M  V30 16355 C 2192.33 -6.94612 -5.98974 0
M  V30 16356 O 2191.27 -6.10347 -6.11815 0
M  V30 16357 C 2193.55 -6.11426 -5.62335 0
M  V30 16358 O 2194.29 -5.6162 -6.70584 0
M  V30 16359 C 2192.88 -5.04409 -4.73308 0
M  V30 16360 O 2193.68 -3.85992 -4.75183 0
M  V30 16361 C 2191.54 -4.8728 -5.41006 0
M  V30 16362 H 2191.57 -4.02333 -6.11157 0
M  V30 16363 H 2192.76 -5.39466 -3.69543 0
M  V30 16364 H 2194.24 -6.71916 -5.01943 0
M  V30 16365 H 2192.55 -7.4649 -6.93477 0
M  V30 16366 H 2192.36 -8.89416 -5.05237 0
M  V30 16367 H 2190.73 -8.14876 -5.18409 0
M  V30 16368 H 2193.37 -3.27957 -5.4317 0
M  V30 16369 P 2195.22 -5.75688 -6.64379 0
M  V30 16370 O 2196.65 -6.07627 -7.05504 0
M  V30 16371 O 2194.86 -5.88047 -5.19722 0
M  V30 16372 O 2194.9 -4.2322 -7.04443 0
M  V30 16373 C 2194.74 -3.99743 -8.4911 0
M  V30 16374 C 2195.28 -2.60516 -8.79425 0
M  V30 16375 O 2194.23 -1.82684 -8.4467 0
M  V30 16376 C 2196.5 -2.10343 -8.03628 0
M  V30 16377 O 2197.24 -1.09919 -8.67766 0
M  V30 16378 C 2195.83 -1.68446 -6.70876 0
M  V30 16379 O 2196.63 -0.678137 -6.08433 0
M  V30 16380 C 2194.49 -1.17436 -7.18567 0
M  V30 16381 H 2194.53 -0.0804732 -7.31656 0
M  V30 16382 H 2195.71 -2.54037 -6.02537 0
M  V30 16383 H 2197.19 -2.93881 -7.85526 0
M  V30 16384 H 2195.5 -2.53065 -9.86973 0
M  V30 16385 H 2195.31 -4.75072 -9.05887 0
M  V30 16386 H 2193.68 -4.05244 -8.76668 0
M  V30 16387 H 2196.32 0.177647 -6.34251 0
M  V30 16388 P 2198.17 -1.25109 -8.70152 0
M  V30 16389 O 2199.6 -1.29744 -9.22016 0
M  V30 16390 O 2197.81 -2.13714 -7.55141 0
M  V30 16391 O 2197.85 0.248149 -8.21425 0
M  V30 16392 C 2197.69 1.22779 -9.30434 0
M  V30 16393 C 2198.23 2.56293 -8.80664 0
M  V30 16394 O 2197.18 3.02979 -8.09349 0
M  V30 16395 C 2199.45 2.57523 -7.89775 0
M  V30 16396 O 2200.19 3.7668 -7.89438 0
M  V30 16397 C 2198.78 2.20997 -6.55446 0
M  V30 16398 O 2199.58 2.71895 -5.48509 0
M  V30 16399 C 2197.44 2.89693 -6.67988 0
M  V30 16400 H 2197.48 3.88793 -6.19859 0
M  V30 16401 H 2198.66 1.12046 -6.44229 0
M  V30 16402 H 2200.14 1.7746 -8.19711 0
M  V30 16403 H 2198.45 3.20706 -9.67112 0
M  V30 16404 H 2198.26 0.901032 -10.1892 0
M  V30 16405 H 2196.63 1.33049 -9.56592 0
M  V30 16406 H 2199.27 3.57847 -5.23962 0
M  V30 16407 P 2201.13 3.65191 -7.99657 0
M  V30 16408 O 2202.55 3.89332 -8.45794 0
M  V30 16409 O 2200.77 2.28472 -7.50807 0
M  V30 16410 O 2200.8 4.64972 -6.77611 0
M  V30 16411 C 2200.64 6.06319 -7.16352 0
M  V30 16412 C 2201.18 6.91731 -6.02299 0
M  V30 16413 O 2200.13 6.92449 -5.17064 0
M  V30 16414 C 2202.4 6.43627 -5.25174 0
M  V30 16415 O 2203.14 7.43686 -4.60469 0
M  V30 16416 C 2201.73 5.40275 -4.31916 0
M  V30 16417 O 2202.53 5.25279 -3.14438 0
M  V30 16418 C 2200.39 6.04847 -4.05327 0
M  V30 16419 H 2200.43 6.62195 -3.11261 0
M  V30 16420 H 2201.61 4.42556 -4.81383 0
M  V30 16421 H 2203.09 5.92458 -5.93643 0
M  V30 16422 H 2201.4 7.92655 -6.402 0
M  V30 16423 H 2201.21 6.26671 -8.0846 0
M  V30 16424 H 2199.58 6.29101 -7.32804 0
M  V30 16425 H 2202.22 5.84315 -2.47318 0
M  V30 16426 P 2204.08 7.39546 -4.75277 0
M  V30 16427 O 2205.5 7.84798 -5.01039 0
M  V30 16428 O 2203.72 5.9812 -5.08098 0
M  V30 16429 O 2203.75 7.57503 -3.1866 0
M  V30 16430 C 2203.59 8.97357 -2.74833 0
M  V30 16431 C 2204.13 9.07548 -1.32709 0
M  V30 16432 O 2203.08 8.62072 -0.606159 0
M  V30 16433 C 2205.35 8.25383 -0.938334 0
M  V30 16434 O 2206.09 8.74577 0.146954 0
M  V30 16435 C 2204.68 6.8802 -0.712559 0
M  V30 16436 O 2205.48 6.1189 0.194655 0
M  V30 16437 C 2203.34 7.27966 -0.139777 0
M  V30 16438 H 2203.38 7.25354 0.961601 0
M  V30 16439 H 2204.56 6.32557 -1.65702 0
M  V30 16440 H 2206.04 8.19355 -1.79097 0
M  V30 16441 H 2204.35 10.1294 -1.10029 0
M  V30 16442 H 2204.16 9.64276 -3.41316 0
M  V30 16443 H 2202.53 9.25417 -2.76357 0
M  V30 16444 H 2205.17 6.25267 1.07847 0
M  V30 16445 P 2207.03 8.791 1.90924e-11 0
M  V30 16446 O 2208.45 9.31096 0.027933 0
M  V30 16447 O 2206.67 7.77869 -1.04071 0
M  V30 16448 O 2206.7 8.09533 1.41463 0
M  V30 16449 C 2206.54 9.0349 2.53943 0
M  V30 16450 C 2207.08 8.35226 3.79016 0
M  V30 16451 O 2206.03 7.57992 4.15078 0
M  V30 16452 C 2208.3 7.45087 3.67298 0
M  V30 16453 O 2209.04 7.27796 4.85194 0
M  V30 16454 C 2207.63 6.17323 3.12027 0
M  V30 16455 O 2208.43 5.04231 3.47188 0
M  V30 16456 C 2206.3 6.19961 3.81809 0
M  V30 16457 H 2206.33 5.58218 4.73051 0
M  V30 16458 H 2207.51 6.21726 2.02589 0
M  V30 16459 H 2208.99 7.86112 2.9231 0
M  V30 16460 H 2207.3 9.11627 4.55076 0
M  V30 16461 H 2207.11 9.9573 2.34194 0
M  V30 16462 H 2205.48 9.2792 2.67832 0
M  V30 16463 H 2208.12 4.67702 4.28772 0
M  V30 16464 P 2209.98 7.39546 4.75277 0
M  V30 16465 O 2211.4 7.81777 5.05738 0
M  V30 16466 O 2209.62 7.1065 3.32998 0
M  V30 16467 O 2209.65 6.04542 5.56673 0
M  V30 16468 C 2209.49 6.22772 7.02095 0
M  V30 16469 C 2210.03 4.97725 7.70406 0
M  V30 16470 O 2208.98 4.13256 7.58987 0
M  V30 16471 C 2211.25 4.28231 7.11815 0
M  V30 16472 O 2211.99 3.49945 8.01648 0
M  V30 16473 C 2210.58 3.5063 5.96244 0
M  V30 16474 O 2211.38 2.36482 5.64681 0
M  V30 16475 C 2209.25 3.15122 6.56374 0
M  V30 16476 H 2209.28 2.13853 6.99751 0
M  V30 16477 H 2210.46 4.13501 5.06559 0
M  V30 16478 H 2211.94 5.03285 6.70911 0
M  V30 16479 H 2210.25 5.20877 8.75697 0
M  V30 16480 H 2210.06 7.11046 7.35349 0
M  V30 16481 H 2208.43 6.35815 7.26986 0
M  V30 16482 H 2211.07 1.61644 6.13565 0
M  V30 16483 P 2212.93 3.65191 7.99657 0
M  V30 16484 O 2214.35 3.8425 8.48115 0
M  V30 16485 O 2212.57 4.17805 6.64342 0
M  V30 16486 O 2212.6 2.07613 7.95143 0
M  V30 16487 C 2212.44 1.44328 9.27336 0
M  V30 16488 C 2212.98 0.0220036 9.17197 0
M  V30 16489 O 2211.93 -0.626867 8.61923 0
M  V30 16490 C 2214.2 -0.24586 8.30336 0
M  V30 16491 O 2214.94 -1.39011 8.63583 0
M  V30 16492 C 2213.53 -0.273849 6.91158 0
M  V30 16493 O 2214.33 -1.06348 6.02892 0
M  V30 16494 C 2212.2 -0.897649 7.22545 0
M  V30 16495 H 2212.23 -1.9841 7.04286 0
M  V30 16496 H 2213.41 0.739928 6.497 0
M  V30 16497 H 2214.9 0.60668 8.36503 0
M  V30 16498 H 2213.2 -0.352479 10.1829 0
M  V30 16499 H 2213.01 2.00611 10.0304 0
M  V30 16500 H 2211.38 1.41843 9.55327 0
M  V30 16501 H 2214.02 -1.95734 6.03555 0
M  V30 16502 P 2215.88 -1.25109 8.70152 0
M  V30 16503 O 2217.3 -1.35288 9.2132 0
M  V30 16504 O 2215.52 -0.0769065 7.84762 0
M  V30 16505 O 2215.56 -2.55232 7.81161 0
M  V30 16506 C 2215.39 -3.79979 8.58246 0
M  V30 16507 C 2215.94 -4.94023 7.72785 0
M  V30 16508 O 2214.88 -5.18666 6.91125 0
M  V30 16509 C 2217.15 -4.69597 6.85231 0
M  V30 16510 O 2217.89 -5.83832 6.51337 0
M  V30 16511 C 2216.49 -3.96706 5.66633 0
M  V30 16512 O 2217.28 -4.14896 4.5003 0
M  V30 16513 C 2215.15 -4.66153 5.59313 0
M  V30 16514 N 2214.1 -3.71582 5.24027 0
M  V30 16515 C 2214.27 -2.39715 5.48833 0
M  V30 16516 N 2213.25 -1.65863 5.12845 0
M  V30 16517 C 2212.36 -2.57637 4.5973 0
M  V30 16518 C 2211.09 -2.40278 4.01027 0
M  V30 16519 N 2210.5 -1.19549 3.86744 0
M  V30 16520 N 2210.53 -3.57711 3.59575 0
M  V30 16521 C 2211.13 -4.80324 3.70476 0
M  V30 16522 N 2212.31 -5.01121 4.23801 0
M  V30 16523 C 2212.88 -3.84757 4.66372 0
M  V30 16524 H 2215.18 -5.47604 4.85148 0
M  V30 16525 H 2216.36 -2.8955 5.86187 0
M  V30 16526 H 2217.85 -4.0121 7.36511 0
M  V30 16527 H 2216.15 -5.81019 8.37003 0
M  V30 16528 H 2215.96 -3.73517 9.52265 0
M  V30 16529 H 2214.33 -3.97163 8.80359 0
M  V30 16530 H 2210.6 -5.66348 3.3183 0
M  V30 16531 H 2215.17 -1.98804 5.94332 0
M  V30 16532 H 2209.57 -1.13147 3.4281 0
M  V30 16533 H 2210.97 -0.344074 4.19692 0
M  V30 16534 H 2216.97 -4.90891 4.01857 0
M  V30 16535 P 2218.83 -5.75688 6.64379 0
M  V30 16536 O 2220.25 -6.11849 7.01846 0
M  V30 16537 O 2218.47 -4.30744 6.56026 0
M  V30 16538 O 2218.51 -6.37042 5.19165 0
M  V30 16539 C 2218.35 -7.83578 5.16515 0
M  V30 16540 C 2218.89 -8.33398 3.83019 0
M  V30 16541 O 2217.83 -8.10074 3.01034 0
M  V30 16542 C 2220.1 -7.65514 3.2257 0
M  V30 16543 O 2220.84 -8.4329 2.32297 0
M  V30 16544 C 2219.43 -6.40075 2.62207 0
M  V30 16545 O 2220.23 -5.92589 1.53712 0
M  V30 16546 C 2218.1 -6.9454 2.18503 0
M  V30 16547 H 2218.13 -7.23063 1.12091 0
M  V30 16548 H 2219.31 -5.6025 3.37201 0
M  V30 16549 H 2220.8 -7.35707 4.02681 0
M  V30 16550 H 2219.1 -9.40912 3.9095 0
M  V30 16551 H 2218.91 -8.29056 5.99158 0
M  V30 16552 H 2217.28 -8.10073 5.25882 0
M  V30 16553 H 2219.92 -6.30324 0.726794 0
M  V30 16554 P 2221.78 -8.4349 2.47671 0
M  V30 16555 O 2223.2 -8.94167 2.5964 0
M  V30 16556 O 2221.42 -7.1704 3.19006 0
M  V30 16557 O 2221.46 -8.16596 0.923387 0
M  V30 16558 C 2221.3 -9.38437 0.108857 0
M  V30 16559 C 2221.84 -9.08175 -1.28353 0
M  V30 16560 O 2220.78 -8.44229 -1.84713 0
M  V30 16561 C 2223.05 -8.18386 -1.42505 0
M  V30 16562 O 2223.79 -8.3501 -2.60497 0
M  V30 16563 C 2222.39 -6.80225 -1.25468 0
M  V30 16564 O 2223.18 -5.81621 -1.91066 0
M  V30 16565 C 2221.05 -7.02416 -1.9168 0
M  V30 16566 H 2221.08 -6.6888 -2.96621 0
M  V30 16567 H 2222.26 -6.53617 -0.192223 0
M  V30 16568 H 2223.75 -8.36622 -0.589963 0
M  V30 16569 H 2222.05 -10.0291 -1.79807 0
M  V30 16570 H 2221.86 -10.2138 0.558219 0
M  V30 16571 H 2220.23 -9.6579 0.0444202 0
M  V30 16572 H 2222.87 -5.69556 -2.79637 0
M  V30 16573 P 2224.73 -8.4349 -2.47671 0
M  V30 16574 O 2226.15 -8.92593 -2.65 0
M  V30 16575 O 2224.37 -7.7568 -1.19296 0
M  V30 16576 O 2224.41 -7.36886 -3.63805 0
M  V30 16577 C 2224.25 -7.95349 -4.982 0
M  V30 16578 C 2224.79 -6.94612 -5.98974 0
M  V30 16579 O 2223.73 -6.10347 -6.11815 0
M  V30 16580 C 2226 -6.11426 -5.62335 0
M  V30 16581 O 2226.74 -5.6162 -6.70584 0
M  V30 16582 C 2225.34 -5.04409 -4.73308 0
M  V30 16583 O 2226.13 -3.85992 -4.75183 0
M  V30 16584 C 2224 -4.8728 -5.41006 0
M  V30 16585 H 2224.03 -4.02333 -6.11157 0
M  V30 16586 H 2225.21 -5.39466 -3.69543 0
M  V30 16587 H 2226.7 -6.71916 -5.01943 0
M  V30 16588 H 2225 -7.4649 -6.93477 0
M  V30 16589 H 2224.81 -8.89416 -5.05237 0
M  V30 16590 H 2223.18 -8.14876 -5.18409 0
M  V30 16591 H 2225.82 -3.27957 -5.4317 0
M  V30 16592 P 2227.68 -5.75688 -6.64379 0
M  V30 16593 O 2229.1 -6.07627 -7.05504 0
M  V30 16594 O 2227.32 -5.88047 -5.19722 0
M  V30 16595 O 2227.36 -4.2322 -7.04443 0
M  V30 16596 C 2227.2 -3.99743 -8.4911 0
M  V30 16597 C 2227.74 -2.60516 -8.79425 0
M  V30 16598 O 2226.68 -1.82684 -8.4467 0
M  V30 16599 C 2228.96 -2.10343 -8.03628 0
M  V30 16600 O 2229.69 -1.09919 -8.67766 0
M  V30 16601 C 2228.29 -1.68446 -6.70876 0
M  V30 16602 O 2229.09 -0.678137 -6.08433 0
M  V30 16603 C 2226.95 -1.17436 -7.18567 0
M  V30 16604 H 2226.98 -0.0804732 -7.31656 0
M  V30 16605 H 2228.16 -2.54037 -6.02537 0
M  V30 16606 H 2229.65 -2.93881 -7.85526 0
M  V30 16607 H 2227.95 -2.53065 -9.86973 0
M  V30 16608 H 2227.76 -4.75072 -9.05887 0
M  V30 16609 H 2226.13 -4.05244 -8.76668 0
M  V30 16610 H 2228.77 0.177647 -6.34251 0
M  V30 16611 P 2230.63 -1.25109 -8.70152 0
M  V30 16612 O 2232.05 -1.29744 -9.22016 0
M  V30 16613 O 2230.27 -2.13714 -7.55141 0
M  V30 16614 O 2230.31 0.248149 -8.21425 0
M  V30 16615 C 2230.15 1.22779 -9.30434 0
M  V30 16616 C 2230.69 2.56293 -8.80664 0
M  V30 16617 O 2229.63 3.02979 -8.09349 0
M  V30 16618 C 2231.91 2.57523 -7.89775 0
M  V30 16619 O 2232.64 3.7668 -7.89438 0
M  V30 16620 C 2231.24 2.20997 -6.55446 0
M  V30 16621 O 2232.04 2.71895 -5.48509 0
M  V30 16622 C 2229.9 2.89693 -6.67988 0
M  V30 16623 H 2229.93 3.88793 -6.19859 0
M  V30 16624 H 2231.11 1.12046 -6.44229 0
M  V30 16625 H 2232.6 1.7746 -8.19711 0
M  V30 16626 H 2230.9 3.20706 -9.67112 0
M  V30 16627 H 2230.71 0.901032 -10.1892 0
M  V30 16628 H 2229.08 1.33049 -9.56592 0
M  V30 16629 H 2231.72 3.57847 -5.23962 0
M  V30 16630 P 2233.58 3.65191 -7.99657 0
M  V30 16631 O 2235 3.89416 -8.45976 0
M  V30 16632 O 2233.22 2.28472 -7.50807 0
M  V30 16633 O 2233.26 4.64972 -6.77611 0
M  V30 16634 C 2233.1 6.06319 -7.16352 0
M  V30 16635 C 2233.64 6.91655 -6.02234 0
M  V30 16636 O 2232.58 6.92449 -5.17064 0
M  V30 16637 C 2234.86 6.43627 -5.25174 0
M  V30 16638 O 2235.59 7.43686 -4.60469 0
M  V30 16639 C 2234.19 5.40275 -4.31916 0
M  V30 16640 O 2234.99 5.25193 -3.14386 0
M  V30 16641 C 2232.85 6.04847 -4.05327 0
M  V30 16642 N 2231.81 5.04166 -3.98114 0
M  V30 16643 C 2231.87 3.96049 -4.75587 0
M  V30 16644 N 2230.82 3.15559 -4.54006 0
M  V30 16645 C 2230.09 3.78802 -3.62491 0
M  V30 16646 C 2228.78 3.476 -3.10071 0
M  V30 16647 O 2228.05 2.51136 -3.37021 0
M  V30 16648 N 2228.35 4.39088 -2.19956 0
M  V30 16649 C 2229.1 5.53215 -1.81733 0
M  V30 16650 N 2228.51 6.31963 -0.860928 0
M  V30 16651 N 2230.26 5.86688 -2.32562 0
M  V30 16652 C 2230.71 4.97525 -3.23407 0
M  V30 16653 H 2232.88 6.62195 -3.11261 0
M  V30 16654 H 2234.07 4.42488 -4.8131 0
M  V30 16655 H 2235.55 5.93051 -5.9305 0
M  V30 16656 H 2233.86 7.92655 -6.402 0
M  V30 16657 H 2233.67 6.26671 -8.0846 0
M  V30 16658 H 2232.03 6.29101 -7.32804 0
M  V30 16659 H 2227.46 4.25523 -1.77604 0
M  V30 16660 H 2232.67 3.75576 -5.47333 0
M  V30 16661 H 2227.6 6.04684 -0.468946 0
M  V30 16662 H 2228.97 7.18054 -0.542422 0
M  V30 16663 H 2234.68 5.84223 -2.47279 0
M  V30 16664 P 2236.53 7.39546 -4.75277 0
M  V30 16665 O 2237.95 7.84798 -5.01039 0
M  V30 16666 O 2236.17 5.9812 -5.08098 0
M  V30 16667 O 2236.21 7.57503 -3.1866 0
M  V30 16668 C 2236.05 8.97357 -2.74833 0
M  V30 16669 C 2236.59 9.07548 -1.32709 0
M  V30 16670 O 2235.53 8.62072 -0.606159 0
M  V30 16671 C 2237.81 8.25383 -0.938334 0
M  V30 16672 O 2238.55 8.74577 0.146954 0
M  V30 16673 C 2237.14 6.8802 -0.712559 0
M  V30 16674 O 2237.94 6.1189 0.194655 0
M  V30 16675 C 2235.8 7.27966 -0.139777 0
M  V30 16676 H 2235.83 7.25354 0.961601 0
M  V30 16677 H 2237.02 6.32557 -1.65702 0
M  V30 16678 H 2238.5 8.19355 -1.79097 0
M  V30 16679 H 2236.81 10.1294 -1.10029 0
M  V30 16680 H 2236.62 9.64276 -3.41316 0
M  V30 16681 H 2234.99 9.25417 -2.76357 0
M  V30 16682 H 2237.63 6.25267 1.07847 0
M  V30 16683 P 2239.48 8.791 1.94026e-11 0
M  V30 16684 O 2240.9 9.31096 0.027933 0
M  V30 16685 O 2239.12 7.77869 -1.04071 0
M  V30 16686 O 2239.16 8.09533 1.41463 0
M  V30 16687 C 2239 9.0349 2.53943 0
M  V30 16688 C 2239.54 8.35226 3.79016 0
M  V30 16689 O 2238.48 7.57992 4.15078 0
M  V30 16690 C 2240.76 7.45087 3.67298 0
M  V30 16691 O 2241.5 7.27796 4.85194 0
M  V30 16692 C 2240.09 6.17323 3.12027 0
M  V30 16693 O 2240.89 5.04231 3.47188 0
M  V30 16694 C 2238.75 6.19961 3.81809 0
M  V30 16695 H 2238.78 5.58218 4.73051 0
M  V30 16696 H 2239.97 6.21726 2.02589 0
M  V30 16697 H 2241.45 7.86112 2.9231 0
M  V30 16698 H 2239.76 9.11627 4.55076 0
M  V30 16699 H 2239.57 9.9573 2.34194 0
M  V30 16700 H 2237.94 9.2792 2.67832 0
M  V30 16701 H 2240.58 4.67702 4.28772 0
M  V30 16702 P 2242.43 7.39546 4.75277 0
M  V30 16703 O 2243.86 7.81777 5.05738 0
M  V30 16704 O 2242.07 7.1065 3.32998 0
M  V30 16705 O 2242.11 6.04542 5.56673 0
M  V30 16706 C 2241.95 6.22772 7.02095 0
M  V30 16707 C 2242.49 4.97725 7.70406 0
M  V30 16708 O 2241.43 4.13256 7.58987 0
M  V30 16709 C 2243.71 4.28231 7.11815 0
M  V30 16710 O 2244.45 3.49945 8.01648 0
M  V30 16711 C 2243.04 3.5063 5.96244 0
M  V30 16712 O 2243.84 2.36482 5.64681 0
M  V30 16713 C 2241.7 3.15122 6.56374 0
M  V30 16714 H 2241.73 2.13853 6.99751 0
M  V30 16715 H 2242.92 4.13501 5.06559 0
M  V30 16716 H 2244.4 5.03285 6.70911 0
M  V30 16717 H 2242.71 5.20877 8.75697 0
M  V30 16718 H 2242.52 7.11046 7.35349 0
M  V30 16719 H 2240.89 6.35815 7.26986 0
M  V30 16720 H 2243.53 1.61644 6.13565 0
M  V30 16721 P 2245.38 3.65191 7.99657 0
M  V30 16722 O 2246.8 3.84292 8.48206 0
M  V30 16723 O 2245.02 4.17805 6.64342 0
M  V30 16724 O 2245.06 2.07613 7.95143 0
M  V30 16725 C 2244.9 1.44344 9.27435 0
M  V30 16726 C 2245.44 0.0220036 9.17197 0
M  V30 16727 O 2244.39 -0.626794 8.61824 0
M  V30 16728 C 2246.66 -0.24586 8.30336 0
M  V30 16729 O 2247.4 -1.39011 8.63583 0
M  V30 16730 C 2245.99 -0.273849 6.91158 0
M  V30 16731 O 2246.79 -1.05728 6.029 0
M  V30 16732 C 2244.65 -0.897649 7.22545 0
M  V30 16733 N 2243.61 -0.292839 6.41732 0
M  V30 16734 C 2243.78 0.950603 5.91308 0
M  V30 16735 N 2242.75 1.37732 5.21105 0
M  V30 16736 C 2241.87 0.318109 5.26039 0
M  V30 16737 C 2240.6 0.146766 4.6727 0
M  V30 16738 N 2240 1.08519 3.89983 0
M  V30 16739 N 2240.03 -1.06525 4.95887 0
M  V30 16740 C 2240.64 -2.0378 5.71347 0
M  V30 16741 N 2241.81 -1.92445 6.27451 0
M  V30 16742 C 2242.39 -0.715382 6.00353 0
M  V30 16743 H 2244.68 -1.98383 7.04189 0
M  V30 16744 H 2245.87 0.733318 6.49674 0
M  V30 16745 H 2247.35 0.60668 8.36503 0
M  V30 16746 H 2245.66 -0.362662 10.1825 0
M  V30 16747 H 2245.47 2.00611 10.0304 0
M  V30 16748 H 2243.84 1.41843 9.55327 0
M  V30 16749 H 2240.1 -2.97041 5.85344 0
M  V30 16750 H 2244.68 1.54076 6.07465 0
M  V30 16751 H 2239.07 0.901517 3.49562 0
M  V30 16752 H 2240.47 1.97957 3.71669 0
M  V30 16753 H 2246.48 -1.95704 6.0346 0
M  V30 16754 P 2248.33 -1.25109 8.70152 0
M  V30 16755 O 2249.76 -1.35274 9.21221 0
M  V30 16756 O 2247.97 -0.0769065 7.84762 0
M  V30 16757 O 2248.01 -2.55232 7.81161 0
M  V30 16758 C 2247.85 -3.79939 8.58154 0
M  V30 16759 C 2248.39 -4.94023 7.72785 0
M  V30 16760 O 2247.34 -5.18726 6.91205 0
M  V30 16761 C 2249.61 -4.69597 6.85231 0
M  V30 16762 O 2250.35 -5.83832 6.51337 0
M  V30 16763 C 2248.94 -3.96706 5.66633 0
M  V30 16764 O 2249.74 -4.15414 4.49689 0
M  V30 16765 C 2247.6 -4.66153 5.59313 0
M  V30 16766 H 2247.64 -5.47679 4.85214 0
M  V30 16767 H 2248.82 -2.89008 5.86566 0
M  V30 16768 H 2250.3 -4.0121 7.36511 0
M  V30 16769 H 2248.61 -5.80182 8.37584 0
M  V30 16770 H 2248.42 -3.73517 9.52265 0
M  V30 16771 H 2246.79 -3.97163 8.80359 0
M  V30 16772 H 2249.43 -4.90969 4.01921 0
M  V30 16773 P 2251.28 -5.75688 6.64379 0
M  V30 16774 O 2252.71 -6.11849 7.01846 0
M  V30 16775 O 2250.92 -4.30744 6.56026 0
M  V30 16776 O 2250.96 -6.37042 5.19165 0
M  V30 16777 C 2250.8 -7.83578 5.16515 0
M  V30 16778 C 2251.34 -8.33398 3.83019 0
M  V30 16779 O 2250.29 -8.10074 3.01034 0
M  V30 16780 C 2252.56 -7.65514 3.2257 0
M  V30 16781 O 2253.3 -8.4329 2.32297 0
M  V30 16782 C 2251.89 -6.40075 2.62207 0
M  V30 16783 O 2252.69 -5.92589 1.53712 0
M  V30 16784 C 2250.55 -6.9454 2.18503 0
M  V30 16785 H 2250.59 -7.23063 1.12091 0
M  V30 16786 H 2251.77 -5.6025 3.37201 0
M  V30 16787 H 2253.25 -7.35707 4.02681 0
M  V30 16788 H 2251.56 -9.40912 3.9095 0
M  V30 16789 H 2251.37 -8.29056 5.99158 0
M  V30 16790 H 2249.74 -8.10073 5.25882 0
M  V30 16791 H 2252.38 -6.30324 0.726794 0
M  V30 16792 P 2254.24 -8.4349 2.47671 0
M  V30 16793 O 2255.66 -8.94167 2.5964 0
M  V30 16794 O 2253.88 -7.1704 3.19006 0
M  V30 16795 O 2253.91 -8.16596 0.923387 0
M  V30 16796 C 2253.75 -9.38437 0.108857 0
M  V30 16797 C 2254.29 -9.08175 -1.28353 0
M  V30 16798 O 2253.24 -8.44229 -1.84713 0
M  V30 16799 C 2255.51 -8.18386 -1.42505 0
M  V30 16800 O 2256.25 -8.3501 -2.60497 0
M  V30 16801 C 2254.84 -6.80225 -1.25468 0
M  V30 16802 O 2255.64 -5.81621 -1.91066 0
M  V30 16803 C 2253.5 -7.02416 -1.9168 0
M  V30 16804 H 2253.54 -6.6888 -2.96621 0
M  V30 16805 H 2254.72 -6.53617 -0.192223 0
M  V30 16806 H 2256.2 -8.36622 -0.589963 0
M  V30 16807 H 2254.51 -10.0291 -1.79807 0
M  V30 16808 H 2254.32 -10.2138 0.558219 0
M  V30 16809 H 2252.69 -9.6579 0.0444202 0
M  V30 16810 H 2255.33 -5.69556 -2.79637 0
M  V30 16811 P 2257.19 -8.4349 -2.47671 0
M  V30 16812 O 2258.61 -8.92689 -2.65029 0
M  V30 16813 O 2256.83 -7.7568 -1.19296 0
M  V30 16814 O 2256.86 -7.36886 -3.63805 0
M  V30 16815 C 2256.7 -7.95433 -4.98253 0
M  V30 16816 C 2257.24 -6.94612 -5.98974 0
M  V30 16817 O 2256.19 -6.10277 -6.11744 0
M  V30 16818 C 2258.46 -6.11426 -5.62335 0
M  V30 16819 O 2259.2 -5.6162 -6.70584 0
M  V30 16820 C 2257.79 -5.04409 -4.73308 0
M  V30 16821 O 2258.59 -3.86404 -4.74719 0
M  V30 16822 C 2256.46 -4.8728 -5.41006 0
M  V30 16823 N 2255.41 -4.65812 -4.42377 0
M  V30 16824 C 2255.58 -5.09132 -3.15382 0
M  V30 16825 N 2254.55 -4.84021 -2.3716 0
M  V30 16826 C 2253.67 -4.18386 -3.20441 0
M  V30 16827 C 2252.4 -3.6275 -2.94905 0
M  V30 16828 N 2251.8 -3.65794 -1.73372 0
M  V30 16829 N 2251.84 -3.05008 -4.05243 0
M  V30 16830 C 2252.44 -2.98348 -5.28159 0
M  V30 16831 N 2253.62 -3.48171 -5.56333 0
M  V30 16832 C 2254.19 -4.06869 -4.47212 0
M  V30 16833 H 2256.49 -4.02278 -6.11074 0
M  V30 16834 H 2257.67 -5.39013 -3.70026 0
M  V30 16835 H 2259.15 -6.71916 -5.01943 0
M  V30 16836 H 2257.46 -7.45796 -6.94223 0
M  V30 16837 H 2257.27 -8.89416 -5.05237 0
M  V30 16838 H 2255.64 -8.14876 -5.18409 0
M  V30 16839 H 2251.9 -2.47853 -6.07807 0
M  V30 16840 H 2256.48 -5.59989 -2.81362 0
M  V30 16841 H 2250.87 -3.23218 -1.60782 0
M  V30 16842 H 2252.28 -4.10523 -0.937856 0
M  V30 16843 H 2258.28 -3.27906 -5.43085 0
M  V30 16844 P 2260.14 -5.75688 -6.64379 0
M  V30 16845 O 2261.56 -6.07627 -7.05504 0
M  V30 16846 O 2259.78 -5.88047 -5.19722 0
M  V30 16847 O 2259.81 -4.2322 -7.04443 0
M  V30 16848 C 2259.65 -3.99743 -8.4911 0
M  V30 16849 C 2260.19 -2.60516 -8.79425 0
M  V30 16850 O 2259.14 -1.82684 -8.4467 0
M  V30 16851 C 2261.41 -2.10343 -8.03628 0
M  V30 16852 O 2262.15 -1.09919 -8.67766 0
M  V30 16853 C 2260.74 -1.68446 -6.70876 0
M  V30 16854 O 2261.54 -0.678137 -6.08433 0
M  V30 16855 C 2259.41 -1.17436 -7.18567 0
M  V30 16856 H 2259.44 -0.0804732 -7.31656 0
M  V30 16857 H 2260.62 -2.54037 -6.02537 0
M  V30 16858 H 2262.1 -2.93881 -7.85526 0
M  V30 16859 H 2260.41 -2.53065 -9.86973 0
M  V30 16860 H 2260.22 -4.75072 -9.05887 0
M  V30 16861 H 2258.59 -4.05244 -8.76668 0
M  V30 16862 H 2261.23 0.177647 -6.34251 0
M  V30 16863 P 2263.09 -1.25109 -8.70152 0
M  V30 16864 O 2264.51 -1.29744 -9.22016 0
M  V30 16865 O 2262.73 -2.13714 -7.55141 0
M  V30 16866 O 2262.76 0.248149 -8.21425 0
M  V30 16867 C 2262.6 1.22779 -9.30434 0
M  V30 16868 C 2263.14 2.56293 -8.80664 0
M  V30 16869 O 2262.09 3.02979 -8.09349 0
M  V30 16870 C 2264.36 2.57523 -7.89775 0
M  V30 16871 O 2265.1 3.7668 -7.89438 0
M  V30 16872 C 2263.69 2.20997 -6.55446 0
M  V30 16873 O 2264.49 2.71895 -5.48509 0
M  V30 16874 C 2262.36 2.89693 -6.67988 0
M  V30 16875 H 2262.39 3.88793 -6.19859 0
M  V30 16876 H 2263.57 1.12046 -6.44229 0
M  V30 16877 H 2265.06 1.7746 -8.19711 0
M  V30 16878 H 2263.36 3.20706 -9.67112 0
M  V30 16879 H 2263.17 0.901032 -10.1892 0
M  V30 16880 H 2261.54 1.33049 -9.56592 0
M  V30 16881 H 2264.18 3.57847 -5.23962 0
M  V30 16882 P 2266.04 3.65191 -7.99657 0
M  V30 16883 O 2267.46 3.89332 -8.45794 0
M  V30 16884 O 2265.68 2.28472 -7.50807 0
M  V30 16885 O 2265.71 4.64972 -6.77611 0
M  V30 16886 C 2265.55 6.06319 -7.16352 0
M  V30 16887 C 2266.09 6.91731 -6.02299 0
M  V30 16888 O 2265.04 6.92449 -5.17064 0
M  V30 16889 C 2267.31 6.43627 -5.25174 0
M  V30 16890 O 2268.05 7.43686 -4.60469 0
M  V30 16891 C 2266.64 5.40275 -4.31916 0
M  V30 16892 O 2267.44 5.25279 -3.14438 0
M  V30 16893 C 2265.31 6.04847 -4.05327 0
M  V30 16894 H 2265.34 6.62195 -3.11261 0
M  V30 16895 H 2266.52 4.42556 -4.81383 0
M  V30 16896 H 2268.01 5.92458 -5.93643 0
M  V30 16897 H 2266.31 7.92655 -6.402 0
M  V30 16898 H 2266.12 6.26671 -8.0846 0
M  V30 16899 H 2264.49 6.29101 -7.32804 0
M  V30 16900 H 2267.13 5.84315 -2.47318 0
M  V30 16901 P 2268.99 7.39546 -4.75277 0
M  V30 16902 O 2270.41 7.84798 -5.01039 0
M  V30 16903 O 2268.63 5.9812 -5.08098 0
M  V30 16904 O 2268.67 7.57503 -3.1866 0
M  V30 16905 C 2268.51 8.97357 -2.74833 0
M  V30 16906 C 2269.05 9.07548 -1.32709 0
M  V30 16907 O 2267.99 8.62072 -0.606159 0
M  V30 16908 C 2270.26 8.25383 -0.938334 0
M  V30 16909 O 2271 8.74577 0.146954 0
M  V30 16910 C 2269.59 6.8802 -0.712559 0
M  V30 16911 O 2270.39 6.1189 0.194655 0
M  V30 16912 C 2268.26 7.27966 -0.139777 0
M  V30 16913 H 2268.29 7.25354 0.961601 0
M  V30 16914 H 2269.47 6.32557 -1.65702 0
M  V30 16915 H 2270.96 8.19355 -1.79097 0
M  V30 16916 H 2269.26 10.1294 -1.10029 0
M  V30 16917 H 2269.07 9.64276 -3.41316 0
M  V30 16918 H 2267.44 9.25417 -2.76357 0
M  V30 16919 H 2270.08 6.25267 1.07847 0
M  V30 16920 P 2271.94 8.791 1.97128e-11 0
M  V30 16921 O 2273.36 9.31096 0.027933 0
M  V30 16922 O 2271.58 7.77869 -1.04071 0
M  V30 16923 O 2271.62 8.09533 1.41463 0
M  V30 16924 C 2271.46 9.0349 2.53943 0
M  V30 16925 C 2272 8.35226 3.79016 0
M  V30 16926 O 2270.94 7.57992 4.15078 0
M  V30 16927 C 2273.21 7.45087 3.67298 0
M  V30 16928 O 2273.95 7.27796 4.85194 0
M  V30 16929 C 2272.54 6.17323 3.12027 0
M  V30 16930 O 2273.34 5.04231 3.47188 0
M  V30 16931 C 2271.21 6.19961 3.81809 0
M  V30 16932 H 2271.24 5.58218 4.73051 0
M  V30 16933 H 2272.42 6.21726 2.02589 0
M  V30 16934 H 2273.91 7.86112 2.9231 0
M  V30 16935 H 2272.21 9.11627 4.55076 0
M  V30 16936 H 2272.02 9.9573 2.34194 0
M  V30 16937 H 2270.39 9.2792 2.67832 0
M  V30 16938 H 2273.03 4.67702 4.28772 0
M  V30 16939 P 2274.89 7.39546 4.75277 0
M  V30 16940 O 2276.31 7.81777 5.05738 0
M  V30 16941 O 2274.53 7.1065 3.32998 0
M  V30 16942 O 2274.57 6.04542 5.56673 0
M  V30 16943 C 2274.41 6.22772 7.02095 0
M  V30 16944 C 2274.95 4.97725 7.70406 0
M  V30 16945 O 2273.89 4.13256 7.58987 0
M  V30 16946 C 2276.16 4.28231 7.11815 0
M  V30 16947 O 2276.9 3.49945 8.01648 0
M  V30 16948 C 2275.5 3.5063 5.96244 0
M  V30 16949 O 2276.29 2.36482 5.64681 0
M  V30 16950 C 2274.16 3.15122 6.56374 0
M  V30 16951 H 2274.19 2.13853 6.99751 0
M  V30 16952 H 2275.37 4.13501 5.06559 0
M  V30 16953 H 2276.86 5.03285 6.70911 0
M  V30 16954 H 2275.16 5.20877 8.75697 0
M  V30 16955 H 2274.97 7.11046 7.35349 0
M  V30 16956 H 2273.34 6.35815 7.26986 0
M  V30 16957 H 2275.98 1.61644 6.13565 0
M  V30 16958 P 2277.84 3.65191 7.99657 0
M  V30 16959 O 2279.26 3.8425 8.48115 0
M  V30 16960 O 2277.48 4.17805 6.64342 0
M  V30 16961 O 2277.52 2.07613 7.95143 0
M  V30 16962 C 2277.36 1.44328 9.27336 0
M  V30 16963 C 2277.9 0.0220036 9.17197 0
M  V30 16964 O 2276.84 -0.626867 8.61923 0
M  V30 16965 C 2279.12 -0.24586 8.30336 0
M  V30 16966 O 2279.85 -1.39011 8.63583 0
M  V30 16967 C 2278.45 -0.273849 6.91158 0
M  V30 16968 O 2279.25 -1.06348 6.02892 0
M  V30 16969 C 2277.11 -0.897649 7.22545 0
M  V30 16970 H 2277.14 -1.9841 7.04286 0
M  V30 16971 H 2278.32 0.739928 6.497 0
M  V30 16972 H 2279.81 0.60668 8.36503 0
M  V30 16973 H 2278.11 -0.352479 10.1829 0
M  V30 16974 H 2277.92 2.00611 10.0304 0
M  V30 16975 H 2276.29 1.41843 9.55327 0
M  V30 16976 H 2278.93 -1.95734 6.03555 0
M  V30 16977 P 2280.79 -1.25109 8.70152 0
M  V30 16978 O 2282.21 -1.35274 9.21221 0
M  V30 16979 O 2280.43 -0.0769065 7.84762 0
M  V30 16980 O 2280.47 -2.55232 7.81161 0
M  V30 16981 C 2280.31 -3.79939 8.58154 0
M  V30 16982 C 2280.85 -4.94023 7.72785 0
M  V30 16983 O 2279.79 -5.18726 6.91205 0
M  V30 16984 C 2282.07 -4.69597 6.85231 0
M  V30 16985 O 2282.8 -5.83832 6.51337 0
M  V30 16986 C 2281.4 -3.96706 5.66633 0
M  V30 16987 O 2282.2 -4.15414 4.49689 0
M  V30 16988 C 2280.06 -4.66153 5.59313 0
M  V30 16989 H 2280.09 -5.47679 4.85214 0
M  V30 16990 H 2281.27 -2.89008 5.86566 0
M  V30 16991 H 2282.76 -4.0121 7.36511 0
M  V30 16992 H 2281.06 -5.80182 8.37584 0
M  V30 16993 H 2280.87 -3.73517 9.52265 0
M  V30 16994 H 2279.24 -3.97163 8.80359 0
M  V30 16995 H 2281.88 -4.90969 4.01921 0
M  V30 16996 P 2283.74 -5.75688 6.64379 0
M  V30 16997 O 2285.16 -6.11849 7.01846 0
M  V30 16998 O 2283.38 -4.30744 6.56026 0
M  V30 16999 O 2283.42 -6.37042 5.19165 0
M  V30 17000 C 2283.26 -7.83578 5.16515 0
M  V30 17001 C 2283.8 -8.33398 3.83019 0
M  V30 17002 O 2282.74 -8.10074 3.01034 0
M  V30 17003 C 2285.02 -7.65514 3.2257 0
M  V30 17004 O 2285.75 -8.4329 2.32297 0
M  V30 17005 C 2284.35 -6.40075 2.62207 0
M  V30 17006 O 2285.15 -5.92589 1.53712 0
M  V30 17007 C 2283.01 -6.9454 2.18503 0
M  V30 17008 H 2283.04 -7.23063 1.12091 0
M  V30 17009 H 2284.23 -5.6025 3.37201 0
M  V30 17010 H 2285.71 -7.35707 4.02681 0
M  V30 17011 H 2284.02 -9.40912 3.9095 0
M  V30 17012 H 2283.83 -8.29056 5.99158 0
M  V30 17013 H 2282.2 -8.10073 5.25882 0
M  V30 17014 H 2284.83 -6.30324 0.726794 0
M  V30 17015 P 2286.69 -8.4349 2.47671 0
M  V30 17016 O 2288.11 -8.94167 2.5964 0
M  V30 17017 O 2286.33 -7.1704 3.19006 0
M  V30 17018 O 2286.37 -8.16596 0.923387 0
M  V30 17019 C 2286.21 -9.38437 0.108857 0
M  V30 17020 C 2286.75 -9.08175 -1.28353 0
M  V30 17021 O 2285.69 -8.44229 -1.84713 0
M  V30 17022 C 2287.97 -8.18386 -1.42505 0
M  V30 17023 O 2288.7 -8.3501 -2.60497 0
M  V30 17024 C 2287.3 -6.80225 -1.25468 0
M  V30 17025 O 2288.1 -5.81621 -1.91066 0
M  V30 17026 C 2285.96 -7.02416 -1.9168 0
M  V30 17027 H 2285.99 -6.6888 -2.96621 0
M  V30 17028 H 2287.18 -6.53617 -0.192223 0
M  V30 17029 H 2288.66 -8.36622 -0.589963 0
M  V30 17030 H 2286.97 -10.0291 -1.79807 0
M  V30 17031 H 2286.78 -10.2138 0.558219 0
M  V30 17032 H 2285.15 -9.6579 0.0444202 0
M  V30 17033 H 2287.78 -5.69556 -2.79637 0
M  V30 17034 P 2289.64 -8.4349 -2.47671 0
M  V30 17035 O 2291.06 -8.92593 -2.65 0
M  V30 17036 O 2289.28 -7.7568 -1.19296 0
M  V30 17037 O 2289.32 -7.36886 -3.63805 0
M  V30 17038 C 2289.16 -7.95349 -4.982 0
M  V30 17039 C 2289.7 -6.94612 -5.98974 0
M  V30 17040 O 2288.64 -6.10347 -6.11815 0
M  V30 17041 C 2290.92 -6.11426 -5.62335 0
M  V30 17042 O 2291.66 -5.6162 -6.70584 0
M  V30 17043 C 2290.25 -5.04409 -4.73308 0
M  V30 17044 O 2291.05 -3.85992 -4.75183 0
M  V30 17045 C 2288.91 -4.8728 -5.41006 0
M  V30 17046 H 2288.94 -4.02333 -6.11157 0
M  V30 17047 H 2290.13 -5.39466 -3.69543 0
M  V30 17048 H 2291.61 -6.71916 -5.01943 0
M  V30 17049 H 2289.92 -7.4649 -6.93477 0
M  V30 17050 H 2289.73 -8.89416 -5.05237 0
M  V30 17051 H 2288.1 -8.14876 -5.18409 0
M  V30 17052 H 2290.74 -3.27957 -5.4317 0
M  V30 17053 P 2292.59 -5.75688 -6.64379 0
M  V30 17054 O 2294.01 -6.07627 -7.05504 0
M  V30 17055 O 2292.23 -5.88047 -5.19722 0
M  V30 17056 O 2292.27 -4.2322 -7.04443 0
M  V30 17057 C 2292.11 -3.99743 -8.4911 0
M  V30 17058 C 2292.65 -2.60516 -8.79425 0
M  V30 17059 O 2291.59 -1.82684 -8.4467 0
M  V30 17060 C 2293.87 -2.10343 -8.03628 0
M  V30 17061 O 2294.61 -1.09919 -8.67766 0
M  V30 17062 C 2293.2 -1.68446 -6.70876 0
M  V30 17063 O 2294 -0.678137 -6.08433 0
M  V30 17064 C 2291.86 -1.17436 -7.18567 0
M  V30 17065 H 2291.89 -0.0804732 -7.31656 0
M  V30 17066 H 2293.08 -2.54037 -6.02537 0
M  V30 17067 H 2294.56 -2.93881 -7.85526 0
M  V30 17068 H 2292.87 -2.53065 -9.86973 0
M  V30 17069 H 2292.68 -4.75072 -9.05887 0
M  V30 17070 H 2291.05 -4.05244 -8.76668 0
M  V30 17071 H 2293.69 0.177647 -6.34251 0
M  V30 17072 P 2295.54 -1.25109 -8.70152 0
M  V30 17073 O 2296.97 -1.29744 -9.22016 0
M  V30 17074 O 2295.18 -2.13714 -7.55141 0
M  V30 17075 O 2295.22 0.248149 -8.21425 0
M  V30 17076 C 2295.06 1.22779 -9.30434 0
M  V30 17077 C 2295.6 2.56293 -8.80664 0
M  V30 17078 O 2294.54 3.02979 -8.09349 0
M  V30 17079 C 2296.82 2.57523 -7.89775 0
M  V30 17080 O 2297.56 3.7668 -7.89438 0
M  V30 17081 C 2296.15 2.20997 -6.55446 0
M  V30 17082 O 2296.95 2.71895 -5.48509 0
M  V30 17083 C 2294.81 2.89693 -6.67988 0
M  V30 17084 H 2294.84 3.88793 -6.19859 0
M  V30 17085 H 2296.03 1.12046 -6.44229 0
M  V30 17086 H 2297.51 1.7746 -8.19711 0
M  V30 17087 H 2295.82 3.20706 -9.67112 0
M  V30 17088 H 2295.63 0.901032 -10.1892 0
M  V30 17089 H 2294 1.33049 -9.56592 0
M  V30 17090 H 2296.64 3.57847 -5.23962 0
M  V30 17091 P 2298.49 3.65191 -7.99657 0
M  V30 17092 O 2299.92 3.89374 -8.45885 0
M  V30 17093 O 2298.13 2.28472 -7.50807 0
M  V30 17094 O 2298.17 4.64972 -6.77611 0
M  V30 17095 C 2298.01 6.06383 -7.16428 0
M  V30 17096 C 2298.55 6.91731 -6.02299 0
M  V30 17097 O 2297.5 6.92369 -5.17005 0
M  V30 17098 C 2299.77 6.43627 -5.25174 0
M  V30 17099 O 2300.51 7.43686 -4.60469 0
M  V30 17100 C 2299.1 5.40275 -4.31916 0
M  V30 17101 O 2299.9 5.24878 -3.14911 0
M  V30 17102 C 2297.76 6.04847 -4.05327 0
M  V30 17103 N 2296.72 5.04166 -3.98114 0
M  V30 17104 C 2296.89 3.84629 -4.59066 0
M  V30 17105 N 2295.86 3.0363 -4.45343 0
M  V30 17106 C 2294.98 3.76722 -3.68523 0
M  V30 17107 C 2293.71 3.43528 -3.17088 0
M  V30 17108 N 2293.11 2.23665 -3.37397 0
M  V30 17109 N 2293.15 4.44526 -2.44231 0
M  V30 17110 C 2293.75 5.65243 -2.20146 0
M  V30 17111 N 2294.92 6.00221 -2.65453 0
M  V30 17112 C 2295.5 5.00564 -3.39083 0
M  V30 17113 H 2297.8 6.62104 -3.11218 0
M  V30 17114 H 2298.98 4.42969 -4.80867 0
M  V30 17115 H 2300.46 5.92458 -5.93643 0
M  V30 17116 H 2298.77 7.93295 -6.39407 0
M  V30 17117 H 2298.58 6.26671 -8.0846 0
M  V30 17118 H 2296.95 6.29101 -7.32804 0
M  V30 17119 H 2293.21 6.36894 -1.5883 0
M  V30 17120 H 2297.79 3.58193 -5.14248 0
M  V30 17121 H 2292.18 2.05145 -2.97047 0
M  V30 17122 H 2293.59 1.51255 -3.92998 0
M  V30 17123 H 2299.59 5.84223 -2.47279 0
M  V30 17124 P 2301.44 7.39546 -4.75277 0
M  V30 17125 O 2302.87 7.84798 -5.01039 0
M  V30 17126 O 2301.08 5.9812 -5.08098 0
M  V30 17127 O 2301.12 7.57503 -3.1866 0
M  V30 17128 C 2300.96 8.97357 -2.74833 0
M  V30 17129 C 2301.5 9.07548 -1.32709 0
M  V30 17130 O 2300.45 8.62072 -0.606159 0
M  V30 17131 C 2302.72 8.25383 -0.938334 0
M  V30 17132 O 2303.46 8.74577 0.146954 0
M  V30 17133 C 2302.05 6.8802 -0.712559 0
M  V30 17134 O 2302.85 6.1189 0.194655 0
M  V30 17135 C 2300.71 7.27966 -0.139777 0
M  V30 17136 H 2300.75 7.25354 0.961601 0
M  V30 17137 H 2301.93 6.32557 -1.65702 0
M  V30 17138 H 2303.41 8.19355 -1.79097 0
M  V30 17139 H 2301.72 10.1294 -1.10029 0
M  V30 17140 H 2301.53 9.64276 -3.41316 0
M  V30 17141 H 2299.9 9.25417 -2.76357 0
M  V30 17142 H 2302.54 6.25267 1.07847 0
M  V30 17143 P 2304.4 8.791 2.00229e-11 0
M  V30 17144 O 2305.8 9.36698 -0.018734 0
M  V30 17145 O 2304.02 7.82499 -1.07878 0
M  V30 17146 O 2304.07 8.09434 1.41446 0
M  V30 17147 C 2303.91 9.0349 2.53943 0
M  V30 17148 C 2304.45 8.35135 3.78975 0
M  V30 17149 O 2303.4 7.57904 4.1503 0
M  V30 17150 C 2305.67 7.45087 3.67298 0
M  V30 17151 O 2306.41 7.27796 4.85194 0
M  V30 17152 C 2305 6.17323 3.12027 0
M  V30 17153 O 2305.8 5.04149 3.47132 0
M  V30 17154 C 2303.66 6.19961 3.81809 0
M  V30 17155 N 2302.62 5.71575 2.93223 0
M  V30 17156 C 2301.59 4.99452 3.47592 0
M  V30 17157 O 2301.63 4.7199 4.69732 0
M  V30 17158 N 2300.57 4.58505 2.6803 0
M  V30 17159 C 2300.62 4.85544 1.36995 0
M  V30 17160 N 2299.61 4.45052 0.609031 0
M  V30 17161 C 2301.72 5.55532 0.788532 0
M  V30 17162 C 2302.68 5.97426 1.60849 0
M  V30 17163 H 2303.7 5.58142 4.72986 0
M  V30 17164 H 2304.88 6.21428 2.0318 0
M  V30 17165 H 2306.36 7.85913 2.93131 0
M  V30 17166 H 2304.67 9.11171 4.55987 0
M  V30 17167 H 2304.48 9.9573 2.34194 0
M  V30 17168 H 2302.85 9.27824 2.67805 0
M  V30 17169 H 2301.77 5.7421 -0.281588 0
M  V30 17170 H 2303.53 6.53132 1.202 0
M  V30 17171 H 2298.82 3.94123 1.03159 0
M  V30 17172 H 2299.62 4.64377 -0.400352 0
M  V30 17173 H 2305.58 4.76386 4.34983 0
M  V30 17174 P 2307.35 7.39546 4.75277 0
M  V30 17175 O 2308.77 7.81861 5.05793 0
M  V30 17176 O 2306.99 7.1065 3.32998 0
M  V30 17177 O 2307.02 6.04542 5.56673 0
M  V30 17178 C 2306.86 6.22839 7.02169 0
M  V30 17179 C 2307.4 4.97725 7.70406 0
M  V30 17180 O 2306.35 4.13208 7.58899 0
M  V30 17181 C 2308.62 4.28231 7.11815 0
M  V30 17182 O 2309.36 3.49945 8.01648 0
M  V30 17183 C 2307.95 3.5063 5.96244 0
M  V30 17184 O 2308.75 2.37008 5.64352 0
M  V30 17185 C 2306.61 3.15122 6.56374 0
M  V30 17186 N 2305.57 3.22311 5.55692 0
M  V30 17187 C 2305.74 3.99655 4.46046 0
M  V30 17188 N 2304.71 3.97599 3.63918 0
M  V30 17189 C 2303.83 3.11159 4.25334 0
M  V30 17190 C 2302.56 2.64972 3.85157 0
M  V30 17191 N 2301.96 3.02132 2.69405 0
M  V30 17192 N 2302 1.78482 4.74759 0
M  V30 17193 C 2302.6 1.37463 5.90819 0
M  V30 17194 N 2303.78 1.7733 6.31889 0
M  V30 17195 C 2304.35 2.64393 5.43725 0
M  V30 17196 H 2306.65 2.13823 6.99656 0
M  V30 17197 H 2307.83 4.12931 5.06895 0
M  V30 17198 H 2309.31 5.03285 6.70911 0
M  V30 17199 H 2307.62 5.20001 8.76217 0
M  V30 17200 H 2307.43 7.11046 7.35349 0
M  V30 17201 H 2305.8 6.35815 7.26986 0
M  V30 17202 H 2302.06 0.66574 6.53015 0
M  V30 17203 H 2306.64 4.58037 4.27732 0
M  V30 17204 H 2301.03 2.64828 2.45331 0
M  V30 17205 H 2302.44 3.67472 2.05644 0
M  V30 17206 H 2308.44 1.61619 6.13468 0
M  V30 17207 P 2310.3 3.65191 7.99657 0
M  V30 17208 O 2311.72 3.8425 8.48115 0
M  V30 17209 O 2309.94 4.17805 6.64342 0
M  V30 17210 O 2309.97 2.07613 7.95143 0
M  V30 17211 C 2309.81 1.44328 9.27336 0
M  V30 17212 C 2310.35 0.0220036 9.17197 0
M  V30 17213 O 2309.3 -0.626867 8.61923 0
M  V30 17214 C 2311.57 -0.24586 8.30336 0
M  V30 17215 O 2312.31 -1.39011 8.63583 0
M  V30 17216 C 2310.9 -0.273849 6.91158 0
M  V30 17217 O 2311.7 -1.06348 6.02892 0
M  V30 17218 C 2309.57 -0.897649 7.22545 0
M  V30 17219 H 2309.6 -1.9841 7.04286 0
M  V30 17220 H 2310.78 0.739928 6.497 0
M  V30 17221 H 2312.26 0.60668 8.36503 0
M  V30 17222 H 2310.57 -0.352479 10.1829 0
M  V30 17223 H 2310.38 2.00611 10.0304 0
M  V30 17224 H 2308.75 1.41843 9.55327 0
M  V30 17225 H 2311.39 -1.95734 6.03555 0
M  V30 17226 P 2313.25 -1.25109 8.70152 0
M  V30 17227 O 2314.67 -1.35274 9.21221 0
M  V30 17228 O 2312.89 -0.0769065 7.84762 0
M  V30 17229 O 2312.92 -2.55232 7.81161 0
M  V30 17230 C 2312.76 -3.79939 8.58154 0
M  V30 17231 C 2313.3 -4.94023 7.72785 0
M  V30 17232 O 2312.25 -5.18726 6.91205 0
M  V30 17233 C 2314.52 -4.69597 6.85231 0
M  V30 17234 O 2315.26 -5.83832 6.51337 0
M  V30 17235 C 2313.85 -3.96706 5.66633 0
M  V30 17236 O 2314.65 -4.15414 4.49689 0
M  V30 17237 C 2312.52 -4.66153 5.59313 0
M  V30 17238 H 2312.55 -5.47679 4.85214 0
M  V30 17239 H 2313.73 -2.89008 5.86566 0
M  V30 17240 H 2315.21 -4.0121 7.36511 0
M  V30 17241 H 2313.52 -5.80182 8.37584 0
M  V30 17242 H 2313.33 -3.73517 9.52265 0
M  V30 17243 H 2311.7 -3.97163 8.80359 0
M  V30 17244 H 2314.34 -4.90969 4.01921 0
M  V30 17245 P 2316.2 -5.75688 6.64379 0
M  V30 17246 O 2317.62 -6.11849 7.01846 0
M  V30 17247 O 2315.84 -4.30744 6.56026 0
M  V30 17248 O 2315.87 -6.37042 5.19165 0
M  V30 17249 C 2315.71 -7.83578 5.16515 0
M  V30 17250 C 2316.25 -8.33398 3.83019 0
M  V30 17251 O 2315.2 -8.10074 3.01034 0
M  V30 17252 C 2317.47 -7.65514 3.2257 0
M  V30 17253 O 2318.21 -8.4329 2.32297 0
M  V30 17254 C 2316.8 -6.40075 2.62207 0
M  V30 17255 O 2317.6 -5.92589 1.53712 0
M  V30 17256 C 2315.47 -6.9454 2.18503 0
M  V30 17257 H 2315.5 -7.23063 1.12091 0
M  V30 17258 H 2316.68 -5.6025 3.37201 0
M  V30 17259 H 2318.17 -7.35707 4.02681 0
M  V30 17260 H 2316.47 -9.40912 3.9095 0
M  V30 17261 H 2316.28 -8.29056 5.99158 0
M  V30 17262 H 2314.65 -8.10073 5.25882 0
M  V30 17263 H 2317.29 -6.30324 0.726794 0
M  V30 17264 P 2319.15 -8.4349 2.47671 0
M  V30 17265 O 2320.57 -8.94167 2.5964 0
M  V30 17266 O 2318.79 -7.1704 3.19006 0
M  V30 17267 O 2318.83 -8.16596 0.923387 0
M  V30 17268 C 2318.67 -9.38437 0.108857 0
M  V30 17269 C 2319.21 -9.08175 -1.28353 0
M  V30 17270 O 2318.15 -8.44229 -1.84713 0
M  V30 17271 C 2320.42 -8.18386 -1.42505 0
M  V30 17272 O 2321.16 -8.3501 -2.60497 0
M  V30 17273 C 2319.75 -6.80225 -1.25468 0
M  V30 17274 O 2320.55 -5.81621 -1.91066 0
M  V30 17275 C 2318.42 -7.02416 -1.9168 0
M  V30 17276 H 2318.45 -6.6888 -2.96621 0
M  V30 17277 H 2319.63 -6.53617 -0.192223 0
M  V30 17278 H 2321.12 -8.36622 -0.589963 0
M  V30 17279 H 2319.42 -10.0291 -1.79807 0
M  V30 17280 H 2319.23 -10.2138 0.558219 0
M  V30 17281 H 2317.6 -9.6579 0.0444202 0
M  V30 17282 H 2320.24 -5.69556 -2.79637 0
M  V30 17283 P 2322.1 -8.4349 -2.47671 0
M  V30 17284 O 2323.52 -8.92689 -2.65029 0
M  V30 17285 O 2321.74 -7.7568 -1.19296 0
M  V30 17286 O 2321.78 -7.36886 -3.63805 0
M  V30 17287 C 2321.61 -7.95433 -4.98253 0
M  V30 17288 C 2322.16 -6.94612 -5.98974 0
M  V30 17289 O 2321.1 -6.10277 -6.11744 0
M  V30 17290 C 2323.37 -6.11426 -5.62335 0
M  V30 17291 O 2324.11 -5.6162 -6.70584 0
M  V30 17292 C 2322.71 -5.04409 -4.73308 0
M  V30 17293 O 2323.5 -3.86404 -4.74719 0
M  V30 17294 C 2321.37 -4.8728 -5.41006 0
M  V30 17295 N 2320.32 -4.65812 -4.42377 0
M  V30 17296 C 2320.49 -5.09132 -3.15382 0
M  V30 17297 N 2319.47 -4.84021 -2.3716 0
M  V30 17298 C 2318.58 -4.18386 -3.20441 0
M  V30 17299 C 2317.31 -3.6275 -2.94905 0
M  V30 17300 N 2316.72 -3.65794 -1.73372 0
M  V30 17301 N 2316.75 -3.05008 -4.05243 0
M  V30 17302 C 2317.35 -2.98348 -5.28159 0
M  V30 17303 N 2318.53 -3.48171 -5.56333 0
M  V30 17304 C 2319.1 -4.06869 -4.47212 0
M  V30 17305 H 2321.4 -4.02278 -6.11074 0
M  V30 17306 H 2322.58 -5.39013 -3.70026 0
M  V30 17307 H 2324.07 -6.71916 -5.01943 0
M  V30 17308 H 2322.37 -7.45796 -6.94223 0
M  V30 17309 H 2322.18 -8.89416 -5.05237 0
M  V30 17310 H 2320.55 -8.14876 -5.18409 0
M  V30 17311 H 2316.82 -2.47853 -6.07807 0
M  V30 17312 H 2321.39 -5.59989 -2.81362 0
M  V30 17313 H 2315.79 -3.23218 -1.60782 0
M  V30 17314 H 2317.19 -4.10523 -0.937856 0
M  V30 17315 H 2323.19 -3.27906 -5.43085 0
M  V30 17316 P 2325.05 -5.75688 -6.64379 0
M  V30 17317 O 2326.47 -6.07692 -7.0558 0
M  V30 17318 O 2324.69 -5.88047 -5.19722 0
M  V30 17319 O 2324.73 -4.2322 -7.04443 0
M  V30 17320 C 2324.57 -3.99785 -8.49201 0
M  V30 17321 C 2325.11 -2.60516 -8.79425 0
M  V30 17322 O 2324.05 -1.82663 -8.44573 0
M  V30 17323 C 2326.32 -2.10343 -8.03628 0
M  V30 17324 O 2327.06 -1.09919 -8.67766 0
M  V30 17325 C 2325.66 -1.68446 -6.70876 0
M  V30 17326 O 2326.45 -0.684109 -6.08265 0
M  V30 17327 C 2324.32 -1.17436 -7.18567 0
M  V30 17328 N 2323.28 -1.52699 -6.23988 0
M  V30 17329 C 2323.44 -2.578 -5.40574 0
M  V30 17330 N 2322.42 -2.78966 -4.61193 0
M  V30 17331 C 2321.53 -1.78725 -4.95769 0
M  V30 17332 C 2320.27 -1.45727 -4.44207 0
M  V30 17333 N 2319.67 -2.13994 -3.43613 0
M  V30 17334 N 2319.7 -0.374977 -5.05812 0
M  V30 17335 C 2320.3 0.345585 -6.05615 0
M  V30 17336 N 2321.48 0.0787651 -6.56253 0
M  V30 17337 C 2322.05 -1.00499 -5.96189 0
M  V30 17338 H 2324.35 -0.0804622 -7.31556 0
M  V30 17339 H 2325.53 -2.53396 -6.02698 0
M  V30 17340 H 2327.02 -2.93881 -7.85526 0
M  V30 17341 H 2325.32 -2.52078 -9.87225 0
M  V30 17342 H 2325.13 -4.75072 -9.05887 0
M  V30 17343 H 2323.5 -4.05244 -8.76668 0
M  V30 17344 H 2319.77 1.20098 -6.4532 0
M  V30 17345 H 2324.34 -3.18977 -5.3945 0
M  V30 17346 H 2318.74 -1.84983 -3.10004 0
M  V30 17347 H 2320.14 -2.9465 -3.00843 0
M  V30 17348 H 2326.14 0.177619 -6.34151 0
M  V30 17349 P 2328 -1.25109 -8.70152 0
M  V30 17350 O 2329.42 -1.29744 -9.22016 0
M  V30 17351 O 2327.64 -2.13714 -7.55141 0
M  V30 17352 O 2327.68 0.248149 -8.21425 0
M  V30 17353 C 2327.52 1.22779 -9.30434 0
M  V30 17354 C 2328.06 2.56293 -8.80664 0
M  V30 17355 O 2327 3.02979 -8.09349 0
M  V30 17356 C 2329.27 2.57523 -7.89775 0
M  V30 17357 O 2330.01 3.7668 -7.89438 0
M  V30 17358 C 2328.61 2.20997 -6.55446 0
M  V30 17359 O 2329.4 2.71895 -5.48509 0
M  V30 17360 C 2327.27 2.89693 -6.67988 0
M  V30 17361 H 2327.3 3.88793 -6.19859 0
M  V30 17362 H 2328.48 1.12046 -6.44229 0
M  V30 17363 H 2329.97 1.7746 -8.19711 0
M  V30 17364 H 2328.27 3.20706 -9.67112 0
M  V30 17365 H 2328.08 0.901032 -10.1892 0
M  V30 17366 H 2326.45 1.33049 -9.56592 0
M  V30 17367 H 2329.09 3.57847 -5.23962 0
M  V30 17368 P 2330.95 3.65191 -7.99657 0
M  V30 17369 O 2332.37 3.89332 -8.45794 0
M  V30 17370 O 2330.59 2.28472 -7.50807 0
M  V30 17371 O 2330.63 4.64972 -6.77611 0
M  V30 17372 C 2330.47 6.06319 -7.16352 0
M  V30 17373 C 2331.01 6.91731 -6.02299 0
M  V30 17374 O 2329.95 6.92449 -5.17064 0
M  V30 17375 C 2332.23 6.43627 -5.25174 0
M  V30 17376 O 2332.96 7.43686 -4.60469 0
M  V30 17377 C 2331.56 5.40275 -4.31916 0
M  V30 17378 O 2332.36 5.25279 -3.14438 0
M  V30 17379 C 2330.22 6.04847 -4.05327 0
M  V30 17380 H 2330.25 6.62195 -3.11261 0
M  V30 17381 H 2331.43 4.42556 -4.81383 0
M  V30 17382 H 2332.92 5.92458 -5.93643 0
M  V30 17383 H 2331.22 7.92655 -6.402 0
M  V30 17384 H 2331.03 6.26671 -8.0846 0
M  V30 17385 H 2329.4 6.29101 -7.32804 0
M  V30 17386 H 2332.04 5.84315 -2.47318 0
M  V30 17387 P 2333.9 7.39546 -4.75277 0
M  V30 17388 O 2335.32 7.84882 -5.01092 0
M  V30 17389 O 2333.54 5.9812 -5.08098 0
M  V30 17390 O 2333.58 7.57503 -3.1866 0
M  V30 17391 C 2333.42 8.97452 -2.74862 0
M  V30 17392 C 2333.96 9.07548 -1.32709 0
M  V30 17393 O 2332.9 8.61972 -0.606089 0
M  V30 17394 C 2335.18 8.25383 -0.938334 0
M  V30 17395 O 2335.91 8.74577 0.146954 0
M  V30 17396 C 2334.51 6.8802 -0.712559 0
M  V30 17397 O 2335.31 6.1181 0.188505 0
M  V30 17398 C 2333.17 7.27966 -0.139777 0
M  V30 17399 N 2332.13 6.39368 -0.623421 0
M  V30 17400 C 2332.3 5.71761 -1.78245 0
M  V30 17401 N 2331.27 4.962 -2.10491 0
M  V30 17402 C 2330.38 5.16158 -1.0635 0
M  V30 17403 C 2329.12 4.60425 -0.810266 0
M  V30 17404 N 2328.52 3.7057 -1.62914 0
M  V30 17405 N 2328.55 5.06 0.348685 0
M  V30 17406 C 2329.15 5.94532 1.20395 0
M  V30 17407 N 2330.33 6.48452 1.01191 0
M  V30 17408 C 2330.91 6.04423 -0.146291 0
M  V30 17409 H 2333.2 7.25255 0.961469 0
M  V30 17410 H 2334.38 6.32625 -1.65044 0
M  V30 17411 H 2335.87 8.19355 -1.79097 0
M  V30 17412 H 2334.17 10.1305 -1.09016 0
M  V30 17413 H 2333.98 9.64276 -3.41316 0
M  V30 17414 H 2332.35 9.25417 -2.76357 0
M  V30 17415 H 2328.62 6.21659 2.10714 0
M  V30 17416 H 2333.2 5.79354 -2.38959 0
M  V30 17417 H 2327.59 3.33174 -1.38982 0
M  V30 17418 H 2328.99 3.39714 -2.48836 0
M  V30 17419 H 2334.99 6.25169 1.0783 0
M  V30 17420 P 2336.85 8.791 2.03331e-11 0
M  V30 17421 O 2338.27 9.31096 0.027933 0
M  V30 17422 O 2336.49 7.77869 -1.04071 0
M  V30 17423 O 2336.53 8.09533 1.41463 0
M  V30 17424 C 2336.37 9.0349 2.53943 0
M  V30 17425 C 2336.91 8.35226 3.79016 0
M  V30 17426 O 2335.85 7.57992 4.15078 0
M  V30 17427 C 2338.13 7.45087 3.67298 0
M  V30 17428 O 2338.86 7.27796 4.85194 0
M  V30 17429 C 2337.46 6.17323 3.12027 0
M  V30 17430 O 2338.26 5.04231 3.47188 0
M  V30 17431 C 2336.12 6.19961 3.81809 0
M  V30 17432 H 2336.15 5.58218 4.73051 0
M  V30 17433 H 2337.34 6.21726 2.02589 0
M  V30 17434 H 2338.82 7.86112 2.9231 0
M  V30 17435 H 2337.13 9.11627 4.55076 0
M  V30 17436 H 2336.94 9.9573 2.34194 0
M  V30 17437 H 2335.31 9.2792 2.67832 0
M  V30 17438 H 2337.94 4.67702 4.28772 0
M  V30 17439 P 2339.8 7.39546 4.75277 0
M  V30 17440 O 2341.22 7.81777 5.05738 0
M  V30 17441 O 2339.44 7.1065 3.32998 0
M  V30 17442 O 2339.48 6.04542 5.56673 0
M  V30 17443 C 2339.32 6.22772 7.02095 0
M  V30 17444 C 2339.86 4.97725 7.70406 0
M  V30 17445 O 2338.8 4.13256 7.58987 0
M  V30 17446 C 2341.08 4.28231 7.11815 0
M  V30 17447 O 2341.82 3.49945 8.01648 0
M  V30 17448 C 2340.41 3.5063 5.96244 0
M  V30 17449 O 2341.21 2.36482 5.64681 0
M  V30 17450 C 2339.07 3.15122 6.56374 0
M  V30 17451 H 2339.1 2.13853 6.99751 0
M  V30 17452 H 2340.29 4.13501 5.06559 0
M  V30 17453 H 2341.77 5.03285 6.70911 0
M  V30 17454 H 2340.08 5.20877 8.75697 0
M  V30 17455 H 2339.89 7.11046 7.35349 0
M  V30 17456 H 2338.26 6.35815 7.26986 0
M  V30 17457 H 2340.9 1.61644 6.13565 0
M  V30 17458 P 2342.75 3.65191 7.99657 0
M  V30 17459 O 2344.17 3.8425 8.48115 0
M  V30 17460 O 2342.39 4.17805 6.64342 0
M  V30 17461 O 2342.43 2.07613 7.95143 0
M  V30 17462 C 2342.27 1.44328 9.27336 0
M  V30 17463 C 2342.81 0.0220036 9.17197 0
M  V30 17464 O 2341.75 -0.626867 8.61923 0
M  V30 17465 C 2344.03 -0.24586 8.30336 0
M  V30 17466 O 2344.77 -1.39011 8.63583 0
M  V30 17467 C 2343.36 -0.273849 6.91158 0
M  V30 17468 O 2344.16 -1.06348 6.02892 0
M  V30 17469 C 2342.02 -0.897649 7.22545 0
M  V30 17470 H 2342.05 -1.9841 7.04286 0
M  V30 17471 H 2343.24 0.739928 6.497 0
M  V30 17472 H 2344.72 0.60668 8.36503 0
M  V30 17473 H 2343.03 -0.352479 10.1829 0
M  V30 17474 H 2342.84 2.00611 10.0304 0
M  V30 17475 H 2341.21 1.41843 9.55327 0
M  V30 17476 H 2343.85 -1.95734 6.03555 0
M  V30 17477 P 2345.7 -1.25109 8.70152 0
M  V30 17478 O 2347.13 -1.35274 9.21221 0
M  V30 17479 O 2345.34 -0.0769065 7.84762 0
M  V30 17480 O 2345.38 -2.55232 7.81161 0
M  V30 17481 C 2345.22 -3.79939 8.58154 0
M  V30 17482 C 2345.76 -4.94023 7.72785 0
M  V30 17483 O 2344.7 -5.18726 6.91205 0
M  V30 17484 C 2346.98 -4.69597 6.85231 0
M  V30 17485 O 2347.72 -5.83832 6.51337 0
M  V30 17486 C 2346.31 -3.96706 5.66633 0
M  V30 17487 O 2347.11 -4.15414 4.49689 0
M  V30 17488 C 2344.97 -4.66153 5.59313 0
M  V30 17489 H 2345 -5.47679 4.85214 0
M  V30 17490 H 2346.19 -2.89008 5.86566 0
M  V30 17491 H 2347.67 -4.0121 7.36511 0
M  V30 17492 H 2345.98 -5.80182 8.37584 0
M  V30 17493 H 2345.79 -3.73517 9.52265 0
M  V30 17494 H 2344.16 -3.97163 8.80359 0
M  V30 17495 H 2346.8 -4.90969 4.01921 0
M  V30 17496 P 2348.65 -5.75688 6.64379 0
M  V30 17497 O 2350.08 -6.11849 7.01846 0
M  V30 17498 O 2348.29 -4.30744 6.56026 0
M  V30 17499 O 2348.33 -6.37042 5.19165 0
M  V30 17500 C 2348.17 -7.83578 5.16515 0
M  V30 17501 C 2348.71 -8.33398 3.83019 0
M  V30 17502 O 2347.65 -8.10074 3.01034 0
M  V30 17503 C 2349.93 -7.65514 3.2257 0
M  V30 17504 O 2350.67 -8.4329 2.32297 0
M  V30 17505 C 2349.26 -6.40075 2.62207 0
M  V30 17506 O 2350.06 -5.92589 1.53712 0
M  V30 17507 C 2347.92 -6.9454 2.18503 0
M  V30 17508 H 2347.95 -7.23063 1.12091 0
M  V30 17509 H 2349.14 -5.6025 3.37201 0
M  V30 17510 H 2350.62 -7.35707 4.02681 0
M  V30 17511 H 2348.93 -9.40912 3.9095 0
M  V30 17512 H 2348.74 -8.29056 5.99158 0
M  V30 17513 H 2347.11 -8.10073 5.25882 0
M  V30 17514 H 2349.75 -6.30324 0.726794 0
M  V30 17515 P 2351.6 -8.4349 2.47671 0
M  V30 17516 O 2353.03 -8.94167 2.5964 0
M  V30 17517 O 2351.24 -7.1704 3.19006 0
M  V30 17518 O 2351.28 -8.16596 0.923387 0
M  V30 17519 C 2351.12 -9.38437 0.108857 0
M  V30 17520 C 2351.66 -9.08175 -1.28353 0
M  V30 17521 O 2350.61 -8.44229 -1.84713 0
M  V30 17522 C 2352.88 -8.18386 -1.42505 0
M  V30 17523 O 2353.62 -8.3501 -2.60497 0
M  V30 17524 C 2352.21 -6.80225 -1.25468 0
M  V30 17525 O 2353.01 -5.81621 -1.91066 0
M  V30 17526 C 2350.87 -7.02416 -1.9168 0
M  V30 17527 H 2350.91 -6.6888 -2.96621 0
M  V30 17528 H 2352.09 -6.53617 -0.192223 0
M  V30 17529 H 2353.57 -8.36622 -0.589963 0
M  V30 17530 H 2351.88 -10.0291 -1.79807 0
M  V30 17531 H 2351.69 -10.2138 0.558219 0
M  V30 17532 H 2350.06 -9.6579 0.0444202 0
M  V30 17533 H 2352.7 -5.69556 -2.79637 0
M  V30 17534 P 2354.55 -8.4349 -2.47671 0
M  V30 17535 O 2355.98 -8.92593 -2.65 0
M  V30 17536 O 2354.19 -7.7568 -1.19296 0
M  V30 17537 O 2354.23 -7.36886 -3.63805 0
M  V30 17538 C 2354.07 -7.95349 -4.982 0
M  V30 17539 C 2354.61 -6.94612 -5.98974 0
M  V30 17540 O 2353.56 -6.10347 -6.11815 0
M  V30 17541 C 2355.83 -6.11426 -5.62335 0
M  V30 17542 O 2356.57 -5.6162 -6.70584 0
M  V30 17543 C 2355.16 -5.04409 -4.73308 0
M  V30 17544 O 2355.96 -3.85992 -4.75183 0
M  V30 17545 C 2353.82 -4.8728 -5.41006 0
M  V30 17546 H 2353.86 -4.02333 -6.11157 0
M  V30 17547 H 2355.04 -5.39466 -3.69543 0
M  V30 17548 H 2356.52 -6.71916 -5.01943 0
M  V30 17549 H 2354.83 -7.4649 -6.93477 0
M  V30 17550 H 2354.64 -8.89416 -5.05237 0
M  V30 17551 H 2353.01 -8.14876 -5.18409 0
M  V30 17552 H 2355.65 -3.27957 -5.4317 0
M  V30 17553 P 2357.51 -5.75688 -6.64379 0
M  V30 17554 O 2358.93 -6.07627 -7.05504 0
M  V30 17555 O 2357.15 -5.88047 -5.19722 0
M  V30 17556 O 2357.18 -4.2322 -7.04443 0
M  V30 17557 C 2357.02 -3.99743 -8.4911 0
M  V30 17558 C 2357.56 -2.60516 -8.79425 0
M  V30 17559 O 2356.51 -1.82684 -8.4467 0
M  V30 17560 C 2358.78 -2.10343 -8.03628 0
M  V30 17561 O 2359.52 -1.09919 -8.67766 0
M  V30 17562 C 2358.11 -1.68446 -6.70876 0
M  V30 17563 O 2358.91 -0.678137 -6.08433 0
M  V30 17564 C 2356.77 -1.17436 -7.18567 0
M  V30 17565 H 2356.81 -0.0804732 -7.31656 0
M  V30 17566 H 2357.99 -2.54037 -6.02537 0
M  V30 17567 H 2359.47 -2.93881 -7.85526 0
M  V30 17568 H 2357.78 -2.53065 -9.86973 0
M  V30 17569 H 2357.59 -4.75072 -9.05887 0
M  V30 17570 H 2355.96 -4.05244 -8.76668 0
M  V30 17571 H 2358.6 0.177647 -6.34251 0
M  V30 17572 P 2360.46 -1.25109 -8.70152 0
M  V30 17573 O 2361.88 -1.29758 -9.22115 0
M  V30 17574 O 2360.1 -2.13714 -7.55141 0
M  V30 17575 O 2360.13 0.248149 -8.21425 0
M  V30 17576 C 2359.97 1.22792 -9.30533 0
M  V30 17577 C 2360.51 2.56293 -8.80664 0
M  V30 17578 O 2359.46 3.02944 -8.09255 0
M  V30 17579 C 2361.73 2.57523 -7.89775 0
M  V30 17580 O 2362.47 3.7668 -7.89438 0
M  V30 17581 C 2361.06 2.20997 -6.55446 0
M  V30 17582 O 2361.86 2.71302 -5.48691 0
M  V30 17583 C 2359.72 2.89693 -6.67988 0
M  V30 17584 N 2358.68 2.08895 -6.07487 0
M  V30 17585 C 2358.85 0.753809 -5.94137 0
M  V30 17586 N 2357.82 0.146592 -5.38801 0
M  V30 17587 C 2356.94 1.1768 -5.13693 0
M  V30 17588 C 2355.67 1.17563 -4.52477 0
M  V30 17589 N 2355.07 0.057481 -4.04759 0
M  V30 17590 N 2355.11 2.41918 -4.45789 0
M  V30 17591 C 2355.71 3.56493 -4.90792 0
M  V30 17592 N 2356.89 3.61423 -5.47817 0
M  V30 17593 C 2357.46 2.37779 -5.5588 0
M  V30 17594 H 2359.76 3.8874 -6.19774 0
M  V30 17595 H 2360.94 1.12673 -6.44018 0
M  V30 17596 H 2362.42 1.7746 -8.19711 0
M  V30 17597 H 2360.73 3.21673 -9.66791 0
M  V30 17598 H 2360.54 0.901032 -10.1892 0
M  V30 17599 H 2358.91 1.33049 -9.56592 0
M  V30 17600 H 2355.17 4.49919 -4.77947 0
M  V30 17601 H 2359.75 0.233081 -6.26266 0
M  V30 17602 H 2354.14 0.119831 -3.60801 0
M  V30 17603 H 2355.55 -0.852272 -4.12385 0
M  V30 17604 H 2361.55 3.5779 -5.23879 0
M  V30 17605 P 2363.41 3.65191 -7.99657 0
M  V30 17606 O 2364.83 3.89416 -8.45976 0
M  V30 17607 O 2363.05 2.28472 -7.50807 0
M  V30 17608 O 2363.08 4.64972 -6.77611 0
M  V30 17609 C 2362.92 6.06319 -7.16352 0
M  V30 17610 C 2363.46 6.91655 -6.02234 0
M  V30 17611 O 2362.41 6.92449 -5.17064 0
M  V30 17612 C 2364.68 6.43627 -5.25174 0
M  V30 17613 O 2365.42 7.43686 -4.60469 0
M  V30 17614 C 2364.01 5.40275 -4.31916 0
M  V30 17615 O 2364.81 5.25193 -3.14386 0
M  V30 17616 C 2362.68 6.04847 -4.05327 0
M  V30 17617 N 2361.63 5.04166 -3.98114 0
M  V30 17618 C 2361.69 3.96049 -4.75587 0
M  V30 17619 N 2360.65 3.15559 -4.54006 0
M  V30 17620 C 2359.92 3.78802 -3.62491 0
M  V30 17621 C 2358.61 3.476 -3.10071 0
M  V30 17622 O 2357.88 2.51136 -3.37021 0
M  V30 17623 N 2358.18 4.39088 -2.19956 0
M  V30 17624 C 2358.93 5.53215 -1.81733 0
M  V30 17625 N 2358.33 6.31963 -0.860928 0
M  V30 17626 N 2360.08 5.86688 -2.32562 0
M  V30 17627 C 2360.54 4.97525 -3.23407 0
M  V30 17628 H 2362.71 6.62195 -3.11261 0
M  V30 17629 H 2363.89 4.42488 -4.8131 0
M  V30 17630 H 2365.38 5.93051 -5.9305 0
M  V30 17631 H 2363.68 7.92655 -6.402 0
M  V30 17632 H 2363.49 6.26671 -8.0846 0
M  V30 17633 H 2361.86 6.29101 -7.32804 0
M  V30 17634 H 2357.28 4.25523 -1.77604 0
M  V30 17635 H 2362.49 3.75576 -5.47333 0
M  V30 17636 H 2357.42 6.04684 -0.468946 0
M  V30 17637 H 2358.8 7.18054 -0.542422 0
M  V30 17638 H 2364.5 5.84223 -2.47279 0
M  V30 17639 P 2366.36 7.39546 -4.75277 0
M  V30 17640 O 2367.78 7.84798 -5.01039 0
M  V30 17641 O 2366 5.9812 -5.08098 0
M  V30 17642 O 2366.03 7.57503 -3.1866 0
M  V30 17643 C 2365.87 8.97357 -2.74833 0
M  V30 17644 C 2366.41 9.07548 -1.32709 0
M  V30 17645 O 2365.36 8.62072 -0.606159 0
M  V30 17646 C 2367.63 8.25383 -0.938334 0
M  V30 17647 O 2368.37 8.74577 0.146954 0
M  V30 17648 C 2366.96 6.8802 -0.712559 0
M  V30 17649 O 2367.76 6.1189 0.194655 0
M  V30 17650 C 2365.63 7.27966 -0.139777 0
M  V30 17651 H 2365.66 7.25354 0.961601 0
M  V30 17652 H 2366.84 6.32557 -1.65702 0
M  V30 17653 H 2368.33 8.19355 -1.79097 0
M  V30 17654 H 2366.63 10.1294 -1.10029 0
M  V30 17655 H 2366.44 9.64276 -3.41316 0
M  V30 17656 H 2364.81 9.25417 -2.76357 0
M  V30 17657 H 2367.45 6.25267 1.07847 0
M  V30 17658 P 2369.31 8.791 2.06433e-11 0
M  V30 17659 O 2370.73 9.31196 0.027936 0
M  V30 17660 O 2368.95 7.77869 -1.04071 0
M  V30 17661 O 2368.98 8.09533 1.41463 0
M  V30 17662 C 2368.82 9.03587 2.5397 0
M  V30 17663 C 2369.36 8.35226 3.79016 0
M  V30 17664 O 2368.31 7.57904 4.1503 0
M  V30 17665 C 2370.58 7.45087 3.67298 0
M  V30 17666 O 2371.32 7.27796 4.85194 0
M  V30 17667 C 2369.91 6.17323 3.12027 0
M  V30 17668 O 2370.71 5.04496 3.46627 0
M  V30 17669 C 2368.58 6.19961 3.81809 0
M  V30 17670 N 2367.53 5.71575 2.93223 0
M  V30 17671 C 2367.7 5.77362 1.59168 0
M  V30 17672 N 2366.68 5.3123 0.911893 0
M  V30 17673 C 2365.79 4.91717 1.89588 0
M  V30 17674 C 2364.52 4.3114 1.8076 0
M  V30 17675 N 2363.92 3.99821 0.632928 0
M  V30 17676 N 2363.96 4.06823 3.02898 0
M  V30 17677 C 2364.56 4.35062 4.22711 0
M  V30 17678 N 2365.74 4.90805 4.35707 0
M  V30 17679 C 2366.31 5.16382 3.14469 0
M  V30 17680 H 2368.61 5.58142 4.72986 0
M  V30 17681 H 2369.79 6.21428 2.0318 0
M  V30 17682 H 2371.27 7.86112 2.9231 0
M  V30 17683 H 2369.58 9.11171 4.55987 0
M  V30 17684 H 2369.39 9.9573 2.34194 0
M  V30 17685 H 2367.76 9.2792 2.67832 0
M  V30 17686 H 2364.02 4.09052 5.13359 0
M  V30 17687 H 2368.6 6.16575 1.12198 0
M  V30 17688 H 2362.99 3.55423 0.632085 0
M  V30 17689 H 2364.4 4.20317 -0.256712 0
M  V30 17690 H 2370.4 4.67628 4.28704 0
M  V30 17691 P 2372.26 7.39546 4.75277 0
M  V30 17692 O 2373.68 7.81777 5.05738 0
M  V30 17693 O 2371.9 7.1065 3.32998 0
M  V30 17694 O 2371.94 6.04542 5.56673 0
M  V30 17695 C 2371.78 6.22772 7.02095 0
M  V30 17696 C 2372.32 4.97725 7.70406 0
M  V30 17697 O 2371.26 4.13256 7.58987 0
M  V30 17698 C 2373.53 4.28231 7.11815 0
M  V30 17699 O 2374.27 3.49945 8.01648 0
M  V30 17700 C 2372.86 3.5063 5.96244 0
M  V30 17701 O 2373.66 2.36482 5.64681 0
M  V30 17702 C 2371.53 3.15122 6.56374 0
M  V30 17703 H 2371.56 2.13853 6.99751 0
M  V30 17704 H 2372.74 4.13501 5.06559 0
M  V30 17705 H 2374.23 5.03285 6.70911 0
M  V30 17706 H 2372.53 5.20877 8.75697 0
M  V30 17707 H 2372.34 7.11046 7.35349 0
M  V30 17708 H 2370.71 6.35815 7.26986 0
M  V30 17709 H 2373.35 1.61644 6.13565 0
M  V30 17710 P 2375.21 3.65191 7.99657 0
M  V30 17711 O 2376.63 3.8425 8.48115 0
M  V30 17712 O 2374.85 4.17805 6.64342 0
M  V30 17713 O 2374.89 2.07613 7.95143 0
M  V30 17714 C 2374.73 1.44328 9.27336 0
M  V30 17715 C 2375.27 0.0220036 9.17197 0
M  V30 17716 O 2374.21 -0.626867 8.61923 0
M  V30 17717 C 2376.48 -0.24586 8.30336 0
M  V30 17718 O 2377.22 -1.39011 8.63583 0
M  V30 17719 C 2375.81 -0.273849 6.91158 0
M  V30 17720 O 2376.61 -1.06348 6.02892 0
M  V30 17721 C 2374.48 -0.897649 7.22545 0
M  V30 17722 H 2374.51 -1.9841 7.04286 0
M  V30 17723 H 2375.69 0.739928 6.497 0
M  V30 17724 H 2377.18 0.60668 8.36503 0
M  V30 17725 H 2375.48 -0.352479 10.1829 0
M  V30 17726 H 2375.29 2.00611 10.0304 0
M  V30 17727 H 2373.66 1.41843 9.55327 0
M  V30 17728 H 2376.3 -1.95734 6.03555 0
M  V30 17729 P 2378.16 -1.25109 8.70152 0
M  V30 17730 O 2379.58 -1.35274 9.21221 0
M  V30 17731 O 2377.8 -0.0769065 7.84762 0
M  V30 17732 O 2377.84 -2.55232 7.81161 0
M  V30 17733 C 2377.68 -3.79939 8.58154 0
M  V30 17734 C 2378.22 -4.94023 7.72785 0
M  V30 17735 O 2377.16 -5.18726 6.91205 0
M  V30 17736 C 2379.43 -4.69597 6.85231 0
M  V30 17737 O 2380.17 -5.83832 6.51337 0
M  V30 17738 C 2378.77 -3.96706 5.66633 0
M  V30 17739 O 2379.56 -4.15414 4.49689 0
M  V30 17740 C 2377.43 -4.66153 5.59313 0
M  V30 17741 H 2377.46 -5.47679 4.85214 0
M  V30 17742 H 2378.64 -2.89008 5.86566 0
M  V30 17743 H 2380.13 -4.0121 7.36511 0
M  V30 17744 H 2378.43 -5.80182 8.37584 0
M  V30 17745 H 2378.24 -3.73517 9.52265 0
M  V30 17746 H 2376.61 -3.97163 8.80359 0
M  V30 17747 H 2379.25 -4.90969 4.01921 0
M  V30 17748 P 2381.11 -5.75688 6.64379 0
M  V30 17749 O 2382.53 -6.11915 7.01921 0
M  V30 17750 O 2380.75 -4.30744 6.56026 0
M  V30 17751 O 2380.79 -6.37042 5.19165 0
M  V30 17752 C 2380.63 -7.83662 5.1657 0
M  V30 17753 C 2381.17 -8.33398 3.83019 0
M  V30 17754 O 2380.11 -8.0998 3.00999 0
M  V30 17755 C 2382.38 -7.65514 3.2257 0
M  V30 17756 O 2383.12 -8.4329 2.32297 0
M  V30 17757 C 2381.72 -6.40075 2.62207 0
M  V30 17758 O 2382.51 -5.92338 1.5428 0
M  V30 17759 C 2380.38 -6.9454 2.18503 0
M  V30 17760 N 2379.34 -5.95905 2.39948 0
M  V30 17761 C 2379.5 -4.98383 3.32108 0
M  V30 17762 N 2378.48 -4.16798 3.41761 0
M  V30 17763 C 2377.59 -4.65287 2.47461 0
M  V30 17764 C 2376.33 -4.18946 2.07461 0
M  V30 17765 N 2375.76 -4.95327 1.09101 0
M  V30 17766 C 2376.36 -6.04369 0.519812 0
M  V30 17767 N 2377.54 -6.50694 0.855982 0
M  V30 17768 C 2378.11 -5.75818 1.84322 0
M  V30 17769 H 2381.59 -5.60502 3.36589 0
M  V30 17770 H 2383.08 -7.35707 4.02681 0
M  V30 17771 H 2381.38 -9.41302 3.90009 0
M  V30 17772 H 2381.19 -8.29056 5.99158 0
M  V30 17773 H 2379.56 -8.10073 5.25882 0
M  V30 17774 H 2380.4 -4.88564 3.92502 0
M  V30 17775 H 2382.2 -6.30224 0.72668 0
M  V30 17776 P 2384.06 -8.4349 2.47671 0
M  V30 17777 O 2385.48 -8.94167 2.5964 0
M  V30 17778 O 2383.7 -7.1704 3.19006 0
M  V30 17779 O 2383.74 -8.16596 0.923387 0
M  V30 17780 C 2383.58 -9.38437 0.108857 0
M  V30 17781 C 2384.12 -9.08175 -1.28353 0
M  V30 17782 O 2383.06 -8.44229 -1.84713 0
M  V30 17783 C 2385.34 -8.18386 -1.42505 0
M  V30 17784 O 2386.07 -8.3501 -2.60497 0
M  V30 17785 C 2384.67 -6.80225 -1.25468 0
M  V30 17786 O 2385.47 -5.81621 -1.91066 0
M  V30 17787 C 2383.33 -7.02416 -1.9168 0
M  V30 17788 H 2383.36 -6.6888 -2.96621 0
M  V30 17789 H 2384.54 -6.53617 -0.192223 0
M  V30 17790 H 2386.03 -8.36622 -0.589963 0
M  V30 17791 H 2384.33 -10.0291 -1.79807 0
M  V30 17792 H 2384.14 -10.2138 0.558219 0
M  V30 17793 H 2382.51 -9.6579 0.0444202 0
M  V30 17794 H 2385.15 -5.69556 -2.79637 0
M  V30 17795 P 2387.01 -8.4349 -2.47671 0
M  V30 17796 O 2388.43 -8.92593 -2.65 0
M  V30 17797 O 2386.65 -7.7568 -1.19296 0
M  V30 17798 O 2386.69 -7.36886 -3.63805 0
M  V30 17799 C 2386.53 -7.95349 -4.982 0
M  V30 17800 C 2387.07 -6.94612 -5.98974 0
M  V30 17801 O 2386.01 -6.10347 -6.11815 0
M  V30 17802 C 2388.29 -6.11426 -5.62335 0
M  V30 17803 O 2389.02 -5.6162 -6.70584 0
M  V30 17804 C 2387.62 -5.04409 -4.73308 0
M  V30 17805 O 2388.42 -3.85992 -4.75183 0
M  V30 17806 C 2386.28 -4.8728 -5.41006 0
M  V30 17807 H 2386.31 -4.02333 -6.11157 0
M  V30 17808 H 2387.5 -5.39466 -3.69543 0
M  V30 17809 H 2388.98 -6.71916 -5.01943 0
M  V30 17810 H 2387.29 -7.4649 -6.93477 0
M  V30 17811 H 2387.1 -8.89416 -5.05237 0
M  V30 17812 H 2385.47 -8.14876 -5.18409 0
M  V30 17813 H 2388.1 -3.27957 -5.4317 0
M  V30 17814 P 2389.96 -5.75688 -6.64379 0
M  V30 17815 O 2391.36 -6.14823 -7.06682 0
M  V30 17816 O 2389.58 -5.93957 -5.20728 0
M  V30 17817 O 2389.64 -4.23169 -7.04357 0
M  V30 17818 C 2389.48 -3.99743 -8.4911 0
M  V30 17819 C 2390.02 -2.60487 -8.79329 0
M  V30 17820 O 2388.96 -1.82663 -8.44573 0
M  V30 17821 C 2391.24 -2.10343 -8.03628 0
M  V30 17822 O 2391.97 -1.09919 -8.67766 0
M  V30 17823 C 2390.57 -1.68446 -6.70876 0
M  V30 17824 O 2391.37 -0.678026 -6.08333 0
M  V30 17825 C 2389.23 -1.17436 -7.18567 0
M  V30 17826 N 2388.19 -1.52699 -6.23988 0
M  V30 17827 C 2387.15 -0.643793 -6.05085 0
M  V30 17828 O 2387.19 0.459118 -6.64315 0
M  V30 17829 N 2386.14 -0.976931 -5.22038 0
M  V30 17830 C 2386.19 -2.14429 -4.56662 0
M  V30 17831 N 2385.18 -2.4542 -3.76231 0
M  V30 17832 C 2387.28 -3.04203 -4.71481 0
M  V30 17833 C 2388.25 -2.69669 -5.56838 0
M  V30 17834 H 2389.26 -0.0804622 -7.31556 0
M  V30 17835 H 2390.45 -2.53396 -6.02698 0
M  V30 17836 H 2391.93 -2.9313 -7.85914 0
M  V30 17837 H 2390.24 -2.52078 -9.87225 0
M  V30 17838 H 2390.04 -4.75072 -9.05887 0
M  V30 17839 H 2388.41 -4.05202 -8.76577 0
M  V30 17840 H 2387.33 -3.97309 -4.15519 0
M  V30 17841 H 2389.1 -3.36869 -5.72318 0
M  V30 17842 H 2384.39 -1.80133 -3.65413 0
M  V30 17843 H 2385.18 -3.34359 -3.24736 0
M  V30 17844 H 2391.15 0.167718 -6.44882 0
M  V30 17845 P 2392.91 -1.25109 -8.70152 0
M  V30 17846 O 2394.33 -1.29758 -9.22115 0
M  V30 17847 O 2392.55 -2.13714 -7.55141 0
M  V30 17848 O 2392.59 0.248149 -8.21425 0
M  V30 17849 C 2392.43 1.22792 -9.30533 0
M  V30 17850 C 2392.97 2.56293 -8.80664 0
M  V30 17851 O 2391.91 3.02944 -8.09255 0
M  V30 17852 C 2394.19 2.57523 -7.89775 0
M  V30 17853 O 2394.93 3.7668 -7.89438 0
M  V30 17854 C 2393.52 2.20997 -6.55446 0
M  V30 17855 O 2394.32 2.71302 -5.48691 0
M  V30 17856 C 2392.18 2.89693 -6.67988 0
M  V30 17857 N 2391.14 2.08895 -6.07487 0
M  V30 17858 C 2391.31 0.753809 -5.94137 0
M  V30 17859 N 2390.28 0.146592 -5.38801 0
M  V30 17860 C 2389.4 1.1768 -5.13693 0
M  V30 17861 C 2388.13 1.17563 -4.52477 0
M  V30 17862 N 2387.53 0.057481 -4.04759 0
M  V30 17863 N 2387.56 2.41918 -4.45789 0
M  V30 17864 C 2388.17 3.56493 -4.90792 0
M  V30 17865 N 2389.34 3.61423 -5.47817 0
M  V30 17866 C 2389.92 2.37779 -5.5588 0
M  V30 17867 H 2392.21 3.8874 -6.19774 0
M  V30 17868 H 2393.4 1.12673 -6.44018 0
M  V30 17869 H 2394.88 1.7746 -8.19711 0
M  V30 17870 H 2393.19 3.21673 -9.66791 0
M  V30 17871 H 2393 0.901032 -10.1892 0
M  V30 17872 H 2391.37 1.33049 -9.56592 0
M  V30 17873 H 2387.63 4.49919 -4.77947 0
M  V30 17874 H 2392.21 0.233081 -6.26266 0
M  V30 17875 H 2386.6 0.119831 -3.60801 0
M  V30 17876 H 2388 -0.852272 -4.12385 0
M  V30 17877 H 2394.01 3.5779 -5.23879 0
M  V30 17878 P 2395.86 3.65191 -7.99657 0
M  V30 17879 O 2397.28 3.89332 -8.45794 0
M  V30 17880 O 2395.5 2.28472 -7.50807 0
M  V30 17881 O 2395.54 4.64972 -6.77611 0
M  V30 17882 C 2395.38 6.06319 -7.16352 0
M  V30 17883 C 2395.92 6.91731 -6.02299 0
M  V30 17884 O 2394.86 6.92449 -5.17064 0
M  V30 17885 C 2397.14 6.43627 -5.25174 0
M  V30 17886 O 2397.88 7.43686 -4.60469 0
M  V30 17887 C 2396.47 5.40275 -4.31916 0
M  V30 17888 O 2397.27 5.25279 -3.14438 0
M  V30 17889 C 2395.13 6.04847 -4.05327 0
M  V30 17890 H 2395.16 6.62195 -3.11261 0
M  V30 17891 H 2396.35 4.42556 -4.81383 0
M  V30 17892 H 2397.83 5.92458 -5.93643 0
M  V30 17893 H 2396.14 7.92655 -6.402 0
M  V30 17894 H 2395.95 6.26671 -8.0846 0
M  V30 17895 H 2394.32 6.29101 -7.32804 0
M  V30 17896 H 2396.96 5.84315 -2.47318 0
M  V30 17897 P 2398.81 7.39546 -4.75277 0
M  V30 17898 O 2400.21 7.86988 -5.07993 0
M  V30 17899 O 2398.44 5.99957 -5.13804 0
M  V30 17900 O 2398.49 7.57411 -3.18621 0
M  V30 17901 C 2398.33 8.97357 -2.74833 0
M  V30 17902 C 2398.87 9.0745 -1.32694 0
M  V30 17903 O 2397.81 8.61972 -0.606089 0
M  V30 17904 C 2400.09 8.25383 -0.938334 0
M  V30 17905 O 2400.83 8.74577 0.146954 0
M  V30 17906 C 2399.42 6.8802 -0.712559 0
M  V30 17907 O 2400.22 6.11791 0.194623 0
M  V30 17908 C 2398.08 7.27966 -0.139777 0
M  V30 17909 N 2397.04 6.39368 -0.623421 0
M  V30 17910 C 2396 6.08088 0.223886 0
M  V30 17911 O 2396.04 6.5102 1.39986 0
M  V30 17912 N 2394.99 5.30627 -0.224051 0
M  V30 17913 C 2395.04 4.82531 -1.47257 0
M  V30 17914 C 2396.14 5.09974 -2.34008 0
M  V30 17915 C 2397.1 5.89548 -1.87678 0
M  V30 17916 H 2398.11 7.25255 0.961469 0
M  V30 17917 H 2399.3 6.32625 -1.65044 0
M  V30 17918 H 2400.78 8.19631 -1.78299 0
M  V30 17919 H 2399.09 10.1305 -1.09016 0
M  V30 17920 H 2398.9 9.64276 -3.41316 0
M  V30 17921 H 2397.27 9.25321 -2.76328 0
M  V30 17922 H 2396.18 4.67832 -3.3413 0
M  V30 17923 H 2397.95 6.14434 -2.51991 0
M  V30 17924 H 2400 6.35931 1.08377 0
M  V30 17925 P 2401.76 8.791 2.09534e-11 0
M  V30 17926 O 2403.19 9.31096 0.027933 0
M  V30 17927 O 2401.4 7.77869 -1.04071 0
M  V30 17928 O 2401.44 8.09533 1.41463 0
M  V30 17929 C 2401.28 9.0349 2.53943 0
M  V30 17930 C 2401.82 8.35226 3.79016 0
M  V30 17931 O 2400.76 7.57992 4.15078 0
M  V30 17932 C 2403.04 7.45087 3.67298 0
M  V30 17933 O 2403.78 7.27796 4.85194 0
M  V30 17934 C 2402.37 6.17323 3.12027 0
M  V30 17935 O 2403.17 5.04231 3.47188 0
M  V30 17936 C 2401.03 6.19961 3.81809 0
M  V30 17937 H 2401.06 5.58218 4.73051 0
M  V30 17938 H 2402.25 6.21726 2.02589 0
M  V30 17939 H 2403.73 7.86112 2.9231 0
M  V30 17940 H 2402.04 9.11627 4.55076 0
M  V30 17941 H 2401.85 9.9573 2.34194 0
M  V30 17942 H 2400.22 9.2792 2.67832 0
M  V30 17943 H 2402.86 4.67702 4.28772 0
M  V30 17944 P 2404.71 7.39546 4.75277 0
M  V30 17945 O 2406.14 7.81777 5.05738 0
M  V30 17946 O 2404.35 7.1065 3.32998 0
M  V30 17947 O 2404.39 6.04542 5.56673 0
M  V30 17948 C 2404.23 6.22772 7.02095 0
M  V30 17949 C 2404.77 4.97725 7.70406 0
M  V30 17950 O 2403.72 4.13256 7.58987 0
M  V30 17951 C 2405.99 4.28231 7.11815 0
M  V30 17952 O 2406.73 3.49945 8.01648 0
M  V30 17953 C 2405.32 3.5063 5.96244 0
M  V30 17954 O 2406.12 2.36482 5.64681 0
M  V30 17955 C 2403.98 3.15122 6.56374 0
M  V30 17956 H 2404.02 2.13853 6.99751 0
M  V30 17957 H 2405.2 4.13501 5.06559 0
M  V30 17958 H 2406.68 5.03285 6.70911 0
M  V30 17959 H 2404.99 5.20877 8.75697 0
M  V30 17960 H 2404.8 7.11046 7.35349 0
M  V30 17961 H 2403.17 6.35815 7.26986 0
M  V30 17962 H 2405.81 1.61644 6.13565 0
M  V30 17963 P 2407.67 3.65191 7.99657 0
M  V30 17964 O 2409.09 3.8425 8.48115 0
M  V30 17965 O 2407.31 4.17805 6.64342 0
M  V30 17966 O 2407.34 2.07613 7.95143 0
M  V30 17967 C 2407.18 1.44328 9.27336 0
M  V30 17968 C 2407.72 0.0220036 9.17197 0
M  V30 17969 O 2406.67 -0.626867 8.61923 0
M  V30 17970 C 2408.94 -0.24586 8.30336 0
M  V30 17971 O 2409.68 -1.39011 8.63583 0
M  V30 17972 C 2408.27 -0.273849 6.91158 0
M  V30 17973 O 2409.07 -1.06348 6.02892 0
M  V30 17974 C 2406.93 -0.897649 7.22545 0
M  V30 17975 H 2406.97 -1.9841 7.04286 0
M  V30 17976 H 2408.15 0.739928 6.497 0
M  V30 17977 H 2409.63 0.60668 8.36503 0
M  V30 17978 H 2407.94 -0.352479 10.1829 0
M  V30 17979 H 2407.75 2.00611 10.0304 0
M  V30 17980 H 2406.12 1.41843 9.55327 0
M  V30 17981 H 2408.76 -1.95734 6.03555 0
M  V30 17982 P 2410.62 -1.25109 8.70152 0
M  V30 17983 O 2412.04 -1.35288 9.2132 0
M  V30 17984 O 2410.26 -0.0769065 7.84762 0
M  V30 17985 O 2410.29 -2.55232 7.81161 0
M  V30 17986 C 2410.13 -3.79979 8.58246 0
M  V30 17987 C 2410.67 -4.94023 7.72785 0
M  V30 17988 O 2409.62 -5.18666 6.91125 0
M  V30 17989 C 2411.89 -4.69597 6.85231 0
M  V30 17990 O 2412.63 -5.83832 6.51337 0
M  V30 17991 C 2411.22 -3.96706 5.66633 0
M  V30 17992 O 2412.02 -4.14896 4.5003 0
M  V30 17993 C 2409.88 -4.66153 5.59313 0
M  V30 17994 N 2408.84 -3.71582 5.24027 0
M  V30 17995 C 2409.01 -2.39715 5.48833 0
M  V30 17996 N 2407.98 -1.65863 5.12845 0
M  V30 17997 C 2407.1 -2.57637 4.5973 0
M  V30 17998 C 2405.83 -2.40278 4.01027 0
M  V30 17999 N 2405.23 -1.19549 3.86744 0
M  V30 18000 N 2405.27 -3.57711 3.59575 0
M  V30 18001 C 2405.87 -4.80324 3.70476 0
M  V30 18002 N 2407.05 -5.01121 4.23801 0
M  V30 18003 C 2407.62 -3.84757 4.66372 0
M  V30 18004 H 2409.92 -5.47604 4.85148 0
M  V30 18005 H 2411.1 -2.8955 5.86187 0
M  V30 18006 H 2412.58 -4.0121 7.36511 0
M  V30 18007 H 2410.89 -5.81019 8.37003 0
M  V30 18008 H 2410.7 -3.73517 9.52265 0
M  V30 18009 H 2409.07 -3.97163 8.80359 0
M  V30 18010 H 2405.33 -5.66348 3.3183 0
M  V30 18011 H 2409.91 -1.98804 5.94332 0
M  V30 18012 H 2404.3 -1.13147 3.4281 0
M  V30 18013 H 2405.71 -0.344074 4.19692 0
M  V30 18014 H 2411.71 -4.90891 4.01857 0
M  V30 18015 P 2413.57 -5.75688 6.64379 0
M  V30 18016 O 2414.99 -6.11849 7.01846 0
M  V30 18017 O 2413.21 -4.30744 6.56026 0
M  V30 18018 O 2413.24 -6.37042 5.19165 0
M  V30 18019 C 2413.08 -7.83578 5.16515 0
M  V30 18020 C 2413.62 -8.33398 3.83019 0
M  V30 18021 O 2412.57 -8.10074 3.01034 0
M  V30 18022 C 2414.84 -7.65514 3.2257 0
M  V30 18023 O 2415.58 -8.4329 2.32297 0
M  V30 18024 C 2414.17 -6.40075 2.62207 0
M  V30 18025 O 2414.97 -5.92589 1.53712 0
M  V30 18026 C 2412.84 -6.9454 2.18503 0
M  V30 18027 H 2412.87 -7.23063 1.12091 0
M  V30 18028 H 2414.05 -5.6025 3.37201 0
M  V30 18029 H 2415.53 -7.35707 4.02681 0
M  V30 18030 H 2413.84 -9.40912 3.9095 0
M  V30 18031 H 2413.65 -8.29056 5.99158 0
M  V30 18032 H 2412.02 -8.10073 5.25882 0
M  V30 18033 H 2414.66 -6.30324 0.726794 0
M  V30 18034 P 2416.52 -8.4349 2.47671 0
M  V30 18035 O 2417.94 -8.94167 2.5964 0
M  V30 18036 O 2416.16 -7.1704 3.19006 0
M  V30 18037 O 2416.19 -8.16596 0.923387 0
M  V30 18038 C 2416.03 -9.38437 0.108857 0
M  V30 18039 C 2416.57 -9.08175 -1.28353 0
M  V30 18040 O 2415.52 -8.44229 -1.84713 0
M  V30 18041 C 2417.79 -8.18386 -1.42505 0
M  V30 18042 O 2418.53 -8.3501 -2.60497 0
M  V30 18043 C 2417.12 -6.80225 -1.25468 0
M  V30 18044 O 2417.92 -5.81621 -1.91066 0
M  V30 18045 C 2415.79 -7.02416 -1.9168 0
M  V30 18046 H 2415.82 -6.6888 -2.96621 0
M  V30 18047 H 2417 -6.53617 -0.192223 0
M  V30 18048 H 2418.48 -8.36622 -0.589963 0
M  V30 18049 H 2416.79 -10.0291 -1.79807 0
M  V30 18050 H 2416.6 -10.2138 0.558219 0
M  V30 18051 H 2414.97 -9.6579 0.0444202 0
M  V30 18052 H 2417.61 -5.69556 -2.79637 0
M  V30 18053 P 2419.47 -8.4349 -2.47671 0
M  V30 18054 O 2420.89 -8.92593 -2.65 0
M  V30 18055 O 2419.11 -7.7568 -1.19296 0
M  V30 18056 O 2419.14 -7.36886 -3.63805 0
M  V30 18057 C 2418.98 -7.95349 -4.982 0
M  V30 18058 C 2419.52 -6.94612 -5.98974 0
M  V30 18059 O 2418.47 -6.10347 -6.11815 0
M  V30 18060 C 2420.74 -6.11426 -5.62335 0
M  V30 18061 O 2421.48 -5.6162 -6.70584 0
M  V30 18062 C 2420.07 -5.04409 -4.73308 0
M  V30 18063 O 2420.87 -3.85992 -4.75183 0
M  V30 18064 C 2418.74 -4.8728 -5.41006 0
M  V30 18065 H 2418.77 -4.02333 -6.11157 0
M  V30 18066 H 2419.95 -5.39466 -3.69543 0
M  V30 18067 H 2421.44 -6.71916 -5.01943 0
M  V30 18068 H 2419.74 -7.4649 -6.93477 0
M  V30 18069 H 2419.55 -8.89416 -5.05237 0
M  V30 18070 H 2417.92 -8.14876 -5.18409 0
M  V30 18071 H 2420.56 -3.27957 -5.4317 0
M  V30 18072 P 2422.42 -5.75688 -6.64379 0
M  V30 18073 O 2423.84 -6.07627 -7.05504 0
M  V30 18074 O 2422.06 -5.88047 -5.19722 0
M  V30 18075 O 2422.09 -4.2322 -7.04443 0
M  V30 18076 C 2421.93 -3.99743 -8.4911 0
M  V30 18077 C 2422.47 -2.60516 -8.79425 0
M  V30 18078 O 2421.42 -1.82684 -8.4467 0
M  V30 18079 C 2423.69 -2.10343 -8.03628 0
M  V30 18080 O 2424.43 -1.09919 -8.67766 0
M  V30 18081 C 2423.02 -1.68446 -6.70876 0
M  V30 18082 O 2423.82 -0.678137 -6.08433 0
M  V30 18083 C 2421.69 -1.17436 -7.18567 0
M  V30 18084 H 2421.72 -0.0804732 -7.31656 0
M  V30 18085 H 2422.9 -2.54037 -6.02537 0
M  V30 18086 H 2424.39 -2.93881 -7.85526 0
M  V30 18087 H 2422.69 -2.53065 -9.86973 0
M  V30 18088 H 2422.5 -4.75072 -9.05887 0
M  V30 18089 H 2420.87 -4.05244 -8.76668 0
M  V30 18090 H 2423.51 0.177647 -6.34251 0
M  V30 18091 P 2425.37 -1.25109 -8.70152 0
M  V30 18092 O 2426.79 -1.29744 -9.22016 0
M  V30 18093 O 2425.01 -2.13714 -7.55141 0
M  V30 18094 O 2425.05 0.248149 -8.21425 0
M  V30 18095 C 2424.89 1.22779 -9.30434 0
M  V30 18096 C 2425.43 2.56293 -8.80664 0
M  V30 18097 O 2424.37 3.02979 -8.09349 0
M  V30 18098 C 2426.64 2.57523 -7.89775 0
M  V30 18099 O 2427.38 3.7668 -7.89438 0
M  V30 18100 C 2425.97 2.20997 -6.55446 0
M  V30 18101 O 2426.77 2.71895 -5.48509 0
M  V30 18102 C 2424.64 2.89693 -6.67988 0
M  V30 18103 H 2424.67 3.88793 -6.19859 0
M  V30 18104 H 2425.85 1.12046 -6.44229 0
M  V30 18105 H 2427.34 1.7746 -8.19711 0
M  V30 18106 H 2425.64 3.20706 -9.67112 0
M  V30 18107 H 2425.45 0.901032 -10.1892 0
M  V30 18108 H 2423.82 1.33049 -9.56592 0
M  V30 18109 H 2426.46 3.57847 -5.23962 0
M  V30 18110 P 2428.32 3.65191 -7.99657 0
M  V30 18111 O 2429.74 3.89374 -8.45885 0
M  V30 18112 O 2427.96 2.28472 -7.50807 0
M  V30 18113 O 2428 4.64972 -6.77611 0
M  V30 18114 C 2427.84 6.06383 -7.16428 0
M  V30 18115 C 2428.38 6.91731 -6.02299 0
M  V30 18116 O 2427.32 6.92369 -5.17005 0
M  V30 18117 C 2429.59 6.43627 -5.25174 0
M  V30 18118 O 2430.33 7.43686 -4.60469 0
M  V30 18119 C 2428.93 5.40275 -4.31916 0
M  V30 18120 O 2429.72 5.24878 -3.14911 0
M  V30 18121 C 2427.59 6.04847 -4.05327 0
M  V30 18122 N 2426.55 5.04166 -3.98114 0
M  V30 18123 C 2426.71 3.84629 -4.59066 0
M  V30 18124 N 2425.69 3.0363 -4.45343 0
M  V30 18125 C 2424.8 3.76722 -3.68523 0
M  V30 18126 C 2423.54 3.43528 -3.17088 0
M  V30 18127 N 2422.94 2.23665 -3.37397 0
M  V30 18128 N 2422.97 4.44526 -2.44231 0
M  V30 18129 C 2423.57 5.65243 -2.20146 0
M  V30 18130 N 2424.75 6.00221 -2.65453 0
M  V30 18131 C 2425.32 5.00564 -3.39083 0
M  V30 18132 H 2427.62 6.62104 -3.11218 0
M  V30 18133 H 2428.8 4.42969 -4.80867 0
M  V30 18134 H 2430.29 5.92458 -5.93643 0
M  V30 18135 H 2428.59 7.93295 -6.39407 0
M  V30 18136 H 2428.4 6.26671 -8.0846 0
M  V30 18137 H 2426.77 6.29101 -7.32804 0
M  V30 18138 H 2423.04 6.36894 -1.5883 0
M  V30 18139 H 2427.61 3.58193 -5.14248 0
M  V30 18140 H 2422.01 2.05145 -2.97047 0
M  V30 18141 H 2423.41 1.51255 -3.92998 0
M  V30 18142 H 2429.41 5.84223 -2.47279 0
M  V30 18143 P 2431.27 7.39546 -4.75277 0
M  V30 18144 O 2432.69 7.84798 -5.01039 0
M  V30 18145 O 2430.91 5.9812 -5.08098 0
M  V30 18146 O 2430.95 7.57503 -3.1866 0
M  V30 18147 C 2430.79 8.97357 -2.74833 0
M  V30 18148 C 2431.33 9.07548 -1.32709 0
M  V30 18149 O 2430.27 8.62072 -0.606159 0
M  V30 18150 C 2432.54 8.25383 -0.938334 0
M  V30 18151 O 2433.28 8.74577 0.146954 0
M  V30 18152 C 2431.88 6.8802 -0.712559 0
M  V30 18153 O 2432.67 6.1189 0.194655 0
M  V30 18154 C 2430.54 7.27966 -0.139777 0
M  V30 18155 H 2430.57 7.25354 0.961601 0
M  V30 18156 H 2431.75 6.32557 -1.65702 0
M  V30 18157 H 2433.24 8.19355 -1.79097 0
M  V30 18158 H 2431.54 10.1294 -1.10029 0
M  V30 18159 H 2431.35 9.64276 -3.41316 0
M  V30 18160 H 2429.72 9.25417 -2.76357 0
M  V30 18161 H 2432.36 6.25267 1.07847 0
M  V30 18162 P 2434.22 8.791 2.12636e-11 0
M  V30 18163 O 2435.64 9.31096 0.027933 0
M  V30 18164 O 2433.86 7.77869 -1.04071 0
M  V30 18165 O 2433.9 8.09533 1.41463 0
M  V30 18166 C 2433.74 9.0349 2.53943 0
M  V30 18167 C 2434.28 8.35226 3.79016 0
M  V30 18168 O 2433.22 7.57992 4.15078 0
M  V30 18169 C 2435.5 7.45087 3.67298 0
M  V30 18170 O 2436.23 7.27796 4.85194 0
M  V30 18171 C 2434.83 6.17323 3.12027 0
M  V30 18172 O 2435.63 5.04231 3.47188 0
M  V30 18173 C 2433.49 6.19961 3.81809 0
M  V30 18174 H 2433.52 5.58218 4.73051 0
M  V30 18175 H 2434.7 6.21726 2.02589 0
M  V30 18176 H 2436.19 7.86112 2.9231 0
M  V30 18177 H 2434.49 9.11627 4.55076 0
M  V30 18178 H 2434.3 9.9573 2.34194 0
M  V30 18179 H 2432.67 9.2792 2.67832 0
M  V30 18180 H 2435.31 4.67702 4.28772 0
M  V30 18181 P 2437.17 7.39546 4.75277 0
M  V30 18182 O 2438.59 7.81861 5.05793 0
M  V30 18183 O 2436.81 7.1065 3.32998 0
M  V30 18184 O 2436.85 6.04542 5.56673 0
M  V30 18185 C 2436.69 6.22839 7.02169 0
M  V30 18186 C 2437.23 4.97725 7.70406 0
M  V30 18187 O 2436.17 4.13208 7.58899 0
M  V30 18188 C 2438.45 4.28231 7.11815 0
M  V30 18189 O 2439.18 3.49945 8.01648 0
M  V30 18190 C 2437.78 3.5063 5.96244 0
M  V30 18191 O 2438.58 2.37008 5.64352 0
M  V30 18192 C 2436.44 3.15122 6.56374 0
M  V30 18193 N 2435.4 3.22311 5.55692 0
M  V30 18194 C 2435.57 3.99655 4.46046 0
M  V30 18195 N 2434.54 3.97599 3.63918 0
M  V30 18196 C 2433.65 3.11159 4.25334 0
M  V30 18197 C 2432.39 2.64972 3.85157 0
M  V30 18198 N 2431.79 3.02132 2.69405 0
M  V30 18199 N 2431.82 1.78482 4.74759 0
M  V30 18200 C 2432.42 1.37463 5.90819 0
M  V30 18201 N 2433.6 1.7733 6.31889 0
M  V30 18202 C 2434.18 2.64393 5.43725 0
M  V30 18203 H 2436.47 2.13823 6.99656 0
M  V30 18204 H 2437.65 4.12931 5.06895 0
M  V30 18205 H 2439.14 5.03285 6.70911 0
M  V30 18206 H 2437.44 5.20001 8.76217 0
M  V30 18207 H 2437.25 7.11046 7.35349 0
M  V30 18208 H 2435.62 6.35815 7.26986 0
M  V30 18209 H 2431.89 0.66574 6.53015 0
M  V30 18210 H 2436.47 4.58037 4.27732 0
M  V30 18211 H 2430.86 2.64828 2.45331 0
M  V30 18212 H 2432.26 3.67472 2.05644 0
M  V30 18213 H 2438.26 1.61619 6.13468 0
M  V30 18214 P 2440.12 3.65191 7.99657 0
M  V30 18215 O 2441.54 3.8425 8.48115 0
M  V30 18216 O 2439.76 4.17805 6.64342 0
M  V30 18217 O 2439.8 2.07613 7.95143 0
M  V30 18218 C 2439.64 1.44328 9.27336 0
M  V30 18219 C 2440.18 0.0220036 9.17197 0
M  V30 18220 O 2439.12 -0.626867 8.61923 0
M  V30 18221 C 2441.4 -0.24586 8.30336 0
M  V30 18222 O 2442.13 -1.39011 8.63583 0
M  V30 18223 C 2440.73 -0.273849 6.91158 0
M  V30 18224 O 2441.53 -1.06348 6.02892 0
M  V30 18225 C 2439.39 -0.897649 7.22545 0
M  V30 18226 H 2439.42 -1.9841 7.04286 0
M  V30 18227 H 2440.61 0.739928 6.497 0
M  V30 18228 H 2442.09 0.60668 8.36503 0
M  V30 18229 H 2440.4 -0.352479 10.1829 0
M  V30 18230 H 2440.21 2.00611 10.0304 0
M  V30 18231 H 2438.58 1.41843 9.55327 0
M  V30 18232 H 2441.21 -1.95734 6.03555 0
M  V30 18233 P 2443.07 -1.25109 8.70152 0
M  V30 18234 O 2444.49 -1.35274 9.21221 0
M  V30 18235 O 2442.71 -0.0769065 7.84762 0
M  V30 18236 O 2442.75 -2.55232 7.81161 0
M  V30 18237 C 2442.59 -3.79939 8.58154 0
M  V30 18238 C 2443.13 -4.94023 7.72785 0
M  V30 18239 O 2442.07 -5.18726 6.91205 0
M  V30 18240 C 2444.35 -4.69597 6.85231 0
M  V30 18241 O 2445.08 -5.83832 6.51337 0
M  V30 18242 C 2443.68 -3.96706 5.66633 0
M  V30 18243 O 2444.48 -4.15414 4.49689 0
M  V30 18244 C 2442.34 -4.66153 5.59313 0
M  V30 18245 H 2442.37 -5.47679 4.85214 0
M  V30 18246 H 2443.56 -2.89008 5.86566 0
M  V30 18247 H 2445.04 -4.0121 7.36511 0
M  V30 18248 H 2443.35 -5.80182 8.37584 0
M  V30 18249 H 2443.16 -3.73517 9.52265 0
M  V30 18250 H 2441.53 -3.97163 8.80359 0
M  V30 18251 H 2444.16 -4.90969 4.01921 0
M  V30 18252 P 2446.02 -5.75688 6.64379 0
M  V30 18253 O 2447.44 -6.11849 7.01846 0
M  V30 18254 O 2445.66 -4.30744 6.56026 0
M  V30 18255 O 2445.7 -6.37042 5.19165 0
M  V30 18256 C 2445.54 -7.83578 5.16515 0
M  V30 18257 C 2446.08 -8.33398 3.83019 0
M  V30 18258 O 2445.02 -8.10074 3.01034 0
M  V30 18259 C 2447.3 -7.65514 3.2257 0
M  V30 18260 O 2448.04 -8.4329 2.32297 0
M  V30 18261 C 2446.63 -6.40075 2.62207 0
M  V30 18262 O 2447.43 -5.92589 1.53712 0
M  V30 18263 C 2445.29 -6.9454 2.18503 0
M  V30 18264 H 2445.32 -7.23063 1.12091 0
M  V30 18265 H 2446.51 -5.6025 3.37201 0
M  V30 18266 H 2447.99 -7.35707 4.02681 0
M  V30 18267 H 2446.3 -9.40912 3.9095 0
M  V30 18268 H 2446.11 -8.29056 5.99158 0
M  V30 18269 H 2444.48 -8.10073 5.25882 0
M  V30 18270 H 2447.12 -6.30324 0.726794 0
M  V30 18271 P 2448.97 -8.4349 2.47671 0
M  V30 18272 O 2450.4 -8.94167 2.5964 0
M  V30 18273 O 2448.61 -7.1704 3.19006 0
M  V30 18274 O 2448.65 -8.16596 0.923387 0
M  V30 18275 C 2448.49 -9.38437 0.108857 0
M  V30 18276 C 2449.03 -9.08175 -1.28353 0
M  V30 18277 O 2447.97 -8.44229 -1.84713 0
M  V30 18278 C 2450.25 -8.18386 -1.42505 0
M  V30 18279 O 2450.99 -8.3501 -2.60497 0
M  V30 18280 C 2449.58 -6.80225 -1.25468 0
M  V30 18281 O 2450.38 -5.81621 -1.91066 0
M  V30 18282 C 2448.24 -7.02416 -1.9168 0
M  V30 18283 H 2448.27 -6.6888 -2.96621 0
M  V30 18284 H 2449.46 -6.53617 -0.192223 0
M  V30 18285 H 2450.94 -8.36622 -0.589963 0
M  V30 18286 H 2449.25 -10.0291 -1.79807 0
M  V30 18287 H 2449.06 -10.2138 0.558219 0
M  V30 18288 H 2447.43 -9.6579 0.0444202 0
M  V30 18289 H 2450.07 -5.69556 -2.79637 0
M  V30 18290 P 2451.92 -8.4349 -2.47671 0
M  V30 18291 O 2453.35 -8.92593 -2.65 0
M  V30 18292 O 2451.56 -7.7568 -1.19296 0
M  V30 18293 O 2451.6 -7.36886 -3.63805 0
M  V30 18294 C 2451.44 -7.95349 -4.982 0
M  V30 18295 C 2451.98 -6.94612 -5.98974 0
M  V30 18296 O 2450.92 -6.10347 -6.11815 0
M  V30 18297 C 2453.2 -6.11426 -5.62335 0
M  V30 18298 O 2453.94 -5.6162 -6.70584 0
M  V30 18299 C 2452.53 -5.04409 -4.73308 0
M  V30 18300 O 2453.33 -3.85992 -4.75183 0
M  V30 18301 C 2451.19 -4.8728 -5.41006 0
M  V30 18302 H 2451.22 -4.02333 -6.11157 0
M  V30 18303 H 2452.41 -5.39466 -3.69543 0
M  V30 18304 H 2453.89 -6.71916 -5.01943 0
M  V30 18305 H 2452.2 -7.4649 -6.93477 0
M  V30 18306 H 2452.01 -8.89416 -5.05237 0
M  V30 18307 H 2450.38 -8.14876 -5.18409 0
M  V30 18308 H 2453.02 -3.27957 -5.4317 0
M  V30 18309 P 2454.87 -5.75688 -6.64379 0
M  V30 18310 O 2456.3 -6.07627 -7.05504 0
M  V30 18311 O 2454.51 -5.88047 -5.19722 0
M  V30 18312 O 2454.55 -4.2322 -7.04443 0
M  V30 18313 C 2454.39 -3.99743 -8.4911 0
M  V30 18314 C 2454.93 -2.60516 -8.79425 0
M  V30 18315 O 2453.88 -1.82684 -8.4467 0
M  V30 18316 C 2456.15 -2.10343 -8.03628 0
M  V30 18317 O 2456.89 -1.09919 -8.67766 0
M  V30 18318 C 2455.48 -1.68446 -6.70876 0
M  V30 18319 O 2456.28 -0.678137 -6.08433 0
M  V30 18320 C 2454.14 -1.17436 -7.18567 0
M  V30 18321 H 2454.18 -0.0804732 -7.31656 0
M  V30 18322 H 2455.36 -2.54037 -6.02537 0
M  V30 18323 H 2456.84 -2.93881 -7.85526 0
M  V30 18324 H 2455.15 -2.53065 -9.86973 0
M  V30 18325 H 2454.96 -4.75072 -9.05887 0
M  V30 18326 H 2453.33 -4.05244 -8.76668 0
M  V30 18327 H 2455.97 0.177647 -6.34251 0
M  V30 18328 P 2457.82 -1.25109 -8.70152 0
M  V30 18329 O 2459.25 -1.29744 -9.22016 0
M  V30 18330 O 2457.46 -2.13714 -7.55141 0
M  V30 18331 O 2457.5 0.248149 -8.21425 0
M  V30 18332 C 2457.34 1.22779 -9.30434 0
M  V30 18333 C 2457.88 2.56293 -8.80664 0
M  V30 18334 O 2456.83 3.02979 -8.09349 0
M  V30 18335 C 2459.1 2.57523 -7.89775 0
M  V30 18336 O 2459.84 3.7668 -7.89438 0
M  V30 18337 C 2458.43 2.20997 -6.55446 0
M  V30 18338 O 2459.23 2.71895 -5.48509 0
M  V30 18339 C 2457.09 2.89693 -6.67988 0
M  V30 18340 H 2457.13 3.88793 -6.19859 0
M  V30 18341 H 2458.31 1.12046 -6.44229 0
M  V30 18342 H 2459.79 1.7746 -8.19711 0
M  V30 18343 H 2458.1 3.20706 -9.67112 0
M  V30 18344 H 2457.91 0.901032 -10.1892 0
M  V30 18345 H 2456.28 1.33049 -9.56592 0
M  V30 18346 H 2458.92 3.57847 -5.23962 0
M  V30 18347 P 2460.78 3.65191 -7.99657 0
M  V30 18348 O 2462.2 3.89332 -8.45794 0
M  V30 18349 O 2460.42 2.28472 -7.50807 0
M  V30 18350 O 2460.45 4.64972 -6.77611 0
M  V30 18351 C 2460.29 6.06319 -7.16352 0
M  V30 18352 C 2460.83 6.91731 -6.02299 0
M  V30 18353 O 2459.78 6.92449 -5.17064 0
M  V30 18354 C 2462.05 6.43627 -5.25174 0
M  V30 18355 O 2462.79 7.43686 -4.60469 0
M  V30 18356 C 2461.38 5.40275 -4.31916 0
M  V30 18357 O 2462.18 5.25279 -3.14438 0
M  V30 18358 C 2460.04 6.04847 -4.05327 0
M  V30 18359 H 2460.08 6.62195 -3.11261 0
M  V30 18360 H 2461.26 4.42556 -4.81383 0
M  V30 18361 H 2462.74 5.92458 -5.93643 0
M  V30 18362 H 2461.05 7.92655 -6.402 0
M  V30 18363 H 2460.86 6.26671 -8.0846 0
M  V30 18364 H 2459.23 6.29101 -7.32804 0
M  V30 18365 H 2461.87 5.84315 -2.47318 0
M  V30 18366 P 2463.73 7.39546 -4.75277 0
M  V30 18367 O 2465.15 7.84798 -5.01039 0
M  V30 18368 O 2463.37 5.9812 -5.08098 0
M  V30 18369 O 2463.4 7.57503 -3.1866 0
M  V30 18370 C 2463.24 8.97357 -2.74833 0
M  V30 18371 C 2463.78 9.07548 -1.32709 0
M  V30 18372 O 2462.73 8.62072 -0.606159 0
M  V30 18373 C 2465 8.25383 -0.938334 0
M  V30 18374 O 2465.74 8.74577 0.146954 0
M  V30 18375 C 2464.33 6.8802 -0.712559 0
M  V30 18376 O 2465.13 6.1189 0.194655 0
M  V30 18377 C 2462.99 7.27966 -0.139777 0
M  V30 18378 H 2463.03 7.25354 0.961601 0
M  V30 18379 H 2464.21 6.32557 -1.65702 0
M  V30 18380 H 2465.69 8.19355 -1.79097 0
M  V30 18381 H 2464 10.1294 -1.10029 0
M  V30 18382 H 2463.81 9.64276 -3.41316 0
M  V30 18383 H 2462.18 9.25417 -2.76357 0
M  V30 18384 H 2464.82 6.25267 1.07847 0
M  V30 18385 P 2466.68 8.791 2.15738e-11 0
M  V30 18386 O 2468.1 9.31096 0.027933 0
M  V30 18387 O 2466.32 7.77869 -1.04071 0
M  V30 18388 O 2466.35 8.09533 1.41463 0
M  V30 18389 C 2466.19 9.0349 2.53943 0
M  V30 18390 C 2466.73 8.35226 3.79016 0
M  V30 18391 O 2465.68 7.57992 4.15078 0
M  V30 18392 C 2467.95 7.45087 3.67298 0
M  V30 18393 O 2468.69 7.27796 4.85194 0
M  V30 18394 C 2467.28 6.17323 3.12027 0
M  V30 18395 O 2468.08 5.04231 3.47188 0
M  V30 18396 C 2465.95 6.19961 3.81809 0
M  V30 18397 H 2465.98 5.58218 4.73051 0
M  V30 18398 H 2467.16 6.21726 2.02589 0
M  V30 18399 H 2468.64 7.86112 2.9231 0
M  V30 18400 H 2466.95 9.11627 4.55076 0
M  V30 18401 H 2466.76 9.9573 2.34194 0
M  V30 18402 H 2465.13 9.2792 2.67832 0
M  V30 18403 H 2467.77 4.67702 4.28772 0
M  V30 18404 P 2469.63 7.39546 4.75277 0
M  V30 18405 O 2471.05 7.81777 5.05738 0
M  V30 18406 O 2469.27 7.1065 3.32998 0
M  V30 18407 O 2469.3 6.04542 5.56673 0
M  V30 18408 C 2469.14 6.22772 7.02095 0
M  V30 18409 C 2469.68 4.97725 7.70406 0
M  V30 18410 O 2468.63 4.13256 7.58987 0
M  V30 18411 C 2470.9 4.28231 7.11815 0
M  V30 18412 O 2471.64 3.49945 8.01648 0
M  V30 18413 C 2470.23 3.5063 5.96244 0
M  V30 18414 O 2471.03 2.36482 5.64681 0
M  V30 18415 C 2468.9 3.15122 6.56374 0
M  V30 18416 H 2468.93 2.13853 6.99751 0
M  V30 18417 H 2470.11 4.13501 5.06559 0
M  V30 18418 H 2471.6 5.03285 6.70911 0
M  V30 18419 H 2469.9 5.20877 8.75697 0
M  V30 18420 H 2469.71 7.11046 7.35349 0
M  V30 18421 H 2468.08 6.35815 7.26986 0
M  V30 18422 H 2470.72 1.61644 6.13565 0
M  V30 18423 P 2472.58 3.65191 7.99657 0
M  V30 18424 O 2474 3.8425 8.48115 0
M  V30 18425 O 2472.22 4.17805 6.64342 0
M  V30 18426 O 2472.25 2.07613 7.95143 0
M  V30 18427 C 2472.09 1.44328 9.27336 0
M  V30 18428 C 2472.63 0.0220036 9.17197 0
M  V30 18429 O 2471.58 -0.626867 8.61923 0
M  V30 18430 C 2473.85 -0.24586 8.30336 0
M  V30 18431 O 2474.59 -1.39011 8.63583 0
M  V30 18432 C 2473.18 -0.273849 6.91158 0
M  V30 18433 O 2473.98 -1.06348 6.02892 0
M  V30 18434 C 2471.85 -0.897649 7.22545 0
M  V30 18435 H 2471.88 -1.9841 7.04286 0
M  V30 18436 H 2473.06 0.739928 6.497 0
M  V30 18437 H 2474.55 0.60668 8.36503 0
M  V30 18438 H 2472.85 -0.352479 10.1829 0
M  V30 18439 H 2472.66 2.00611 10.0304 0
M  V30 18440 H 2471.03 1.41843 9.55327 0
M  V30 18441 H 2473.67 -1.95734 6.03555 0
M  V30 18442 P 2475.53 -1.25109 8.70152 0
M  V30 18443 O 2476.95 -1.35274 9.21221 0
M  V30 18444 O 2475.17 -0.0769065 7.84762 0
M  V30 18445 O 2475.21 -2.55232 7.81161 0
M  V30 18446 C 2475.05 -3.79939 8.58154 0
M  V30 18447 C 2475.59 -4.94023 7.72785 0
M  V30 18448 O 2474.53 -5.18726 6.91205 0
M  V30 18449 C 2476.8 -4.69597 6.85231 0
M  V30 18450 O 2477.54 -5.83832 6.51337 0
M  V30 18451 C 2476.13 -3.96706 5.66633 0
M  V30 18452 O 2476.93 -4.15414 4.49689 0
M  V30 18453 C 2474.8 -4.66153 5.59313 0
M  V30 18454 H 2474.83 -5.47679 4.85214 0
M  V30 18455 H 2476.01 -2.89008 5.86566 0
M  V30 18456 H 2477.5 -4.0121 7.36511 0
M  V30 18457 H 2475.8 -5.80182 8.37584 0
M  V30 18458 H 2475.61 -3.73517 9.52265 0
M  V30 18459 H 2473.98 -3.97163 8.80359 0
M  V30 18460 H 2476.62 -4.90969 4.01921 0
M  V30 18461 P 2478.48 -5.75688 6.64379 0
M  V30 18462 O 2479.9 -6.11849 7.01846 0
M  V30 18463 O 2478.12 -4.30744 6.56026 0
M  V30 18464 O 2478.16 -6.37042 5.19165 0
M  V30 18465 C 2478 -7.83578 5.16515 0
M  V30 18466 C 2478.54 -8.33398 3.83019 0
M  V30 18467 O 2477.48 -8.10074 3.01034 0
M  V30 18468 C 2479.75 -7.65514 3.2257 0
M  V30 18469 O 2480.49 -8.4329 2.32297 0
M  V30 18470 C 2479.08 -6.40075 2.62207 0
M  V30 18471 O 2479.88 -5.92589 1.53712 0
M  V30 18472 C 2477.75 -6.9454 2.18503 0
M  V30 18473 H 2477.78 -7.23063 1.12091 0
M  V30 18474 H 2478.96 -5.6025 3.37201 0
M  V30 18475 H 2480.45 -7.35707 4.02681 0
M  V30 18476 H 2478.75 -9.40912 3.9095 0
M  V30 18477 H 2478.56 -8.29056 5.99158 0
M  V30 18478 H 2476.93 -8.10073 5.25882 0
M  V30 18479 H 2479.57 -6.30324 0.726794 0
M  V30 18480 P 2481.43 -8.4349 2.47671 0
M  V30 18481 O 2482.85 -8.94263 2.59668 0
M  V30 18482 O 2481.07 -7.1704 3.19006 0
M  V30 18483 O 2481.11 -8.16596 0.923387 0
M  V30 18484 C 2480.95 -9.38537 0.108869 0
M  V30 18485 C 2481.49 -9.08175 -1.28353 0
M  V30 18486 O 2480.43 -8.44131 -1.84692 0
M  V30 18487 C 2482.7 -8.18386 -1.42505 0
M  V30 18488 O 2483.44 -8.3501 -2.60497 0
M  V30 18489 C 2482.04 -6.80225 -1.25468 0
M  V30 18490 O 2482.83 -5.81716 -1.90454 0
M  V30 18491 C 2480.7 -7.02416 -1.9168 0
M  V30 18492 N 2479.66 -6.31033 -1.20314 0
M  V30 18493 C 2479.82 -5.98817 0.0994088 0
M  V30 18494 N 2478.8 -5.35403 0.621694 0
M  V30 18495 C 2477.91 -5.25212 -0.43376 0
M  V30 18496 C 2476.65 -4.64602 -0.519722 0
M  V30 18497 N 2476.05 -4.01457 0.519136 0
M  V30 18498 N 2476.08 -4.7568 -1.76013 0
M  V30 18499 C 2476.68 -5.3653 -2.83017 0
M  V30 18500 N 2477.86 -5.93676 -2.79782 0
M  V30 18501 C 2478.43 -5.84061 -1.56249 0
M  V30 18502 H 2480.73 -6.68789 -2.9658 0
M  V30 18503 H 2481.91 -6.53498 -0.198729 0
M  V30 18504 H 2483.4 -8.36622 -0.589963 0
M  V30 18505 H 2481.7 -10.0273 -1.8081 0
M  V30 18506 H 2481.51 -10.2138 0.558219 0
M  V30 18507 H 2479.88 -9.6579 0.0444202 0
M  V30 18508 H 2476.15 -5.37113 -3.77321 0
M  V30 18509 H 2480.72 -6.23209 0.660562 0
M  V30 18510 H 2475.12 -3.58834 0.394862 0
M  V30 18511 H 2476.52 -3.96059 1.43048 0
M  V30 18512 H 2482.52 -5.69466 -2.79593 0
M  V30 18513 P 2484.38 -8.4349 -2.47671 0
M  V30 18514 O 2485.8 -8.92593 -2.65 0
M  V30 18515 O 2484.02 -7.7568 -1.19296 0
M  V30 18516 O 2484.06 -7.36886 -3.63805 0
M  V30 18517 C 2483.9 -7.95349 -4.982 0
M  V30 18518 C 2484.44 -6.94612 -5.98974 0
M  V30 18519 O 2483.38 -6.10347 -6.11815 0
M  V30 18520 C 2485.65 -6.11426 -5.62335 0
M  V30 18521 O 2486.39 -5.6162 -6.70584 0
M  V30 18522 C 2484.99 -5.04409 -4.73308 0
M  V30 18523 O 2485.78 -3.85992 -4.75183 0
M  V30 18524 C 2483.65 -4.8728 -5.41006 0
M  V30 18525 H 2483.68 -4.02333 -6.11157 0
M  V30 18526 H 2484.86 -5.39466 -3.69543 0
M  V30 18527 H 2486.35 -6.71916 -5.01943 0
M  V30 18528 H 2484.65 -7.4649 -6.93477 0
M  V30 18529 H 2484.46 -8.89416 -5.05237 0
M  V30 18530 H 2482.83 -8.14876 -5.18409 0
M  V30 18531 H 2485.47 -3.27957 -5.4317 0
M  V30 18532 P 2487.33 -5.75688 -6.64379 0
M  V30 18533 O 2488.75 -6.07627 -7.05504 0
M  V30 18534 O 2486.97 -5.88047 -5.19722 0
M  V30 18535 O 2487.01 -4.2322 -7.04443 0
M  V30 18536 C 2486.85 -3.99743 -8.4911 0
M  V30 18537 C 2487.39 -2.60516 -8.79425 0
M  V30 18538 O 2486.33 -1.82684 -8.4467 0
M  V30 18539 C 2488.61 -2.10343 -8.03628 0
M  V30 18540 O 2489.34 -1.09919 -8.67766 0
M  V30 18541 C 2487.94 -1.68446 -6.70876 0
M  V30 18542 O 2488.74 -0.678137 -6.08433 0
M  V30 18543 C 2486.6 -1.17436 -7.18567 0
M  V30 18544 H 2486.63 -0.0804732 -7.31656 0
M  V30 18545 H 2487.81 -2.54037 -6.02537 0
M  V30 18546 H 2489.3 -2.93881 -7.85526 0
M  V30 18547 H 2487.6 -2.53065 -9.86973 0
M  V30 18548 H 2487.41 -4.75072 -9.05887 0
M  V30 18549 H 2485.78 -4.05244 -8.76668 0
M  V30 18550 H 2488.42 0.177647 -6.34251 0
M  V30 18551 P 2490.28 -1.25109 -8.70152 0
M  V30 18552 O 2491.7 -1.29744 -9.22016 0
M  V30 18553 O 2489.92 -2.13714 -7.55141 0
M  V30 18554 O 2489.96 0.248149 -8.21425 0
M  V30 18555 C 2489.8 1.22779 -9.30434 0
M  V30 18556 C 2490.34 2.56293 -8.80664 0
M  V30 18557 O 2489.28 3.02979 -8.09349 0
M  V30 18558 C 2491.56 2.57523 -7.89775 0
M  V30 18559 O 2492.29 3.7668 -7.89438 0
M  V30 18560 C 2490.89 2.20997 -6.55446 0
M  V30 18561 O 2491.69 2.71895 -5.48509 0
M  V30 18562 C 2489.55 2.89693 -6.67988 0
M  V30 18563 H 2489.58 3.88793 -6.19859 0
M  V30 18564 H 2490.77 1.12046 -6.44229 0
M  V30 18565 H 2492.25 1.7746 -8.19711 0
M  V30 18566 H 2490.56 3.20706 -9.67112 0
M  V30 18567 H 2490.37 0.901032 -10.1892 0
M  V30 18568 H 2488.74 1.33049 -9.56592 0
M  V30 18569 H 2491.37 3.57847 -5.23962 0
M  V30 18570 P 2493.23 3.65191 -7.99657 0
M  V30 18571 O 2494.65 3.89332 -8.45794 0
M  V30 18572 O 2492.87 2.28472 -7.50807 0
M  V30 18573 O 2492.91 4.64972 -6.77611 0
M  V30 18574 C 2492.75 6.06319 -7.16352 0
M  V30 18575 C 2493.29 6.91731 -6.02299 0
M  V30 18576 O 2492.23 6.92449 -5.17064 0
M  V30 18577 C 2494.51 6.43627 -5.25174 0
M  V30 18578 O 2495.24 7.43686 -4.60469 0
M  V30 18579 C 2493.84 5.40275 -4.31916 0
M  V30 18580 O 2494.64 5.25279 -3.14438 0
M  V30 18581 C 2492.5 6.04847 -4.05327 0
M  V30 18582 H 2492.53 6.62195 -3.11261 0
M  V30 18583 H 2493.72 4.42556 -4.81383 0
M  V30 18584 H 2495.2 5.92458 -5.93643 0
M  V30 18585 H 2493.51 7.92655 -6.402 0
M  V30 18586 H 2493.32 6.26671 -8.0846 0
M  V30 18587 H 2491.69 6.29101 -7.32804 0
M  V30 18588 H 2494.32 5.84315 -2.47318 0
M  V30 18589 P 2496.18 7.39546 -4.75277 0
M  V30 18590 O 2497.6 7.84798 -5.01039 0
M  V30 18591 O 2495.82 5.9812 -5.08098 0
M  V30 18592 O 2495.86 7.57503 -3.1866 0
M  V30 18593 C 2495.7 8.97357 -2.74833 0
M  V30 18594 C 2496.24 9.07548 -1.32709 0
M  V30 18595 O 2495.18 8.62072 -0.606159 0
M  V30 18596 C 2497.46 8.25383 -0.938334 0
M  V30 18597 O 2498.2 8.74577 0.146954 0
M  V30 18598 C 2496.79 6.8802 -0.712559 0
M  V30 18599 O 2497.59 6.1189 0.194655 0
M  V30 18600 C 2495.45 7.27966 -0.139777 0
M  V30 18601 H 2495.48 7.25354 0.961601 0
M  V30 18602 H 2496.67 6.32557 -1.65702 0
M  V30 18603 H 2498.15 8.19355 -1.79097 0
M  V30 18604 H 2496.46 10.1294 -1.10029 0
M  V30 18605 H 2496.27 9.64276 -3.41316 0
M  V30 18606 H 2494.64 9.25417 -2.76357 0
M  V30 18607 H 2497.28 6.25267 1.07847 0
M  V30 18608 P 2499.13 8.791 2.18839e-11 0
M  V30 18609 O 2500.55 9.31096 0.027933 0
M  V30 18610 O 2498.77 7.77869 -1.04071 0
M  V30 18611 O 2498.81 8.09533 1.41463 0
M  V30 18612 C 2498.65 9.0349 2.53943 0
M  V30 18613 C 2499.19 8.35226 3.79016 0
M  V30 18614 O 2498.13 7.57992 4.15078 0
M  V30 18615 C 2500.41 7.45087 3.67298 0
M  V30 18616 O 2501.15 7.27796 4.85194 0
M  V30 18617 C 2499.74 6.17323 3.12027 0
M  V30 18618 O 2500.54 5.04231 3.47188 0
M  V30 18619 C 2498.4 6.19961 3.81809 0
M  V30 18620 H 2498.43 5.58218 4.73051 0
M  V30 18621 H 2499.62 6.21726 2.02589 0
M  V30 18622 H 2501.1 7.86112 2.9231 0
M  V30 18623 H 2499.41 9.11627 4.55076 0
M  V30 18624 H 2499.22 9.9573 2.34194 0
M  V30 18625 H 2497.59 9.2792 2.67832 0
M  V30 18626 H 2500.23 4.67702 4.28772 0
M  V30 18627 P 2502.08 7.39546 4.75277 0
M  V30 18628 O 2503.5 7.81861 5.05793 0
M  V30 18629 O 2501.72 7.1065 3.32998 0
M  V30 18630 O 2501.76 6.04542 5.56673 0
M  V30 18631 C 2501.6 6.22839 7.02169 0
M  V30 18632 C 2502.14 4.97725 7.70406 0
M  V30 18633 O 2501.09 4.13208 7.58899 0
M  V30 18634 C 2503.36 4.28231 7.11815 0
M  V30 18635 O 2504.1 3.49945 8.01648 0
M  V30 18636 C 2502.69 3.5063 5.96244 0
M  V30 18637 O 2503.49 2.37008 5.64352 0
M  V30 18638 C 2501.35 3.15122 6.56374 0
M  V30 18639 N 2500.31 3.22311 5.55692 0
M  V30 18640 C 2500.48 3.99655 4.46046 0
M  V30 18641 N 2499.45 3.97599 3.63918 0
M  V30 18642 C 2498.57 3.11159 4.25334 0
M  V30 18643 C 2497.3 2.64972 3.85157 0
M  V30 18644 N 2496.7 3.02132 2.69405 0
M  V30 18645 N 2496.73 1.78482 4.74759 0
M  V30 18646 C 2497.34 1.37463 5.90819 0
M  V30 18647 N 2498.51 1.7733 6.31889 0
M  V30 18648 C 2499.09 2.64393 5.43725 0
M  V30 18649 H 2501.38 2.13823 6.99656 0
M  V30 18650 H 2502.57 4.12931 5.06895 0
M  V30 18651 H 2504.05 5.03285 6.70911 0
M  V30 18652 H 2502.36 5.20001 8.76217 0
M  V30 18653 H 2502.17 7.11046 7.35349 0
M  V30 18654 H 2500.54 6.35815 7.26986 0
M  V30 18655 H 2496.8 0.66574 6.53015 0
M  V30 18656 H 2501.38 4.58037 4.27732 0
M  V30 18657 H 2495.77 2.64828 2.45331 0
M  V30 18658 H 2497.17 3.67472 2.05644 0
M  V30 18659 H 2503.18 1.61619 6.13468 0
M  V30 18660 P 2505.03 3.65191 7.99657 0
M  V30 18661 O 2506.43 3.90823 8.51272 0
M  V30 18662 O 2504.66 4.23191 6.66972 0
M  V30 18663 O 2504.71 2.07587 7.95046 0
M  V30 18664 C 2504.55 1.44328 9.27336 0
M  V30 18665 C 2505.09 0.0220012 9.17097 0
M  V30 18666 O 2504.03 -0.626794 8.61824 0
M  V30 18667 C 2506.31 -0.24586 8.30336 0
M  V30 18668 O 2507.05 -1.39011 8.63583 0
M  V30 18669 C 2505.64 -0.273849 6.91158 0
M  V30 18670 O 2506.44 -1.06331 6.02794 0
M  V30 18671 C 2504.3 -0.897649 7.22545 0
M  V30 18672 N 2503.26 -0.292839 6.41732 0
M  V30 18673 C 2502.22 -1.08701 5.98712 0
M  V30 18674 O 2502.26 -2.31211 6.24471 0
M  V30 18675 N 2501.21 -0.533391 5.28415 0
M  V30 18676 C 2501.26 0.770866 4.98576 0
M  V30 18677 N 2500.25 1.29482 4.30134 0
M  V30 18678 C 2502.36 1.59049 5.38086 0
M  V30 18679 C 2503.32 1.01866 6.10256 0
M  V30 18680 H 2504.33 -1.98383 7.04189 0
M  V30 18681 H 2505.52 0.733318 6.49674 0
M  V30 18682 H 2507 0.598386 8.36663 0
M  V30 18683 H 2505.31 -0.362662 10.1825 0
M  V30 18684 H 2505.12 2.00611 10.0304 0
M  V30 18685 H 2503.49 1.41828 9.55228 0
M  V30 18686 H 2502.4 2.6415 5.10622 0
M  V30 18687 H 2504.17 1.61983 6.44042 0
M  V30 18688 H 2499.46 0.69888 4.01361 0
M  V30 18689 H 2500.26 2.29327 4.05781 0
M  V30 18690 H 2506.22 -1.97777 6.14035 0
M  V30 18691 P 2507.98 -1.25109 8.70152 0
M  V30 18692 O 2509.41 -1.35303 9.21419 0
M  V30 18693 O 2507.62 -0.0769065 7.84762 0
M  V30 18694 O 2507.66 -2.55232 7.81161 0
M  V30 18695 C 2507.5 -3.79939 8.58154 0
M  V30 18696 C 2508.04 -4.93969 7.72701 0
M  V30 18697 O 2506.99 -5.18726 6.91205 0
M  V30 18698 C 2509.26 -4.69597 6.85231 0
M  V30 18699 O 2510 -5.83832 6.51337 0
M  V30 18700 C 2508.59 -3.96706 5.66633 0
M  V30 18701 O 2509.39 -4.15346 4.49615 0
M  V30 18702 C 2507.25 -4.66153 5.59313 0
M  V30 18703 N 2506.21 -3.71582 5.24027 0
M  V30 18704 C 2506.27 -2.46018 5.67902 0
M  V30 18705 N 2505.23 -1.74868 5.24518 0
M  V30 18706 C 2504.49 -2.61333 4.54528 0
M  V30 18707 C 2503.19 -2.46162 3.95441 0
M  V30 18708 O 2502.45 -1.46013 3.94122 0
M  V30 18709 N 2502.76 -3.59334 3.34752 0
M  V30 18710 C 2503.51 -4.79605 3.3023 0
M  V30 18711 N 2502.91 -5.82109 2.6065 0
M  V30 18712 N 2504.66 -4.97402 3.8843 0
M  V30 18713 C 2505.12 -3.86258 4.50476 0
M  V30 18714 H 2507.29 -5.47679 4.85214 0
M  V30 18715 H 2508.47 -2.88964 5.86476 0
M  V30 18716 H 2509.95 -4.01947 7.36109 0
M  V30 18717 H 2508.26 -5.80182 8.37584 0
M  V30 18718 H 2508.07 -3.73517 9.52265 0
M  V30 18719 H 2506.44 -3.97163 8.80359 0
M  V30 18720 H 2501.86 -3.5825 2.90294 0
M  V30 18721 H 2507.07 -2.06161 6.30974 0
M  V30 18722 H 2502 -5.66979 2.15354 0
M  V30 18723 H 2503.37 -6.73686 2.54344 0
M  V30 18724 H 2509.08 -4.90891 4.01857 0
M  V30 18725 P 2510.94 -5.75688 6.64379 0
M  V30 18726 O 2512.36 -6.11849 7.01846 0
M  V30 18727 O 2510.58 -4.30744 6.56026 0
M  V30 18728 O 2510.61 -6.37042 5.19165 0
M  V30 18729 C 2510.45 -7.83578 5.16515 0
M  V30 18730 C 2510.99 -8.33398 3.83019 0
M  V30 18731 O 2509.94 -8.10074 3.01034 0
M  V30 18732 C 2512.21 -7.65514 3.2257 0
M  V30 18733 O 2512.95 -8.4329 2.32297 0
M  V30 18734 C 2511.54 -6.40075 2.62207 0
M  V30 18735 O 2512.34 -5.92589 1.53712 0
M  V30 18736 C 2510.2 -6.9454 2.18503 0
M  V30 18737 H 2510.24 -7.23063 1.12091 0
M  V30 18738 H 2511.42 -5.6025 3.37201 0
M  V30 18739 H 2512.9 -7.35707 4.02681 0
M  V30 18740 H 2511.21 -9.40912 3.9095 0
M  V30 18741 H 2511.02 -8.29056 5.99158 0
M  V30 18742 H 2509.39 -8.10073 5.25882 0
M  V30 18743 H 2512.03 -6.30324 0.726794 0
M  V30 18744 P 2513.89 -8.4349 2.47671 0
M  V30 18745 O 2515.31 -8.94167 2.5964 0
M  V30 18746 O 2513.53 -7.1704 3.19006 0
M  V30 18747 O 2513.56 -8.16596 0.923387 0
M  V30 18748 C 2513.4 -9.38437 0.108857 0
M  V30 18749 C 2513.94 -9.08175 -1.28353 0
M  V30 18750 O 2512.89 -8.44229 -1.84713 0
M  V30 18751 C 2515.16 -8.18386 -1.42505 0
M  V30 18752 O 2515.9 -8.3501 -2.60497 0
M  V30 18753 C 2514.49 -6.80225 -1.25468 0
M  V30 18754 O 2515.29 -5.81621 -1.91066 0
M  V30 18755 C 2513.15 -7.02416 -1.9168 0
M  V30 18756 H 2513.19 -6.6888 -2.96621 0
M  V30 18757 H 2514.37 -6.53617 -0.192223 0
M  V30 18758 H 2515.85 -8.36622 -0.589963 0
M  V30 18759 H 2514.16 -10.0291 -1.79807 0
M  V30 18760 H 2513.97 -10.2138 0.558219 0
M  V30 18761 H 2512.34 -9.6579 0.0444202 0
M  V30 18762 H 2514.98 -5.69556 -2.79637 0
M  V30 18763 P 2516.84 -8.4349 -2.47671 0
M  V30 18764 O 2518.26 -8.92593 -2.65 0
M  V30 18765 O 2516.48 -7.7568 -1.19296 0
M  V30 18766 O 2516.51 -7.36886 -3.63805 0
M  V30 18767 C 2516.35 -7.95349 -4.982 0
M  V30 18768 C 2516.89 -6.94612 -5.98974 0
M  V30 18769 O 2515.84 -6.10347 -6.11815 0
M  V30 18770 C 2518.11 -6.11426 -5.62335 0
M  V30 18771 O 2518.85 -5.6162 -6.70584 0
M  V30 18772 C 2517.44 -5.04409 -4.73308 0
M  V30 18773 O 2518.24 -3.85992 -4.75183 0
M  V30 18774 C 2516.11 -4.8728 -5.41006 0
M  V30 18775 H 2516.14 -4.02333 -6.11157 0
M  V30 18776 H 2517.32 -5.39466 -3.69543 0
M  V30 18777 H 2518.8 -6.71916 -5.01943 0
M  V30 18778 H 2517.11 -7.4649 -6.93477 0
M  V30 18779 H 2516.92 -8.89416 -5.05237 0
M  V30 18780 H 2515.29 -8.14876 -5.18409 0
M  V30 18781 H 2517.93 -3.27957 -5.4317 0
M  V30 18782 P 2519.79 -5.75688 -6.64379 0
M  V30 18783 O 2521.21 -6.07627 -7.05504 0
M  V30 18784 O 2519.43 -5.88047 -5.19722 0
M  V30 18785 O 2519.46 -4.2322 -7.04443 0
M  V30 18786 C 2519.3 -3.99743 -8.4911 0
M  V30 18787 C 2519.84 -2.60516 -8.79425 0
M  V30 18788 O 2518.79 -1.82684 -8.4467 0
M  V30 18789 C 2521.06 -2.10343 -8.03628 0
M  V30 18790 O 2521.8 -1.09919 -8.67766 0
M  V30 18791 C 2520.39 -1.68446 -6.70876 0
M  V30 18792 O 2521.19 -0.678137 -6.08433 0
M  V30 18793 C 2519.06 -1.17436 -7.18567 0
M  V30 18794 H 2519.09 -0.0804732 -7.31656 0
M  V30 18795 H 2520.27 -2.54037 -6.02537 0
M  V30 18796 H 2521.75 -2.93881 -7.85526 0
M  V30 18797 H 2520.06 -2.53065 -9.86973 0
M  V30 18798 H 2519.87 -4.75072 -9.05887 0
M  V30 18799 H 2518.24 -4.05244 -8.76668 0
M  V30 18800 H 2520.88 0.177647 -6.34251 0
M  V30 18801 P 2522.74 -1.25109 -8.70152 0
M  V30 18802 O 2524.16 -1.29744 -9.22016 0
M  V30 18803 O 2522.38 -2.13714 -7.55141 0
M  V30 18804 O 2522.41 0.248149 -8.21425 0
M  V30 18805 C 2522.25 1.22779 -9.30434 0
M  V30 18806 C 2522.79 2.56293 -8.80664 0
M  V30 18807 O 2521.74 3.02979 -8.09349 0
M  V30 18808 C 2524.01 2.57523 -7.89775 0
M  V30 18809 O 2524.75 3.7668 -7.89438 0
M  V30 18810 C 2523.34 2.20997 -6.55446 0
M  V30 18811 O 2524.14 2.71895 -5.48509 0
M  V30 18812 C 2522.01 2.89693 -6.67988 0
M  V30 18813 H 2522.04 3.88793 -6.19859 0
M  V30 18814 H 2523.22 1.12046 -6.44229 0
M  V30 18815 H 2524.71 1.7746 -8.19711 0
M  V30 18816 H 2523.01 3.20706 -9.67112 0
M  V30 18817 H 2522.82 0.901032 -10.1892 0
M  V30 18818 H 2521.19 1.33049 -9.56592 0
M  V30 18819 H 2523.83 3.57847 -5.23962 0
M  V30 18820 P 2525.69 3.65191 -7.99657 0
M  V30 18821 O 2527.11 3.89332 -8.45794 0
M  V30 18822 O 2525.33 2.28472 -7.50807 0
M  V30 18823 O 2525.36 4.64972 -6.77611 0
M  V30 18824 C 2525.2 6.06319 -7.16352 0
M  V30 18825 C 2525.74 6.91731 -6.02299 0
M  V30 18826 O 2524.69 6.92449 -5.17064 0
M  V30 18827 C 2526.96 6.43627 -5.25174 0
M  V30 18828 O 2527.7 7.43686 -4.60469 0
M  V30 18829 C 2526.29 5.40275 -4.31916 0
M  V30 18830 O 2527.09 5.25279 -3.14438 0
M  V30 18831 C 2524.96 6.04847 -4.05327 0
M  V30 18832 H 2524.99 6.62195 -3.11261 0
M  V30 18833 H 2526.17 4.42556 -4.81383 0
M  V30 18834 H 2527.66 5.92458 -5.93643 0
M  V30 18835 H 2525.96 7.92655 -6.402 0
M  V30 18836 H 2525.77 6.26671 -8.0846 0
M  V30 18837 H 2524.14 6.29101 -7.32804 0
M  V30 18838 H 2526.78 5.84315 -2.47318 0
M  V30 18839 P 2528.64 7.39546 -4.75277 0
M  V30 18840 O 2530.06 7.84798 -5.01039 0
M  V30 18841 O 2528.28 5.9812 -5.08098 0
M  V30 18842 O 2528.32 7.57503 -3.1866 0
M  V30 18843 C 2528.16 8.97357 -2.74833 0
M  V30 18844 C 2528.7 9.07548 -1.32709 0
M  V30 18845 O 2527.64 8.62072 -0.606159 0
M  V30 18846 C 2529.91 8.25383 -0.938334 0
M  V30 18847 O 2530.65 8.74577 0.146954 0
M  V30 18848 C 2529.24 6.8802 -0.712559 0
M  V30 18849 O 2530.04 6.1189 0.194655 0
M  V30 18850 C 2527.91 7.27966 -0.139777 0
M  V30 18851 H 2527.94 7.25354 0.961601 0
M  V30 18852 H 2529.12 6.32557 -1.65702 0
M  V30 18853 H 2530.61 8.19355 -1.79097 0
M  V30 18854 H 2528.91 10.1294 -1.10029 0
M  V30 18855 H 2528.72 9.64276 -3.41316 0
M  V30 18856 H 2527.09 9.25417 -2.76357 0
M  V30 18857 H 2529.73 6.25267 1.07847 0
M  V30 18858 P 2531.59 8.791 2.21941e-11 0
M  V30 18859 O 2533.01 9.31096 0.027933 0
M  V30 18860 O 2531.23 7.77869 -1.04071 0
M  V30 18861 O 2531.27 8.09533 1.41463 0
M  V30 18862 C 2531.11 9.0349 2.53943 0
M  V30 18863 C 2531.65 8.35226 3.79016 0
M  V30 18864 O 2530.59 7.57992 4.15078 0
M  V30 18865 C 2532.86 7.45087 3.67298 0
M  V30 18866 O 2533.6 7.27796 4.85194 0
M  V30 18867 C 2532.2 6.17323 3.12027 0
M  V30 18868 O 2532.99 5.04231 3.47188 0
M  V30 18869 C 2530.86 6.19961 3.81809 0
M  V30 18870 H 2530.89 5.58218 4.73051 0
M  V30 18871 H 2532.07 6.21726 2.02589 0
M  V30 18872 H 2533.56 7.86112 2.9231 0
M  V30 18873 H 2531.86 9.11627 4.55076 0
M  V30 18874 H 2531.67 9.9573 2.34194 0
M  V30 18875 H 2530.04 9.2792 2.67832 0
M  V30 18876 H 2532.68 4.67702 4.28772 0
M  V30 18877 P 2534.54 7.39546 4.75277 0
M  V30 18878 O 2535.96 7.81861 5.05793 0
M  V30 18879 O 2534.18 7.1065 3.32998 0
M  V30 18880 O 2534.22 6.04542 5.56673 0
M  V30 18881 C 2534.06 6.22839 7.02169 0
M  V30 18882 C 2534.6 4.97725 7.70406 0
M  V30 18883 O 2533.54 4.13208 7.58899 0
M  V30 18884 C 2535.81 4.28231 7.11815 0
M  V30 18885 O 2536.55 3.49945 8.01648 0
M  V30 18886 C 2535.15 3.5063 5.96244 0
M  V30 18887 O 2535.94 2.37008 5.64352 0
M  V30 18888 C 2533.81 3.15122 6.56374 0
M  V30 18889 N 2532.77 3.22311 5.55692 0
M  V30 18890 C 2532.93 3.99655 4.46046 0
M  V30 18891 N 2531.91 3.97599 3.63918 0
M  V30 18892 C 2531.02 3.11159 4.25334 0
M  V30 18893 C 2529.76 2.64972 3.85157 0
M  V30 18894 N 2529.16 3.02132 2.69405 0
M  V30 18895 N 2529.19 1.78482 4.74759 0
M  V30 18896 C 2529.79 1.37463 5.90819 0
M  V30 18897 N 2530.97 1.7733 6.31889 0
M  V30 18898 C 2531.54 2.64393 5.43725 0
M  V30 18899 H 2533.84 2.13823 6.99656 0
M  V30 18900 H 2535.02 4.12931 5.06895 0
M  V30 18901 H 2536.51 5.03285 6.70911 0
M  V30 18902 H 2534.81 5.20001 8.76217 0
M  V30 18903 H 2534.62 7.11046 7.35349 0
M  V30 18904 H 2532.99 6.35815 7.26986 0
M  V30 18905 H 2529.26 0.66574 6.53015 0
M  V30 18906 H 2533.83 4.58037 4.27732 0
M  V30 18907 H 2528.23 2.64828 2.45331 0
M  V30 18908 H 2529.63 3.67472 2.05644 0
M  V30 18909 H 2535.63 1.61619 6.13468 0
M  V30 18910 P 2537.49 3.65191 7.99657 0
M  V30 18911 O 2538.91 3.84292 8.48206 0
M  V30 18912 O 2537.13 4.17805 6.64342 0
M  V30 18913 O 2537.17 2.07613 7.95143 0
M  V30 18914 C 2537.01 1.44344 9.27435 0
M  V30 18915 C 2537.55 0.0220036 9.17197 0
M  V30 18916 O 2536.49 -0.626794 8.61824 0
M  V30 18917 C 2538.77 -0.24586 8.30336 0
M  V30 18918 O 2539.5 -1.39011 8.63583 0
M  V30 18919 C 2538.1 -0.273849 6.91158 0
M  V30 18920 O 2538.9 -1.05728 6.029 0
M  V30 18921 C 2536.76 -0.897649 7.22545 0
M  V30 18922 N 2535.72 -0.292839 6.41732 0
M  V30 18923 C 2535.89 0.950603 5.91308 0
M  V30 18924 N 2534.86 1.37732 5.21105 0
M  V30 18925 C 2533.97 0.318109 5.26039 0
M  V30 18926 C 2532.71 0.146766 4.6727 0
M  V30 18927 N 2532.14 -1.06525 4.95887 0
M  V30 18928 C 2532.74 -2.0378 5.71347 0
M  V30 18929 N 2533.92 -1.92445 6.27451 0
M  V30 18930 C 2534.5 -0.715382 6.00353 0
M  V30 18931 H 2537.97 0.733318 6.49674 0
M  V30 18932 H 2539.46 0.60668 8.36503 0
M  V30 18933 H 2537.76 -0.362662 10.1825 0
M  V30 18934 H 2537.57 2.00611 10.0304 0
M  V30 18935 H 2535.94 1.41843 9.55327 0
M  V30 18936 H 2536.79 1.54076 6.07465 0
M  V30 18937 H 2538.58 -1.95704 6.0346 0
M  V30 18938 P 2540.44 -1.25109 8.70152 0
M  V30 18939 O 2541.86 -1.35274 9.21221 0
M  V30 18940 O 2540.08 -0.0769065 7.84762 0
M  V30 18941 O 2540.12 -2.55232 7.81161 0
M  V30 18942 C 2539.96 -3.79939 8.58154 0
M  V30 18943 C 2540.5 -4.94023 7.72785 0
M  V30 18944 O 2539.44 -5.18726 6.91205 0
M  V30 18945 C 2541.72 -4.69597 6.85231 0
M  V30 18946 O 2542.45 -5.83832 6.51337 0
M  V30 18947 C 2541.05 -3.96706 5.66633 0
M  V30 18948 O 2541.85 -4.15414 4.49689 0
M  V30 18949 C 2539.71 -4.66153 5.59313 0
M  V30 18950 H 2539.74 -5.47679 4.85214 0
M  V30 18951 H 2540.92 -2.89008 5.86566 0
M  V30 18952 H 2542.41 -4.0121 7.36511 0
M  V30 18953 H 2540.71 -5.80182 8.37584 0
M  V30 18954 H 2540.52 -3.73517 9.52265 0
M  V30 18955 H 2538.89 -3.97163 8.80359 0
M  V30 18956 H 2541.53 -4.90969 4.01921 0
M  V30 18957 P 2543.39 -5.75688 6.64379 0
M  V30 18958 O 2544.81 -6.11849 7.01846 0
M  V30 18959 O 2543.03 -4.30744 6.56026 0
M  V30 18960 O 2543.07 -6.37042 5.19165 0
M  V30 18961 C 2542.91 -7.83578 5.16515 0
M  V30 18962 C 2543.45 -8.33398 3.83019 0
M  V30 18963 O 2542.39 -8.10074 3.01034 0
M  V30 18964 C 2544.67 -7.65514 3.2257 0
M  V30 18965 O 2545.4 -8.4329 2.32297 0
M  V30 18966 C 2544 -6.40075 2.62207 0
M  V30 18967 O 2544.8 -5.92589 1.53712 0
M  V30 18968 C 2542.66 -6.9454 2.18503 0
M  V30 18969 H 2542.69 -7.23063 1.12091 0
M  V30 18970 H 2543.88 -5.6025 3.37201 0
M  V30 18971 H 2545.36 -7.35707 4.02681 0
M  V30 18972 H 2543.67 -9.40912 3.9095 0
M  V30 18973 H 2543.48 -8.29056 5.99158 0
M  V30 18974 H 2541.85 -8.10073 5.25882 0
M  V30 18975 H 2544.48 -6.30324 0.726794 0
M  V30 18976 P 2546.34 -8.4349 2.47671 0
M  V30 18977 O 2547.76 -8.94167 2.5964 0
M  V30 18978 O 2545.98 -7.1704 3.19006 0
M  V30 18979 O 2546.02 -8.16596 0.923387 0
M  V30 18980 C 2545.86 -9.38437 0.108857 0
M  V30 18981 C 2546.4 -9.08175 -1.28353 0
M  V30 18982 O 2545.34 -8.44229 -1.84713 0
M  V30 18983 C 2547.62 -8.18386 -1.42505 0
M  V30 18984 O 2548.35 -8.3501 -2.60497 0
M  V30 18985 C 2546.95 -6.80225 -1.25468 0
M  V30 18986 O 2547.75 -5.81621 -1.91066 0
M  V30 18987 C 2545.61 -7.02416 -1.9168 0
M  V30 18988 H 2545.64 -6.6888 -2.96621 0
M  V30 18989 H 2546.83 -6.53617 -0.192223 0
M  V30 18990 H 2548.31 -8.36622 -0.589963 0
M  V30 18991 H 2546.62 -10.0291 -1.79807 0
M  V30 18992 H 2546.43 -10.2138 0.558219 0
M  V30 18993 H 2544.8 -9.6579 0.0444202 0
M  V30 18994 H 2547.43 -5.69556 -2.79637 0
M  V30 18995 P 2549.29 -8.4349 -2.47671 0
M  V30 18996 O 2550.71 -8.92593 -2.65 0
M  V30 18997 O 2548.93 -7.7568 -1.19296 0
M  V30 18998 O 2548.97 -7.36886 -3.63805 0
M  V30 18999 C 2548.81 -7.95349 -4.982 0
M  V30 19000 C 2549.35 -6.94612 -5.98974 0
M  V30 19001 O 2548.29 -6.10347 -6.11815 0
M  V30 19002 C 2550.57 -6.11426 -5.62335 0
M  V30 19003 O 2551.31 -5.6162 -6.70584 0
M  V30 19004 C 2549.9 -5.04409 -4.73308 0
M  V30 19005 O 2550.7 -3.85992 -4.75183 0
M  V30 19006 C 2548.56 -4.8728 -5.41006 0
M  V30 19007 H 2548.59 -4.02333 -6.11157 0
M  V30 19008 H 2549.78 -5.39466 -3.69543 0
M  V30 19009 H 2551.26 -6.71916 -5.01943 0
M  V30 19010 H 2549.57 -7.4649 -6.93477 0
M  V30 19011 H 2549.38 -8.89416 -5.05237 0
M  V30 19012 H 2547.75 -8.14876 -5.18409 0
M  V30 19013 H 2550.39 -3.27957 -5.4317 0
M  V30 19014 P 2552.24 -5.75688 -6.64379 0
M  V30 19015 O 2553.67 -6.07627 -7.05504 0
M  V30 19016 O 2551.88 -5.88047 -5.19722 0
M  V30 19017 O 2551.92 -4.2322 -7.04443 0
M  V30 19018 C 2551.76 -3.99743 -8.4911 0
M  V30 19019 C 2552.3 -2.60516 -8.79425 0
M  V30 19020 O 2551.24 -1.82684 -8.4467 0
M  V30 19021 C 2553.52 -2.10343 -8.03628 0
M  V30 19022 O 2554.26 -1.09919 -8.67766 0
M  V30 19023 C 2552.85 -1.68446 -6.70876 0
M  V30 19024 O 2553.65 -0.678137 -6.08433 0
M  V30 19025 C 2551.51 -1.17436 -7.18567 0
M  V30 19026 H 2551.54 -0.0804732 -7.31656 0
M  V30 19027 H 2552.73 -2.54037 -6.02537 0
M  V30 19028 H 2554.21 -2.93881 -7.85526 0
M  V30 19029 H 2552.52 -2.53065 -9.86973 0
M  V30 19030 H 2552.33 -4.75072 -9.05887 0
M  V30 19031 H 2550.7 -4.05244 -8.76668 0
M  V30 19032 H 2553.34 0.177647 -6.34251 0
M  V30 19033 P 2555.19 -1.25109 -8.70152 0
M  V30 19034 O 2556.62 -1.29744 -9.22016 0
M  V30 19035 O 2554.83 -2.13714 -7.55141 0
M  V30 19036 O 2554.87 0.248149 -8.21425 0
M  V30 19037 C 2554.71 1.22779 -9.30434 0
M  V30 19038 C 2555.25 2.56293 -8.80664 0
M  V30 19039 O 2554.19 3.02979 -8.09349 0
M  V30 19040 C 2556.47 2.57523 -7.89775 0
M  V30 19041 O 2557.21 3.7668 -7.89438 0
M  V30 19042 C 2555.8 2.20997 -6.55446 0
M  V30 19043 O 2556.6 2.71895 -5.48509 0
M  V30 19044 C 2554.46 2.89693 -6.67988 0
M  V30 19045 H 2554.49 3.88793 -6.19859 0
M  V30 19046 H 2555.68 1.12046 -6.44229 0
M  V30 19047 H 2557.16 1.7746 -8.19711 0
M  V30 19048 H 2555.47 3.20706 -9.67112 0
M  V30 19049 H 2555.28 0.901032 -10.1892 0
M  V30 19050 H 2553.65 1.33049 -9.56592 0
M  V30 19051 H 2556.29 3.57847 -5.23962 0
M  V30 19052 P 2558.14 3.65191 -7.99657 0
M  V30 19053 O 2559.57 3.89332 -8.45794 0
M  V30 19054 O 2557.78 2.28472 -7.50807 0
M  V30 19055 O 2557.82 4.64972 -6.77611 0
M  V30 19056 C 2557.66 6.06319 -7.16352 0
M  V30 19057 C 2558.2 6.91731 -6.02299 0
M  V30 19058 O 2557.15 6.92449 -5.17064 0
M  V30 19059 C 2559.42 6.43627 -5.25174 0
M  V30 19060 O 2560.16 7.43686 -4.60469 0
M  V30 19061 C 2558.75 5.40275 -4.31916 0
M  V30 19062 O 2559.55 5.25279 -3.14438 0
M  V30 19063 C 2557.41 6.04847 -4.05327 0
M  V30 19064 H 2557.45 6.62195 -3.11261 0
M  V30 19065 H 2558.63 4.42556 -4.81383 0
M  V30 19066 H 2560.11 5.92458 -5.93643 0
M  V30 19067 H 2558.42 7.92655 -6.402 0
M  V30 19068 H 2558.23 6.26671 -8.0846 0
M  V30 19069 H 2556.6 6.29101 -7.32804 0
M  V30 19070 H 2559.24 5.84315 -2.47318 0
M  V30 19071 P 2561.09 7.39546 -4.75277 0
M  V30 19072 O 2562.52 7.84798 -5.01039 0
M  V30 19073 O 2560.73 5.9812 -5.08098 0
M  V30 19074 O 2560.77 7.57503 -3.1866 0
M  V30 19075 C 2560.61 8.97357 -2.74833 0
M  V30 19076 C 2561.15 9.07548 -1.32709 0
M  V30 19077 O 2560.1 8.62072 -0.606159 0
M  V30 19078 C 2562.37 8.25383 -0.938334 0
M  V30 19079 O 2563.11 8.74577 0.146954 0
M  V30 19080 C 2561.7 6.8802 -0.712559 0
M  V30 19081 O 2562.5 6.1189 0.194655 0
M  V30 19082 C 2560.36 7.27966 -0.139777 0
M  V30 19083 H 2560.4 7.25354 0.961601 0
M  V30 19084 H 2561.58 6.32557 -1.65702 0
M  V30 19085 H 2563.06 8.19355 -1.79097 0
M  V30 19086 H 2561.37 10.1294 -1.10029 0
M  V30 19087 H 2561.18 9.64276 -3.41316 0
M  V30 19088 H 2559.55 9.25417 -2.76357 0
M  V30 19089 H 2562.19 6.25267 1.07847 0
M  V30 19090 P 2564.05 8.791 2.25043e-11 0
M  V30 19091 O 2565.47 9.31096 0.027933 0
M  V30 19092 O 2563.69 7.77869 -1.04071 0
M  V30 19093 O 2563.72 8.09533 1.41463 0
M  V30 19094 C 2563.56 9.0349 2.53943 0
M  V30 19095 C 2564.1 8.35226 3.79016 0
M  V30 19096 O 2563.05 7.57992 4.15078 0
M  V30 19097 C 2565.32 7.45087 3.67298 0
M  V30 19098 O 2566.06 7.27796 4.85194 0
M  V30 19099 C 2564.65 6.17323 3.12027 0
M  V30 19100 O 2565.45 5.04231 3.47188 0
M  V30 19101 C 2563.31 6.19961 3.81809 0
M  V30 19102 H 2563.35 5.58218 4.73051 0
M  V30 19103 H 2564.53 6.21726 2.02589 0
M  V30 19104 H 2566.01 7.86112 2.9231 0
M  V30 19105 H 2564.32 9.11627 4.55076 0
M  V30 19106 H 2564.13 9.9573 2.34194 0
M  V30 19107 H 2562.5 9.2792 2.67832 0
M  V30 19108 H 2565.14 4.67702 4.28772 0
M  V30 19109 P 2567 7.39546 4.75277 0
M  V30 19110 O 2568.42 7.81777 5.05738 0
M  V30 19111 O 2566.64 7.1065 3.32998 0
M  V30 19112 O 2566.67 6.04542 5.56673 0
M  V30 19113 C 2566.51 6.22772 7.02095 0
M  V30 19114 C 2567.05 4.97725 7.70406 0
M  V30 19115 O 2566 4.13256 7.58987 0
M  V30 19116 C 2568.27 4.28231 7.11815 0
M  V30 19117 O 2569.01 3.49945 8.01648 0
M  V30 19118 C 2567.6 3.5063 5.96244 0
M  V30 19119 O 2568.4 2.36482 5.64681 0
M  V30 19120 C 2566.26 3.15122 6.56374 0
M  V30 19121 H 2566.3 2.13853 6.99751 0
M  V30 19122 H 2567.48 4.13501 5.06559 0
M  V30 19123 H 2568.96 5.03285 6.70911 0
M  V30 19124 H 2567.27 5.20877 8.75697 0
M  V30 19125 H 2567.08 7.11046 7.35349 0
M  V30 19126 H 2565.45 6.35815 7.26986 0
M  V30 19127 H 2568.09 1.61644 6.13565 0
M  V30 19128 P 2569.95 3.65191 7.99657 0
M  V30 19129 O 2571.37 3.8425 8.48115 0
M  V30 19130 O 2569.59 4.17805 6.64342 0
M  V30 19131 O 2569.62 2.07613 7.95143 0
M  V30 19132 C 2569.46 1.44328 9.27336 0
M  V30 19133 C 2570 0.0220036 9.17197 0
M  V30 19134 O 2568.95 -0.626867 8.61923 0
M  V30 19135 C 2571.22 -0.24586 8.30336 0
M  V30 19136 O 2571.96 -1.39011 8.63583 0
M  V30 19137 C 2570.55 -0.273849 6.91158 0
M  V30 19138 O 2571.35 -1.06348 6.02892 0
M  V30 19139 C 2569.22 -0.897649 7.22545 0
M  V30 19140 H 2569.25 -1.9841 7.04286 0
M  V30 19141 H 2570.43 0.739928 6.497 0
M  V30 19142 H 2571.91 0.60668 8.36503 0
M  V30 19143 H 2570.22 -0.352479 10.1829 0
M  V30 19144 H 2570.03 2.00611 10.0304 0
M  V30 19145 H 2568.4 1.41843 9.55327 0
M  V30 19146 H 2571.04 -1.95734 6.03555 0
M  V30 19147 P 2572.9 -1.25109 8.70152 0
M  V30 19148 O 2574.32 -1.35274 9.21221 0
M  V30 19149 O 2572.54 -0.0769065 7.84762 0
M  V30 19150 O 2572.57 -2.55232 7.81161 0
M  V30 19151 C 2572.41 -3.79939 8.58154 0
M  V30 19152 C 2572.95 -4.94023 7.72785 0
M  V30 19153 O 2571.9 -5.18726 6.91205 0
M  V30 19154 C 2574.17 -4.69597 6.85231 0
M  V30 19155 O 2574.91 -5.83832 6.51337 0
M  V30 19156 C 2573.5 -3.96706 5.66633 0
M  V30 19157 O 2574.3 -4.15414 4.49689 0
M  V30 19158 C 2572.17 -4.66153 5.59313 0
M  V30 19159 H 2572.2 -5.47679 4.85214 0
M  V30 19160 H 2573.38 -2.89008 5.86566 0
M  V30 19161 H 2574.87 -4.0121 7.36511 0
M  V30 19162 H 2573.17 -5.80182 8.37584 0
M  V30 19163 H 2572.98 -3.73517 9.52265 0
M  V30 19164 H 2571.35 -3.97163 8.80359 0
M  V30 19165 H 2573.99 -4.90969 4.01921 0
M  V30 19166 P 2575.85 -5.75688 6.64379 0
M  V30 19167 O 2577.27 -6.11849 7.01846 0
M  V30 19168 O 2575.49 -4.30744 6.56026 0
M  V30 19169 O 2575.52 -6.37042 5.19165 0
M  V30 19170 C 2575.36 -7.83578 5.16515 0
M  V30 19171 C 2575.9 -8.33398 3.83019 0
M  V30 19172 O 2574.85 -8.10074 3.01034 0
M  V30 19173 C 2577.12 -7.65514 3.2257 0
M  V30 19174 O 2577.86 -8.4329 2.32297 0
M  V30 19175 C 2576.45 -6.40075 2.62207 0
M  V30 19176 O 2577.25 -5.92589 1.53712 0
M  V30 19177 C 2575.12 -6.9454 2.18503 0
M  V30 19178 H 2575.15 -7.23063 1.12091 0
M  V30 19179 H 2576.33 -5.6025 3.37201 0
M  V30 19180 H 2577.82 -7.35707 4.02681 0
M  V30 19181 H 2576.12 -9.40912 3.9095 0
M  V30 19182 H 2575.93 -8.29056 5.99158 0
M  V30 19183 H 2574.3 -8.10073 5.25882 0
M  V30 19184 H 2576.94 -6.30324 0.726794 0
M  V30 19185 P 2578.8 -8.4349 2.47671 0
M  V30 19186 O 2580.22 -8.94167 2.5964 0
M  V30 19187 O 2578.44 -7.1704 3.19006 0
M  V30 19188 O 2578.48 -8.16596 0.923387 0
M  V30 19189 C 2578.32 -9.38437 0.108857 0
M  V30 19190 C 2578.86 -9.08175 -1.28353 0
M  V30 19191 O 2577.8 -8.44229 -1.84713 0
M  V30 19192 C 2580.07 -8.18386 -1.42505 0
M  V30 19193 O 2580.81 -8.3501 -2.60497 0
M  V30 19194 C 2579.4 -6.80225 -1.25468 0
M  V30 19195 O 2580.2 -5.81621 -1.91066 0
M  V30 19196 C 2578.07 -7.02416 -1.9168 0
M  V30 19197 H 2578.1 -6.6888 -2.96621 0
M  V30 19198 H 2579.28 -6.53617 -0.192223 0
M  V30 19199 H 2580.77 -8.36622 -0.589963 0
M  V30 19200 H 2579.07 -10.0291 -1.79807 0
M  V30 19201 H 2578.88 -10.2138 0.558219 0
M  V30 19202 H 2577.25 -9.6579 0.0444202 0
M  V30 19203 H 2579.89 -5.69556 -2.79637 0
M  V30 19204 P 2581.75 -8.4349 -2.47671 0
M  V30 19205 O 2583.17 -8.92785 -2.65057 0
M  V30 19206 O 2581.39 -7.7568 -1.19296 0
M  V30 19207 O 2581.43 -7.36886 -3.63805 0
M  V30 19208 C 2581.27 -7.95349 -4.982 0
M  V30 19209 C 2581.81 -6.94537 -5.98908 0
M  V30 19210 O 2580.75 -6.10347 -6.11815 0
M  V30 19211 C 2583.02 -6.11426 -5.62335 0
M  V30 19212 O 2583.76 -5.6162 -6.70584 0
M  V30 19213 C 2582.36 -5.04409 -4.73308 0
M  V30 19214 O 2583.15 -3.85929 -4.75106 0
M  V30 19215 C 2581.02 -4.8728 -5.41006 0
M  V30 19216 N 2579.97 -4.65812 -4.42377 0
M  V30 19217 C 2580.04 -5.27109 -3.24335 0
M  V30 19218 N 2578.99 -4.94293 -2.47735 0
M  V30 19219 C 2578.26 -4.1271 -3.23359 0
M  V30 19220 C 2576.95 -3.56384 -2.99934 0
M  V30 19221 O 2576.22 -3.69331 -2.00616 0
M  V30 19222 N 2576.52 -2.80206 -4.03316 0
M  V30 19223 C 2577.27 -2.58614 -5.2172 0
M  V30 19224 N 2576.67 -1.75154 -6.13278 0
M  V30 19225 N 2578.42 -3.13689 -5.47619 0
M  V30 19226 C 2578.88 -3.90921 -4.46436 0
M  V30 19227 H 2581.05 -4.02333 -6.11157 0
M  V30 19228 H 2582.23 -5.39383 -3.69487 0
M  V30 19229 H 2583.72 -6.71414 -5.02615 0
M  V30 19230 H 2582.02 -7.4649 -6.93477 0
M  V30 19231 H 2581.83 -8.89416 -5.05237 0
M  V30 19232 H 2580.2 -8.14876 -5.18409 0
M  V30 19233 H 2575.63 -2.36355 -3.95916 0
M  V30 19234 H 2580.83 -5.95212 -2.93859 0
M  V30 19235 H 2575.76 -1.32473 -5.91856 0
M  V30 19236 H 2577.14 -1.5588 -7.03026 0
M  V30 19237 H 2582.84 -3.27906 -5.43085 0
M  V30 19238 P 2584.7 -5.75688 -6.64379 0
M  V30 19239 O 2586.12 -6.07627 -7.05504 0
M  V30 19240 O 2584.34 -5.88047 -5.19722 0
M  V30 19241 O 2584.38 -4.2322 -7.04443 0
M  V30 19242 C 2584.22 -3.99743 -8.4911 0
M  V30 19243 C 2584.76 -2.60516 -8.79425 0
M  V30 19244 O 2583.7 -1.82684 -8.4467 0
M  V30 19245 C 2585.97 -2.10343 -8.03628 0
M  V30 19246 O 2586.71 -1.09919 -8.67766 0
M  V30 19247 C 2585.31 -1.68446 -6.70876 0
M  V30 19248 O 2586.1 -0.678137 -6.08433 0
M  V30 19249 C 2583.97 -1.17436 -7.18567 0
M  V30 19250 H 2584 -0.0804732 -7.31656 0
M  V30 19251 H 2585.18 -2.54037 -6.02537 0
M  V30 19252 H 2586.67 -2.93881 -7.85526 0
M  V30 19253 H 2584.97 -2.53065 -9.86973 0
M  V30 19254 H 2584.78 -4.75072 -9.05887 0
M  V30 19255 H 2583.15 -4.05244 -8.76668 0
M  V30 19256 H 2585.79 0.177647 -6.34251 0
M  V30 19257 P 2587.65 -1.25109 -8.70152 0
M  V30 19258 O 2589.07 -1.29758 -9.22115 0
M  V30 19259 O 2587.29 -2.13714 -7.55141 0
M  V30 19260 O 2587.33 0.248149 -8.21425 0
M  V30 19261 C 2587.17 1.22792 -9.30533 0
M  V30 19262 C 2587.71 2.56293 -8.80664 0
M  V30 19263 O 2586.65 3.02944 -8.09255 0
M  V30 19264 C 2588.92 2.57523 -7.89775 0
M  V30 19265 O 2589.66 3.7668 -7.89438 0
M  V30 19266 C 2588.26 2.20997 -6.55446 0
M  V30 19267 O 2589.05 2.71302 -5.48691 0
M  V30 19268 C 2586.92 2.89693 -6.67988 0
M  V30 19269 N 2585.88 2.08895 -6.07487 0
M  V30 19270 C 2586.04 0.753809 -5.94137 0
M  V30 19271 N 2585.02 0.146592 -5.38801 0
M  V30 19272 C 2584.13 1.1768 -5.13693 0
M  V30 19273 C 2582.87 1.17563 -4.52477 0
M  V30 19274 N 2582.3 2.41918 -4.45789 0
M  V30 19275 C 2582.9 3.56493 -4.90792 0
M  V30 19276 N 2584.08 3.61423 -5.47817 0
M  V30 19277 C 2584.65 2.37779 -5.5588 0
M  V30 19278 H 2588.13 1.12673 -6.44018 0
M  V30 19279 H 2589.62 1.7746 -8.19711 0
M  V30 19280 H 2587.92 3.21673 -9.66791 0
M  V30 19281 H 2587.73 0.901032 -10.1892 0
M  V30 19282 H 2586.1 1.33049 -9.56592 0
M  V30 19283 H 2586.94 0.233081 -6.26266 0
M  V30 19284 H 2588.74 3.5779 -5.23879 0
M  V30 19285 P 2590.6 3.65191 -7.99657 0
M  V30 19286 O 2592.02 3.89332 -8.45794 0
M  V30 19287 O 2590.24 2.28472 -7.50807 0
M  V30 19288 O 2590.28 4.64972 -6.77611 0
M  V30 19289 C 2590.12 6.06319 -7.16352 0
M  V30 19290 C 2590.66 6.91731 -6.02299 0
M  V30 19291 O 2589.6 6.92449 -5.17064 0
M  V30 19292 C 2591.88 6.43627 -5.25174 0
M  V30 19293 O 2592.61 7.43686 -4.60469 0
M  V30 19294 C 2591.21 5.40275 -4.31916 0
M  V30 19295 O 2592.01 5.25279 -3.14438 0
M  V30 19296 C 2589.87 6.04847 -4.05327 0
M  V30 19297 H 2589.9 6.62195 -3.11261 0
M  V30 19298 H 2591.08 4.42556 -4.81383 0
M  V30 19299 H 2592.57 5.92458 -5.93643 0
M  V30 19300 H 2590.87 7.92655 -6.402 0
M  V30 19301 H 2590.68 6.26671 -8.0846 0
M  V30 19302 H 2589.05 6.29101 -7.32804 0
M  V30 19303 H 2591.69 5.84315 -2.47318 0
M  V30 19304 P 2593.55 7.39546 -4.75277 0
M  V30 19305 O 2594.97 7.84798 -5.01039 0
M  V30 19306 O 2593.19 5.9812 -5.08098 0
M  V30 19307 O 2593.23 7.57503 -3.1866 0
M  V30 19308 C 2593.07 8.97357 -2.74833 0
M  V30 19309 C 2593.61 9.07548 -1.32709 0
M  V30 19310 O 2592.55 8.62072 -0.606159 0
M  V30 19311 C 2594.83 8.25383 -0.938334 0
M  V30 19312 O 2595.56 8.74577 0.146954 0
M  V30 19313 C 2594.16 6.8802 -0.712559 0
M  V30 19314 O 2594.96 6.1189 0.194655 0
M  V30 19315 C 2592.82 7.27966 -0.139777 0
M  V30 19316 H 2592.85 7.25354 0.961601 0
M  V30 19317 H 2594.04 6.32557 -1.65702 0
M  V30 19318 H 2595.52 8.19355 -1.79097 0
M  V30 19319 H 2593.83 10.1294 -1.10029 0
M  V30 19320 H 2593.64 9.64276 -3.41316 0
M  V30 19321 H 2592.01 9.25417 -2.76357 0
M  V30 19322 H 2594.64 6.25267 1.07847 0
M  V30 19323 P 2596.5 8.791 2.28144e-11 0
M  V30 19324 O 2597.92 9.31096 0.027933 0
M  V30 19325 O 2596.14 7.77869 -1.04071 0
M  V30 19326 O 2596.18 8.09533 1.41463 0
M  V30 19327 C 2596.02 9.0349 2.53943 0
M  V30 19328 C 2596.56 8.35226 3.79016 0
M  V30 19329 O 2595.5 7.57992 4.15078 0
M  V30 19330 C 2597.78 7.45087 3.67298 0
M  V30 19331 O 2598.51 7.27796 4.85194 0
M  V30 19332 C 2597.11 6.17323 3.12027 0
M  V30 19333 O 2597.91 5.04231 3.47188 0
M  V30 19334 C 2595.77 6.19961 3.81809 0
M  V30 19335 H 2595.8 5.58218 4.73051 0
M  V30 19336 H 2596.99 6.21726 2.02589 0
M  V30 19337 H 2598.47 7.86112 2.9231 0
M  V30 19338 H 2596.78 9.11627 4.55076 0
M  V30 19339 H 2596.59 9.9573 2.34194 0
M  V30 19340 H 2594.96 9.2792 2.67832 0
M  V30 19341 H 2597.59 4.67702 4.28772 0
M  V30 19342 P 2599.45 7.39546 4.75277 0
M  V30 19343 O 2600.87 7.81945 5.05847 0
M  V30 19344 O 2599.09 7.1065 3.32998 0
M  V30 19345 O 2599.13 6.04542 5.56673 0
M  V30 19346 C 2598.97 6.22772 7.02095 0
M  V30 19347 C 2599.51 4.97671 7.70322 0
M  V30 19348 O 2598.45 4.13256 7.58987 0
M  V30 19349 C 2600.73 4.28231 7.11815 0
M  V30 19350 O 2601.47 3.49945 8.01648 0
M  V30 19351 C 2600.06 3.5063 5.96244 0
M  V30 19352 O 2600.86 2.36443 5.64589 0
M  V30 19353 C 2598.72 3.15122 6.56374 0
M  V30 19354 N 2597.68 3.22311 5.55692 0
M  V30 19355 C 2597.74 4.14382 4.59701 0
M  V30 19356 N 2596.7 4.04476 3.76958 0
M  V30 19357 C 2595.96 3.04892 4.26534 0
M  V30 19358 C 2594.66 2.57447 3.88189 0
M  V30 19359 O 2593.92 2.9785 2.96543 0
M  V30 19360 N 2594.23 1.55228 4.65922 0
M  V30 19361 C 2594.97 1.01152 5.73447 0
M  V30 19362 N 2594.38 -0.0472117 6.37783 0
M  V30 19363 N 2596.13 1.467 6.13813 0
M  V30 19364 C 2596.58 2.4931 5.38487 0
M  V30 19365 H 2598.75 2.13853 6.99751 0
M  V30 19366 H 2599.94 4.13438 5.06482 0
M  V30 19367 H 2601.42 5.02614 6.71414 0
M  V30 19368 H 2599.73 5.20877 8.75697 0
M  V30 19369 H 2599.54 7.11046 7.35349 0
M  V30 19370 H 2597.91 6.35815 7.26986 0
M  V30 19371 H 2593.33 1.15238 4.46468 0
M  V30 19372 H 2598.54 4.88312 4.49647 0
M  V30 19373 H 2593.47 -0.396382 6.05203 0
M  V30 19374 H 2594.84 -0.484997 7.18465 0
M  V30 19375 H 2600.55 1.61619 6.13468 0
M  V30 19376 P 2602.4 3.65191 7.99657 0
M  V30 19377 O 2603.82 3.84292 8.48206 0
M  V30 19378 O 2602.04 4.17805 6.64342 0
M  V30 19379 O 2602.08 2.07613 7.95143 0
M  V30 19380 C 2601.92 1.44344 9.27435 0
M  V30 19381 C 2602.46 0.0220036 9.17197 0
M  V30 19382 O 2601.4 -0.626794 8.61824 0
M  V30 19383 C 2603.68 -0.24586 8.30336 0
M  V30 19384 O 2604.42 -1.39011 8.63583 0
M  V30 19385 C 2603.01 -0.273849 6.91158 0
M  V30 19386 O 2603.81 -1.05728 6.029 0
M  V30 19387 C 2601.67 -0.897649 7.22545 0
M  V30 19388 N 2600.63 -0.292839 6.41732 0
M  V30 19389 C 2600.8 0.950603 5.91308 0
M  V30 19390 N 2599.77 1.37732 5.21105 0
M  V30 19391 C 2598.89 0.318109 5.26039 0
M  V30 19392 C 2597.62 0.146766 4.6727 0
M  V30 19393 N 2597.05 -1.06525 4.95887 0
M  V30 19394 C 2597.66 -2.0378 5.71347 0
M  V30 19395 N 2598.83 -1.92445 6.27451 0
M  V30 19396 C 2599.41 -0.715382 6.00353 0
M  V30 19397 H 2602.89 0.733318 6.49674 0
M  V30 19398 H 2604.37 0.60668 8.36503 0
M  V30 19399 H 2602.68 -0.362662 10.1825 0
M  V30 19400 H 2602.49 2.00611 10.0304 0
M  V30 19401 H 2600.86 1.41843 9.55327 0
M  V30 19402 H 2601.7 1.54076 6.07465 0
M  V30 19403 H 2603.5 -1.95704 6.0346 0
M  V30 19404 P 2605.35 -1.25109 8.70152 0
M  V30 19405 O 2606.78 -1.35274 9.21221 0
M  V30 19406 O 2604.99 -0.0769065 7.84762 0
M  V30 19407 O 2605.03 -2.55232 7.81161 0
M  V30 19408 C 2604.87 -3.79939 8.58154 0
M  V30 19409 C 2605.41 -4.94023 7.72785 0
M  V30 19410 O 2604.35 -5.18726 6.91205 0
M  V30 19411 C 2606.63 -4.69597 6.85231 0
M  V30 19412 O 2607.37 -5.83832 6.51337 0
M  V30 19413 C 2605.96 -3.96706 5.66633 0
M  V30 19414 O 2606.76 -4.15414 4.49689 0
M  V30 19415 C 2604.62 -4.66153 5.59313 0
M  V30 19416 H 2604.65 -5.47679 4.85214 0
M  V30 19417 H 2605.84 -2.89008 5.86566 0
M  V30 19418 H 2607.32 -4.0121 7.36511 0
M  V30 19419 H 2605.63 -5.80182 8.37584 0
M  V30 19420 H 2605.44 -3.73517 9.52265 0
M  V30 19421 H 2603.81 -3.97163 8.80359 0
M  V30 19422 H 2606.45 -4.90969 4.01921 0
M  V30 19423 P 2608.3 -5.75688 6.64379 0
M  V30 19424 O 2609.73 -6.11849 7.01846 0
M  V30 19425 O 2607.94 -4.30744 6.56026 0
M  V30 19426 O 2607.98 -6.37042 5.19165 0
M  V30 19427 C 2607.82 -7.83578 5.16515 0
M  V30 19428 C 2608.36 -8.33398 3.83019 0
M  V30 19429 O 2607.3 -8.10074 3.01034 0
M  V30 19430 C 2609.58 -7.65514 3.2257 0
M  V30 19431 O 2610.32 -8.4329 2.32297 0
M  V30 19432 C 2608.91 -6.40075 2.62207 0
M  V30 19433 O 2609.71 -5.92589 1.53712 0
M  V30 19434 C 2607.57 -6.9454 2.18503 0
M  V30 19435 H 2607.6 -7.23063 1.12091 0
M  V30 19436 H 2608.79 -5.6025 3.37201 0
M  V30 19437 H 2610.27 -7.35707 4.02681 0
M  V30 19438 H 2608.58 -9.40912 3.9095 0
M  V30 19439 H 2608.39 -8.29056 5.99158 0
M  V30 19440 H 2606.76 -8.10073 5.25882 0
M  V30 19441 H 2609.4 -6.30324 0.726794 0
M  V30 19442 P 2611.25 -8.4349 2.47671 0
M  V30 19443 O 2612.68 -8.94167 2.5964 0
M  V30 19444 O 2610.89 -7.1704 3.19006 0
M  V30 19445 O 2610.93 -8.16596 0.923387 0
M  V30 19446 C 2610.77 -9.38437 0.108857 0
M  V30 19447 C 2611.31 -9.08175 -1.28353 0
M  V30 19448 O 2610.26 -8.44229 -1.84713 0
M  V30 19449 C 2612.53 -8.18386 -1.42505 0
M  V30 19450 O 2613.27 -8.3501 -2.60497 0
M  V30 19451 C 2611.86 -6.80225 -1.25468 0
M  V30 19452 O 2612.66 -5.81621 -1.91066 0
M  V30 19453 C 2610.52 -7.02416 -1.9168 0
M  V30 19454 H 2610.56 -6.6888 -2.96621 0
M  V30 19455 H 2611.74 -6.53617 -0.192223 0
M  V30 19456 H 2613.22 -8.36622 -0.589963 0
M  V30 19457 H 2611.53 -10.0291 -1.79807 0
M  V30 19458 H 2611.34 -10.2138 0.558219 0
M  V30 19459 H 2609.71 -9.6579 0.0444202 0
M  V30 19460 H 2612.35 -5.69556 -2.79637 0
M  V30 19461 P 2614.21 -8.4349 -2.47671 0
M  V30 19462 O 2615.63 -8.92593 -2.65 0
M  V30 19463 O 2613.85 -7.7568 -1.19296 0
M  V30 19464 O 2613.88 -7.36886 -3.63805 0
M  V30 19465 C 2613.72 -7.95349 -4.982 0
M  V30 19466 C 2614.26 -6.94612 -5.98974 0
M  V30 19467 O 2613.21 -6.10347 -6.11815 0
M  V30 19468 C 2615.48 -6.11426 -5.62335 0
M  V30 19469 O 2616.22 -5.6162 -6.70584 0
M  V30 19470 C 2614.81 -5.04409 -4.73308 0
M  V30 19471 O 2615.61 -3.85992 -4.75183 0
M  V30 19472 C 2613.47 -4.8728 -5.41006 0
M  V30 19473 H 2613.51 -4.02333 -6.11157 0
M  V30 19474 H 2614.69 -5.39466 -3.69543 0
M  V30 19475 H 2616.17 -6.71916 -5.01943 0
M  V30 19476 H 2614.48 -7.4649 -6.93477 0
M  V30 19477 H 2614.29 -8.89416 -5.05237 0
M  V30 19478 H 2612.66 -8.14876 -5.18409 0
M  V30 19479 H 2615.3 -3.27957 -5.4317 0
M  V30 19480 P 2617.16 -5.75688 -6.64379 0
M  V30 19481 O 2618.58 -6.07627 -7.05504 0
M  V30 19482 O 2616.8 -5.88047 -5.19722 0
M  V30 19483 O 2616.83 -4.2322 -7.04443 0
M  V30 19484 C 2616.67 -3.99743 -8.4911 0
M  V30 19485 C 2617.21 -2.60516 -8.79425 0
M  V30 19486 O 2616.16 -1.82684 -8.4467 0
M  V30 19487 C 2618.43 -2.10343 -8.03628 0
M  V30 19488 O 2619.17 -1.09919 -8.67766 0
M  V30 19489 C 2617.76 -1.68446 -6.70876 0
M  V30 19490 O 2618.56 -0.678137 -6.08433 0
M  V30 19491 C 2616.42 -1.17436 -7.18567 0
M  V30 19492 H 2616.46 -0.0804732 -7.31656 0
M  V30 19493 H 2617.64 -2.54037 -6.02537 0
M  V30 19494 H 2619.12 -2.93881 -7.85526 0
M  V30 19495 H 2617.43 -2.53065 -9.86973 0
M  V30 19496 H 2617.24 -4.75072 -9.05887 0
M  V30 19497 H 2615.61 -4.05244 -8.76668 0
M  V30 19498 H 2618.25 0.177647 -6.34251 0
M  V30 19499 P 2620.11 -1.25109 -8.70152 0
M  V30 19500 O 2621.53 -1.29744 -9.22016 0
M  V30 19501 O 2619.75 -2.13714 -7.55141 0
M  V30 19502 O 2619.78 0.248149 -8.21425 0
M  V30 19503 C 2619.62 1.22779 -9.30434 0
M  V30 19504 C 2620.16 2.56293 -8.80664 0
M  V30 19505 O 2619.11 3.02979 -8.09349 0
M  V30 19506 C 2621.38 2.57523 -7.89775 0
M  V30 19507 O 2622.12 3.7668 -7.89438 0
M  V30 19508 C 2620.71 2.20997 -6.55446 0
M  V30 19509 O 2621.51 2.71895 -5.48509 0
M  V30 19510 C 2619.38 2.89693 -6.67988 0
M  V30 19511 H 2619.41 3.88793 -6.19859 0
M  V30 19512 H 2620.59 1.12046 -6.44229 0
M  V30 19513 H 2622.07 1.7746 -8.19711 0
M  V30 19514 H 2620.38 3.20706 -9.67112 0
M  V30 19515 H 2620.19 0.901032 -10.1892 0
M  V30 19516 H 2618.56 1.33049 -9.56592 0
M  V30 19517 H 2621.2 3.57847 -5.23962 0
M  V30 19518 P 2623.06 3.65191 -7.99657 0
M  V30 19519 O 2624.48 3.89332 -8.45794 0
M  V30 19520 O 2622.7 2.28472 -7.50807 0
M  V30 19521 O 2622.73 4.64972 -6.77611 0
M  V30 19522 C 2622.57 6.06319 -7.16352 0
M  V30 19523 C 2623.11 6.91731 -6.02299 0
M  V30 19524 O 2622.06 6.92449 -5.17064 0
M  V30 19525 C 2624.33 6.43627 -5.25174 0
M  V30 19526 O 2625.07 7.43686 -4.60469 0
M  V30 19527 C 2623.66 5.40275 -4.31916 0
M  V30 19528 O 2624.46 5.25279 -3.14438 0
M  V30 19529 C 2622.33 6.04847 -4.05327 0
M  V30 19530 H 2622.36 6.62195 -3.11261 0
M  V30 19531 H 2623.54 4.42556 -4.81383 0
M  V30 19532 H 2625.02 5.92458 -5.93643 0
M  V30 19533 H 2623.33 7.92655 -6.402 0
M  V30 19534 H 2623.14 6.26671 -8.0846 0
M  V30 19535 H 2621.51 6.29101 -7.32804 0
M  V30 19536 H 2624.15 5.84315 -2.47318 0
M  V30 19537 P 2626.01 7.39546 -4.75277 0
M  V30 19538 O 2627.43 7.84798 -5.01039 0
M  V30 19539 O 2625.65 5.9812 -5.08098 0
M  V30 19540 O 2625.68 7.57503 -3.1866 0
M  V30 19541 C 2625.52 8.97357 -2.74833 0
M  V30 19542 C 2626.06 9.07548 -1.32709 0
M  V30 19543 O 2625.01 8.62072 -0.606159 0
M  V30 19544 C 2627.28 8.25383 -0.938334 0
M  V30 19545 O 2628.02 8.74577 0.146954 0
M  V30 19546 C 2626.61 6.8802 -0.712559 0
M  V30 19547 O 2627.41 6.1189 0.194655 0
M  V30 19548 C 2625.28 7.27966 -0.139777 0
M  V30 19549 H 2625.31 7.25354 0.961601 0
M  V30 19550 H 2626.49 6.32557 -1.65702 0
M  V30 19551 H 2627.98 8.19355 -1.79097 0
M  V30 19552 H 2626.28 10.1294 -1.10029 0
M  V30 19553 H 2626.09 9.64276 -3.41316 0
M  V30 19554 H 2624.46 9.25417 -2.76357 0
M  V30 19555 H 2627.1 6.25267 1.07847 0
M  V30 19556 P 2628.96 8.791 2.31246e-11 0
M  V30 19557 O 2630.38 9.31096 0.027933 0
M  V30 19558 O 2628.6 7.77869 -1.04071 0
M  V30 19559 O 2628.63 8.09533 1.41463 0
M  V30 19560 C 2628.47 9.0349 2.53943 0
M  V30 19561 C 2629.01 8.35226 3.79016 0
M  V30 19562 O 2627.96 7.57992 4.15078 0
M  V30 19563 C 2630.23 7.45087 3.67298 0
M  V30 19564 O 2630.97 7.27796 4.85194 0
M  V30 19565 C 2629.56 6.17323 3.12027 0
M  V30 19566 O 2630.36 5.04231 3.47188 0
M  V30 19567 C 2628.23 6.19961 3.81809 0
M  V30 19568 H 2628.26 5.58218 4.73051 0
M  V30 19569 H 2629.44 6.21726 2.02589 0
M  V30 19570 H 2630.93 7.86112 2.9231 0
M  V30 19571 H 2629.23 9.11627 4.55076 0
M  V30 19572 H 2629.04 9.9573 2.34194 0
M  V30 19573 H 2627.41 9.2792 2.67832 0
M  V30 19574 H 2630.05 4.67702 4.28772 0
M  V30 19575 P 2631.91 7.39546 4.75277 0
M  V30 19576 O 2633.33 7.81861 5.05793 0
M  V30 19577 O 2631.55 7.1065 3.32998 0
M  V30 19578 O 2631.59 6.04542 5.56673 0
M  V30 19579 C 2631.42 6.22839 7.02169 0
M  V30 19580 C 2631.97 4.97725 7.70406 0
M  V30 19581 O 2630.91 4.13208 7.58899 0
M  V30 19582 C 2633.18 4.28231 7.11815 0
M  V30 19583 O 2633.92 3.49945 8.01648 0
M  V30 19584 C 2632.52 3.5063 5.96244 0
M  V30 19585 O 2633.31 2.37008 5.64352 0
M  V30 19586 C 2631.18 3.15122 6.56374 0
M  V30 19587 N 2630.13 3.22311 5.55692 0
M  V30 19588 C 2630.3 3.99655 4.46046 0
M  V30 19589 N 2629.28 3.97599 3.63918 0
M  V30 19590 C 2628.39 3.11159 4.25334 0
M  V30 19591 C 2627.12 2.64972 3.85157 0
M  V30 19592 N 2626.56 1.78482 4.74759 0
M  V30 19593 C 2627.16 1.37463 5.90819 0
M  V30 19594 N 2628.34 1.7733 6.31889 0
M  V30 19595 C 2628.91 2.64393 5.43725 0
M  V30 19596 H 2632.39 4.12931 5.06895 0
M  V30 19597 H 2633.88 5.03285 6.70911 0
M  V30 19598 H 2632.18 5.20001 8.76217 0
M  V30 19599 H 2631.99 7.11046 7.35349 0
M  V30 19600 H 2630.36 6.35815 7.26986 0
M  V30 19601 H 2631.2 4.58037 4.27732 0
M  V30 19602 H 2633 1.61619 6.13468 0
M  V30 19603 P 2634.86 3.65191 7.99657 0
M  V30 19604 O 2636.28 3.8425 8.48115 0
M  V30 19605 O 2634.5 4.17805 6.64342 0
M  V30 19606 O 2634.54 2.07613 7.95143 0
M  V30 19607 C 2634.38 1.44328 9.27336 0
M  V30 19608 C 2634.92 0.0220036 9.17197 0
M  V30 19609 O 2633.86 -0.626867 8.61923 0
M  V30 19610 C 2636.13 -0.24586 8.30336 0
M  V30 19611 O 2636.87 -1.39011 8.63583 0
M  V30 19612 C 2635.47 -0.273849 6.91158 0
M  V30 19613 O 2636.26 -1.06348 6.02892 0
M  V30 19614 C 2634.13 -0.897649 7.22545 0
M  V30 19615 H 2634.16 -1.9841 7.04286 0
M  V30 19616 H 2635.34 0.739928 6.497 0
M  V30 19617 H 2636.83 0.60668 8.36503 0
M  V30 19618 H 2635.13 -0.352479 10.1829 0
M  V30 19619 H 2634.94 2.00611 10.0304 0
M  V30 19620 H 2633.31 1.41843 9.55327 0
M  V30 19621 H 2635.95 -1.95734 6.03555 0
M  V30 19622 P 2637.81 -1.25109 8.70152 0
M  V30 19623 O 2639.23 -1.35288 9.2132 0
M  V30 19624 O 2637.45 -0.0769065 7.84762 0
M  V30 19625 O 2637.49 -2.55232 7.81161 0
M  V30 19626 C 2637.33 -3.79979 8.58246 0
M  V30 19627 C 2637.87 -4.94023 7.72785 0
M  V30 19628 O 2636.81 -5.18666 6.91125 0
M  V30 19629 C 2639.08 -4.69597 6.85231 0
M  V30 19630 O 2639.82 -5.83832 6.51337 0
M  V30 19631 C 2638.42 -3.96706 5.66633 0
M  V30 19632 O 2639.21 -4.14896 4.5003 0
M  V30 19633 C 2637.08 -4.66153 5.59313 0
M  V30 19634 N 2636.04 -3.71582 5.24027 0
M  V30 19635 C 2636.2 -2.39715 5.48833 0
M  V30 19636 N 2635.18 -1.65863 5.12845 0
M  V30 19637 C 2634.29 -2.57637 4.5973 0
M  V30 19638 C 2633.03 -2.40278 4.01027 0
M  V30 19639 N 2632.43 -1.19549 3.86744 0
M  V30 19640 N 2632.46 -3.57711 3.59575 0
M  V30 19641 C 2633.06 -4.80324 3.70476 0
M  V30 19642 N 2634.24 -5.01121 4.23801 0
M  V30 19643 C 2634.81 -3.84757 4.66372 0
M  V30 19644 H 2637.11 -5.47604 4.85148 0
M  V30 19645 H 2638.29 -2.8955 5.86187 0
M  V30 19646 H 2639.78 -4.0121 7.36511 0
M  V30 19647 H 2638.08 -5.81019 8.37003 0
M  V30 19648 H 2637.89 -3.73517 9.52265 0
M  V30 19649 H 2636.26 -3.97163 8.80359 0
M  V30 19650 H 2632.53 -5.66348 3.3183 0
M  V30 19651 H 2637.1 -1.98804 5.94332 0
M  V30 19652 H 2631.5 -1.13147 3.4281 0
M  V30 19653 H 2632.9 -0.344074 4.19692 0
M  V30 19654 H 2638.9 -4.90891 4.01857 0
M  V30 19655 P 2640.76 -5.75688 6.64379 0
M  V30 19656 O 2642.18 -6.11849 7.01846 0
M  V30 19657 O 2640.4 -4.30744 6.56026 0
M  V30 19658 O 2640.44 -6.37042 5.19165 0
M  V30 19659 C 2640.28 -7.83578 5.16515 0
M  V30 19660 C 2640.82 -8.33398 3.83019 0
M  V30 19661 O 2639.76 -8.10074 3.01034 0
M  V30 19662 C 2642.04 -7.65514 3.2257 0
M  V30 19663 O 2642.77 -8.4329 2.32297 0
M  V30 19664 C 2641.37 -6.40075 2.62207 0
M  V30 19665 O 2642.17 -5.92589 1.53712 0
M  V30 19666 C 2640.03 -6.9454 2.18503 0
M  V30 19667 H 2640.06 -7.23063 1.12091 0
M  V30 19668 H 2641.24 -5.6025 3.37201 0
M  V30 19669 H 2642.73 -7.35707 4.02681 0
M  V30 19670 H 2641.03 -9.40912 3.9095 0
M  V30 19671 H 2640.84 -8.29056 5.99158 0
M  V30 19672 H 2639.21 -8.10073 5.25882 0
M  V30 19673 H 2641.85 -6.30324 0.726794 0
M  V30 19674 P 2643.71 -8.4349 2.47671 0
M  V30 19675 O 2645.13 -8.94167 2.5964 0
M  V30 19676 O 2643.35 -7.1704 3.19006 0
M  V30 19677 O 2643.39 -8.16596 0.923387 0
M  V30 19678 C 2643.23 -9.38437 0.108857 0
M  V30 19679 C 2643.77 -9.08175 -1.28353 0
M  V30 19680 O 2642.71 -8.44229 -1.84713 0
M  V30 19681 C 2644.99 -8.18386 -1.42505 0
M  V30 19682 O 2645.72 -8.3501 -2.60497 0
M  V30 19683 C 2644.32 -6.80225 -1.25468 0
M  V30 19684 O 2645.12 -5.81621 -1.91066 0
M  V30 19685 C 2642.98 -7.02416 -1.9168 0
M  V30 19686 H 2643.01 -6.6888 -2.96621 0
M  V30 19687 H 2644.19 -6.53617 -0.192223 0
M  V30 19688 H 2645.68 -8.36622 -0.589963 0
M  V30 19689 H 2643.98 -10.0291 -1.79807 0
M  V30 19690 H 2643.79 -10.2138 0.558219 0
M  V30 19691 H 2642.16 -9.6579 0.0444202 0
M  V30 19692 H 2644.8 -5.69556 -2.79637 0
M  V30 19693 P 2646.66 -8.4349 -2.47671 0
M  V30 19694 O 2648.08 -8.92593 -2.65 0
M  V30 19695 O 2646.3 -7.7568 -1.19296 0
M  V30 19696 O 2646.34 -7.36886 -3.63805 0
M  V30 19697 C 2646.18 -7.95349 -4.982 0
M  V30 19698 C 2646.72 -6.94612 -5.98974 0
M  V30 19699 O 2645.66 -6.10347 -6.11815 0
M  V30 19700 C 2647.94 -6.11426 -5.62335 0
M  V30 19701 O 2648.67 -5.6162 -6.70584 0
M  V30 19702 C 2647.27 -5.04409 -4.73308 0
M  V30 19703 O 2648.07 -3.85992 -4.75183 0
M  V30 19704 C 2645.93 -4.8728 -5.41006 0
M  V30 19705 H 2645.96 -4.02333 -6.11157 0
M  V30 19706 H 2647.15 -5.39466 -3.69543 0
M  V30 19707 H 2648.63 -6.71916 -5.01943 0
M  V30 19708 H 2646.94 -7.4649 -6.93477 0
M  V30 19709 H 2646.75 -8.89416 -5.05237 0
M  V30 19710 H 2645.12 -8.14876 -5.18409 0
M  V30 19711 H 2647.75 -3.27957 -5.4317 0
M  V30 19712 P 2649.61 -5.75688 -6.64379 0
M  V30 19713 O 2651.03 -6.07627 -7.05504 0
M  V30 19714 O 2649.25 -5.88047 -5.19722 0
M  V30 19715 O 2649.29 -4.2322 -7.04443 0
M  V30 19716 C 2649.13 -3.99743 -8.4911 0
M  V30 19717 C 2649.67 -2.60516 -8.79425 0
M  V30 19718 O 2648.61 -1.82684 -8.4467 0
M  V30 19719 C 2650.89 -2.10343 -8.03628 0
M  V30 19720 O 2651.62 -1.09919 -8.67766 0
M  V30 19721 C 2650.22 -1.68446 -6.70876 0
M  V30 19722 O 2651.02 -0.678137 -6.08433 0
M  V30 19723 C 2648.88 -1.17436 -7.18567 0
M  V30 19724 H 2648.91 -0.0804732 -7.31656 0
M  V30 19725 H 2650.1 -2.54037 -6.02537 0
M  V30 19726 H 2651.58 -2.93881 -7.85526 0
M  V30 19727 H 2649.89 -2.53065 -9.86973 0
M  V30 19728 H 2649.7 -4.75072 -9.05887 0
M  V30 19729 H 2648.07 -4.05244 -8.76668 0
M  V30 19730 H 2650.7 0.177647 -6.34251 0
M  V30 19731 P 2652.56 -1.25109 -8.70152 0
M  V30 19732 O 2653.98 -1.29744 -9.22016 0
M  V30 19733 O 2652.2 -2.13714 -7.55141 0
M  V30 19734 O 2652.24 0.248149 -8.21425 0
M  V30 19735 C 2652.08 1.22779 -9.30434 0
M  V30 19736 C 2652.62 2.56293 -8.80664 0
M  V30 19737 O 2651.56 3.02979 -8.09349 0
M  V30 19738 C 2653.84 2.57523 -7.89775 0
M  V30 19739 O 2654.58 3.7668 -7.89438 0
M  V30 19740 C 2653.17 2.20997 -6.55446 0
M  V30 19741 O 2653.97 2.71895 -5.48509 0
M  V30 19742 C 2651.83 2.89693 -6.67988 0
M  V30 19743 H 2651.86 3.88793 -6.19859 0
M  V30 19744 H 2653.05 1.12046 -6.44229 0
M  V30 19745 H 2654.53 1.7746 -8.19711 0
M  V30 19746 H 2652.84 3.20706 -9.67112 0
M  V30 19747 H 2652.65 0.901032 -10.1892 0
M  V30 19748 H 2651.02 1.33049 -9.56592 0
M  V30 19749 H 2653.66 3.57847 -5.23962 0
M  V30 19750 P 2655.51 3.65191 -7.99657 0
M  V30 19751 O 2656.93 3.89332 -8.45794 0
M  V30 19752 O 2655.15 2.28472 -7.50807 0
M  V30 19753 O 2655.19 4.64972 -6.77611 0
M  V30 19754 C 2655.03 6.06319 -7.16352 0
M  V30 19755 C 2655.57 6.91731 -6.02299 0
M  V30 19756 O 2654.51 6.92449 -5.17064 0
M  V30 19757 C 2656.79 6.43627 -5.25174 0
M  V30 19758 O 2657.53 7.43686 -4.60469 0
M  V30 19759 C 2656.12 5.40275 -4.31916 0
M  V30 19760 O 2656.92 5.25279 -3.14438 0
M  V30 19761 C 2654.78 6.04847 -4.05327 0
M  V30 19762 H 2654.81 6.62195 -3.11261 0
M  V30 19763 H 2656 4.42556 -4.81383 0
M  V30 19764 H 2657.48 5.92458 -5.93643 0
M  V30 19765 H 2655.79 7.92655 -6.402 0
M  V30 19766 H 2655.6 6.26671 -8.0846 0
M  V30 19767 H 2653.97 6.29101 -7.32804 0
M  V30 19768 H 2656.61 5.84315 -2.47318 0
M  V30 19769 P 2658.46 7.39546 -4.75277 0
M  V30 19770 O 2659.89 7.84798 -5.01039 0
M  V30 19771 O 2658.1 5.9812 -5.08098 0
M  V30 19772 O 2658.14 7.57503 -3.1866 0
M  V30 19773 C 2657.98 8.97357 -2.74833 0
M  V30 19774 C 2658.52 9.07548 -1.32709 0
M  V30 19775 O 2657.46 8.62072 -0.606159 0
M  V30 19776 C 2659.74 8.25383 -0.938334 0
M  V30 19777 O 2660.48 8.74577 0.146954 0
M  V30 19778 C 2659.07 6.8802 -0.712559 0
M  V30 19779 O 2659.87 6.1189 0.194655 0
M  V30 19780 C 2657.73 7.27966 -0.139777 0
M  V30 19781 H 2657.76 7.25354 0.961601 0
M  V30 19782 H 2658.95 6.32557 -1.65702 0
M  V30 19783 H 2660.43 8.19355 -1.79097 0
M  V30 19784 H 2658.74 10.1294 -1.10029 0
M  V30 19785 H 2658.55 9.64276 -3.41316 0
M  V30 19786 H 2656.92 9.25417 -2.76357 0
M  V30 19787 H 2659.56 6.25267 1.07847 0
M  V30 19788 P 2661.41 8.791 2.04365e-11 0
M  V30 19789 O 2662.84 9.31096 0.027933 0
M  V30 19790 O 2661.05 7.77869 -1.04071 0
M  V30 19791 O 2661.09 8.09533 1.41463 0
M  V30 19792 C 2660.93 9.0349 2.53943 0
M  V30 19793 C 2661.47 8.35226 3.79016 0
M  V30 19794 O 2660.42 7.57992 4.15078 0
M  V30 19795 C 2662.69 7.45087 3.67298 0
M  V30 19796 O 2663.43 7.27796 4.85194 0
M  V30 19797 C 2662.02 6.17323 3.12027 0
M  V30 19798 O 2662.82 5.04231 3.47188 0
M  V30 19799 C 2660.68 6.19961 3.81809 0
M  V30 19800 H 2660.72 5.58218 4.73051 0
M  V30 19801 H 2661.9 6.21726 2.02589 0
M  V30 19802 H 2663.38 7.86112 2.9231 0
M  V30 19803 H 2661.69 9.11627 4.55076 0
M  V30 19804 H 2661.5 9.9573 2.34194 0
M  V30 19805 H 2659.87 9.2792 2.67832 0
M  V30 19806 H 2662.51 4.67702 4.28772 0
M  V30 19807 H 2665.06 6.95226 4.42681 0
M  V30 END ATOM
M  V30 BEGIN BOND
M  V30 END BOND
M  V30 END CTAB
M  END
$$$$
