drugbank_target|Q14500 ATP-sensitive inward rectifier potassium channel 12 (DB00243; DB01110; DB04855)
 OpenBabel12092119483D

  0  0  0     0  0            999 V3000
M  V30 BEGIN CTAB
M  V30 COUNTS 6834 6906 0 0 0
M  V30 BEGIN ATOM
M  V30 1 H -0.908 1.98254 -0.117106 0
M  V30 2 N 0 1.576 0 0
M  V30 3 C 0.933 2.03868 1.02534 0
M  V30 4 C 1.911 0.928543 1.3348 0
M  V30 5 O 3.095 1.19667 1.45644 0
M  V30 6 C 0.222 2.43627 2.35294 0
M  V30 7 C -0.732 3.65373 2.2001 0
M  V30 8 S 0.101 5.13292 1.52614 0
M  V30 9 C 1.257 5.56322 2.86805 0
M  V30 10 H 1.49 2.90518 0.631377 0
M  V30 11 H -0.977 1.52953 0.210867 0
M  V30 12 H 0.981 2.67203 3.11629 0
M  V30 13 H -0.358 1.57376 2.7183 0
M  V30 14 H -1.165 3.90944 3.18086 0
M  V30 15 H -1.563 3.418 1.51819 0
M  V30 16 H 0.729 5.58782 3.83104 0
M  V30 17 H 1.672 6.56266 2.65933 0
M  V30 18 H 2.08 4.83886 2.90714 0
M  V30 19 N 1.4781 -0.272755 1.55222 0
M  V30 20 C 2.7061 -1.02255 1.79865 0
M  V30 21 C 3.1211 -1.79924 0.572088 0
M  V30 22 O 2.4781 -1.76638 -0.458842 0
M  V30 23 C 2.5291 -1.98094 3.02392 0
M  V30 24 O 2.2501 -1.23572 4.20311 0
M  V30 25 C 3.7511 -2.84884 3.39641 0
M  V30 26 H 0.9711 -0.302057 0.599168 0
M  V30 27 H 3.5151 -0.303465 2.02236 0
M  V30 28 H 1.6701 -2.65465 2.82147 0
M  V30 29 H 2.0841 -1.88172 4.89583 0
M  V30 30 H 3.5581 -3.47927 4.28545 0
M  V30 31 H 4.0351 -3.54665 2.59055 0
M  V30 32 H 4.6411 -2.23003 3.62146 0
M  V30 33 N 2.9562 -1.48159 -0.537278 0
M  V30 34 C 3.9192 -1.61665 -1.62472 0
M  V30 35 C 4.9192 -0.490395 -1.5314 0
M  V30 36 O 6.1092 -0.755998 -1.5694 0
M  V30 37 C 3.2412 -1.57997 -3.02076 0
M  V30 38 H 4.4342 -2.58621 -1.51839 0
M  V30 39 H 1.9872 -1.36647 -0.758771 0
M  V30 40 H 2.7222 -0.624913 -3.18222 0
M  V30 41 H 2.5072 -2.39755 -3.10258 0
M  V30 42 H 3.9972 -1.70627 -3.81151 0
M  V30 43 N 4.4343 0.785586 -1.36625 0
M  V30 44 C 5.3973 1.87999 -1.31107 0
M  V30 45 C 6.3973 1.59316 -0.217959 0
M  V30 46 O 7.5873 1.67656 -0.472977 0
M  V30 47 C 4.7193 3.24861 -1.03334 0
M  V30 48 H 5.9123 1.94307 -2.2844 0
M  V30 49 H 3.4653 0.983813 -1.21453 0
M  V30 50 H 4.2003 3.24235 -0.0647432 0
M  V30 51 H 3.9853 3.4707 -1.82441 0
M  V30 52 H 5.4753 4.04929 -1.02088 0
M  V30 53 N 5.9124 1.20967 1.01018 0
M  V30 54 C 7.1374 1.0503 1.78839 0
M  V30 55 C 7.5624 -0.395752 1.8389 0
M  V30 56 O 6.9204 -1.28529 1.27867 0
M  V30 57 C 6.9684 1.64602 3.2084 0
M  V30 58 O 6.0724 0.887988 4.02726 0
M  V30 59 H 5.4134 0.369987 0.551367 0
M  V30 60 H 7.9434 1.60399 1.27018 0
M  V30 61 H 7.9534 1.68607 3.71532 0
M  V30 62 H 6.6284 2.69841 3.16479 0
M  V30 63 H 5.2054 0.922648 3.61305 0
M  V30 64 N 7.3905 -1.2043 1.01659 0
M  V30 65 C 8.8065 -1.41852 0.731442 0
M  V30 66 C 9.0065 -1.89358 -0.688898 0
M  V30 67 O 8.0625 -2.06247 -1.45666 0
M  V30 68 C 9.3755 -2.44019 1.75714 0
M  V30 69 C 10.9235 -2.57785 1.77527 0
M  V30 70 C 11.3985 -3.63194 2.79023 0
M  V30 71 N 12.8895 -3.70678 2.77763 0
M  V30 72 C 13.6245 -4.51897 3.52954 0
M  V30 73 N 13.1205 -5.36921 4.37821 0
M  V30 74 N 14.9135 -4.4643 3.41551 0
M  V30 75 H 7.0645 -0.879093 1.93354 0
M  V30 76 H 9.3275 -0.448425 0.835236 0
M  V30 77 H 9.0335 -2.1611 2.77469 0
M  V30 78 H 8.9075 -3.43007 1.56927 0
M  V30 79 H 11.2945 -2.85023 0.764569 0
M  V30 80 H 11.3755 -1.58992 2.00387 0
M  V30 81 H 11.0195 -3.36699 3.80258 0
M  V30 82 H 10.9495 -4.61609 2.53425 0
M  V30 83 H 13.4405 -3.09944 2.16201 0
M  V30 84 H 13.7535 -5.95981 4.91962 0
M  V30 85 H 12.0985 -5.36424 4.41899 0
M  V30 86 H 15.2895 -3.79042 2.74672 0
M  V30 87 H 15.4625 -5.09491 4.00404 0
M  V30 88 N 8.8686 -0.792821 -1.36206 0
M  V30 89 C 9.8316 -0.199459 -2.2833 0
M  V30 90 C 10.8316 0.605189 -1.48977 0
M  V30 91 O 12.0216 0.425685 -1.68919 0
M  V30 92 C 9.1536 0.723523 -3.33134 0
M  V30 93 H 10.3466 -1.01181 -2.82316 0
M  V30 94 H 7.8996 -0.562485 -1.45828 0
M  V30 95 H 8.6346 1.56008 -2.84309 0
M  V30 96 H 8.4196 0.148436 -3.91819 0
M  V30 97 H 9.9096 1.13344 -4.01924 0
M  V30 98 N 10.3467 1.47872 -0.545128 0
M  V30 99 C 11.2947 2.31533 0.222512 0
M  V30 100 C 12.2887 1.42177 0.920985 0
M  V30 101 O 13.4947 1.59005 0.843645 0
M  V30 102 H 9.8697 0.746519 0.0906278 0
M  V30 103 H 11.8407 2.94139 -0.50246 0
M  V30 104 C 10.5897 3.2457 1.24699 0
M  V30 105 H 9.9127 3.93283 0.718944 0
M  V30 106 H 11.3527 3.85963 1.75523 0
M  V30 107 C 9.8117 2.47237 2.28856 0
M  V30 108 O 10.3417 2.20808 3.35569 0
M  V30 109 N 8.5477 2.08461 2.02466 0
M  V30 110 H 8.0947 2.30155 1.157 0
M  V30 111 H 8.0527 1.57033 2.72375 0
M  V30 112 N 11.8248 0.280983 1.55075 0
M  V30 113 C 13.2358 -0.215629 1.85451 0
M  V30 114 C 13.5868 -1.54991 1.203 0
M  V30 115 O 12.7118 -2.10699 0.493435 0
M  V30 116 C 13.3068 -0.398026 3.36454 0
M  V30 117 C 11.8658 -0.838866 3.66933 0
M  V30 118 C 11.0128 0.064458 2.77225 0
M  V30 119 H 13.9638 0.502601 1.50531 0
M  V30 120 H 13.9848 -1.23569 3.59876 0
M  V30 121 H 13.4968 0.573241 3.83843 0
M  V30 122 H 11.5978 -1.8214 3.25048 0
M  V30 123 H 11.7108 -0.672123 4.74362 0
M  V30 124 H 10.0748 -0.452863 2.50642 0
M  V30 125 H 10.8578 1.03172 3.2743 0
M  V30 126 N 13.3029 -1.57598 0.00835791 0
M  V30 127 C 14.5329 -1.94931 -0.684496 0
M  V30 128 C 14.9409 -0.882233 -1.67372 0
M  V30 129 O 14.2839 0.146621 -1.83114 0
M  V30 130 C 14.3459 -3.283 -1.4649 0
M  V30 131 C 14.0099 -4.52548 -0.63634 0
M  V30 132 C 15.0069 -5.19839 0.0795586 0
M  V30 133 C 12.6919 -4.98942 -0.579849 0
M  V30 134 C 14.6859 -6.3183 0.840843 0
M  V30 135 C 12.3729 -6.10819 0.185155 0
M  V30 136 C 13.3709 -6.77121 0.894227 0
M  V30 137 O 13.0589 -7.86853 1.64673 0
M  V30 138 H 12.7909 -0.647249 -0.19505 0
M  V30 139 H 15.3449 -2.05318 0.0581272 0
M  V30 140 H 13.5749 -3.14345 -2.2522 0
M  V30 141 H 15.2639 -3.50685 -2.04389 0
M  V30 142 H 16.0299 -4.84979 0.0451202 0
M  V30 143 H 11.9089 -4.47155 -1.1213 0
M  V30 144 H 15.4529 -6.83513 1.39483 0
M  V30 145 H 11.3499 -6.4512 0.221384 0
M  V30 146 H 12.1179 -8.03412 1.56432 0
M  V30 147 N 14.781 0.264519 -1.55364 0
M  V30 148 C 16.006 1.01726 -1.80739 0
M  V30 149 C 16.431 1.78836 -0.583044 0
M  V30 150 O 15.789 1.75167 0.467566 0
M  V30 151 C 15.837 1.94482 -3.03659 0
M  V30 152 O 14.941 3.03386 -2.7934 0
M  V30 153 H 14.282 0.290395 -0.597132 0
M  V30 154 H 16.812 0.290854 -2.02522 0
M  V30 155 H 16.822 2.36278 -3.32621 0
M  V30 156 H 15.497 1.37772 -3.92418 0
M  V30 157 H 14.074 2.65844 -2.61498 0
M  V30 158 N 16.2591 1.48442 0.529413 0
M  V30 159 C 17.5081 1.55742 1.28169 0
M  V30 160 C 17.8211 0.236511 1.94165 0
M  V30 161 O 19.0271 0.187761 2.7085 0
M  V30 162 C 17.4831 2.74667 2.32564 0
M  V30 163 C 17.0911 4.13402 1.72636 0
M  V30 164 C 18.8351 2.9128 3.08798 0
M  V30 165 C 16.7421 5.23587 2.74975 0
M  V30 166 H 15.6721 0.579796 0.48203 0
M  V30 167 H 18.3231 1.74776 0.559056 0
M  V30 168 H 16.7051 2.49067 3.07866 0
M  V30 169 H 17.8791 4.49022 1.03519 0
M  V30 170 H 16.1941 4.0191 1.08892 0
M  V30 171 H 18.7911 3.70767 3.85274 0
M  V30 172 H 19.1341 2.00757 3.64695 0
M  V30 173 H 19.6671 3.16782 2.40611 0
M  V30 174 H 16.4061 6.16076 2.23897 0
M  V30 175 H 15.9261 4.92454 3.42417 0
M  V30 176 H 17.6051 5.51724 3.37949 0
M  V30 177 N 17.7372 -0.778329 1.37039 0
M  V30 178 C 18.9832 -1.53892 1.32079 0
M  V30 179 C 19.3162 -1.9396 -0.0965386 0
M  V30 180 O 18.5912 -1.63568 -1.05242 0
M  V30 181 C 18.8742 -2.80847 2.25382 0
M  V30 182 C 18.7272 -2.47076 3.75864 0
M  V30 183 C 20.0462 -3.82741 2.1725 0
M  V30 184 H 17.1652 -0.558303 0.48111 0
M  V30 185 H 19.8072 -0.893397 1.67685 0
M  V30 186 H 17.9572 -3.35931 1.95148 0
M  V30 187 H 19.6292 -1.97957 4.16666 0
M  V30 188 H 17.8722 -1.79863 3.94755 0
M  V30 189 H 18.5432 -3.37798 4.36574 0
M  V30 190 H 21.0192 -3.37133 2.43887 0
M  V30 191 H 19.8952 -4.69303 2.84686 0
M  V30 192 H 20.1562 -4.2652 1.16331 0
M  V30 193 N 19.2153 -1.21501 -1.00376 0
M  V30 194 C 20.4403 -1.05977 -1.78279 0
M  V30 195 C 20.8653 0.385994 -1.84097 0
M  V30 196 O 20.2233 1.27849 -1.28547 0
M  V30 197 C 20.2713 -1.66302 -3.19963 0
M  V30 198 O 19.3753 -0.909333 -4.0225 0
M  V30 199 H 18.7163 -0.372906 -0.549397 0
M  V30 200 H 21.2463 -1.6107 -1.26165 0
M  V30 201 H 21.2563 -1.70574 -3.70632 0
M  V30 202 H 19.9313 -2.71515 -3.15043 0
M  V30 203 H 18.5083 -0.941795 -3.60811 0
M  V30 204 N 20.6934 1.19889 -1.02296 0
M  V30 205 C 21.9184 1.9393 -0.735237 0
M  V30 206 C 22.3434 1.74639 0.698782 0
M  V30 207 O 21.7014 1.04481 1.48167 0
M  V30 208 C 21.7494 3.43916 -1.08417 0
M  V30 209 O 20.8534 4.11917 -0.199446 0
M  V30 210 H 20.1944 0.605645 -0.272196 0
M  V30 211 H 22.7244 1.52137 -1.36804 0
M  V30 212 H 22.7344 3.9456 -1.03856 0
M  V30 213 H 21.4094 3.5728 -2.12894 0
M  V30 214 H 19.9864 3.71666 -0.303136 0
M  V30 215 N 22.1715 0.800033 1.35784 0
M  V30 216 C 23.0815 0.207204 2.33683 0
M  V30 217 C 24.0975 -0.64631 1.61551 0
M  V30 218 O 25.2735 -0.559604 1.93469 0
M  V30 219 C 22.3385 -0.639659 3.40748 0
M  V30 220 C 21.3995 0.233585 4.28664 0
M  V30 221 C 20.6325 -0.572954 5.30616 0
M  V30 222 O 20.8555 -1.80816 5.40982 0
M  V30 223 O 19.7895 0.0327285 6.01891 0
M  V30 224 H 23.6155 1.01692 2.86169 0
M  V30 225 H 21.2005 0.561691 1.38439 0
M  V30 226 H 23.0825 -1.12223 4.06182 0
M  V30 227 H 21.7575 -1.42708 2.90544 0
M  V30 228 H 20.6645 0.763147 3.66233 0
M  V30 229 H 21.9975 0.984784 4.82248 0
M  V30 230 N 23.6496 -1.47581 0.552962 0
M  V30 231 C 24.5596 -2.33743 -0.200353 0
M  V30 232 C 25.5756 -1.47928 -0.916151 0
M  V30 233 O 26.7516 -1.80865 -0.885993 0
M  V30 234 C 23.8166 -3.24536 -1.21973 0
M  V30 235 C 22.8776 -4.26238 -0.511819 0
M  V30 236 C 22.1106 -5.12693 -1.48263 0
M  V30 237 O 22.3336 -5.01525 -2.71714 0
M  V30 238 O 21.2676 -5.93375 -1.00945 0
M  V30 239 H 25.0936 -2.9945 0.506304 0
M  V30 240 H 22.6786 -1.46071 0.313622 0
M  V30 241 H 24.5606 -3.80631 -1.80827 0
M  V30 242 H 23.2356 -2.61462 -1.90839 0
M  V30 243 H 22.1426 -3.73914 0.117799 0
M  V30 244 H 23.4756 -4.92014 0.135308 0
M  V30 245 N 25.1277 -0.289203 -1.54924 0
M  V30 246 C 26.4047 0.376032 -1.91951 0
M  V30 247 C 26.7847 1.72622 -1.21511 0
M  V30 248 O 26.1327 2.25853 -0.346767 0
M  V30 249 C 26.3427 0.502378 -3.45365 0
M  V30 250 C 27.6907 0.778741 -4.17398 0
M  V30 251 O 28.7147 0.586647 -3.51336 0
M  V30 252 O 27.5737 1.14698 -5.34328 0
M  V30 253 H 24.6677 0.208167 -0.800372 0
M  V30 254 H 27.2137 -0.336394 -1.66332 0
M  V30 255 H 25.9857 -0.447255 -3.88736 0
M  V30 256 H 25.6087 1.26373 -3.76982 0
M  V30 257 N 26.6058 1.57591 -0.0167156 0
M  V30 258 C 27.8538 1.90906 0.663285 0
M  V30 259 C 28.1748 0.892509 1.73376 0
M  V30 260 O 27.4448 -0.0677623 1.95783 0
M  V30 261 H 26.0248 0.704637 0.247983 0
M  V30 262 H 28.6868 1.94803 -0.0615909 0
M  V30 263 H 27.7828 2.9116 1.12393 0
M  V30 264 N 28.0839 -0.256276 1.55502 0
M  V30 265 C 29.0139 -1.32102 1.92539 0
M  V30 266 C 29.9949 -1.50684 0.789194 0
M  V30 267 O 31.1799 -1.63449 1.04872 0
M  V30 268 C 28.3099 -2.67752 2.21192 0
M  V30 269 C 27.2639 -2.63878 3.36975 0
M  V30 270 C 26.5899 -4.03236 3.51147 0
M  V30 271 C 27.8899 -2.21682 4.72921 0
M  V30 272 H 29.5839 -1.01351 2.81724 0
M  V30 273 H 27.1299 -0.486105 1.35547 0
M  V30 274 H 29.0829 -3.42365 2.45691 0
M  V30 275 H 27.8069 -3.0012 1.28824 0
M  V30 276 H 26.4659 -1.91722 3.12471 0
M  V30 277 H 26.1139 -4.32854 2.56216 0
M  V30 278 H 25.8139 -4.01535 4.29003 0
M  V30 279 H 27.3379 -4.79563 3.77957 0
M  V30 280 H 28.7519 -2.86023 4.96854 0
M  V30 281 H 27.1489 -2.3111 5.53812 0
M  V30 282 H 28.2189 -1.16833 4.70615 0
M  V30 283 N 29.562 -1.4872 -0.521534 0
M  V30 284 C 30.512 -1.60269 -1.62166 0
M  V30 285 C 31.496 -0.45935 -1.54204 0
M  V30 286 O 32.688 -0.711241 -1.62081 0
M  V30 287 C 29.817 -1.65344 -3.00859 0
M  V30 288 C 28.903 -2.85187 -3.13894 0
M  V30 289 N 29.294 -4.09509 -2.96877 0
M  V30 290 C 27.592 -2.82695 -3.44963 0
M  V30 291 C 28.293 -4.89959 -3.13552 0
M  V30 292 N 27.269 -4.22934 -3.41508 0
M  V30 293 H 31.071 -2.5413 -1.47632 0
M  V30 294 H 28.585 -1.45209 -0.727194 0
M  V30 295 H 30.582 -1.71713 -3.79895 0
M  V30 296 H 29.242 -0.726058 -3.16478 0
M  V30 297 H 30.253 -4.39814 -2.73467 0
M  V30 298 H 26.93 -1.99249 -3.66887 0
M  V30 299 H 28.32 -5.98654 -3.05061 0
M  V30 300 N 31.0401 0.771051 -1.3745 0
M  V30 301 C 31.9701 1.89827 -1.3597 0
M  V30 302 C 32.9511 1.68562 -0.228216 0
M  V30 303 O 34.1361 1.8941 -0.428675 0
M  V30 304 C 31.2661 3.2712 -1.16662 0
M  V30 305 C 30.2201 3.6295 -2.2683 0
M  V30 306 C 29.5461 4.98791 -1.92644 0
M  V30 307 C 30.8461 3.69627 -3.69017 0
M  V30 308 H 32.5401 1.91323 -2.30295 0
M  V30 309 H 30.0861 0.919082 -1.10855 0
M  V30 310 H 32.0391 4.05615 -1.14256 0
M  V30 311 H 30.7631 3.26059 -0.187926 0
M  V30 312 H 29.4221 2.86763 -2.28392 0
M  V30 313 H 29.0701 4.94271 -0.933021 0
M  V30 314 H 28.7701 5.23733 -2.66416 0
M  V30 315 H 30.2941 5.79685 -1.91826 0
M  V30 316 H 31.7081 4.38273 -3.69581 0
M  V30 317 H 30.1051 4.06067 -4.41848 0
M  V30 318 H 31.1751 2.70273 -4.02592 0
M  V30 319 N 32.5182 1.22032 0.997298 0
M  V30 320 C 33.7642 1.04376 1.73878 0
M  V30 321 C 34.0972 -0.420716 1.89588 0
M  V30 322 O 33.3722 -1.31202 1.43583 0
M  V30 323 C 33.6552 1.75047 3.14691 0
M  V30 324 C 33.5082 3.29062 3.06656 0
M  V30 325 C 34.8272 1.49928 4.13775 0
M  V30 326 H 31.9462 0.380578 0.631133 0
M  V30 327 H 34.5882 1.50312 1.16217 0
M  V30 328 H 32.7382 1.35996 3.63919 0
M  V30 329 H 34.4102 3.7753 2.65083 0
M  V30 330 H 32.6532 3.58967 2.43568 0
M  V30 331 H 33.3242 3.73683 4.06282 0
M  V30 332 H 35.8002 1.83842 3.73285 0
M  V30 333 H 34.6762 2.01878 5.10428 0
M  V30 334 H 34.9372 0.430929 4.39995 0
M  V30 335 N 33.9963 -1.19345 1.0293 0
M  V30 336 C 35.2243 -1.92997 0.745644 0
M  V30 337 C 35.6393 -1.75519 -0.695589 0
M  V30 338 O 34.9963 -1.07737 -1.47306 0
M  V30 339 C 35.0473 -3.44741 1.08792 0
M  V30 340 O 34.7683 -3.61658 2.47256 0
M  V30 341 C 36.2693 -4.35515 0.827129 0
M  V30 342 H 33.4893 -0.613042 0.272801 0
M  V30 343 H 36.0333 -1.51473 1.3739 0
M  V30 344 H 34.1883 -3.84097 0.504832 0
M  V30 345 H 34.6023 -4.55514 2.60015 0
M  V30 346 H 36.0763 -5.40589 1.11658 0
M  V30 347 H 36.5533 -4.38552 -0.238436 0
M  V30 348 H 37.1593 -4.01841 1.39297 0
M  V30 349 N 35.4744 -0.807222 -1.35358 0
M  V30 350 C 36.4074 -0.163572 -2.27613 0
M  V30 351 C 37.3854 0.670817 -1.48118 0
M  V30 352 O 38.5694 0.63796 -1.77376 0
M  V30 353 C 35.6964 0.773015 -3.29761 0
M  V30 354 C 34.7424 0.0181653 -4.26496 0
M  V30 355 S 35.5754 -1.31831 -5.19019 0
M  V30 356 C 36.7314 -0.38619 -6.24707 0
M  V30 357 H 36.9644 -0.945757 -2.81856 0
M  V30 358 H 34.4974 -0.602315 -1.42167 0
M  V30 359 H 36.4554 1.30788 -3.89108 0
M  V30 360 H 35.1164 1.52859 -2.74396 0
M  V30 361 H 34.3094 0.729534 -4.98692 0
M  V30 362 H 33.9114 -0.446761 -3.71322 0
M  V30 363 H 36.2034 0.428295 -6.76145 0
M  V30 364 H 37.1464 -1.07736 -6.99856 0
M  V30 365 H 37.5544 0.018398 -5.64497 0
M  V30 366 N 36.9525 1.47285 -0.560781 0
M  V30 367 C 38.1775 2.07359 -0.0410566 0
M  V30 368 C 38.6025 1.41017 1.24483 0
M  V30 369 O 37.9605 0.486368 1.74654 0
M  V30 370 C 38.0085 3.6035 0.134123 0
M  V30 371 O 37.1125 3.94681 1.19587 0
M  V30 372 H 36.4535 0.661887 -0.0529291 0
M  V30 373 H 38.9835 1.89252 -0.777482 0
M  V30 374 H 38.9935 4.0652 0.347207 0
M  V30 375 H 37.6685 4.08034 -0.805047 0
M  V30 376 H 36.2455 3.60251 0.962987 0
M  V30 377 N 38.4306 0.297415 1.54768 0
M  V30 378 C 39.6786 -0.312295 1.99673 0
M  V30 379 C 39.9996 -1.54686 1.18732 0
M  V30 380 O 39.2696 -1.93854 0.282382 0
M  V30 381 H 37.8496 -0.118381 0.73756 0
M  V30 382 H 40.5116 0.407915 1.90583 0
M  V30 383 H 39.6076 -0.586813 3.06534 0
M  V30 384 N 39.9087 -1.5758 0.0250728 0
M  V30 385 C 40.8717 -2.08896 -0.943139 0
M  V30 386 C 41.8717 -1.00321 -1.25668 0
M  V30 387 O 43.0617 -1.26495 -1.19769 0
M  V30 388 C 40.1937 -2.55143 -2.26086 0
M  V30 389 H 41.3867 -2.95723 -0.498775 0
M  V30 390 H 38.9397 -1.54703 -0.222888 0
M  V30 391 H 39.6747 -1.71633 -2.75159 0
M  V30 392 H 39.4597 -3.34461 -2.04641 0
M  V30 393 H 40.9497 -2.95083 -2.95492 0
M  V30 394 N 41.3868 0.248026 -1.55636 0
M  V30 395 C 42.3348 1.32683 -1.91045 0
M  V30 396 C 43.3288 1.49883 -0.789401 0
M  V30 397 O 44.5348 1.51371 -0.974007 0
M  V30 398 H 40.9098 0.444272 -0.606734 0
M  V30 399 H 42.8808 1.00085 -2.81115 0
M  V30 400 C 41.6298 2.6755 -2.22064 0
M  V30 401 H 40.9528 2.55114 -3.07826 0
M  V30 402 H 42.3928 3.41912 -2.50743 0
M  V30 403 C 40.8518 3.20556 -1.0366 0
M  V30 404 O 41.3818 4.00695 -0.284016 0
M  V30 405 N 39.5878 2.78568 -0.82753 0
M  V30 406 H 39.1348 2.1351 -1.44123 0
M  V30 407 H 39.0928 3.14378 -0.0369803 0
M  V30 408 N 42.8649 1.48995 0.513639 0
M  V30 409 C 44.1129 1.57531 1.26604 0
M  V30 410 C 44.4339 0.258236 1.93283 0
M  V30 411 O 43.7039 -0.721502 1.8213 0
M  V30 412 H 42.2839 0.580387 0.470276 0
M  V30 413 H 44.9459 1.85552 0.596373 0
M  V30 414 H 44.0419 2.36486 2.03669 0
M  V30 415 N 44.343 -0.763751 1.37857 0
M  V30 416 C 45.59 -1.52257 1.33506 0
M  V30 417 C 45.918 -1.94343 -0.078022 0
M  V30 418 O 45.173 -1.64958 -1.05297 0
M  V30 419 C 45.472 -2.79499 2.22745 0
M  V30 420 C 45.138 -2.56426 3.70886 0
M  V30 421 C 43.8 -2.49842 4.11257 0
M  V30 422 C 46.152 -2.36008 4.64704 0
M  V30 423 C 43.48 -2.20841 5.43549 0
M  V30 424 C 45.832 -2.0853 5.97242 0
M  V30 425 C 44.496 -2.00396 6.36709 0
M  V30 426 H 43.766 -0.557149 0.488534 0
M  V30 427 H 46.413 -0.879073 1.70131 0
M  V30 428 H 44.718 -3.48447 1.79142 0
M  V30 429 H 46.415 -3.37413 2.16688 0
M  V30 430 H 43.005 -2.62416 3.38874 0
M  V30 431 H 47.189 -2.40079 4.34368 0
M  V30 432 H 42.445 -2.13045 5.73081 0
M  V30 433 H 46.619 -1.91732 6.69486 0
M  V30 434 H 44.246 -1.77688 7.39142 0
M  V30 435 N 45.8211 -1.22559 -0.990812 0
M  V30 436 C 47.0691 -1.04933 -1.72724 0
M  V30 437 C 47.3901 0.416158 -1.90508 0
M  V30 438 O 46.6601 1.29918 -1.46622 0
M  V30 439 H 45.2401 -0.385296 -0.639965 0
M  V30 440 H 47.9021 -1.54105 -1.19322 0
M  V30 441 H 46.9981 -1.52886 -2.72089 0
M  V30 442 N 47.2992 1.18797 -1.03562 0
M  V30 443 C 48.2472 2.24297 -0.615905 0
M  V30 444 C 49.2412 1.65643 0.354808 0
M  V30 445 O 50.4472 1.78618 0.22265 0
M  V30 446 H 46.8222 0.729909 -0.180934 0
M  V30 447 H 48.7932 2.5701 -1.5162 0
M  V30 448 C 47.5422 3.47698 0.0104735 0
M  V30 449 H 46.8652 3.93125 -0.727509 0
M  V30 450 H 48.3052 4.23159 0.266995 0
M  V30 451 C 46.7642 3.12489 1.25905 0
M  V30 452 O 47.2942 3.25761 2.35038 0
M  V30 453 N 45.5002 2.6686 1.15039 0
M  V30 454 H 45.0472 2.56261 0.262328 0
M  V30 455 H 45.0052 2.43674 1.98672 0
M  V30 456 N 48.7773 0.814389 1.34928 0
M  V30 457 C 50.0253 0.397636 1.9815 0
M  V30 458 C 50.3463 -1.04069 1.64908 0
M  V30 459 O 49.6163 -1.72121 0.93548 0
M  V30 460 H 48.1963 0.144043 0.732981 0
M  V30 461 H 50.8583 1.04195 1.6471 0
M  V30 462 H 49.9543 0.509688 3.0791 0
M  V30 463 N 50.2554 -1.46986 0.568584 0
M  V30 464 C 51.2024 -2.30153 -0.172707 0
M  V30 465 C 52.1724 -1.39759 -0.897586 0
M  V30 466 O 53.3574 -1.68716 -0.891044 0
M  V30 467 C 50.4974 -3.23952 -1.1895 0
M  V30 468 C 49.6104 -4.29441 -0.469517 0
M  V30 469 C 48.7454 -5.1038 -1.47259 0
M  V30 470 C 47.7844 -6.07632 -0.738225 0
M  V30 471 N 46.9214 -6.8149 -1.68868 0
M  V30 472 H 51.7614 -2.93019 0.542596 0
M  V30 473 H 49.2984 -1.44422 0.279401 0
M  V30 474 H 51.2564 -3.76767 -1.79173 0
M  V30 475 H 49.8864 -2.62926 -1.87269 0
M  V30 476 H 48.9384 -3.79594 0.247467 0
M  V30 477 H 50.2504 -4.98689 0.105241 0
M  V30 478 H 49.4044 -5.67402 -2.14803 0
M  V30 479 H 48.1434 -4.4106 -2.08128 0
M  V30 480 H 47.1484 -5.49778 -0.0489293 0
M  V30 481 H 48.3734 -6.78966 -0.135129 0
M  V30 482 H 46.3194 -6.14891 -2.28573 0
M  V30 483 H 46.2364 -7.46948 -1.16636 0
M  V30 484 H 47.5044 -7.43078 -2.3549 0
M  V30 485 N 51.7335 -0.305618 -1.54608 0
M  V30 486 C 52.9795 0.302746 -2.00528 0
M  V30 487 C 53.3125 1.53184 -1.19367 0
M  V30 488 O 52.5875 1.92598 -0.271321 0
M  V30 489 C 52.8705 0.654756 -3.54097 0
M  V30 490 C 52.7235 -0.583793 -4.45995 0
M  V30 491 C 54.0425 1.47947 -4.14487 0
M  V30 492 H 51.1615 0.108564 -0.72896 0
M  V30 493 H 53.8035 -0.418634 -1.85331 0
M  V30 494 H 51.9535 1.26935 -3.67178 0
M  V30 495 H 53.6255 -1.22224 -4.44814 0
M  V30 496 H 51.8685 -1.21615 -4.16404 0
M  V30 497 H 52.5395 -0.293287 -5.5122 0
M  V30 498 H 55.0155 0.96013 -4.04871 0
M  V30 499 H 53.8915 1.69454 -5.22088 0
M  V30 500 H 54.1525 2.47011 -3.66658 0
M  V30 501 N 53.2116 1.57565 -0.0334293 0
M  V30 502 C 54.1616 2.06978 0.956237 0
M  V30 503 C 55.1456 0.971193 1.28283 0
M  V30 504 O 56.3376 1.23471 1.26822 0
M  V30 505 C 53.4666 2.60393 2.23719 0
M  V30 506 C 52.5526 3.7719 1.93877 0
M  V30 507 N 52.9436 4.87639 1.34321 0
M  V30 508 C 51.2416 3.85758 2.23845 0
M  V30 509 C 51.9426 5.68825 1.21709 0
M  V30 510 N 50.9186 5.1587 1.71404 0
M  V30 511 H 54.7206 2.89773 0.490815 0
M  V30 512 H 52.2346 1.61492 0.171478 0
M  V30 513 H 54.2316 2.94088 2.95496 0
M  V30 514 H 52.8916 1.79031 2.70884 0
M  V30 515 H 53.9026 5.07803 1.01767 0
M  V30 516 H 50.5796 3.1531 2.73653 0
M  V30 517 H 51.9696 6.67631 0.75621 0
M  V30 518 N 54.6897 -0.239769 1.55765 0
M  V30 519 C 55.9177 -0.98417 1.81994 0
M  V30 520 C 56.3327 -1.7867 0.610124 0
M  V30 521 O 55.6897 -1.77571 -0.421271 0
M  V30 522 C 55.7407 -1.91635 3.06526 0
M  V30 523 O 55.4617 -1.14629 4.22838 0
M  V30 524 C 56.9627 -2.77616 3.45607 0
M  V30 525 H 54.1827 -0.28928 0.605441 0
M  V30 526 H 56.7267 -0.260499 2.02834 0
M  V30 527 H 54.8817 -2.5942 2.87715 0
M  V30 528 H 55.2957 -1.77745 4.93464 0
M  V30 529 H 56.7697 -3.38759 4.35828 0
M  V30 530 H 57.2467 -3.4909 2.6652 0
M  V30 531 H 57.8527 -2.15271 3.66795 0
M  V30 532 N 56.1678 -1.49265 -0.50573 0
M  V30 533 C 57.5838 -1.35923 -0.836486 0
M  V30 534 C 57.7838 -0.388704 -1.97715 0
M  V30 535 O 56.8398 0.181336 -2.51848 0
M  V30 536 C 58.1528 -2.76531 -1.18115 0
M  V30 537 C 59.7008 -2.85197 -1.28964 0
M  V30 538 C 60.1758 -4.26561 -1.66761 0
M  V30 539 N 61.6668 -4.2935 -1.73819 0
M  V30 540 C 62.4018 -5.35693 -2.045 0
M  V30 541 N 61.8978 -6.52287 -2.33438 0
M  V30 542 N 63.6908 -5.23105 -2.05711 0
M  V30 543 H 55.8418 -2.10965 0.246519 0
M  V30 544 H 58.1048 -0.9468 0.0476887 0
M  V30 545 H 57.8108 -3.49226 -0.416398 0
M  V30 546 H 57.6848 -3.11599 -2.1257 0
M  V30 547 H 60.0718 -2.12742 -2.04511 0
M  V30 548 H 60.1528 -2.53718 -0.325704 0
M  V30 549 H 59.7968 -4.99541 -0.917656 0
M  V30 550 H 59.7268 -4.55502 -2.64246 0
M  V30 551 H 62.2178 -3.4526 -1.53635 0
M  V30 552 H 62.5308 -7.29158 -2.56024 0
M  V30 553 H 60.8758 -6.55521 -2.30905 0
M  V30 554 H 64.0668 -4.31026 -1.82577 0
M  V30 555 H 64.2398 -6.06078 -2.29289 0
M  V30 556 N 57.6459 0.756429 -1.3826 0
M  V30 557 C 59.0619 1.0591 -1.19395 0
M  V30 558 C 59.2619 2.01459 -0.0406567 0
M  V30 559 O 58.3179 2.44909 0.614467 0
M  V30 560 C 59.6309 1.64191 -2.51916 0
M  V30 561 C 61.1789 1.76376 -2.58574 0
M  V30 562 C 61.6539 2.38069 -3.91264 0
M  V30 563 N 63.1449 2.45503 -3.92788 0
M  V30 564 C 63.8799 2.94126 -4.92217 0
M  V30 565 N 63.3759 3.42805 -6.02043 0
M  V30 566 N 65.1689 2.9314 -4.7961 0
M  V30 567 H 57.3199 0.122313 -2.12048 0
M  V30 568 H 59.5829 0.116892 -0.940766 0
M  V30 569 H 59.2889 1.01451 -3.3675 0
M  V30 570 H 59.1629 2.6329 -2.70108 0
M  V30 571 H 61.5499 2.38244 -1.74137 0
M  V30 572 H 61.6309 0.759894 -2.44252 0
M  V30 573 H 61.2749 1.76835 -4.76121 0
M  V30 574 H 61.2049 3.39091 -4.02895 0
M  V30 575 H 63.6959 2.1107 -3.13461 0
M  V30 576 H 64.0089 3.78354 -6.73846 0
M  V30 577 H 62.3539 3.4087 -6.05667 0
M  V30 578 H 65.5449 2.54419 -3.92923 0
M  V30 579 H 65.7179 3.30721 -5.5725 0
M  V30 580 N 59.124 1.23083 0.984299 0
M  V30 581 C 60.54 0.992637 1.24975 0
M  V30 582 C 60.74 -0.308618 1.99123 0
M  V30 583 O 59.796 -1.02905 2.30579 0
M  V30 584 C 61.109 2.19698 2.05312 0
M  V30 585 C 62.657 2.24147 2.18465 0
M  V30 586 C 63.132 3.44157 3.02192 0
M  V30 587 N 64.623 3.44372 3.09777 0
M  V30 588 C 65.358 4.33886 3.74874 0
M  V30 589 N 64.854 5.3363 4.41827 0
M  V30 590 N 66.647 4.21639 3.71721 0
M  V30 591 H 58.798 2.06731 0.487453 0
M  V30 592 H 61.061 0.906339 0.277944 0
M  V30 593 H 60.767 3.1411 1.58201 0
M  V30 594 H 60.641 2.20465 3.06064 0
M  V30 595 H 63.028 1.30277 2.64786 0
M  V30 596 H 63.109 2.27415 1.17115 0
M  V30 597 H 62.753 4.38332 2.56568 0
M  V30 598 H 62.683 3.3813 4.03702 0
M  V30 599 H 65.174 2.72201 2.62135 0
M  V30 600 H 65.487 5.98196 4.89266 0
M  V30 601 H 63.832 5.37534 4.40548 0
M  V30 602 H 67.023 3.42962 3.18582 0
M  V30 603 H 67.196 4.91604 4.22173 0
M  V30 604 N 60.6021 -1.18246 1.0419 0
M  V30 605 C 61.8421 -1.89948 0.754916 0
M  V30 606 C 62.2061 -1.78608 -0.70451 0
M  V30 607 O 63.4071 -2.4503 -1.10516 0
M  V30 608 C 61.6781 -3.36305 1.20969 0
M  V30 609 S 63.2371 -4.26088 1.04854 0
M  V30 610 H 60.0551 -0.655897 0.274446 0
M  V30 611 H 62.6571 -1.42873 1.33445 0
M  V30 612 H 61.3611 -3.42089 2.26722 0
M  V30 613 H 60.8921 -3.8842 0.624004 0
M  V30 614 H 62.9071 -4.96189 -0.0332896 0
M  V30 615 N 62.0802 -0.821533 -1.34494 0
M  V30 616 C 63.4962 -0.507117 -1.51329 0
M  V30 617 C 63.6962 0.968964 -1.76673 0
M  V30 618 O 62.7522 1.75348 -1.81685 0
M  V30 619 C 64.0652 -1.36544 -2.67911 0
M  V30 620 C 65.6132 -1.36242 -2.81793 0
M  V30 621 C 66.0882 -2.2052 -4.01416 0
M  V30 622 N 67.5792 -2.18136 -4.08621 0
M  V30 623 C 68.3142 -2.80095 -5.00334 0
M  V30 624 N 67.8102 -3.51039 -5.9728 0
M  V30 625 N 69.6032 -2.69656 -4.93196 0
M  V30 626 H 61.7542 -1.77729 -1.16302 0
M  V30 627 H 64.0172 -0.757291 -0.570276 0
M  V30 628 H 63.7232 -2.41361 -2.55808 0
M  V30 629 H 63.5972 -1.02917 -3.62888 0
M  V30 630 H 65.9842 -0.322041 -2.93338 0
M  V30 631 H 66.0652 -1.73866 -1.87628 0
M  V30 632 H 65.7092 -3.24607 -3.90631 0
M  V30 633 H 65.6392 -1.80247 -4.94791 0
M  V30 634 H 68.1302 -1.6653 -3.39229 0
M  V30 635 H 68.4432 -3.95565 -6.63889 0
M  V30 636 H 66.7882 -3.55145 -5.97409 0
M  V30 637 H 69.9792 -2.13808 -4.16418 0
M  V30 638 H 70.1522 -3.1823 -5.64476 0
M  V30 639 N 63.5583 1.46682 -0.576371 0
M  V30 640 C 64.5063 2.31953 0.17335 0
M  V30 641 C 65.5003 1.44098 0.89062 0
M  V30 642 O 66.7063 1.60759 0.809728 0
M  V30 643 H 63.0813 0.748273 0.0747727 0
M  V30 644 H 65.0523 2.93007 -0.564738 0
M  V30 645 C 63.8013 3.27142 1.17786 0
M  V30 646 H 63.1243 3.94719 0.635361 0
M  V30 647 H 64.5643 3.896 1.67296 0
M  V30 648 C 63.0233 2.52036 2.23561 0
M  V30 649 O 63.5533 2.27877 3.3081 0
M  V30 650 N 61.7593 2.12709 1.97998 0
M  V30 651 H 61.3063 2.32557 1.10792 0
M  V30 652 H 61.2643 1.62776 2.68982 0
M  V30 653 N 65.0364 0.313813 1.54444 0
M  V30 654 C 66.4524 -0.0391619 1.59552 0
M  V30 655 C 66.6524 -1.51322 1.33056 0
M  V30 656 O 65.7084 -2.26782 1.11022 0
M  V30 657 C 67.0214 0.370302 2.98411 0
M  V30 658 C 68.5694 0.320139 3.11358 0
M  V30 659 C 69.0444 0.704617 4.52547 0
M  V30 660 N 70.5354 0.657645 4.58508 0
M  V30 661 C 71.2704 0.927453 5.6585 0
M  V30 662 N 70.7664 1.26389 6.81174 0
M  V30 663 N 72.5594 0.853662 5.5558 0
M  V30 664 H 64.7104 1.27433 1.69925 0
M  V30 665 H 66.9734 0.517511 0.794284 0
M  V30 666 H 66.6794 1.39694 3.22767 0
M  V30 667 H 66.5534 -0.269619 3.76235 0
M  V30 668 H 68.9404 -0.697275 2.86744 0
M  V30 669 H 69.0214 0.99486 2.35661 0
M  V30 670 H 68.6654 1.7199 4.77893 0
M  V30 671 H 68.5954 0.00768843 5.26599 0
M  V30 672 H 71.0864 0.409067 3.75679 0
M  V30 673 H 71.3994 1.4554 7.58972 0
M  V30 674 H 69.7444 1.30206 6.82694 0
M  V30 675 H 72.9354 0.590383 4.64362 0
M  V30 676 H 73.1084 1.0673 6.3915 0
M  V30 677 N 66.5145 -1.57545 0.0417849 0
M  V30 678 C 67.7615 -1.92317 -0.634082 0
M  V30 679 C 68.0895 -0.919334 -1.71402 0
M  V30 680 O 67.3445 0.0698253 -1.95575 0
M  V30 681 C 67.6435 -3.33794 -1.27735 0
M  V30 682 C 67.3095 -4.49716 -0.326543 0
M  V30 683 C 65.9715 -4.81156 -0.0648814 0
M  V30 684 C 68.3235 -5.20182 0.325623 0
M  V30 685 C 65.6515 -5.80414 0.856539 0
M  V30 686 C 68.0035 -6.20424 1.23518 0
M  V30 687 C 66.6675 -6.50298 1.5056 0
M  V30 688 H 65.9375 -0.703736 -0.232027 0
M  V30 689 H 68.5845 -1.91205 0.106259 0
M  V30 690 H 66.8895 -3.31228 -2.09274 0
M  V30 691 H 68.5865 -3.57975 -1.80707 0
M  V30 692 H 65.1765 -4.25176 -0.540665 0
M  V30 693 H 69.3605 -4.96112 0.136546 0
M  V30 694 H 64.6165 -6.019 1.07363 0
M  V30 695 H 68.7905 -6.74141 1.74664 0
M  V30 696 H 66.4175 -7.27025 2.22123 0
M  V30 697 N 67.9926 0.231505 -1.5589 0
M  V30 698 C 69.2386 0.95877 -1.78705 0
M  V30 699 C 69.5716 1.8438 -0.609725 0
M  V30 700 O 68.8466 1.90521 0.391426 0
M  V30 701 C 69.1296 1.8062 -3.11526 0
M  V30 702 C 68.9826 0.948328 -4.39689 0
M  V30 703 C 70.3016 2.78585 -3.40703 0
M  V30 704 H 67.4206 0.347129 -0.650131 0
M  V30 705 H 70.0626 0.228259 -1.88624 0
M  V30 706 H 68.2126 2.42902 -3.03201 0
M  V30 707 H 69.8846 0.343016 -4.60023 0
M  V30 708 H 68.1276 0.253314 -4.3306 0
M  V30 709 H 68.7986 1.57543 -5.29041 0
M  V30 710 H 71.2746 2.26439 -3.49091 0
M  V30 711 H 70.1506 3.34988 -4.34826 0
M  V30 712 H 70.4116 3.55825 -2.62375 0
M  V30 713 N 69.4707 1.49531 0.497807 0
M  V30 714 C 70.4177 1.66436 1.59899 0
M  V30 715 C 71.3877 0.505793 1.58212 0
M  V30 716 O 72.5727 0.733202 1.7615 0
M  V30 717 C 69.7127 1.7399 2.98029 0
M  V30 718 C 68.8257 3.01172 3.09708 0
M  V30 719 C 67.9607 2.99686 4.38591 0
M  V30 720 C 66.9997 4.21434 4.43914 0
M  V30 721 N 66.1367 4.1784 5.64229 0
M  V30 722 H 70.9767 2.60459 1.44793 0
M  V30 723 H 68.5137 1.29137 0.704423 0
M  V30 724 H 70.4717 1.76352 3.78095 0
M  V30 725 H 69.1017 0.834301 3.11832 0
M  V30 726 H 68.1537 3.08408 2.22685 0
M  V30 727 H 69.4657 3.91165 3.09502 0
M  V30 728 H 68.6197 3.00628 5.2698 0
M  V30 729 H 67.3587 2.07477 4.41367 0
M  V30 730 H 66.3637 4.20733 3.53926 0
M  V30 731 H 67.5887 5.14839 4.42851 0
M  V30 732 H 65.5347 3.28469 5.67841 0
M  V30 733 H 65.4517 5.01571 5.65652 0
M  V30 734 H 66.7197 4.22889 6.54817 0
M  V30 735 N 70.9488 -0.749086 1.3866 0
M  V30 736 C 71.8958 -1.86291 1.36251 0
M  V30 737 C 72.8658 -1.64578 0.224347 0
M  V30 738 O 74.0508 -1.86181 0.417279 0
M  V30 739 C 71.1908 -3.23644 1.19786 0
M  V30 740 C 70.3038 -3.57158 2.43027 0
M  V30 741 C 69.4388 -4.83838 2.19258 0
M  V30 742 C 68.4778 -5.10152 3.38247 0
M  V30 743 N 67.6148 -6.28029 3.13884 0
M  V30 744 H 72.4548 -1.87685 2.3147 0
M  V30 745 H 69.9918 -0.917287 1.14997 0
M  V30 746 H 71.9498 -4.0291 1.08254 0
M  V30 747 H 70.5798 -3.21566 0.282031 0
M  V30 748 H 69.6318 -2.72701 2.65214 0
M  V30 749 H 70.9438 -3.7253 3.31697 0
M  V30 750 H 70.0978 -5.71057 2.04888 0
M  V30 751 H 68.8368 -4.70614 1.2796 0
M  V30 752 H 67.8418 -4.21401 3.53131 0
M  V30 753 H 69.0668 -5.25271 4.30427 0
M  V30 754 H 67.0128 -6.1612 2.25238 0
M  V30 755 H 66.9298 -6.43922 3.96106 0
M  V30 756 H 68.1978 -7.18124 3.03179 0
M  V30 757 N 72.4269 -1.23603 -0.977757 0
M  V30 758 C 73.3749 -1.01704 -2.09187 0
M  V30 759 C 74.3689 0.0448214 -1.69341 0
M  V30 760 O 75.5749 -0.108902 -1.7967 0
M  V30 761 H 71.9499 -0.311803 -0.684312 0
M  V30 762 H 73.9209 -1.96207 -2.24823 0
M  V30 763 C 72.6699 -0.627746 -3.41986 0
M  V30 764 H 71.9929 -1.43656 -3.73099 0
M  V30 765 H 73.4329 -0.514053 -4.20872 0
M  V30 766 C 71.8919 0.664238 -3.30287 0
M  V30 767 O 72.4219 1.71268 -3.6336 0
M  V30 768 N 70.6279 0.641156 -2.83439 0
M  V30 769 H 70.1749 -0.212376 -2.56723 0
M  V30 770 H 70.1329 1.50583 -2.75993 0
M  V30 771 N 73.905 1.17692 -1.04816 0
M  V30 772 C 75.153 1.87488 -0.754497 0
M  V30 773 C 75.474 1.81205 0.720407 0
M  V30 774 O 74.744 1.23544 1.52032 0
M  V30 775 H 73.324 0.694101 -0.276102 0
M  V30 776 H 75.986 1.42793 -1.32651 0
M  V30 777 H 75.082 2.93328 -1.06606 0
M  V30 778 N 75.3831 0.828654 1.34056 0
M  V30 779 C 76.3151 0.212052 2.28217 0
M  V30 780 C 77.3281 -0.601362 1.51286 0
M  V30 781 O 78.5171 -0.430104 1.73241 0
M  V30 782 C 75.6171 -0.72088 3.31144 0
M  V30 783 C 74.7901 0.0509587 4.3737 0
M  V30 784 C 73.8491 -0.803766 5.20025 0
M  V30 785 O 72.8751 -0.246667 5.68665 0
M  V30 786 N 74.0771 -2.1227 5.40298 0
M  V30 787 H 76.8421 1.02105 2.81771 0
M  V30 788 H 74.4031 0.686153 1.46641 0
M  V30 789 H 76.3951 -1.29742 3.8334 0
M  V30 790 H 74.9651 -1.43061 2.77943 0
M  V30 791 H 74.1851 0.808831 3.85813 0
M  V30 792 H 75.4731 0.582065 5.0546 0
M  V30 793 H 74.8711 -2.59898 5.02464 0
M  V30 794 H 73.4281 -2.64796 5.95589 0
M  V30 795 N 76.8612 -1.46375 0.584142 0
M  V30 796 C 78.1012 -2.0427 0.0729695 0
M  V30 797 C 78.4652 -1.44563 -1.26355 0
M  V30 798 O 79.6662 -1.93667 -1.86405 0
M  V30 799 C 77.9372 -3.57399 0.00967464 0
M  V30 800 S 79.4962 -4.36551 -0.443714 0
M  V30 801 H 76.3142 -0.709975 0.0381673 0
M  V30 802 H 78.9162 -1.79398 0.776962 0
M  V30 803 H 77.6202 -3.98372 0.986319 0
M  V30 804 H 77.1512 -3.8681 -0.717044 0
M  V30 805 H 79.1662 -4.66237 -1.69816 0
M  V30 806 N 78.3393 -0.321999 -1.54275 0
M  V30 807 C 79.2873 0.560206 -2.25753 0
M  V30 808 C 80.2813 1.11984 -1.27106 0
M  V30 809 O 81.4873 1.06806 -1.44888 0
M  V30 810 H 77.8623 0.199304 -0.725108 0
M  V30 811 H 79.8333 -0.0649365 -2.98329 0
M  V30 812 C 78.5823 1.71023 -3.02731 0
M  V30 813 H 77.9053 1.28885 -3.78456 0
M  V30 814 H 79.3453 2.30314 -3.55993 0
M  V30 815 C 77.8043 2.62692 -2.10938 0
M  V30 816 O 78.3343 3.64364 -1.6912 0
M  V30 817 N 76.5403 2.30891 -1.76459 0
M  V30 818 H 76.0873 1.48253 -2.10663 0
M  V30 819 H 76.0453 2.92487 -1.1532 0
M  V30 820 N 79.8174 1.5752 -0.0501392 0
M  V30 821 C 81.0664 1.91827 0.623328 0
M  V30 822 C 81.3794 0.930222 1.72065 0
M  V30 823 O 82.5854 1.1653 2.4522 0
M  V30 824 C 81.0414 3.40692 1.16003 0
M  V30 825 C 80.6494 4.479 0.0948811 0
M  V30 826 C 82.3934 3.84034 1.80881 0
M  V30 827 C 80.3004 5.87879 0.644411 0
M  V30 828 H 79.2304 0.715918 0.236596 0
M  V30 829 H 81.8814 1.83115 -0.118861 0
M  V30 830 H 80.2634 3.44405 1.9545 0
M  V30 831 H 81.4374 4.55775 -0.678675 0
M  V30 832 H 79.7524 4.13892 -0.45637 0
M  V30 833 H 82.3494 4.85984 2.22988 0
M  V30 834 H 82.6924 3.20225 2.6601 0
M  V30 835 H 83.2254 3.82833 1.0809 0
M  V30 836 H 79.9644 6.55282 -0.169229 0
M  V30 837 H 79.4844 5.83567 1.38598 0
M  V30 838 H 81.1634 6.37098 1.12763 0
M  V30 839 N 81.2955 -0.223234 1.56011 0
M  V30 840 C 82.2055 -1.29766 1.95443 0
M  V30 841 C 83.2215 -1.51373 0.858028 0
M  V30 842 O 84.3975 -1.64536 1.16146 0
M  V30 843 C 81.4625 -2.62772 2.26167 0
M  V30 844 C 80.5235 -2.49482 3.49367 0
M  V30 845 C 79.7565 -3.76145 3.78616 0
M  V30 846 O 79.9795 -4.79087 3.09568 0
M  V30 847 O 78.9135 -3.73358 4.72109 0
M  V30 848 H 82.7395 -0.99309 2.87004 0
M  V30 849 H 80.3245 -0.425958 1.43199 0
M  V30 850 H 82.2065 -3.41327 2.47131 0
M  V30 851 H 80.8815 -2.92913 1.37781 0
M  V30 852 H 79.7885 -1.69133 3.33684 0
M  V30 853 H 81.1215 -2.2428 4.38131 0
M  V30 854 N 82.7736 -1.49793 -0.48987 0
M  V30 855 C 84.0206 -1.59841 -1.24327 0
M  V30 856 C 84.3486 -0.290135 -1.92324 0
M  V30 857 O 83.6036 0.722749 -1.81865 0
M  V30 858 C 83.9026 -2.71488 -2.32441 0
M  V30 859 C 83.5686 -4.12614 -1.81826 0
M  V30 860 C 82.2306 -4.51017 -1.67742 0
M  V30 861 C 84.5826 -5.00892 -1.4407 0
M  V30 862 C 81.9106 -5.75459 -1.14297 0
M  V30 863 C 84.2626 -6.25863 -0.920742 0
M  V30 864 C 82.9266 -6.63086 -0.766383 0
M  V30 865 H 82.1966 -0.584899 -0.454944 0
M  V30 866 H 84.8436 -1.83663 -0.542215 0
M  V30 867 H 83.1486 -2.4168 -3.0838 0
M  V30 868 H 84.8456 -2.76469 -2.90458 0
M  V30 869 H 81.4356 -3.82307 -1.93751 0
M  V30 870 H 85.6196 -4.7187 -1.53794 0
M  V30 871 H 80.8756 -6.02989 -1.01068 0
M  V30 872 H 85.0496 -6.9364 -0.619448 0
M  V30 873 H 82.6766 -7.59393 -0.350083 0
M  V30 874 N 84.2517 0.741722 -1.39055 0
M  V30 875 C 85.2147 1.83733 -1.37021 0
M  V30 876 C 86.2147 1.58542 -0.268534 0
M  V30 877 O 87.4047 1.66067 -0.526076 0
M  V30 878 C 84.5367 3.2141 -1.13617 0
M  V30 879 H 85.7297 1.86941 -2.34506 0
M  V30 880 H 83.2827 0.944676 -1.24521 0
M  V30 881 H 84.0177 3.23865 -0.167863 0
M  V30 882 H 83.8027 3.4109 -1.93391 0
M  V30 883 H 85.2927 4.01477 -1.14918 0
M  V30 884 N 85.7298 1.2412 0.971189 0
M  V30 885 C 86.6778 1.02812 2.08644 0
M  V30 886 C 87.6718 -0.0358403 1.69362 0
M  V30 887 O 88.8778 0.118429 1.7961 0
M  V30 888 H 85.2528 0.315428 0.682649 0
M  V30 889 H 87.2238 1.97397 2.23779 0
M  V30 890 C 85.9728 0.645874 3.41649 0
M  V30 891 H 85.2958 1.45632 3.72332 0
M  V30 892 H 86.7358 0.536366 4.20594 0
M  V30 893 C 85.1948 -0.646713 3.30635 0
M  V30 894 O 85.7248 -1.69338 3.64263 0
M  V30 895 N 83.9308 -0.626115 2.83775 0
M  V30 896 H 83.4778 0.225988 2.56607 0
M  V30 897 H 83.4358 -1.49117 2.76788 0
M  V30 898 N 87.2079 -1.17134 1.05439 0
M  V30 899 C 88.1409 -2.2012 0.601855 0
M  V30 900 C 89.1189 -1.58314 -0.370854 0
M  V30 901 O 90.3029 -1.8638 -0.281882 0
M  V30 902 C 87.4299 -3.38491 -0.118868 0
M  V30 903 C 86.4759 -4.18752 0.809242 0
M  V30 904 S 87.3089 -4.83602 2.29977 0
M  V30 905 C 88.4649 -6.0536 1.59029 0
M  V30 906 H 88.6979 -2.58165 1.47438 0
M  V30 907 H 86.2309 -1.27788 0.866573 0
M  V30 908 H 88.1889 -4.07084 -0.528495 0
M  V30 909 H 86.8499 -2.98829 -0.967465 0
M  V30 910 H 86.0429 -5.03373 0.251379 0
M  V30 911 H 85.6449 -3.5561 1.15835 0
M  V30 912 H 87.9369 -6.71615 0.891017 0
M  V30 913 H 88.8799 -6.65679 2.41407 0
M  V30 914 H 89.2879 -5.54138 1.07663 0
M  V30 915 N 88.686 -0.835752 -1.33615 0
M  V30 916 C 89.963 -0.352017 -1.92406 0
M  V30 917 C 90.343 1.16225 -1.76224 0
M  V30 918 O 89.691 1.97526 -1.14873 0
M  V30 919 C 89.901 -0.795485 -3.39813 0
M  V30 920 C 91.249 -0.801703 -4.16963 0
M  V30 921 O 92.273 -0.738889 -3.48452 0
M  V30 922 O 91.132 -0.886607 -5.3926 0
M  V30 923 H 88.226 -0.0989641 -0.821057 0
M  V30 924 H 90.772 -0.921397 -1.42507 0
M  V30 925 H 89.544 -1.83795 -3.45449 0
M  V30 926 H 89.167 -0.202505 -3.97084 0
M  V30 927 N 90.1641 1.46063 -0.591896 0
M  V30 928 C 91.0741 2.34192 0.13831 0
M  V30 929 C 92.0901 1.50305 0.876608 0
M  V30 930 O 93.2661 1.8315 0.837728 0
M  V30 931 C 90.3311 3.27656 1.13326 0
M  V30 932 C 89.3921 4.27445 0.39863 0
M  V30 933 C 88.6251 5.16443 1.34618 0
M  V30 934 O 88.8481 5.08553 2.58321 0
M  V30 935 O 87.7821 5.95843 0.851768 0
M  V30 936 H 91.6081 2.98002 -0.58552 0
M  V30 937 H 89.1931 1.45188 -0.352239 0
M  V30 938 H 91.0751 3.85291 1.70671 0
M  V30 939 H 89.7501 2.6643 1.83839 0
M  V30 940 H 88.6571 3.73471 -0.216895 0
M  V30 941 H 89.9901 4.91482 -0.265709 0
M  V30 942 N 91.6422 0.330177 1.54103 0
M  V30 943 C 92.5892 -0.532762 2.24567 0
M  V30 944 C 93.5592 -1.10635 1.23892 0
M  V30 945 O 94.7442 -1.14546 1.5259 0
M  V30 946 C 91.8842 -1.6845 3.01195 0
M  V30 947 C 90.9972 -1.13951 4.167 0
M  V30 948 C 90.1322 -2.25746 4.80845 0
M  V30 949 C 89.1712 -1.6853 5.88442 0
M  V30 950 N 88.3082 -2.74014 6.46421 0
M  V30 951 H 93.1482 0.0746905 2.97906 0
M  V30 952 H 90.6852 0.048632 1.4702 0
M  V30 953 H 92.6432 -2.36234 3.43874 0
M  V30 954 H 91.2732 -2.26314 2.30178 0
M  V30 955 H 90.3252 -0.35301 3.78758 0
M  V30 956 H 91.6372 -0.680892 4.94131 0
M  V30 957 H 90.7912 -3.01422 5.26526 0
M  V30 958 H 89.5302 -2.74947 4.0281 0
M  V30 959 H 88.5352 -0.913543 5.42157 0
M  V30 960 H 89.7602 -1.20198 6.68378 0
M  V30 961 H 87.7062 -3.22494 5.71256 0
M  V30 962 H 87.6232 -2.32735 7.19285 0
M  V30 963 H 88.8912 -3.49499 6.96757 0
M  V30 964 N 93.1203 -1.57491 0.0584922 0
M  V30 965 C 94.3453 -1.97711 -0.62652 0
M  V30 966 C 94.7703 -0.936132 -1.63151 0
M  V30 967 O 94.1283 0.099811 -1.81025 0
M  V30 968 C 94.1763 -3.36989 -1.28338 0
M  V30 969 O 93.2803 -3.35433 -2.39913 0
M  V30 970 H 92.6213 -0.643868 -0.162266 0
M  V30 971 H 95.1513 -2.04193 0.129064 0
M  V30 972 H 95.1613 -3.73879 -1.63335 0
M  V30 973 H 93.8363 -4.12289 -0.546889 0
M  V30 974 H 92.4133 -3.10298 -2.06809 0
M  V30 975 N 94.5984 0.214957 -1.56127 0
M  V30 976 C 95.5304 1.29004 -1.89448 0
M  V30 977 C 96.5434 1.42716 -0.783326 0
M  V30 978 O 97.7324 1.43496 -1.06166 0
M  V30 979 C 94.8324 2.66482 -2.09381 0
M  V30 980 C 94.0054 2.74633 -3.40434 0
M  V30 981 C 93.0644 3.9317 -3.49719 0
M  V30 982 O 92.0904 3.812 -4.227 0
M  V30 983 N 93.2924 5.07765 -2.81346 0
M  V30 984 H 96.0574 1.00743 -2.82261 0
M  V30 985 H 93.6184 0.40497 -1.56753 0
M  V30 986 H 95.6104 3.44173 -2.12901 0
M  V30 987 H 94.1804 2.87314 -1.23163 0
M  V30 988 H 93.4004 1.83368 -3.48955 0
M  V30 989 H 94.6884 2.77054 -4.26754 0
M  V30 990 H 94.0864 5.20386 -2.21843 0
M  V30 991 H 92.6434 5.83474 -2.90519 0
M  V30 992 N 96.0765 1.50051 0.48192 0
M  V30 993 C 97.4925 1.37237 0.814756 0
M  V30 994 C 97.6925 0.420109 1.97072 0
M  V30 995 O 96.7485 -0.141246 2.52105 0
M  V30 996 C 98.0615 2.78375 1.13701 0
M  V30 997 C 99.6095 2.87213 1.2441 0
M  V30 998 C 100.084 4.29161 1.59954 0
M  V30 999 N 101.575 4.32061 1.66967 0
M  V30 1000 C 102.31 5.38879 1.95952 0
M  V30 1001 N 101.806 6.55918 2.23031 0
M  V30 1002 N 103.599 5.26312 1.97363 0
M  V30 1003 H 95.7505 2.10546 -0.28005 0
M  V30 1004 H 98.0135 0.945921 -0.0627454 0
M  V30 1005 H 97.7195 3.49845 0.360787 0
M  V30 1006 H 97.5935 3.14941 2.07586 0
M  V30 1007 H 99.9805 2.15969 2.01101 0
M  V30 1008 H 100.061 2.54204 0.285299 0
M  V30 1009 H 99.7055 5.00938 0.838067 0
M  V30 1010 H 99.6355 4.59648 2.56966 0
M  V30 1011 H 102.126 3.47661 1.48123 0
M  V30 1012 H 102.439 7.33139 2.44391 0
M  V30 1013 H 100.784 6.59112 2.20447 0
M  V30 1014 H 103.975 4.33876 1.75697 0
M  V30 1015 H 104.148 6.09649 2.19618 0
M  V30 1016 N 97.5546 -0.734337 1.39446 0
M  V30 1017 C 98.7846 -1.52137 1.39778 0
M  V30 1018 C 99.1926 -1.89198 -0.00929312 0
M  V30 1019 O 98.5356 -1.54666 -0.991168 0
M  V30 1020 C 98.5976 -2.83762 2.20724 0
M  V30 1021 C 98.2616 -2.69131 3.69347 0
M  V30 1022 C 99.2586 -2.37635 4.62413 0
M  V30 1023 C 96.9436 -2.85982 4.1294 0
M  V30 1024 C 98.9376 -2.23172 5.97054 0
M  V30 1025 C 96.6246 -2.71137 5.47657 0
M  V30 1026 C 97.6226 -2.39777 6.39528 0
M  V30 1027 O 97.3106 -2.25026 7.71763 0
M  V30 1028 H 97.0426 -0.476717 0.479288 0
M  V30 1029 H 99.5966 -0.915012 1.83893 0
M  V30 1030 H 97.8266 -3.4666 1.71359 0
M  V30 1031 H 99.5156 -3.45383 2.13226 0
M  V30 1032 H 100.282 -2.24267 4.30034 0
M  V30 1033 H 96.1606 -3.09383 3.41765 0
M  V30 1034 H 99.7046 -1.98617 6.68728 0
M  V30 1035 H 95.6016 -2.84083 5.79626 0
M  V30 1036 H 96.3696 -2.40091 7.82495 0
M  V30 1037 N 99.0327 -1.24633 -0.964593 0
M  V30 1038 C 99.9627 -1.06611 -2.07741 0
M  V30 1039 C 100.944 0.0218666 -1.70086 0
M  V30 1040 O 102.129 -0.145793 -1.93652 0
M  V30 1041 C 99.2587 -0.673444 -3.40708 0
M  V30 1042 C 98.2127 -1.71054 -3.92332 0
M  V30 1043 C 97.5387 -1.17285 -5.21678 0
M  V30 1044 C 98.8387 -3.10718 -4.19824 0
M  V30 1045 H 100.533 -1.99693 -2.23076 0
M  V30 1046 H 98.0787 -0.96152 -1.07195 0
M  V30 1047 H 100.032 -0.534345 -4.17998 0
M  V30 1048 H 98.7557 0.293073 -3.25282 0
M  V30 1049 H 97.4147 -1.83791 -3.17201 0
M  V30 1050 H 97.0627 -0.196847 -5.02615 0
M  V30 1051 H 96.7627 -1.86592 -5.57187 0
M  V30 1052 H 98.2867 -1.04593 -6.01575 0
M  V30 1053 H 99.7007 -3.01192 -4.87808 0
M  V30 1054 H 98.0977 -3.77406 -4.66567 0
M  V30 1055 H 99.1677 -3.58524 -3.26479 0
M  V30 1056 N 100.511 1.16574 -1.06058 0
M  V30 1057 C 101.474 2.19085 -0.673392 0
M  V30 1058 C 102.474 1.5835 0.279648 0
M  V30 1059 O 103.664 1.74088 0.0623488 0
M  V30 1060 C 100.796 3.40899 0.00954234 0
M  V30 1061 H 101.989 2.54853 -1.58081 0
M  V30 1062 H 99.5418 1.30808 -0.855516 0
M  V30 1063 H 100.277 3.10684 0.929826 0
M  V30 1064 H 100.062 3.86233 -0.67573 0
M  V30 1065 H 101.552 4.1675 0.266245 0
M  V30 1066 N 101.989 0.842826 1.3317 0
M  V30 1067 C 103.266 0.362216 1.92217 0
M  V30 1068 C 103.646 -1.15289 1.76838 0
M  V30 1069 O 102.994 -1.96914 1.15919 0
M  V30 1070 C 103.204 0.813495 3.39387 0
M  V30 1071 C 104.552 0.823804 4.16532 0
M  V30 1072 O 105.576 0.757358 3.48055 0
M  V30 1073 O 104.435 0.915193 5.38782 0
M  V30 1074 H 101.529 0.103317 0.820521 0
M  V30 1075 H 104.075 0.928942 1.42017 0
M  V30 1076 H 102.847 1.85624 3.4447 0
M  V30 1077 H 102.47 0.223561 3.96971 0
M  V30 1078 N 103.467 -1.45747 0.599634 0
M  V30 1079 C 104.4 -2.27547 -0.172552 0
M  V30 1080 C 105.378 -1.36657 -0.881116 0
M  V30 1081 O 106.562 -1.66081 -0.891595 0
M  V30 1082 C 103.689 -3.14829 -1.24903 0
M  V30 1083 C 102.735 -4.21603 -0.644465 0
M  V30 1084 S 103.568 -5.32754 0.541606 0
M  V30 1085 C 104.724 -6.23604 -0.535656 0
M  V30 1086 H 104.957 -2.92691 0.521468 0
M  V30 1087 H 102.49 -1.49473 0.386947 0
M  V30 1088 H 104.448 -3.65675 -1.86527 0
M  V30 1089 H 103.109 -2.48965 -1.91508 0
M  V30 1090 H 102.302 -4.82566 -1.45417 0
M  V30 1091 H 101.904 -3.73857 -0.103534 0
M  V30 1092 H 104.196 -6.62519 -1.41686 0
M  V30 1093 H 105.139 -7.0809 0.0376246 0
M  V30 1094 H 105.547 -5.58103 -0.84741 0
M  V30 1095 N 104.945 -0.338344 -1.53925 0
M  V30 1096 C 106.192 0.259758 -2.00827 0
M  V30 1097 C 106.52 1.50973 -1.22628 0
M  V30 1098 O 105.775 1.93379 -0.300509 0
M  V30 1099 C 106.074 0.62448 -3.51902 0
M  V30 1100 C 105.74 -0.528006 -4.47798 0
M  V30 1101 C 104.402 -0.844298 -4.73735 0
M  V30 1102 C 106.754 -1.30143 -5.0469 0
M  V30 1103 C 104.082 -1.93648 -5.53821 0
M  V30 1104 C 106.434 -2.38382 -5.85967 0
M  V30 1105 C 105.098 -2.70576 -6.10201 0
M  V30 1106 H 104.368 0.0950523 -0.734878 0
M  V30 1107 H 107.015 -0.465182 -1.85764 0
M  V30 1108 H 105.32 1.43006 -3.64769 0
M  V30 1109 H 107.017 1.09905 -3.85645 0
M  V30 1110 H 103.607 -0.271421 -4.2774 0
M  V30 1111 H 107.791 -1.07033 -4.84621 0
M  V30 1112 H 103.047 -2.19021 -5.70824 0
M  V30 1113 H 107.221 -2.98746 -6.29066 0
M  V30 1114 H 104.848 -3.55333 -6.72044 0
M  V30 1115 N 106.423 1.57458 -0.0668435 0
M  V30 1116 C 107.651 1.97624 0.612565 0
M  V30 1117 C 108.066 0.94502 1.63447 0
M  V30 1118 O 107.423 -0.0689276 1.8237 0
M  V30 1119 C 107.474 3.37869 1.28555 0
M  V30 1120 O 107.195 4.3704 0.304557 0
M  V30 1121 C 108.696 3.92882 2.05325 0
M  V30 1122 H 105.916 0.650045 0.166381 0
M  V30 1123 H 108.46 2.04035 -0.137782 0
M  V30 1124 H 106.615 3.3256 1.98702 0
M  V30 1125 H 107.029 5.18565 0.786779 0
M  V30 1126 H 108.503 4.93247 2.47812 0
M  V30 1127 H 108.98 3.29156 2.9078 0
M  V30 1128 H 109.586 4.01577 1.40056 0
M  V30 1129 N 107.901 -0.206675 1.56239 0
M  V30 1130 C 109.129 -0.945345 1.8404 0
M  V30 1131 C 109.544 -1.77336 0.647885 0
M  V30 1132 O 108.901 -1.78425 -0.383511 0
M  V30 1133 C 108.952 -1.8509 3.10522 0
M  V30 1134 O 108.673 -1.05634 4.25174 0
M  V30 1135 C 110.174 -2.70222 3.51418 0
M  V30 1136 H 107.394 -0.276372 0.61144 0
M  V30 1137 H 109.938 -0.217417 2.03341 0
M  V30 1138 H 108.093 -2.53259 2.93153 0
M  V30 1139 H 108.507 -1.67238 4.97124 0
M  V30 1140 H 109.981 -3.29438 4.42916 0
M  V30 1141 H 110.458 -3.43358 2.73864 0
M  V30 1142 H 111.064 -2.07443 3.71278 0
M  V30 1143 N 109.379 -1.50304 -0.473955 0
M  V30 1144 C 110.619 -1.62786 -1.23612 0
M  V30 1145 C 110.983 -0.319786 -1.89318 0
M  V30 1146 O 112.184 -0.320012 -2.66888 0
M  V30 1147 C 110.455 -2.77351 -2.25414 0
M  V30 1148 S 112.014 -3.09948 -3.10608 0
M  V30 1149 H 108.832 -0.573895 -0.419721 0
M  V30 1150 H 111.434 -1.88076 -0.533623 0
M  V30 1151 H 110.138 -3.70879 -1.75719 0
M  V30 1152 H 109.669 -2.54137 -3.00296 0
M  V30 1153 H 111.684 -2.53553 -4.26527 0
M  V30 1154 N 110.857 0.726932 -1.39834 0
M  V30 1155 C 112.103 1.48884 -1.377 0
M  V30 1156 C 112.436 1.94185 0.0244852 0
M  V30 1157 O 111.711 1.67361 0.990986 0
M  V30 1158 C 111.994 2.72288 -2.3565 0
M  V30 1159 C 111.847 2.32956 -3.84775 0
M  V30 1160 C 113.166 3.74414 -2.31306 0
M  V30 1161 H 110.285 0.540062 -0.5015 0
M  V30 1162 H 112.927 0.830547 -1.70886 0
M  V30 1163 H 111.077 3.28457 -2.07481 0
M  V30 1164 H 112.749 1.82356 -4.23726 0
M  V30 1165 H 110.992 1.65088 -4.01159 0
M  V30 1166 H 111.663 3.21362 -4.4881 0
M  V30 1167 H 114.139 3.27849 -2.56231 0
M  V30 1168 H 113.015 4.58414 -3.01907 0
M  V30 1169 H 113.276 4.21909 -1.32081 0
M  V30 1170 N 112.336 1.25143 0.95797 0
M  V30 1171 C 113.613 1.00472 1.67823 0
M  V30 1172 C 113.993 -0.470056 2.058 0
M  V30 1173 O 113.341 -1.44663 1.76875 0
M  V30 1174 C 113.551 1.9372 2.90299 0
M  V30 1175 C 114.899 2.21371 3.62326 0
M  V30 1176 O 115.923 1.91451 3.00375 0
M  V30 1177 O 114.782 2.72231 4.7387 0
M  V30 1178 H 111.876 0.380752 0.734137 0
M  V30 1179 H 114.422 1.36283 1.01119 0
M  V30 1180 H 113.194 2.93316 2.59001 0
M  V30 1181 H 112.817 1.58286 3.64735 0
M  V30 1182 N 113.814 -1.1601 1.06675 0
M  V30 1183 C 115.063 -1.85973 0.780818 0
M  V30 1184 C 115.376 -1.82819 -0.695444 0
M  V30 1185 O 116.582 -2.484 -1.09589 0
M  V30 1186 C 115.038 -3.33757 1.34665 0
M  V30 1187 C 114.646 -3.45374 2.85343 0
M  V30 1188 C 116.39 -4.0895 1.13843 0
M  V30 1189 C 114.297 -4.87266 3.35151 0
M  V30 1190 H 113.227 -0.696661 0.288407 0
M  V30 1191 H 115.878 -1.30903 1.28595 0
M  V30 1192 H 114.26 -3.88456 0.769274 0
M  V30 1193 H 115.434 -3.00816 3.49065 0
M  V30 1194 H 113.749 -2.83619 3.04876 0
M  V30 1195 H 116.346 -5.13654 1.4854 0
M  V30 1196 H 116.689 -4.16229 0.0770282 0
M  V30 1197 H 117.222 -3.605 1.68179 0
M  V30 1198 H 113.961 -4.85168 4.40786 0
M  V30 1199 H 113.481 -5.32433 2.76179 0
M  V30 1200 H 115.16 -5.56097 3.30704 0
M  V30 1201 N 115.292 -0.849877 -1.32721 0
M  V30 1202 C 116.708 -0.539102 -1.50219 0
M  V30 1203 C 116.908 0.931271 -1.78689 0
M  V30 1204 O 115.964 1.71455 -1.85363 0
M  V30 1205 C 117.277 -1.42196 -2.64954 0
M  V30 1206 C 118.825 -1.42189 -2.78839 0
M  V30 1207 C 119.3 -2.28985 -3.96648 0
M  V30 1208 N 120.791 -2.26754 -4.03902 0
M  V30 1209 C 121.526 -2.90644 -4.94281 0
M  V30 1210 N 121.022 -3.63629 -5.897 0
M  V30 1211 N 122.815 -2.80057 -4.87365 0
M  V30 1212 H 114.966 -1.80156 -1.12506 0
M  V30 1213 H 117.229 -0.769217 -0.554085 0
M  V30 1214 H 116.935 -2.46733 -2.50631 0
M  V30 1215 H 116.809 -1.10591 -3.60624 0
M  V30 1216 H 119.196 -0.38419 -2.92588 0
M  V30 1217 H 119.277 -1.77807 -1.83898 0
M  V30 1218 H 118.921 -3.32819 -3.83658 0
M  V30 1219 H 118.851 -1.90702 -4.90857 0
M  V30 1220 H 121.342 -1.73688 -3.3562 0
M  V30 1221 H 121.655 -4.09558 -6.55349 0
M  V30 1222 H 120 -3.67737 -5.89741 0
M  V30 1223 H 123.191 -2.22593 -4.11789 0
M  V30 1224 H 123.364 -3.30132 -5.57599 0
M  V30 1225 N 116.77 1.45427 -0.607355 0
M  V30 1226 C 118.016 2.03097 -0.111035 0
M  V30 1227 C 118.371 1.46735 1.24445 0
M  V30 1228 O 117.664 0.632478 1.8086 0
M  V30 1229 C 117.858 3.57398 -0.0129263 0
M  V30 1230 C 117.687 4.28726 -1.35735 0
M  V30 1231 C 116.457 4.66659 -1.93798 0
M  V30 1232 C 118.655 4.60699 -2.28607 0
M  V30 1233 N 116.637 5.22845 -3.21723 0
M  V30 1234 C 118.008 5.17716 -3.41131 0
M  V30 1235 C 120.063 4.42638 -2.27982 0
M  V30 1236 C 118.766 5.58576 -4.53194 0
M  V30 1237 C 120.792 4.84531 -3.39093 0
M  V30 1238 C 120.154 5.4164 -4.50339 0
M  V30 1239 H 116.253 0.777476 -0.083994 0
M  V30 1240 H 118.837 1.77249 -0.805655 0
M  V30 1241 H 117.008 3.82907 0.650914 0
M  V30 1242 H 118.74 4.01722 0.490033 0
M  V30 1243 H 115.495 4.50207 -1.47007 0
M  V30 1244 H 115.919 5.55438 -3.87063 0
M  V30 1245 H 120.561 3.97798 -1.43235 0
M  V30 1246 H 118.279 6.02382 -5.38667 0
M  V30 1247 H 121.865 4.72289 -3.39757 0
M  V30 1248 H 120.745 5.73461 -5.34895 0
M  V30 1249 N 118.248 0.346503 1.53744 0
M  V30 1250 C 119.664 -0.00530975 1.59599 0
M  V30 1251 C 119.864 -1.48465 1.36236 0
M  V30 1252 O 118.92 -2.24376 1.15808 0
M  V30 1253 C 120.233 0.433516 2.97559 0
M  V30 1254 C 121.781 0.386111 3.10609 0
M  V30 1255 C 122.256 0.800451 4.50951 0
M  V30 1256 N 123.747 0.754753 4.5701 0
M  V30 1257 C 124.482 1.04727 5.63755 0
M  V30 1258 N 123.978 1.4081 6.7834 0
M  V30 1259 N 125.771 0.971316 5.53644 0
M  V30 1260 H 117.922 1.31009 1.67184 0
M  V30 1261 H 120.185 0.534242 0.783128 0
M  V30 1262 H 119.891 1.46509 3.19731 0
M  V30 1263 H 119.765 -0.189753 3.76722 0
M  V30 1264 H 122.152 -0.636295 2.88158 0
M  V30 1265 H 122.233 1.04462 2.33498 0
M  V30 1266 H 121.877 1.82088 4.74137 0
M  V30 1267 H 121.807 0.119386 5.26465 0
M  V30 1268 H 124.298 0.488662 3.74727 0
M  V30 1269 H 124.611 1.61607 7.55714 0
M  V30 1270 H 122.956 1.44657 6.79779 0
M  V30 1271 H 126.147 0.688748 4.63005 0
M  V30 1272 H 126.32 1.20263 6.36742 0
M  V30 1273 N 119.726 -1.57421 0.075193 0
M  V30 1274 C 120.956 -1.97659 -0.601203 0
M  V30 1275 C 121.364 -0.952427 -1.63479 0
M  V30 1276 O 120.707 0.0688241 -1.83571 0
M  V30 1277 C 120.769 -3.34218 -1.32434 0
M  V30 1278 C 120.433 -4.5484 -0.443826 0
M  V30 1279 C 121.43 -5.19034 0.299969 0
M  V30 1280 C 119.115 -5.00952 -0.367709 0
M  V30 1281 C 121.109 -6.27695 1.10807 0
M  V30 1282 C 118.796 -6.09484 0.444058 0
M  V30 1283 C 119.794 -6.72719 1.18061 0
M  V30 1284 O 119.482 -7.79161 1.97898 0
M  V30 1285 H 119.214 -0.65494 -0.167422 0
M  V30 1286 H 121.768 -2.04886 0.145157 0
M  V30 1287 H 119.998 -3.23615 -2.11685 0
M  V30 1288 H 121.687 -3.59038 -1.89331 0
M  V30 1289 H 122.453 -4.84351 0.250776 0
M  V30 1290 H 118.332 -4.51509 -0.930638 0
M  V30 1291 H 121.876 -6.76982 1.68347 0
M  V30 1292 H 117.773 -6.43601 0.494803 0
M  V30 1293 H 118.541 -7.96055 1.90367 0
M  V30 1294 N 121.204 0.198386 -1.56346 0
M  V30 1295 C 122.137 1.27381 -1.89339 0
M  V30 1296 C 123.115 1.44106 -0.753134 0
M  V30 1297 O 124.299 1.59549 -1.00381 0
M  V30 1298 C 121.426 2.6409 -2.12071 0
M  V30 1299 C 120.472 2.64253 -3.34772 0
M  V30 1300 S 121.305 2.16013 -4.89999 0
M  V30 1301 C 122.461 3.54553 -5.15794 0
M  V30 1302 H 122.694 0.992058 -2.8026 0
M  V30 1303 H 120.227 0.401726 -1.49082 0
M  V30 1304 H 122.185 3.42786 -2.2585 0
M  V30 1305 H 120.846 2.89478 -1.21906 0
M  V30 1306 H 120.039 3.64768 -3.47794 0
M  V30 1307 H 119.641 1.93637 -3.1997 0
M  V30 1308 H 121.933 4.50396 -5.06112 0
M  V30 1309 H 122.876 3.46428 -6.1757 0
M  V30 1310 H 123.284 3.49313 -4.43442 0
M  V30 1311 N 122.682 1.50554 0.465978 0
M  V30 1312 C 123.612 1.72722 1.57128 0
M  V30 1313 C 124.593 0.576294 1.6004 0
M  V30 1314 O 125.778 0.81598 1.76225 0
M  V30 1315 C 122.908 1.82605 2.95419 0
M  V30 1316 C 121.862 2.97835 3.07373 0
M  V30 1317 C 121.188 2.92867 4.47363 0
M  V30 1318 C 122.488 4.38265 2.84114 0
M  V30 1319 H 124.182 2.65267 1.38829 0
M  V30 1320 H 121.728 1.2765 0.666441 0
M  V30 1321 H 123.681 1.96698 3.72677 0
M  V30 1322 H 122.405 0.866858 3.14886 0
M  V30 1323 H 121.064 2.83401 2.3255 0
M  V30 1324 H 120.712 1.94783 4.63755 0
M  V30 1325 H 120.412 3.70227 4.56296 0
M  V30 1326 H 121.936 3.09015 5.26633 0
M  V30 1327 H 123.35 4.53198 3.51118 0
M  V30 1328 H 121.747 5.17115 3.04487 0
M  V30 1329 H 122.817 4.50281 1.7993 0
M  V30 1330 N 124.16 -0.719506 1.40217 0
M  V30 1331 C 125.09 -1.8465 1.42922 0
M  V30 1332 C 126.071 -1.67599 0.29062 0
M  V30 1333 O 127.256 -1.87688 0.498677 0
M  V30 1334 C 124.386 -3.22565 1.28722 0
M  V30 1335 C 123.34 -3.54281 2.40144 0
M  V30 1336 C 122.666 -4.91298 2.11023 0
M  V30 1337 C 123.966 -3.55676 3.82481 0
M  V30 1338 H 125.66 -1.82644 2.37237 0
M  V30 1339 H 123.206 -0.877305 1.1419 0
M  V30 1340 H 125.159 -4.01095 1.29232 0
M  V30 1341 H 123.883 -3.25137 0.308811 0
M  V30 1342 H 122.542 -2.78088 2.38877 0
M  V30 1343 H 122.19 -4.90468 1.11582 0
M  V30 1344 H 121.89 -5.13485 2.8567 0
M  V30 1345 H 123.414 -5.72166 2.13209 0
M  V30 1346 H 124.828 -4.24254 3.85592 0
M  V30 1347 H 123.225 -3.89388 4.56614 0
M  V30 1348 H 124.295 -2.55144 4.12346 0
M  V30 1349 N 125.638 -1.25649 -0.95132 0
M  V30 1350 C 126.887 -1.09988 -1.69073 0
M  V30 1351 C 127.2 0.358355 -1.92289 0
M  V30 1352 O 128.406 0.635466 -2.63958 0
M  V30 1353 C 126.862 -1.92012 -3.044 0
M  V30 1354 C 126.47 -3.42347 -2.88968 0
M  V30 1355 C 128.214 -1.8493 -3.82101 0
M  V30 1356 C 126.121 -4.16655 -4.19705 0
M  V30 1357 H 125.051 -0.407993 -0.63408 0
M  V30 1358 H 127.702 -1.49873 -1.05879 0
M  V30 1359 H 126.084 -1.44952 -3.68517 0
M  V30 1360 H 127.258 -3.97104 -2.33762 0
M  V30 1361 H 125.573 -3.50557 -2.24719 0
M  V30 1362 H 128.17 -2.37739 -4.78941 0
M  V30 1363 H 128.513 -0.817883 -4.08187 0
M  V30 1364 H 129.046 -2.29758 -3.2474 0
M  V30 1365 H 125.785 -5.20224 -3.98807 0
M  V30 1366 H 125.305 -3.66681 -4.74663 0
M  V30 1367 H 126.984 -4.24551 -4.88227 0
M  V30 1368 N 127.117 1.15442 -1.07289 0
M  V30 1369 C 128.364 1.86213 -0.795668 0
M  V30 1370 C 128.692 1.82291 0.678238 0
M  V30 1371 O 127.947 1.24057 1.51355 0
M  V30 1372 C 128.246 3.3489 -1.24834 0
M  V30 1373 C 127.912 3.59007 -2.72809 0
M  V30 1374 C 126.574 3.65298 -3.13227 0
M  V30 1375 C 128.926 3.68762 -3.68326 0
M  V30 1376 C 126.254 3.78854 -4.4798 0
M  V30 1377 C 128.606 3.83842 -5.0284 0
M  V30 1378 C 127.27 3.88378 -5.4288 0
M  V30 1379 H 126.54 0.681403 -0.291155 0
M  V30 1380 H 129.187 1.36435 -1.34379 0
M  V30 1381 H 127.492 3.8687 -0.619595 0
M  V30 1382 H 129.189 3.88052 -1.01076 0
M  V30 1383 H 125.779 3.5475 -2.40521 0
M  V30 1384 H 129.963 3.63202 -3.38227 0
M  V30 1385 H 125.219 3.80623 -4.78472 0
M  V30 1386 H 129.393 3.90332 -5.76727 0
M  V30 1387 H 127.02 3.98635 -6.47298 0
M  V30 1388 N 128.595 0.856903 1.32268 0
M  V30 1389 C 129.82 0.474569 2.01897 0
M  V30 1390 C 130.245 -0.921766 1.63967 0
M  V30 1391 O 129.603 -1.60589 0.84148 0
M  V30 1392 C 129.651 0.623799 3.55164 0
M  V30 1393 O 128.755 -0.342459 4.10976 0
M  V30 1394 H 128.096 0.190422 0.63611 0
M  V30 1395 H 130.626 1.15672 1.68764 0
M  V30 1396 H 130.636 0.512169 4.04773 0
M  V30 1397 H 129.311 1.64202 3.82113 0
M  V30 1398 H 127.888 -0.18688 3.72431 0
M  V30 1399 N 130.073 -1.45103 0.615059 0
M  V30 1400 C 131.003 -2.33339 -0.0865619 0
M  V30 1401 C 131.984 -1.4727 -0.851209 0
M  V30 1402 O 133.169 -1.76026 -0.820281 0
M  V30 1403 C 130.299 -3.30095 -1.07956 0
M  V30 1404 C 129.253 -4.25858 -0.427628 0
M  V30 1405 C 128.579 -5.12361 -1.5294 0
M  V30 1406 C 129.879 -5.18165 0.655944 0
M  V30 1407 H 131.573 -2.92254 0.650224 0
M  V30 1408 H 129.119 -1.40532 0.314138 0
M  V30 1409 H 131.072 -3.90698 -1.57901 0
M  V30 1410 H 129.796 -2.69355 -1.84703 0
M  V30 1411 H 128.455 -3.66564 0.0510292 0
M  V30 1412 H 128.103 -4.47984 -2.28734 0
M  V30 1413 H 127.803 -5.77238 -1.09865 0
M  V30 1414 H 129.327 -5.75833 -2.03098 0
M  V30 1415 H 130.741 -5.72796 0.240257 0
M  V30 1416 H 129.138 -5.91559 1.00888 0
M  V30 1417 H 130.208 -4.60144 1.52957 0
M  V30 1418 N 131.551 -0.354651 -1.53558 0
M  V30 1419 C 132.514 0.484566 -2.24019 0
M  V30 1420 C 133.514 1.01861 -1.24422 0
M  V30 1421 O 134.704 0.906097 -1.4878 0
M  V30 1422 C 131.836 1.67615 -2.96847 0
M  V30 1423 H 133.029 -0.131843 -2.9961 0
M  V30 1424 H 130.582 -0.106165 -1.55939 0
M  V30 1425 H 131.317 2.33095 -2.25471 0
M  V30 1426 H 131.102 1.30029 -3.69912 0
M  V30 1427 H 132.592 2.27114 -3.50441 0
M  V30 1428 N 133.029 1.57378 -0.0835403 0
M  V30 1429 C 134.276 1.9393 0.58287 0
M  V30 1430 C 134.604 0.964455 1.68904 0
M  V30 1431 O 133.859 -0.0179474 1.95692 0
M  V30 1432 C 134.158 3.37063 1.1884 0
M  V30 1433 C 133.824 4.50424 0.207194 0
M  V30 1434 C 132.486 4.81159 -0.0627115 0
M  V30 1435 C 134.838 5.19136 -0.463426 0
M  V30 1436 C 132.166 5.77939 -1.01012 0
M  V30 1437 C 134.518 6.16931 -1.39924 0
M  V30 1438 C 133.182 6.46078 -1.67749 0
M  V30 1439 H 132.452 0.70964 0.213287 0
M  V30 1440 H 135.099 1.90856 -0.156916 0
M  V30 1441 H 133.404 3.3666 2.00418 0
M  V30 1442 H 135.101 3.6264 1.71153 0
M  V30 1443 H 131.691 4.2646 0.427747 0
M  V30 1444 H 135.875 4.95576 -0.268034 0
M  V30 1445 H 131.131 5.98842 -1.23283 0
M  V30 1446 H 135.305 6.69273 -1.92476 0
M  V30 1447 H 132.932 7.2088 -2.41321 0
M  V30 1448 N 134.507 -0.190092 1.56449 0
M  V30 1449 C 135.437 -1.23816 1.97969 0
M  V30 1450 C 136.418 -1.47201 0.852395 0
M  V30 1451 O 137.603 -1.58854 1.1171 0
M  V30 1452 C 134.733 -2.5813 2.3235 0
M  V30 1453 C 133.687 -2.49348 3.47864 0
M  V30 1454 C 133.013 -3.8798 3.67934 0
M  V30 1455 C 134.313 -2.01424 4.81898 0
M  V30 1456 H 136.007 -0.89311 2.85769 0
M  V30 1457 H 133.553 -0.428177 1.37487 0
M  V30 1458 H 135.506 -3.31637 2.59991 0
M  V30 1459 H 134.23 -2.94386 1.41438 0
M  V30 1460 H 132.889 -1.78297 3.20321 0
M  V30 1461 H 132.537 -4.21597 2.74344 0
M  V30 1462 H 132.237 -3.82978 4.45648 0
M  V30 1463 H 133.761 -4.63101 3.97957 0
M  V30 1464 H 135.175 -2.64693 5.08538 0
M  V30 1465 H 133.572 -2.07413 5.63116 0
M  V30 1466 H 134.642 -0.967677 4.75146 0
M  V30 1467 N 135.985 -1.50799 -0.457987 0
M  V30 1468 C 136.948 -1.7005 -1.53674 0
M  V30 1469 C 137.948 -0.570881 -1.50325 0
M  V30 1470 O 139.138 -0.838126 -1.52712 0
M  V30 1471 C 136.27 -1.73788 -2.93276 0
M  V30 1472 H 137.463 -2.66306 -1.37917 0
M  V30 1473 H 135.016 -1.40477 -0.685271 0
M  V30 1474 H 135.751 -0.792717 -3.14462 0
M  V30 1475 H 135.536 -2.55864 -2.97113 0
M  V30 1476 H 137.026 -1.90591 -3.71571 0
M  V30 1477 N 137.463 0.71206 -1.40597 0
M  V30 1478 C 138.688 1.50617 -1.42581 0
M  V30 1479 C 139.113 1.88079 -0.0282102 0
M  V30 1480 O 138.471 1.53511 0.964579 0
M  V30 1481 C 138.519 2.7557 -2.3258 0
M  V30 1482 O 137.623 3.72414 -1.77148 0
M  V30 1483 H 136.964 0.453966 -0.484573 0
M  V30 1484 H 139.494 0.876649 -1.84868 0
M  V30 1485 H 139.504 3.2406 -2.47889 0
M  V30 1486 H 138.179 2.47639 -3.34138 0
M  V30 1487 H 136.756 3.31276 -1.71204 0
M  V30 1488 N 138.941 1.26152 0.944643 0
M  V30 1489 C 140.187 1.12665 1.69346 0
M  V30 1490 C 140.542 -0.3273 1.89596 0
M  V30 1491 O 139.835 -1.23717 1.46303 0
M  V30 1492 C 140.029 1.82541 3.07268 0
M  V30 1493 C 139.858 3.34582 3.00475 0
M  V30 1494 C 138.628 4.03863 3.03681 0
M  V30 1495 C 140.826 4.30828 2.80877 0
M  V30 1496 N 138.808 5.42603 2.87151 0
M  V30 1497 C 140.179 5.5672 2.7288 0
M  V30 1498 C 142.234 4.21122 2.65633 0
M  V30 1499 C 140.937 6.74013 2.51196 0
M  V30 1500 C 142.963 5.38118 2.45323 0
M  V30 1501 C 142.325 6.62955 2.38055 0
M  V30 1502 H 138.424 0.467041 0.627214 0
M  V30 1503 H 141.008 1.59391 1.11815 0
M  V30 1504 H 139.179 1.38296 3.62945 0
M  V30 1505 H 140.911 1.61708 3.70989 0
M  V30 1506 H 137.666 3.55198 3.1326 0
M  V30 1507 H 138.09 6.15443 2.82063 0
M  V30 1508 H 142.732 3.25344 2.70021 0
M  V30 1509 H 140.45 7.6989 2.4555 0
M  V30 1510 H 144.036 5.32475 2.34439 0
M  V30 1511 H 142.916 7.51959 2.22546 0
M  V30 1512 N 140.419 -1.14872 1.07899 0
M  V30 1513 C 141.349 -2.2193 0.725887 0
M  V30 1514 C 142.33 -1.67622 -0.28927 0
M  V30 1515 O 143.515 -1.93533 -0.160787 0
M  V30 1516 C 140.645 -3.47061 0.128856 0
M  V30 1517 C 139.599 -4.14363 1.07178 0
M  V30 1518 C 138.925 -5.33636 0.337229 0
M  V30 1519 C 140.225 -4.63492 2.40775 0
M  V30 1520 H 141.919 -2.51724 1.62097 0
M  V30 1521 H 139.465 -1.20991 0.780838 0
M  V30 1522 H 141.418 -4.21199 -0.130147 0
M  V30 1523 H 140.142 -3.16617 -0.80134 0
M  V30 1524 H 138.801 -3.42173 1.3158 0
M  V30 1525 H 138.449 -4.99449 -0.596606 0
M  V30 1526 H 138.149 -5.79609 0.965788 0
M  V30 1527 H 139.673 -6.10539 0.0861567 0
M  V30 1528 H 141.087 -5.2913 2.20669 0
M  V30 1529 H 139.484 -5.20148 2.99276 0
M  V30 1530 H 140.554 -3.78834 3.02676 0
M  V30 1531 N 141.898 -0.863906 -1.31812 0
M  V30 1532 C 142.828 -0.330843 -2.31144 0
M  V30 1533 C 143.809 0.575005 -1.60087 0
M  V30 1534 O 144.994 0.493304 -1.8783 0
M  V30 1535 C 142.124 0.47374 -3.44054 0
M  V30 1536 C 141.078 -0.338481 -4.26659 0
M  V30 1537 C 140.404 0.591412 -5.31419 0
M  V30 1538 C 141.704 -1.56926 -4.98168 0
M  V30 1539 H 143.398 -1.16086 -2.75979 0
M  V30 1540 H 140.944 -0.559657 -1.32679 0
M  V30 1541 H 142.897 0.857143 -4.12591 0
M  V30 1542 H 141.621 1.33721 -2.9797 0
M  V30 1543 H 140.28 -0.703754 -3.59782 0
M  V30 1544 H 139.928 1.45199 -4.81587 0
M  V30 1545 H 139.628 0.0519022 -5.87577 0
M  V30 1546 H 141.152 0.97179 -6.02817 0
M  V30 1547 H 142.566 -1.25764 -5.59336 0
M  V30 1548 H 140.963 -2.04739 -5.64094 0
M  V30 1549 H 142.033 -2.32544 -4.25501 0
M  V30 1550 N 143.376 1.44774 -0.622745 0
M  V30 1551 C 144.623 2.02121 -0.1239 0
M  V30 1552 C 144.951 1.48915 1.25118 0
M  V30 1553 O 144.206 0.660045 1.84233 0
M  V30 1554 C 144.505 3.57364 -0.0508323 0
M  V30 1555 C 144.171 4.29787 -1.36358 0
M  V30 1556 C 142.833 4.4929 -1.72314 0
M  V30 1557 C 145.185 4.71062 -2.23048 0
M  V30 1558 C 142.513 5.07325 -2.94682 0
M  V30 1559 C 144.865 5.30452 -3.44679 0
M  V30 1560 C 143.529 5.48175 -3.80868 0
M  V30 1561 H 142.799 0.739612 -0.0453381 0
M  V30 1562 H 145.446 1.73648 -0.807389 0
M  V30 1563 H 143.751 3.85202 0.715991 0
M  V30 1564 H 145.448 3.99456 0.351533 0
M  V30 1565 H 142.038 4.14932 -1.07375 0
M  V30 1566 H 146.222 4.55715 -1.96565 0
M  V30 1567 H 141.478 5.19235 -3.22809 0
M  V30 1568 H 145.652 5.61385 -4.12092 0
M  V30 1569 H 143.279 5.92912 -4.75773 0
M  V30 1570 N 144.854 0.36279 1.53368 0
M  V30 1571 C 146.102 -0.227326 2.00817 0
M  V30 1572 C 146.423 -1.49511 1.25186 0
M  V30 1573 O 145.693 -1.92482 0.364348 0
M  V30 1574 H 144.273 -0.0869923 0.741917 0
M  V30 1575 H 146.935 0.488381 1.88682 0
M  V30 1576 H 146.031 -0.456273 3.08747 0
M  V30 1577 N 146.332 -1.57332 0.0918853 0
M  V30 1578 C 147.581 -1.93412 -0.572249 0
M  V30 1579 C 147.894 -0.975515 -1.69538 0
M  V30 1580 O 149.1 -1.22991 -2.42045 0
M  V30 1581 C 147.556 -3.43648 -1.0693 0
M  V30 1582 C 147.164 -4.47994 0.0239049 0
M  V30 1583 C 148.908 -3.88695 -1.70635 0
M  V30 1584 C 146.815 -5.89381 -0.488319 0
M  V30 1585 H 145.745 -0.721939 -0.217532 0
M  V30 1586 H 148.396 -1.82735 0.167369 0
M  V30 1587 H 146.778 -3.49466 -1.8625 0
M  V30 1588 H 147.952 -4.53815 0.799277 0
M  V30 1589 H 146.267 -4.12536 0.565946 0
M  V30 1590 H 148.864 -4.91725 -2.10025 0
M  V30 1591 H 149.207 -3.27166 -2.57426 0
M  V30 1592 H 149.74 -3.85564 -0.979023 0
M  V30 1593 H 146.479 -6.54602 0.342906 0
M  V30 1594 H 145.999 -5.87037 -1.23077 0
M  V30 1595 H 147.678 -6.39863 -0.958317 0
M  V30 1596 N 147.81 0.181792 -1.56548 0
M  V30 1597 C 149.059 0.898348 -1.8059 0
M  V30 1598 C 149.372 1.83862 -0.667379 0
M  V30 1599 O 150.578 2.59678 -0.792446 0
M  V30 1600 C 149.034 1.64791 -3.19956 0
M  V30 1601 C 148.642 0.751789 -4.41647 0
M  V30 1602 C 150.386 2.35331 -3.53298 0
M  V30 1603 C 148.293 1.50098 -5.72035 0
M  V30 1604 H 147.223 0.339194 -0.673397 0
M  V30 1605 H 149.874 0.151413 -1.82874 0
M  V30 1606 H 148.256 2.43921 -3.11959 0
M  V30 1607 H 149.43 -0.0018076 -4.608 0
M  V30 1608 H 147.745 0.156562 -4.16106 0
M  V30 1609 H 150.342 2.91958 -4.47956 0
M  V30 1610 H 150.685 3.10164 -2.77676 0
M  V30 1611 H 151.218 1.63154 -3.62803 0
M  V30 1612 H 147.957 0.795175 -6.50659 0
M  V30 1613 H 147.477 2.22817 -5.56878 0
M  V30 1614 H 149.156 2.05125 -6.13622 0
M  V30 1615 N 149.288 1.51039 0.449983 0
M  V30 1616 C 150.535 1.63081 1.20045 0
M  V30 1617 C 150.863 0.341024 1.91487 0
M  V30 1618 O 150.118 -0.674276 1.83717 0
M  V30 1619 C 150.417 2.77556 2.25161 0
M  V30 1620 C 150.083 4.17289 1.70823 0
M  V30 1621 C 148.745 4.55305 1.55725 0
M  V30 1622 C 151.097 5.04536 1.3074 0
M  V30 1623 C 148.425 5.78287 0.989999 0
M  V30 1624 C 150.777 6.28085 0.754482 0
M  V30 1625 C 149.441 6.64885 0.590308 0
M  V30 1626 H 148.711 0.596755 0.439277 0
M  V30 1627 H 151.358 1.85037 0.49333 0
M  V30 1628 H 149.663 2.49771 3.01863 0
M  V30 1629 H 151.36 2.84073 2.83026 0
M  V30 1630 H 147.95 3.8731 1.83546 0
M  V30 1631 H 152.134 4.75782 1.41229 0
M  V30 1632 H 147.39 6.05456 0.850451 0
M  V30 1633 H 151.564 6.95038 0.435324 0
M  V30 1634 H 149.191 7.60055 0.14862 0
M  V30 1635 N 150.766 -0.704594 1.40972 0
M  V30 1636 C 152.012 -1.46546 1.41053 0
M  V30 1637 C 152.367 -1.92393 0.0159714 0
M  V30 1638 O 151.66 -1.66017 -0.956506 0
M  V30 1639 C 151.854 -2.698 2.34399 0
M  V30 1640 C 151.683 -2.36008 3.82793 0
M  V30 1641 C 150.453 -2.26812 4.51536 0
M  V30 1642 C 152.651 -1.99565 4.74003 0
M  V30 1643 N 150.633 -1.8581 5.85105 0
M  V30 1644 C 152.004 -1.69251 5.96451 0
M  V30 1645 C 154.059 -1.86296 4.61734 0
M  V30 1646 C 152.762 -1.27003 7.07999 0
M  V30 1647 C 154.788 -1.45452 5.73234 0
M  V30 1648 C 154.15 -1.16043 6.94776 0
M  V30 1649 H 150.249 -0.533896 0.571383 0
M  V30 1650 H 152.833 -0.816061 1.76773 0
M  V30 1651 H 151.004 -3.32473 2.00789 0
M  V30 1652 H 152.736 -3.36214 2.25261 0
M  V30 1653 H 149.491 -2.44913 4.05357 0
M  V30 1654 H 149.915 -1.67817 6.55871 0
M  V30 1655 H 154.557 -2.0769 3.68273 0
M  V30 1656 H 152.275 -1.04353 8.01334 0
M  V30 1657 H 155.861 -1.35748 5.65742 0
M  V30 1658 H 154.741 -0.84915 7.79589 0
M  V30 1659 N 152.244 -1.26651 -0.937939 0
M  V30 1660 C 153.49 -1.12553 -1.687 0
M  V30 1661 C 153.823 0.329782 -1.91379 0
M  V30 1662 O 153.098 1.24202 -1.4968 0
M  V30 1663 C 153.381 -1.89862 -3.05981 0
M  V30 1664 C 153.234 -3.43318 -2.90607 0
M  V30 1665 C 154.553 -1.69499 -4.0615 0
M  V30 1666 H 151.672 -0.410257 -0.612257 0
M  V30 1667 H 154.314 -1.55685 -1.08913 0
M  V30 1668 H 152.464 -1.53204 -3.57017 0
M  V30 1669 H 154.136 -3.89747 -2.46769 0
M  V30 1670 H 152.379 -3.70179 -2.26164 0
M  V30 1671 H 153.05 -3.92642 -3.8799 0
M  V30 1672 H 155.526 -2.01442 -3.64088 0
M  V30 1673 H 154.402 -2.26002 -5.00214 0
M  V30 1674 H 154.663 -0.640365 -4.37438 0
M  V30 1675 N 153.722 1.14298 -1.08507 0
M  V30 1676 C 154.971 1.84708 -0.810305 0
M  V30 1677 C 155.284 1.83903 0.666271 0
M  V30 1678 O 156.49 2.50112 1.05624 0
M  V30 1679 C 154.946 3.31572 -1.39957 0
M  V30 1680 C 154.554 3.40791 -2.90801 0
M  V30 1681 C 156.298 4.07087 -1.20334 0
M  V30 1682 C 154.205 4.81872 -3.4286 0
M  V30 1683 H 153.135 0.691985 -0.299454 0
M  V30 1684 H 155.786 1.28841 -1.30661 0
M  V30 1685 H 154.168 3.87183 -0.830976 0
M  V30 1686 H 155.342 2.95225 -3.53806 0
M  V30 1687 H 153.657 2.78732 -3.0935 0
M  V30 1688 H 156.254 5.11225 -1.56693 0
M  V30 1689 H 156.597 4.16054 -0.143237 0
M  V30 1690 H 157.13 3.57779 -1.73893 0
M  V30 1691 H 153.869 4.78094 -4.48449 0
M  V30 1692 H 153.389 5.27972 -2.84615 0
M  V30 1693 H 155.068 5.50765 -3.39509 0
M  V30 1694 N 155.201 0.870884 1.31352 0
M  V30 1695 C 156.164 0.332243 2.26779 0
M  V30 1696 C 157.164 -0.517302 1.52252 0
M  V30 1697 O 158.354 -0.326477 1.71113 0
M  V30 1698 C 155.486 -0.528066 3.36785 0
M  V30 1699 H 156.679 1.17469 2.75937 0
M  V30 1700 H 154.232 0.64655 1.423 0
M  V30 1701 H 154.967 -1.39167 2.92922 0
M  V30 1702 H 154.752 0.0802582 3.92018 0
M  V30 1703 H 156.242 -0.897179 4.07849 0
M  V30 1704 N 156.679 -1.44442 0.630414 0
M  V30 1705 C 157.925 -2.02351 0.134816 0
M  V30 1706 C 158.258 -1.4947 -1.23986 0
M  V30 1707 O 157.533 -0.678475 -1.82283 0
M  V30 1708 C 157.816 -3.59898 0.120707 0
M  V30 1709 C 157.669 -4.23063 1.52767 0
M  V30 1710 C 158.988 -4.36585 -0.555127 0
M  V30 1711 H 156.107 -0.73527 0.0504646 0
M  V30 1712 H 158.749 -1.72022 0.806751 0
M  V30 1713 H 156.899 -3.85868 -0.451477 0
M  V30 1714 H 158.571 -4.08202 2.14869 0
M  V30 1715 H 156.814 -3.80586 2.08175 0
M  V30 1716 H 157.485 -5.32071 1.46984 0
M  V30 1717 H 159.961 -4.16044 -0.0685429 0
M  V30 1718 H 158.837 -5.46294 -0.534185 0
M  V30 1719 H 159.098 -4.11138 -1.62535 0
M  V30 1720 N 158.157 -0.370918 -1.53173 0
M  V30 1721 C 159.12 0.460778 -2.24521 0
M  V30 1722 C 160.12 1.00536 -1.25496 0
M  V30 1723 O 161.31 0.890266 -1.49733 0
M  V30 1724 C 158.442 1.64457 -2.98608 0
M  V30 1725 H 159.635 -0.163613 -2.99453 0
M  V30 1726 H 157.188 -0.122699 -1.55818 0
M  V30 1727 H 157.923 2.30691 -2.2793 0
M  V30 1728 H 157.708 1.26099 -3.7127 0
M  V30 1729 H 159.198 2.23384 -3.5283 0
M  V30 1730 N 159.635 1.57281 -0.100228 0
M  V30 1731 C 160.585 2.10848 0.86759 0
M  V30 1732 C 161.569 1.02473 1.24049 0
M  V30 1733 O 162.761 1.28739 1.21471 0
M  V30 1734 C 159.89 2.69648 2.12474 0
M  V30 1735 C 158.976 3.85074 1.77704 0
M  V30 1736 N 159.367 4.92897 1.13518 0
M  V30 1737 C 157.665 3.94905 2.07282 0
M  V30 1738 C 158.366 5.73475 0.974735 0
M  V30 1739 N 157.342 5.22675 1.4937 0
M  V30 1740 H 161.144 2.91594 0.367471 0
M  V30 1741 H 158.658 1.62074 0.102829 0
M  V30 1742 H 160.655 3.06356 2.82757 0
M  V30 1743 H 159.315 1.90359 2.63047 0
M  V30 1744 H 160.326 5.11662 0.801381 0
M  V30 1745 H 157.003 3.26633 2.60033 0
M  V30 1746 H 158.393 6.70238 0.472364 0
M  V30 1747 N 161.113 -0.173488 1.56642 0
M  V30 1748 C 162.361 -0.888706 1.81512 0
M  V30 1749 C 162.682 -1.82875 0.676872 0
M  V30 1750 O 161.952 -1.93536 -0.303414 0
M  V30 1751 H 160.532 -0.331164 0.669582 0
M  V30 1752 H 163.194 -0.173823 1.94123 0
M  V30 1753 H 162.29 -1.46691 2.75478 0
M  V30 1754 N 162.591 -1.51276 -0.441967 0
M  V30 1755 C 163.868 -1.54252 -1.20273 0
M  V30 1756 C 164.248 -0.30408 -2.08898 0
M  V30 1757 O 163.596 0.711084 -2.17154 0
M  V30 1758 C 163.806 -2.85406 -2.00859 0
M  V30 1759 C 165.154 -3.37181 -2.58059 0
M  V30 1760 O 166.178 -2.86925 -2.11074 0
M  V30 1761 O 165.037 -4.24858 -3.43741 0
M  V30 1762 H 162.131 -0.619969 -0.547328 0
M  V30 1763 H 164.677 -1.63586 -0.451413 0
M  V30 1764 H 163.449 -3.67003 -1.35736 0
M  V30 1765 H 163.072 -2.79213 -2.83065 0
M  V30 1766 N 164.069 0.697108 -1.41344 0
M  V30 1767 C 164.999 1.82353 -1.45841 0
M  V30 1768 C 165.98 1.67115 -0.317247 0
M  V30 1769 O 167.165 1.86871 -0.528474 0
M  V30 1770 C 164.295 3.20476 -1.33838 0
M  V30 1771 C 163.249 3.50415 -2.4575 0
M  V30 1772 C 162.575 4.87878 -2.18813 0
M  V30 1773 C 163.875 3.49546 -3.88091 0
M  V30 1774 H 165.569 1.78846 -2.40113 0
M  V30 1775 H 163.115 0.859028 -1.15571 0
M  V30 1776 H 165.068 3.98988 -1.35596 0
M  V30 1777 H 163.792 3.24604 -0.360498 0
M  V30 1778 H 162.451 2.74253 -2.43271 0
M  V30 1779 H 162.099 4.8863 -1.19371 0
M  V30 1780 H 161.799 5.08875 -2.93803 0
M  V30 1781 H 163.323 5.68702 -2.22284 0
M  V30 1782 H 164.737 4.18066 -3.92293 0
M  V30 1783 H 163.134 3.82075 -4.62751 0
M  V30 1784 H 164.204 2.48552 -4.16353 0
M  V30 1785 N 165.547 1.27147 0.931209 0
M  V30 1786 C 166.457 1.11372 2.06478 0
M  V30 1787 C 167.473 0.044645 1.73943 0
M  V30 1788 O 168.649 0.250417 1.99837 0
M  V30 1789 C 165.714 0.758838 3.38294 0
M  V30 1790 C 164.775 1.90841 3.84549 0
M  V30 1791 C 164.008 1.57036 5.10074 0
M  V30 1792 O 164.231 0.476645 5.68405 0
M  V30 1793 O 163.165 2.40839 5.51616 0
M  V30 1794 H 166.991 2.06493 2.22698 0
M  V30 1795 H 164.576 1.06301 1.04978 0
M  V30 1796 H 166.458 0.574098 4.17471 0
M  V30 1797 H 165.133 -0.162879 3.2329 0
M  V30 1798 H 164.04 2.14819 3.06274 0
M  V30 1799 H 165.373 2.81021 4.04089 0
M  V30 1800 N 167.025 -1.13721 1.09112 0
M  V30 1801 C 168.436 -1.6648 0.845068 0
M  V30 1802 C 168.787 -1.85911 -0.62701 0
M  V30 1803 O 167.912 -1.57556 -1.48341 0
M  V30 1804 C 168.507 -3.02413 1.52748 0
M  V30 1805 C 167.066 -3.52176 1.32849 0
M  V30 1806 C 166.213 -2.27492 1.58564 0
M  V30 1807 H 169.164 -0.976872 1.25072 0
M  V30 1808 H 169.185 -3.68223 0.958752 0
M  V30 1809 H 168.697 -2.88238 2.59885 0
M  V30 1810 H 166.798 -3.7156 0.278137 0
M  V30 1811 H 166.911 -4.32499 2.0611 0
M  V30 1812 H 165.275 -2.33923 1.00758 0
M  V30 1813 H 166.058 -2.15886 2.66924 0
M  V30 1814 N 168.503 -0.877838 -1.30888 0
M  V30 1815 C 169.466 -0.344265 -2.266 0
M  V30 1816 C 170.466 0.50922 -1.52524 0
M  V30 1817 O 171.656 0.317398 -1.71284 0
M  V30 1818 C 168.788 0.510198 -3.37061 0
M  V30 1819 H 169.981 -1.1893 -2.7531 0
M  V30 1820 H 167.534 -0.654088 -1.41956 0
M  V30 1821 H 168.269 1.37612 -2.93655 0
M  V30 1822 H 168.054 -0.101047 -3.9197 0
M  V30 1823 H 169.544 0.875537 -4.08319 0
M  V30 1824 N 169.982 1.44106 -0.638065 0
M  V30 1825 C 170.892 2.34513 0.0637334 0
M  V30 1826 C 171.908 1.53018 0.828346 0
M  V30 1827 O 173.084 1.85723 0.779036 0
M  V30 1828 C 170.149 3.31095 1.02844 0
M  V30 1829 C 169.21 4.28497 0.26244 0
M  V30 1830 C 168.443 5.20465 1.1812 0
M  V30 1831 O 168.666 5.16514 2.42011 0
M  V30 1832 O 167.6 5.98251 0.661774 0
M  V30 1833 H 171.426 2.95989 -0.68003 0
M  V30 1834 H 169.011 1.43994 -0.398252 0
M  V30 1835 H 170.893 3.90526 1.58327 0
M  V30 1836 H 169.568 2.72144 1.7527 0
M  V30 1837 H 168.475 3.72592 -0.335602 0
M  V30 1838 H 169.808 4.90388 -0.421936 0
M  V30 1839 N 171.46 0.379036 1.52974 0
M  V30 1840 C 172.708 -0.206014 2.01047 0
M  V30 1841 C 173.029 -1.48175 1.26765 0
M  V30 1842 O 172.299 -1.92085 0.384743 0
M  V30 1843 H 170.879 -0.0791184 0.742798 0
M  V30 1844 H 173.541 0.508366 1.88153 0
M  V30 1845 H 172.637 -0.423501 3.09213 0
M  V30 1846 N 172.938 -1.57226 0.108567 0
M  V30 1847 C 174.354 -1.5766 -0.248058 0
M  V30 1848 C 174.554 -1.12063 -1.67464 0
M  V30 1849 O 173.61 -0.803236 -2.39383 0
M  V30 1850 C 174.923 -3.0069 -0.0242287 0
M  V30 1851 C 176.471 -3.12868 -0.0909372 0
M  V30 1852 C 176.946 -4.57879 0.105067 0
M  V30 1853 N 178.437 -4.63172 0.0506846 0
M  V30 1854 C 179.172 -5.73126 0.177396 0
M  V30 1855 N 178.668 -6.91866 0.359696 0
M  V30 1856 N 180.461 -5.61977 0.117709 0
M  V30 1857 H 172.612 -1.85169 1.04049 0
M  V30 1858 H 174.875 -0.85529 0.40888 0
M  V30 1859 H 174.581 -3.38299 0.961604 0
M  V30 1860 H 174.455 -3.6945 -0.76068 0
M  V30 1861 H 176.842 -2.75124 -1.06729 0
M  V30 1862 H 176.923 -2.46672 0.677225 0
M  V30 1863 H 176.567 -4.96321 1.07834 0
M  V30 1864 H 176.497 -5.22153 -0.682954 0
M  V30 1865 H 178.988 -3.778 -0.0871266 0
M  V30 1866 H 179.301 -7.71503 0.447529 0
M  V30 1867 H 177.646 -6.93874 0.395536 0
M  V30 1868 H 180.837 -4.68094 -0.0236741 0
M  V30 1869 H 181.01 -6.47627 0.219905 0
M  V30 1870 N 174.416 0.165178 -1.56732 0
M  V30 1871 C 175.664 0.879068 -1.8198 0
M  V30 1872 C 175.985 1.82514 -0.686561 0
M  V30 1873 O 175.255 1.93694 0.293146 0
M  V30 1874 H 173.835 0.327608 -0.671329 0
M  V30 1875 H 176.497 0.163526 -1.94213 0
M  V30 1876 H 175.593 1.45228 -2.76252 0
M  V30 1877 N 175.894 1.51508 0.433938 0
M  V30 1878 C 177.31 1.39759 0.770682 0
M  V30 1879 C 177.51 0.482594 1.95636 0
M  V30 1880 O 176.566 -0.0609691 2.52426 0
M  V30 1881 C 177.879 2.81851 1.04787 0
M  V30 1882 C 179.427 2.91025 1.1521 0
M  V30 1883 C 179.902 4.34032 1.46219 0
M  V30 1884 N 181.393 4.37154 1.53136 0
M  V30 1885 C 182.128 5.4484 1.78709 0
M  V30 1886 N 181.624 6.62682 2.02051 0
M  V30 1887 N 183.417 5.32324 1.80519 0
M  V30 1888 H 175.568 2.09548 -0.346892 0
M  V30 1889 H 177.831 0.943446 -0.0928074 0
M  V30 1890 H 177.537 3.50815 0.249304 0
M  V30 1891 H 177.411 3.21386 1.97461 0
M  V30 1892 H 179.798 2.22257 1.94128 0
M  V30 1893 H 179.879 2.54983 0.204281 0
M  V30 1894 H 179.523 5.03351 0.678274 0
M  V30 1895 H 179.453 4.6759 2.42212 0
M  V30 1896 H 181.944 3.52197 1.36987 0
M  V30 1897 H 182.257 7.40543 2.20943 0
M  V30 1898 H 180.602 6.65791 1.99366 0
M  V30 1899 H 183.793 4.39246 1.61805 0
M  V30 1900 H 183.966 6.16328 2.00111 0
M  V30 1901 N 177.372 -0.689602 1.41712 0
M  V30 1902 C 178.6 -1.47827 1.44758 0
M  V30 1903 C 179.015 -1.88721 0.0545703 0
M  V30 1904 O 178.372 -1.57176 -0.927463 0
M  V30 1905 C 178.423 -2.73698 2.3616 0
M  V30 1906 O 178.144 -2.34524 3.7004 0
M  V30 1907 C 179.645 -3.67389 2.48072 0
M  V30 1908 H 176.865 -0.455357 0.49284 0
M  V30 1909 H 179.409 -0.848574 1.86063 0
M  V30 1910 H 177.564 -3.32891 1.98148 0
M  V30 1911 H 177.978 -3.15701 4.18847 0
M  V30 1912 H 179.452 -4.52475 3.16181 0
M  V30 1913 H 179.929 -4.12284 1.51388 0
M  V30 1914 H 180.535 -3.14097 2.86746 0
M  V30 1915 N 178.85 -1.27639 -0.924453 0
M  V30 1916 C 180.261 -1.12834 -1.48746 0
M  V30 1917 C 180.612 0.285505 -1.94112 0
M  V30 1918 O 179.737 1.17874 -1.81479 0
M  V30 1919 C 180.332 -2.04217 -2.70334 0
M  V30 1920 C 178.891 -1.93509 -3.22848 0
M  V30 1921 C 178.038 -1.96583 -1.95577 0
M  V30 1922 H 180.989 -1.40484 -0.738233 0
M  V30 1923 H 181.01 -1.59989 -3.4523 0
M  V30 1924 H 180.522 -3.07111 -2.37285 0
M  V30 1925 H 178.623 -0.936131 -3.60649 0
M  V30 1926 H 178.736 -2.79917 -3.88823 0
M  V30 1927 H 177.1 -1.4085 -2.12211 0
M  V30 1928 H 177.883 -3.01137 -1.64837 0
M  V30 1929 N 180.328 1.1314 -1.09713 0
M  V30 1930 C 181.568 1.8613 -0.844683 0
M  V30 1931 C 181.932 1.81765 0.618491 0
M  V30 1932 O 183.133 2.50024 0.98699 0
M  V30 1933 C 181.404 3.30151 -1.36877 0
M  V30 1934 S 182.963 4.206 -1.25064 0
M  V30 1935 H 179.781 0.642056 -0.305427 0
M  V30 1936 H 182.383 1.36343 -1.4011 0
M  V30 1937 H 181.087 3.30883 -2.42786 0
M  V30 1938 H 180.618 3.85 -0.808614 0
M  V30 1939 H 182.633 4.95783 -0.203486 0
M  V30 1940 N 181.806 0.884767 1.30421 0
M  V30 1941 C 183.052 0.503851 1.96441 0
M  V30 1942 C 183.385 -0.944518 1.69684 0
M  V30 1943 O 182.66 -1.66737 1.00145 0
M  V30 1944 C 182.943 0.779085 3.51571 0
M  V30 1945 C 182.796 2.27807 3.87846 0
M  V30 1946 C 184.115 0.255452 4.39358 0
M  V30 1947 H 181.234 0.184533 0.713524 0
M  V30 1948 H 183.876 1.10872 1.54297 0
M  V30 1949 H 182.026 0.264274 3.876 0
M  V30 1950 H 183.698 2.86127 3.61841 0
M  V30 1951 H 181.941 2.74479 3.35922 0
M  V30 1952 H 182.612 2.42125 4.96064 0
M  V30 1953 H 185.088 0.696079 4.10236 0
M  V30 1954 H 183.964 0.477361 5.4682 0
M  V30 1955 H 184.225 -0.843293 4.33983 0
M  V30 1956 N 183.284 -1.43765 0.645699 0
M  V30 1957 C 184.217 -2.2798 -0.100072 0
M  V30 1958 C 185.195 -1.39391 -0.837194 0
M  V30 1959 O 186.379 -1.68833 -0.838306 0
M  V30 1960 C 183.506 -3.18643 -1.14823 0
M  V30 1961 C 182.552 -4.2344 -0.510009 0
M  V30 1962 S 183.385 -5.30761 0.710824 0
M  V30 1963 C 184.541 -6.24992 -0.33699 0
M  V30 1964 H 184.774 -2.90884 0.614322 0
M  V30 1965 H 182.307 -1.48166 0.434304 0
M  V30 1966 H 184.265 -3.71424 -1.74799 0
M  V30 1967 H 182.926 -2.54932 -1.8349 0
M  V30 1968 H 182.119 -4.86948 -1.29991 0
M  V30 1969 H 181.721 -3.73997 0.0154577 0
M  V30 1970 H 184.013 -6.66691 -1.20537 0
M  V30 1971 H 184.956 -7.07612 0.262879 0
M  V30 1972 H 185.364 -5.60517 -0.669425 0
M  V30 1973 N 184.763 -0.387143 -1.52771 0
M  V30 1974 C 185.695 0.484089 -2.2403 0
M  V30 1975 C 186.708 1.02849 -1.26198 0
M  V30 1976 O 187.897 0.931186 -1.52286 0
M  V30 1977 C 184.997 1.68337 -2.94136 0
M  V30 1978 C 184.17 1.26672 -4.18656 0
M  V30 1979 C 183.229 2.33045 -4.7178 0
M  V30 1980 O 182.255 1.94541 -5.34923 0
M  V30 1981 N 183.457 3.64929 -4.5145 0
M  V30 1982 H 186.222 -0.126404 -2.99433 0
M  V30 1983 H 183.783 -0.213392 -1.60488 0
M  V30 1984 H 185.775 2.39019 -3.26577 0
M  V30 1985 H 184.345 2.20025 -2.22053 0
M  V30 1986 H 183.565 0.388878 -3.92277 0
M  V30 1987 H 184.853 0.964964 -4.99566 0
M  V30 1988 H 184.251 3.98974 -4.01044 0
M  V30 1989 H 182.808 4.31651 -4.88386 0
M  V30 1990 N 186.241 1.57166 -0.116904 0
M  V30 1991 C 187.487 1.95412 0.542405 0
M  V30 1992 C 187.82 1.00019 1.66463 0
M  V30 1993 O 187.095 0.0370346 1.94465 0
M  V30 1994 C 187.378 3.43615 1.07708 0
M  V30 1995 C 187.231 4.49781 -0.0415868 0
M  V30 1996 C 188.55 3.93616 1.96861 0
M  V30 1997 H 185.669 0.710543 0.195696 0
M  V30 1998 H 188.311 1.89027 -0.192038 0
M  V30 1999 H 186.461 3.49187 1.70296 0
M  V30 2000 H 188.133 4.56308 -0.676793 0
M  V30 2001 H 186.376 4.28033 -0.705019 0
M  V30 2002 H 187.047 5.50733 0.373717 0
M  V30 2003 H 189.523 3.90335 1.44146 0
M  V30 2004 H 188.399 4.97838 2.3119 0
M  V30 2005 H 188.66 3.34188 2.89432 0
M  V30 2006 N 187.719 -0.156864 1.56817 0
M  V30 2007 C 188.669 -1.19891 1.93934 0
M  V30 2008 C 189.653 -1.39061 0.809372 0
M  V30 2009 O 190.845 -1.40789 1.07273 0
M  V30 2010 C 187.974 -2.53493 2.31508 0
M  V30 2011 C 187.06 -2.37957 3.51052 0
M  V30 2012 N 187.451 -1.92158 4.67877 0
M  V30 2013 C 185.749 -2.68739 3.55943 0
M  V30 2014 C 186.45 -1.8943 5.49992 0
M  V30 2015 N 185.426 -2.32375 4.91429 0
M  V30 2016 H 189.228 -0.836746 2.81737 0
M  V30 2017 H 186.742 -0.365012 1.58245 0
M  V30 2018 H 188.739 -3.28811 2.56299 0
M  V30 2019 H 187.399 -2.905 1.45051 0
M  V30 2020 H 188.41 -1.62274 4.91821 0
M  V30 2021 H 185.087 -3.09687 2.80001 0
M  V30 2022 H 186.477 -1.55596 6.53636 0
M  V30 2023 N 189.197 -1.51736 -0.425897 0
M  V30 2024 C 190.445 -1.64644 -1.17204 0
M  V30 2025 C 190.766 -0.370486 -1.91448 0
M  V30 2026 O 190.036 0.614088 -1.86026 0
M  V30 2027 H 188.616 -0.606819 -0.435638 0
M  V30 2028 H 191.278 -1.88713 -0.487177 0
M  V30 2029 H 190.374 -2.47958 -1.89534 0
M  V30 2030 N 190.675 0.682077 -1.42076 0
M  V30 2031 C 191.922 1.44215 -1.42156 0
M  V30 2032 C 192.25 1.94468 -0.0354186 0
M  V30 2033 O 191.505 1.70816 0.955002 0
M  V30 2034 C 191.804 2.66036 -2.38662 0
M  V30 2035 C 191.47 2.34366 -3.85206 0
M  V30 2036 C 190.132 2.25439 -4.25124 0
M  V30 2037 C 192.484 2.08513 -4.77673 0
M  V30 2038 C 189.812 1.88775 -5.55501 0
M  V30 2039 C 192.164 1.73354 -6.08384 0
M  V30 2040 C 190.828 1.62933 -6.47309 0
M  V30 2041 H 190.098 0.527718 -0.520187 0
M  V30 2042 H 192.745 0.778387 -1.74967 0
M  V30 2043 H 191.05 3.3741 -1.99152 0
M  V30 2044 H 192.747 3.24205 -2.35991 0
M  V30 2045 H 189.337 2.42213 -3.53597 0
M  V30 2046 H 193.521 2.14346 -4.47626 0
M  V30 2047 H 188.777 1.7927 -5.84527 0
M  V30 2048 H 192.951 1.52373 -6.79526 0
M  V30 2049 H 190.578 1.34292 -7.48244 0
M  V30 2050 N 192.153 1.28127 0.917671 0
M  V30 2051 C 193.086 1.06039 2.02067 0
M  V30 2052 C 194.064 -0.0223285 1.62585 0
M  V30 2053 O 195.248 0.124823 1.88086 0
M  V30 2054 C 192.375 0.610596 3.33151 0
M  V30 2055 C 191.421 1.68937 3.91615 0
M  V30 2056 S 192.254 3.28437 4.22953 0
M  V30 2057 C 193.41 2.85283 5.57103 0
M  V30 2058 H 193.643 1.99425 2.20493 0
M  V30 2059 H 191.176 1.12071 1.06205 0
M  V30 2060 H 193.134 0.357778 4.08938 0
M  V30 2061 H 191.795 -0.303364 3.12632 0
M  V30 2062 H 190.988 1.32619 4.86239 0
M  V30 2063 H 190.59 1.89478 3.2245 0
M  V30 2064 H 192.882 2.3121 6.36827 0
M  V30 2065 H 193.825 3.7869 5.98331 0
M  V30 2066 H 194.233 2.24118 5.18104 0
M  V30 2067 N 193.631 -1.12557 1.10312 0
M  V30 2068 C 194.594 -2.16434 0.75424 0
M  V30 2069 C 195.594 -1.59278 -0.220685 0
M  V30 2070 O 196.784 -1.742 0.00230591 0
M  V30 2071 C 193.916 -3.40699 0.116987 0
M  V30 2072 H 195.109 -2.48811 1.67431 0
M  V30 2073 H 192.662 -1.27542 0.903475 0
M  V30 2074 H 193.397 -3.13921 -0.813877 0
M  V30 2075 H 193.182 -3.83459 0.818613 0
M  V30 2076 H 194.672 -4.17451 -0.111387 0
M  V30 2077 N 195.109 -0.891671 -1.2995 0
M  V30 2078 C 196.072 -0.36828 -2.26222 0
M  V30 2079 C 197.072 0.493014 -1.53056 0
M  V30 2080 O 198.262 0.299213 -1.71611 0
M  V30 2081 C 195.394 0.47442 -3.37583 0
M  V30 2082 H 196.587 -1.21844 -2.74033 0
M  V30 2083 H 194.14 -0.669107 -1.41254 0
M  V30 2084 H 194.875 1.34489 -2.95099 0
M  V30 2085 H 194.66 -0.142615 -3.91841 0
M  V30 2086 H 196.15 0.83218 -4.09224 0
M  V30 2087 N 196.587 1.43421 -0.653314 0
M  V30 2088 C 197.834 2.01812 -0.166745 0
M  V30 2089 C 198.162 1.51535 1.21931 0
M  V30 2090 O 197.417 0.698975 1.82792 0
M  V30 2091 C 197.716 3.57176 -0.126623 0
M  V30 2092 C 197.382 4.26798 -1.45444 0
M  V30 2093 C 196.044 4.45534 -1.81805 0
M  V30 2094 C 198.396 4.66225 -2.32989 0
M  V30 2095 C 195.724 5.00961 -3.05377 0
M  V30 2096 C 198.076 5.23021 -3.55853 0
M  V30 2097 C 196.74 5.39973 -3.9241 0
M  V30 2098 H 196.01 0.738484 -0.0610162 0
M  V30 2099 H 198.657 1.71896 -0.84404 0
M  V30 2100 H 196.962 3.86634 0.634123 0
M  V30 2101 H 198.659 4.00112 0.266723 0
M  V30 2102 H 195.249 4.12561 -1.16153 0
M  V30 2103 H 199.433 4.51443 -2.06187 0
M  V30 2104 H 194.689 5.12271 -3.3375 0
M  V30 2105 H 198.863 5.52518 -4.23907 0
M  V30 2106 H 196.49 5.82687 -4.88242 0
M  V30 2107 N 198.065 0.39524 1.52563 0
M  V30 2108 C 198.995 -0.428384 2.29537 0
M  V30 2109 C 199.976 -1.05831 1.33169 0
M  V30 2110 O 201.161 -1.06995 1.62067 0
M  V30 2111 C 198.291 -1.55274 3.10656 0
M  V30 2112 C 197.245 -1.04855 4.14957 0
M  V30 2113 C 196.571 -2.26543 4.84337 0
M  V30 2114 C 197.871 -0.112324 5.22179 0
M  V30 2115 H 199.565 0.213867 2.98635 0
M  V30 2116 H 197.111 0.104298 1.43622 0
M  V30 2117 H 199.064 -2.1358 3.63265 0
M  V30 2118 H 197.788 -2.22266 2.39302 0
M  V30 2119 H 196.447 -0.487985 3.63338 0
M  V30 2120 H 196.095 -2.92059 4.09525 0
M  V30 2121 H 195.795 -1.93466 5.54837 0
M  V30 2122 H 197.319 -2.85481 5.39753 0
M  V30 2123 H 198.733 -0.603752 5.70112 0
M  V30 2124 H 197.13 0.128968 5.99961 0
M  V30 2125 H 198.2 0.837052 4.77621 0
M  V30 2126 N 199.544 -1.57102 0.125237 0
M  V30 2127 C 200.791 -1.95407 -0.531248 0
M  V30 2128 C 201.119 -1.0089 -1.66287 0
M  V30 2129 O 200.374 -0.0339431 -1.95671 0
M  V30 2130 C 200.673 -3.40096 -1.09862 0
M  V30 2131 C 200.339 -4.50815 -0.0876989 0
M  V30 2132 C 199.001 -4.80824 0.19026 0
M  V30 2133 C 201.353 -5.17724 0.600902 0
M  V30 2134 C 198.681 -5.75058 1.163 0
M  V30 2135 C 201.033 -6.13005 1.56231 0
M  V30 2136 C 199.697 -6.41403 1.8482 0
M  V30 2137 H 198.967 -0.715046 -0.194397 0
M  V30 2138 H 201.614 -1.90373 0.207463 0
M  V30 2139 H 199.919 -3.41855 -1.91422 0
M  V30 2140 H 201.616 -3.6705 -1.61478 0
M  V30 2141 H 198.206 -4.27444 -0.314528 0
M  V30 2142 H 202.39 -4.94691 0.399333 0
M  V30 2143 H 197.646 -5.95362 1.39117 0
M  V30 2144 H 201.82 -6.63934 2.10153 0
M  V30 2145 H 199.447 -7.14229 2.60349 0
M  V30 2146 N 201.022 0.148545 -1.56898 0
M  V30 2147 C 202.247 0.880385 -1.87787 0
M  V30 2148 C 202.672 1.74018 -0.714093 0
M  V30 2149 O 202.03 1.78153 0.336343 0
M  V30 2150 C 202.078 1.71422 -3.17249 0
M  V30 2151 O 201.182 2.8183 -3.01074 0
M  V30 2152 H 200.523 0.245301 -0.617028 0
M  V30 2153 H 203.053 0.139826 -2.04122 0
M  V30 2154 H 203.063 2.10954 -3.49231 0
M  V30 2155 H 201.738 1.08284 -4.01556 0
M  V30 2156 H 200.315 2.45715 -2.80497 0
M  V30 2157 N 202.5 1.5196 0.417844 0
M  V30 2158 C 203.749 1.6482 1.16264 0
M  V30 2159 C 204.062 0.379886 1.91876 0
M  V30 2160 O 205.268 0.388154 2.68711 0
M  V30 2161 C 203.724 2.91161 2.1155 0
M  V30 2162 C 203.332 4.25068 1.41495 0
M  V30 2163 C 205.076 3.13383 2.86341 0
M  V30 2164 C 202.983 5.42541 2.35379 0
M  V30 2165 H 201.913 0.613954 0.437694 0
M  V30 2166 H 204.564 1.78442 0.427871 0
M  V30 2167 H 202.946 2.71218 2.88543 0
M  V30 2168 H 204.12 4.55463 0.699263 0
M  V30 2169 H 202.435 4.0888 0.787792 0
M  V30 2170 H 205.032 3.98324 3.5671 0
M  V30 2171 H 205.375 2.27256 3.48798 0
M  V30 2172 H 205.908 3.33757 2.1645 0
M  V30 2173 H 202.647 6.30987 1.77582 0
M  V30 2174 H 202.167 5.16497 3.04945 0
M  V30 2175 H 203.846 5.75272 2.96093 0
M  V30 2176 N 203.978 -0.674533 1.42435 0
M  V30 2177 C 204.888 -1.81751 1.48337 0
M  V30 2178 C 205.904 -1.69975 0.372099 0
M  V30 2179 O 207.08 -1.91521 0.62304 0
M  V30 2180 C 204.145 -3.17895 1.38361 0
M  V30 2181 C 203.206 -3.41625 2.59982 0
M  V30 2182 C 202.439 -4.71274 2.50473 0
M  V30 2183 O 202.662 -5.49197 1.54075 0
M  V30 2184 O 201.596 -4.96254 3.4061 0
M  V30 2185 H 205.422 -1.79728 2.44809 0
M  V30 2186 H 203.007 -0.830312 1.24202 0
M  V30 2187 H 204.889 -3.99136 1.35161 0
M  V30 2188 H 203.564 -3.20555 0.450144 0
M  V30 2189 H 202.471 -2.60231 2.68757 0
M  V30 2190 H 203.804 -3.43796 3.52229 0
M  V30 2191 N 205.456 -1.28612 -0.910864 0
M  V30 2192 C 206.684 -1.18792 -1.69399 0
M  V30 2193 C 207.099 0.253039 -1.87097 0
M  V30 2194 O 206.456 1.17071 -1.40003 0
M  V30 2195 C 206.507 -1.88511 -3.08457 0
M  V30 2196 O 206.228 -3.26979 -2.91576 0
M  V30 2197 C 207.729 -1.85029 -4.02839 0
M  V30 2198 H 204.949 -0.412233 -0.529438 0
M  V30 2199 H 207.493 -1.69788 -1.13984 0
M  V30 2200 H 205.648 -1.41379 -3.60681 0
M  V30 2201 H 206.062 -3.61936 -3.79608 0
M  V30 2202 H 207.536 -2.38395 -4.97867 0
M  V30 2203 H 208.013 -0.823303 -4.31414 0
M  V30 2204 H 208.619 -2.31853 -3.56545 0
M  V30 2205 N 206.934 1.1197 -1.10907 0
M  V30 2206 C 207.866 2.17592 -0.720175 0
M  V30 2207 C 208.879 1.60938 0.245495 0
M  V30 2208 O 210.068 1.78476 0.0292245 0
M  V30 2209 C 207.168 3.38873 -0.0427917 0
M  V30 2210 C 206.341 4.25006 -1.03388 0
M  V30 2211 C 205.4 5.24774 -0.387075 0
M  V30 2212 O 204.426 5.59631 -1.03934 0
M  V30 2213 N 205.628 5.74208 0.852407 0
M  V30 2214 H 208.393 2.51567 -1.62893 0
M  V30 2215 H 205.954 1.27439 -0.998543 0
M  V30 2216 H 207.946 4.02703 0.401501 0
M  V30 2217 H 206.516 3.03007 0.768456 0
M  V30 2218 H 205.736 3.57716 -1.65629 0
M  V30 2219 H 207.024 4.79397 -1.70458 0
M  V30 2220 H 206.422 5.48062 1.40161 0
M  V30 2221 H 204.979 6.39901 1.23977 0
M  V30 2222 N 208.412 0.89855 1.29475 0
M  V30 2223 C 209.64 0.539261 1.99749 0
M  V30 2224 C 210.055 -0.875716 1.67262 0
M  V30 2225 O 209.412 -1.57786 0.917049 0
M  V30 2226 C 209.463 0.72061 3.54245 0
M  V30 2227 O 209.184 2.07989 3.8558 0
M  V30 2228 C 210.685 0.366118 4.41786 0
M  V30 2229 H 207.905 0.207047 0.638258 0
M  V30 2230 H 210.449 1.20758 1.65039 0
M  V30 2231 H 208.604 0.0994862 3.87272 0
M  V30 2232 H 209.018 2.10841 4.80257 0
M  V30 2233 H 210.492 0.543848 5.49314 0
M  V30 2234 H 210.969 -0.696763 4.33638 0
M  V30 2235 H 211.575 0.964135 4.14228 0
M  V30 2236 N 209.89 -1.43072 0.660911 0
M  V30 2237 C 211.118 -2.06067 0.185422 0
M  V30 2238 C 211.533 -1.49582 -1.15198 0
M  V30 2239 O 210.89 -0.630134 -1.71276 0
M  V30 2240 C 210.941 -3.61371 0.0966523 0
M  V30 2241 O 210.662 -4.15758 1.38119 0
M  V30 2242 C 212.163 -4.41455 -0.403996 0
M  V30 2243 H 209.383 -0.664459 0.0934604 0
M  V30 2244 H 211.927 -1.83447 0.90373 0
M  V30 2245 H 210.082 -3.8315 -0.572259 0
M  V30 2246 H 210.496 -5.09499 1.24542 0
M  V30 2247 H 211.97 -5.50437 -0.415045 0
M  V30 2248 H 212.447 -4.15036 -1.43674 0
M  V30 2249 H 213.053 -4.24663 0.232691 0
M  V30 2250 N 211.368 -0.403325 -1.52352 0
M  V30 2251 C 212.617 0.175668 -2.00934 0
M  V30 2252 C 212.93 1.46718 -1.29356 0
M  V30 2253 O 214.136 2.12708 -1.68724 0
M  V30 2254 C 212.592 0.363612 -3.58058 0
M  V30 2255 C 212.2 -0.915472 -4.38547 0
M  V30 2256 C 213.944 0.89821 -4.14888 0
M  V30 2257 C 211.851 -0.695035 -5.87302 0
M  V30 2258 H 210.781 0.0694234 -0.750797 0
M  V30 2259 H 213.432 -0.527879 -1.75743 0
M  V30 2260 H 211.814 1.12935 -3.79555 0
M  V30 2261 H 212.988 -1.68691 -4.28812 0
M  V30 2262 H 211.303 -1.37606 -3.93006 0
M  V30 2263 H 213.9 1.07907 -5.23699 0
M  V30 2264 H 214.243 1.87126 -3.71873 0
M  V30 2265 H 214.776 0.191681 -3.97338 0
M  V30 2266 H 211.515 -1.63948 -6.34666 0
M  V30 2267 H 211.035 0.0372116 -5.99788 0
M  V30 2268 H 212.714 -0.33497 -6.46132 0
M  V30 2269 N 212.846 1.57033 -0.133567 0
M  V30 2270 C 214.094 1.953 0.519848 0
M  V30 2271 C 214.415 1.01866 1.66278 0
M  V30 2272 O 213.685 0.0776513 1.95746 0
M  V30 2273 H 212.265 0.721091 0.195032 0
M  V30 2274 H 214.927 1.93809 -0.205921 0
M  V30 2275 H 214.023 2.98695 0.904854 0
M  V30 2276 N 214.325 -0.140222 1.56975 0
M  V30 2277 C 215.555 -0.865181 1.87612 0
M  V30 2278 C 215.963 -1.74942 0.72055 0
M  V30 2279 O 215.306 -1.80917 -0.318561 0
M  V30 2280 C 215.368 -1.76782 3.13031 0
M  V30 2281 C 215.032 -1.06005 4.44536 0
M  V30 2282 C 216.029 -0.410768 5.18275 0
M  V30 2283 C 213.714 -1.04754 4.91255 0
M  V30 2284 C 215.708 0.241572 6.36942 0
M  V30 2285 C 213.395 -0.391394 6.09845 0
M  V30 2286 C 214.393 0.252029 6.82535 0
M  V30 2287 O 214.081 0.897757 7.98871 0
M  V30 2288 H 213.813 -0.255188 0.625983 0
M  V30 2289 H 216.367 -0.135653 2.04952 0
M  V30 2290 H 214.597 -2.53846 2.91718 0
M  V30 2291 H 216.286 -2.36533 3.29859 0
M  V30 2292 H 217.052 -0.412195 4.83245 0
M  V30 2293 H 212.931 -1.53777 4.34596 0
M  V30 2294 H 216.475 0.744375 6.93617 0
M  V30 2295 H 212.372 -0.387656 6.44335 0
M  V30 2296 H 213.14 0.800102 8.1458 0
M  V30 2297 N 215.803 -1.52179 -0.40978 0
M  V30 2298 C 217.051 -1.65878 -1.15451 0
M  V30 2299 C 217.372 -0.390771 -1.91044 0
M  V30 2300 O 216.642 0.594323 -1.86667 0
M  V30 2301 H 215.222 -0.611405 -0.429177 0
M  V30 2302 H 217.884 -1.89219 -0.467134 0
M  V30 2303 H 216.98 -2.49954 -1.86894 0
M  V30 2304 N 217.281 0.66697 -1.42791 0
M  V30 2305 C 218.211 1.79218 -1.49677 0
M  V30 2306 C 219.192 1.66405 -0.352623 0
M  V30 2307 O 220.377 1.85708 -0.567993 0
M  V30 2308 C 217.507 3.17565 -1.40605 0
M  V30 2309 C 216.461 3.45124 -2.53127 0
M  V30 2310 C 215.787 4.83127 -2.29112 0
M  V30 2311 C 217.087 3.41236 -3.95418 0
M  V30 2312 H 218.781 1.73713 -2.43853 0
M  V30 2313 H 216.327 0.83432 -1.17367 0
M  V30 2314 H 218.28 3.96022 -1.44029 0
M  V30 2315 H 217.004 3.23767 -0.429271 0
M  V30 2316 H 215.663 2.69031 -2.49034 0
M  V30 2317 H 215.311 4.85988 -1.29709 0
M  V30 2318 H 215.011 5.02528 -3.04531 0
M  V30 2319 H 216.535 5.63859 -2.34297 0
M  V30 2320 H 217.949 4.09651 -4.01073 0
M  V30 2321 H 216.346 3.72173 -4.70752 0
M  V30 2322 H 217.416 2.39665 -4.21532 0
M  V30 2323 N 218.759 1.29093 0.90403 0
M  V30 2324 C 220.175 1.07011 1.1841 0
M  V30 2325 C 220.375 -0.181358 2.00682 0
M  V30 2326 O 219.431 -0.880331 2.36657 0
M  V30 2327 C 220.744 2.32311 1.90924 0
M  V30 2328 C 222.292 2.37587 2.03768 0
M  V30 2329 C 222.767 3.62679 2.79693 0
M  V30 2330 N 224.258 3.63376 2.87249 0
M  V30 2331 C 224.993 4.56848 3.46522 0
M  V30 2332 N 224.489 5.60648 4.06996 0
M  V30 2333 N 226.282 4.44426 3.44154 0
M  V30 2334 H 218.433 2.09412 0.354993 0
M  V30 2335 H 220.696 0.922181 0.219742 0
M  V30 2336 H 220.402 3.23536 1.37905 0
M  V30 2337 H 220.276 2.39483 2.91424 0
M  V30 2338 H 222.663 1.46853 2.55965 0
M  V30 2339 H 222.744 2.34403 1.02415 0
M  V30 2340 H 222.388 4.53762 2.28173 0
M  V30 2341 H 222.318 3.63119 3.81381 0
M  V30 2342 H 224.809 2.88321 2.44293 0
M  V30 2343 H 225.122 6.28101 4.50232 0
M  V30 2344 H 223.467 5.64463 4.05471 0
M  V30 2345 H 226.658 3.62529 2.96126 0
M  V30 2346 H 226.831 5.17457 3.90054 0
M  V30 2347 N 220.237 -1.11381 1.11499 0
M  V30 2348 C 221.477 -1.84763 0.874188 0
M  V30 2349 C 221.841 -1.82726 -0.589496 0
M  V30 2350 O 223.042 -2.51562 -0.947089 0
M  V30 2351 C 221.313 -3.27931 1.42112 0
M  V30 2352 S 222.872 -4.18557 1.31739 0
M  V30 2353 H 219.69 -0.637115 0.315603 0
M  V30 2354 H 222.292 -1.34097 1.42261 0
M  V30 2355 H 220.996 -3.26978 2.48019 0
M  V30 2356 H 220.527 -3.83665 0.869761 0
M  V30 2357 H 222.542 -4.95396 0.282335 0
M  V30 2358 N 221.715 -0.905404 -1.28997 0
M  V30 2359 C 222.961 -0.535039 -1.95615 0
M  V30 2360 C 223.294 0.917404 -1.71165 0
M  V30 2361 O 222.569 1.65123 -1.02785 0
M  V30 2362 C 222.852 -0.834918 -3.50287 0
M  V30 2363 C 222.705 -2.33948 -3.84172 0
M  V30 2364 C 224.024 -0.325318 -4.38896 0
M  V30 2365 H 221.143 -0.195861 -0.710498 0
M  V30 2366 H 223.785 -1.13313 -1.52513 0
M  V30 2367 H 221.935 -0.325904 -3.87131 0
M  V30 2368 H 223.607 -2.91847 -3.57243 0
M  V30 2369 H 221.85 -2.79789 -3.31513 0
M  V30 2370 H 222.521 -2.49987 -4.92149 0
M  V30 2371 H 224.997 -0.761256 -4.09077 0
M  V30 2372 H 223.873 -0.564295 -5.45992 0
M  V30 2373 H 224.134 0.774144 -4.35269 0
M  V30 2374 N 223.193 1.4272 -0.668489 0
M  V30 2375 C 224.421 2.05966 -0.196348 0
M  V30 2376 C 224.836 1.50191 1.14403 0
M  V30 2377 O 224.193 0.639208 1.7094 0
M  V30 2378 C 224.244 3.61314 -0.115815 0
M  V30 2379 O 223.965 4.1502 -1.40322 0
M  V30 2380 C 225.466 4.41663 0.380579 0
M  V30 2381 H 222.686 0.663954 -0.0969829 0
M  V30 2382 H 225.23 1.82966 -0.913446 0
M  V30 2383 H 223.385 3.83448 0.551931 0
M  V30 2384 H 223.799 5.08832 -1.27243 0
M  V30 2385 H 225.273 5.5065 0.385848 0
M  V30 2386 H 225.75 4.15792 1.41471 0
M  V30 2387 H 226.356 4.24534 -0.255209 0
M  V30 2388 N 224.671 0.411399 1.52136 0
M  V30 2389 C 225.581 -0.419774 2.30814 0
M  V30 2390 C 226.597 -1.0515 1.38634 0
M  V30 2391 O 227.773 -1.05252 1.71709 0
M  V30 2392 C 224.838 -1.52019 3.11594 0
M  V30 2393 C 223.899 -0.91129 4.19516 0
M  V30 2394 C 223.132 -1.95927 4.96436 0
M  V30 2395 O 223.355 -3.17775 4.73683 0
M  V30 2396 O 222.289 -1.56423 5.81219 0
M  V30 2397 H 226.115 0.221805 3.02889 0
M  V30 2398 H 223.7 0.174547 1.48377 0
M  V30 2399 H 225.582 -2.15898 3.61892 0
M  V30 2400 H 224.257 -2.14633 2.42311 0
M  V30 2401 H 223.164 -0.235157 3.7336 0
M  V30 2402 H 224.497 -0.32904 4.91099 0
M  V30 2403 N 226.149 -1.5696 0.141893 0
M  V30 2404 C 227.059 -2.20066 -0.812905 0
M  V30 2405 C 228.075 -1.18344 -1.27557 0
M  V30 2406 O 229.251 -1.50902 -1.33381 0
M  V30 2407 C 226.316 -2.80583 -2.03652 0
M  V30 2408 C 225.377 -3.97414 -1.62359 0
M  V30 2409 C 224.61 -4.55036 -2.78887 0
M  V30 2410 O 224.833 -4.11538 -3.94959 0
M  V30 2411 O 223.767 -5.45376 -2.54653 0
M  V30 2412 H 227.593 -3.02157 -0.305746 0
M  V30 2413 H 225.178 -1.49159 -0.0848799 0
M  V30 2414 H 227.06 -3.19067 -2.75272 0
M  V30 2415 H 225.735 -2.01508 -2.5333 0
M  V30 2416 H 224.642 -3.63656 -0.877775 0
M  V30 2417 H 225.975 -4.77994 -1.17401 0
M  V30 2418 N 227.627 0.131896 -1.57047 0
M  V30 2419 C 228.867 0.847972 -1.85981 0
M  V30 2420 C 229.231 1.77655 -0.7282 0
M  V30 2421 O 230.432 2.53322 -0.898968 0
M  V30 2422 C 228.703 1.58919 -3.20124 0
M  V30 2423 S 230.262 2.34862 -3.70655 0
M  V30 2424 H 227.08 0.283273 -0.652133 0
M  V30 2425 H 229.682 0.107057 -1.95207 0
M  V30 2426 H 228.386 0.898771 -4.00438 0
M  V30 2427 H 227.917 2.37073 -3.13942 0
M  V30 2428 H 229.932 3.60344 -3.41126 0
M  V30 2429 N 229.106 1.52395 0.401703 0
M  V30 2430 C 230.517 1.58899 0.980202 0
M  V30 2431 C 230.868 0.434032 1.91339 0
M  V30 2432 O 229.993 -0.444619 2.11783 0
M  V30 2433 C 230.588 2.87994 1.78451 0
M  V30 2434 C 229.147 2.96953 2.31292 0
M  V30 2435 C 228.294 2.53903 1.11483 0
M  V30 2436 H 231.245 1.57657 0.18168 0
M  V30 2437 H 231.266 2.73765 2.64259 0
M  V30 2438 H 230.778 3.72035 1.10506 0
M  V30 2439 H 228.879 2.17422 3.02586 0
M  V30 2440 H 228.992 4.01344 2.61649 0
M  V30 2441 H 227.356 2.07925 1.47104 0
M  V30 2442 H 228.139 3.40326 0.450928 0
M  V30 2443 N 230.584 -0.659388 1.43143 0
M  V30 2444 C 231.83 -1.42145 1.44647 0
M  V30 2445 C 232.163 -1.9408 0.0681907 0
M  V30 2446 O 231.438 -1.71899 -0.910007 0
M  V30 2447 C 231.721 -2.60735 2.48373 0
M  V30 2448 C 231.574 -2.14332 3.95451 0
M  V30 2449 C 232.893 -3.62951 2.48906 0
M  V30 2450 H 230.012 -0.51552 0.526696 0
M  V30 2451 H 232.654 -0.748069 1.74654 0
M  V30 2452 H 230.804 -3.18184 2.22916 0
M  V30 2453 H 232.476 -1.61932 4.31944 0
M  V30 2454 H 230.719 -1.4576 4.08578 0
M  V30 2455 H 231.39 -2.99583 4.63631 0
M  V30 2456 H 233.866 -3.1525 2.71582 0
M  V30 2457 H 232.742 -4.43487 3.23435 0
M  V30 2458 H 233.003 -4.15126 1.52061 0
M  V30 2459 N 232.062 -1.29571 -0.897171 0
M  V30 2460 C 233.025 -1.14913 -1.98312 0
M  V30 2461 C 234.025 -0.0838629 -1.60581 0
M  V30 2462 O 235.215 -0.331006 -1.71026 0
M  V30 2463 C 232.347 -0.757835 -3.3237 0
M  V30 2464 H 233.54 -2.11377 -2.12743 0
M  V30 2465 H 231.093 -1.12793 -1.08201 0
M  V30 2466 H 231.828 0.206837 -3.2364 0
M  V30 2467 H 231.613 -1.52755 -3.61121 0
M  V30 2468 H 233.103 -0.678408 -4.12053 0
M  V30 2469 N 233.54 1.10788 -1.12088 0
M  V30 2470 C 234.786 1.82942 -0.875226 0
M  V30 2471 C 235.119 1.84779 0.597538 0
M  V30 2472 O 234.394 1.30578 1.44152 0
M  V30 2473 C 234.677 3.29789 -1.44606 0
M  V30 2474 C 234.53 3.36307 -2.98693 0
M  V30 2475 C 235.849 4.26064 -1.10261 0
M  V30 2476 H 232.968 0.664195 -0.319397 0
M  V30 2477 H 235.61 1.29867 -1.38689 0
M  V30 2478 H 233.76 3.75118 -1.01089 0
M  V30 2479 H 235.432 2.99487 -3.50864 0
M  V30 2480 H 233.675 2.76318 -3.34411 0
M  V30 2481 H 234.346 4.39694 -3.33726 0
M  V30 2482 H 236.822 3.88951 -1.4784 0
M  V30 2483 H 235.698 5.27183 -1.52869 0
M  V30 2484 H 235.959 4.42098 -0.0142953 0
M  V30 2485 N 235.018 0.912232 1.28515 0
M  V30 2486 C 236.265 0.544599 1.95039 0
M  V30 2487 C 236.593 -0.911435 1.71823 0
M  V30 2488 O 235.848 -1.66317 1.03137 0
M  V30 2489 C 236.147 0.798392 3.48368 0
M  V30 2490 C 235.813 2.23374 3.91682 0
M  V30 2491 C 234.475 2.62617 4.03219 0
M  V30 2492 C 236.827 3.16786 4.13879 0
M  V30 2493 C 234.155 3.94429 4.3433 0
M  V30 2494 C 236.507 4.48161 4.46469 0
M  V30 2495 C 235.171 4.8726 4.56217 0
M  V30 2496 H 234.441 0.199283 0.7137 0
M  V30 2497 H 237.088 1.15327 1.52879 0
M  V30 2498 H 235.393 0.106908 3.91654 0
M  V30 2499 H 237.09 0.493141 3.97956 0
M  V30 2500 H 233.68 1.91922 3.83228 0
M  V30 2501 H 237.864 2.87677 4.0442 0
M  V30 2502 H 233.12 4.24426 4.40082 0
M  V30 2503 H 237.294 5.20559 4.62592 0
M  V30 2504 H 234.921 5.89431 4.80078 0
M  V30 2505 N 236.496 -1.42363 0.676048 0
M  V30 2506 C 237.429 -2.28141 -0.0516916 0
M  V30 2507 C 238.407 -1.41135 -0.807439 0
M  V30 2508 O 239.591 -1.70573 -0.802305 0
M  V30 2509 C 236.718 -3.21007 -1.08039 0
M  V30 2510 C 235.764 -4.24426 -0.420076 0
M  V30 2511 S 236.597 -5.29134 0.823246 0
M  V30 2512 C 237.753 -6.25566 -0.204344 0
M  V30 2513 H 237.986 -2.89515 0.675884 0
M  V30 2514 H 235.519 -1.47211 0.465635 0
M  V30 2515 H 237.477 -3.75048 -1.66881 0
M  V30 2516 H 236.138 -2.58766 -1.78042 0
M  V30 2517 H 235.331 -4.89596 -1.19633 0
M  V30 2518 H 234.933 -3.7388 0.0947845 0
M  V30 2519 H 237.225 -6.69098 -1.06369 0
M  V30 2520 H 238.168 -7.06895 0.412915 0
M  V30 2521 H 238.576 -5.61811 -0.55038 0
M  V30 2522 N 237.974 -0.419461 -1.51915 0
M  V30 2523 C 239.22 0.153166 -2.02221 0
M  V30 2524 C 239.553 1.43907 -1.30401 0
M  V30 2525 O 238.828 1.90055 -0.413438 0
M  V30 2526 C 239.111 0.390291 -3.57979 0
M  V30 2527 C 238.964 -0.913014 -4.40436 0
M  V30 2528 C 240.283 1.16794 -4.2432 0
M  V30 2529 H 237.402 0.0541924 -0.735005 0
M  V30 2530 H 240.044 -0.554955 -1.81715 0
M  V30 2531 H 238.194 0.993491 -3.75582 0
M  V30 2532 H 239.866 -1.54882 -4.34522 0
M  V30 2533 H 238.109 -1.52168 -4.06236 0
M  V30 2534 H 238.78 -0.701361 -5.47526 0
M  V30 2535 H 241.256 0.657161 -4.10878 0
M  V30 2536 H 240.132 1.3026 -5.3322 0
M  V30 2537 H 240.393 2.19132 -3.83971 0
M  V30 2538 N 239.452 1.56882 -0.150215 0
M  V30 2539 C 240.698 1.96518 0.500834 0
M  V30 2540 C 241.031 1.03527 1.64304 0
M  V30 2541 O 240.306 0.0782751 1.94342 0
M  V30 2542 C 240.589 3.45822 1.00395 0
M  V30 2543 C 240.442 4.49591 -0.136983 0
M  V30 2544 C 241.761 3.97704 1.88467 0
M  V30 2545 H 238.88 0.714535 0.18058 0
M  V30 2546 H 241.522 1.88577 -0.232091 0
M  V30 2547 H 239.672 3.5272 1.62851 0
M  V30 2548 H 241.344 4.5477 -0.77343 0
M  V30 2549 H 239.587 4.26441 -0.795652 0
M  V30 2550 H 240.258 5.51402 0.256815 0
M  V30 2551 H 242.734 3.93304 1.35834 0
M  V30 2552 H 241.61 5.0263 2.20578 0
M  V30 2553 H 241.871 3.40252 2.82279 0
M  V30 2554 N 240.93 -0.123565 1.57115 0
M  V30 2555 C 241.893 -1.13583 1.99076 0
M  V30 2556 C 242.893 -1.34564 0.880296 0
M  V30 2557 O 244.083 -1.31158 1.14644 0
M  V30 2558 C 241.215 -2.49128 2.32698 0
M  V30 2559 H 242.408 -0.775287 2.89706 0
M  V30 2560 H 239.961 -0.36771 1.51913 0
M  V30 2561 H 240.696 -2.90111 1.44934 0
M  V30 2562 H 240.481 -2.35255 3.13684 0
M  V30 2563 H 241.971 -3.2199 2.65918 0
M  V30 2564 N 242.408 -1.52605 -0.393616 0
M  V30 2565 C 243.34 -1.73303 -1.49995 0
M  V30 2566 C 244.353 -0.613473 -1.50799 0
M  V30 2567 O 245.542 -0.889049 -1.54784 0
M  V30 2568 C 242.642 -1.77245 -2.88855 0
M  V30 2569 C 241.815 -3.06483 -3.12069 0
M  V30 2570 C 240.874 -3.02033 -4.30886 0
M  V30 2571 O 239.9 -3.75907 -4.27414 0
M  V30 2572 N 241.102 -2.20897 -5.36828 0
M  V30 2573 H 243.867 -2.68756 -1.32629 0
M  V30 2574 H 241.428 -1.51036 -0.583083 0
M  V30 2575 H 243.42 -1.7178 -3.66434 0
M  V30 2576 H 241.99 -0.891993 -2.99603 0
M  V30 2577 H 241.21 -3.25474 -2.22396 0
M  V30 2578 H 242.498 -3.91947 -3.2443 0
M  V30 2579 H 241.896 -1.60336 -5.42502 0
M  V30 2580 H 240.453 -2.21275 -6.13091 0
M  V30 2581 N 243.887 0.651787 -1.4349 0
M  V30 2582 C 245.112 1.44434 -1.48841 0
M  V30 2583 C 245.537 1.8779 -0.107955 0
M  V30 2584 O 244.895 1.57464 0.898602 0
M  V30 2585 C 244.943 2.65458 -2.44059 0
M  V30 2586 O 244.047 3.64566 -1.92784 0
M  V30 2587 H 243.388 0.433005 -0.503391 0
M  V30 2588 H 245.918 0.797451 -1.88419 0
M  V30 2589 H 245.928 3.13255 -2.6141 0
M  V30 2590 H 244.603 2.33244 -3.4434 0
M  V30 2591 H 243.18 3.23716 -1.851 0
M  V30 2592 N 245.365 1.30045 0.890287 0
M  V30 2593 C 246.614 1.17929 1.63633 0
M  V30 2594 C 246.927 -0.266204 1.9378 0
M  V30 2595 O 248.133 -0.508804 2.6669 0
M  V30 2596 C 246.589 2.06317 2.94892 0
M  V30 2597 C 246.197 3.55745 2.72305 0
M  V30 2598 C 247.941 2.0295 3.72843 0
M  V30 2599 C 245.848 4.36205 3.99348 0
M  V30 2600 H 244.778 0.437782 0.613892 0
M  V30 2601 H 247.429 1.54754 0.986075 0
M  V30 2602 H 245.811 1.6237 3.61182 0
M  V30 2603 H 246.985 4.07805 2.1455 0
M  V30 2604 H 245.3 3.6088 2.07737 0
M  V30 2605 H 247.897 2.60319 4.67053 0
M  V30 2606 H 248.24 1.0117 4.0382 0
M  V30 2607 H 248.773 2.4499 3.13408 0
M  V30 2608 H 245.512 5.38659 3.73533 0
M  V30 2609 H 245.032 3.8891 4.56628 0
M  V30 2610 H 246.711 4.47362 4.67415 0
M  V30 2611 N 246.843 -1.10192 1.12674 0
M  V30 2612 C 248.089 -1.82475 0.884915 0
M  V30 2613 C 248.422 -1.85093 -0.58773 0
M  V30 2614 O 247.697 -1.3134 -1.43457 0
M  V30 2615 C 247.98 -3.29018 1.46353 0
M  V30 2616 C 247.833 -3.34718 3.00473 0
M  V30 2617 C 249.152 -4.25473 1.12519 0
M  V30 2618 H 246.271 -0.662492 0.322915 0
M  V30 2619 H 248.913 -1.2913 1.39375 0
M  V30 2620 H 247.063 -3.74576 1.03077 0
M  V30 2621 H 248.735 -2.97622 3.52447 0
M  V30 2622 H 246.978 -2.74541 3.35872 0
M  V30 2623 H 247.649 -4.37918 3.36053 0
M  V30 2624 H 250.125 -3.88161 1.499 0
M  V30 2625 H 249.001 -5.26365 1.55663 0
M  V30 2626 H 249.262 -4.42084 0.0377407 0
M  V30 2627 N 248.321 -0.919034 -1.28029 0
M  V30 2628 C 249.569 -0.553838 -1.94363 0
M  V30 2629 C 249.89 0.906357 -1.72656 0
M  V30 2630 O 249.16 1.64143 -1.0693 0
M  V30 2631 H 247.74 -0.201834 -0.719216 0
M  V30 2632 H 250.402 -1.16954 -1.55909 0
M  V30 2633 H 249.498 -0.752758 -3.02886 0
M  V30 2634 N 249.799 1.42003 -0.683588 0
M  V30 2635 C 251.039 2.03282 -0.213513 0
M  V30 2636 C 251.403 1.52924 1.16097 0
M  V30 2637 O 252.604 2.06048 1.7262 0
M  V30 2638 C 250.875 3.56483 -0.255856 0
M  V30 2639 S 252.434 4.3857 0.14193 0
M  V30 2640 H 249.252 0.705659 -0.0869853 0
M  V30 2641 H 251.854 1.73619 -0.8987 0
M  V30 2642 H 250.558 3.90631 -1.25841 0
M  V30 2643 H 250.089 3.90831 0.448875 0
M  V30 2644 H 252.104 4.76828 1.37295 0
M  V30 2645 N 251.277 0.427512 1.51691 0
M  V30 2646 C 252.526 -0.143679 2.01188 0
M  V30 2647 C 252.839 -1.44642 1.31674 0
M  V30 2648 O 254.045 -2.09997 1.72086 0
M  V30 2649 C 252.501 -0.306602 3.58592 0
M  V30 2650 C 252.109 0.985125 4.37035 0
M  V30 2651 C 253.853 -0.832091 4.16265 0
M  V30 2652 C 251.76 0.788382 5.86122 0
M  V30 2653 H 250.69 -0.0574701 0.751807 0
M  V30 2654 H 253.341 0.555772 1.74881 0
M  V30 2655 H 251.723 -1.06882 3.81303 0
M  V30 2656 H 252.897 1.75492 4.26074 0
M  V30 2657 H 251.212 1.4384 3.90767 0
M  V30 2658 H 253.809 -0.995617 5.25349 0
M  V30 2659 H 254.152 -1.81186 3.74803 0
M  V30 2660 H 254.685 -0.128444 3.97593 0
M  V30 2661 H 251.424 1.74025 6.31978 0
M  V30 2662 H 250.944 0.0582143 5.99772 0
M  V30 2663 H 252.623 0.437722 6.45518 0
M  V30 2664 N 252.755 -1.56801 0.158532 0
M  V30 2665 C 254.004 -1.95665 -0.489702 0
M  V30 2666 C 254.317 -1.04654 -1.65248 0
M  V30 2667 O 255.523 -1.33146 -2.3661 0
M  V30 2668 C 253.979 -3.47874 -0.922582 0
M  V30 2669 C 253.587 -4.47489 0.213893 0
M  V30 2670 C 255.331 -3.95583 -1.53996 0
M  V30 2671 C 253.238 -5.90921 -0.237903 0
M  V30 2672 H 252.168 -0.730516 -0.186716 0
M  V30 2673 H 254.819 -1.81861 0.244722 0
M  V30 2674 H 253.201 -3.57051 -1.71261 0
M  V30 2675 H 254.375 -4.50017 0.991036 0
M  V30 2676 H 252.69 -4.09764 0.740407 0
M  V30 2677 H 255.287 -5.0019 -1.8898 0
M  V30 2678 H 255.63 -3.37789 -2.43319 0
M  V30 2679 H 256.163 -3.8937 -0.814611 0
M  V30 2680 H 252.902 -6.52559 0.620236 0
M  V30 2681 H 252.422 -5.91729 -0.980676 0
M  V30 2682 H 254.101 -6.43352 -0.686067 0
M  V30 2683 N 254.233 0.115231 -1.57178 0
M  V30 2684 C 255.51 0.852873 -1.76027 0
M  V30 2685 C 255.89 1.97892 -0.73498 0
M  V30 2686 O 255.238 2.27232 0.24036 0
M  V30 2687 C 255.448 1.36608 -3.21153 0
M  V30 2688 C 256.796 1.81692 -3.83762 0
M  V30 2689 O 257.82 1.46278 -3.24779 0
M  V30 2690 O 256.679 2.47104 -4.87444 0
M  V30 2691 H 253.773 0.405296 -0.720877 0
M  V30 2692 H 256.319 0.0986785 -1.69413 0
M  V30 2693 H 255.091 0.558357 -3.87296 0
M  V30 2694 H 254.714 2.18287 -3.3232 0
M  V30 2695 N 255.711 1.52812 0.385517 0
M  V30 2696 C 256.936 1.72207 1.15583 0
M  V30 2697 C 257.361 0.441034 1.82857 0
M  V30 2698 O 256.719 -0.603465 1.70962 0
M  V30 2699 C 256.767 2.87476 2.17692 0
M  V30 2700 O 255.871 2.54693 3.24354 0
M  V30 2701 H 255.212 0.572526 0.336319 0
M  V30 2702 H 257.742 1.99618 0.448744 0
M  V30 2703 H 257.752 3.13072 2.6163 0
M  V30 2704 H 256.427 3.80408 1.68115 0
M  V30 2705 H 255.004 2.3985 2.85529 0
M  V30 2706 N 257.189 -0.644168 1.43834 0
M  V30 2707 C 258.436 -1.40395 1.4593 0
M  V30 2708 C 258.764 -1.94305 0.0869658 0
M  V30 2709 O 258.019 -1.73288 -0.909378 0
M  V30 2710 C 258.318 -2.59615 2.45631 0
M  V30 2711 C 257.984 -2.2407 3.91284 0
M  V30 2712 C 256.646 -2.14089 4.30952 0
M  V30 2713 C 258.998 -1.95775 4.83034 0
M  V30 2714 C 256.326 -1.73981 5.6031 0
M  V30 2715 C 258.678 -1.57163 6.12766 0
M  V30 2716 C 257.342 -1.45713 6.51402 0
M  V30 2717 H 256.612 -0.513741 0.533995 0
M  V30 2718 H 259.259 -0.731724 1.76969 0
M  V30 2719 H 257.564 -3.32011 2.08028 0
M  V30 2720 H 259.261 -3.17834 2.44504 0
M  V30 2721 H 255.851 -2.32753 3.59895 0
M  V30 2722 H 260.035 -2.02403 4.53152 0
M  V30 2723 H 255.291 -1.63709 5.89075 0
M  V30 2724 H 259.465 -1.34303 6.83327 0
M  V30 2725 H 257.092 -1.14406 7.51542 0
M  V30 2726 N 258.668 -1.30515 -0.883378 0
M  V30 2727 C 259.601 -1.11359 -1.99184 0
M  V30 2728 C 260.579 -0.0207858 -1.62587 0
M  V30 2729 O 261.763 -0.174646 -1.87689 0
M  V30 2730 C 258.89 -0.69871 -3.31415 0
M  V30 2731 C 257.936 -1.79261 -3.86998 0
M  V30 2732 S 258.769 -3.39536 -4.14096 0
M  V30 2733 C 259.925 -2.99954 -5.49344 0
M  V30 2734 H 260.158 -2.052 -2.15128 0
M  V30 2735 H 257.691 -1.14847 -1.03196 0
M  V30 2736 H 259.649 -0.466075 -4.07846 0
M  V30 2737 H 258.31 0.220368 -3.13326 0
M  V30 2738 H 257.503 -1.45464 -4.82552 0
M  V30 2739 H 257.105 -1.97961 -3.17313 0
M  V30 2740 H 259.397 -2.48013 -6.30473 0
M  V30 2741 H 260.34 -3.9442 -5.8808 0
M  V30 2742 H 260.748 -2.37775 -5.1198 0
M  V30 2743 N 260.146 1.09593 -1.13257 0
M  V30 2744 C 261.395 1.81105 -0.887917 0
M  V30 2745 C 261.708 1.86563 0.587672 0
M  V30 2746 O 262.914 2.54367 0.949204 0
M  V30 2747 C 261.37 3.25338 -1.53895 0
M  V30 2748 C 260.978 3.28151 -3.04994 0
M  V30 2749 C 262.722 4.01617 -1.37492 0
M  V30 2750 C 260.629 4.66897 -3.6299 0
M  V30 2751 H 259.559 0.678661 -0.328534 0
M  V30 2752 H 262.21 1.23183 -1.36008 0
M  V30 2753 H 260.592 3.8331 -0.994446 0
M  V30 2754 H 261.766 2.79953 -3.66009 0
M  V30 2755 H 260.081 2.65361 -3.20893 0
M  V30 2756 H 262.678 5.04119 -1.78235 0
M  V30 2757 H 263.021 4.15072 -0.31957 0
M  V30 2758 H 263.554 3.50082 -1.88912 0
M  V30 2759 H 260.293 4.58643 -4.68323 0
M  V30 2760 H 259.813 5.15426 -3.06752 0
M  V30 2761 H 261.492 5.3587 -3.62563 0
M  V30 2762 N 261.624 0.925811 1.2754 0
M  V30 2763 C 262.872 0.564138 1.94067 0
M  V30 2764 C 263.193 -0.897188 1.73134 0
M  V30 2765 O 262.463 -1.63573 1.07799 0
M  V30 2766 H 261.043 0.205645 0.718136 0
M  V30 2767 H 263.705 1.1778 1.55287 0
M  V30 2768 H 262.801 0.76881 3.02483 0
M  V30 2769 N 263.102 -1.41638 0.69111 0
M  V30 2770 C 264.065 -2.29178 0.0319786 0
M  V30 2771 C 265.065 -1.44153 -0.712496 0
M  V30 2772 O 266.255 -1.65354 -0.548053 0
M  V30 2773 C 263.387 -3.26952 -0.965161 0
M  V30 2774 H 264.58 -2.88959 0.802681 0
M  V30 2775 H 262.133 -1.4955 0.454356 0
M  V30 2776 H 262.868 -2.72142 -1.76378 0
M  V30 2777 H 262.653 -3.89685 -0.434522 0
M  V30 2778 H 264.143 -3.92561 -1.42428 0
M  V30 2779 N 264.58 -0.43555 -1.51462 0
M  V30 2780 C 265.829 0.133007 -2.01261 0
M  V30 2781 C 266.142 1.43942 -1.32439 0
M  V30 2782 O 267.348 2.09081 -1.73198 0
M  V30 2783 C 265.804 0.287581 -3.58749 0
M  V30 2784 C 265.412 -1.00829 -4.36506 0
M  V30 2785 C 267.156 0.810004 -4.167 0
M  V30 2786 C 265.063 -0.819454 -5.85695 0
M  V30 2787 H 263.993 0.0534822 -0.752101 0
M  V30 2788 H 266.644 -0.565038 -1.74584 0
M  V30 2789 H 265.026 1.04859 -3.81865 0
M  V30 2790 H 266.2 -1.77749 -4.25138 0
M  V30 2791 H 264.515 -1.45911 -3.89999 0
M  V30 2792 H 267.112 0.967743 -5.2587 0
M  V30 2793 H 267.455 1.79196 -3.75758 0
M  V30 2794 H 267.988 0.107357 -3.97655 0
M  V30 2795 H 264.727 -1.77374 -6.31046 0
M  V30 2796 H 264.247 -0.0900208 -5.99732 0
M  V30 2797 H 265.926 -0.471949 -6.45276 0
M  V30 2798 N 266.058 1.56714 -0.166846 0
M  V30 2799 C 266.991 2.13577 0.80375 0
M  V30 2800 C 267.969 1.06464 1.22899 0
M  V30 2801 O 269.153 1.34413 1.32157 0
M  V30 2802 C 266.28 2.67168 2.0818 0
M  V30 2803 C 265.326 3.86612 1.80093 0
M  V30 2804 S 266.159 5.26565 0.97416 0
M  V30 2805 C 267.315 5.83558 2.26297 0
M  V30 2806 H 267.548 2.9557 0.320267 0
M  V30 2807 H 265.081 1.54326 0.0477555 0
M  V30 2808 H 267.039 2.98692 2.8159 0
M  V30 2809 H 265.7 1.85269 2.53642 0
M  V30 2810 H 264.893 4.22422 2.7491 0
M  V30 2811 H 264.495 3.55951 1.14781 0
M  V30 2812 H 266.787 5.962 3.21795 0
M  V30 2813 H 267.73 6.80731 1.94962 0
M  V30 2814 H 268.138 5.11944 2.37853 0
M  V30 2815 N 267.536 -0.106894 1.57237 0
M  V30 2816 C 268.499 -1.11466 2.0027 0
M  V30 2817 C 269.499 -1.33623 0.894519 0
M  V30 2818 O 270.689 -1.29935 1.16028 0
M  V30 2819 C 267.821 -2.46646 2.35327 0
M  V30 2820 H 269.014 -0.744516 2.90512 0
M  V30 2821 H 266.567 -0.351576 1.52295 0
M  V30 2822 H 267.302 -2.88558 1.48003 0
M  V30 2823 H 267.087 -2.31915 3.16161 0
M  V30 2824 H 268.577 -3.19151 2.69318 0
M  V30 2825 N 269.014 -1.53014 -0.377408 0
M  V30 2826 C 269.961 -1.78616 -1.46168 0
M  V30 2827 C 270.931 -0.629917 -1.53692 0
M  V30 2828 O 272.116 -0.870861 -1.69766 0
M  V30 2829 C 269.256 -1.97123 -2.8326 0
M  V30 2830 C 268.369 -3.24831 -2.84796 0
M  V30 2831 C 267.504 -3.33591 -4.13389 0
M  V30 2832 C 266.543 -4.55377 -4.09021 0
M  V30 2833 N 265.68 -4.61355 -5.29241 0
M  V30 2834 H 270.52 -2.71142 -1.23637 0
M  V30 2835 H 268.057 -1.34326 -0.599577 0
M  V30 2836 H 270.015 -2.05839 -3.62886 0
M  V30 2837 H 268.645 -1.07946 -3.04216 0
M  V30 2838 H 267.697 -3.25128 -1.97474 0
M  V30 2839 H 269.009 -4.14523 -2.77439 0
M  V30 2840 H 268.163 -3.41554 -5.01424 0
M  V30 2841 H 266.902 -2.41894 -4.23484 0
M  V30 2842 H 265.907 -4.47527 -3.19373 0
M  V30 2843 H 267.132 -5.48402 -4.00539 0
M  V30 2844 H 265.078 -3.72554 -5.39944 0
M  V30 2845 H 264.995 -5.44935 -5.24006 0
M  V30 2846 H 266.263 -4.73586 -6.19141 0
M  V30 2847 N 270.492 0.636531 -1.44174 0
M  V30 2848 C 271.425 1.76139 -1.45087 0
M  V30 2849 C 272.403 1.59611 -0.310326 0
M  V30 2850 O 273.587 1.81568 -0.506477 0
M  V30 2851 C 270.714 3.13648 -1.27839 0
M  V30 2852 C 269.76 3.48838 -2.45386 0
M  V30 2853 S 270.593 3.46927 -4.07924 0
M  V30 2854 C 271.749 4.87064 -3.9309 0
M  V30 2855 H 271.982 1.75096 -2.40268 0
M  V30 2856 H 269.515 0.810666 -1.31406 0
M  V30 2857 H 271.473 3.93002 -1.18575 0
M  V30 2858 H 270.134 3.12235 -0.341787 0
M  V30 2859 H 269.327 4.48886 -2.29167 0
M  V30 2860 H 268.929 2.76935 -2.51362 0
M  V30 2861 H 271.221 5.76153 -3.56446 0
M  V30 2862 H 272.164 5.08337 -4.92949 0
M  V30 2863 H 272.572 4.61384 -3.25246 0
M  V30 2864 N 271.97 1.30982 0.876444 0
M  V30 2865 C 272.933 1.18054 1.96459 0
M  V30 2866 C 273.933 0.109399 1.60427 0
M  V30 2867 O 275.123 0.358173 1.70478 0
M  V30 2868 C 272.255 0.810616 3.31122 0
M  V30 2869 H 273.448 2.14735 2.09354 0
M  V30 2870 H 271.001 1.145 1.06392 0
M  V30 2871 H 271.736 -0.155322 3.23928 0
M  V30 2872 H 271.521 1.58481 3.58645 0
M  V30 2873 H 273.011 0.743876 4.10921 0
M  V30 2874 N 273.449 -1.08991 1.13837 0
M  V30 2875 C 274.865 -1.33312 0.877506 0
M  V30 2876 C 275.065 -1.95587 -0.48456 0
M  V30 2877 O 274.121 -2.20509 -1.23013 0
M  V30 2878 C 275.434 -2.24045 2.0056 0
M  V30 2879 C 276.982 -2.37542 2.03821 0
M  V30 2880 C 277.457 -3.31614 3.15905 0
M  V30 2881 N 278.948 -3.39189 3.15445 0
M  V30 2882 C 279.683 -4.11992 3.98811 0
M  V30 2883 N 279.179 -4.87553 4.92203 0
M  V30 2884 N 280.972 -4.07762 3.86894 0
M  V30 2885 H 273.123 -0.669456 2.01574 0
M  V30 2886 H 275.386 -0.357482 0.878015 0
M  V30 2887 H 275.092 -1.85521 2.98789 0
M  V30 2888 H 274.966 -3.24466 1.92359 0
M  V30 2889 H 277.353 -2.75327 1.06202 0
M  V30 2890 H 277.434 -1.36884 2.16093 0
M  V30 2891 H 277.078 -2.94551 4.13766 0
M  V30 2892 H 277.008 -4.32186 3.0087 0
M  V30 2893 H 279.499 -2.85314 2.47799 0
M  V30 2894 H 279.812 -5.40549 5.52292 0
M  V30 2895 H 278.157 -4.86627 4.96205 0
M  V30 2896 H 281.348 -3.47833 3.13257 0
M  V30 2897 H 281.521 -4.64238 4.52092 0
M  V30 2898 N 274.927 -0.932562 -1.27047 0
M  V30 2899 C 276.338 -0.619451 -1.76124 0
M  V30 2900 C 276.689 0.865397 -1.76083 0
M  V30 2901 O 275.814 1.67722 -1.36742 0
M  V30 2902 C 276.409 -1.11771 -3.19832 0
M  V30 2903 C 274.968 -0.855174 -3.66557 0
M  V30 2904 C 274.115 -1.27362 -2.46321 0
M  V30 2905 H 277.066 -1.11181 -1.13245 0
M  V30 2906 H 277.087 -0.46759 -3.77616 0
M  V30 2907 H 276.599 -2.19842 -3.1983 0
M  V30 2908 H 274.7 0.211524 -3.71999 0
M  V30 2909 H 274.813 -1.47613 -4.55793 0
M  V30 2910 H 273.177 -0.692119 -2.45116 0
M  V30 2911 H 273.96 -2.36307 -2.49025 0
M  V30 2912 N 276.405 1.4127 -0.698611 0
M  V30 2913 C 277.352 2.30773 -0.0352094 0
M  V30 2914 C 278.322 1.47273 0.768111 0
M  V30 2915 O 279.507 1.76053 0.735524 0
M  V30 2916 C 276.647 3.33346 0.893 0
M  V30 2917 C 275.76 4.31924 0.0809695 0
M  V30 2918 C 274.895 5.21566 1.0071 0
M  V30 2919 C 273.934 6.11811 0.188155 0
M  V30 2920 N 273.071 6.93926 1.06825 0
M  V30 2921 H 277.911 2.86943 -0.804207 0
M  V30 2922 H 275.448 1.4132 -0.408294 0
M  V30 2923 H 277.406 3.91368 1.44523 0
M  V30 2924 H 276.036 2.78719 1.62836 0
M  V30 2925 H 275.088 3.75825 -0.588224 0
M  V30 2926 H 276.4 4.95716 -0.553801 0
M  V30 2927 H 275.554 5.84437 1.62845 0
M  V30 2928 H 274.293 4.58008 1.67572 0
M  V30 2929 H 273.298 5.47986 -0.446254 0
M  V30 2930 H 274.523 6.77425 -0.476716 0
M  V30 2931 H 272.469 6.32973 1.72283 0
M  V30 2932 H 272.386 7.54416 0.489123 0
M  V30 2933 H 273.654 7.61262 1.67632 0
M  V30 2934 N 277.883 0.443576 1.51229 0
M  V30 2935 C 278.83 -0.364716 2.279 0
M  V30 2936 C 279.8 -1.0114 1.31757 0
M  V30 2937 O 280.985 -1.02912 1.60667 0
M  V30 2938 C 278.125 -1.45644 3.12861 0
M  V30 2939 C 277.238 -0.827269 4.24005 0
M  V30 2940 C 276.373 -1.89456 4.96266 0
M  V30 2941 C 275.412 -1.24416 5.99322 0
M  V30 2942 N 274.549 -2.25309 6.64966 0
M  V30 2943 H 279.389 0.295464 2.96532 0
M  V30 2944 H 276.926 0.157554 1.46254 0
M  V30 2945 H 278.884 -2.10076 3.6045 0
M  V30 2946 H 277.514 -2.08616 2.46331 0
M  V30 2947 H 276.566 -0.0710839 3.80334 0
M  V30 2948 H 277.878 -0.312481 4.9782 0
M  V30 2949 H 277.032 -2.61535 5.47434 0
M  V30 2950 H 275.771 -2.4431 4.22095 0
M  V30 2951 H 274.776 -0.508868 5.4744 0
M  V30 2952 H 276.001 -0.702882 6.75453 0
M  V30 2953 H 273.947 -2.79231 5.93604 0
M  V30 2954 H 273.864 -1.78739 7.34567 0
M  V30 2955 H 275.132 -2.96853 7.20763 0
M  V30 2956 N 279.361 -1.56624 0.175154 0
M  V30 2957 C 280.777 -1.58571 -0.180966 0
M  V30 2958 C 280.977 -1.19065 -1.6256 0
M  V30 2959 O 280.033 -0.904044 -2.35761 0
M  V30 2960 C 281.346 -3.00522 0.103326 0
M  V30 2961 C 282.894 -3.12972 0.0418426 0
M  V30 2962 C 283.369 -4.57022 0.299175 0
M  V30 2963 N 284.86 -4.62541 0.247086 0
M  V30 2964 C 285.595 -5.71857 0.420318 0
M  V30 2965 N 285.091 -6.89717 0.652816 0
M  V30 2966 N 286.884 -5.60972 0.355957 0
M  V30 2967 H 279.035 -1.80589 1.11809 0
M  V30 2968 H 281.298 -0.837178 0.444788 0
M  V30 2969 H 281.004 -3.33916 1.10422 0
M  V30 2970 H 280.878 -3.72344 -0.603299 0
M  V30 2971 H 283.265 -2.79403 -0.949636 0
M  V30 2972 H 283.346 -2.43578 0.781238 0
M  V30 2973 H 282.99 -4.913 1.28788 0
M  V30 2974 H 282.92 -5.24579 -0.460876 0
M  V30 2975 H 285.411 -3.77829 0.0731895 0
M  V30 2976 H 285.724 -7.68911 0.774347 0
M  V30 2977 H 284.069 -6.91572 0.689476 0
M  V30 2978 H 287.26 -4.67773 0.174882 0
M  V30 2979 H 287.433 -6.46111 0.494388 0
M  V30 2980 N 280.839 0.0985539 -1.57292 0
M  V30 2981 C 281.802 1.10402 -2.00858 0
M  V30 2982 C 282.802 1.33146 -0.901593 0
M  V30 2983 O 283.992 1.29318 -1.16716 0
M  V30 2984 C 281.124 2.45394 -2.36632 0
M  V30 2985 H 282.317 0.729099 -2.90902 0
M  V30 2986 H 279.87 0.343495 -1.52479 0
M  V30 2987 H 280.605 2.87769 -1.49531 0
M  V30 2988 H 280.39 2.30235 -3.17387 0
M  V30 2989 H 281.88 3.17718 -2.71007 0
M  V30 2990 N 282.317 1.53212 0.369288 0
M  V30 2991 C 283.249 1.75668 1.47219 0
M  V30 2992 C 284.262 0.637387 1.49804 0
M  V30 2993 O 285.451 0.913561 1.5335 0
M  V30 2994 C 282.551 1.81818 2.85999 0
M  V30 2995 C 281.724 3.11409 3.07153 0
M  V30 2996 C 280.783 3.08849 4.26026 0
M  V30 2997 O 279.809 3.82659 4.2138 0
M  V30 2998 N 281.011 2.29409 5.33246 0
M  V30 2999 H 283.776 2.70832 1.28337 0
M  V30 3000 H 281.337 1.51944 0.55898 0
M  V30 3001 H 283.329 1.77588 3.63655 0
M  V30 3002 H 281.899 0.939544 2.98146 0
M  V30 3003 H 281.119 3.28971 2.1719 0
M  V30 3004 H 282.407 3.97059 3.18154 0
M  V30 3005 H 281.805 1.68946 5.39883 0
M  V30 3006 H 280.362 2.31001 6.09493 0
M  V30 3007 N 283.795 -0.628877 1.44509 0
M  V30 3008 C 285.023 -1.41554 1.50897 0
M  V30 3009 C 285.438 -1.8832 0.134564 0
M  V30 3010 O 284.795 -1.60969 -0.859965 0
M  V30 3011 C 284.846 -2.63435 2.47556 0
M  V30 3012 O 284.567 -2.18619 3.79654 0
M  V30 3013 C 286.068 -3.56537 2.63431 0
M  V30 3014 H 283.288 -0.434044 0.511709 0
M  V30 3015 H 285.832 -0.768895 1.89495 0
M  V30 3016 H 283.987 -3.24187 2.12089 0
M  V30 3017 H 284.401 -2.97652 4.31861 0
M  V30 3018 H 285.875 -4.38657 3.35088 0
M  V30 3019 H 286.352 -4.05493 1.68738 0
M  V30 3020 H 286.958 -3.01653 2.9981 0
M  V30 3021 N 285.273 -1.31445 -0.869486 0
M  V30 3022 C 286.203 -1.21727 -1.99261 0
M  V30 3023 C 287.184 -0.104359 -1.6978 0
M  V30 3024 O 288.369 -0.289038 -1.92037 0
M  V30 3025 C 285.499 -0.924317 -3.34774 0
M  V30 3026 C 284.453 -1.99685 -3.78563 0
M  V30 3027 C 283.779 -1.55658 -5.11541 0
M  V30 3028 C 285.079 -3.41003 -3.95619 0
M  V30 3029 H 286.773 -2.1569 -2.07649 0
M  V30 3030 H 284.319 -1.03839 -0.997675 0
M  V30 3031 H 286.272 -0.842934 -4.12883 0
M  V30 3032 H 284.996 0.0509793 -3.2656 0
M  V30 3033 H 283.655 -2.06813 -3.02694 0
M  V30 3034 H 283.303 -0.569132 -4.9977 0
M  V30 3035 H 283.003 -2.27409 -5.41811 0
M  V30 3036 H 284.527 -1.48928 -5.92159 0
M  V30 3037 H 285.941 -3.36547 -4.64122 0
M  V30 3038 H 284.338 -4.10975 -4.37286 0
M  V30 3039 H 285.408 -3.81754 -2.98985 0
M  V30 3040 N 286.751 1.08385 -1.14413 0
M  V30 3041 C 287.681 2.17321 -0.854044 0
M  V30 3042 C 288.662 1.69024 0.191049 0
M  V30 3043 O 289.847 1.94141 0.0476779 0
M  V30 3044 C 286.977 3.45719 -0.330983 0
M  V30 3045 C 285.931 4.07409 -1.31155 0
M  V30 3046 C 285.257 5.30762 -0.64778 0
M  V30 3047 C 286.557 4.48665 -2.67388 0
M  V30 3048 H 288.251 2.41845 -1.76498 0
M  V30 3049 H 285.797 1.16233 -0.850051 0
M  V30 3050 H 287.75 4.21241 -0.115645 0
M  V30 3051 H 286.474 3.2075 0.615381 0
M  V30 3052 H 285.133 3.33919 -1.51306 0
M  V30 3053 H 284.781 5.02078 0.304398 0
M  V30 3054 H 284.481 5.72992 -1.30207 0
M  V30 3055 H 286.005 6.08998 -0.441972 0
M  V30 3056 H 287.419 5.15364 -2.51143 0
M  V30 3057 H 285.816 5.01814 -3.29093 0
M  V30 3058 H 286.886 3.60543 -3.24248 0
M  V30 3059 N 288.23 0.939286 1.26551 0
M  V30 3060 C 289.477 0.585847 1.9384 0
M  V30 3061 C 289.805 -0.874784 1.73718 0
M  V30 3062 O 289.06 -1.64092 1.06642 0
M  V30 3063 C 289.359 0.872106 3.46596 0
M  V30 3064 C 289.025 2.31632 3.86856 0
M  V30 3065 C 287.687 2.71111 3.97558 0
M  V30 3066 C 290.039 3.25494 4.07066 0
M  V30 3067 C 287.367 4.03553 4.25866 0
M  V30 3068 C 289.719 4.57531 4.36862 0
M  V30 3069 C 288.383 4.96828 4.45778 0
M  V30 3070 H 287.653 0.214377 0.709312 0
M  V30 3071 H 290.3 1.18544 1.50398 0
M  V30 3072 H 288.605 0.18996 3.91339 0
M  V30 3073 H 290.302 0.577442 3.96821 0
M  V30 3074 H 286.892 2.00008 3.79071 0
M  V30 3075 H 291.076 2.9619 3.98227 0
M  V30 3076 H 286.332 4.33665 4.30981 0
M  V30 3077 H 290.506 5.30254 4.51446 0
M  V30 3078 H 288.133 5.99482 4.67468 0
M  V30 3079 N 289.708 -1.40897 0.706093 0
M  V30 3080 C 290.933 -2.05895 0.249435 0
M  V30 3081 C 291.358 -1.52823 -1.09666 0
M  V30 3082 O 290.716 -0.659589 -1.68876 0
M  V30 3083 C 290.764 -3.59872 0.22904 0
M  V30 3084 O 289.868 -4.04708 -0.792784 0
M  V30 3085 H 289.209 -0.653206 0.119241 0
M  V30 3086 H 291.739 -1.80471 0.96391 0
M  V30 3087 H 291.749 -4.07951 0.0634791 0
M  V30 3088 H 290.424 -3.97866 1.21141 0
M  V30 3089 H 289.001 -3.68111 -0.59572 0
M  V30 3090 N 291.186 -0.45159 -1.50991 0
M  V30 3091 C 292.136 0.370861 -2.24964 0
M  V30 3092 C 293.12 0.978074 -1.2776 0
M  V30 3093 O 294.312 0.893854 -1.52772 0
M  V30 3094 C 291.441 1.46344 -3.10545 0
M  V30 3095 C 290.527 0.864924 -4.15187 0
M  V30 3096 N 290.918 -0.00311354 -5.058 0
M  V30 3097 C 289.216 1.13099 -4.31422 0
M  V30 3098 C 289.917 -0.340772 -5.80701 0
M  V30 3099 N 288.893 0.279203 -5.42883 0
M  V30 3100 H 292.695 -0.298134 -2.92384 0
M  V30 3101 H 290.209 -0.264528 -1.60231 0
M  V30 3102 H 292.206 2.06565 -3.62128 0
M  V30 3103 H 290.866 2.13463 -2.4467 0
M  V30 3104 H 291.877 -0.37058 -5.16572 0
M  V30 3105 H 288.554 1.79861 -3.76771 0
M  V30 3106 H 289.944 -1.048 -6.63677 0
M  V30 3107 N 292.664 1.56529 -0.183458 0
M  V30 3108 C 293.612 2.19873 0.758845 0
M  V30 3109 C 294.606 1.16638 1.22849 0
M  V30 3110 O 295.812 1.3481 1.19274 0
M  V30 3111 H 292.187 0.7045 0.263029 0
M  V30 3112 H 294.158 2.97724 0.200755 0
M  V30 3113 C 292.907 2.86314 1.9728 0
M  V30 3114 H 292.23 3.65487 1.62047 0
M  V30 3115 H 293.67 3.3409 2.61075 0
M  V30 3116 C 292.129 1.86729 2.80418 0
M  V30 3117 O 292.659 1.36031 3.77966 0
M  V30 3118 N 290.865 1.55216 2.45675 0
M  V30 3119 H 290.412 1.96636 1.66409 0
M  V30 3120 H 290.37 0.888388 3.01588 0
M  V30 3121 N 294.142 -0.090211 1.57342 0
M  V30 3122 C 295.105 -1.09335 2.01441 0
M  V30 3123 C 296.105 -1.32666 0.908641 0
M  V30 3124 O 297.295 -1.28697 1.174 0
M  V30 3125 C 294.427 -2.44136 2.3793 0
M  V30 3126 H 295.62 -0.713662 2.91285 0
M  V30 3127 H 293.173 -0.335404 1.52659 0
M  V30 3128 H 293.908 -2.86972 1.51055 0
M  V30 3129 H 293.693 -2.28548 3.18603 0
M  V30 3130 H 295.183 -3.16277 2.72688 0
M  V30 3131 N 295.62 -1.53406 -0.361157 0
M  V30 3132 C 296.866 -1.70054 -1.10496 0
M  V30 3133 C 297.199 -0.453278 -1.88836 0
M  V30 3134 O 296.474 0.5495 -1.86576 0
M  V30 3135 C 296.757 -2.95317 -2.06058 0
M  V30 3136 C 296.61 -4.3021 -1.31298 0
M  V30 3137 C 297.929 -3.16193 -3.06121 0
M  V30 3138 H 295.048 -0.618799 -0.400321 0
M  V30 3139 H 297.69 -1.86052 -0.385318 0
M  V30 3140 H 295.84 -2.81809 -2.67425 0
M  V30 3141 H 297.512 -4.55538 -0.726807 0
M  V30 3142 H 295.755 -4.29421 -0.614853 0
M  V30 3143 H 296.426 -5.14 -2.01265 0
M  V30 3144 H 298.902 -3.28916 -2.5486 0
M  V30 3145 H 297.778 -4.05266 -3.70204 0
M  V30 3146 H 298.039 -2.31676 -3.76535 0
M  V30 3147 N 297.098 0.621204 -1.44841 0
M  V30 3148 C 298.344 1.3826 -1.48365 0
M  V30 3149 C 298.677 1.93831 -0.119624 0
M  V30 3150 O 297.952 1.74251 0.864111 0
M  V30 3151 C 298.235 2.54058 -2.55199 0
M  V30 3152 C 298.088 2.03772 -4.00995 0
M  V30 3153 C 299.407 3.56225 -2.58442 0
M  V30 3154 H 296.526 0.501374 -0.540179 0
M  V30 3155 H 299.168 0.7015 -1.76576 0
M  V30 3156 H 297.318 3.12162 -2.31274 0
M  V30 3157 H 298.99 1.50423 -4.36086 0
M  V30 3158 H 297.233 1.34876 -4.12299 0
M  V30 3159 H 297.904 2.87185 -4.71411 0
M  V30 3160 H 300.38 3.07939 -2.79844 0
M  V30 3161 H 299.256 4.34756 -3.3508 0
M  V30 3162 H 299.517 4.10949 -1.63013 0
M  V30 3163 N 298.576 1.31904 0.862503 0
M  V30 3164 C 299.539 1.20131 1.95195 0
M  V30 3165 C 300.539 0.126409 1.60302 0
M  V30 3166 O 301.729 0.376234 1.70089 0
M  V30 3167 C 298.861 0.845691 3.30244 0
M  V30 3168 H 300.054 2.16943 2.07064 0
M  V30 3169 H 297.607 1.15622 1.05172 0
M  V30 3170 H 298.342 -0.120957 3.24074 0
M  V30 3171 H 298.127 1.62276 3.56944 0
M  V30 3172 H 299.617 0.787418 4.10109 0
M  V30 3173 N 300.054 -1.07777 1.14986 0
M  V30 3174 C 300.984 -2.16865 0.865557 0
M  V30 3175 C 301.965 -1.69123 -0.182083 0
M  V30 3176 O 303.15 -1.94164 -0.0373815 0
M  V30 3177 C 300.28 -3.45539 0.349313 0
M  V30 3178 C 299.234 -4.06708 1.33313 0
M  V30 3179 C 298.56 -5.30411 0.675918 0
M  V30 3180 C 299.86 -4.47241 2.69764 0
M  V30 3181 H 301.554 -2.40905 1.77778 0
M  V30 3182 H 299.1 -1.15781 0.856203 0
M  V30 3183 H 301.053 -4.21174 0.137983 0
M  V30 3184 H 299.777 -3.21072 -0.598362 0
M  V30 3185 H 298.436 -3.33112 1.53075 0
M  V30 3186 H 298.084 -5.02232 -0.277767 0
M  V30 3187 H 297.784 -5.72293 1.33244 0
M  V30 3188 H 299.308 -6.08755 0.474262 0
M  V30 3189 H 300.722 -5.14025 2.53873 0
M  V30 3190 H 299.119 -5.00062 3.3175 0
M  V30 3191 H 300.189 -3.58818 3.26156 0
M  V30 3192 N 301.532 -0.945985 -1.26051 0
M  V30 3193 C 302.948 -0.649045 -1.45807 0
M  V30 3194 C 303.148 0.796158 -1.85104 0
M  V30 3195 O 302.204 1.57233 -1.97571 0
M  V30 3196 C 303.517 -1.61458 -2.53677 0
M  V30 3197 C 305.065 -1.62481 -2.67524 0
M  V30 3198 C 305.54 -2.57776 -3.7857 0
M  V30 3199 N 307.031 -2.5609 -3.85969 0
M  V30 3200 C 307.766 -3.26508 -4.7136 0
M  V30 3201 N 307.262 -4.0637 -5.61102 0
M  V30 3202 N 309.055 -3.15437 -4.65248 0
M  V30 3203 H 301.206 -1.88005 -0.988328 0
M  V30 3204 H 303.469 -0.808198 -0.4955 0
M  V30 3205 H 303.175 -2.64644 -2.31638 0
M  V30 3206 H 303.049 -1.37036 -3.51427 0
M  V30 3207 H 305.436 -0.600167 -2.88933 0
M  V30 3208 H 305.517 -1.90958 -1.70202 0
M  V30 3209 H 305.161 -3.60361 -3.57913 0
M  V30 3210 H 305.091 -2.26587 -4.75359 0
M  V30 3211 H 307.582 -1.98105 -3.21812 0
M  V30 3212 H 307.895 -4.57042 -6.23164 0
M  V30 3213 H 306.24 -4.10469 -5.60839 0
M  V30 3214 H 309.431 -2.52525 -3.94143 0
M  V30 3215 H 309.604 -3.70584 -5.31575 0
M  V30 3216 N 303.011 1.40521 -0.713556 0
M  V30 3217 C 304.288 1.94775 -0.17943 0
M  V30 3218 C 304.668 1.65184 1.31444 0
M  V30 3219 O 304.016 0.968429 2.06963 0
M  V30 3220 C 304.226 3.45543 -0.489986 0
M  V30 3221 C 305.574 4.22442 -0.427536 0
M  V30 3222 O 306.598 3.53644 -0.425929 0
M  V30 3223 O 305.457 5.4501 -0.403292 0
M  V30 3224 H 302.551 0.826606 -0.0255192 0
M  V30 3225 H 305.097 1.5014 -0.790949 0
M  V30 3226 H 303.869 3.60432 -1.5233 0
M  V30 3227 H 303.492 3.97311 0.151598 0
M  V30 3228 N 304.489 0.459591 1.5075 0
M  V30 3229 C 305.737 -0.0991532 2.01857 0
M  V30 3230 C 306.058 -1.41247 1.34441 0
M  V30 3231 O 305.328 -1.89775 0.486022 0
M  V30 3232 H 303.908 -0.039633 0.745948 0
M  V30 3233 H 306.57 0.607387 1.85194 0
M  V30 3234 H 305.666 -0.258998 3.11023 0
M  V30 3235 N 305.967 -1.56429 0.191757 0
M  V30 3236 C 306.914 -2.18936 -0.730454 0
M  V30 3237 C 307.884 -1.13557 -1.21219 0
M  V30 3238 O 309.069 -1.41794 -1.27668 0
M  V30 3239 C 306.209 -2.85013 -1.9458 0
M  V30 3240 C 305.322 -4.04909 -1.50574 0
M  V30 3241 C 304.457 -4.58853 -2.67634 0
M  V30 3242 C 303.496 -5.71114 -2.20217 0
M  V30 3243 N 302.633 -6.19478 -3.30442 0
M  V30 3244 H 307.473 -2.97389 -0.190664 0
M  V30 3245 H 305.01 -1.46869 -0.0823694 0
M  V30 3246 H 306.968 -3.21492 -2.65893 0
M  V30 3247 H 305.598 -2.09129 -2.45896 0
M  V30 3248 H 304.65 -3.74115 -0.688605 0
M  V30 3249 H 305.962 -4.86113 -1.11784 0
M  V30 3250 H 305.116 -4.97619 -3.47074 0
M  V30 3251 H 303.855 -3.76749 -3.09696 0
M  V30 3252 H 302.86 -5.31879 -1.3923 0
M  V30 3253 H 304.085 -6.55033 -1.79189 0
M  V30 3254 H 302.031 -5.40297 -3.72041 0
M  V30 3255 H 301.948 -6.95725 -2.9581 0
M  V30 3256 H 303.216 -6.62898 -4.10106 0
M  V30 3257 N 307.445 0.0818655 -1.57387 0
M  V30 3258 C 308.375 1.09885 -2.06028 0
M  V30 3259 C 309.356 1.4098 -0.951774 0
M  V30 3260 O 310.541 1.50781 -1.22387 0
M  V30 3261 C 307.671 2.4151 -2.4958 0
M  V30 3262 C 306.625 2.24792 -3.64215 0
M  V30 3263 C 305.951 3.61712 -3.93787 0
M  V30 3264 C 307.251 1.67749 -4.94629 0
M  V30 3265 H 308.945 0.694128 -2.91243 0
M  V30 3266 H 306.491 0.332448 -1.4011 0
M  V30 3267 H 308.444 3.12939 -2.82219 0
M  V30 3268 H 307.168 2.83943 -1.61381 0
M  V30 3269 H 305.827 1.55807 -3.31843 0
M  V30 3270 H 305.475 4.01697 -3.02735 0
M  V30 3271 H 305.175 3.51368 -4.70971 0
M  V30 3272 H 306.699 4.34587 -4.28913 0
M  V30 3273 H 308.113 2.29032 -5.25564 0
M  V30 3274 H 306.51 1.68128 -5.76067 0
M  V30 3275 H 307.58 0.638059 -4.80684 0
M  V30 3276 N 308.923 1.53595 0.353017 0
M  V30 3277 C 310.163 1.72094 1.10286 0
M  V30 3278 C 310.527 0.469217 1.86178 0
M  V30 3279 O 311.728 0.531083 2.63501 0
M  V30 3280 C 309.999 2.94386 2.02661 0
M  V30 3281 S 311.558 3.33651 2.84996 0
M  V30 3282 H 308.376 0.605433 0.372789 0
M  V30 3283 H 310.978 1.91722 0.38248 0
M  V30 3284 H 309.682 3.83669 1.45691 0
M  V30 3285 H 309.213 2.77197 2.79152 0
M  V30 3286 H 311.228 2.86645 4.0503 0
M  V30 3287 N 310.401 -0.613514 1.45168 0
M  V30 3288 C 311.331 -1.7354 1.56225 0
M  V30 3289 C 312.312 -1.64981 0.41414 0
M  V30 3290 O 313.497 -1.83472 0.636526 0
M  V30 3291 C 310.627 -3.12128 1.52295 0
M  V30 3292 C 309.581 -3.35491 2.65762 0
M  V30 3293 C 308.907 -4.74291 2.46885 0
M  V30 3294 C 310.207 -3.26325 4.0781 0
M  V30 3295 H 311.901 -1.64543 2.50132 0
M  V30 3296 H 309.447 -0.790185 1.20383 0
M  V30 3297 H 311.4 -3.90404 1.58628 0
M  V30 3298 H 310.124 -3.2195 0.549139 0
M  V30 3299 H 308.783 -2.59603 2.58847 0
M  V30 3300 H 308.431 -4.80839 1.47657 0
M  V30 3301 H 308.131 -4.9088 3.22972 0
M  V30 3302 H 309.655 -5.54775 2.55063 0
M  V30 3303 H 311.069 -3.94483 4.16 0
M  V30 3304 H 309.466 -3.54445 4.8424 0
M  V30 3305 H 310.536 -2.23855 4.30136 0
M  V30 3306 N 311.879 -1.3236 -0.855495 0
M  V30 3307 C 312.812 -1.15559 -1.96777 0
M  V30 3308 C 313.79 -0.0552681 -1.62506 0
M  V30 3309 O 314.974 -0.214419 -1.87277 0
M  V30 3310 C 312.101 -0.768851 -3.29858 0
M  V30 3311 C 311.147 -1.87429 -3.83109 0
M  V30 3312 S 311.98 -3.48243 -4.06801 0
M  V30 3313 C 313.136 -3.11539 -5.42858 0
M  V30 3314 H 313.369 -2.09717 -2.10727 0
M  V30 3315 H 310.902 -1.17011 -1.00737 0
M  V30 3316 H 312.86 -0.55248 -4.06765 0
M  V30 3317 H 311.521 0.153857 -3.13723 0
M  V30 3318 H 310.714 -1.55667 -4.79358 0
M  V30 3319 H 310.316 -2.04647 -3.13042 0
M  V30 3320 H 312.608 -2.61331 -6.2507 0
M  V30 3321 H 313.551 -4.06806 -5.79582 0
M  V30 3322 H 313.959 -2.48582 -5.06821 0
M  V30 3323 N 313.357 1.07166 -1.15556 0
M  V30 3324 C 314.603 1.80222 -0.942961 0
M  V30 3325 C 314.958 1.85121 0.524209 0
M  V30 3326 O 314.251 1.32531 1.38369 0
M  V30 3327 C 314.445 3.24707 -1.49332 0
M  V30 3328 C 314.274 3.33887 -3.01247 0
M  V30 3329 C 313.044 3.44337 -3.69811 0
M  V30 3330 C 315.242 3.24484 -3.99017 0
M  V30 3331 N 313.224 3.42439 -5.09518 0
M  V30 3332 C 314.595 3.29726 -5.25053 0
M  V30 3333 C 316.65 3.08307 -3.90962 0
M  V30 3334 C 315.353 3.20455 -6.43973 0
M  V30 3335 C 317.379 3.00371 -5.09442 0
M  V30 3336 C 316.741 3.06227 -6.34354 0
M  V30 3337 H 312.84 0.672709 -0.398731 0
M  V30 3338 H 315.424 1.27905 -1.46794 0
M  V30 3339 H 313.595 3.7544 -0.994946 0
M  V30 3340 H 315.327 3.85894 -1.21935 0
M  V30 3341 H 312.082 3.48762 -3.20409 0
M  V30 3342 H 312.506 3.45013 -5.8249 0
M  V30 3343 H 317.148 3.02633 -2.95251 0
M  V30 3344 H 314.866 3.24888 -7.39914 0
M  V30 3345 H 318.452 2.88955 -5.04971 0
M  V30 3346 H 317.332 3.00132 -7.24493 0
M  V30 3347 N 314.835 0.952656 1.25548 0
M  V30 3348 C 316.251 0.656769 1.4546 0
M  V30 3349 C 316.451 -0.78633 1.85524 0
M  V30 3350 O 315.507 -1.56183 1.98402 0
M  V30 3351 C 316.82 1.62801 2.52817 0
M  V30 3352 C 318.368 1.63897 2.66659 0
M  V30 3353 C 318.843 2.5978 3.77198 0
M  V30 3354 N 320.334 2.58133 3.84606 0
M  V30 3355 C 321.069 3.29003 4.69621 0
M  V30 3356 N 320.565 4.09339 5.58939 0
M  V30 3357 N 322.358 3.179 4.63569 0
M  V30 3358 H 314.509 1.88526 0.978344 0
M  V30 3359 H 316.772 0.810815 0.491206 0
M  V30 3360 H 316.478 2.65869 2.30232 0
M  V30 3361 H 316.352 1.38898 3.50695 0
M  V30 3362 H 318.739 0.615481 2.8861 0
M  V30 3363 H 318.82 1.91858 1.69187 0
M  V30 3364 H 318.464 3.62254 3.55997 0
M  V30 3365 H 318.394 2.29105 4.7415 0
M  V30 3366 H 320.885 1.99809 3.20757 0
M  V30 3367 H 321.198 4.6034 6.20731 0
M  V30 3368 H 319.543 4.13438 5.58654 0
M  V30 3369 H 322.734 2.54612 3.92798 0
M  V30 3370 H 322.907 3.73398 5.29602 0
M  V30 3371 N 316.313 -1.40141 0.720998 0
M  V30 3372 C 317.559 -2.01084 0.263231 0
M  V30 3373 C 317.892 -1.57052 -1.14229 0
M  V30 3374 O 317.167 -0.793027 -1.77599 0
M  V30 3375 C 317.45 -3.58401 0.349344 0
M  V30 3376 C 317.303 -4.12491 1.79363 0
M  V30 3377 C 318.622 -4.39231 -0.276351 0
M  V30 3378 H 315.741 -0.730572 0.0971228 0
M  V30 3379 H 318.383 -1.66543 0.914518 0
M  V30 3380 H 316.533 -3.87958 -0.205165 0
M  V30 3381 H 318.205 -3.93711 2.40394 0
M  V30 3382 H 316.448 -3.66576 2.31958 0
M  V30 3383 H 317.119 -5.21646 1.80524 0
M  V30 3384 H 319.595 -4.15637 0.196184 0
M  V30 3385 H 318.471 -5.48586 -0.185681 0
M  V30 3386 H 318.732 -4.20643 -1.36059 0
M  V30 3387 N 317.792 -0.46758 -1.50504 0
M  V30 3388 C 319.04 0.0884469 -2.01906 0
M  V30 3389 C 319.361 1.40532 -1.35188 0
M  V30 3390 O 318.631 1.89515 -0.496079 0
M  V30 3391 H 317.211 0.0356765 -0.746148 0
M  V30 3392 H 319.873 -0.6172 -1.84869 0
M  V30 3393 H 318.969 0.2425 -3.11156 0
M  V30 3394 N 319.27 1.56325 -0.20005 0
M  V30 3395 C 320.218 2.20666 0.735482 0
M  V30 3396 C 321.212 1.17934 1.21605 0
M  V30 3397 O 322.418 1.36068 1.17837 0
M  V30 3398 H 318.793 0.70725 0.255542 0
M  V30 3399 H 320.764 2.9792 0.169166 0
M  V30 3400 C 319.513 2.88391 1.94232 0
M  V30 3401 H 318.836 3.67185 1.58161 0
M  V30 3402 H 320.276 3.3684 2.57517 0
M  V30 3403 C 318.735 1.89692 2.78421 0
M  V30 3404 O 319.265 1.40032 3.76502 0
M  V30 3405 N 317.471 1.57813 2.44015 0
M  V30 3406 H 317.018 1.9839 1.64314 0
M  V30 3407 H 316.976 0.920325 3.00628 0
M  V30 3408 N 320.748 -0.0735177 1.57428 0
M  V30 3409 C 321.678 -1.0879 2.06608 0
M  V30 3410 C 322.659 -1.40473 0.959237 0
M  V30 3411 O 323.844 -1.5013 1.23185 0
M  V30 3412 C 320.974 -2.40183 2.50857 0
M  V30 3413 C 319.928 -2.22858 3.65402 0
M  V30 3414 C 319.254 -3.59619 3.957 0
M  V30 3415 C 320.554 -1.65123 4.95511 0
M  V30 3416 H 322.248 -0.678673 2.91607 0
M  V30 3417 H 319.794 -0.325013 1.40284 0
M  V30 3418 H 321.747 -3.11437 2.83874 0
M  V30 3419 H 320.471 -2.83083 1.62885 0
M  V30 3420 H 319.13 -1.54045 3.32664 0
M  V30 3421 H 318.778 -4.00086 3.04861 0
M  V30 3422 H 318.478 -3.48866 4.72828 0
M  V30 3423 H 320.002 -4.32306 4.31212 0
M  V30 3424 H 321.416 -2.26241 5.26771 0
M  V30 3425 H 319.813 -1.65071 5.7695 0
M  V30 3426 H 320.883 -0.612559 4.81015 0
M  V30 3427 N 322.226 -1.5378 -0.344866 0
M  V30 3428 C 323.642 -1.44015 -0.687888 0
M  V30 3429 C 323.842 -0.595834 -1.92489 0
M  V30 3430 O 322.898 -0.0863064 -2.52352 0
M  V30 3431 C 324.211 -2.87481 -0.881758 0
M  V30 3432 C 325.759 -2.97247 -0.980459 0
M  V30 3433 C 326.234 -4.41819 -1.20665 0
M  V30 3434 N 327.725 -4.45339 -1.27389 0
M  V30 3435 C 328.46 -5.54333 -1.46639 0
M  V30 3436 N 327.956 -6.73335 -1.63071 0
M  V30 3437 N 329.749 -5.41944 -1.49176 0
M  V30 3438 H 321.9 -2.07169 0.468475 0
M  V30 3439 H 324.163 -0.93643 0.147655 0
M  V30 3440 H 323.869 -3.51672 -0.0443444 0
M  V30 3441 H 323.743 -3.32352 -1.78388 0
M  V30 3442 H 326.13 -2.33197 -1.8084 0
M  V30 3443 H 326.211 -2.5574 -0.0552713 0
M  V30 3444 H 325.855 -5.06449 -0.383652 0
M  V30 3445 H 325.785 -4.80917 -2.14539 0
M  V30 3446 H 328.276 -3.59585 -1.1622 0
M  V30 3447 H 328.589 -7.52165 -1.77391 0
M  V30 3448 H 326.934 -6.76282 -1.60209 0
M  V30 3449 H 330.125 -4.47932 -1.3592 0
M  V30 3450 H 330.298 -6.26946 -1.63837 0
M  V30 3451 N 323.704 0.605807 -1.45491 0
M  V30 3452 C 324.651 1.7164 -1.54299 0
M  V30 3453 C 325.621 1.61486 -0.388761 0
M  V30 3454 O 326.806 1.81039 -0.602445 0
M  V30 3455 C 323.946 3.09953 -1.51734 0
M  V30 3456 C 323.059 3.309 -2.77721 0
M  V30 3457 C 322.194 4.59329 -2.66816 0
M  V30 3458 C 321.233 4.7354 -3.87848 0
M  V30 3459 N 320.37 5.9327 -3.75467 0
M  V30 3460 H 325.21 1.63449 -2.49176 0
M  V30 3461 H 322.747 0.796957 -1.23641 0
M  V30 3462 H 324.705 3.89977 -1.48235 0
M  V30 3463 H 323.335 3.17098 -0.604068 0
M  V30 3464 H 322.387 2.44639 -2.913 0
M  V30 3465 H 323.699 3.37274 -3.67488 0
M  V30 3466 H 322.853 5.4755 -2.61292 0
M  V30 3467 H 321.592 4.55355 -1.74651 0
M  V30 3468 H 320.597 3.83741 -3.93729 0
M  V30 3469 H 321.822 4.79309 -4.81082 0
M  V30 3470 H 319.768 5.90338 -2.86072 0
M  V30 3471 H 319.685 6.00811 -4.5887 0
M  V30 3472 H 320.953 6.83984 -3.73879 0
M  V30 3473 N 325.182 1.32811 0.848464 0
M  V30 3474 C 326.407 1.26882 1.6406 0
M  V30 3475 C 326.832 -0.15913 1.87426 0
M  V30 3476 O 326.19 -1.11258 1.43148 0
M  V30 3477 C 326.238 2.03997 2.97351 0
M  V30 3478 O 325.342 1.39201 3.88197 0
M  V30 3479 H 324.683 0.436982 0.499943 0
M  V30 3480 H 327.213 1.75224 1.0563 0
M  V30 3481 H 327.223 2.14403 3.47124 0
M  V30 3482 H 325.898 3.0783 2.79666 0
M  V30 3483 H 324.475 1.37381 3.46671 0
M  V30 3484 N 326.66 -1.06551 1.16123 0
M  V30 3485 C 327.61 -2.12209 0.833736 0
M  V30 3486 C 328.594 -1.59825 -0.185656 0
M  V30 3487 O 329.786 -1.76994 0.0147906 0
M  V30 3488 C 326.915 -3.41674 0.333697 0
M  V30 3489 C 326.001 -4.00892 1.38372 0
M  V30 3490 N 326.392 -4.34256 2.59337 0
M  V30 3491 C 324.69 -4.28463 1.23836 0
M  V30 3492 C 325.391 -4.81291 3.26701 0
M  V30 3493 N 324.367 -4.80565 2.54083 0
M  V30 3494 H 328.169 -2.35849 1.75364 0
M  V30 3495 H 325.683 -1.24068 1.04789 0
M  V30 3496 H 327.68 -4.16822 0.0806918 0
M  V30 3497 H 326.34 -3.19475 -0.58017 0
M  V30 3498 H 327.351 -4.24687 2.96415 0
M  V30 3499 H 324.028 -4.15721 0.38504 0
M  V30 3500 H 325.418 -5.16332 4.29943 0
M  V30 3501 N 328.138 -0.959301 -1.25041 0
M  V30 3502 C 329.387 -0.612254 -1.92183 0
M  V30 3503 C 329.7 0.855347 -1.75907 0
M  V30 3504 O 330.906 1.31256 -2.37664 0
M  V30 3505 C 329.362 -1.04435 -3.44414 0
M  V30 3506 C 328.97 -2.53482 -3.69393 0
M  V30 3507 C 330.714 -0.770055 -4.17457 0
M  V30 3508 C 328.621 -2.90468 -5.15153 0
M  V30 3509 H 327.551 -0.225279 -0.719559 0
M  V30 3510 H 330.202 -1.16438 -1.41825 0
M  V30 3511 H 328.584 -0.4206 -3.9376 0
M  V30 3512 H 329.758 -3.20916 -3.30681 0
M  V30 3513 H 328.073 -2.78432 -3.0962 0
M  V30 3514 H 330.67 -1.02249 -5.24832 0
M  V30 3515 H 331.013 0.293611 -4.15263 0
M  V30 3516 H 331.546 -1.35437 -3.74034 0
M  V30 3517 H 328.285 -3.95871 -5.22462 0
M  V30 3518 H 327.805 -2.27711 -5.54894 0
M  V30 3519 H 329.484 -2.79914 -5.83315 0
M  V30 3520 N 329.616 1.39756 -0.72842 0
M  V30 3521 C 330.862 2.00942 -0.273892 0
M  V30 3522 C 331.195 1.57656 1.13394 0
M  V30 3523 O 330.47 0.802434 1.77176 0
M  V30 3524 C 330.753 3.58211 -0.368346 0
M  V30 3525 C 330.606 4.11534 -1.81548 0
M  V30 3526 C 331.925 4.39372 0.253054 0
M  V30 3527 H 329.044 0.730047 -0.100996 0
M  V30 3528 H 331.686 1.66056 -0.923337 0
M  V30 3529 H 329.836 3.88061 0.184588 0
M  V30 3530 H 331.508 3.92431 -2.42478 0
M  V30 3531 H 329.751 3.65341 -2.33898 0
M  V30 3532 H 330.422 5.20682 -1.83288 0
M  V30 3533 H 332.898 4.15527 -0.218224 0
M  V30 3534 H 331.774 5.48677 0.156585 0
M  V30 3535 H 332.035 4.21358 1.33826 0
M  V30 3536 N 331.094 0.475555 1.50254 0
M  V30 3537 C 332.004 -0.321501 2.32387 0
M  V30 3538 C 333.02 -0.991755 1.42969 0
M  V30 3539 O 334.196 -0.978747 1.76018 0
M  V30 3540 C 331.261 -1.38667 3.17762 0
M  V30 3541 C 330.322 -0.732538 4.23004 0
M  V30 3542 C 329.555 -1.74695 5.04299 0
M  V30 3543 O 329.778 -2.97399 4.86734 0
M  V30 3544 O 328.712 -1.31631 5.8733 0
M  V30 3545 H 332.538 0.350071 3.01676 0
M  V30 3546 H 330.123 0.237321 1.47503 0
M  V30 3547 H 332.005 -2.00354 3.70724 0
M  V30 3548 H 330.68 -2.04163 2.51196 0
M  V30 3549 H 329.587 -0.0765902 3.74022 0
M  V30 3550 H 330.92 -0.120452 4.92053 0
M  V30 3551 N 332.573 -1.56217 0.208337 0
M  V30 3552 C 333.536 -2.18455 -0.693557 0
M  V30 3553 C 334.536 -1.14268 -1.13135 0
M  V30 3554 O 335.726 -1.39577 -1.0423 0
M  V30 3555 C 332.858 -2.79727 -1.94848 0
M  V30 3556 H 334.051 -2.99519 -0.15114 0
M  V30 3557 H 331.604 -1.56245 -0.041287 0
M  V30 3558 H 332.339 -2.02497 -2.53309 0
M  V30 3559 H 332.124 -3.56009 -1.64316 0
M  V30 3560 H 333.614 -3.27475 -2.59133 0
M  V30 3561 N 334.051 0.0651679 -1.57465 0
M  V30 3562 C 335.001 1.0838 -2.00594 0
M  V30 3563 C 335.985 1.34106 -0.889071 0
M  V30 3564 O 337.177 1.34295 -1.15299 0
M  V30 3565 C 334.306 2.39565 -2.45894 0
M  V30 3566 C 333.392 2.17085 -3.64328 0
M  V30 3567 N 333.783 1.64553 -4.78285 0
M  V30 3568 C 332.081 2.4753 -3.71006 0
M  V30 3569 C 332.782 1.57042 -5.60101 0
M  V30 3570 N 331.758 2.03328 -5.04141 0
M  V30 3571 H 335.56 0.671062 -2.86136 0
M  V30 3572 H 333.074 0.27213 -1.60104 0
M  V30 3573 H 335.071 3.13308 -2.75034 0
M  V30 3574 H 333.731 2.81549 -1.61741 0
M  V30 3575 H 334.742 1.33323 -5.00445 0
M  V30 3576 H 331.419 2.92835 -2.9758 0
M  V30 3577 H 332.809 1.17223 -6.61595 0
M  V30 3578 N 335.529 1.53961 0.336706 0
M  V30 3579 C 336.775 1.7179 1.07777 0
M  V30 3580 C 337.108 0.483263 1.88091 0
M  V30 3581 O 336.383 -0.519747 1.87427 0
M  V30 3582 C 336.666 2.98558 2.01334 0
M  V30 3583 C 336.519 4.32245 1.24437 0
M  V30 3584 C 337.838 3.21023 3.01052 0
M  V30 3585 H 334.957 0.625089 0.390426 0
M  V30 3586 H 337.599 1.86641 0.35567 0
M  V30 3587 H 335.749 2.86028 2.62908 0
M  V30 3588 H 337.421 4.56637 0.654243 0
M  V30 3589 H 335.664 4.30344 0.546458 0
M  V30 3590 H 336.335 5.17137 1.93063 0
M  V30 3591 H 338.811 3.32929 2.49595 0
M  V30 3592 H 337.687 4.11104 3.6371 0
M  V30 3593 H 337.948 2.37637 3.72802 0
M  V30 3594 N 337.007 -0.598083 1.45811 0
M  V30 3595 C 338.423 -0.919847 1.30426 0
M  V30 3596 C 338.623 -1.99759 0.264303 0
M  V30 3597 O 337.679 -2.50221 -0.338472 0
M  V30 3598 C 338.992 -1.35176 2.68603 0
M  V30 3599 C 340.54 -1.46546 2.76574 0
M  V30 3600 C 341.015 -1.9311 4.15298 0
M  V30 3601 N 342.506 -2.00328 4.1764 0
M  V30 3602 C 343.241 -2.37599 5.21856 0
M  V30 3603 N 342.737 -2.73771 6.36413 0
M  V30 3604 N 344.53 -2.38021 5.09218 0
M  V30 3605 H 336.681 0.114111 2.12093 0
M  V30 3606 H 338.944 -0.0116121 0.947929 0
M  V30 3607 H 338.65 -0.633969 3.45939 0
M  V30 3608 H 338.524 -2.3164 2.97696 0
M  V30 3609 H 340.911 -2.17415 1.99537 0
M  V30 3610 H 340.992 -0.483727 2.51185 0
M  V30 3611 H 340.636 -1.22824 4.92825 0
M  V30 3612 H 340.566 -2.92213 4.38086 0
M  V30 3613 H 343.057 -1.74925 3.34977 0
M  V30 3614 H 343.37 -3.0112 7.11721 0
M  V30 3615 H 341.715 -2.71445 6.39799 0
M  V30 3616 H 344.906 -2.09174 4.18765 0
M  V30 3617 H 345.079 -2.66741 5.90554 0
M  V30 3618 N 338.485 -1.33259 -0.841409 0
M  V30 3619 C 339.448 -1.23221 -1.9326 0
M  V30 3620 C 340.448 -0.151895 -1.60081 0
M  V30 3621 O 341.638 -0.403246 -1.69468 0
M  V30 3622 C 338.77 -0.898123 -3.28856 0
M  V30 3623 H 339.963 -2.2021 -2.03587 0
M  V30 3624 H 337.516 -1.17281 -1.03319 0
M  V30 3625 H 338.251 0.0693841 -3.24226 0
M  V30 3626 H 338.036 -1.67934 -3.54317 0
M  V30 3627 H 339.526 -0.852563 -4.08805 0
M  V30 3628 N 339.963 1.05934 -1.16686 0
M  V30 3629 C 340.895 2.13468 -0.834503 0
M  V30 3630 C 341.908 1.62013 0.15984 0
M  V30 3631 O 343.097 1.7838 -0.0654228 0
M  V30 3632 C 340.197 3.3817 -0.222361 0
M  V30 3633 C 339.37 4.18928 -1.25771 0
M  V30 3634 C 338.429 5.21985 -0.664703 0
M  V30 3635 O 337.455 5.53334 -1.33453 0
M  V30 3636 N 338.657 5.77919 0.546834 0
M  V30 3637 H 341.422 2.42578 -1.75999 0
M  V30 3638 H 338.983 1.21967 -1.06469 0
M  V30 3639 H 340.975 4.04266 0.187472 0
M  V30 3640 H 339.545 3.06655 0.606758 0
M  V30 3641 H 338.765 3.48433 -1.84358 0
M  V30 3642 H 340.053 4.69687 -1.95631 0
M  V30 3643 H 339.451 5.54721 1.10912 0
M  V30 3644 H 338.008 6.45573 0.898829 0
M  V30 3645 N 341.441 0.965919 1.2453 0
M  V30 3646 C 342.371 0.513476 2.27784 0
M  V30 3647 C 343.352 -0.445974 1.6415 0
M  V30 3648 O 344.537 -0.342485 1.91156 0
M  V30 3649 C 341.667 -0.198839 3.4673 0
M  V30 3650 C 340.621 0.676456 4.2262 0
M  V30 3651 C 339.947 -0.167248 5.34438 0
M  V30 3652 C 341.247 1.96017 4.84123 0
M  V30 3653 H 342.941 1.3765 2.65881 0
M  V30 3654 H 340.487 0.663321 1.27813 0
M  V30 3655 H 342.44 -0.526567 4.18097 0
M  V30 3656 H 341.164 -1.0962 3.07654 0
M  V30 3657 H 339.823 0.98743 3.53052 0
M  V30 3658 H 339.471 -1.0647 4.91603 0
M  V30 3659 H 339.171 0.415181 5.86131 0
M  V30 3660 H 340.695 -0.489688 6.08633 0
M  V30 3661 H 342.109 1.69814 5.47573 0
M  V30 3662 H 340.506 2.48918 5.4604 0
M  V30 3663 H 341.576 2.65622 4.05676 0
M  V30 3664 N 342.919 -1.39368 0.735821 0
M  V30 3665 C 344.168 -1.99733 0.281004 0
M  V30 3666 C 344.481 -1.59055 -1.13846 0
M  V30 3667 O 345.687 -2.12262 -1.69284 0
M  V30 3668 C 344.143 -3.57057 0.451462 0
M  V30 3669 C 343.751 -4.06697 1.87886 0
M  V30 3670 C 345.495 -4.2446 0.0584616 0
M  V30 3671 C 343.402 -5.56598 1.99883 0
M  V30 3672 H 342.332 -0.747163 0.101311 0
M  V30 3673 H 344.983 -1.59357 0.909819 0
M  V30 3674 H 343.365 -3.95234 -0.246263 0
M  V30 3675 H 344.539 -3.79853 2.60861 0
M  V30 3676 H 342.854 -3.5196 2.22515 0
M  V30 3677 H 345.451 -5.34549 0.127099 0
M  V30 3678 H 345.794 -4.04444 -0.986433 0
M  V30 3679 H 346.327 -3.9146 0.707374 0
M  V30 3680 H 343.066 -5.81494 3.02564 0
M  V30 3681 H 342.586 -5.85242 1.31346 0
M  V30 3682 H 344.265 -6.22022 1.78039 0
M  V30 3683 N 344.397 -0.483516 -1.5 0
M  V30 3684 C 345.344 0.304164 -2.28787 0
M  V30 3685 C 346.314 0.976114 -1.34392 0
M  V30 3686 O 347.499 0.986156 -1.63339 0
M  V30 3687 C 344.639 1.37298 -3.16612 0
M  V30 3688 C 343.752 0.714561 -4.26049 0
M  V30 3689 C 342.887 1.76232 -5.01114 0
M  V30 3690 C 341.926 1.08483 -6.0241 0
M  V30 3691 N 341.063 2.076 -6.70706 0
M  V30 3692 H 345.903 -0.373981 -2.95644 0
M  V30 3693 H 343.44 -0.196275 -1.45785 0
M  V30 3694 H 345.398 2.00445 -3.65893 0
M  V30 3695 H 344.028 2.02012 -2.51776 0
M  V30 3696 H 343.08 -0.0297798 -3.80388 0
M  V30 3697 H 344.392 0.180383 -4.98474 0
M  V30 3698 H 343.546 2.46929 -5.54176 0
M  V30 3699 H 342.285 2.33033 -4.28424 0
M  V30 3700 H 341.29 0.363545 -5.48597 0
M  V30 3701 H 342.515 0.523551 -6.77079 0
M  V30 3702 H 340.461 2.63394 -6.00799 0
M  V30 3703 H 340.378 1.59201 -7.39047 0
M  V30 3704 H 341.646 2.77639 -7.2838 0
M  V30 3705 N 345.875 1.56104 -0.216619 0
M  V30 3706 C 347.286 1.844 0.292128 0
M  V30 3707 C 347.637 1.13788 1.59833 0
M  V30 3708 O 346.762 0.405888 2.12559 0
M  V30 3709 C 347.357 3.3452 0.53681 0
M  V30 3710 C 345.916 3.63151 0.989876 0
M  V30 3711 C 345.063 2.77255 0.0502302 0
M  V30 3712 H 348.014 1.52481 -0.439926 0
M  V30 3713 H 348.035 3.54459 1.38345 0
M  V30 3714 H 347.547 3.85885 -0.414031 0
M  V30 3715 H 345.648 3.17238 1.95425 0
M  V30 3716 H 345.761 4.71177 0.867698 0
M  V30 3717 H 344.125 2.48555 0.556117 0
M  V30 3718 H 344.908 3.31416 -0.89544 0
M  V30 3719 N 347.353 -0.0568162 1.57498 0
M  V30 3720 C 348.769 -0.411933 1.54192 0
M  V30 3721 C 348.969 -1.78287 0.938942 0
M  V30 3722 O 348.025 -2.46483 0.547919 0
M  V30 3723 C 349.338 -0.339244 2.9878 0
M  V30 3724 C 350.886 -0.418348 3.10192 0
M  V30 3725 C 351.361 -0.375407 4.56459 0
M  V30 3726 N 352.852 -0.435038 4.61153 0
M  V30 3727 C 353.587 -0.424265 5.71828 0
M  V30 3728 N 353.083 -0.367418 6.91825 0
M  V30 3729 N 354.876 -0.471938 5.60115 0
M  V30 3730 H 347.027 0.840684 1.95055 0
M  V30 3731 H 349.29 0.316987 0.893433 0
M  V30 3732 H 348.996 0.601742 3.46514 0
M  V30 3733 H 348.87 -1.14371 3.59443 0
M  V30 3734 H 351.257 -1.34976 2.62422 0
M  V30 3735 H 351.338 0.414962 2.52412 0
M  V30 3736 H 350.982 0.552219 5.04889 0
M  V30 3737 H 350.912 -1.22645 5.12119 0
M  V30 3738 H 353.403 -0.482612 3.74806 0
M  V30 3739 H 353.716 -0.363535 7.71944 0
M  V30 3740 H 352.061 -0.333879 6.94198 0
M  V30 3741 H 355.252 -0.514145 4.65268 0
M  V30 3742 H 355.425 -0.460073 6.46365 0
M  V30 3743 N 348.832 -1.54138 -0.328536 0
M  V30 3744 C 350.078 -1.7236 -1.06865 0
M  V30 3745 C 350.411 -0.493231 -1.87832 0
M  V30 3746 O 349.686 0.5098 -1.877 0
M  V30 3747 C 349.969 -2.99621 -1.99747 0
M  V30 3748 C 349.822 -4.32899 -1.22143 0
M  V30 3749 C 351.141 -3.22615 -2.99345 0
M  V30 3750 H 348.26 -0.627151 -0.387105 0
M  V30 3751 H 350.902 -1.86827 -0.345767 0
M  V30 3752 H 349.052 -2.87418 -2.61387 0
M  V30 3753 H 350.724 -4.56978 -0.630017 0
M  V30 3754 H 348.967 -4.30628 -0.523628 0
M  V30 3755 H 349.638 -5.18154 -1.90318 0
M  V30 3756 H 352.114 -3.34248 -2.47826 0
M  V30 3757 H 350.99 -4.13027 -3.61524 0
M  V30 3758 H 351.251 -2.3961 -3.71536 0
M  V30 3759 N 350.31 0.590341 -1.46126 0
M  V30 3760 C 351.538 1.37504 -1.54597 0
M  V30 3761 C 351.953 1.87897 -0.184447 0
M  V30 3762 O 351.31 1.63192 0.816984 0
M  V30 3763 C 351.361 2.56779 -2.54454 0
M  V30 3764 O 351.082 2.08476 -3.85317 0
M  V30 3765 C 352.583 3.49427 -2.72792 0
M  V30 3766 H 349.803 0.420325 -0.523037 0
M  V30 3767 H 352.347 0.718383 -1.91467 0
M  V30 3768 H 350.502 3.1845 -2.20609 0
M  V30 3769 H 350.916 2.86097 -4.396 0
M  V30 3770 H 352.39 4.29619 -3.466 0
M  V30 3771 H 352.867 4.00876 -1.79429 0
M  V30 3772 H 353.473 2.93598 -3.07702 0
M  V30 3773 N 351.788 1.33704 0.83433 0
M  V30 3774 C 352.698 1.26382 1.97648 0
M  V30 3775 C 353.714 0.173548 1.73132 0
M  V30 3776 O 354.89 0.397962 1.97429 0
M  V30 3777 C 351.955 1.00769 3.31733 0
M  V30 3778 C 351.016 2.1884 3.69334 0
M  V30 3779 C 350.249 1.9444 4.9702 0
M  V30 3780 O 350.472 0.896961 5.63303 0
M  V30 3781 O 349.406 2.81093 5.32231 0
M  V30 3782 H 353.232 2.22444 2.06767 0
M  V30 3783 H 350.817 1.13795 0.968037 0
M  V30 3784 H 352.699 0.882186 4.12062 0
M  V30 3785 H 351.374 0.0773783 3.23608 0
M  V30 3786 H 350.281 2.36946 2.89495 0
M  V30 3787 H 351.614 3.10221 3.82131 0
M  V30 3788 N 353.266 -1.05314 1.17247 0
M  V30 3789 C 354.176 -2.16538 0.90268 0
M  V30 3790 C 355.192 -1.73523 -0.128707 0
M  V30 3791 O 356.368 -2.01337 0.0502701 0
M  V30 3792 C 353.433 -3.44167 0.418356 0
M  V30 3793 C 352.494 -4.01635 1.51618 0
M  V30 3794 C 351.727 -5.23171 1.05487 0
M  V30 3795 O 351.95 -5.70327 -0.0914715 0
M  V30 3796 O 350.884 -5.72848 1.8474 0
M  V30 3797 H 354.71 -2.42145 1.83302 0
M  V30 3798 H 352.295 -1.15037 0.953246 0
M  V30 3799 H 354.177 -4.21112 0.155726 0
M  V30 3800 H 352.852 -3.20063 -0.48385 0
M  V30 3801 H 351.759 -3.26135 1.83268 0
M  V30 3802 H 353.092 -4.30053 2.39405 0
M  V30 3803 N 354.744 -0.972509 -1.24016 0
M  V30 3804 C 355.992 -0.635776 -1.91839 0
M  V30 3805 C 356.313 0.832312 -1.76345 0
M  V30 3806 O 355.583 1.5946 -1.13795 0
M  V30 3807 H 354.163 -0.232157 -0.710009 0
M  V30 3808 H 356.825 -1.23462 -1.50809 0
M  V30 3809 H 355.921 -0.880545 -2.99421 0
M  V30 3810 N 356.222 1.38976 -0.743202 0
M  V30 3811 C 357.132 2.3434 -0.110399 0
M  V30 3812 C 358.148 1.58741 0.712559 0
M  V30 3813 O 359.324 1.9099 0.639125 0
M  V30 3814 C 356.389 3.37812 0.780012 0
M  V30 3815 C 355.45 4.29263 -0.0561319 0
M  V30 3816 C 354.683 5.27793 0.791875 0
M  V30 3817 O 354.906 5.33043 2.03031 0
M  V30 3818 O 353.84 6.01512 0.216183 0
M  V30 3819 H 357.666 2.90129 -0.897714 0
M  V30 3820 H 355.251 1.40643 -0.503966 0
M  V30 3821 H 357.133 4.01194 1.28923 0
M  V30 3822 H 355.808 2.84395 1.546 0
M  V30 3823 H 354.715 3.69076 -0.611056 0
M  V30 3824 H 356.048 4.85907 -0.784531 0
M  V30 3825 N 357.7 0.491464 1.49741 0
M  V30 3826 C 358.93 -0.0534375 2.06531 0
M  V30 3827 C 359.338 -1.32233 1.35318 0
M  V30 3828 O 358.681 -1.78781 0.422243 0
M  V30 3829 C 358.743 -0.387034 3.57411 0
M  V30 3830 C 358.407 0.782764 4.50246 0
M  V30 3831 C 359.404 1.67059 4.92329 0
M  V30 3832 C 357.089 0.978866 4.9267 0
M  V30 3833 C 359.083 2.73874 5.75562 0
M  V30 3834 C 356.77 2.05022 5.75682 0
M  V30 3835 C 357.768 2.92851 6.17031 0
M  V30 3836 O 357.456 3.98138 6.98385 0
M  V30 3837 H 357.188 0.0129324 0.675876 0
M  V30 3838 H 359.742 0.685238 1.93633 0
M  V30 3839 H 357.972 -1.17918 3.68283 0
M  V30 3840 H 359.661 -0.869419 3.96479 0
M  V30 3841 H 360.427 1.53086 4.60206 0
M  V30 3842 H 356.306 0.304646 4.59992 0
M  V30 3843 H 359.85 3.42458 6.07757 0
M  V30 3844 H 355.747 2.18993 6.07217 0
M  V30 3845 H 356.515 3.95374 7.16674 0
M  V30 3846 N 359.178 -1.55987 0.224894 0
M  V30 3847 C 360.427 -1.97566 -0.406273 0
M  V30 3848 C 360.74 -1.11569 -1.6066 0
M  V30 3849 O 361.946 -1.43062 -2.3075 0
M  V30 3850 C 360.402 -3.51474 -0.774207 0
M  V30 3851 C 360.01 -4.46179 0.403496 0
M  V30 3852 C 361.754 -4.01758 -1.37079 0
M  V30 3853 C 359.661 -5.91399 0.0129412 0
M  V30 3854 H 358.591 -0.737777 -0.155565 0
M  V30 3855 H 361.242 -1.80659 0.321635 0
M  V30 3856 H 359.624 -3.63994 -1.55963 0
M  V30 3857 H 360.798 -4.45409 1.18101 0
M  V30 3858 H 359.113 -4.06255 0.913536 0
M  V30 3859 H 361.71 -5.07756 -1.67596 0
M  V30 3860 H 362.053 -3.47805 -2.28773 0
M  V30 3861 H 362.586 -3.92475 -0.648733 0
M  V30 3862 H 359.325 -6.49341 0.896451 0
M  V30 3863 H 358.845 -5.95356 -0.728821 0
M  V30 3864 H 360.524 -6.45683 -0.412582 0
M  V30 3865 N 360.656 0.0484629 -1.57525 0
M  V30 3866 C 362.067 0.597486 -1.76881 0
M  V30 3867 C 362.418 1.76664 -0.853475 0
M  V30 3868 O 361.543 2.16357 -0.0433656 0
M  V30 3869 C 362.138 1.09066 -3.20765 0
M  V30 3870 C 360.697 1.58535 -3.41385 0
M  V30 3871 C 359.844 0.514868 -2.72478 0
M  V30 3872 H 362.795 -0.177758 -1.57701 0
M  V30 3873 H 362.816 1.95875 -3.2621 0
M  V30 3874 H 362.328 0.239521 -3.8736 0
M  V30 3875 H 360.429 2.45898 -2.79937 0
M  V30 3876 H 360.542 1.64622 -4.49929 0
M  V30 3877 H 358.906 0.965407 -2.35695 0
M  V30 3878 H 359.689 -0.32648 -3.41744 0
M  V30 3879 N 362.134 1.5431 0.320358 0
M  V30 3880 C 363.064 1.86912 1.3995 0
M  V30 3881 C 364.045 0.726211 1.53819 0
M  V30 3882 O 365.23 0.980233 1.67646 0
M  V30 3883 C 362.36 2.09932 2.7667 0
M  V30 3884 C 361.314 3.25776 2.77586 0
M  V30 3885 C 360.64 3.34173 4.17412 0
M  V30 3886 C 361.94 4.6335 2.41048 0
M  V30 3887 H 363.634 2.77292 1.12914 0
M  V30 3888 H 361.18 1.33421 0.541738 0
M  V30 3889 H 363.133 2.31324 3.52232 0
M  V30 3890 H 361.857 1.16304 3.0519 0
M  V30 3891 H 360.516 3.04276 2.04479 0
M  V30 3892 H 360.164 2.38098 4.43078 0
M  V30 3893 H 359.864 4.12033 4.18931 0
M  V30 3894 H 361.388 3.57803 4.94782 0
M  V30 3895 H 362.802 4.84602 3.06324 0
M  V30 3896 H 361.199 5.43782 2.53813 0
M  V30 3897 H 362.269 4.65381 1.36193 0
M  V30 3898 N 363.613 -0.582584 1.46437 0
M  V30 3899 C 364.89 -1.34276 1.4223 0
M  V30 3900 C 365.27 -2.10835 0.10583 0
M  V30 3901 O 364.618 -2.09485 -0.912596 0
M  V30 3902 C 364.828 -2.26865 2.65204 0
M  V30 3903 C 366.176 -2.88691 3.11356 0
M  V30 3904 O 367.2 -2.37178 2.65753 0
M  V30 3905 O 366.059 -3.82255 3.90568 0
M  V30 3906 H 363.153 -0.603326 0.565621 0
M  V30 3907 H 365.699 -0.603591 1.58603 0
M  V30 3908 H 364.471 -1.69724 3.52576 0
M  V30 3909 H 364.094 -3.08122 2.5129 0
M  V30 3910 N 365.091 -1.34144 -0.827227 0
M  V30 3911 C 366.023 -1.21206 -1.9453 0
M  V30 3912 C 367.036 -0.140176 -1.62195 0
M  V30 3913 O 368.225 -0.391647 -1.7415 0
M  V30 3914 C 365.325 -0.839141 -3.28347 0
M  V30 3915 C 364.498 -2.0051 -3.88734 0
M  V30 3916 C 363.557 -1.61128 -5.00923 0
M  V30 3917 O 362.583 -2.32726 -5.19449 0
M  V30 3918 N 363.785 -0.522958 -5.7814 0
M  V30 3919 H 366.55 -2.17525 -2.06162 0
M  V30 3920 H 364.111 -1.27043 -1.00358 0
M  V30 3921 H 366.103 -0.557556 -4.00841 0
M  V30 3922 H 364.673 0.0337293 -3.12582 0
M  V30 3923 H 363.893 -2.45166 -3.08686 0
M  V30 3924 H 365.181 -2.78498 -4.25812 0
M  V30 3925 H 364.579 0.0723518 -5.65654 0
M  V30 3926 H 363.136 -0.301089 -6.51104 0
M  V30 3927 N 366.569 1.04691 -1.17803 0
M  V30 3928 C 367.818 1.77176 -0.963931 0
M  V30 3929 C 368.131 1.88888 0.508015 0
M  V30 3930 O 369.337 2.58164 0.840465 0
M  V30 3931 C 367.793 3.18518 -1.67555 0
M  V30 3932 C 367.401 3.14919 -3.18637 0
M  V30 3933 C 369.145 3.95424 -1.54402 0
M  V30 3934 C 367.052 4.51081 -3.82466 0
M  V30 3935 H 365.982 0.664116 -0.357023 0
M  V30 3936 H 368.633 1.17303 -1.4111 0
M  V30 3937 H 367.015 3.78748 -1.15613 0
M  V30 3938 H 368.189 2.64178 -3.77554 0
M  V30 3939 H 366.504 2.51512 -3.31859 0
M  V30 3940 H 369.101 4.96106 -1.99456 0
M  V30 3941 H 369.444 4.13343 -0.495329 0
M  V30 3942 H 369.977 3.41754 -2.0359 0
M  V30 3943 H 366.716 4.38368 -4.87354 0
M  V30 3944 H 366.236 5.01951 -3.28337 0
M  V30 3945 H 367.915 5.2001 -3.84965 0
M  V30 3946 N 368.047 0.979072 1.23499 0
M  V30 3947 C 369.324 0.563674 1.87302 0
M  V30 3948 C 369.704 -0.959199 1.88049 0
M  V30 3949 O 369.052 -1.83535 1.36114 0
M  V30 3950 C 369.262 1.16822 3.28867 0
M  V30 3951 C 370.61 1.26014 4.0547 0
M  V30 3952 O 371.634 1.12158 3.38082 0
M  V30 3953 O 370.493 1.48044 5.26066 0
M  V30 3954 H 367.587 0.189602 0.804972 0
M  V30 3955 H 370.133 1.07407 1.31384 0
M  V30 3956 H 368.905 2.21049 3.22883 0
M  V30 3957 H 368.528 0.642564 3.92373 0
M  V30 3958 N 369.525 -1.3858 0.750561 0
M  V30 3959 C 370.774 -1.99424 0.302172 0
M  V30 3960 C 371.087 -1.60254 -1.12152 0
M  V30 3961 O 372.293 -2.14046 -1.67023 0
M  V30 3962 C 370.749 -3.56558 0.489307 0
M  V30 3963 C 370.357 -4.04682 1.92189 0
M  V30 3964 C 372.101 -4.24374 0.103478 0
M  V30 3965 C 370.008 -5.54446 2.05775 0
M  V30 3966 H 368.938 -0.746046 0.10923 0
M  V30 3967 H 371.589 -1.58383 0.92667 0
M  V30 3968 H 369.971 -3.95472 -0.204329 0
M  V30 3969 H 371.145 -3.77065 2.64875 0
M  V30 3970 H 369.46 -3.4958 2.26236 0
M  V30 3971 H 372.057 -5.34384 0.183787 0
M  V30 3972 H 372.4 -4.05468 -0.943481 0
M  V30 3973 H 372.933 -3.90688 0.748854 0
M  V30 3974 H 369.672 -5.78252 3.08714 0
M  V30 3975 H 369.192 -5.83816 1.37546 0
M  V30 3976 H 370.871 -6.20099 1.84626 0
M  V30 3977 N 371.003 -0.499398 -1.49478 0
M  V30 3978 C 372.28 0.108629 -1.95298 0
M  V30 3979 C 372.66 1.54282 -1.44084 0
M  V30 3980 O 372.008 2.18944 -0.653908 0
M  V30 3981 C 372.218 0.0229111 -3.48992 0
M  V30 3982 C 373.566 0.197643 -4.2414 0
M  V30 3983 O 374.59 0.0981735 -3.56065 0
M  V30 3984 O 373.449 0.401669 -5.45022 0
M  V30 3985 H 370.543 0.096181 -0.821388 0
M  V30 3986 H 373.089 -0.561822 -1.6013 0
M  V30 3987 H 371.861 -0.977321 -3.78899 0
M  V30 3988 H 371.484 0.733579 -3.90774 0
M  V30 3989 N 372.481 1.55866 -0.233164 0
M  V30 3990 C 373.727 1.98897 0.395959 0
M  V30 3991 C 374.06 1.12091 1.58585 0
M  V30 3992 O 373.335 0.181182 1.93654 0
M  V30 3993 C 373.618 3.50658 0.819224 0
M  V30 3994 C 373.471 4.48233 -0.375109 0
M  V30 3995 C 374.79 4.07135 1.67121 0
M  V30 3996 H 371.909 0.723102 0.142451 0
M  V30 3997 H 374.551 1.87082 -0.331725 0
M  V30 3998 H 372.701 3.60857 1.43925 0
M  V30 3999 H 374.373 4.50031 -1.01341 0
M  V30 4000 H 372.616 4.21624 -1.02058 0
M  V30 4001 H 373.287 5.51988 -0.0358328 0
M  V30 4002 H 375.763 3.99952 1.14795 0
M  V30 4003 H 374.639 5.13615 1.93625 0
M  V30 4004 H 374.9 3.54736 2.63846 0
M  V30 4005 N 373.959 -0.0401083 1.57549 0
M  V30 4006 C 375.207 -0.731677 1.8839 0
M  V30 4007 C 375.528 -1.76481 0.829425 0
M  V30 4008 O 374.798 -1.95411 -0.1383 0
M  V30 4009 H 373.378 -0.273225 0.695239 0
M  V30 4010 H 376.04 -0.00867725 1.94898 0
M  V30 4011 H 375.136 -1.22816 2.86919 0
M  V30 4012 N 375.437 -1.54477 -0.31217 0
M  V30 4013 C 376.684 -1.73227 -1.04875 0
M  V30 4014 C 377.012 -0.512042 -1.87639 0
M  V30 4015 O 376.267 0.506131 -1.89042 0
M  V30 4016 C 376.566 -2.967 -1.99258 0
M  V30 4017 C 376.232 -4.30974 -1.32559 0
M  V30 4018 C 374.894 -4.67477 -1.141 0
M  V30 4019 C 377.246 -5.14258 -0.847835 0
M  V30 4020 C 374.574 -5.84852 -0.465326 0
M  V30 4021 C 376.926 -6.32327 -0.185931 0
M  V30 4022 C 375.59 -6.67499 0.0107077 0
M  V30 4023 H 374.86 -0.633881 -0.383765 0
M  V30 4024 H 377.507 -1.88727 -0.324731 0
M  V30 4025 H 375.812 -2.75935 -2.7815 0
M  V30 4026 H 377.509 -3.08401 -2.563 0
M  V30 4027 H 374.099 -4.02262 -1.4793 0
M  V30 4028 H 378.283 -4.86565 -0.978192 0
M  V30 4029 H 373.539 -6.10654 -0.301883 0
M  V30 4030 H 377.713 -6.96135 0.192211 0
M  V30 4031 H 375.34 -7.58306 0.536287 0
M  V30 4032 N 376.915 0.57481 -1.46744 0
M  V30 4033 C 378.192 1.3352 -1.4294 0
M  V30 4034 C 378.572 2.10775 -0.117009 0
M  V30 4035 O 377.92 2.09966 0.901474 0
M  V30 4036 C 378.13 2.25456 -2.66403 0
M  V30 4037 C 379.478 2.87035 -3.12883 0
M  V30 4038 O 380.502 2.35766 -2.67007 0
M  V30 4039 O 379.361 3.80179 -3.92589 0
M  V30 4040 H 376.455 0.600318 -0.568812 0
M  V30 4041 H 379.001 0.595171 -1.58921 0
M  V30 4042 H 377.773 1.67851 -3.53471 0
M  V30 4043 H 377.396 3.06785 -2.52921 0
M  V30 4044 N 378.394 1.34581 0.820102 0
M  V30 4045 C 379.341 1.2639 1.93117 0
M  V30 4046 C 380.311 0.138554 1.65521 0
M  V30 4047 O 381.496 0.320004 1.88097 0
M  V30 4048 C 378.636 1.02812 3.29429 0
M  V30 4049 C 377.749 2.24146 3.693 0
M  V30 4050 C 376.884 1.93829 4.94574 0
M  V30 4051 C 375.923 3.1129 5.27034 0
M  V30 4052 N 375.06 2.80838 6.43486 0
M  V30 4053 H 379.9 2.21408 1.99455 0
M  V30 4054 H 377.437 1.10077 0.975784 0
M  V30 4055 H 379.395 0.871788 4.0799 0
M  V30 4056 H 378.025 0.114612 3.22596 0
M  V30 4057 H 377.077 2.50691 2.86109 0
M  V30 4058 H 378.389 3.11899 3.89257 0
M  V30 4059 H 377.543 1.74948 5.80929 0
M  V30 4060 H 376.282 1.03341 4.76626 0
M  V30 4061 H 375.287 3.30764 4.39175 0
M  V30 4062 H 376.512 4.02561 5.4692 0
M  V30 4063 H 374.458 1.92929 6.26988 0
M  V30 4064 H 374.375 3.62123 6.63629 0
M  V30 4065 H 375.643 2.65467 7.32903 0
M  V30 4066 N 379.872 -1.04064 1.18357 0
M  V30 4067 C 381.12 -1.76915 0.977013 0
M  V30 4068 C 381.441 -1.88624 -0.494577 0
M  V30 4069 O 380.711 -1.41125 -1.3587 0
M  V30 4070 H 379.291 -0.65535 0.358504 0
M  V30 4071 H 381.953 -1.25592 1.49039 0
M  V30 4072 H 381.049 -2.78178 1.41504 0
M  V30 4073 N 381.35 -0.985608 -1.22978 0
M  V30 4074 C 382.28 -0.549649 -2.26939 0
M  V30 4075 C 383.261 0.419803 -1.64838 0
M  V30 4076 O 384.446 0.31203 -1.91677 0
M  V30 4077 C 381.576 0.143652 -3.47003 0
M  V30 4078 C 380.53 -0.743606 -4.21491 0
M  V30 4079 C 379.856 0.0822027 -5.34637 0
M  V30 4080 C 381.156 -2.03694 -4.80943 0
M  V30 4081 H 382.85 -1.41862 -2.63658 0
M  V30 4082 H 380.396 -0.683571 -1.26741 0
M  V30 4083 H 382.349 0.459985 -4.18882 0
M  V30 4084 H 381.073 1.04711 -3.09359 0
M  V30 4085 H 379.732 -1.04347 -3.51436 0
M  V30 4086 H 379.38 0.986359 -4.93234 0
M  V30 4087 H 379.08 -0.508377 -5.85397 0
M  V30 4088 H 380.604 0.392797 -6.09335 0
M  V30 4089 H 382.018 -1.78504 -5.44802 0
M  V30 4090 H 380.415 -2.57573 -5.42011 0
M  V30 4091 H 381.485 -2.72042 -4.01399 0
M  V30 4092 N 382.828 1.3818 -0.7579 0
M  V30 4093 C 384.105 1.94106 -0.241306 0
M  V30 4094 C 384.485 1.69282 1.26122 0
M  V30 4095 O 383.833 1.03378 2.03777 0
M  V30 4096 C 384.043 3.43809 -0.59967 0
M  V30 4097 C 385.391 4.20868 -0.561717 0
M  V30 4098 O 386.415 3.5211 -0.538222 0
M  V30 4099 O 385.274 5.43451 -0.576478 0
M  V30 4100 H 382.368 0.825376 -0.0518042 0
M  V30 4101 H 384.914 1.47548 -0.838315 0
M  V30 4102 H 383.686 3.55403 -1.6372 0
M  V30 4103 H 383.309 3.97592 0.0251197 0
M  V30 4104 N 384.306 0.507319 1.49211 0
M  V30 4105 C 385.722 0.163682 1.58758 0
M  V30 4106 C 385.922 -1.33208 1.51188 0
M  V30 4107 O 384.978 -2.10855 1.38911 0
M  V30 4108 C 386.291 0.746095 2.91297 0
M  V30 4109 C 387.839 0.712773 3.04776 0
M  V30 4110 C 388.314 1.27336 4.39943 0
M  V30 4111 N 389.805 1.23433 4.46451 0
M  V30 4112 C 390.54 1.63821 5.495 0
M  V30 4113 N 390.036 2.11832 6.5962 0
M  V30 4114 N 391.829 1.55198 5.4025 0
M  V30 4115 H 383.98 1.47972 1.52375 0
M  V30 4116 H 386.243 0.614147 0.722168 0
M  V30 4117 H 385.949 1.79534 3.02424 0
M  V30 4118 H 385.823 0.210137 3.76614 0
M  V30 4119 H 388.21 -0.327656 2.93275 0
M  V30 4120 H 388.291 1.28595 2.21127 0
M  V30 4121 H 387.935 2.3126 4.52196 0
M  V30 4122 H 387.865 0.676066 5.22242 0
M  V30 4123 H 390.356 0.882627 3.67448 0
M  V30 4124 H 390.669 2.40703 7.34358 0
M  V30 4125 H 389.014 2.1581 6.60644 0
M  V30 4126 H 392.205 1.17505 4.53112 0
M  V30 4127 H 392.378 1.86997 6.20432 0
M  V30 4128 N 385.784 -1.5574 0.241426 0
M  V30 4129 C 387.033 -1.97986 -0.385295 0
M  V30 4130 C 387.346 -1.13267 -1.59468 0
M  V30 4131 O 388.552 -1.45501 -2.2922 0
M  V30 4132 C 387.008 -3.52275 -0.736884 0
M  V30 4133 C 386.616 -4.45726 0.450796 0
M  V30 4134 C 388.36 -4.03189 -1.3281 0
M  V30 4135 C 386.267 -5.91352 0.0756662 0
M  V30 4136 H 385.197 -0.739386 -0.147731 0
M  V30 4137 H 387.848 -1.80308 0.340779 0
M  V30 4138 H 386.23 -3.65628 -1.52094 0
M  V30 4139 H 387.404 -4.44131 1.22819 0
M  V30 4140 H 385.719 -4.05264 0.956573 0
M  V30 4141 H 388.316 -5.09505 -1.62201 0
M  V30 4142 H 388.659 -3.50212 -2.25071 0
M  V30 4143 H 389.192 -3.93141 -0.607069 0
M  V30 4144 H 385.931 -6.48354 0.965272 0
M  V30 4145 H 385.451 -5.96095 -0.665635 0
M  V30 4146 H 387.13 -6.46084 -0.344075 0
M  V30 4147 N 387.262 0.0317525 -1.57568 0
M  V30 4148 C 388.509 0.723104 -1.89149 0
M  V30 4149 C 388.837 1.75504 -0.838377 0
M  V30 4150 O 388.092 1.95037 0.160982 0
M  V30 4151 C 388.391 1.43167 -3.27472 0
M  V30 4152 C 388.057 0.535972 -4.47703 0
M  V30 4153 C 386.719 0.289262 -4.8033 0
M  V30 4154 C 389.071 -0.0826125 -5.21135 0
M  V30 4155 C 386.399 -0.584853 -5.83778 0
M  V30 4156 C 388.751 -0.944414 -6.25511 0
M  V30 4157 C 387.415 -1.20061 -6.56614 0
M  V30 4158 H 386.685 0.264602 -0.692146 0
M  V30 4159 H 389.332 -0.0169496 -1.91492 0
M  V30 4160 H 387.637 2.24497 -3.21105 0
M  V30 4161 H 389.334 1.97209 -3.49155 0
M  V30 4162 H 385.924 0.738414 -4.22191 0
M  V30 4163 H 390.108 0.0950302 -4.96209 0
M  V30 4164 H 385.364 -0.79168 -6.06253 0
M  V30 4165 H 389.538 -1.43026 -6.81554 0
M  V30 4166 H 387.165 -1.87967 -7.36595 0
M  V30 4167 N 388.74 1.54641 0.303973 0
M  V30 4168 C 389.67 1.88386 1.3796 0
M  V30 4169 C 390.651 0.742485 1.5304 0
M  V30 4170 O 391.836 0.997959 1.66597 0
M  V30 4171 C 388.966 2.12854 2.74427 0
M  V30 4172 C 387.92 3.28702 2.74115 0
M  V30 4173 C 387.246 3.38582 4.13844 0
M  V30 4174 C 388.546 4.65881 2.3612 0
M  V30 4175 H 390.24 2.78474 1.09966 0
M  V30 4176 H 387.786 1.33988 0.527556 0
M  V30 4177 H 389.739 2.35047 3.49758 0
M  V30 4178 H 388.463 1.19535 3.03939 0
M  V30 4179 H 387.122 3.06428 2.0124 0
M  V30 4180 H 386.77 2.42784 4.40528 0
M  V30 4181 H 386.47 4.16453 4.14537 0
M  V30 4182 H 387.994 3.63031 4.90959 0
M  V30 4183 H 389.408 4.87823 3.01167 0
M  V30 4184 H 387.805 5.46444 2.48031 0
M  V30 4185 H 388.875 4.66799 1.3125 0
M  V30 4186 N 390.218 -0.567019 1.47046 0
M  V30 4187 C 391.464 -1.32658 1.53394 0
M  V30 4188 C 391.797 -1.93254 0.19148 0
M  V30 4189 O 391.072 -1.77338 -0.798844 0
M  V30 4190 C 391.355 -2.44412 2.64452 0
M  V30 4191 C 391.208 -1.88749 4.08282 0
M  V30 4192 C 392.527 -3.46387 2.71485 0
M  V30 4193 H 389.646 -0.48098 0.558415 0
M  V30 4194 H 392.288 -0.635481 1.79058 0
M  V30 4195 H 390.438 -3.03363 2.427 0
M  V30 4196 H 392.11 -1.34134 4.41368 0
M  V30 4197 H 390.353 -1.19481 4.17021 0
M  V30 4198 H 391.024 -2.69491 4.81745 0
M  V30 4199 H 393.5 -2.9734 2.91081 0
M  V30 4200 H 392.376 -4.2202 3.50985 0
M  V30 4201 H 392.637 -4.04616 1.78153 0
M  V30 4202 N 391.696 -1.35014 -0.812953 0
M  V30 4203 C 392.921 -1.31187 -1.60639 0
M  V30 4204 C 393.346 0.109382 -1.87782 0
M  V30 4205 O 392.704 1.07424 -1.46047 0
M  V30 4206 C 392.752 -2.11809 -2.91838 0
M  V30 4207 O 391.856 -1.49444 -3.8437 0
M  V30 4208 H 391.197 -0.450084 -0.488181 0
M  V30 4209 H 393.727 -1.77963 -1.00947 0
M  V30 4210 H 393.737 -2.23531 -3.41318 0
M  V30 4211 H 392.412 -3.15137 -2.71407 0
M  V30 4212 H 390.989 -1.46524 -3.42907 0
M  V30 4213 N 393.175 1.03435 -1.18907 0
M  V30 4214 C 394.586 1.58195 -0.991523 0
M  V30 4215 C 394.937 1.90801 0.457081 0
M  V30 4216 O 394.062 1.70272 1.33553 0
M  V30 4217 C 394.657 2.87432 -1.79355 0
M  V30 4218 C 393.216 3.38785 -1.64017 0
M  V30 4219 C 392.363 2.12292 -1.78402 0
M  V30 4220 H 395.314 0.860299 -1.33359 0
M  V30 4221 H 395.335 3.58096 -1.28638 0
M  V30 4222 H 394.847 2.63669 -2.84781 0
M  V30 4223 H 392.948 3.67547 -0.611536 0
M  V30 4224 H 393.061 4.12186 -2.44212 0
M  V30 4225 H 391.425 2.23901 -1.2141 0
M  V30 4226 H 392.208 1.90977 -2.85277 0
M  V30 4227 N 394.653 0.992116 1.22453 0
M  V30 4228 C 395.902 0.662992 1.90492 0
M  V30 4229 C 396.215 -0.808407 1.78113 0
M  V30 4230 O 397.421 -1.24908 2.41061 0
M  V30 4231 C 395.877 1.1353 3.41524 0
M  V30 4232 C 395.485 2.63187 3.62542 0
M  V30 4233 C 397.229 0.880465 4.15269 0
M  V30 4234 C 395.136 3.04024 5.0727 0
M  V30 4235 H 394.066 0.244278 0.713333 0
M  V30 4236 H 396.717 1.20157 1.38688 0
M  V30 4237 H 395.099 0.52485 3.92506 0
M  V30 4238 H 396.273 3.2957 3.22056 0
M  V30 4239 H 394.588 2.86543 3.02129 0
M  V30 4240 H 397.185 1.16128 5.21937 0
M  V30 4241 H 397.528 -0.183408 4.15896 0
M  V30 4242 H 398.061 1.45307 3.70312 0
M  V30 4243 H 394.8 4.09584 5.11782 0
M  V30 4244 H 394.32 2.42343 5.48662 0
M  V30 4245 H 395.999 2.95282 5.75689 0
M  V30 4246 N 396.131 -1.37776 0.765217 0
M  V30 4247 C 397.359 -2.04124 0.337767 0
M  V30 4248 C 397.774 -1.57715 -1.03785 0
M  V30 4249 O 397.131 -0.755447 -1.6613 0
M  V30 4250 C 397.182 -3.59658 0.364442 0
M  V30 4251 O 396.903 -4.04367 1.68579 0
M  V30 4252 C 398.404 -4.43236 -0.0754221 0
M  V30 4253 H 395.624 -0.655696 0.142491 0
M  V30 4254 H 398.168 -1.76238 1.03732 0
M  V30 4255 H 396.323 -3.86339 -0.286471 0
M  V30 4256 H 396.737 -4.98857 1.61993 0
M  V30 4257 H 398.211 -5.52 -0.00560067 0
M  V30 4258 H 398.688 -4.2455 -1.12491 0
M  V30 4259 H 399.294 -4.21767 0.547055 0
M  V30 4260 N 397.609 -0.515225 -1.4894 0
M  V30 4261 C 398.858 0.0261361 -2.01683 0
M  V30 4262 C 399.171 1.36719 -1.39883 0
M  V30 4263 O 400.377 1.99606 -1.84037 0
M  V30 4264 C 398.833 0.0970111 -3.59769 0
M  V30 4265 C 398.441 -1.23825 -4.30548 0
M  V30 4266 C 400.185 0.587981 -4.20408 0
M  V30 4267 C 398.092 -1.12877 -5.80528 0
M  V30 4268 H 397.022 0.0135398 -0.753878 0
M  V30 4269 H 399.673 -0.656787 -1.71343 0
M  V30 4270 H 398.055 0.844694 -3.86886 0
M  V30 4271 H 399.229 -2.00034 -4.15118 0
M  V30 4272 H 397.544 -1.66379 -3.81716 0
M  V30 4273 H 400.141 0.68763 -5.3026 0
M  V30 4274 H 400.484 1.59026 -3.84729 0
M  V30 4275 H 401.017 -0.103582 -3.97665 0
M  V30 4276 H 397.756 -2.10575 -6.20756 0
M  V30 4277 H 397.276 -0.407799 -5.98412 0
M  V30 4278 H 398.955 -0.813332 -6.41868 0
M  V30 4279 N 399.087 1.5561 -0.249682 0
M  V30 4280 C 400.017 2.24477 0.642826 0
M  V30 4281 C 400.998 1.22601 1.17911 0
M  V30 4282 O 402.183 1.5126 1.21795 0
M  V30 4283 C 399.313 2.94638 1.83863 0
M  V30 4284 C 398.267 4.03227 1.435 0
M  V30 4285 C 397.593 4.60828 2.71186 0
M  V30 4286 C 398.893 5.18796 0.604002 0
M  V30 4287 H 400.587 2.99321 0.0685625 0
M  V30 4288 H 398.133 1.43965 0.0315363 0
M  V30 4289 H 400.086 3.41517 2.46868 0
M  V30 4290 H 398.81 2.17287 2.43832 0
M  V30 4291 H 397.469 3.57121 0.828275 0
M  V30 4292 H 397.117 3.80174 3.29358 0
M  V30 4293 H 396.817 5.34132 2.44901 0
M  V30 4294 H 398.341 5.10442 3.35084 0
M  V30 4295 H 399.755 5.61883 1.13842 0
M  V30 4296 H 398.152 5.98506 0.437097 0
M  V30 4297 H 399.222 4.83384 -0.383147 0
M  V30 4298 N 400.565 -0.0233959 1.57583 0
M  V30 4299 C 401.515 -1.03023 2.03397 0
M  V30 4300 C 402.499 -1.31701 0.924315 0
M  V30 4301 O 403.691 -1.31191 1.18819 0
M  V30 4302 C 400.82 -2.32961 2.52159 0
M  V30 4303 C 399.906 -2.07349 3.69956 0
M  V30 4304 N 400.297 -1.51814 4.82479 0
M  V30 4305 C 398.595 -2.37606 3.77438 0
M  V30 4306 C 399.296 -1.42136 5.64068 0
M  V30 4307 N 398.272 -1.89891 5.09355 0
M  V30 4308 H 402.074 -0.594962 2.87815 0
M  V30 4309 H 399.588 -0.229586 1.60769 0
M  V30 4310 H 401.585 -3.05906 2.83244 0
M  V30 4311 H 400.245 -2.77162 1.69149 0
M  V30 4312 H 401.256 -1.20008 5.03804 0
M  V30 4313 H 397.933 -2.84842 3.05239 0
M  V30 4314 H 399.323 -0.996405 6.64471 0
M  V30 4315 N 402.043 -1.548 -0.295768 0
M  V30 4316 C 402.953 -1.89177 -1.38742 0
M  V30 4317 C 403.969 -0.786481 -1.55211 0
M  V30 4318 O 405.145 -1.08344 -1.69775 0
M  V30 4319 C 402.21 -2.13663 -2.73036 0
M  V30 4320 C 401.271 -3.37349 -2.65508 0
M  V30 4321 C 400.504 -3.60658 -3.93398 0
M  V30 4322 O 400.727 -2.86882 -4.93006 0
M  V30 4323 O 399.661 -4.54179 -3.94975 0
M  V30 4324 H 403.487 -2.82059 -1.12589 0
M  V30 4325 H 401.072 -1.41056 -0.492295 0
M  V30 4326 H 402.954 -2.3094 -3.52484 0
M  V30 4327 H 401.629 -1.23967 -2.99022 0
M  V30 4328 H 400.536 -3.25431 -1.84514 0
M  V30 4329 H 401.869 -4.27192 -2.44474 0
M  V30 4330 N 403.521 0.559213 -1.47345 0
M  V30 4331 C 404.77 1.31281 -1.53128 0
M  V30 4332 C 405.083 1.94602 -0.197344 0
M  V30 4333 O 406.289 2.71173 -0.133154 0
M  V30 4334 C 404.745 2.38051 -2.69925 0
M  V30 4335 C 404.353 1.8093 -4.0984 0
M  V30 4336 C 406.097 3.14604 -2.84999 0
M  V30 4337 C 404.004 2.85468 -5.1794 0
M  V30 4338 H 402.934 0.493614 -0.569966 0
M  V30 4339 H 405.585 0.594155 -1.73615 0
M  V30 4340 H 403.967 3.12822 -2.42814 0
M  V30 4341 H 405.141 1.12544 -4.46845 0
M  V30 4342 H 403.456 1.16967 -3.99634 0
M  V30 4343 H 406.053 3.92666 -3.62929 0
M  V30 4344 H 406.396 3.68665 -1.93369 0
M  V30 4345 H 406.929 2.46945 -3.1187 0
M  V30 4346 H 403.668 2.36264 -6.1144 0
M  V30 4347 H 403.188 3.52269 -4.85455 0
M  V30 4348 H 404.867 3.48996 -5.44803 0
M  V30 4349 N 404.999 1.35443 0.805782 0
M  V30 4350 C 406.276 1.19325 1.54987 0
M  V30 4351 C 406.656 -0.227294 2.09873 0
M  V30 4352 O 406.004 -1.2309 1.92512 0
M  V30 4353 C 406.214 2.26196 2.65775 0
M  V30 4354 C 407.562 2.62043 3.34094 0
M  V30 4355 O 408.586 2.25115 2.76046 0
M  V30 4356 O 407.445 3.25542 4.38958 0
M  V30 4357 H 404.539 0.463623 0.684823 0
M  V30 4358 H 407.085 1.47127 0.845674 0
M  V30 4359 H 405.857 3.21471 2.23096 0
M  V30 4360 H 405.48 1.99667 3.43829 0
M  V30 4361 N 406.477 -1.02803 1.19454 0
M  V30 4362 C 407.387 -2.14575 0.948408 0
M  V30 4363 C 408.403 -1.73757 -0.091871 0
M  V30 4364 O 409.579 -2.01185 0.0929654 0
M  V30 4365 C 406.644 -3.43202 0.491265 0
M  V30 4366 C 405.705 -3.98328 1.60103 0
M  V30 4367 C 404.938 -5.20816 1.16561 0
M  V30 4368 O 405.161 -5.70392 0.0295238 0
M  V30 4369 O 404.095 -5.68801 1.96849 0
M  V30 4370 H 407.921 -2.38202 1.88397 0
M  V30 4371 H 405.506 -1.12989 0.977433 0
M  V30 4372 H 407.388 -4.20687 0.245015 0
M  V30 4373 H 406.063 -3.21018 -0.415851 0
M  V30 4374 H 404.97 -3.22174 1.90144 0
M  V30 4375 H 406.303 -4.24879 2.48473 0
M  V30 4376 N 407.956 -0.998596 -1.21925 0
M  V30 4377 C 408.919 -0.558679 -2.22287 0
M  V30 4378 C 409.919 0.361525 -1.56683 0
M  V30 4379 O 411.109 0.152695 -1.73529 0
M  V30 4380 C 408.241 0.18661 -3.40389 0
M  V30 4381 H 409.434 -1.4463 -2.62721 0
M  V30 4382 H 406.987 -0.786413 -1.35075 0
M  V30 4383 H 407.722 1.08996 -3.05435 0
M  V30 4384 H 407.507 -0.474188 -3.89222 0
M  V30 4385 H 408.997 0.482367 -4.14805 0
M  V30 4386 N 409.434 1.37368 -0.772513 0
M  V30 4387 C 410.659 2.0447 -0.347386 0
M  V30 4388 C 411.084 1.57882 1.0225 0
M  V30 4389 O 410.442 0.73941 1.65537 0
M  V30 4390 C 410.49 3.58369 -0.400479 0
M  V30 4391 O 409.594 4.0803 0.598789 0
M  V30 4392 H 408.935 0.646773 -0.15027 0
M  V30 4393 H 411.465 1.75667 -1.04892 0
M  V30 4394 H 411.475 4.07183 -0.258045 0
M  V30 4395 H 410.15 3.91633 -1.39986 0
M  V30 4396 H 408.727 3.70534 0.419411 0
M  V30 4397 N 410.912 0.523116 1.48665 0
M  V30 4398 C 412.323 0.0808997 1.86525 0
M  V30 4399 C 412.674 -1.33975 1.43336 0
M  V30 4400 O 411.799 -2.00221 0.821009 0
M  V30 4401 C 412.394 0.140037 3.3851 0
M  V30 4402 C 410.953 -0.246948 3.75589 0
M  V30 4403 C 410.1 0.502845 2.72703 0
M  V30 4404 H 413.051 0.734736 1.40667 0
M  V30 4405 H 413.072 -0.649945 3.74908 0
M  V30 4406 H 412.584 1.17412 3.69914 0
M  V30 4407 H 410.685 -1.28343 3.49798 0
M  V30 4408 H 410.798 0.0878859 4.79019 0
M  V30 4409 H 409.162 -0.0500581 2.54651 0
M  V30 4410 H 409.945 1.53743 3.0695 0
M  V30 4411 N 412.39 -1.55475 0.257931 0
M  V30 4412 C 413.32 -2.24815 -0.630912 0
M  V30 4413 C 414.301 -1.23224 -1.17259 0
M  V30 4414 O 415.486 -1.51904 -1.20991 0
M  V30 4415 C 412.616 -2.95609 -1.82298 0
M  V30 4416 C 411.57 -4.03982 -1.41359 0
M  V30 4417 C 410.896 -4.6226 -2.68738 0
M  V30 4418 C 412.196 -5.19109 -0.57648 0
M  V30 4419 H 413.89 -2.99354 -0.0526878 0
M  V30 4420 H 411.436 -1.4398 -0.023901 0
M  V30 4421 H 413.389 -3.42822 -2.45054 0
M  V30 4422 H 412.113 -2.18577 -2.42676 0
M  V30 4423 H 410.772 -3.57555 -0.809324 0
M  V30 4424 H 410.42 -3.81915 -3.27338 0
M  V30 4425 H 410.12 -5.35424 -2.42065 0
M  V30 4426 H 411.644 -5.12212 -3.32372 0
M  V30 4427 H 413.058 -5.62479 -1.10861 0
M  V30 4428 H 411.455 -5.98729 -0.405351 0
M  V30 4429 H 412.525 -4.83174 0.408776 0
M  V30 4430 N 413.868 0.0150385 -1.57593 0
M  V30 4431 C 415.115 0.703001 -1.89906 0
M  V30 4432 C 415.443 1.74604 -0.856944 0
M  V30 4433 O 414.698 1.95197 0.140287 0
M  V30 4434 C 414.997 1.39686 -3.28972 0
M  V30 4435 C 414.663 0.488457 -4.48246 0
M  V30 4436 C 413.325 0.2383 -4.8061 0
M  V30 4437 C 415.677 -0.137881 -5.21018 0
M  V30 4438 C 413.005 -0.646738 -5.83125 0
M  V30 4439 C 415.357 -1.0107 -6.24474 0
M  V30 4440 C 414.021 -1.27019 -6.55303 0
M  V30 4441 H 413.291 0.257246 -0.694914 0
M  V30 4442 H 415.938 -0.037259 -1.91464 0
M  V30 4443 H 414.243 2.21079 -3.23468 0
M  V30 4444 H 415.94 1.93495 -3.51227 0
M  V30 4445 H 412.53 0.693593 -4.22951 0
M  V30 4446 H 416.714 0.0423953 -4.96282 0
M  V30 4447 H 411.97 -0.855937 -6.05379 0
M  V30 4448 H 416.144 -1.50247 -6.79999 0
M  V30 4449 H 413.771 -1.95769 -7.3456 0
M  V30 4450 N 415.346 1.54954 0.287554 0
M  V30 4451 C 416.594 1.74528 1.01904 0
M  V30 4452 C 416.915 0.541349 1.87335 0
M  V30 4453 O 416.185 -0.444108 1.908 0
M  V30 4454 H 414.765 0.643576 0.379235 0
M  V30 4455 H 417.427 1.92333 0.315294 0
M  V30 4456 H 416.523 2.64015 1.6644 0
M  V30 4457 N 416.824 -0.551391 1.4764 0
M  V30 4458 C 418.073 -1.30467 1.53822 0
M  V30 4459 C 418.386 -1.94495 0.207661 0
M  V30 4460 O 419.592 -2.71099 0.147533 0
M  V30 4461 C 418.048 -2.36616 2.71184 0
M  V30 4462 C 417.656 -1.78754 4.10793 0
M  V30 4463 C 419.4 -3.13088 2.86663 0
M  V30 4464 C 417.307 -2.82717 5.19447 0
M  V30 4465 H 416.237 -0.490584 0.572576 0
M  V30 4466 H 418.888 -0.58494 1.73927 0
M  V30 4467 H 417.27 -3.11529 2.4447 0
M  V30 4468 H 418.444 -1.10173 4.47435 0
M  V30 4469 H 416.759 -1.14846 4.00249 0
M  V30 4470 H 419.356 -3.90736 3.65007 0
M  V30 4471 H 419.699 -3.67635 1.95321 0
M  V30 4472 H 420.232 -2.45288 3.13175 0
M  V30 4473 H 416.971 -2.33018 6.12685 0
M  V30 4474 H 416.491 -3.4969 4.87316 0
M  V30 4475 H 418.17 -3.46102 5.46646 0
M  V30 4476 N 418.302 -1.35869 -0.798587 0
M  V30 4477 C 419.527 -1.32883 -1.59238 0
M  V30 4478 C 419.952 0.0894587 -1.87887 0
M  V30 4479 O 419.31 1.05869 -1.47178 0
M  V30 4480 C 419.358 -2.14892 -2.89575 0
M  V30 4481 O 418.462 -1.53512 -3.82763 0
M  V30 4482 H 417.803 -0.455236 -0.48338 0
M  V30 4483 H 420.333 -1.79024 -0.990539 0
M  V30 4484 H 420.343 -2.27139 -3.38928 0
M  V30 4485 H 419.018 -3.17998 -2.68049 0
M  V30 4486 H 417.595 -1.50153 -3.41334 0
M  V30 4487 N 419.78 1.02168 -1.19998 0
M  V30 4488 C 421.196 1.27969 -0.953737 0
M  V30 4489 C 421.396 1.98079 0.369703 0
M  V30 4490 O 420.452 2.27306 1.09947 0
M  V30 4491 C 421.765 2.11971 -2.13281 0
M  V30 4492 C 423.313 2.25255 -2.17323 0
M  V30 4493 C 423.788 3.12632 -3.34702 0
M  V30 4494 N 425.279 3.2022 -3.34684 0
M  V30 4495 C 426.014 3.88039 -4.22153 0
M  V30 4496 N 425.51 4.58027 -5.19791 0
M  V30 4497 N 427.303 3.84511 -4.10009 0
M  V30 4498 H 419.454 0.550794 -2.05134 0
M  V30 4499 H 421.717 0.305683 -0.897364 0
M  V30 4500 H 421.423 1.67785 -3.09097 0
M  V30 4501 H 421.297 3.12699 -2.10949 0
M  V30 4502 H 423.684 2.68667 -1.22073 0
M  V30 4503 H 423.765 1.24053 -2.23706 0
M  V30 4504 H 423.409 2.69926 -4.30235 0
M  V30 4505 H 423.339 4.13909 -3.25556 0
M  V30 4506 H 425.83 2.70382 -2.64012 0
M  V30 4507 H 426.143 5.07429 -5.82868 0
M  V30 4508 H 424.488 4.56869 -5.23733 0
M  V30 4509 H 427.679 3.28978 -3.33003 0
M  V30 4510 H 427.852 4.3709 -4.78389 0
M  V30 4511 N 421.258 1.00505 1.21394 0
M  V30 4512 C 422.19 0.52372 2.23136 0
M  V30 4513 C 423.203 -0.387714 1.58116 0
M  V30 4514 O 424.392 -0.187905 1.77508 0
M  V30 4515 C 421.492 -0.258885 3.3791 0
M  V30 4516 C 420.665 0.651634 4.32519 0
M  V30 4517 C 419.724 -0.0813705 5.26137 0
M  V30 4518 O 418.75 0.537295 5.66658 0
M  V30 4519 N 419.952 -1.35992 5.64346 0
M  V30 4520 H 422.717 1.39865 2.65062 0
M  V30 4521 H 420.278 0.881196 1.35818 0
M  V30 4522 H 422.27 -0.758208 3.97534 0
M  V30 4523 H 420.84 -1.035 2.94968 0
M  V30 4524 H 420.06 1.33145 3.71034 0
M  V30 4525 H 421.348 1.27129 4.92662 0
M  V30 4526 H 420.746 -1.88368 5.33417 0
M  V30 4527 H 419.303 -1.8042 6.26332 0
M  V30 4528 N 422.737 -1.36956 0.779787 0
M  V30 4529 C 424.014 -1.93697 0.272156 0
M  V30 4530 C 424.394 -1.71267 -1.23413 0
M  V30 4531 O 423.742 -1.06607 -2.02107 0
M  V30 4532 C 423.952 -3.42812 0.654291 0
M  V30 4533 C 425.3 -4.19921 0.628602 0
M  V30 4534 O 426.324 -3.51209 0.594172 0
M  V30 4535 O 425.183 -5.42465 0.662864 0
M  V30 4536 H 422.277 -0.824447 0.0649286 0
M  V30 4537 H 424.823 -1.46196 0.861682 0
M  V30 4538 H 423.595 -3.52754 1.69353 0
M  V30 4539 H 423.218 -3.97582 0.0381369 0
M  V30 4540 N 424.215 -0.530993 -1.48385 0
M  V30 4541 C 425.145 0.219985 -2.32461 0
M  V30 4542 C 426.126 0.934111 -1.42156 0
M  V30 4543 O 427.311 0.919694 -1.71042 0
M  V30 4544 C 424.441 1.26674 -3.23375 0
M  V30 4545 C 423.395 0.67069 -4.22712 0
M  V30 4546 C 422.721 1.82017 -5.02766 0
M  V30 4547 C 424.021 -0.358268 -5.2107 0
M  V30 4548 H 425.715 -0.48187 -2.95497 0
M  V30 4549 H 423.261 -0.233182 -1.42099 0
M  V30 4550 H 425.214 1.80006 -3.81019 0
M  V30 4551 H 423.938 1.99818 -2.58341 0
M  V30 4552 H 422.597 0.158878 -3.66256 0
M  V30 4553 H 422.245 2.54002 -4.34157 0
M  V30 4554 H 421.945 1.42727 -5.70003 0
M  V30 4555 H 423.469 2.35725 -5.63264 0
M  V30 4556 H 424.883 0.0880081 -5.73232 0
M  V30 4557 H 423.28 -0.66861 -5.96364 0
M  V30 4558 H 424.35 -1.26367 -4.68145 0
M  V30 4559 N 425.693 1.55336 -0.266172 0
M  V30 4560 C 426.603 2.2583 0.635458 0
M  V30 4561 C 427.619 1.28106 1.17749 0
M  V30 4562 O 428.795 1.61024 1.20968 0
M  V30 4563 C 425.86 2.95879 1.80712 0
M  V30 4564 C 424.921 4.09059 1.30265 0
M  V30 4565 C 424.154 4.75759 2.41846 0
M  V30 4566 O 424.377 4.41622 3.61007 0
M  V30 4567 O 423.311 5.63888 2.1051 0
M  V30 4568 H 427.137 3.03631 0.0646693 0
M  V30 4569 H 424.722 1.49361 -0.0339177 0
M  V30 4570 H 426.604 3.39932 2.49047 0
M  V30 4571 H 425.279 2.21002 2.36516 0
M  V30 4572 H 424.186 3.69482 0.586019 0
M  V30 4573 H 425.519 4.85811 0.790458 0
M  V30 4574 N 427.171 -0.0066808 1.57599 0
M  V30 4575 C 428.399 -0.704087 1.94551 0
M  V30 4576 C 428.814 -1.67677 0.867746 0
M  V30 4577 O 428.171 -1.8185 -0.153925 0
M  V30 4578 C 428.222 -1.44177 3.31505 0
M  V30 4579 O 427.943 -0.508097 4.35144 0
M  V30 4580 C 429.444 -2.23429 3.82876 0
M  V30 4581 H 426.664 -0.196523 0.641576 0
M  V30 4582 H 429.208 0.042453 2.04456 0
M  V30 4583 H 427.363 -2.13999 3.22929 0
M  V30 4584 H 427.777 -1.02782 5.14331 0
M  V30 4585 H 429.251 -2.70552 4.8115 0
M  V30 4586 H 429.728 -3.05818 3.15233 0
M  V30 4587 H 430.334 -1.58636 3.94607 0
M  V30 4588 N 428.649 -1.55105 -0.279332 0
M  V30 4589 C 429.926 -1.66119 -1.03267 0
M  V30 4590 C 430.306 -0.523525 -2.04505 0
M  V30 4591 O 429.654 0.477194 -2.23462 0
M  V30 4592 C 429.864 -3.05067 -1.69515 0
M  V30 4593 C 431.212 -3.62606 -2.20912 0
M  V30 4594 O 432.236 -3.07659 -1.79512 0
M  V30 4595 O 431.095 -4.58861 -2.96831 0
M  V30 4596 H 428.189 -0.674429 -0.478618 0
M  V30 4597 H 430.735 -1.67446 -0.275694 0
M  V30 4598 H 429.507 -3.79311 -0.9612 0
M  V30 4599 H 429.13 -3.07611 -2.51915 0
M  V30 4600 N 430.127 0.543554 -1.4793 0
M  V30 4601 C 431.404 1.30458 -1.4574 0
M  V30 4602 C 431.784 2.1048 -0.161692 0
M  V30 4603 O 431.132 2.11831 0.856734 0
M  V30 4604 C 431.342 2.19754 -2.71126 0
M  V30 4605 C 432.69 2.80334 -3.18901 0
M  V30 4606 O 433.714 2.30049 -2.71948 0
M  V30 4607 O 432.573 3.71766 -4.00565 0
M  V30 4608 H 429.667 0.588117 -0.581418 0
M  V30 4609 H 432.213 0.561328 -1.60147 0
M  V30 4610 H 430.985 1.60316 -3.56952 0
M  V30 4611 H 430.608 3.01351 -2.59371 0
M  V30 4612 N 431.605 1.3629 0.791371 0
M  V30 4613 C 432.852 1.30412 1.54916 0
M  V30 4614 C 433.18 -0.117162 1.94147 0
M  V30 4615 O 432.435 -1.08599 1.62803 0
M  V30 4616 C 432.734 2.17068 2.8393 0
M  V30 4617 C 432.4 3.65645 2.63846 0
M  V30 4618 C 431.062 4.0614 2.58077 0
M  V30 4619 C 433.414 4.59855 2.45322 0
M  V30 4620 C 430.742 5.3899 2.31748 0
M  V30 4621 C 433.094 5.9292 2.2052 0
M  V30 4622 C 431.758 6.32542 2.13183 0
M  V30 4623 H 431.028 0.47721 0.566879 0
M  V30 4624 H 433.675 1.68325 0.913172 0
M  V30 4625 H 431.98 1.72085 3.51986 0
M  V30 4626 H 433.677 2.09846 3.4171 0
M  V30 4627 H 430.267 3.33518 2.69191 0
M  V30 4628 H 434.451 4.29443 2.48782 0
M  V30 4629 H 429.707 5.68672 2.24548 0
M  V30 4630 H 433.881 6.65487 2.05182 0
M  V30 4631 H 431.508 7.35412 1.92544 0
M  V30 4632 N 433.083 -1.0153 1.20538 0
M  V30 4633 C 433.993 -2.13557 0.971113 0
M  V30 4634 C 435.009 -1.73845 -0.0734366 0
M  V30 4635 O 436.185 -2.01075 0.114299 0
M  V30 4636 C 433.25 -3.42661 0.527639 0
M  V30 4637 C 432.311 -3.96608 1.64319 0
M  V30 4638 C 431.544 -5.1955 1.22078 0
M  V30 4639 O 431.767 -5.70329 0.0900198 0
M  V30 4640 O 430.701 -5.66681 2.02871 0
M  V30 4641 H 434.527 -2.3619 1.90913 0
M  V30 4642 H 432.112 -1.11946 0.989362 0
M  V30 4643 H 433.994 -4.20404 0.289621 0
M  V30 4644 H 432.669 -3.21441 -0.381779 0
M  V30 4645 H 431.576 -3.20139 1.93551 0
M  V30 4646 H 432.909 -4.22219 2.52966 0
M  V30 4647 N 434.561 -1.01147 -1.20859 0
M  V30 4648 C 435.81 -0.693214 -1.89413 0
M  V30 4649 C 436.123 0.779969 -1.79376 0
M  V30 4650 O 437.329 1.21057 -2.43017 0
M  V30 4651 C 435.785 -1.18949 -3.39675 0
M  V30 4652 C 435.393 -2.68921 -3.58309 0
M  V30 4653 C 437.137 -0.94642 -4.13815 0
M  V30 4654 C 435.044 -3.12056 -5.0237 0
M  V30 4655 H 433.974 -0.255595 -0.709357 0
M  V30 4656 H 436.625 -1.22349 -1.36759 0
M  V30 4657 H 435.007 -0.587228 -3.91622 0
M  V30 4658 H 436.181 -3.34652 -3.16772 0
M  V30 4659 H 434.496 -2.91314 -2.97532 0
M  V30 4660 H 437.093 -1.24417 -5.20023 0
M  V30 4661 H 437.436 0.117219 -4.16135 0
M  V30 4662 H 437.969 -1.5118 -3.67953 0
M  V30 4663 H 434.708 -4.17674 -5.05202 0
M  V30 4664 H 434.228 -2.51041 -5.44737 0
M  V30 4665 H 435.907 -3.04403 -5.70918 0
M  V30 4666 N 436.039 1.36541 -0.78704 0
M  V30 4667 C 437.285 1.99599 -0.358872 0
M  V30 4668 C 437.618 1.62323 1.06606 0
M  V30 4669 O 436.893 0.876858 1.73613 0
M  V30 4670 C 437.176 3.56327 -0.519944 0
M  V30 4671 C 437.029 4.03464 -1.98839 0
M  V30 4672 C 438.348 4.4005 0.0664737 0
M  V30 4673 H 435.467 0.725107 -0.131869 0
M  V30 4674 H 438.109 1.6199 -0.992936 0
M  V30 4675 H 436.259 3.88495 0.0198321 0
M  V30 4676 H 437.931 3.81793 -2.58905 0
M  V30 4677 H 436.174 3.55092 -2.49183 0
M  V30 4678 H 436.845 5.12439 -2.05207 0
M  V30 4679 H 439.321 4.14228 -0.394267 0
M  V30 4680 H 438.197 5.48847 -0.0762682 0
M  V30 4681 H 438.458 4.26655 1.15835 0
M  V30 4682 N 437.518 0.538854 1.48102 0
M  V30 4683 C 438.764 0.00801365 2.02798 0
M  V30 4684 C 439.097 -1.3309 1.41424 0
M  V30 4685 O 438.372 -1.86169 0.563158 0
M  V30 4686 C 438.655 -0.104589 3.59948 0
M  V30 4687 C 438.508 1.26012 4.31788 0
M  V30 4688 C 439.827 -0.827055 4.32259 0
M  V30 4689 H 436.946 0.00438624 0.736987 0
M  V30 4690 H 439.588 0.6976 1.7673 0
M  V30 4691 H 437.738 -0.691893 3.82289 0
M  V30 4692 H 439.41 1.88922 4.2084 0
M  V30 4693 H 437.653 1.83968 3.92859 0
M  V30 4694 H 438.324 1.13424 5.40221 0
M  V30 4695 H 440.8 -0.328578 4.14801 0
M  V30 4696 H 439.676 -0.87476 5.41885 0
M  V30 4697 H 439.937 -1.87927 4.0017 0
M  V30 4698 N 438.996 -1.55193 0.274407 0
M  V30 4699 C 440.245 -1.98758 -0.343213 0
M  V30 4700 C 440.558 -1.16624 -1.5703 0
M  V30 4701 O 441.764 -1.5033 -2.26082 0
M  V30 4702 C 440.22 -3.53759 -0.661996 0
M  V30 4703 C 439.828 -4.4467 0.54524 0
M  V30 4704 C 441.572 -4.05916 -1.24228 0
M  V30 4705 C 439.479 -5.91058 0.201084 0
M  V30 4706 H 438.409 -0.742353 -0.132014 0
M  V30 4707 H 441.06 -1.79545 0.378948 0
M  V30 4708 H 439.442 -3.68772 -1.44304 0
M  V30 4709 H 440.616 -4.41426 1.32212 0
M  V30 4710 H 438.931 -4.03143 1.04232 0
M  V30 4711 H 441.528 -5.12831 -1.51357 0
M  V30 4712 H 441.871 -3.54908 -2.17592 0
M  V30 4713 H 442.404 -3.9434 -0.523542 0
M  V30 4714 H 439.143 -6.46161 1.10258 0
M  V30 4715 H 438.663 -5.97373 -0.539045 0
M  V30 4716 H 440.342 -6.46669 -0.206954 0
M  V30 4717 N 440.474 -0.00167713 -1.576 0
M  V30 4718 C 441.404 0.988091 -2.11563 0
M  V30 4719 C 442.385 1.35736 -1.02517 0
M  V30 4720 O 443.57 1.44082 -1.30208 0
M  V30 4721 C 440.7 2.27941 -2.62031 0
M  V30 4722 C 439.654 2.0517 -3.75619 0
M  V30 4723 C 438.98 3.4033 -4.12407 0
M  V30 4724 C 440.28 1.41294 -5.02825 0
M  V30 4725 H 441.974 0.538771 -2.94513 0
M  V30 4726 H 439.52 0.257712 -1.41675 0
M  V30 4727 H 441.473 2.97539 -2.9841 0
M  V30 4728 H 440.197 2.74989 -1.76205 0
M  V30 4729 H 438.856 1.37998 -3.39635 0
M  V30 4730 H 438.504 3.85085 -3.23603 0
M  V30 4731 H 438.204 3.25909 -4.88935 0
M  V30 4732 H 439.728 4.1124 -4.51347 0
M  V30 4733 H 441.142 2.00851 -5.36965 0
M  V30 4734 H 439.539 1.37356 -5.84169 0
M  V30 4735 H 440.609 0.382362 -4.8339 0
M  V30 4736 N 441.952 1.55251 0.271103 0
M  V30 4737 C 442.862 1.9136 1.35714 0
M  V30 4738 C 443.878 0.811075 1.5394 0
M  V30 4739 O 445.054 1.11031 1.6803 0
M  V30 4740 C 442.119 2.1798 2.69603 0
M  V30 4741 C 441.18 3.4153 2.60107 0
M  V30 4742 C 440.413 3.66871 3.8761 0
M  V30 4743 O 440.636 2.94689 4.8838 0
M  V30 4744 O 439.57 4.60405 3.87699 0
M  V30 4745 H 443.396 2.83815 1.08088 0
M  V30 4746 H 440.981 1.41821 0.469792 0
M  V30 4747 H 442.863 2.36518 3.48765 0
M  V30 4748 H 441.538 1.28708 2.97012 0
M  V30 4749 H 440.445 3.28325 1.79314 0
M  V30 4750 H 441.778 4.31027 2.37647 0
M  V30 4751 N 443.43 -0.535701 1.48216 0
M  V30 4752 C 444.678 -1.28928 1.55634 0
M  V30 4753 C 444.999 -1.93645 0.229514 0
M  V30 4754 O 444.269 -1.81038 -0.74846 0
M  V30 4755 H 442.849 -0.47884 0.573342 0
M  V30 4756 H 445.511 -0.623853 1.84646 0
M  V30 4757 H 444.607 -2.07157 2.33436 0
M  V30 4758 N 444.908 -1.36708 -0.784132 0
M  V30 4759 C 445.841 -1.25827 -1.90375 0
M  V30 4760 C 446.819 -0.141331 -1.61985 0
M  V30 4761 O 448.003 -0.313389 -1.85877 0
M  V30 4762 C 445.13 -0.942621 -3.25319 0
M  V30 4763 C 444.176 -2.07474 -3.72635 0
M  V30 4764 S 445.009 -3.69317 -3.8777 0
M  V30 4765 C 446.165 -3.39876 -5.25581 0
M  V30 4766 H 446.398 -2.20593 -1.99314 0
M  V30 4767 H 443.931 -1.22186 -0.943926 0
M  V30 4768 H 445.889 -0.767321 -4.03265 0
M  V30 4769 H 444.55 -0.0126566 -3.14097 0
M  V30 4770 H 443.743 -1.80858 -4.70432 0
M  V30 4771 H 443.345 -2.20953 -3.01754 0
M  V30 4772 H 445.637 -2.94097 -6.10339 0
M  V30 4773 H 446.58 -4.36956 -5.57203 0
M  V30 4774 H 446.988 -2.75098 -4.92931 0
M  V30 4775 N 446.386 1.0089 -1.21074 0
M  V30 4776 C 447.632 1.74866 -1.02712 0
M  V30 4777 C 447.965 1.89178 0.438787 0
M  V30 4778 O 447.24 1.42325 1.32567 0
M  V30 4779 C 447.523 3.16347 -1.72036 0
M  V30 4780 C 447.376 3.09782 -3.26121 0
M  V30 4781 C 448.695 4.15187 -1.45973 0
M  V30 4782 H 445.814 0.634736 -0.374539 0
M  V30 4783 H 448.456 1.17646 -1.49196 0
M  V30 4784 H 446.606 3.65201 -1.32517 0
M  V30 4785 H 448.278 2.68673 -3.74983 0
M  V30 4786 H 446.521 2.46982 -3.56626 0
M  V30 4787 H 447.192 4.09829 -3.6979 0
M  V30 4788 H 449.668 3.75022 -1.80272 0
M  V30 4789 H 448.544 5.12331 -1.96999 0
M  V30 4790 H 448.805 4.40386 -0.388924 0
M  V30 4791 N 447.864 1.01787 1.20321 0
M  V30 4792 C 448.774 0.598898 2.26827 0
M  V30 4793 C 449.79 -0.36418 1.70146 0
M  V30 4794 O 450.966 -0.224812 2.00141 0
M  V30 4795 C 448.031 -0.0549769 3.46656 0
M  V30 4796 C 447.092 0.954205 4.18561 0
M  V30 4797 C 446.325 0.331439 5.3267 0
M  V30 4798 O 446.548 -0.86851 5.63749 0
M  V30 4799 O 445.482 1.0488 5.92692 0
M  V30 4800 H 449.308 1.48562 2.64883 0
M  V30 4801 H 446.893 0.787434 1.26964 0
M  V30 4802 H 448.775 -0.420102 4.19301 0
M  V30 4803 H 447.45 -0.915876 3.10473 0
M  V30 4804 H 446.357 1.37072 3.48083 0
M  V30 4805 H 447.69 1.78511 4.58688 0
M  V30 4806 N 449.342 -1.36122 0.79427 0
M  V30 4807 C 450.305 -2.28309 0.201889 0
M  V30 4808 C 451.305 -1.49041 -0.603603 0
M  V30 4809 O 452.495 -1.68964 -0.423888 0
M  V30 4810 C 449.627 -3.3321 -0.719978 0
M  V30 4811 H 450.82 -2.82208 1.01481 0
M  V30 4812 H 448.373 -1.45768 0.564037 0
M  V30 4813 H 449.108 -2.84475 -1.55706 0
M  V30 4814 H 448.893 -3.91835 -0.144266 0
M  V30 4815 H 450.383 -4.02044 -1.12916 0
M  V30 4816 N 450.82 -0.546701 -1.47814 0
M  V30 4817 C 452.048 -0.0232857 -2.06887 0
M  V30 4818 C 452.463 1.26571 -1.4009 0
M  V30 4819 O 451.82 1.7569 -0.493906 0
M  V30 4820 C 451.871 0.186975 -3.61016 0
M  V30 4821 O 451.592 -1.05097 -4.25307 0
M  V30 4822 C 453.093 0.748872 -4.36929 0
M  V30 4823 H 450.313 -0.0410763 -0.669742 0
M  V30 4824 H 452.857 -0.757117 -1.89968 0
M  V30 4825 H 451.012 0.870903 -3.77484 0
M  V30 4826 H 451.426 -0.842121 -5.17695 0
M  V30 4827 H 452.9 0.845334 -5.45489 0
M  V30 4828 H 453.377 1.75772 -4.02493 0
M  V30 4829 H 453.983 0.100979 -4.2518 0
M  V30 4830 N 452.299 1.55045 -0.282633 0
M  V30 4831 C 453.262 2.21515 0.588539 0
M  V30 4832 C 454.262 1.19535 1.07554 0
M  V30 4833 O 455.452 1.44391 0.974514 0
M  V30 4834 C 452.584 2.88704 1.8128 0
M  V30 4835 H 453.777 2.99899 0.00806397 0
M  V30 4836 H 451.33 1.56265 -0.0333067 0
M  V30 4837 H 452.065 2.14352 2.43359 0
M  V30 4838 H 451.85 3.63443 1.47144 0
M  V30 4839 H 453.34 3.39465 2.43214 0
M  V30 4840 N 453.777 0.010035 1.57597 0
M  V30 4841 C 454.71 -1.01234 2.04516 0
M  V30 4842 C 455.688 -1.32886 0.937024 0
M  V30 4843 O 456.872 -1.44879 1.20592 0
M  V30 4844 C 453.999 -2.33738 2.45121 0
M  V30 4845 C 453.045 -2.17679 3.66767 0
M  V30 4846 S 453.878 -1.49343 5.14254 0
M  V30 4847 C 455.034 -2.83256 5.58137 0
M  V30 4848 H 455.267 -0.612866 2.90914 0
M  V30 4849 H 452.8 -0.201124 1.53084 0
M  V30 4850 H 454.758 -3.09922 2.69182 0
M  V30 4851 H 453.419 -2.70823 1.59103 0
M  V30 4852 H 452.612 -3.1559 3.92962 0
M  V30 4853 H 452.214 -1.4964 3.42759 0
M  V30 4854 H 454.506 -3.79538 5.6121 0
M  V30 4855 H 455.449 -2.61749 6.57946 0
M  V30 4856 H 455.857 -2.87627 4.85727 0
M  V30 4857 N 455.255 -1.55392 -0.262866 0
M  V30 4858 C 456.483 -1.80513 -1.01108 0
M  V30 4859 C 456.898 -0.583533 -1.79556 0
M  V30 4860 O 456.255 0.447585 -1.76926 0
M  V30 4861 C 456.306 -3.03648 -1.96164 0
M  V30 4862 O 456.027 -4.2109 -1.20893 0
M  V30 4863 C 457.528 -3.41448 -2.82715 0
M  V30 4864 H 454.748 -0.601079 -0.298236 0
M  V30 4865 H 457.292 -2.02425 -0.290582 0
M  V30 4866 H 455.447 -2.83832 -2.63663 0
M  V30 4867 H 455.861 -4.90771 -1.85051 0
M  V30 4868 H 457.335 -4.30751 -3.45192 0
M  V30 4869 H 457.812 -2.61308 -3.53008 0
M  V30 4870 H 458.418 -3.63559 -2.20693 0
M  V30 4871 N 456.733 0.527833 -1.48498 0
M  V30 4872 C 457.961 1.30823 -1.6029 0
M  V30 4873 C 458.376 1.86945 -0.263974 0
M  V30 4874 O 457.733 1.6651 0.747034 0
M  V30 4875 C 457.784 2.45756 -2.65116 0
M  V30 4876 O 457.505 1.91946 -3.93813 0
M  V30 4877 C 459.006 3.37543 -2.87367 0
M  V30 4878 H 456.226 0.397763 -0.540394 0
M  V30 4879 H 458.77 0.636529 -1.94341 0
M  V30 4880 H 456.925 3.08806 -2.33917 0
M  V30 4881 H 457.339 2.67195 -4.51339 0
M  V30 4882 H 458.813 4.14532 -3.6451 0
M  V30 4883 H 459.29 3.92905 -1.9627 0
M  V30 4884 H 459.896 2.80283 -3.19878 0
M  V30 4885 N 458.211 1.37122 0.776871 0
M  V30 4886 C 459.143 1.28342 1.89897 0
M  V30 4887 C 460.156 0.200277 1.61563 0
M  V30 4888 O 461.345 0.456012 1.72577 0
M  V30 4889 C 458.445 0.960427 3.25006 0
M  V30 4890 C 457.618 2.148 3.81025 0
M  V30 4891 C 456.677 1.79608 4.94598 0
M  V30 4892 O 455.703 2.51845 5.10454 0
M  V30 4893 N 456.905 0.737171 5.758 0
M  V30 4894 H 459.67 2.25027 1.97947 0
M  V30 4895 H 457.231 1.3068 0.955739 0
M  V30 4896 H 459.223 0.705942 3.98495 0
M  V30 4897 H 457.793 0.0823066 3.12492 0
M  V30 4898 H 457.013 2.56454 2.99374 0
M  V30 4899 H 458.301 2.9411 4.15183 0
M  V30 4900 H 457.699 0.137637 5.65533 0
M  V30 4901 H 456.256 0.542534 6.49538 0
M  V30 4902 N 459.689 -1.00246 1.21608 0
M  V30 4903 C 460.652 -2.07233 0.979133 0
M  V30 4904 C 461.652 -1.6072 -0.0508219 0
M  V30 4905 O 462.842 -1.73196 0.186712 0
M  V30 4906 C 459.974 -3.37546 0.477016 0
M  V30 4907 H 461.167 -2.29687 1.92831 0
M  V30 4908 H 458.72 -1.17261 1.03342 0
M  V30 4909 H 459.455 -3.20773 -0.476966 0
M  V30 4910 H 459.24 -3.72638 1.21997 0
M  V30 4911 H 460.73 -4.16285 0.331181 0
M  V30 4912 N 461.167 -1.02423 -1.1978 0
M  V30 4913 C 462.583 -0.740459 -1.41384 0
M  V30 4914 C 462.783 0.676827 -1.89793 0
M  V30 4915 O 461.839 1.4435 -2.0717 0
M  V30 4916 C 463.152 -1.77264 -2.42895 0
M  V30 4917 C 464.7 -1.79165 -2.56649 0
M  V30 4918 C 465.175 -2.8133 -3.6141 0
M  V30 4919 N 466.666 -2.80118 -3.68901 0
M  V30 4920 C 467.401 -3.55824 -4.49641 0
M  V30 4921 N 466.897 -4.41231 -5.34123 0
M  V30 4922 N 468.69 -3.44387 -4.44246 0
M  V30 4923 H 460.841 -1.9391 -0.866764 0
M  V30 4924 H 463.104 -0.838074 -0.443098 0
M  V30 4925 H 462.81 -2.7884 -2.14339 0
M  V30 4926 H 462.684 -1.59108 -3.42001 0
M  V30 4927 H 465.071 -0.782702 -2.84531 0
M  V30 4928 H 465.152 -2.01396 -1.57713 0
M  V30 4929 H 464.796 -3.82394 -3.34271 0
M  V30 4930 H 464.726 -2.56359 -4.59986 0
M  V30 4931 H 467.217 -2.1817 -3.08562 0
M  V30 4932 H 467.53 -4.95747 -5.92836 0
M  V30 4933 H 465.875 -4.45306 -5.33599 0
M  V30 4934 H 469.066 -2.7708 -3.77285 0
M  V30 4935 H 469.239 -4.0364 -5.06931 0
M  V30 4936 N 462.645 1.35699 -0.801477 0
M  V30 4937 C 463.87 2.03687 -0.390678 0
M  V30 4938 C 464.295 1.60015 0.988778 0
M  V30 4939 O 463.653 0.774357 1.63931 0
M  V30 4940 C 463.701 3.57439 -0.476404 0
M  V30 4941 O 462.805 4.09208 0.512106 0
M  V30 4942 H 462.146 0.64344 -0.163956 0
M  V30 4943 H 464.676 1.73403 -1.08594 0
M  V30 4944 H 464.686 4.06544 -0.344357 0
M  V30 4945 H 463.361 3.88576 -1.48262 0
M  V30 4946 H 461.938 3.7134 0.340721 0
M  V30 4947 N 464.123 0.554532 1.47522 0
M  V30 4948 C 465.348 0.0322661 2.07375 0
M  V30 4949 C 465.773 -1.25079 1.40488 0
M  V30 4950 O 465.131 -1.74859 0.47896 0
M  V30 4951 C 465.179 -0.149397 3.6029 0
M  V30 4952 O 464.283 -1.21259 3.9417 0
M  V30 4953 H 463.624 0.0501228 0.662106 0
M  V30 4954 H 466.154 0.769452 1.8958 0
M  V30 4955 H 466.164 -0.364437 4.06369 0
M  V30 4956 H 464.839 0.787743 4.08372 0
M  V30 4957 H 463.416 -0.97825 3.5984 0
M  V30 4958 N 465.601 -1.54893 0.290851 0
M  V30 4959 C 466.831 -2.04047 -0.323818 0
M  V30 4960 C 467.239 -1.16809 -1.48837 0
M  V30 4961 O 466.582 -0.184145 -1.82775 0
M  V30 4962 C 466.644 -3.49248 -0.852395 0
M  V30 4963 C 466.308 -4.56623 0.185557 0
M  V30 4964 C 467.305 -5.09985 1.01053 0
M  V30 4965 C 464.99 -5.01252 0.324332 0
M  V30 4966 C 466.984 -6.06507 1.96031 0
M  V30 4967 C 464.671 -5.97596 1.27757 0
M  V30 4968 C 465.669 -6.50107 2.09405 0
M  V30 4969 O 465.357 -7.44565 3.03114 0
M  V30 4970 H 465.089 -0.671735 -0.0758129 0
M  V30 4971 H 467.643 -2.00947 0.425393 0
M  V30 4972 H 465.873 -3.49639 -1.65195 0
M  V30 4973 H 467.562 -3.81654 -1.38185 0
M  V30 4974 H 468.328 -4.76307 0.914129 0
M  V30 4975 H 464.207 -4.60015 -0.301213 0
M  V30 4976 H 467.751 -6.47418 2.598 0
M  V30 4977 H 463.648 -6.30691 1.37473 0
M  V30 4978 H 464.416 -7.62334 2.97976 0
M  V30 4979 N 467.08 -0.0183926 -1.57589 0
M  V30 4980 C 468.01 0.965596 -2.12599 0
M  V30 4981 C 468.991 1.34641 -1.0395 0
M  V30 4982 O 470.176 1.42693 -1.31729 0
M  V30 4983 C 467.306 2.25149 -2.64434 0
M  V30 4984 C 466.26 2.01175 -3.77773 0
M  V30 4985 C 465.586 3.35937 -4.15994 0
M  V30 4986 C 466.886 1.35953 -5.04296 0
M  V30 4987 H 468.58 0.507504 -2.95067 0
M  V30 4988 H 466.126 0.242671 -1.41941 0
M  V30 4989 H 468.079 2.94357 -3.01549 0
M  V30 4990 H 466.803 2.73105 -1.79112 0
M  V30 4991 H 465.462 1.34388 -3.4108 0
M  V30 4992 H 465.11 3.81631 -3.27669 0
M  V30 4993 H 464.81 3.20705 -4.92364 0
M  V30 4994 H 466.334 4.0643 -4.55683 0
M  V30 4995 H 467.748 1.95144 -5.39065 0
M  V30 4996 H 466.145 1.31152 -5.85593 0
M  V30 4997 H 467.215 0.331071 -4.83768 0
M  V30 4998 N 468.558 1.5553 0.254621 0
M  V30 4999 C 469.521 1.88872 1.29846 0
M  V30 5000 C 470.521 0.764591 1.41459 0
M  V30 5001 O 471.711 1.03265 1.40293 0
M  V30 5002 C 468.843 2.11032 2.67728 0
M  V30 5003 H 470.036 2.82201 1.01502 0
M  V30 5004 H 467.589 1.48303 0.493556 0
M  V30 5005 H 468.324 1.20146 3.01223 0
M  V30 5006 H 468.109 2.92895 2.60682 0
M  V30 5007 H 469.599 2.38038 3.43115 0
M  V30 5008 N 470.036 -0.519951 1.48776 0
M  V30 5009 C 470.984 -1.64443 1.64503 0
M  V30 5010 C 471.978 -1.61501 0.511248 0
M  V30 5011 O 473.184 -1.66238 0.690294 0
M  V30 5012 H 469.559 -0.544776 0.518385 0
M  V30 5013 H 471.53 -1.48325 2.58925 0
M  V30 5014 C 470.279 -3.02673 1.71127 0
M  V30 5015 H 469.602 -3.05635 2.57735 0
M  V30 5016 H 471.042 -3.80941 1.86172 0
M  V30 5017 C 469.501 -3.33854 0.452032 0
M  V30 5018 O 470.031 -3.99385 -0.430678 0
M  V30 5019 N 468.237 -2.88825 0.32069 0
M  V30 5020 H 467.784 -2.35674 1.03998 0
M  V30 5021 H 467.742 -3.10056 -0.520814 0
M  V30 5022 N 471.514 -1.37532 -0.769588 0
M  V30 5023 C 472.424 -1.35668 -1.91393 0
M  V30 5024 C 473.44 -0.255954 -1.72107 0
M  V30 5025 O 474.616 -0.491704 -1.95305 0
M  V30 5026 C 471.681 -1.16481 -3.26547 0
M  V30 5027 C 470.742 -2.36212 -3.58472 0
M  V30 5028 C 469.975 -2.17932 -4.87177 0
M  V30 5029 O 470.198 -1.1647 -5.58382 0
M  V30 5030 O 469.132 -3.06167 -5.18214 0
M  V30 5031 H 472.958 -2.32055 -1.95918 0
M  V30 5032 H 470.543 -1.18284 -0.912641 0
M  V30 5033 H 472.425 -1.07778 -4.07384 0
M  V30 5034 H 471.1 -0.231687 -3.2287 0
M  V30 5035 H 470.007 -2.50488 -2.77861 0
M  V30 5036 H 471.34 -3.281 -3.66894 0
M  V30 5037 N 472.992 0.995999 -1.22138 0
M  V30 5038 C 474.241 1.72928 -1.03821 0
M  V30 5039 C 474.554 1.90872 0.427444 0
M  V30 5040 O 475.76 2.61496 0.730212 0
M  V30 5041 C 474.216 3.11124 -1.80913 0
M  V30 5042 C 473.824 3.01122 -3.31707 0
M  V30 5043 C 475.568 3.8852 -1.71035 0
M  V30 5044 C 473.475 4.34453 -4.01253 0
M  V30 5045 H 472.405 0.648376 -0.384869 0
M  V30 5046 H 475.056 1.11213 -1.45959 0
M  V30 5047 H 473.438 3.73503 -1.31573 0
M  V30 5048 H 474.612 2.47926 -3.88419 0
M  V30 5049 H 472.927 2.3721 -3.42228 0
M  V30 5050 H 475.524 4.872 -2.20318 0
M  V30 5051 H 475.867 4.1087 -0.670196 0
M  V30 5052 H 476.4 3.32812 -2.17902 0
M  V30 5053 H 473.139 4.17303 -5.05508 0
M  V30 5054 H 472.659 4.87574 -3.49331 0
M  V30 5055 H 474.338 5.03215 -4.06674 0
M  V30 5056 N 474.47 1.03057 1.19235 0
M  V30 5057 C 475.4 0.633497 2.24742 0
M  V30 5058 C 476.381 -0.358335 1.66283 0
M  V30 5059 O 477.566 -0.240676 1.92703 0
M  V30 5060 C 474.696 -0.0147648 3.47297 0
M  V30 5061 C 473.65 0.899527 4.18441 0
M  V30 5062 C 472.976 0.116281 5.34574 0
M  V30 5063 C 474.276 2.21404 4.73051 0
M  V30 5064 H 475.97 1.5155 2.58211 0
M  V30 5065 H 473.516 0.73014 1.24117 0
M  V30 5066 H 475.469 -0.304202 4.20301 0
M  V30 5067 H 474.193 -0.931577 3.13032 0
M  V30 5068 H 472.852 1.17319 3.47321 0
M  V30 5069 H 472.5 -0.802619 4.96555 0
M  V30 5070 H 472.2 0.725293 5.83107 0
M  V30 5071 H 473.724 -0.166376 6.10373 0
M  V30 5072 H 475.138 1.98601 5.37802 0
M  V30 5073 H 473.535 2.77512 5.32078 0
M  V30 5074 H 474.605 2.86752 3.91026 0
M  V30 5075 N 475.948 -1.35272 0.808662 0
M  V30 5076 C 477.194 -1.99434 0.399717 0
M  V30 5077 C 477.549 -1.62992 -1.02232 0
M  V30 5078 O 476.842 -0.884091 -1.69983 0
M  V30 5079 C 477.036 -3.53556 0.522798 0
M  V30 5080 C 476.865 -4.04969 1.95525 0
M  V30 5081 C 475.635 -4.34228 2.58407 0
M  V30 5082 C 477.833 -4.23362 2.92009 0
M  V30 5083 N 475.815 -4.71585 3.93041 0
M  V30 5084 C 477.186 -4.63739 4.11517 0
M  V30 5085 C 479.241 -4.05576 2.88813 0
M  V30 5086 C 477.944 -4.88189 5.28265 0
M  V30 5087 C 479.97 -4.31184 4.04765 0
M  V30 5088 C 479.332 -4.71834 5.23022 0
M  V30 5089 H 475.431 -0.757534 0.19408 0
M  V30 5090 H 478.015 -1.63939 1.05034 0
M  V30 5091 H 476.186 -3.88277 -0.0978471 0
M  V30 5092 H 477.918 -4.04604 0.0882378 0
M  V30 5093 H 474.673 -4.24621 2.09747 0
M  V30 5094 H 475.097 -4.9452 4.62363 0
M  V30 5095 H 479.739 -3.73288 1.98535 0
M  V30 5096 H 477.457 -5.1935 6.19113 0
M  V30 5097 H 481.043 -4.18972 4.03675 0
M  V30 5098 H 479.923 -4.91263 6.11253 0
M  V30 5099 N 477.426 -0.562348 -1.47226 0
M  V30 5100 C 478.674 -0.0401371 -2.0206 0
M  V30 5101 C 478.995 1.3165 -1.43852 0
M  V30 5102 O 478.265 1.85976 -0.615599 0
M  V30 5103 H 476.845 -0.0118479 -0.746906 0
M  V30 5104 H 479.507 -0.73352 -1.8057 0
M  V30 5105 H 478.603 0.0441254 -3.12069 0
M  V30 5106 N 478.904 1.54736 -0.299062 0
M  V30 5107 C 479.854 2.20155 0.592932 0
M  V30 5108 C 480.838 1.1739 1.10038 0
M  V30 5109 O 482.03 1.43116 1.04147 0
M  V30 5110 C 479.159 2.94437 1.76527 0
M  V30 5111 C 478.245 4.04516 1.27388 0
M  V30 5112 N 478.636 5.03319 0.500339 0
M  V30 5113 C 476.934 4.18022 1.55478 0
M  V30 5114 C 477.635 5.81209 0.238909 0
M  V30 5115 N 476.611 5.37408 0.818163 0
M  V30 5116 H 480.413 2.93899 -0.00563596 0
M  V30 5117 H 477.927 1.62068 -0.103732 0
M  V30 5118 H 479.924 3.3977 2.41582 0
M  V30 5119 H 478.584 2.22209 2.36756 0
M  V30 5120 H 479.595 5.17696 0.145419 0
M  V30 5121 H 476.272 3.56998 2.16469 0
M  V30 5122 H 477.662 6.70812 -0.382223 0
M  V30 5123 N 480.382 0.0267497 1.57577 0
M  V30 5124 C 481.798 -0.32962 1.56159 0
M  V30 5125 C 481.998 -1.73059 1.03213 0
M  V30 5126 O 481.054 -2.43233 0.677804 0
M  V30 5127 C 482.367 -0.18039 3.00158 0
M  V30 5128 C 483.915 -0.253334 3.11973 0
M  V30 5129 C 484.39 -0.132921 4.57807 0
M  V30 5130 N 485.881 -0.189979 4.6281 0
M  V30 5131 C 486.616 -0.120554 5.73273 0
M  V30 5132 N 486.112 -0.000180315 6.928 0
M  V30 5133 N 487.905 -0.174369 5.61829 0
M  V30 5134 H 480.056 0.942896 1.90324 0
M  V30 5135 H 482.319 0.3639 0.875375 0
M  V30 5136 H 482.025 0.784576 3.42837 0
M  V30 5137 H 481.899 -0.951565 3.65 0
M  V30 5138 H 484.286 -1.20876 2.69208 0
M  V30 5139 H 484.367 0.548177 2.49857 0
M  V30 5140 H 484.011 0.819073 5.01252 0
M  V30 5141 H 483.941 -0.953264 5.179 0
M  V30 5142 H 486.432 -0.283257 3.76837 0
M  V30 5143 H 486.745 0.0461666 7.72786 0
M  V30 5144 H 485.09 0.034569 6.94991 0
M  V30 5145 H 488.281 -0.266794 4.67339 0
M  V30 5146 H 488.454 -0.116802 6.47895 0
M  V30 5147 N 481.861 -1.55662 -0.24637 0
M  V30 5148 C 483.108 -1.77519 -0.974335 0
M  V30 5149 C 483.436 -0.591165 -1.85298 0
M  V30 5150 O 482.691 0.425497 -1.91018 0
M  V30 5151 C 482.99 -3.04885 -1.86494 0
M  V30 5152 C 482.656 -4.36209 -1.14161 0
M  V30 5153 C 481.318 -4.71896 -0.941701 0
M  V30 5154 C 483.67 -5.17391 -0.628957 0
M  V30 5155 C 480.998 -5.86299 -0.216852 0
M  V30 5156 C 483.35 -6.32546 0.0824273 0
M  V30 5157 C 482.014 -6.66853 0.293807 0
M  V30 5158 H 481.284 -0.649588 -0.356535 0
M  V30 5159 H 483.931 -1.89934 -0.244394 0
M  V30 5160 H 482.236 -2.87484 -2.66196 0
M  V30 5161 H 483.933 -3.18994 -2.42989 0
M  V30 5162 H 480.523 -4.08174 -1.30736 0
M  V30 5163 H 484.707 -4.90276 -0.770943 0
M  V30 5164 H 479.963 -6.11385 -0.0426124 0
M  V30 5165 H 484.137 -6.94693 0.487292 0
M  V30 5166 H 481.764 -7.55349 0.857428 0
M  V30 5167 N 483.339 0.512053 -1.4905 0
M  V30 5168 C 484.249 1.64139 -1.67617 0
M  V30 5169 C 485.265 1.64786 -0.558701 0
M  V30 5170 O 486.441 1.8341 -0.832034 0
M  V30 5171 C 483.506 3.00548 -1.72835 0
M  V30 5172 C 482.567 3.10615 -2.96339 0
M  V30 5173 C 481.8 4.40517 -3.01298 0
M  V30 5174 O 482.023 5.28671 -2.14157 0
M  V30 5175 O 480.957 4.55325 -3.93653 0
M  V30 5176 H 484.783 1.51407 -2.63267 0
M  V30 5177 H 482.368 0.687131 -1.32661 0
M  V30 5178 H 484.25 3.81641 -1.78683 0
M  V30 5179 H 482.925 3.13566 -0.803616 0
M  V30 5180 H 481.832 2.2875 -2.96014 0
M  V30 5181 H 483.165 3.0252 -3.88256 0
M  V30 5182 N 484.817 1.37938 0.762283 0
M  V30 5183 C 486.228 1.30094 1.33912 0
M  V30 5184 C 486.579 -0.0472026 1.96143 0
M  V30 5185 O 485.704 -0.94917 1.94473 0
M  V30 5186 C 486.299 2.35592 2.43478 0
M  V30 5187 C 484.858 2.31353 2.96905 0
M  V30 5188 C 484.005 2.18919 1.70205 0
M  V30 5189 H 486.956 1.48423 0.561816 0
M  V30 5190 H 486.977 2.00806 3.23199 0
M  V30 5191 H 486.489 3.33701 1.98155 0
M  V30 5192 H 484.59 1.36799 3.46579 0
M  V30 5193 H 484.703 3.25147 3.51875 0
M  V30 5194 H 483.067 1.65624 1.93496 0
M  V30 5195 H 483.85 3.18956 1.26973 0
M  V30 5196 N 486.295 -0.989507 1.22664 0
M  V30 5197 C 487.541 -1.7321 1.05481 0
M  V30 5198 C 487.874 -1.89852 -0.408635 0
M  V30 5199 O 487.149 -1.44416 -1.30285 0
M  V30 5200 C 487.432 -3.1357 1.77047 0
M  V30 5201 C 487.285 -3.04555 3.31008 0
M  V30 5202 C 488.604 -4.12812 1.5256 0
M  V30 5203 H 485.723 -0.628697 0.384589 0
M  V30 5204 H 488.365 -1.15258 1.51049 0
M  V30 5205 H 486.515 -3.63046 1.3831 0
M  V30 5206 H 488.187 -2.62674 3.7921 0
M  V30 5207 H 486.43 -2.41278 3.6051 0
M  V30 5208 H 487.101 -4.03894 3.76263 0
M  V30 5209 H 489.577 -3.72106 1.86215 0
M  V30 5210 H 488.453 -5.09132 2.05124 0
M  V30 5211 H 488.714 -4.39711 0.458936 0
M  V30 5212 N 487.773 -1.03688 -1.18687 0
M  V30 5213 C 488.703 -0.645407 -2.24403 0
M  V30 5214 C 489.684 0.349511 -1.66471 0
M  V30 5215 O 490.869 0.230453 -1.92828 0
M  V30 5216 C 487.999 -0.00365337 -3.473 0
M  V30 5217 C 486.953 -0.921705 -4.17958 0
M  V30 5218 C 486.279 -0.144629 -5.34504 0
M  V30 5219 C 487.579 -2.23909 -4.71871 0
M  V30 5220 H 489.273 -1.52917 -2.57404 0
M  V30 5221 H 486.819 -0.736711 -1.23728 0
M  V30 5222 H 488.772 0.281908 -4.20456 0
M  V30 5223 H 487.496 0.914963 -3.13522 0
M  V30 5224 H 486.155 -1.19159 -3.46694 0
M  V30 5225 H 485.803 0.776274 -4.96974 0
M  V30 5226 H 485.503 -0.756206 -5.82714 0
M  V30 5227 H 487.027 0.134004 -6.10453 0
M  V30 5228 H 488.441 -2.0145 -5.36741 0
M  V30 5229 H 486.838 -2.8033 -5.30599 0
M  V30 5230 H 487.908 -2.88822 -3.895 0
M  V30 5231 N 489.251 1.34841 -0.815825 0
M  V30 5232 C 490.498 1.98499 -0.400535 0
M  V30 5233 C 490.826 1.64699 1.03463 0
M  V30 5234 O 490.081 0.907006 1.73412 0
M  V30 5235 C 490.38 3.53273 -0.541541 0
M  V30 5236 C 490.046 4.06966 -1.94138 0
M  V30 5237 C 488.708 4.21341 -2.32433 0
M  V30 5238 C 491.06 4.35933 -2.85677 0
M  V30 5239 C 488.388 4.62007 -3.61617 0
M  V30 5240 C 490.74 4.78042 -4.14317 0
M  V30 5241 C 489.404 4.90622 -4.52599 0
M  V30 5242 H 488.674 0.72636 -0.146566 0
M  V30 5243 H 491.321 1.60902 -1.0384 0
M  V30 5244 H 489.626 3.91387 0.179741 0
M  V30 5245 H 491.323 4.00497 -0.20085 0
M  V30 5246 H 487.913 3.96235 -1.63388 0
M  V30 5247 H 492.097 4.24372 -2.57337 0
M  V30 5248 H 487.353 4.69937 -3.91113 0
M  V30 5249 H 491.527 4.99415 -4.85342 0
M  V30 5250 H 489.154 5.2189 -5.52752 0
M  V30 5251 N 490.729 0.570148 1.46925 0
M  V30 5252 C 491.639 -0.173061 2.33961 0
M  V30 5253 C 492.655 -0.898825 1.48987 0
M  V30 5254 O 493.831 -0.864825 1.81887 0
M  V30 5255 C 490.896 -1.18177 3.25937 0
M  V30 5256 C 489.957 -0.462041 4.26806 0
M  V30 5257 C 489.19 -1.4227 5.14388 0
M  V30 5258 O 489.413 -2.65842 5.04662 0
M  V30 5259 O 488.347 -0.940127 5.94513 0
M  V30 5260 H 492.173 0.541216 2.98839 0
M  V30 5261 H 489.758 0.330647 1.45695 0
M  V30 5262 H 491.64 -1.76372 3.82715 0
M  V30 5263 H 490.315 -1.87774 2.63671 0
M  V30 5264 H 489.222 0.161429 3.73752 0
M  V30 5265 H 490.555 0.192719 4.91823 0
M  V30 5266 N 492.207 -1.54576 0.307264 0
M  V30 5267 C 493.117 -2.27435 -0.57536 0
M  V30 5268 C 494.133 -1.31183 -1.14311 0
M  V30 5269 O 495.309 -1.64175 -1.16656 0
M  V30 5270 C 492.374 -3.00566 -1.72803 0
M  V30 5271 C 491.435 -4.12369 -1.19373 0
M  V30 5272 C 490.668 -4.82003 -2.29147 0
M  V30 5273 O 490.891 -4.51038 -3.49171 0
M  V30 5274 O 489.825 -5.69271 -1.95485 0
M  V30 5275 H 493.651 -3.03696 0.0158558 0
M  V30 5276 H 491.236 -1.49219 0.0735064 0
M  V30 5277 H 493.118 -3.46416 -2.39946 0
M  V30 5278 H 491.793 -2.27195 -2.30574 0
M  V30 5279 H 490.7 -3.70905 -0.487851 0
M  V30 5280 H 492.033 -4.87736 -0.661376 0
M  V30 5281 N 493.685 -0.035106 -1.57561 0
M  V30 5282 C 494.632 0.94474 -2.10578 0
M  V30 5283 C 495.602 1.3192 -1.00927 0
M  V30 5284 O 496.787 1.41147 -1.28382 0
M  V30 5285 C 493.927 2.21982 -2.64231 0
M  V30 5286 C 493.04 1.90128 -3.87911 0
M  V30 5287 C 492.175 3.11975 -4.29936 0
M  V30 5288 C 491.214 2.75968 -5.46359 0
M  V30 5289 N 490.351 3.90459 -5.83512 0
M  V30 5290 H 495.191 0.485717 -2.94015 0
M  V30 5291 H 492.728 0.228143 -1.4532 0
M  V30 5292 H 494.686 2.96572 -2.9343 0
M  V30 5293 H 493.316 2.6549 -1.83616 0
M  V30 5294 H 492.368 1.05755 -3.65404 0
M  V30 5295 H 493.68 1.59613 -4.72573 0
M  V30 5296 H 492.834 3.9488 -4.60603 0
M  V30 5297 H 491.573 3.45657 -3.44053 0
M  V30 5298 H 490.578 1.91478 -5.1538 0
M  V30 5299 H 491.803 2.43497 -6.33945 0
M  V30 5300 H 489.749 4.23971 -5.00584 0
M  V30 5301 H 489.666 3.63588 -6.62827 0
M  V30 5302 H 490.934 4.7405 -6.18787 0
M  V30 5303 N 495.163 1.55791 0.238111 0
M  V30 5304 C 496.111 1.91885 1.31464 0
M  V30 5305 C 497.105 0.798929 1.49377 0
M  V30 5306 O 498.311 0.983626 1.50747 0
M  V30 5307 H 494.686 0.609551 0.440399 0
M  V30 5308 H 496.657 2.81747 0.982925 0
M  V30 5309 C 495.406 2.23763 2.6613 0
M  V30 5310 H 494.729 3.09444 2.53149 0
M  V30 5311 H 496.169 2.52915 3.40309 0
M  V30 5312 C 494.628 1.05699 3.1989 0
M  V30 5313 O 495.158 0.309524 4.00506 0
M  V30 5314 N 493.364 0.845251 2.78036 0
M  V30 5315 H 492.911 1.4548 2.12588 0
M  V30 5316 H 492.869 0.0569973 3.14348 0
M  V30 5317 N 496.642 -0.504142 1.49319 0
M  V30 5318 C 497.574 -1.62265 1.61872 0
M  V30 5319 C 498.587 -1.54881 0.501573 0
M  V30 5320 O 499.776 -1.6087 0.773497 0
M  V30 5321 C 496.876 -3.01042 1.55651 0
M  V30 5322 C 496.049 -3.33642 2.82845 0
M  V30 5323 C 495.108 -4.51816 2.69719 0
M  V30 5324 O 494.134 -4.53755 3.4365 0
M  V30 5325 N 495.336 -5.51543 1.81055 0
M  V30 5326 H 498.101 -1.51924 2.58339 0
M  V30 5327 H 495.662 -0.691954 1.46368 0
M  V30 5328 H 497.654 -3.78013 1.44528 0
M  V30 5329 H 496.224 -3.05323 0.670546 0
M  V30 5330 H 495.444 -2.45598 3.08343 0
M  V30 5331 H 496.732 -3.5222 3.67177 0
M  V30 5332 H 496.13 -5.52774 1.20241 0
M  V30 5333 H 494.687 -6.27629 1.75856 0
M  V30 5334 N 498.12 -1.38341 -0.754957 0
M  V30 5335 C 499.35 -1.37504 -1.54195 0
M  V30 5336 C 499.758 0.0373787 -1.89163 0
M  V30 5337 O 499.101 1.01402 -1.53178 0
M  V30 5338 C 499.163 -2.16488 -2.87008 0
M  V30 5339 C 498.827 -3.65311 -2.74585 0
M  V30 5340 C 499.824 -4.58834 -2.44474 0
M  V30 5341 C 497.509 -4.08649 -2.9208 0
M  V30 5342 C 499.503 -5.93675 -2.32011 0
M  V30 5343 C 497.19 -5.43571 -2.79237 0
M  V30 5344 C 498.188 -6.35898 -2.49245 0
M  V30 5345 O 497.876 -7.68338 -2.36458 0
M  V30 5346 H 497.608 -0.472159 -0.483779 0
M  V30 5347 H 500.162 -1.82515 -0.94221 0
M  V30 5348 H 498.392 -1.66194 -3.49166 0
M  V30 5349 H 500.081 -2.08076 -3.4851 0
M  V30 5350 H 500.847 -4.26657 -2.30627 0
M  V30 5351 H 496.726 -3.37134 -3.14422 0
M  V30 5352 H 500.27 -6.65706 -2.08522 0
M  V30 5353 H 496.167 -5.75345 -2.92657 0
M  V30 5354 H 496.935 -7.78845 -2.5168 0
M  V30 5355 N 499.598 0.982988 -1.23187 0
M  V30 5356 C 500.545 2.07491 -1.01075 0
M  V30 5357 C 501.515 1.65949 0.070905 0
M  V30 5358 O 502.7 1.90629 -0.0806822 0
M  V30 5359 C 499.84 3.39751 -0.605261 0
M  V30 5360 C 498.953 3.94578 -1.75876 0
M  V30 5361 C 498.088 5.15039 -1.3003 0
M  V30 5362 C 497.127 5.62027 -2.42472 0
M  V30 5363 N 496.264 6.73719 -1.97602 0
M  V30 5364 H 501.104 2.25739 -1.9454 0
M  V30 5365 H 498.641 1.10659 -0.969179 0
M  V30 5366 H 500.599 4.15719 -0.351279 0
M  V30 5367 H 499.229 3.21473 0.292382 0
M  V30 5368 H 498.281 3.1539 -2.12681 0
M  V30 5369 H 499.593 4.25422 -2.60418 0
M  V30 5370 H 498.747 5.9833 -1.00429 0
M  V30 5371 H 497.486 4.85843 -0.425216 0
M  V30 5372 H 496.491 4.77318 -2.7285 0
M  V30 5373 H 497.716 5.93244 -3.30512 0
M  V30 5374 H 495.662 6.46287 -1.1247 0
M  V30 5375 H 495.579 7.03934 -2.75705 0
M  V30 5376 H 496.847 7.6049 -1.71098 0
M  V30 5377 N 501.076 1.04316 1.18135 0
M  V30 5378 C 502.325 0.74319 1.87509 0
M  V30 5379 C 502.638 -0.732136 1.81381 0
M  V30 5380 O 503.844 -1.14572 2.46141 0
M  V30 5381 C 502.3 1.27913 3.36402 0
M  V30 5382 C 501.908 2.78326 3.51053 0
M  V30 5383 C 503.652 1.0558 4.11161 0
M  V30 5384 C 501.559 3.25266 4.93919 0
M  V30 5385 H 500.489 0.274313 0.702331 0
M  V30 5386 H 503.14 1.25931 1.33467 0
M  V30 5387 H 501.522 0.690853 3.89927 0
M  V30 5388 H 502.696 3.42933 3.07788 0
M  V30 5389 H 501.011 2.991 2.89704 0
M  V30 5390 H 503.608 1.38161 5.16542 0
M  V30 5391 H 503.951 -0.00684729 4.16299 0
M  V30 5392 H 504.484 1.60882 3.63816 0
M  V30 5393 H 501.223 4.30922 4.9395 0
M  V30 5394 H 500.743 2.65396 5.3789 0
M  V30 5395 H 502.422 3.19433 5.62647 0
M  V30 5396 N 502.554 -1.34406 0.822964 0
M  V30 5397 C 503.831 -1.92733 0.333641 0
M  V30 5398 C 504.211 -1.75107 -1.17901 0
M  V30 5399 O 503.559 -1.12983 -1.98613 0
M  V30 5400 C 503.769 -3.40557 0.763023 0
M  V30 5401 C 505.117 -4.17709 0.761879 0
M  V30 5402 O 506.141 -3.49141 0.705606 0
M  V30 5403 O 505 -5.40082 0.835109 0
M  V30 5404 H 502.094 -0.821964 0.0911249 0
M  V30 5405 H 504.64 -1.4338 0.907757 0
M  V30 5406 H 503.412 -3.47187 1.8049 0
M  V30 5407 H 503.035 -3.97259 0.164605 0
M  V30 5408 N 504.032 -0.577932 -1.46621 0
M  V30 5409 C 505.262 -0.0670668 -2.06491 0
M  V30 5410 C 505.67 1.24119 -1.42798 0
M  V30 5411 O 505.013 1.76016 -0.525759 0
M  V30 5412 C 505.075 0.177995 -3.59059 0
M  V30 5413 C 504.739 -1.04394 -4.44917 0
M  V30 5414 C 505.736 -1.95479 -4.81751 0
M  V30 5415 C 503.421 -1.26444 -4.86125 0
M  V30 5416 C 505.415 -3.06965 -5.58615 0
M  V30 5417 C 503.102 -2.38237 -5.62749 0
M  V30 5418 C 504.1 -3.28327 -5.98908 0
M  V30 5419 O 503.788 -4.38179 -6.73984 0
M  V30 5420 H 503.52 -0.0523159 -0.673973 0
M  V30 5421 H 506.074 -0.796966 -1.89308 0
M  V30 5422 H 504.304 0.962451 -3.74531 0
M  V30 5423 H 505.993 0.636782 -4.00874 0
M  V30 5424 H 506.759 -1.79657 -4.50498 0
M  V30 5425 H 502.638 -0.572316 -4.57434 0
M  V30 5426 H 506.182 -3.77309 -5.86757 0
M  V30 5427 H 502.079 -2.54023 -5.93416 0
M  V30 5428 H 502.847 -4.36486 -6.92403 0
M  V30 5429 N 505.51 1.54411 -0.315457 0
M  V30 5430 C 506.735 2.05299 0.294496 0
M  V30 5431 C 507.16 1.19052 1.4563 0
M  V30 5432 O 506.518 0.197804 1.80218 0
M  V30 5433 C 506.566 3.5345 0.714549 0
M  V30 5434 O 505.67 3.70175 1.81781 0
M  V30 5435 H 505.011 0.661743 0.0547019 0
M  V30 5436 H 507.541 1.99327 -0.461508 0
M  V30 5437 H 507.551 3.9557 0.999426 0
M  V30 5438 H 506.226 4.1568 -0.135244 0
M  V30 5439 H 504.803 3.3996 1.53236 0
M  V30 5440 N 506.988 0.0434614 1.5754 0
M  V30 5441 C 507.938 -0.943039 2.07583 0
M  V30 5442 C 508.922 -1.27662 0.979342 0
M  V30 5443 O 510.114 -1.26034 1.24276 0
M  V30 5444 C 507.243 -2.22056 2.61813 0
M  V30 5445 C 506.329 -1.91471 3.78417 0
M  V30 5446 N 506.72 -1.31214 4.88484 0
M  V30 5447 C 505.018 -2.21384 3.87176 0
M  V30 5448 C 505.719 -1.18084 5.69588 0
M  V30 5449 N 504.695 -1.68116 5.16951 0
M  V30 5450 H 508.497 -0.472354 2.90079 0
M  V30 5451 H 506.011 -0.161191 1.61598 0
M  V30 5452 H 508.008 -2.93618 2.95963 0
M  V30 5453 H 506.668 -2.69738 1.80752 0
M  V30 5454 H 507.679 -0.985318 5.08441 0
M  V30 5455 H 504.356 -2.7164 3.17046 0
M  V30 5456 H 505.746 -0.713684 6.68099 0
M  V30 5457 N 508.466 -1.55915 -0.229846 0
M  V30 5458 C 509.713 -1.78542 -0.955452 0
M  V30 5459 C 510.041 -0.610785 -1.84661 0
M  V30 5460 O 509.296 0.405213 -1.91459 0
M  V30 5461 C 509.595 -3.06845 -1.8325 0
M  V30 5462 C 509.261 -4.37395 -1.09528 0
M  V30 5463 C 507.923 -4.72868 -0.891598 0
M  V30 5464 C 510.275 -5.18029 -0.574046 0
M  V30 5465 C 507.603 -5.86496 -0.154655 0
M  V30 5466 C 509.955 -6.32423 0.149513 0
M  V30 5467 C 508.619 -6.66504 0.364519 0
M  V30 5468 H 507.889 -0.653333 -0.349625 0
M  V30 5469 H 510.536 -1.90183 -0.224235 0
M  V30 5470 H 508.841 -2.90291 -2.63132 0
M  V30 5471 H 510.538 -3.21553 -2.39592 0
M  V30 5472 H 507.128 -4.09538 -1.26399 0
M  V30 5473 H 511.312 -4.91066 -0.718899 0
M  V30 5474 H 506.568 -6.11396 0.0222356 0
M  V30 5475 H 510.742 -6.94137 0.560947 0
M  V30 5476 H 508.369 -7.54397 0.937495 0
M  V30 5477 N 509.944 0.496216 -1.49584 0
M  V30 5478 C 510.894 1.59422 -1.62999 0
M  V30 5479 C 511.878 1.53402 -0.485457 0
M  V30 5480 O 513.07 1.60851 -0.738649 0
M  V30 5481 C 510.199 2.98009 -1.70427 0
M  V30 5482 C 509.285 3.09008 -2.90473 0
M  V30 5483 N 509.676 2.89884 -4.14489 0
M  V30 5484 C 507.974 3.40115 -2.8851 0
M  V30 5485 C 508.675 3.0519 -4.95211 0
M  V30 5486 N 507.651 3.3428 -4.2867 0
M  V30 5487 H 511.453 1.43297 -2.56599 0
M  V30 5488 H 508.967 0.702443 -1.46422 0
M  V30 5489 H 510.964 3.76926 -1.78136 0
M  V30 5490 H 509.624 3.152 -0.77967 0
M  V30 5491 H 510.635 2.65963 -4.44392 0
M  V30 5492 H 507.312 3.63452 -2.05448 0
M  V30 5493 H 508.702 2.94856 -6.03746 0
M  V30 5494 N 511.423 1.38739 0.74761 0
M  V30 5495 C 512.37 1.36449 1.86146 0
M  V30 5496 C 513.34 0.226098 1.64554 0
M  V30 5497 O 514.525 0.41926 1.86137 0
M  V30 5498 C 511.665 1.2013 3.23516 0
M  V30 5499 C 510.778 2.43407 3.56899 0
M  V30 5500 C 509.913 2.19773 4.83605 0
M  V30 5501 C 508.952 3.3879 5.09792 0
M  V30 5502 N 508.089 3.14553 6.27695 0
M  V30 5503 H 512.929 2.3167 1.87438 0
M  V30 5504 H 510.466 1.15094 0.916063 0
M  V30 5505 H 512.424 1.08683 4.02795 0
M  V30 5506 H 511.054 0.285453 3.21535 0
M  V30 5507 H 510.106 2.65504 2.72418 0
M  V30 5508 H 511.418 3.32094 3.72176 0
M  V30 5509 H 510.572 2.05496 5.70838 0
M  V30 5510 H 509.311 1.28461 4.70478 0
M  V30 5511 H 508.316 3.53579 4.21025 0
M  V30 5512 H 509.541 4.30986 5.24812 0
M  V30 5513 H 507.487 2.25893 6.1588 0
M  V30 5514 H 507.404 3.96791 6.435 0
M  V30 5515 H 508.672 3.03943 7.17801 0
M  V30 5516 N 512.901 -0.976442 1.23707 0
M  V30 5517 C 514.129 -1.75341 1.09833 0
M  V30 5518 C 514.544 -1.8553 -0.349885 0
M  V30 5519 O 513.901 -1.33732 -1.24185 0
M  V30 5520 C 513.952 -3.17833 1.72233 0
M  V30 5521 O 513.673 -3.08167 3.11391 0
M  V30 5522 C 515.174 -4.11906 1.63853 0
M  V30 5523 H 512.394 -0.550137 0.384175 0
M  V30 5524 H 514.938 -1.2265 1.63638 0
M  V30 5525 H 513.093 -3.67538 1.22452 0
M  V30 5526 H 513.507 -3.97897 3.41729 0
M  V30 5527 H 514.981 -5.09579 2.12211 0
M  V30 5528 H 515.458 -4.35109 0.598092 0
M  V30 5529 H 516.064 -3.68107 2.13019 0
M  V30 5530 N 514.379 -1.04941 -1.1758 0
M  V30 5531 C 515.609 -0.777166 -1.91425 0
M  V30 5532 C 516.017 0.670647 -1.76915 0
M  V30 5533 O 515.36 1.46965 -1.10213 0
M  V30 5534 C 515.422 -1.07495 -3.43052 0
M  V30 5535 C 515.086 -2.51844 -3.81345 0
M  V30 5536 C 516.083 -3.50047 -3.844 0
M  V30 5537 C 513.768 -2.86787 -4.12382 0
M  V30 5538 C 515.762 -4.81239 -4.17957 0
M  V30 5539 C 513.449 -4.18182 -4.45608 0
M  V30 5540 C 514.447 -5.15219 -4.48373 0
M  V30 5541 O 514.135 -6.44258 -4.80819 0
M  V30 5542 H 513.867 -0.282209 -0.614275 0
M  V30 5543 H 516.421 -1.40258 -1.50056 0
M  V30 5544 H 514.651 -0.392437 -3.84704 0
M  V30 5545 H 516.34 -0.78912 -3.98155 0
M  V30 5546 H 517.106 -3.24391 -3.60548 0
M  V30 5547 H 512.985 -2.11922 -4.09402 0
M  V30 5548 H 516.529 -5.56974 -4.2003 0
M  V30 5549 H 512.426 -4.43602 -4.68922 0
M  V30 5550 H 513.194 -6.49041 -4.98686 0
M  V30 5551 N 515.857 1.33968 -0.830081 0
M  V30 5552 C 516.767 2.33164 -0.259207 0
M  V30 5553 C 517.783 1.62951 0.610164 0
M  V30 5554 O 518.959 1.94668 0.516369 0
M  V30 5555 C 516.024 3.42088 0.563598 0
M  V30 5556 C 515.085 4.28037 -0.329014 0
M  V30 5557 C 514.318 5.3176 0.454616 0
M  V30 5558 O 514.541 5.44876 1.6872 0
M  V30 5559 O 513.475 6.01669 -0.166794 0
M  V30 5560 H 517.301 2.83832 -1.08041 0
M  V30 5561 H 514.886 1.37154 -0.59239 0
M  V30 5562 H 516.768 4.08581 1.03147 0
M  V30 5563 H 515.443 2.93651 1.36201 0
M  V30 5564 H 514.35 3.64443 -0.844538 0
M  V30 5565 H 515.683 4.79934 -1.09196 0
M  V30 5566 N 517.335 0.585699 1.46312 0
M  V30 5567 C 518.581 0.0725284 2.0267 0
M  V30 5568 C 518.914 -1.28523 1.45586 0
M  V30 5569 O 518.189 -1.84283 0.622101 0
M  V30 5570 C 518.472 0.0099788 3.60099 0
M  V30 5571 C 518.325 1.39685 4.27561 0
M  V30 5572 C 519.644 -0.689117 4.34671 0
M  V30 5573 H 516.763 0.0278307 0.736474 0
M  V30 5574 H 519.405 0.753472 1.74421 0
M  V30 5575 H 517.555 -0.56992 3.84297 0
M  V30 5576 H 519.227 2.02215 4.14617 0
M  V30 5577 H 517.47 1.96374 3.86807 0
M  V30 5578 H 518.141 1.30553 5.36339 0
M  V30 5579 H 520.617 -0.196446 4.15636 0
M  V30 5580 H 519.493 -0.701921 5.44393 0
M  V30 5581 H 519.754 -1.75101 4.05946 0
M  V30 5582 N 518.813 -1.54241 0.323641 0
M  V30 5583 C 520.224 -1.85975 -0.164405 0
M  V30 5584 C 520.575 -1.24529 -1.51615 0
M  V30 5585 O 519.7 -0.551351 -2.09258 0
M  V30 5586 C 520.295 -3.37424 -0.305091 0
M  V30 5587 C 518.854 -3.69107 -0.737358 0
M  V30 5588 C 518.001 -2.76942 0.140884 0
M  V30 5589 H 520.952 -1.49088 0.543922 0
M  V30 5590 H 520.973 -3.63147 -1.13598 0
M  V30 5591 H 520.485 -3.82116 0.678876 0
M  V30 5592 H 518.586 -3.29947 -1.73107 0
M  V30 5593 H 518.699 -4.76035 -0.541053 0
M  V30 5594 H 517.063 -2.51795 -0.383572 0
M  V30 5595 H 517.846 -3.24461 1.12162 0
M  V30 5596 N 520.291 -0.0518155 -1.57515 0
M  V30 5597 C 521.516 0.634896 -1.97443 0
M  V30 5598 C 521.941 1.63546 -0.929207 0
M  V30 5599 O 521.299 1.80981 0.107484 0
M  V30 5600 C 521.347 1.29765 -3.36442 0
M  V30 5601 O 520.451 2.41333 -3.34413 0
M  V30 5602 H 519.792 0.164994 -0.643174 0
M  V30 5603 H 522.322 -0.120407 -2.04245 0
M  V30 5604 H 522.332 1.64918 -3.73184 0
M  V30 5605 H 521.007 0.564361 -4.12053 0
M  V30 5606 H 519.584 2.08122 -3.09418 0
M  V30 5607 N 521.769 1.56035 0.221574 0
M  V30 5608 C 522.997 1.8313 0.962864 0
M  V30 5609 C 523.412 0.630934 1.77946 0
M  V30 5610 O 522.769 -0.400519 1.78051 0
M  V30 5611 C 522.82 3.08742 1.88045 0
M  V30 5612 O 522.541 4.24147 1.09686 0
M  V30 5613 C 524.042 3.48824 2.73563 0
M  V30 5614 H 521.262 0.608775 0.282194 0
M  V30 5615 H 523.806 2.03124 0.23681 0
M  V30 5616 H 521.961 2.90723 2.56045 0
M  V30 5617 H 522.375 4.95505 1.71974 0
M  V30 5618 H 523.849 4.39752 3.3365 0
M  V30 5619 H 524.326 2.70575 3.45956 0
M  V30 5620 H 524.932 3.69282 2.10976 0
M  V30 5621 N 523.247 -0.488276 1.49845 0
M  V30 5622 C 524.658 -1.06955 1.53028 0
M  V30 5623 C 525.009 -1.9351 0.323797 0
M  V30 5624 O 524.134 -2.08891 -0.565116 0
M  V30 5625 C 524.729 -1.94643 2.77307 0
M  V30 5626 C 523.288 -2.4791 2.83227 0
M  V30 5627 C 522.435 -1.25833 2.47106 0
M  V30 5628 H 525.386 -0.271626 1.56358 0
M  V30 5629 H 525.407 -2.79496 2.5819 0
M  V30 5630 H 524.919 -1.31621 3.65099 0
M  V30 5631 H 523.02 -3.14535 1.99745 0
M  V30 5632 H 523.133 -2.84193 3.85709 0
M  V30 5633 H 521.497 -1.58764 1.99163 0
M  V30 5634 H 522.28 -0.644993 3.37186 0
M  V30 5635 N 524.725 -1.39134 -0.740242 0
M  V30 5636 C 526.141 -1.20623 -1.0451 0
M  V30 5637 C 526.341 -0.0641651 -2.01398 0
M  V30 5638 O 525.397 0.585843 -2.4561 0
M  V30 5639 C 526.71 -2.53815 -1.6124 0
M  V30 5640 C 528.258 -2.60615 -1.73346 0
M  V30 5641 C 528.733 -3.94015 -2.33486 0
M  V30 5642 N 530.224 -3.95627 -2.40902 0
M  V30 5643 C 530.959 -4.95616 -2.88361 0
M  V30 5644 N 530.455 -6.06003 -3.35756 0
M  V30 5645 N 532.248 -4.82998 -2.87523 0
M  V30 5646 H 524.399 -2.12176 -0.0975576 0
M  V30 5647 H 526.662 -0.942066 -0.105904 0
M  V30 5648 H 526.368 -3.37911 -0.975144 0
M  V30 5649 H 526.242 -2.73162 -2.6012 0
M  V30 5650 H 528.629 -1.76906 -2.36195 0
M  V30 5651 H 528.71 -2.45123 -0.731336 0
M  V30 5652 H 528.354 -4.78153 -1.71267 0
M  V30 5653 H 528.284 -4.06825 -3.34366 0
M  V30 5654 H 530.775 -3.15903 -2.07398 0
M  V30 5655 H 531.088 -6.78215 -3.70464 0
M  V30 5656 H 529.433 -6.09604 -3.33778 0
M  V30 5657 H 532.624 -3.95866 -2.49816 0
M  V30 5658 H 532.797 -5.61072 -3.24196 0
M  V30 5659 N 526.204 0.969867 -1.24223 0
M  V30 5660 C 527.444 1.72754 -1.0925 0
M  V30 5661 C 527.808 1.88541 0.362787 0
M  V30 5662 O 529.009 2.61217 0.633969 0
M  V30 5663 C 527.28 3.08204 -1.80957 0
M  V30 5664 S 528.839 3.99418 -1.81688 0
M  V30 5665 H 525.657 0.593981 -0.390778 0
M  V30 5666 H 528.259 1.15792 -1.5752 0
M  V30 5667 H 526.963 2.94372 -2.85961 0
M  V30 5668 H 526.494 3.70232 -1.33012 0
M  V30 5669 H 528.509 4.8828 -0.883001 0
M  V30 5670 N 527.682 1.05563 1.17022 0
M  V30 5671 C 528.907 0.788437 1.91829 0
M  V30 5672 C 529.332 -0.650356 1.76499 0
M  V30 5673 O 528.69 -1.45229 1.08527 0
M  V30 5674 C 528.738 1.1786 3.40795 0
M  V30 5675 O 527.842 0.312965 4.11211 0
M  V30 5676 H 527.183 0.288794 0.597908 0
M  V30 5677 H 529.713 1.40948 1.48307 0
M  V30 5678 H 529.723 1.14697 3.91546 0
M  V30 5679 H 528.398 2.22666 3.51273 0
M  V30 5680 H 526.975 0.405515 3.70689 0
M  V30 5681 N 529.16 -1.33526 0.837174 0
M  V30 5682 C 530.123 -2.27551 0.274421 0
M  V30 5683 C 531.123 -1.50886 -0.555881 0
M  V30 5684 O 532.313 -1.70227 -0.369918 0
M  V30 5685 C 529.445 -3.35332 -0.613605 0
M  V30 5686 H 530.638 -2.78837 1.10408 0
M  V30 5687 H 528.191 -1.439 0.610126 0
M  V30 5688 H 528.926 -2.89285 -1.46577 0
M  V30 5689 H 528.711 -3.92095 -0.0195341 0
M  V30 5690 H 530.201 -4.05433 -1.00068 0
M  V30 5691 N 530.638 -0.59345 -1.46 0
M  V30 5692 C 531.585 0.133618 -2.30413 0
M  V30 5693 C 532.555 0.873736 -1.41262 0
M  V30 5694 O 533.74 0.862279 -1.70204 0
M  V30 5695 C 530.88 1.13434 -3.25924 0
M  V30 5696 C 529.993 0.39656 -4.30176 0
M  V30 5697 C 529.128 1.38575 -5.12806 0
M  V30 5698 C 528.167 0.634984 -6.08797 0
M  V30 5699 N 527.304 1.57276 -6.84258 0
M  V30 5700 H 532.144 -0.592252 -2.92055 0
M  V30 5701 H 529.681 -0.303874 -1.43927 0
M  V30 5702 H 531.639 1.72752 -3.79753 0
M  V30 5703 H 530.269 1.82779 -2.66067 0
M  V30 5704 H 529.321 -0.311861 -3.79119 0
M  V30 5705 H 530.633 -0.189869 -4.98438 0
M  V30 5706 H 529.787 2.05141 -5.70966 0
M  V30 5707 H 528.526 2.00611 -4.44529 0
M  V30 5708 H 527.531 -0.0443925 -5.49782 0
M  V30 5709 H 528.756 0.0198678 -6.79097 0
M  V30 5710 H 526.702 2.18103 -6.18682 0
M  V30 5711 H 526.619 1.03941 -7.48821 0
M  V30 5712 H 527.887 2.22844 -7.46968 0
M  V30 5713 N 532.116 1.54067 -0.331816 0
M  V30 5714 C 533.393 1.92915 0.322955 0
M  V30 5715 C 533.773 1.26225 1.69205 0
M  V30 5716 O 533.121 0.408919 2.24811 0
M  V30 5717 C 533.331 3.46619 0.406946 0
M  V30 5718 C 534.679 4.19386 0.663339 0
M  V30 5719 O 535.703 3.5282 0.489536 0
M  V30 5720 O 534.562 5.37288 0.999193 0
M  V30 5721 H 531.656 0.805808 0.186016 0
M  V30 5722 H 534.202 1.65342 -0.382135 0
M  V30 5723 H 532.974 3.87354 -0.554287 0
M  V30 5724 H 532.597 3.80324 1.15929 0
M  V30 5725 N 533.594 0.0601682 1.57485 0
M  V30 5726 C 534.524 -0.90889 2.15085 0
M  V30 5727 C 535.505 -1.31838 1.07484 0
M  V30 5728 O 536.69 -1.3915 1.35466 0
M  V30 5729 C 533.82 -2.18059 2.7031 0
M  V30 5730 C 532.774 -1.91088 3.82974 0
M  V30 5731 C 532.1 -3.24789 4.24754 0
M  V30 5732 C 533.4 -1.22535 5.07723 0
M  V30 5733 H 535.094 -0.429093 2.96309 0
M  V30 5734 H 532.64 -0.204952 1.42534 0
M  V30 5735 H 534.593 -2.86258 3.09248 0
M  V30 5736 H 533.317 -2.6826 1.8629 0
M  V30 5737 H 531.976 -1.25297 3.44523 0
M  V30 5738 H 531.624 -3.72809 3.37672 0
M  V30 5739 H 531.324 -3.07538 5.00694 0
M  V30 5740 H 532.848 -3.94205 4.66299 0
M  V30 5741 H 534.262 -1.80783 5.4405 0
M  V30 5742 H 532.659 -1.1558 5.88864 0
M  V30 5743 H 533.729 -0.202692 4.84476 0
M  V30 5744 N 535.072 -1.5615 -0.213296 0
M  V30 5745 C 536.318 -1.79812 -0.937849 0
M  V30 5746 C 536.651 -0.631201 -1.83656 0
M  V30 5747 O 535.926 0.369165 -1.90964 0
M  V30 5748 C 536.209 -3.13613 -1.76972 0
M  V30 5749 C 536.062 -4.40766 -0.89695 0
M  V30 5750 C 537.381 -3.43931 -2.7459 0
M  V30 5751 H 534.5 -0.654138 -0.339518 0
M  V30 5752 H 537.142 -1.88877 -0.20623 0
M  V30 5753 H 535.292 -3.06015 -2.39347 0
M  V30 5754 H 536.964 -4.60392 -0.289306 0
M  V30 5755 H 535.207 -4.33326 -0.202756 0
M  V30 5756 H 535.878 -5.30843 -1.51358 0
M  V30 5757 H 538.354 -3.5171 -2.22349 0
M  V30 5758 H 537.23 -4.38706 -3.29891 0
M  V30 5759 H 537.491 -2.6651 -3.52739 0
M  V30 5760 N 536.55 0.480323 -1.50102 0
M  V30 5761 C 537.46 1.60547 -1.71061 0
M  V30 5762 C 538.476 1.63564 -0.593529 0
M  V30 5763 O 539.652 1.81604 -0.870751 0
M  V30 5764 C 536.717 2.96814 -1.79171 0
M  V30 5765 C 535.778 3.04259 -3.02861 0
M  V30 5766 C 535.011 4.34027 -3.10574 0
M  V30 5767 O 535.234 5.24009 -2.25323 0
M  V30 5768 O 534.168 4.46873 -4.03223 0
M  V30 5769 H 537.994 1.45788 -2.6642 0
M  V30 5770 H 535.579 0.658838 -1.34088 0
M  V30 5771 H 537.461 3.77765 -1.86738 0
M  V30 5772 H 536.136 3.11791 -0.869947 0
M  V30 5773 H 535.043 2.22419 -3.008 0
M  V30 5774 H 536.376 2.94216 -3.94586 0
M  V30 5775 N 538.028 1.39524 0.732853 0
M  V30 5776 C 538.976 1.38563 1.86824 0
M  V30 5777 C 539.97 0.268467 1.67259 0
M  V30 5778 O 541.176 0.438613 1.74574 0
M  V30 5779 H 537.551 0.432737 0.615014 0
M  V30 5780 H 539.522 2.34328 1.84751 0
M  V30 5781 C 538.271 1.2481 3.24527 0
M  V30 5782 H 537.594 2.10044 3.40179 0
M  V30 5783 H 539.034 1.28194 4.04156 0
M  V30 5784 C 537.493 -0.0432825 3.36872 0
M  V30 5785 O 538.023 -1.01268 3.88726 0
M  V30 5786 N 536.229 -0.107055 2.90403 0
M  V30 5787 H 535.776 0.682512 2.48394 0
M  V30 5788 H 535.734 -0.970618 2.99042 0
M  V30 5789 N 539.506 -0.963266 1.24736 0
M  V30 5790 C 540.453 -2.05857 1.04363 0
M  V30 5791 C 541.423 -1.6604 -0.0444951 0
M  V30 5792 O 542.608 -1.90477 0.110999 0
M  V30 5793 C 539.748 -3.38745 0.659235 0
M  V30 5794 C 538.861 -3.9173 1.82131 0
M  V30 5795 C 537.996 -5.12906 1.38208 0
M  V30 5796 C 537.035 -5.58098 2.51382 0
M  V30 5797 N 536.172 -6.7049 2.08295 0
M  V30 5798 H 541.012 -2.22616 1.98107 0
M  V30 5799 H 538.549 -1.09103 0.986661 0
M  V30 5800 H 540.507 -4.15107 0.417371 0
M  V30 5801 H 539.137 -3.21898 -0.241201 0
M  V30 5802 H 538.189 -3.11966 2.17672 0
M  V30 5803 H 539.501 -4.21225 2.67153 0
M  V30 5804 H 538.655 -5.96657 1.09935 0
M  V30 5805 H 537.394 -4.85105 0.502456 0
M  V30 5806 H 536.399 -4.72917 2.80409 0
M  V30 5807 H 537.624 -5.87911 3.39909 0
M  V30 5808 H 535.57 -6.44416 1.22737 0
M  V30 5809 H 535.487 -6.99458 2.86869 0
M  V30 5810 H 536.755 -7.57672 1.83175 0
M  V30 5811 N 540.985 -1.06182 -1.16461 0
M  V30 5812 C 542.232 -0.777863 -1.86964 0
M  V30 5813 C 542.56 0.695602 -1.81636 0
M  V30 5814 O 541.815 1.52532 -1.22607 0
M  V30 5815 C 542.114 -1.21633 -3.36066 0
M  V30 5816 C 541.78 -2.69371 -3.61594 0
M  V30 5817 C 540.442 -3.09727 -3.6827 0
M  V30 5818 C 542.794 -3.64791 -3.7226 0
M  V30 5819 C 540.122 -4.44345 -3.83112 0
M  V30 5820 C 542.474 -4.99155 -3.88623 0
M  V30 5821 C 541.138 -5.39149 -3.93541 0
M  V30 5822 H 540.408 -0.28464 -0.68415 0
M  V30 5823 H 543.055 -1.33071 -1.37711 0
M  V30 5824 H 541.36 -0.582651 -3.87443 0
M  V30 5825 H 543.057 -0.973682 -3.88999 0
M  V30 5826 H 539.647 -2.37124 -3.57029 0
M  V30 5827 H 543.831 -3.34746 -3.66413 0
M  V30 5828 H 539.087 -4.74819 -3.85172 0
M  V30 5829 H 543.261 -5.72976 -3.95817 0
M  V30 5830 H 540.888 -6.43464 -4.04794 0
M  V30 5831 N 542.463 1.3308 -0.844243 0
M  V30 5832 C 543.393 2.3161 -0.296493 0
M  V30 5833 C 544.374 1.59215 0.598707 0
M  V30 5834 O 545.559 1.87077 0.521134 0
M  V30 5835 C 542.689 3.43313 0.524762 0
M  V30 5836 C 541.643 4.27115 -0.275106 0
M  V30 5837 C 540.969 5.30483 0.670236 0
M  V30 5838 C 542.269 5.00443 -1.49514 0
M  V30 5839 H 543.963 2.77672 -1.11976 0
M  V30 5840 H 541.509 1.33496 -0.539899 0
M  V30 5841 H 543.462 4.11273 0.918298 0
M  V30 5842 H 542.186 2.95952 1.3813 0
M  V30 5843 H 540.845 3.60787 -0.650267 0
M  V30 5844 H 540.493 4.79379 1.52332 0
M  V30 5845 H 540.193 5.87435 0.139123 0
M  V30 5846 H 541.717 6.01308 1.06117 0
M  V30 5847 H 543.131 5.61141 -1.17447 0
M  V30 5848 H 541.528 5.67071 -1.96343 0
M  V30 5849 H 542.598 4.28906 -2.26202 0
M  V30 5850 N 543.941 0.601185 1.45683 0
M  V30 5851 C 544.871 -0.108824 2.33246 0
M  V30 5852 C 545.852 -0.865223 1.46451 0
M  V30 5853 O 547.037 -0.83704 1.75235 0
M  V30 5854 C 544.167 -1.11101 3.2905 0
M  V30 5855 C 543.121 -0.468244 4.25431 0
M  V30 5856 C 542.447 -1.57822 5.10878 0
M  V30 5857 C 543.747 0.606469 5.18767 0
M  V30 5858 H 545.441 0.622306 2.92861 0
M  V30 5859 H 542.987 0.300714 1.40825 0
M  V30 5860 H 544.94 -1.61622 3.89174 0
M  V30 5861 H 543.664 -1.87265 2.67581 0
M  V30 5862 H 542.323 0.0160484 3.66596 0
M  V30 5863 H 541.971 -2.32998 4.45781 0
M  V30 5864 H 541.671 -1.15369 5.76163 0
M  V30 5865 H 543.195 -2.08583 5.73869 0
M  V30 5866 H 544.609 0.185589 5.73 0
M  V30 5867 H 543.006 0.952381 5.92494 0
M  V30 5868 H 544.076 1.48559 4.61582 0
M  V30 5869 N 545.419 -1.53889 0.339982 0
M  V30 5870 C 546.83 -1.86139 -0.144671 0
M  V30 5871 C 547.181 -1.2613 -1.50285 0
M  V30 5872 O 546.306 -0.573515 -2.08662 0
M  V30 5873 C 546.901 -3.37728 -0.269285 0
M  V30 5874 C 545.46 -3.69868 -0.698168 0
M  V30 5875 C 544.607 -2.76777 0.170249 0
M  V30 5876 H 547.558 -1.48503 0.559704 0
M  V30 5877 H 547.579 -3.64331 -1.0974 0
M  V30 5878 H 547.091 -3.81375 0.719366 0
M  V30 5879 H 545.192 -3.31764 -1.69597 0
M  V30 5880 H 545.305 -4.76582 -0.490533 0
M  V30 5881 H 543.669 -2.52188 -0.356844 0
M  V30 5882 H 544.452 -3.23253 1.15597 0
M  V30 5883 N 546.897 -0.0685191 -1.57451 0
M  V30 5884 C 548.122 0.613919 -1.98106 0
M  V30 5885 C 548.547 1.62551 -0.946501 0
M  V30 5886 O 547.905 1.81085 0.0882824 0
M  V30 5887 C 547.953 1.26189 -3.378 0
M  V30 5888 O 547.057 2.37773 -3.36954 0
M  V30 5889 H 546.398 0.158163 -0.644888 0
M  V30 5890 H 548.928 -0.142063 -2.04106 0
M  V30 5891 H 548.938 1.60951 -3.74912 0
M  V30 5892 H 547.613 0.520625 -4.12629 0
M  V30 5893 H 546.19 2.04829 -3.11608 0
M  V30 5894 N 548.375 1.56261 0.205012 0
M  V30 5895 C 549.338 1.92908 1.23771 0
M  V30 5896 C 550.338 0.809208 1.38955 0
M  V30 5897 O 551.528 1.07676 1.36936 0
M  V30 5898 C 548.66 2.19442 2.60879 0
M  V30 5899 H 549.853 2.85287 0.924728 0
M  V30 5900 H 547.406 1.49798 0.446125 0
M  V30 5901 H 548.141 1.29668 2.97248 0
M  V30 5902 H 547.926 3.0104 2.51232 0
M  V30 5903 H 549.416 2.48833 3.35368 0
M  V30 5904 N 549.853 -0.472356 1.50355 0
M  V30 5905 C 550.801 -1.59126 1.69651 0
M  V30 5906 C 551.795 -1.59793 0.56237 0
M  V30 5907 O 553.001 -1.63957 0.742832 0
M  V30 5908 H 549.376 -0.528008 0.535454 0
M  V30 5909 H 551.347 -1.40013 2.63513 0
M  V30 5910 C 550.096 -2.97075 1.8067 0
M  V30 5911 H 549.419 -2.9728 2.67329 0
M  V30 5912 H 550.859 -3.74825 1.98197 0
M  V30 5913 C 549.318 -3.32247 0.558016 0
M  V30 5914 O 549.848 -4.00553 -0.303399 0
M  V30 5915 N 548.054 -2.87659 0.412415 0
M  V30 5916 H 547.601 -2.32246 1.11443 0
M  V30 5917 H 547.559 -3.11556 -0.421908 0
M  V30 5918 N 551.331 -1.39911 -0.725443 0
M  V30 5919 C 552.556 -1.41137 -1.5197 0
M  V30 5920 C 552.981 -0.010262 -1.88097 0
M  V30 5921 O 552.339 0.979184 -1.52583 0
M  V30 5922 C 552.387 -2.2994 -2.77777 0
M  V30 5923 O 551.491 -1.73586 -3.74088 0
M  V30 5924 H 550.832 -0.480219 -0.458569 0
M  V30 5925 H 553.362 -1.84023 -0.894249 0
M  V30 5926 H 553.372 -2.44785 -3.26411 0
M  V30 5927 H 552.047 -3.31759 -2.50816 0
M  V30 5928 H 550.624 -1.68035 -3.32894 0
M  V30 5929 N 552.809 0.956637 -1.25245 0
M  V30 5930 C 554.056 1.701 -1.09874 0
M  V30 5931 C 554.384 1.91128 0.36062 0
M  V30 5932 O 553.639 1.47837 1.28229 0
M  V30 5933 C 553.938 3.08996 -1.79601 0
M  V30 5934 C 553.604 3.07774 -3.29523 0
M  V30 5935 C 552.266 3.07149 -3.70423 0
M  V30 5936 C 554.618 3.01257 -4.25316 0
M  V30 5937 C 551.946 2.97752 -5.0553 0
M  V30 5938 C 554.298 2.93403 -5.60444 0
M  V30 5939 C 552.962 2.91111 -6.00675 0
M  V30 5940 H 552.232 0.62244 -0.402056 0
M  V30 5941 H 554.879 1.1178 -1.55491 0
M  V30 5942 H 553.184 3.70848 -1.26408 0
M  V30 5943 H 554.881 3.65407 -1.65162 0
M  V30 5944 H 551.471 3.09032 -2.9698 0
M  V30 5945 H 555.655 3.00861 -3.9471 0
M  V30 5946 H 550.911 2.94346 -5.35883 0
M  V30 5947 H 555.085 2.87321 -6.34366 0
M  V30 5948 H 552.712 2.83586 -7.05325 0
M  V30 5949 N 554.287 1.06798 1.15896 0
M  V30 5950 C 555.527 0.797041 1.8822 0
M  V30 5951 C 555.891 -0.664549 1.80133 0
M  V30 5952 O 557.092 -1.0503 2.47431 0
M  V30 5953 C 555.363 1.28431 3.33527 0
M  V30 5954 S 556.922 1.14319 4.23647 0
M  V30 5955 H 553.74 0.288988 0.649621 0
M  V30 5956 H 556.342 1.36594 1.39865 0
M  V30 5957 H 555.046 2.34286 3.36954 0
M  V30 5958 H 554.577 0.710371 3.86933 0
M  V30 5959 H 556.592 0.0772467 4.9614 0
M  V30 5960 N 555.766 -1.3263 0.851289 0
M  V30 5961 C 556.996 -2.01271 0.466222 0
M  V30 5962 C 557.404 -1.64156 -0.940714 0
M  V30 5963 O 556.747 -0.857109 -1.62479 0
M  V30 5964 C 556.809 -3.55695 0.521672 0
M  V30 5965 C 556.473 -4.16227 1.88691 0
M  V30 5966 C 557.47 -4.34699 2.85189 0
M  V30 5967 C 555.155 -4.52377 2.18313 0
M  V30 5968 C 557.149 -4.88484 4.09465 0
M  V30 5969 C 554.836 -5.05868 3.42843 0
M  V30 5970 C 555.834 -5.23869 4.38235 0
M  V30 5971 O 555.522 -5.76218 5.6056 0
M  V30 5972 H 555.254 -0.651034 0.18202 0
M  V30 5973 H 557.808 -1.7026 1.14894 0
M  V30 5974 H 556.038 -3.86086 -0.217888 0
M  V30 5975 H 557.727 -4.05613 0.152682 0
M  V30 5976 H 558.493 -4.07107 2.63607 0
M  V30 5977 H 554.372 -4.37652 1.44851 0
M  V30 5978 H 557.916 -5.02451 4.83931 0
M  V30 5979 H 553.813 -5.32891 3.64277 0
M  V30 5980 H 554.581 -5.94616 5.62471 0
M  V30 5981 N 557.244 -0.608902 -1.45362 0
M  V30 5982 C 558.154 0.110969 -2.34337 0
M  V30 5983 C 559.17 0.859007 -1.51318 0
M  V30 5984 O 560.346 0.816296 -1.84116 0
M  V30 5985 C 557.411 1.09494 -3.28956 0
M  V30 5986 C 556.472 0.348718 -4.27881 0
M  V30 5987 C 555.705 1.28582 -5.17979 0
M  V30 5988 O 555.928 2.52369 -5.11533 0
M  V30 5989 O 554.862 0.782172 -5.96796 0
M  V30 5990 H 558.688 -0.620258 -2.97299 0
M  V30 5991 H 556.273 -0.36916 -1.44767 0
M  V30 5992 H 558.155 1.66163 -3.87257 0
M  V30 5993 H 556.83 1.80717 -2.68557 0
M  V30 5994 H 555.737 -0.260465 -3.73192 0
M  V30 5995 H 557.07 -0.323049 -4.91139 0
M  V30 5996 N 558.722 1.53707 -0.348139 0
M  V30 5997 C 559.67 2.26671 0.521808 0
M  V30 5998 C 560.664 1.28988 1.09811 0
M  V30 5999 O 561.87 1.4668 1.04332 0
M  V30 6000 H 558.245 0.728387 0.186968 0
M  V30 6001 H 560.216 2.98176 -0.115563 0
M  V30 6002 C 558.965 3.05591 1.6586 0
M  V30 6003 H 558.288 3.80589 1.22443 0
M  V30 6004 H 559.728 3.59851 2.24239 0
M  V30 6005 C 558.187 2.15366 2.59073 0
M  V30 6006 O 558.717 1.7528 3.61441 0
M  V30 6007 N 556.923 1.80352 2.27863 0
M  V30 6008 H 556.47 2.13149 1.44656 0
M  V30 6009 H 556.428 1.20268 2.90488 0
M  V30 6010 N 560.2 0.0768682 1.57412 0
M  V30 6011 C 561.11 -0.903207 2.16516 0
M  V30 6012 C 562.126 -1.32341 1.12968 0
M  V30 6013 O 563.302 -1.39507 1.45258 0
M  V30 6014 C 560.367 -2.1508 2.71922 0
M  V30 6015 C 559.428 -1.78653 3.90361 0
M  V30 6016 C 558.661 -2.97465 4.43114 0
M  V30 6017 O 558.884 -4.11638 3.94854 0
M  V30 6018 O 557.818 -2.76987 5.3438 0
M  V30 6019 H 561.644 -0.430427 3.00634 0
M  V30 6020 H 559.229 -0.146485 1.4868 0
M  V30 6021 H 561.111 -2.8823 3.07411 0
M  V30 6022 H 559.786 -2.61446 1.9086 0
M  V30 6023 H 558.693 -1.0274 3.59716 0
M  V30 6024 H 560.026 -1.37066 4.7273 0
M  V30 6025 N 561.678 -1.56367 -0.196722 0
M  V30 6026 C 562.608 -1.97442 -1.24655 0
M  V30 6027 C 563.589 -0.846147 -1.47561 0
M  V30 6028 O 564.774 -1.11035 -1.59326 0
M  V30 6029 C 561.904 -2.31253 -2.59112 0
M  V30 6030 C 560.858 -3.46804 -2.50821 0
M  V30 6031 C 560.184 -3.66286 -3.89536 0
M  V30 6032 C 561.484 -4.8104 -2.03465 0
M  V30 6033 H 563.178 -2.85388 -0.905216 0
M  V30 6034 H 560.724 -1.37304 -0.434002 0
M  V30 6035 H 562.677 -2.58583 -3.32736 0
M  V30 6036 H 561.401 -1.40188 -2.94983 0
M  V30 6037 H 560.06 -3.19563 -1.79653 0
M  V30 6038 H 559.708 -2.72555 -4.22756 0
M  V30 6039 H 559.408 -4.4402 -3.84864 0
M  V30 6040 H 560.932 -3.9599 -4.64784 0
M  V30 6041 H 562.346 -5.07411 -2.66846 0
M  V30 6042 H 560.743 -5.62232 -2.09798 0
M  V30 6043 H 561.813 -4.74732 -0.98781 0
M  V30 6044 N 563.156 0.464375 -1.50603 0
M  V30 6045 C 564.119 1.54393 -1.69397 0
M  V30 6046 C 565.119 1.50566 -0.564504 0
M  V30 6047 O 566.309 1.53066 -0.831645 0
M  V30 6048 C 563.441 2.9401 -1.72543 0
M  V30 6049 H 564.634 1.39044 -2.65719 0
M  V30 6050 H 562.187 0.69122 -1.40185 0
M  V30 6051 H 562.922 3.14795 -0.77938 0
M  V30 6052 H 562.707 2.98195 -2.54602 0
M  V30 6053 H 564.197 3.72375 -1.89015 0
M  V30 6054 N 564.634 1.40294 0.718013 0
M  V30 6055 C 565.881 1.3844 1.47786 0
M  V30 6056 C 566.209 -0.0140838 1.94495 0
M  V30 6057 O 565.464 -0.998165 1.68331 0
M  V30 6058 C 565.763 2.31814 2.72024 0
M  V30 6059 C 565.429 3.79117 2.44093 0
M  V30 6060 C 564.091 4.19249 2.36185 0
M  V30 6061 C 566.443 4.72212 2.20602 0
M  V30 6062 C 563.771 5.50516 2.02851 0
M  V30 6063 C 566.123 6.03775 1.88781 0
M  V30 6064 C 564.787 6.42953 1.79354 0
M  V30 6065 H 564.057 0.506588 0.540786 0
M  V30 6066 H 566.704 1.72929 0.822663 0
M  V30 6067 H 565.009 1.90501 3.42369 0
M  V30 6068 H 566.706 2.27664 3.30106 0
M  V30 6069 H 563.296 3.47318 2.51133 0
M  V30 6070 H 567.48 4.42026 2.25669 0
M  V30 6071 H 562.736 5.79776 1.94088 0
M  V30 6072 H 566.91 6.75428 1.69617 0
M  V30 6073 H 564.537 7.44584 1.53291 0
M  V30 6074 N 566.112 -0.949982 1.2575 0
M  V30 6075 C 567.042 -2.06483 1.09028 0
M  V30 6076 C 568.023 -1.701 -0.00201532 0
M  V30 6077 O 569.208 -1.93469 0.168383 0
M  V30 6078 C 566.338 -3.39899 0.71316 0
M  V30 6079 C 565.292 -3.90309 1.75621 0
M  V30 6080 C 564.618 -5.20274 1.23365 0
M  V30 6081 C 565.918 -4.16169 3.15596 0
M  V30 6082 H 567.612 -2.20731 2.02283 0
M  V30 6083 H 565.158 -1.06066 0.973964 0
M  V30 6084 H 567.111 -4.17346 0.58309 0
M  V30 6085 H 565.835 -3.25602 -0.255091 0
M  V30 6086 H 564.494 -3.15035 1.8748 0
M  V30 6087 H 564.142 -5.02351 0.255491 0
M  V30 6088 H 563.842 -5.54971 1.93082 0
M  V30 6089 H 565.366 -6.00314 1.11607 0
M  V30 6090 H 566.78 -4.84259 3.06864 0
M  V30 6091 H 565.177 -4.62131 3.82825 0
M  V30 6092 H 566.247 -3.22273 3.6231 0
M  V30 6093 N 567.59 -1.07411 -1.15328 0
M  V30 6094 C 568.815 -0.818856 -1.90551 0
M  V30 6095 C 569.24 0.622194 -1.77512 0
M  V30 6096 O 568.598 1.43484 -1.10824 0
M  V30 6097 C 568.646 -1.23267 -3.38877 0
M  V30 6098 O 567.75 -0.378345 -4.10661 0
M  V30 6099 H 567.091 -0.29827 -0.593238 0
M  V30 6100 H 569.621 -1.43289 -1.46046 0
M  V30 6101 H 569.631 -1.20912 -3.89672 0
M  V30 6102 H 568.306 -2.28226 -3.47686 0
M  V30 6103 H 566.883 -0.464437 -3.69996 0
M  V30 6104 N 569.068 1.32177 -0.85831 0
M  V30 6105 C 570.484 1.49873 -0.548656 0
M  V30 6106 C 570.684 1.79278 0.919874 0
M  V30 6107 O 569.74 1.86451 1.70271 0
M  V30 6108 C 571.053 2.64043 -1.4388 0
M  V30 6109 C 572.601 2.77928 -1.43961 0
M  V30 6110 C 573.076 3.95182 -2.31506 0
M  V30 6111 N 574.567 4.0245 -2.29321 0
M  V30 6112 C 575.302 4.9242 -2.93786 0
M  V30 6113 N 574.798 5.87373 -3.67376 0
M  V30 6114 N 576.591 4.85572 -2.83155 0
M  V30 6115 H 568.742 1.11357 -1.80868 0
M  V30 6116 H 571.005 0.549175 -0.772729 0
M  V30 6117 H 570.711 2.49055 -2.48324 0
M  V30 6118 H 570.585 3.59912 -1.12885 0
M  V30 6119 H 572.972 2.92338 -0.402813 0
M  V30 6120 H 573.053 1.82762 -1.78974 0
M  V30 6121 H 572.697 3.81531 -3.35256 0
M  V30 6122 H 572.627 4.89633 -1.93823 0
M  V30 6123 H 575.118 3.34507 -1.75822 0
M  V30 6124 H 575.431 6.52728 -4.13722 0
M  V30 6125 H 573.776 5.87388 -3.71484 0
M  V30 6126 H 576.967 4.10363 -2.25211 0
M  V30 6127 H 577.14 5.55486 -3.33676 0
M  V30 6128 N 570.547 0.616602 1.45037 0
M  V30 6129 C 571.824 0.0469086 1.95544 0
M  V30 6130 C 572.204 -1.42345 1.55888 0
M  V30 6131 O 571.552 -2.13055 0.825824 0
M  V30 6132 C 571.762 0.254489 3.48071 0
M  V30 6133 C 573.11 0.140025 4.24369 0
M  V30 6134 O 574.134 0.185084 3.55719 0
M  V30 6135 O 572.993 0.0327034 5.4649 0
M  V30 6136 H 570.087 -0.0306051 0.826433 0
M  V30 6137 H 572.633 0.687293 1.55159 0
M  V30 6138 H 571.405 1.27532 3.69934 0
M  V30 6139 H 571.028 -0.42073 3.95368 0
M  V30 6140 N 572.025 -1.5352 0.356285 0
M  V30 6141 C 572.935 -2.29151 -0.502712 0
M  V30 6142 C 573.951 -1.34753 -1.1008 0
M  V30 6143 O 575.127 -1.67803 -1.11374 0
M  V30 6144 C 572.192 -3.05911 -1.63154 0
M  V30 6145 C 571.253 -4.15958 -1.06194 0
M  V30 6146 C 570.486 -4.8905 -2.13696 0
M  V30 6147 O 570.709 -4.61919 -3.34645 0
M  V30 6148 O 569.643 -5.75202 -1.77275 0
M  V30 6149 H 573.469 -3.03492 0.112466 0
M  V30 6150 H 571.054 -1.4891 0.120942 0
M  V30 6151 H 572.936 -3.53874 -2.28804 0
M  V30 6152 H 571.611 -2.34415 -2.23229 0
M  V30 6153 H 570.518 -3.7227 -0.369603 0
M  V30 6154 H 571.851 -4.89593 -0.505872 0
M  V30 6155 N 573.503 -0.0852151 -1.57369 0
M  V30 6156 C 574.413 0.891712 -2.16992 0
M  V30 6157 C 575.429 1.3174 -1.13669 0
M  V30 6158 O 576.605 1.38735 -1.45995 0
M  V30 6159 C 573.67 2.13635 -2.73059 0
M  V30 6160 C 572.731 1.7658 -3.91303 0
M  V30 6161 C 571.964 2.95111 -4.44686 0
M  V30 6162 O 572.187 4.09539 -3.97032 0
M  V30 6163 O 571.121 2.74149 -5.35841 0
M  V30 6164 H 574.947 0.414477 -3.00858 0
M  V30 6165 H 572.532 0.138598 -1.48756 0
M  V30 6166 H 574.414 2.86595 -3.08935 0
M  V30 6167 H 573.089 2.6043 -1.92244 0
M  V30 6168 H 571.996 1.00831 -3.60255 0
M  V30 6169 H 573.329 1.34557 -4.7345 0
M  V30 6170 N 574.981 1.5647 0.188427 0
M  V30 6171 C 576.258 1.71857 0.934058 0
M  V30 6172 C 576.638 0.641867 2.01105 0
M  V30 6173 O 575.986 -0.346098 2.25864 0
M  V30 6174 C 576.196 3.14431 1.5144 0
M  V30 6175 C 577.544 3.74869 1.99396 0
M  V30 6176 O 578.568 3.17601 1.61269 0
M  V30 6177 O 577.427 4.75387 2.69573 0
M  V30 6178 H 574.521 0.701186 0.438483 0
M  V30 6179 H 577.067 1.68768 0.177599 0
M  V30 6180 H 575.839 3.8427 0.738416 0
M  V30 6181 H 575.462 3.21775 2.33552 0
M  V30 6182 N 576.459 -0.456382 1.50847 0
M  V30 6183 C 577.369 -1.57805 1.73594 0
M  V30 6184 C 578.385 -1.62599 0.619476 0
M  V30 6185 O 579.561 -1.80195 0.899532 0
M  V30 6186 C 576.626 -2.93926 1.8387 0
M  V30 6187 C 575.687 -2.99402 3.07663 0
M  V30 6188 C 574.92 -4.29031 3.1744 0
M  V30 6189 O 575.143 -5.20358 2.33631 0
M  V30 6190 O 574.077 -4.40401 4.10281 0
M  V30 6191 H 577.903 -1.41531 2.68705 0
M  V30 6192 H 575.488 -0.637422 1.3512 0
M  V30 6193 H 577.37 -3.74747 1.92725 0
M  V30 6194 H 576.045 -3.10368 0.91944 0
M  V30 6195 H 574.952 -2.17606 3.043 0
M  V30 6196 H 576.285 -2.87901 3.99216 0
M  V30 6197 N 577.937 -1.40673 -0.710563 0
M  V30 6198 C 578.9 -1.4108 -1.80635 0
M  V30 6199 C 579.9 -0.303783 -1.57904 0
M  V30 6200 O 581.09 -0.562937 -1.64853 0
M  V30 6201 C 578.222 -1.20748 -3.18799 0
M  V30 6202 H 579.415 -2.38612 -1.81671 0
M  V30 6203 H 576.968 -1.26595 -0.916704 0
M  V30 6204 H 577.703 -0.239964 -3.23411 0
M  V30 6205 H 577.488 -2.00941 -3.36698 0
M  V30 6206 H 578.978 -1.23833 -3.98817 0
M  V30 6207 N 579.415 0.9433 -1.26252 0
M  V30 6208 C 580.692 1.66639 -1.02424 0
M  V30 6209 C 581.072 2.06335 0.446006 0
M  V30 6210 O 580.42 1.78551 1.42589 0
M  V30 6211 C 580.63 2.88019 -1.97094 0
M  V30 6212 C 581.978 3.59718 -2.25584 0
M  V30 6213 O 583.002 2.9812 -1.94943 0
M  V30 6214 O 581.861 4.7066 -2.77743 0
M  V30 6215 H 578.955 0.729643 -0.389294 0
M  V30 6216 H 581.501 0.995218 -1.37454 0
M  V30 6217 H 580.273 2.5556 -2.96319 0
M  V30 6218 H 579.896 3.62863 -1.62532 0
M  V30 6219 N 580.893 1.08022 1.14757 0
M  V30 6220 C 582.141 0.805913 1.85336 0
M  V30 6221 C 582.462 -0.670162 1.83122 0
M  V30 6222 O 581.732 -1.48567 1.2769 0
M  V30 6223 H 580.312 0.295138 0.686223 0
M  V30 6224 H 582.974 1.36538 1.3908 0
M  V30 6225 H 582.07 1.14655 2.90277 0
M  V30 6226 N 582.371 -1.3172 0.865308 0
M  V30 6227 C 583.648 -1.91574 0.394789 0
M  V30 6228 C 584.028 -1.78769 -1.12271 0
M  V30 6229 O 583.376 -1.19245 -1.94918 0
M  V30 6230 C 583.586 -3.37957 0.870982 0
M  V30 6231 C 584.934 -4.15073 0.894384 0
M  V30 6232 O 585.958 -3.4672 0.816325 0
M  V30 6233 O 584.817 -5.37151 1.00651 0
M  V30 6234 H 581.911 -0.818649 0.117229 0
M  V30 6235 H 584.457 -1.4042 0.952913 0
M  V30 6236 H 583.229 -3.41269 1.91444 0
M  V30 6237 H 582.852 -3.96534 0.290907 0
M  V30 6238 N 583.85 -0.624285 -1.44708 0
M  V30 6239 C 584.782 0.12305 -2.28869 0
M  V30 6240 C 585.795 0.81557 -1.40898 0
M  V30 6241 O 586.984 0.678162 -1.65116 0
M  V30 6242 C 584.084 1.19612 -3.1709 0
M  V30 6243 C 583.257 0.587452 -4.33437 0
M  V30 6244 C 582.316 1.55358 -5.02743 0
M  V30 6245 O 581.341 1.07338 -5.58988 0
M  V30 6246 N 582.543 2.88798 -5.03563 0
M  V30 6247 H 585.308 -0.599193 -2.93649 0
M  V30 6248 H 582.87 -0.464954 -1.5508 0
M  V30 6249 H 584.861 1.84261 -3.60319 0
M  V30 6250 H 583.432 1.82067 -2.54107 0
M  V30 6251 H 582.652 -0.237509 -3.93484 0
M  V30 6252 H 583.94 0.161326 -5.08544 0
M  V30 6253 H 583.338 3.30399 -4.59188 0
M  V30 6254 H 581.894 3.48826 -5.50603 0
M  V30 6255 N 585.328 1.53329 -0.364422 0
M  V30 6256 C 586.605 1.93557 0.281962 0
M  V30 6257 C 586.985 1.29786 1.6649 0
M  V30 6258 O 586.333 0.456512 2.23893 0
M  V30 6259 C 586.543 3.47405 0.333331 0
M  V30 6260 C 587.891 4.20699 0.574231 0
M  V30 6261 O 588.915 3.53779 0.414588 0
M  V30 6262 O 587.774 5.39287 0.885002 0
M  V30 6263 H 584.868 0.809573 0.168881 0
M  V30 6264 H 587.414 1.64494 -0.417121 0
M  V30 6265 H 586.186 3.86091 -0.636326 0
M  V30 6266 H 585.809 3.82697 1.07836 0
M  V30 6267 N 586.806 0.0935595 1.57322 0
M  V30 6268 C 588.054 -0.569383 1.93913 0
M  V30 6269 C 588.375 -1.68817 0.976009 0
M  V30 6270 O 587.645 -1.9588 0.0278099 0
M  V30 6271 H 586.225 -0.21332 0.715894 0
M  V30 6272 H 588.887 0.156531 1.9427 0
M  V30 6273 H 587.983 -0.980577 2.96296 0
M  V30 6274 N 588.284 -1.56567 -0.180126 0
M  V30 6275 C 589.7 -1.50488 -0.531559 0
M  V30 6276 C 589.9 -0.796267 -1.851 0
M  V30 6277 O 588.956 -0.352978 -2.50021 0
M  V30 6278 C 590.269 -2.95201 -0.572456 0
M  V30 6279 C 591.817 -3.05957 -0.660264 0
M  V30 6280 C 592.292 -4.5211 -0.732135 0
M  V30 6281 N 593.783 -4.56322 -0.795262 0
M  V30 6282 C 594.518 -5.66742 -0.871296 0
M  V30 6283 N 594.014 -6.86815 -0.908708 0
M  V30 6284 N 595.807 -5.54691 -0.909639 0
M  V30 6285 H 587.958 -2.01045 0.685165 0
M  V30 6286 H 590.221 -0.915536 0.245962 0
M  V30 6287 H 589.927 -3.50165 0.328208 0
M  V30 6288 H 589.801 -3.49369 -1.422 0
M  V30 6289 H 592.188 -2.51032 -1.55136 0
M  V30 6290 H 592.269 -2.54888 0.215783 0
M  V30 6291 H 591.913 -5.07664 0.154664 0
M  V30 6292 H 591.843 -5.00926 -1.6242 0
M  V30 6293 H 594.334 -3.69868 -0.77499 0
M  V30 6294 H 594.647 -7.66718 -0.967654 0
M  V30 6295 H 592.992 -6.89443 -0.877132 0
M  V30 6296 H 596.183 -4.59804 -0.877353 0
M  V30 6297 H 596.356 -6.40768 -0.965434 0
M  V30 6298 N 589.762 0.448376 -1.51087 0
M  V30 6299 C 590.987 1.22605 -1.6728 0
M  V30 6300 C 591.412 1.84524 -0.365045 0
M  V30 6301 O 590.77 1.6832 0.673642 0
M  V30 6302 C 590.818 2.29393 -2.78229 0
M  V30 6303 O 589.922 3.34608 -2.41063 0
M  V30 6304 H 589.263 0.359705 -0.558129 0
M  V30 6305 H 591.793 0.530903 -1.97592 0
M  V30 6306 H 591.803 2.74352 -3.01986 0
M  V30 6307 H 590.478 1.83701 -3.73131 0
M  V30 6308 H 589.055 2.95202 -2.27838 0
M  V30 6309 N 591.24 1.41047 0.703093 0
M  V30 6310 C 592.656 1.23351 1.01275 0
M  V30 6311 C 592.856 0.11754 2.01157 0
M  V30 6312 O 591.912 -0.520518 2.47077 0
M  V30 6313 C 593.225 2.58001 1.54454 0
M  V30 6314 C 594.773 2.65119 1.66376 0
M  V30 6315 C 595.248 4.00067 2.22958 0
M  V30 6316 N 596.739 4.01875 2.30328 0
M  V30 6317 C 597.474 5.03087 2.75119 0
M  V30 6318 N 596.97 6.14692 3.19571 0
M  V30 6319 N 598.763 4.90451 2.74616 0
M  V30 6320 H 590.914 2.1236 0.0412686 0
M  V30 6321 H 593.177 0.944543 0.08089 0
M  V30 6322 H 592.883 3.40378 0.88521 0
M  V30 6323 H 592.757 2.79962 2.52786 0
M  V30 6324 H 595.144 1.83106 2.31422 0
M  V30 6325 H 595.225 2.46975 0.666089 0
M  V30 6326 H 594.869 4.82526 1.58529 0
M  V30 6327 H 594.799 4.15547 3.23462 0
M  V30 6328 H 597.29 3.21291 1.98949 0
M  V30 6329 H 597.603 6.87799 3.52352 0
M  V30 6330 H 595.948 6.18239 3.17498 0
M  V30 6331 H 599.139 4.0235 2.39233 0
M  V30 6332 H 599.312 5.6947 3.09206 0
M  V30 6333 N 592.718 -0.936591 1.26751 0
M  V30 6334 C 593.995 -1.66094 1.03306 0
M  V30 6335 C 594.375 -2.06568 -0.435058 0
M  V30 6336 O 593.723 -1.79305 -1.41641 0
M  V30 6337 C 593.933 -2.86969 1.98619 0
M  V30 6338 C 595.281 -3.58516 2.27489 0
M  V30 6339 O 596.305 -2.97082 1.96522 0
M  V30 6340 O 595.164 -4.69181 2.80235 0
M  V30 6341 H 592.258 -0.727568 0.393158 0
M  V30 6342 H 594.804 -0.987914 1.3798 0
M  V30 6343 H 593.576 -2.53985 2.9767 0
M  V30 6344 H 593.199 -3.61996 1.64454 0
M  V30 6345 N 594.196 -1.08629 -1.14182 0
M  V30 6346 C 595.444 -0.815731 -1.84906 0
M  V30 6347 C 595.765 0.660441 -1.83475 0
M  V30 6348 O 595.035 1.47888 -1.28476 0
M  V30 6349 H 593.615 -0.298773 -0.684648 0
M  V30 6350 H 596.277 -1.37274 -1.38354 0
M  V30 6351 H 595.373 -1.16193 -2.89665 0
M  V30 6352 N 595.674 1.31259 -0.872281 0
M  V30 6353 C 596.604 2.30929 -0.345554 0
M  V30 6354 C 597.585 1.60449 0.5648 0
M  V30 6355 O 598.77 1.8814 0.481335 0
M  V30 6356 C 595.9 3.44348 0.451823 0
M  V30 6357 C 594.854 4.26435 -0.365641 0
M  V30 6358 C 594.18 5.31785 0.557562 0
M  V30 6359 C 595.48 4.97159 -1.60095 0
M  V30 6360 H 597.174 2.75234 -1.17841 0
M  V30 6361 H 594.72 1.3232 -0.568094 0
M  V30 6362 H 596.673 4.13128 0.830854 0
M  V30 6363 H 595.397 2.98816 1.31821 0
M  V30 6364 H 594.056 3.59326 -0.726649 0
M  V30 6365 H 593.704 4.82502 1.4213 0
M  V30 6366 H 593.404 5.87598 0.0144878 0
M  V30 6367 H 594.928 6.03424 0.933387 0
M  V30 6368 H 596.342 5.58523 -1.29323 0
M  V30 6369 H 594.739 5.62779 -2.08327 0
M  V30 6370 H 595.809 4.24012 -2.35249 0
M  V30 6371 N 597.152 0.631951 1.44375 0
M  V30 6372 C 598.377 0.142146 2.06912 0
M  V30 6373 C 598.802 -1.17456 1.4692 0
M  V30 6374 O 598.16 -1.72074 0.570975 0
M  V30 6375 C 598.208 0.0417952 3.60576 0
M  V30 6376 O 597.312 -1.00194 4.00044 0
M  V30 6377 H 596.653 0.0851491 0.658518 0
M  V30 6378 H 599.183 0.868863 1.85235 0
M  V30 6379 H 599.193 -0.148517 4.0773 0
M  V30 6380 H 597.868 1.0031 4.03622 0
M  V30 6381 H 596.445 -0.786131 3.64519 0
M  V30 6382 N 598.631 -1.53133 0.372548 0
M  V30 6383 C 600.042 -1.86404 -0.105155 0
M  V30 6384 C 600.393 -1.29289 -1.47576 0
M  V30 6385 O 599.518 -0.617646 -2.07398 0
M  V30 6386 C 600.113 -3.38223 -0.197588 0
M  V30 6387 C 598.672 -3.71266 -0.619556 0
M  V30 6388 C 597.819 -2.76353 0.228919 0
M  V30 6389 H 600.77 -1.47282 0.591077 0
M  V30 6390 H 600.791 -3.66577 -1.01987 0
M  V30 6391 H 600.303 -3.79763 0.800099 0
M  V30 6392 H 598.404 -3.35287 -1.62522 0
M  V30 6393 H 598.517 -4.77515 -0.389332 0
M  V30 6394 H 596.881 -2.52888 -0.303271 0
M  V30 6395 H 597.664 -3.20728 1.22428 0
M  V30 6396 N 600.109 -0.101901 -1.5727 0
M  V30 6397 C 601.041 0.884723 -2.11436 0
M  V30 6398 C 602.054 1.24149 -1.05314 0
M  V30 6399 O 603.243 1.19341 -1.3274 0
M  V30 6400 C 600.343 2.19179 -2.58484 0
M  V30 6401 C 599.516 2.00933 -3.88516 0
M  V30 6402 C 598.575 3.15213 -4.2134 0
M  V30 6403 O 597.601 2.88877 -4.90448 0
M  V30 6404 N 598.803 4.41174 -3.77288 0
M  V30 6405 H 601.568 0.422058 -2.96713 0
M  V30 6406 H 599.129 0.0830128 -1.61687 0
M  V30 6407 H 601.121 2.94593 -2.77484 0
M  V30 6408 H 599.691 2.56847 -1.7818 0
M  V30 6409 H 598.911 1.09809 -3.78597 0
M  V30 6410 H 600.199 1.86026 -4.73573 0
M  V30 6411 H 599.597 4.6545 -3.21516 0
M  V30 6412 H 598.154 5.13515 -4.01429 0
M  V30 6413 N 601.587 1.56661 0.17182 0
M  V30 6414 C 602.55 1.9549 1.19651 0
M  V30 6415 C 603.55 0.838501 1.37207 0
M  V30 6416 O 604.74 1.10556 1.34622 0
M  V30 6417 C 601.872 2.24927 2.56166 0
M  V30 6418 H 603.065 2.87184 0.864007 0
M  V30 6419 H 600.618 1.50711 0.41425 0
M  V30 6420 H 601.353 1.35944 2.94431 0
M  V30 6421 H 601.138 3.06301 2.4479 0
M  V30 6422 H 602.628 2.55891 3.30014 0
M  V30 6423 N 603.065 -0.440357 1.51323 0
M  V30 6424 C 604.481 -0.7766 1.39431 0
M  V30 6425 C 604.681 -1.95838 0.474296 0
M  V30 6426 O 603.737 -2.52398 -0.0716692 0
M  V30 6427 C 605.05 -1.05981 2.81405 0
M  V30 6428 C 606.598 -1.16442 2.90534 0
M  V30 6429 C 607.073 -1.48058 4.33408 0
M  V30 6430 N 608.564 -1.54988 4.36501 0
M  V30 6431 C 609.299 -1.81017 5.44078 0
M  V30 6432 N 608.795 -2.04858 6.61819 0
M  V30 6433 N 610.588 -1.82774 5.31554 0
M  V30 6434 H 602.739 0.338006 2.09693 0
M  V30 6435 H 605.002 0.0888072 0.943831 0
M  V30 6436 H 604.708 -0.264173 3.50706 0
M  V30 6437 H 604.582 -1.98822 3.20546 0
M  V30 6438 H 606.969 -1.95068 2.21432 0
M  V30 6439 H 607.05 -0.215088 2.54894 0
M  V30 6440 H 606.694 -0.699605 5.03059 0
M  V30 6441 H 606.624 -2.44192 4.66559 0
M  V30 6442 H 609.115 -1.38479 3.51613 0
M  V30 6443 H 609.428 -2.2408 7.396 0
M  V30 6444 H 607.773 -2.02187 6.6494 0
M  V30 6445 H 610.964 -1.63665 4.38556 0
M  V30 6446 H 611.137 -2.02722 6.15474 0
M  V30 6447 N 604.543 -1.41418 -0.695603 0
M  V30 6448 C 605.493 -1.39731 -1.80165 0
M  V30 6449 C 606.477 -0.271689 -1.5859 0
M  V30 6450 O 607.669 -0.512354 -1.69422 0
M  V30 6451 C 604.798 -1.28187 -3.1847 0
M  V30 6452 C 603.884 -2.45612 -3.45739 0
M  V30 6453 N 604.275 -3.71077 -3.43708 0
M  V30 6454 C 602.573 -2.39424 -3.76288 0
M  V30 6455 C 603.274 -4.48957 -3.69882 0
M  V30 6456 N 602.25 -3.7907 -3.89624 0
M  V30 6457 H 606.052 -2.34656 -1.76957 0
M  V30 6458 H 603.566 -1.35473 -0.89559 0
M  V30 6459 H 605.563 -1.2506 -3.977 0
M  V30 6460 H 604.223 -0.342468 -3.22889 0
M  V30 6461 H 605.234 -4.03963 -3.2409 0
M  V30 6462 H 601.911 -1.53955 -3.88077 0
M  V30 6463 H 603.301 -5.57887 -3.74448 0
M  V30 6464 N 606.021 0.929856 -1.27246 0
M  V30 6465 C 607.298 1.65544 -1.04186 0
M  V30 6466 C 607.678 2.06796 0.424097 0
M  V30 6467 O 607.026 1.80053 1.40688 0
M  V30 6468 C 607.236 2.85912 -2.00138 0
M  V30 6469 C 608.584 3.57305 -2.29387 0
M  V30 6470 O 609.608 2.96036 -1.98094 0
M  V30 6471 O 608.467 4.67688 -2.82719 0
M  V30 6472 H 605.561 0.725473 -0.397011 0
M  V30 6473 H 608.107 0.980583 -1.38501 0
M  V30 6474 H 606.879 2.52403 -2.99013 0
M  V30 6475 H 606.502 3.61118 -1.66371 0
M  V30 6476 N 607.499 1.09233 1.13605 0
M  V30 6477 C 608.746 0.827159 1.84836 0
M  V30 6478 C 609.074 -0.647199 1.83416 0
M  V30 6479 O 608.329 -1.49228 1.26608 0
M  V30 6480 C 608.628 1.305 3.32723 0
M  V30 6481 C 608.294 2.78864 3.54325 0
M  V30 6482 C 606.956 3.19382 3.59928 0
M  V30 6483 C 609.308 3.74532 3.62457 0
M  V30 6484 C 606.636 4.54346 3.71196 0
M  V30 6485 C 608.988 5.09283 3.75252 0
M  V30 6486 C 607.652 5.49394 3.79108 0
M  V30 6487 H 606.922 0.302679 0.676363 0
M  V30 6488 H 609.569 1.36676 1.34134 0
M  V30 6489 H 607.874 0.68517 3.85762 0
M  V30 6490 H 609.571 1.07648 3.86281 0
M  V30 6491 H 606.161 2.46507 3.50617 0
M  V30 6492 H 610.345 3.44343 3.57409 0
M  V30 6493 H 605.601 4.84864 3.72447 0
M  V30 6494 H 609.775 5.83269 3.80487 0
M  V30 6495 H 607.402 6.5397 3.87591 0
M  V30 6496 N 608.977 -1.30795 0.87923 0
M  V30 6497 C 610.254 -1.91145 0.415086 0
M  V30 6498 C 610.634 -1.7995 -1.10368 0
M  V30 6499 O 609.982 -1.21305 -1.93642 0
M  V30 6500 C 610.192 -3.37014 0.906778 0
M  V30 6501 C 611.54 -4.14101 0.938358 0
M  V30 6502 O 612.564 -3.45834 0.853053 0
M  V30 6503 O 611.423 -5.36054 1.06342 0
M  V30 6504 H 608.517 -0.81736 0.125905 0
M  V30 6505 H 611.063 -1.39401 0.967753 0
M  V30 6506 H 609.835 -3.3922 1.95053 0
M  V30 6507 H 609.458 -3.96204 0.332948 0
M  V30 6508 N 610.455 -0.639598 -1.44038 0
M  V30 6509 C 611.871 -0.305953 -1.5664 0
M  V30 6510 C 612.071 1.19055 -1.62567 0
M  V30 6511 O 611.127 1.97492 -1.57331 0
M  V30 6512 C 612.44 -1.00533 -2.83397 0
M  V30 6513 C 613.988 -0.984278 -2.97121 0
M  V30 6514 C 614.463 -1.66428 -4.26691 0
M  V30 6515 N 615.954 -1.63127 -4.33525 0
M  V30 6516 C 616.689 -2.12629 -5.32519 0
M  V30 6517 N 616.185 -2.70359 -6.3787 0
M  V30 6518 N 617.978 -2.03208 -5.24083 0
M  V30 6519 H 610.129 -1.6109 -1.38434 0
M  V30 6520 H 612.392 -0.676672 -0.663942 0
M  V30 6521 H 612.098 -2.06034 -2.85032 0
M  V30 6522 H 611.972 -0.548362 -3.73193 0
M  V30 6523 H 614.359 0.0622792 -2.95034 0
M  V30 6524 H 614.44 -1.47981 -2.08651 0
M  V30 6525 H 614.084 -2.71034 -4.29538 0
M  V30 6526 H 614.014 -1.14351 -5.14034 0
M  V30 6527 H 616.505 -1.20987 -3.58009 0
M  V30 6528 H 616.818 -3.05842 -7.09704 0
M  V30 6529 H 615.163 -2.74414 -6.38531 0
M  V30 6530 H 618.354 -1.57823 -4.40692 0
M  V30 6531 H 618.527 -2.42097 -6.01077 0
M  V30 6532 N 611.933 1.52934 -0.380664 0
M  V30 6533 C 612.863 2.29118 0.450268 0
M  V30 6534 C 613.844 1.32153 1.07096 0
M  V30 6535 O 615.029 1.61038 1.08537 0
M  V30 6536 C 612.159 3.09161 1.58231 0
M  V30 6537 C 611.113 4.13938 1.0881 0
M  V30 6538 C 610.439 4.82153 2.31155 0
M  V30 6539 C 611.739 5.22048 0.162146 0
M  V30 6540 H 613.433 2.98826 -0.185361 0
M  V30 6541 H 610.979 1.43715 -0.0905886 0
M  V30 6542 H 612.932 3.61211 2.17036 0
M  V30 6543 H 611.656 2.3717 2.2454 0
M  V30 6544 H 610.315 3.62855 0.522633 0
M  V30 6545 H 609.963 4.06719 2.95953 0
M  V30 6546 H 609.663 5.52966 1.98752 0
M  V30 6547 H 611.187 5.37004 2.90618 0
M  V30 6548 H 612.601 5.6951 0.658126 0
M  V30 6549 H 610.998 6.00057 -0.0717122 0
M  V30 6550 H 612.068 4.78398 -0.791438 0
M  V30 6551 N 613.412 0.11024 1.57214 0
M  V30 6552 C 614.344 -0.873497 2.11902 0
M  V30 6553 C 615.357 -1.23588 1.05971 0
M  V30 6554 O 616.546 -1.18636 1.33371 0
M  V30 6555 C 613.646 -2.17805 2.59643 0
M  V30 6556 C 612.819 -1.98869 3.89576 0
M  V30 6557 C 611.878 -3.12974 4.23006 0
M  V30 6558 O 610.904 -2.86272 4.91973 0
M  V30 6559 N 612.106 -4.39167 3.79622 0
M  V30 6560 H 614.871 -0.406317 2.96933 0
M  V30 6561 H 612.432 -0.074437 1.61729 0
M  V30 6562 H 614.424 -2.93117 2.79042 0
M  V30 6563 H 612.994 -2.55899 1.7954 0
M  V30 6564 H 612.214 -1.078 3.79174 0
M  V30 6565 H 613.502 -1.83512 4.74553 0
M  V30 6566 H 612.9 -4.63739 3.2398 0
M  V30 6567 H 611.457 -5.11379 4.04147 0
M  V30 6568 N 614.89 -1.56749 -0.16351 0
M  V30 6569 C 615.853 -1.96121 -1.18613 0
M  V30 6570 C 616.853 -0.845765 -1.36761 0
M  V30 6571 O 618.043 -1.11268 -1.34033 0
M  V30 6572 C 615.175 -2.26282 -2.54969 0
M  V30 6573 H 616.368 -2.87639 -0.848764 0
M  V30 6574 H 613.921 -1.50928 -0.406251 0
M  V30 6575 H 614.656 -1.37504 -2.93706 0
M  V30 6576 H 614.441 -3.07595 -2.43162 0
M  V30 6577 H 615.931 -2.57638 -3.28653 0
M  V30 6578 N 616.368 0.432326 -1.51554 0
M  V30 6579 C 617.616 1.17901 -1.64146 0
M  V30 6580 C 617.937 1.91604 -0.362367 0
M  V30 6581 O 617.207 1.85764 0.621968 0
M  V30 6582 H 615.787 0.438206 -0.604966 0
M  V30 6583 H 618.449 0.495172 -1.88505 0
M  V30 6584 H 617.545 1.90584 -2.47152 0
M  V30 6585 N 617.846 1.41785 0.688094 0
M  V30 6586 C 619.094 1.41264 1.4453 0
M  V30 6587 C 619.415 0.0252946 1.94984 0
M  V30 6588 O 618.685 -0.934081 1.72197 0
M  V30 6589 H 617.265 0.519998 0.536294 0
M  V30 6590 H 619.927 1.7709 0.813941 0
M  V30 6591 H 619.023 2.10439 2.30482 0
M  V30 6592 N 619.324 -0.923095 1.27737 0
M  V30 6593 C 620.572 -1.66797 1.14119 0
M  V30 6594 C 620.893 -1.92479 -0.312541 0
M  V30 6595 O 620.163 -1.53432 -1.218 0
M  V30 6596 H 618.743 -0.618196 0.419336 0
M  V30 6597 H 621.405 -1.10815 1.60331 0
M  V30 6598 H 620.501 -2.63424 1.67374 0
M  V30 6599 N 620.802 -1.09834 -1.13024 0
M  V30 6600 C 622.048 -0.83819 -1.84668 0
M  V30 6601 C 622.381 0.634645 -1.83537 0
M  V30 6602 O 621.656 1.46753 -1.27647 0
M  V30 6603 C 621.939 -1.37933 -3.32636 0
M  V30 6604 C 621.792 -2.91857 -3.42257 0
M  V30 6605 C 623.111 -1.01654 -4.28199 0
M  V30 6606 H 620.23 -0.30595 -0.670495 0
M  V30 6607 H 622.872 -1.36044 -1.32635 0
M  V30 6608 H 621.022 -0.935111 -3.77078 0
M  V30 6609 H 622.694 -3.44759 -3.06495 0
M  V30 6610 H 620.937 -3.28776 -2.83 0
M  V30 6611 H 621.608 -3.24799 -4.46329 0
M  V30 6612 H 624.084 -1.39973 -3.9185 0
M  V30 6613 H 622.96 -1.42217 -5.30156 0
M  V30 6614 H 623.221 0.0747794 -4.42037 0
M  V30 6615 N 622.28 1.30327 -0.886154 0
M  V30 6616 C 623.21 2.30549 -0.370028 0
M  V30 6617 C 624.191 1.61039 0.547751 0
M  V30 6618 O 625.376 1.8864 0.461353 0
M  V30 6619 C 622.506 3.44808 0.415275 0
M  V30 6620 C 621.46 4.26024 -0.41085 0
M  V30 6621 C 620.786 5.32347 0.501128 0
M  V30 6622 C 622.086 4.95433 -1.65359 0
M  V30 6623 H 623.78 2.73969 -1.20754 0
M  V30 6624 H 621.326 1.3171 -0.582097 0
M  V30 6625 H 623.279 4.13986 0.78699 0
M  V30 6626 H 622.003 3.00197 1.28644 0
M  V30 6627 H 620.662 3.58535 -0.764719 0
M  V30 6628 H 620.31 4.83982 1.37004 0
M  V30 6629 H 620.01 5.87581 -0.0478356 0
M  V30 6630 H 621.534 6.0438 0.869333 0
M  V30 6631 H 622.948 5.5712 -1.35239 0
M  V30 6632 H 621.345 5.60537 -2.14284 0
M  V30 6633 H 622.415 4.21493 -2.39733 0
M  V30 6634 N 623.758 0.647228 1.43697 0
M  V30 6635 C 624.668 -0.0487997 2.34549 0
M  V30 6636 C 625.684 -0.818586 1.53542 0
M  V30 6637 O 626.86 -0.767195 1.86215 0
M  V30 6638 C 623.925 -1.00734 3.31743 0
M  V30 6639 C 622.986 -0.23515 4.28655 0
M  V30 6640 C 622.219 -1.14803 5.21206 0
M  V30 6641 O 622.442 -2.38717 5.18045 0
M  V30 6642 O 621.376 -0.623667 5.9866 0
M  V30 6643 H 625.202 0.698863 2.9555 0
M  V30 6644 H 622.787 0.407412 1.43738 0
M  V30 6645 H 624.669 -1.55837 3.91526 0
M  V30 6646 H 623.344 -1.73534 2.73254 0
M  V30 6647 H 622.251 0.359319 3.7237 0
M  V30 6648 H 623.584 0.453152 4.9011 0
M  V30 6649 N 625.236 -1.5273 0.388769 0
M  V30 6650 C 626.168 -2.24081 -0.481704 0
M  V30 6651 C 627.181 -1.26307 -1.02715 0
M  V30 6652 O 628.37 -1.52386 -0.929565 0
M  V30 6653 C 625.47 -2.94315 -1.68024 0
M  V30 6654 C 624.643 -4.18791 -1.26226 0
M  V30 6655 C 623.702 -4.72028 -2.32542 0
M  V30 6656 O 622.728 -5.35129 -1.93972 0
M  V30 6657 N 623.93 -4.51838 -3.64448 0
M  V30 6658 H 626.695 -2.9942 0.129591 0
M  V30 6659 H 624.256 -1.60465 0.2151 0
M  V30 6660 H 626.248 -3.26831 -2.38671 0
M  V30 6661 H 624.818 -2.22287 -2.19789 0
M  V30 6662 H 624.038 -3.92318 -0.384703 0
M  V30 6663 H 625.326 -4.99668 -0.959647 0
M  V30 6664 H 624.724 -4.01468 -3.98547 0
M  V30 6665 H 623.281 -4.88845 -4.31131 0
M  V30 6666 N 626.714 -0.118576 -1.57153 0
M  V30 6667 C 628.13 0.238014 -1.57815 0
M  V30 6668 C 628.33 1.66747 -1.13127 0
M  V30 6669 O 627.386 2.38867 -0.818462 0
M  V30 6670 C 628.699 0.00508207 -3.007 0
M  V30 6671 C 630.247 0.0710139 -3.12919 0
M  V30 6672 C 630.722 -0.13422 -4.57803 0
M  V30 6673 N 632.213 -0.0801755 -4.63131 0
M  V30 6674 C 632.948 -0.213885 -5.73001 0
M  V30 6675 N 632.444 -0.403742 -6.91623 0
M  V30 6676 N 634.237 -0.15349 -5.6189 0
M  V30 6677 H 626.388 -1.05226 -1.84503 0
M  V30 6678 H 628.651 -0.414318 -0.852669 0
M  V30 6679 H 628.357 -0.983125 -3.3768 0
M  V30 6680 H 628.231 0.73714 -3.69927 0
M  V30 6681 H 630.618 1.04975 -2.75798 0
M  V30 6682 H 630.699 -0.692918 -2.46236 0
M  V30 6683 H 630.343 -1.10992 -4.95624 0
M  V30 6684 H 630.273 0.649692 -5.22577 0
M  V30 6685 H 632.764 0.0630689 -3.77847 0
M  V30 6686 H 633.077 -0.496645 -7.71202 0
M  V30 6687 H 631.422 -0.43971 -6.93608 0
M  V30 6688 H 634.613 -0.00613174 -4.681 0
M  V30 6689 H 634.786 -0.261138 -6.47474 0
M  V30 6690 N 628.193 1.56834 0.155195 0
M  V30 6691 C 629.604 1.72421 0.716082 0
M  V30 6692 C 629.955 0.731685 1.82046 0
M  V30 6693 O 629.08 -0.103481 2.16152 0
M  V30 6694 C 629.675 3.12629 1.30571 0
M  V30 6695 C 628.234 3.29846 1.81325 0
M  V30 6696 C 627.381 2.68359 0.698494 0
M  V30 6697 H 630.332 1.58544 -0.0703861 0
M  V30 6698 H 630.353 3.12174 2.1755 0
M  V30 6699 H 629.865 3.84844 0.501701 0
M  V30 6700 H 627.966 2.62614 2.64319 0
M  V30 6701 H 628.079 4.37727 1.9476 0
M  V30 6702 H 626.443 2.28604 1.12305 0
M  V30 6703 H 627.226 3.43171 -0.0939366 0
M  V30 6704 N 629.671 -0.424282 1.51781 0
M  V30 6705 C 630.901 -1.19297 1.68677 0
M  V30 6706 C 631.309 -1.85152 0.389258 0
M  V30 6707 O 630.652 -1.72067 -0.643311 0
M  V30 6708 C 630.714 -2.30929 2.75521 0
M  V30 6709 C 630.378 -1.85335 4.17732 0
M  V30 6710 C 631.375 -1.34951 5.0208 0
M  V30 6711 C 629.06 -1.92629 4.63896 0
M  V30 6712 C 631.054 -0.924636 6.30658 0
M  V30 6713 C 628.741 -1.49754 5.92467 0
M  V30 6714 C 629.739 -0.997543 6.75676 0
M  V30 6715 O 629.427 -0.57492 8.01842 0
M  V30 6716 H 629.159 -0.36512 0.568914 0
M  V30 6717 H 631.713 -0.507327 1.99036 0
M  V30 6718 H 629.943 -3.02811 2.40505 0
M  V30 6719 H 631.632 -2.92748 2.81165 0
M  V30 6720 H 632.398 -1.287 4.67612 0
M  V30 6721 H 628.277 -2.30491 3.99243 0
M  V30 6722 H 631.821 -0.533682 6.95556 0
M  V30 6723 H 627.718 -1.55679 6.26446 0
M  V30 6724 H 628.486 -0.699597 8.15505 0
M  V30 6725 N 631.149 -1.42148 -0.680565 0
M  V30 6726 C 632.565 -1.24947 -0.992995 0
M  V30 6727 C 632.765 -0.149527 -2.00944 0
M  V30 6728 O 631.821 0.481145 -2.47873 0
M  V30 6729 C 633.134 -2.60426 -1.5033 0
M  V30 6730 C 634.682 -2.67733 -1.62137 0
M  V30 6731 C 635.157 -4.03564 -2.16565 0
M  V30 6732 N 636.648 -4.05488 -2.23905 0
M  V30 6733 C 637.383 -5.07401 -2.67081 0
M  V30 6734 N 636.879 -6.19698 -3.09751 0
M  V30 6735 N 638.672 -4.94758 -2.66778 0
M  V30 6736 H 630.823 -2.12399 -0.0074788 0
M  V30 6737 H 633.086 -0.94571 -0.0658529 0
M  V30 6738 H 632.792 -3.41743 -0.830947 0
M  V30 6739 H 632.666 -2.83949 -2.483 0
M  V30 6740 H 635.053 -1.86765 -2.2848 0
M  V30 6741 H 635.134 -2.48004 -0.626713 0
M  V30 6742 H 634.778 -4.84987 -1.50833 0
M  V30 6743 H 634.708 -4.20641 -3.1681 0
M  V30 6744 H 637.199 -3.24415 -1.93812 0
M  V30 6745 H 637.512 -6.93318 -3.41365 0
M  V30 6746 H 635.857 -6.23212 -3.07623 0
M  V30 6747 H 639.048 -4.06105 -2.32801 0
M  V30 6748 H 639.221 -5.74317 -3.00107 0
M  V30 6749 N 632.627 0.916307 -1.28225 0
M  V30 6750 C 634.043 1.19425 -1.05876 0
M  V30 6751 C 634.243 2.005 0.2005 0
M  V30 6752 O 633.299 2.35806 0.902873 0
M  V30 6753 C 634.612 1.93133 -2.30478 0
M  V30 6754 C 636.16 2.06026 -2.35632 0
M  V30 6755 C 636.635 2.83141 -3.59994 0
M  V30 6756 N 638.126 2.90704 -3.60618 0
M  V30 6757 C 638.861 3.50865 -4.53521 0
M  V30 6758 N 638.357 4.12327 -5.56739 0
M  V30 6759 N 640.15 3.48379 -4.41122 0
M  V30 6760 H 632.301 0.37496 -2.09064 0
M  V30 6761 H 634.564 0.228531 -0.920042 0
M  V30 6762 H 634.27 1.40985 -3.22205 0
M  V30 6763 H 634.144 2.93696 -2.36691 0
M  V30 6764 H 636.531 2.57355 -1.44404 0
M  V30 6765 H 636.612 1.04647 -2.33415 0
M  V30 6766 H 636.256 2.32492 -4.51564 0
M  V30 6767 H 636.186 3.84829 -3.59464 0
M  V30 6768 H 638.677 2.47034 -2.85977 0
M  V30 6769 H 638.99 4.56205 -6.23776 0
M  V30 6770 H 637.335 4.10839 -5.60568 0
M  V30 6771 H 640.526 2.99572 -3.59686 0
M  V30 6772 H 640.699 3.94974 -5.13712 0
M  V30 6773 N 634.105 1.10431 1.1244 0
M  V30 6774 C 635.015 0.765502 2.21759 0
M  V30 6775 C 636.031 -0.236966 1.72379 0
M  V30 6776 O 637.207 -0.0757329 2.01258 0
M  V30 6777 C 634.272 0.202316 3.46109 0
M  V30 6778 C 633.333 1.26205 4.1033 0
M  V30 6779 C 632.566 0.725648 5.28744 0
M  V30 6780 O 632.789 -0.447942 5.68638 0
M  V30 6781 O 631.723 1.48555 5.83279 0
M  V30 6782 H 635.549 1.67801 2.53133 0
M  V30 6783 H 633.134 0.879443 1.20773 0
M  V30 6784 H 635.016 -0.107918 4.21262 0
M  V30 6785 H 633.691 -0.683052 3.16411 0
M  V30 6786 H 632.598 1.62514 3.36957 0
M  V30 6787 H 633.931 2.12044 4.44183 0
M  V30 6788 N 635.583 -1.29855 0.893053 0
M  V30 6789 C 636.808 -2.00512 0.530066 0
M  V30 6790 C 637.233 -1.66446 -0.876199 0
M  V30 6791 O 636.591 -0.885446 -1.58207 0
M  V30 6792 C 636.639 -3.53308 0.721505 0
M  V30 6793 O 635.743 -4.11764 -0.228994 0
M  V30 6794 H 635.084 -0.630617 0.207891 0
M  V30 6795 H 637.614 -1.6551 1.20282 0
M  V30 6796 H 637.624 -4.03206 0.623599 0
M  V30 6797 H 636.299 -3.77439 1.74678 0
M  V30 6798 H 634.876 -3.72805 -0.0841034 0
M  V30 6799 N 637.061 -0.65484 -1.43351 0
M  V30 6800 C 637.971 0.0363603 -2.34572 0
M  V30 6801 C 638.987 0.810432 -1.53974 0
M  V30 6802 O 640.163 0.757308 -1.86619 0
M  V30 6803 C 637.228 0.989733 -3.32273 0
M  V30 6804 C 636.289 0.212414 -4.28774 0
M  V30 6805 C 635.522 1.12038 -5.21808 0
M  V30 6806 O 635.745 2.35967 -5.19303 0
M  V30 6807 O 634.679 0.59191 -5.98982 0
M  V30 6808 H 638.505 -0.714527 -2.95175 0
M  V30 6809 H 636.09 -0.415029 -1.4352 0
M  V30 6810 H 637.972 1.53759 -3.92347 0
M  V30 6811 H 636.647 1.72082 -2.74171 0
M  V30 6812 H 635.554 -0.379062 -3.72175 0
M  V30 6813 H 636.887 -0.479138 -4.89862 0
M  V30 6814 N 638.539 1.52521 -0.396863 0
M  V30 6815 C 639.788 2.00857 0.184184 0
M  V30 6816 C 640.101 1.28733 1.47265 0
M  V30 6817 O 641.307 1.67821 2.13421 0
M  V30 6818 C 639.763 3.57901 0.378787 0
M  V30 6819 C 639.371 4.38931 -0.896873 0
M  V30 6820 C 641.115 4.14504 0.915789 0
M  V30 6821 C 639.022 5.87591 -0.670133 0
M  V30 6822 H 637.952 0.750496 0.0726055 0
M  V30 6823 H 640.603 1.75965 -0.520425 0
M  V30 6824 H 638.985 3.79072 1.14543 0
M  V30 6825 H 640.159 4.29524 -1.66872 0
M  V30 6826 H 638.474 3.93586 -1.35938 0
M  V30 6827 H 641.071 5.23236 1.10126 0
M  V30 6828 H 641.414 3.71076 1.88701 0
M  V30 6829 H 641.947 3.97253 0.208523 0
M  V30 6830 H 638.686 6.35355 -1.61257 0
M  V30 6831 H 638.206 5.99767 0.0626368 0
M  V30 6832 H 639.885 6.46268 -0.307577 0
M  V30 6833 O 640.056 0.267423 1.59271 0
M  V30 6834 H 640.747 -0.304099 1.91298 0
M  V30 END ATOM
M  V30 BEGIN BOND
M  V30 END BOND
M  V30 END CTAB
M  END
$$$$
