drugbank_drug|DB00058 DB00058 sequence
 OpenBabel12092119123D

  0  0  0     0  0            999 V3000
M  V30 BEGIN CTAB
M  V30 COUNTS 6241 6307 0 0 0
M  V30 BEGIN ATOM
M  V30 1 H -0.908 1.98254 -0.117106 0
M  V30 2 N 0 1.576 0 0
M  V30 3 C 0.91 2.11853 1.00774 0
M  V30 4 C 1.926 1.06379 1.37693 0
M  V30 5 O 3.102 1.3828 1.46426 0
M  V30 6 C 0.167 2.61108 2.28087 0
M  V30 7 C -0.772 3.81183 1.9748 0
M  V30 8 C -1.539 4.28079 3.18723 0
M  V30 9 O -1.316 3.74307 4.30407 0
M  V30 10 O -2.382 5.20234 3.02721 0
M  V30 11 H 1.444 2.98177 0.576547 0
M  V30 12 H -0.971 1.47789 0.218828 0
M  V30 13 H 0.911 2.92987 3.0288 0
M  V30 14 H -0.414 1.77881 2.70444 0
M  V30 15 H -1.507 3.54277 1.20162 0
M  V30 16 H -0.174 4.65482 1.5996 0
M  V30 17 N 1.4781 -0.272755 1.55222 0
M  V30 18 C 2.7551 -1.02562 1.66555 0
M  V30 19 C 3.1351 -2.04282 0.532189 0
M  V30 20 O 2.4831 -2.23662 -0.467717 0
M  V30 21 C 2.6931 -1.6822 3.05782 0
M  V30 22 C 4.0411 -2.19373 3.63539 0
M  V30 23 O 5.0651 -1.78206 3.08417 0
M  V30 24 O 3.9241 -2.94883 4.60115 0
M  V30 25 H 1.0181 -0.475755 0.676451 0
M  V30 26 H 3.5641 -0.268593 1.67561 0
M  V30 27 H 2.3361 -0.945112 3.79715 0
M  V30 28 H 1.9591 -2.50609 3.08676 0
M  V30 29 N 2.9562 -1.48159 -0.537278 0
M  V30 30 C 4.3672 -1.49429 -1.11928 0
M  V30 31 C 4.7182 -0.26 -1.9447 0
M  V30 32 O 3.8432 0.633489 -2.0692 0
M  V30 33 C 4.4382 -2.70758 -2.03656 0
M  V30 34 C 2.9972 -2.74923 -2.57088 0
M  V30 35 C 2.1442 -2.42835 -1.3389 0
M  V30 36 H 5.0952 -1.55381 -0.322886 0
M  V30 37 H 5.1162 -2.48861 -2.87834 0
M  V30 38 H 4.6282 -3.60575 -1.43553 0
M  V30 39 H 2.7292 -1.89296 -3.20933 0
M  V30 40 H 2.8422 -3.76157 -2.9672 0
M  V30 41 H 1.2062 -1.93836 -1.65226 0
M  V30 42 H 1.9892 -3.34884 -0.755504 0
M  V30 43 N 4.4343 0.785586 -1.36625 0
M  V30 44 C 5.3663 1.90711 -1.2713 0
M  V30 45 C 6.3793 1.61688 -0.189986 0
M  V30 46 O 7.5683 1.72864 -0.445014 0
M  V30 47 C 4.6683 3.25611 -0.939713 0
M  V30 48 C 3.8413 3.82385 -2.12369 0
M  V30 49 C 2.9003 4.95732 -1.76456 0
M  V30 50 O 1.9263 5.12047 -2.48589 0
M  V30 51 N 3.1283 5.76258 -0.700492 0
M  V30 52 H 5.8933 1.99376 -2.23762 0
M  V30 53 H 3.4543 0.964041 -1.30069 0
M  V30 54 H 5.4463 3.98937 -0.680554 0
M  V30 55 H 4.0163 3.12538 -0.0624074 0
M  V30 56 H 3.2363 3.01001 -2.54543 0
M  V30 57 H 4.5243 4.17047 -2.9146 0
M  V30 58 H 3.9223 5.65609 -0.101624 0
M  V30 59 H 2.4793 6.4987 -0.501165 0
M  V30 60 N 5.9124 1.20967 1.01018 0
M  V30 61 C 7.1604 1.02172 1.74371 0
M  V30 62 C 7.4814 -0.446414 1.89821 0
M  V30 63 O 6.7514 -1.32234 1.44537 0
M  V30 64 H 5.3314 0.375066 0.646014 0
M  V30 65 H 7.9934 1.52187 1.21758 0
M  V30 66 H 7.0894 1.48538 2.74487 0
M  V30 67 N 7.3905 -1.2043 1.01659 0
M  V30 68 C 8.6675 -1.8548 0.621004 0
M  V30 69 C 9.0475 -1.9091 -0.900919 0
M  V30 70 O 8.3955 -1.41694 -1.79263 0
M  V30 71 C 8.6055 -3.25119 1.2688 0
M  V30 72 C 9.9535 -4.01403 1.38423 0
M  V30 73 O 10.9775 -3.34473 1.22501 0
M  V30 74 O 9.8365 -5.21265 1.64151 0
M  V30 75 H 6.9305 -0.798761 0.214266 0
M  V30 76 H 9.4765 -1.28019 1.11396 0
M  V30 77 H 8.2485 -3.15932 2.30873 0
M  V30 78 H 7.8715 -3.90212 0.762917 0
M  V30 79 N 8.8686 -0.792821 -1.36206 0
M  V30 80 C 9.8316 -0.199459 -2.2833 0
M  V30 81 C 10.8316 0.605189 -1.48977 0
M  V30 82 O 12.0216 0.425685 -1.68919 0
M  V30 83 C 9.1536 0.723523 -3.33134 0
M  V30 84 H 10.3466 -1.01181 -2.82316 0
M  V30 85 H 7.8996 -0.562485 -1.45828 0
M  V30 86 H 8.6346 1.56008 -2.84309 0
M  V30 87 H 8.4196 0.148436 -3.91819 0
M  V30 88 H 9.9096 1.13344 -4.01924 0
M  V30 89 N 10.3467 1.47872 -0.545128 0
M  V30 90 C 11.3097 2.28337 0.198717 0
M  V30 91 C 12.3097 1.36255 0.853888 0
M  V30 92 O 13.4997 1.59003 0.711606 0
M  V30 93 C 10.6317 3.15585 1.28915 0
M  V30 94 H 11.8247 2.95567 -0.507941 0
M  V30 95 H 9.3777 1.53362 -0.301616 0
M  V30 96 H 10.1127 2.53019 2.02859 0
M  V30 97 H 9.8977 3.83337 0.824309 0
M  V30 98 H 11.3877 3.76243 1.81194 0
M  V30 99 N 11.8248 0.280983 1.55075 0
M  V30 100 C 12.7568 -0.637268 2.20163 0
M  V30 101 C 13.7698 -1.11298 1.18813 0
M  V30 102 O 14.9588 -1.03388 1.4551 0
M  V30 103 C 12.0588 -1.88199 2.81841 0
M  V30 104 C 11.2318 -1.55211 4.08936 0
M  V30 105 C 10.2908 -2.64991 4.54606 0
M  V30 106 O 9.3168 -2.30929 5.2025 0
M  V30 107 N 10.5188 -3.95161 4.25238 0
M  V30 108 H 13.2838 -0.0801694 2.99593 0
M  V30 109 H 10.8448 0.102329 1.61576 0
M  V30 110 H 12.8368 -2.60948 3.09335 0
M  V30 111 H 11.4068 -2.34799 2.06369 0
M  V30 112 H 10.6268 -0.658185 3.88666 0
M  V30 113 H 11.9148 -1.30681 4.91732 0
M  V30 114 H 11.3128 -4.25653 3.72607 0
M  V30 115 H 9.8698 -4.6427 4.5749 0
M  V30 116 N 13.3029 -1.57598 0.00835791 0
M  V30 117 C 14.2499 -2.08945 -0.980346 0
M  V30 118 C 15.2199 -0.986738 -1.33614 0
M  V30 119 O 16.4049 -1.25968 -1.43306 0
M  V30 120 C 13.5449 -2.60425 -2.26435 0
M  V30 121 C 12.6579 -3.84628 -1.96685 0
M  V30 122 C 11.7929 -4.24579 -3.19228 0
M  V30 123 C 10.8319 -5.41596 -2.85202 0
M  V30 124 N 9.9689 -5.768 -4.00307 0
M  V30 125 H 14.8089 -2.93148 -0.535551 0
M  V30 126 H 12.3459 -1.44912 -0.252776 0
M  V30 127 H 14.3039 -2.88354 -3.01509 0
M  V30 128 H 12.9339 -1.79083 -2.68568 0
M  V30 129 H 11.9859 -3.63556 -1.11942 0
M  V30 130 H 13.2979 -4.69796 -1.67611 0
M  V30 131 H 12.4519 -4.53834 -4.02641 0
M  V30 132 H 11.1909 -3.38137 -3.51447 0
M  V30 133 H 10.1959 -5.12056 -2.00198 0
M  V30 134 H 11.4209 -6.29721 -2.54222 0
M  V30 135 H 9.3669 -4.93316 -4.32407 0
M  V30 136 H 9.2839 -6.5656 -3.74786 0
M  V30 137 H 10.5519 -6.10652 -4.84484 0
M  V30 138 N 14.781 0.264519 -1.55364 0
M  V30 139 C 16.009 1.013 -1.80405 0
M  V30 140 C 16.424 1.79618 -0.581622 0
M  V30 141 O 15.781 1.76879 0.449468 0
M  V30 142 C 15.832 1.96487 -3.03439 0
M  V30 143 O 15.553 1.21341 -4.20961 0
M  V30 144 C 17.054 2.83079 -3.41147 0
M  V30 145 H 14.274 0.298875 -0.600762 0
M  V30 146 H 16.818 0.292736 -2.02394 0
M  V30 147 H 14.973 2.63965 -2.83551 0
M  V30 148 H 15.387 1.85573 -4.90574 0
M  V30 149 H 16.861 3.4565 -4.30384 0
M  V30 150 H 17.338 3.53286 -2.60932 0
M  V30 151 H 17.944 2.2108 -3.63323 0
M  V30 152 N 16.2591 1.48442 0.529413 0
M  V30 153 C 17.5361 1.46978 1.29062 0
M  V30 154 C 17.9161 0.181769 2.10316 0
M  V30 155 O 17.2641 -0.836481 2.12639 0
M  V30 156 C 17.4741 2.7321 2.17157 0
M  V30 157 C 18.8221 3.21562 2.77278 0
M  V30 158 O 19.8461 2.74131 2.27444 0
M  V30 159 O 18.7051 4.04094 3.67927 0
M  V30 160 H 15.7991 0.587003 0.582543 0
M  V30 161 H 18.3451 1.60676 0.546021 0
M  V30 162 H 17.1171 3.58465 1.56903 0
M  V30 163 H 16.7401 2.62235 2.98862 0
M  V30 164 N 17.7372 -0.778329 1.37039 0
M  V30 165 C 18.9652 -1.56734 1.35063 0
M  V30 166 C 19.3802 -1.88686 -0.0655597 0
M  V30 167 O 18.7372 -1.5096 -1.02554 0
M  V30 168 C 18.7882 -2.88163 2.18276 0
M  V30 169 O 18.5092 -2.57583 3.54376 0
M  V30 170 C 20.0102 -3.82422 2.24206 0
M  V30 171 H 17.2302 -0.485778 0.462883 0
M  V30 172 H 19.7742 -0.965185 1.8029 0
M  V30 173 H 17.9292 -3.44818 1.76576 0
M  V30 174 H 18.3432 -3.41699 3.97922 0
M  V30 175 H 19.8172 -4.71667 2.86765 0
M  V30 176 H 20.2942 -4.21078 1.24861 0
M  V30 177 H 20.9002 -3.31697 2.6619 0
M  V30 178 N 19.2153 -1.21501 -1.00376 0
M  V30 179 C 20.4403 -1.05977 -1.78279 0
M  V30 180 C 20.8653 0.385994 -1.84097 0
M  V30 181 O 20.2233 1.27849 -1.28547 0
M  V30 182 C 20.2713 -1.66302 -3.19963 0
M  V30 183 O 19.3753 -0.909333 -4.0225 0
M  V30 184 H 18.7163 -0.372906 -0.549397 0
M  V30 185 H 21.2463 -1.6107 -1.26165 0
M  V30 186 H 21.2563 -1.70574 -3.70632 0
M  V30 187 H 19.9313 -2.71515 -3.15043 0
M  V30 188 H 18.5083 -0.941795 -3.60811 0
M  V30 189 N 20.6934 1.19889 -1.02296 0
M  V30 190 C 21.6434 2.20777 -0.56934 0
M  V30 191 C 22.6274 1.56379 0.378741 0
M  V30 192 O 23.8194 1.75859 0.200673 0
M  V30 193 C 20.9484 3.43196 0.0845077 0
M  V30 194 C 20.0344 4.14749 -0.88566 0
M  V30 195 N 20.4254 4.62584 -2.04573 0
M  V30 196 C 18.7234 4.40347 -0.707835 0
M  V30 197 C 19.4244 5.17466 -2.65714 0
M  V30 198 N 18.4004 5.0791 -1.93723 0
M  V30 199 H 22.2024 2.55434 -1.45365 0
M  V30 200 H 19.7164 1.35897 -0.88915 0
M  V30 201 H 21.7134 4.14707 0.427067 0
M  V30 202 H 20.3734 3.10042 0.964574 0
M  V30 203 H 21.3844 4.57597 -2.4254 0
M  V30 204 H 18.0614 4.17317 0.12364 0
M  V30 205 H 19.4514 5.64808 -3.63925 0
M  V30 206 N 22.1715 0.800033 1.35784 0
M  V30 207 C 23.1215 0.178654 2.27299 0
M  V30 208 C 24.1055 -0.643667 1.47464 0
M  V30 209 O 25.2975 -0.502 1.69732 0
M  V30 210 C 22.4265 -0.677194 3.36555 0
M  V30 211 C 21.5125 0.154497 4.23818 0
M  V30 212 N 21.9035 1.21427 4.91008 0
M  V30 213 C 20.2015 -0.0649462 4.45953 0
M  V30 214 C 20.9025 1.72147 5.55644 0
M  V30 215 N 19.8785 1.02897 5.33773 0
M  V30 216 H 23.6805 0.989637 2.76737 0
M  V30 217 H 21.1945 0.64054 1.49234 0
M  V30 218 H 23.1915 -1.13835 4.01058 0
M  V30 219 H 21.8515 -1.4866 2.8867 0
M  V30 220 H 22.8625 1.59684 4.92668 0
M  V30 221 H 19.5395 -0.844016 4.0888 0
M  V30 222 H 20.9295 2.60683 6.19269 0
M  V30 223 N 23.6496 -1.47581 0.552962 0
M  V30 224 C 24.9266 -1.95563 -0.0381515 0
M  V30 225 C 25.3066 -1.49552 -1.48988 0
M  V30 226 O 24.6546 -0.732414 -2.16444 0
M  V30 227 C 24.8646 -3.48848 0.102919 0
M  V30 228 C 26.2126 -4.24577 -0.0446082 0
M  V30 229 O 27.2366 -3.56187 0.0302548 0
M  V30 230 O 26.0956 -5.46116 -0.204923 0
M  V30 231 H 23.1896 -0.824321 -0.0665067 0
M  V30 232 H 25.7356 -1.58001 0.619186 0
M  V30 233 H 24.5076 -3.75129 1.11328 0
M  V30 234 H 24.1306 -3.93165 -0.592224 0
M  V30 235 N 25.1277 -0.289203 -1.54924 0
M  V30 236 C 26.0597 0.625583 -2.20497 0
M  V30 237 C 27.0727 1.10667 -1.19402 0
M  V30 238 O 28.2617 1.02615 -1.46056 0
M  V30 239 C 25.3617 1.86702 -2.82835 0
M  V30 240 C 24.5347 1.5304 -4.09753 0
M  V30 241 C 23.5937 2.62576 -4.56005 0
M  V30 242 O 22.6197 2.28167 -5.21468 0
M  V30 243 N 23.8217 3.92901 -4.27328 0
M  V30 244 H 26.5867 0.0642801 -2.99631 0
M  V30 245 H 24.1477 -0.110896 -1.6152 0
M  V30 246 H 26.1397 2.59304 -3.10715 0
M  V30 247 H 24.7097 2.33702 -2.07611 0
M  V30 248 H 23.9297 0.637564 -3.8901 0
M  V30 249 H 25.2177 1.28072 -4.92418 0
M  V30 250 H 24.6157 4.23671 -3.74859 0
M  V30 251 H 23.1727 4.61837 -4.59946 0
M  V30 252 N 26.6058 1.57591 -0.0167156 0
M  V30 253 C 27.8828 1.82547 0.702564 0
M  V30 254 C 28.2628 0.898018 1.91047 0
M  V30 255 O 27.6108 -0.0493456 2.28447 0
M  V30 256 C 27.8208 3.31459 1.09251 0
M  V30 257 C 29.1688 3.97622 1.48937 0
M  V30 258 O 30.1928 3.35881 1.18584 0
M  V30 259 O 29.0518 5.06415 2.05442 0
M  V30 260 H 26.1458 0.752268 0.343544 0
M  V30 261 H 28.6918 1.69644 -0.0434495 0
M  V30 262 H 27.4638 3.9061 0.23227 0
M  V30 263 H 27.0868 3.49422 1.89709 0
M  V30 264 N 28.0839 -0.256276 1.55502 0
M  V30 265 C 29.0339 -1.31981 1.85916 0
M  V30 266 C 30.0179 -1.43927 0.719296 0
M  V30 267 O 31.2099 -1.47326 0.981019 0
M  V30 268 C 28.3389 -2.67703 2.14918 0
M  V30 269 C 27.4249 -2.59801 3.35208 0
M  V30 270 N 27.8159 -2.21524 4.54709 0
M  V30 271 C 26.1139 -2.90832 3.38131 0
M  V30 272 C 26.8149 -2.24024 5.36832 0
M  V30 273 N 25.7909 -2.63158 4.75656 0
M  V30 274 H 29.5929 -1.01423 2.75845 0
M  V30 275 H 27.1069 -0.464911 1.55603 0
M  V30 276 H 29.1039 -3.44445 2.34869 0
M  V30 277 H 27.7639 -2.99137 1.26282 0
M  V30 278 H 28.7749 -1.93223 4.80505 0
M  V30 279 H 25.4519 -3.26867 2.59739 0
M  V30 280 H 26.8419 -1.9685 6.42417 0
M  V30 281 N 29.562 -1.4872 -0.521534 0
M  V30 282 C 30.973 -1.50607 -1.10337 0
M  V30 283 C 31.324 -0.280612 -1.94183 0
M  V30 284 O 30.449 0.611507 -2.0758 0
M  V30 285 C 31.044 -2.72903 -2.00772 0
M  V30 286 C 29.603 -2.77634 -2.54158 0
M  V30 287 C 28.75 -2.44241 -1.31307 0
M  V30 288 H 31.701 -1.55714 -0.306388 0
M  V30 289 H 31.722 -2.519 -2.85178 0
M  V30 290 H 31.234 -3.62077 -1.39721 0
M  V30 291 H 29.335 -1.92689 -3.18907 0
M  V30 292 H 29.448 -3.79283 -2.92714 0
M  V30 293 H 27.812 -1.95577 -1.63161 0
M  V30 294 H 28.595 -3.35666 -0.719943 0
M  V30 295 N 31.0401 0.771051 -1.3745 0
M  V30 296 C 32.2681 1.56015 -1.35893 0
M  V30 297 C 32.6831 1.88718 0.0555523 0
M  V30 298 O 32.0401 1.51502 1.01752 0
M  V30 299 C 32.0911 2.87001 -2.19801 0
M  V30 300 O 31.8121 2.557 -3.55738 0
M  V30 301 C 33.3131 3.81228 -2.26231 0
M  V30 302 H 30.5331 0.483317 -0.465453 0
M  V30 303 H 33.0771 0.955611 -1.80799 0
M  V30 304 H 31.2321 3.43877 -1.78402 0
M  V30 305 H 31.6461 3.39584 -3.99729 0
M  V30 306 H 33.1201 4.70139 -2.89263 0
M  V30 307 H 33.5971 4.20409 -1.27093 0
M  V30 308 H 34.2031 3.30281 -2.67945 0
M  V30 309 N 32.5182 1.22032 0.997298 0
M  V30 310 C 33.7652 1.04222 1.73621 0
M  V30 311 C 34.0932 -0.423264 1.89839 0
M  V30 312 O 33.3482 -1.3302 1.43542 0
M  V30 313 C 33.6472 1.69345 3.14733 0
M  V30 314 C 33.3132 3.19226 3.18442 0
M  V30 315 C 31.9752 3.60124 3.19161 0
M  V30 316 C 34.3272 4.15181 3.15078 0
M  V30 317 C 31.6552 4.95467 3.14212 0
M  V30 318 C 34.0072 5.50495 3.1167 0
M  V30 319 C 32.6712 5.90779 3.10703 0
M  V30 320 H 31.9412 0.381374 0.635323 0
M  V30 321 H 34.5882 1.51732 1.16831 0
M  V30 322 H 32.8932 1.14147 3.74803 0
M  V30 323 H 34.5902 1.53059 3.7064 0
M  V30 324 H 31.1802 2.86659 3.18629 0
M  V30 325 H 35.3642 3.84605 3.13676 0
M  V30 326 H 30.6202 5.25916 3.11805 0
M  V30 327 H 34.7942 6.24576 3.08022 0
M  V30 328 H 32.4212 6.9562 3.06622 0
M  V30 329 N 33.9963 -1.19345 1.0293 0
M  V30 330 C 34.9443 -2.24621 0.604001 0
M  V30 331 C 35.9383 -1.65452 -0.363587 0
M  V30 332 O 37.1443 -1.78497 -0.23212 0
M  V30 333 H 33.5193 -0.730858 0.177061 0
M  V30 334 H 35.4903 -2.5781 1.50255 0
M  V30 335 C 34.2393 -3.47688 -0.0289127 0
M  V30 336 H 33.5623 -3.93505 0.706651 0
M  V30 337 H 35.0023 -4.23011 -0.289432 0
M  V30 338 C 33.4613 -3.11817 -1.2756 0
M  V30 339 O 33.9913 -3.2451 -2.36762 0
M  V30 340 N 32.1973 -2.66246 -1.16453 0
M  V30 341 H 31.7443 -2.56118 -0.275914 0
M  V30 342 H 31.7023 -2.42617 -1.99961 0
M  V30 343 N 35.4744 -0.807222 -1.35358 0
M  V30 344 C 36.4214 -0.216037 -2.29787 0
M  V30 345 C 37.3914 0.650278 -1.52842 0
M  V30 346 O 38.5764 0.595227 -1.81278 0
M  V30 347 C 35.7164 0.628893 -3.39321 0
M  V30 348 C 34.8294 -0.257927 -4.31229 0
M  V30 349 C 33.9644 0.595069 -5.27856 0
M  V30 350 C 33.0034 -0.292111 -6.11403 0
M  V30 351 N 32.1404 0.520895 -7.00165 0
M  V30 352 H 36.9804 -1.02671 -2.79755 0
M  V30 353 H 34.5174 -0.517839 -1.37684 0
M  V30 354 H 36.4754 1.13393 -4.01494 0
M  V30 355 H 35.1054 1.40482 -2.90628 0
M  V30 356 H 34.1574 -0.881076 -3.70056 0
M  V30 357 H 35.4694 -0.940759 -4.89848 0
M  V30 358 H 34.6234 1.16522 -5.95405 0
M  V30 359 H 33.3624 1.31146 -4.69736 0
M  V30 360 H 32.3674 -0.874525 -5.428 0
M  V30 361 H 33.5924 -1.00638 -6.71602 0
M  V30 362 H 31.5384 1.22125 -6.44532 0
M  V30 363 H 31.4554 -0.103877 -7.55929 0
M  V30 364 H 32.7234 1.0743 -7.72062 0
M  V30 365 N 36.9525 1.47285 -0.560781 0
M  V30 366 C 38.2015 2.01668 -0.035895 0
M  V30 367 C 38.5145 1.44021 1.32353 0
M  V30 368 O 39.7205 1.90088 1.93853 0
M  V30 369 C 38.1765 3.59897 -0.0136659 0
M  V30 370 C 37.7845 4.26536 -1.37006 0
M  V30 371 C 39.5285 4.22017 0.458425 0
M  V30 372 C 37.4355 5.76782 -1.30675 0
M  V30 373 H 36.3655 0.753938 -0.00964879 0
M  V30 374 H 39.0165 1.69243 -0.709166 0
M  V30 375 H 37.3985 3.89301 0.725325 0
M  V30 376 H 38.5725 4.0877 -2.12705 0
M  V30 377 H 36.8875 3.76419 -1.78038 0
M  V30 378 H 39.4845 5.32124 0.524247 0
M  V30 379 H 39.8275 3.89437 1.4712 0
M  V30 380 H 40.3605 3.97159 -0.225818 0
M  V30 381 H 37.0995 6.13988 -2.29564 0
M  V30 382 H 36.6195 5.96875 -0.591622 0
M  V30 383 H 38.2985 6.39063 -1.01033 0
M  V30 384 N 38.4306 0.297415 1.54768 0
M  V30 385 C 39.6586 -0.315623 2.04478 0
M  V30 386 C 40.0736 -1.47792 1.17486 0
M  V30 387 O 39.4306 -1.81404 0.19971 0
M  V30 388 C 39.4816 -0.7753 3.53088 0
M  V30 389 O 39.2026 0.340732 4.36773 0
M  V30 390 C 40.7036 -1.45386 4.18781 0
M  V30 391 H 37.9236 -0.0690887 0.667434 0
M  V30 392 H 40.4676 0.436003 1.99798 0
M  V30 393 H 38.6226 -1.47696 3.58141 0
M  V30 394 H 39.0366 -0.0165035 5.24497 0
M  V30 395 H 40.5106 -1.72669 5.24299 0
M  V30 396 H 40.9876 -2.39275 3.68299 0
M  V30 397 H 41.5936 -0.795475 4.17795 0
M  V30 398 N 39.9087 -1.5758 0.0250728 0
M  V30 399 C 41.3197 -1.79476 -0.514323 0
M  V30 400 C 41.6707 -0.934956 -1.72491 0
M  V30 401 O 40.7957 -0.144245 -2.15919 0
M  V30 402 C 41.3907 -3.25503 -0.939842 0
M  V30 403 C 39.9497 -3.48408 -1.42438 0
M  V30 404 C 39.0967 -2.74583 -0.387201 0
M  V30 405 H 42.0477 -1.567 0.25113 0
M  V30 406 H 42.0687 -3.34992 -1.80445 0
M  V30 407 H 41.5807 -3.88056 -0.0585628 0
M  V30 408 H 39.6817 -2.91103 -2.32572 0
M  V30 409 H 39.7947 -4.57119 -1.43455 0
M  V30 410 H 38.1587 -2.39942 -0.854409 0
M  V30 411 H 38.9417 -3.39849 0.485543 0
M  V30 412 N 41.3868 0.248026 -1.55636 0
M  V30 413 C 42.3348 1.32683 -1.91045 0
M  V30 414 C 43.3288 1.49883 -0.789401 0
M  V30 415 O 44.5348 1.51371 -0.974007 0
M  V30 416 H 40.9098 0.444272 -0.606734 0
M  V30 417 H 42.8808 1.00085 -2.81115 0
M  V30 418 C 41.6298 2.6755 -2.22064 0
M  V30 419 H 40.9528 2.55114 -3.07826 0
M  V30 420 H 42.3928 3.41912 -2.50743 0
M  V30 421 C 40.8518 3.20556 -1.0366 0
M  V30 422 O 41.3818 4.00695 -0.284016 0
M  V30 423 N 39.5878 2.78568 -0.82753 0
M  V30 424 H 39.1348 2.1351 -1.44123 0
M  V30 425 H 39.0928 3.14378 -0.0369803 0
M  V30 426 N 42.8649 1.48995 0.513639 0
M  V30 427 C 43.7949 1.67636 1.62544 0
M  V30 428 C 44.7759 0.525087 1.61793 0
M  V30 429 O 45.9609 0.759502 1.78732 0
M  V30 430 C 43.0909 1.73114 3.01079 0
M  V30 431 C 42.0449 2.87905 3.16693 0
M  V30 432 C 41.3709 2.78486 4.56453 0
M  V30 433 C 42.6709 4.29005 2.97913 0
M  V30 434 H 44.3649 2.60716 1.47198 0
M  V30 435 H 41.9109 1.25465 0.706714 0
M  V30 436 H 43.8639 1.84742 3.78746 0
M  V30 437 H 42.5879 0.766241 3.17484 0
M  V30 438 H 41.2469 2.75859 2.41448 0
M  V30 439 H 40.8949 1.7993 4.69717 0
M  V30 440 H 40.5949 3.55523 4.67843 0
M  V30 441 H 42.1189 2.92104 5.36197 0
M  V30 442 H 43.5329 4.41798 3.65359 0
M  V30 443 H 41.9299 5.07166 3.20785 0
M  V30 444 H 42.9999 4.44329 1.94165 0
M  V30 445 N 44.343 -0.763751 1.37857 0
M  V30 446 C 45.306 -1.85889 1.34081 0
M  V30 447 C 46.306 -1.58949 0.243277 0
M  V30 448 O 47.496 -1.66882 0.499589 0
M  V30 449 C 44.628 -3.23176 1.08489 0
M  V30 450 H 45.821 -1.90648 2.31502 0
M  V30 451 H 43.374 -0.964367 1.23003 0
M  V30 452 H 44.109 -3.24091 0.116318 0
M  V30 453 H 43.894 -3.44124 1.8794 0
M  V30 454 H 45.384 -4.03254 1.08517 0
M  V30 455 N 45.8211 -1.22559 -0.990812 0
M  V30 456 C 46.7311 -1.01394 -2.11557 0
M  V30 457 C 47.7471 0.0383962 -1.73958 0
M  V30 458 O 48.9231 -0.154787 -2.00804 0
M  V30 459 C 45.9881 -0.596569 -3.41529 0
M  V30 460 C 45.0491 -1.72276 -3.93217 0
M  V30 461 C 44.2821 -1.32521 -5.16985 0
M  V30 462 O 44.5051 -0.204909 -5.70032 0
M  V30 463 O 43.4391 -2.14247 -5.62478 0
M  V30 464 H 47.2651 -1.95633 -2.32296 0
M  V30 465 H 44.8501 -1.01172 -1.0993 0
M  V30 466 H 46.7321 -0.374263 -4.19735 0
M  V30 467 H 45.4071 0.316939 -3.22145 0
M  V30 468 H 44.3141 -1.99961 -3.16174 0
M  V30 469 H 45.6471 -2.61421 -4.17037 0
M  V30 470 N 47.2992 1.18797 -1.03562 0
M  V30 471 C 48.5462 1.8865 -0.736023 0
M  V30 472 C 48.8742 1.80041 0.735889 0
M  V30 473 O 48.1292 1.19179 1.55225 0
M  V30 474 C 48.4282 3.38692 -1.14117 0
M  V30 475 C 48.0942 3.67504 -2.6125 0
M  V30 476 C 46.7562 3.75078 -3.01447 0
M  V30 477 C 49.1082 3.80293 -3.56408 0
M  V30 478 C 46.4362 3.92915 -4.35701 0
M  V30 479 C 48.7882 3.99645 -4.90374 0
M  V30 480 C 47.4522 4.05453 -5.30249 0
M  V30 481 H 46.7222 0.690321 -0.26933 0
M  V30 482 H 49.3692 1.40641 -1.29971 0
M  V30 483 H 47.6742 3.88645 -0.496202 0
M  V30 484 H 49.3712 3.91072 -0.886789 0
M  V30 485 H 45.9612 3.62223 -2.29113 0
M  V30 486 H 50.1452 3.73779 -3.26501 0
M  V30 487 H 45.4012 3.95653 -4.66121 0
M  V30 488 H 49.5752 4.08482 -5.64017 0
M  V30 489 H 47.2022 4.19027 -6.34288 0
M  V30 490 N 48.7773 0.814389 1.34928 0
M  V30 491 C 49.7403 0.235759 2.27984 0
M  V30 492 C 50.7403 -0.581412 1.49921 0
M  V30 493 O 51.9303 -0.398758 1.69575 0
M  V30 494 C 49.0623 -0.670433 3.34242 0
M  V30 495 H 50.2553 1.05659 2.80671 0
M  V30 496 H 47.8083 0.585614 1.44915 0
M  V30 497 H 48.5433 -1.51466 2.86755 0
M  V30 498 H 48.3283 -0.0860822 3.92005 0
M  V30 499 H 49.8183 -1.06935 4.03676 0
M  V30 500 N 50.2554 -1.46986 0.568584 0
M  V30 501 C 51.5024 -2.02441 0.0487986 0
M  V30 502 C 51.8304 -1.44169 -1.30559 0
M  V30 503 O 51.0854 -0.591213 -1.86556 0
M  V30 504 C 51.3844 -3.57306 -0.081836 0
M  V30 505 C 51.0504 -4.34552 1.20313 0
M  V30 506 C 49.7124 -4.55376 1.5552 0
M  V30 507 C 52.0644 -4.79016 2.05411 0
M  V30 508 C 49.3924 -5.17913 2.7565 0
M  V30 509 C 51.7444 -5.42879 3.24754 0
M  V30 510 C 50.4084 -5.61933 3.60261 0
M  V30 511 H 49.6784 -0.740785 0.0178567 0
M  V30 512 H 52.3254 -1.76525 0.742384 0
M  V30 513 H 50.6304 -3.8228 -0.858463 0
M  V30 514 H 52.3274 -3.97876 -0.499546 0
M  V30 515 H 48.9174 -4.18631 0.919014 0
M  V30 516 H 53.1014 -4.62696 1.79516 0
M  V30 517 H 48.3574 -5.30858 3.03315 0
M  V30 518 H 52.5314 -5.76293 3.90973 0
M  V30 519 H 50.1584 -6.10161 4.53439 0
M  V30 520 N 51.7335 -0.305618 -1.54608 0
M  V30 521 C 52.9585 0.307562 -2.05107 0
M  V30 522 C 53.3835 1.46385 -1.18123 0
M  V30 523 O 52.7415 1.8034 -0.186324 0
M  V30 524 C 52.7895 0.73704 -3.52987 0
M  V30 525 O 51.8935 1.84134 -3.6901 0
M  V30 526 H 51.2345 0.0589143 -0.661381 0
M  V30 527 H 53.7645 -0.448807 -1.99617 0
M  V30 528 H 53.7745 1.02459 -3.94925 0
M  V30 529 H 52.4495 -0.108773 -4.15758 0
M  V30 530 H 51.0265 1.55398 -3.38978 0
M  V30 531 N 53.2116 1.57565 -0.0334293 0
M  V30 532 C 54.1416 2.13511 0.945265 0
M  V30 533 C 55.1226 1.05231 1.33643 0
M  V30 534 O 56.3076 1.33084 1.41429 0
M  V30 535 C 53.4376 2.6657 2.22616 0
M  V30 536 C 52.3916 3.79676 1.97561 0
M  V30 537 C 51.7176 4.1918 3.31952 0
M  V30 538 C 53.0176 5.0557 1.31135 0
M  V30 539 H 54.7116 2.95538 0.479325 0
M  V30 540 H 52.2576 1.42166 0.229115 0
M  V30 541 H 54.2106 3.04344 2.91466 0
M  V30 542 H 52.9346 1.8171 2.71384 0
M  V30 543 H 51.5936 3.42347 1.31127 0
M  V30 544 H 51.2416 3.31296 3.78487 0
M  V30 545 H 50.9416 4.95402 3.15992 0
M  V30 546 H 52.4656 4.59541 4.02063 0
M  V30 547 H 53.8796 5.40903 1.89992 0
M  V30 548 H 52.2766 5.86818 1.25559 0
M  V30 549 H 53.3466 4.84062 0.284894 0
M  V30 550 N 54.6897 -0.239769 1.55765 0
M  V30 551 C 55.9197 -0.982743 1.8173 0
M  V30 552 C 56.3277 -1.7917 0.607835 0
M  V30 553 O 55.6707 -1.78525 -0.432973 0
M  V30 554 C 55.7327 -1.96332 3.01155 0
M  V30 555 C 55.3967 -1.34062 4.36894 0
M  V30 556 C 56.3937 -0.739539 5.14613 0
M  V30 557 C 54.0787 -1.35784 4.83599 0
M  V30 558 C 56.0727 -0.163989 6.37189 0
M  V30 559 C 53.7597 -0.778441 6.06122 0
M  V30 560 C 54.7577 -0.182548 6.82756 0
M  V30 561 O 54.4457 0.387887 8.02964 0
M  V30 562 H 54.1777 -0.294481 0.608487 0
M  V30 563 H 56.7317 -0.26572 2.03674 0
M  V30 564 H 54.9617 -2.71884 2.74984 0
M  V30 565 H 56.6507 -2.57032 3.14149 0
M  V30 566 H 57.4167 -0.718687 4.79646 0
M  V30 567 H 53.2957 -1.81105 4.23936 0
M  V30 568 H 56.8397 0.301753 6.96947 0
M  V30 569 H 52.7367 -0.796645 6.40565 0
M  V30 570 H 53.5047 0.28044 8.18019 0
M  V30 571 N 56.1678 -1.49265 -0.50573 0
M  V30 572 C 57.5838 -1.35923 -0.836486 0
M  V30 573 C 57.7838 -0.388704 -1.97715 0
M  V30 574 O 56.8398 0.181336 -2.51848 0
M  V30 575 C 58.1528 -2.76531 -1.18115 0
M  V30 576 C 59.7008 -2.85197 -1.28964 0
M  V30 577 C 60.1758 -4.26561 -1.66761 0
M  V30 578 N 61.6668 -4.2935 -1.73819 0
M  V30 579 C 62.4018 -5.35693 -2.045 0
M  V30 580 N 61.8978 -6.52287 -2.33438 0
M  V30 581 N 63.6908 -5.23105 -2.05711 0
M  V30 582 H 55.8418 -2.10965 0.246519 0
M  V30 583 H 58.1048 -0.9468 0.0476887 0
M  V30 584 H 57.8108 -3.49226 -0.416398 0
M  V30 585 H 57.6848 -3.11599 -2.1257 0
M  V30 586 H 60.0718 -2.12742 -2.04511 0
M  V30 587 H 60.1528 -2.53718 -0.325704 0
M  V30 588 H 59.7968 -4.99541 -0.917656 0
M  V30 589 H 59.7268 -4.55502 -2.64246 0
M  V30 590 H 62.2178 -3.4526 -1.53635 0
M  V30 591 H 62.5308 -7.29158 -2.56024 0
M  V30 592 H 60.8758 -6.55521 -2.30905 0
M  V30 593 H 64.0668 -4.31026 -1.82577 0
M  V30 594 H 64.2398 -6.06078 -2.29289 0
M  V30 595 N 57.6459 0.756429 -1.3826 0
M  V30 596 C 58.5779 1.87971 -1.31147 0
M  V30 597 C 59.5909 1.61248 -0.224239 0
M  V30 598 O 60.7799 1.71881 -0.481581 0
M  V30 599 C 57.8799 3.23545 -1.00857 0
M  V30 600 C 57.0529 3.77794 -2.20432 0
M  V30 601 C 56.1119 4.91877 -1.86931 0
M  V30 602 O 55.1379 5.06659 -2.59395 0
M  V30 603 N 56.3399 5.74643 -0.822568 0
M  V30 604 H 59.1049 1.94585 -2.2794 0
M  V30 605 H 56.6659 0.936234 -1.32084 0
M  V30 606 H 58.6579 3.97403 -0.765021 0
M  V30 607 H 57.2279 3.12335 -0.128687 0
M  V30 608 H 56.4479 2.95534 -2.6087 0
M  V30 609 H 57.7359 4.10771 -3.00241 0
M  V30 610 H 57.1339 5.65266 -0.221575 0
M  V30 611 H 55.6909 6.48661 -0.638899 0
M  V30 612 N 59.124 1.23083 0.984299 0
M  V30 613 C 60.054 1.03292 2.09411 0
M  V30 614 C 61.035 -0.048923 1.7003 0
M  V30 615 O 62.22 0.114967 1.93859 0
M  V30 616 C 59.35 0.619155 3.41736 0
M  V30 617 C 58.304 1.64791 3.95004 0
M  V30 618 C 57.63 1.0897 5.23478 0
M  V30 619 C 58.93 3.03999 4.24714 0
M  V30 620 H 60.624 1.96119 2.26225 0
M  V30 621 H 58.17 0.944344 1.08711 0
M  V30 622 H 60.123 0.467777 4.18796 0
M  V30 623 H 58.847 -0.344786 3.24775 0
M  V30 624 H 57.506 1.78721 3.20085 0
M  V30 625 H 57.154 0.11686 5.02864 0
M  V30 626 H 56.854 1.77704 5.60085 0
M  V30 627 H 58.378 0.950093 6.03163 0
M  V30 628 H 59.792 2.93393 4.92538 0
M  V30 629 H 58.189 3.69936 4.72512 0
M  V30 630 H 59.259 3.53285 3.32142 0
M  V30 631 N 60.6021 -1.18246 1.0419 0
M  V30 632 C 61.5651 -2.20128 0.638452 0
M  V30 633 C 62.5651 -1.57885 -0.304805 0
M  V30 634 O 63.7551 -1.73967 -0.0900369 0
M  V30 635 C 60.8871 -3.4084 -0.0637751 0
M  V30 636 H 62.0801 -2.57336 1.54007 0
M  V30 637 H 59.6331 -1.32152 0.834598 0
M  V30 638 H 60.3681 -3.09166 -0.979136 0
M  V30 639 H 60.1531 -3.8726 0.614198 0
M  V30 640 H 61.6431 -4.16274 -0.332512 0
M  V30 641 N 62.0802 -0.821533 -1.34494 0
M  V30 642 C 63.0302 -0.214793 -2.26986 0
M  V30 643 C 64.0142 0.620125 -1.4847 0
M  V30 644 O 65.2062 0.474933 -1.70509 0
M  V30 645 C 62.3352 0.623566 -3.37589 0
M  V30 646 C 61.4212 -0.221904 -4.23519 0
M  V30 647 N 61.8122 -1.29223 -4.89014 0
M  V30 648 C 60.1102 -0.00600922 -4.46 0
M  V30 649 C 60.8112 -1.80965 -5.52835 0
M  V30 650 N 59.7872 -1.11376 -5.32068 0
M  V30 651 H 63.5892 -1.03354 -2.75128 0
M  V30 652 H 61.1032 -0.6642 -1.48196 0
M  V30 653 H 63.1002 1.0744 -4.02818 0
M  V30 654 H 61.7602 1.44049 -2.90998 0
M  V30 655 H 62.7712 -1.67502 -4.90065 0
M  V30 656 H 59.4482 0.77886 -4.10171 0
M  V30 657 H 60.8382 -2.70502 -6.15043 0
M  V30 658 N 63.5583 1.46682 -0.576371 0
M  V30 659 C 64.4903 2.28341 0.198231 0
M  V30 660 C 65.5033 1.38141 0.861453 0
M  V30 661 O 66.6923 1.62797 0.732082 0
M  V30 662 C 63.7923 3.12986 1.29972 0
M  V30 663 C 62.9653 4.31271 0.729639 0
M  V30 664 C 62.0243 4.97363 1.71803 0
M  V30 665 O 61.0503 5.55156 1.25658 0
M  V30 666 N 62.2523 4.93796 3.05198 0
M  V30 667 H 65.0173 2.9546 -0.502324 0
M  V30 668 H 62.5783 1.56525 -0.413715 0
M  V30 669 H 64.5703 3.54066 1.96008 0
M  V30 670 H 63.1403 2.47984 1.90323 0
M  V30 671 H 62.3603 3.94052 -0.108012 0
M  V30 672 H 63.6483 5.07739 0.328438 0
M  V30 673 H 63.0463 4.48077 3.45317 0
M  V30 674 H 61.6033 5.38837 3.6674 0
M  V30 675 N 65.0364 0.313813 1.54444 0
M  V30 676 C 66.2614 -0.296681 2.05267 0
M  V30 677 C 66.6864 -1.45757 1.18897 0
M  V30 678 O 66.0444 -1.80239 0.195886 0
M  V30 679 C 66.0924 -0.71831 3.53373 0
M  V30 680 O 65.1964 -1.82175 3.69981 0
M  V30 681 H 64.5374 -0.0554061 0.661684 0
M  V30 682 H 67.0674 0.459387 1.99376 0
M  V30 683 H 67.0774 -1.00364 3.95463 0
M  V30 684 H 65.7524 0.130821 4.15694 0
M  V30 685 H 64.3294 -1.53598 3.39797 0
M  V30 686 N 66.5145 -1.57545 0.0417849 0
M  V30 687 C 67.4625 -2.12148 -0.953723 0
M  V30 688 C 68.4565 -1.05104 -1.32852 0
M  V30 689 O 69.6625 -1.23524 -1.30927 0
M  V30 690 H 66.0375 -0.677957 -0.325389 0
M  V30 691 H 68.0085 -2.94707 -0.467991 0
M  V30 692 C 66.7575 -2.6739 -2.22257 0
M  V30 693 H 66.0805 -3.49413 -1.94295 0
M  V30 694 H 67.5205 -3.09227 -2.90094 0
M  V30 695 C 65.9795 -1.60723 -2.96091 0
M  V30 696 O 66.5095 -1.01449 -3.88679 0
M  V30 697 N 64.7155 -1.32466 -2.58652 0
M  V30 698 H 64.2625 -1.80856 -1.83437 0
M  V30 699 H 64.2205 -0.61325 -3.08361 0
M  V30 700 N 67.9926 0.231505 -1.5589 0
M  V30 701 C 69.2176 0.978689 -1.82856 0
M  V30 702 C 69.6426 1.77559 -0.620846 0
M  V30 703 O 69.0006 1.76119 0.430305 0
M  V30 704 C 69.0486 1.87997 -3.07716 0
M  V30 705 O 68.1526 2.97393 -2.85712 0
M  V30 706 H 67.4936 0.277663 -0.603158 0
M  V30 707 H 70.0236 0.24783 -2.03093 0
M  V30 708 H 70.0336 2.2917 -3.37558 0
M  V30 709 H 68.7086 1.29417 -3.95252 0
M  V30 710 H 67.2856 2.60238 -2.67078 0
M  V30 711 N 69.4707 1.49531 0.497807 0
M  V30 712 C 70.6987 1.62893 1.27567 0
M  V30 713 C 71.1137 0.301585 1.86376 0
M  V30 714 O 70.4707 -0.713335 1.67982 0
M  V30 715 C 70.5217 2.70013 2.40364 0
M  V30 716 O 70.2427 3.976 1.83972 0
M  V30 717 C 71.7437 2.94109 3.31685 0
M  V30 718 H 68.9637 0.548298 0.386794 0
M  V30 719 H 71.5077 1.95584 0.597245 0
M  V30 720 H 69.6627 2.40092 3.04031 0
M  V30 721 H 70.0767 4.56631 2.58047 0
M  V30 722 H 71.5507 3.72788 4.07104 0
M  V30 723 H 72.0277 2.04147 3.88871 0
M  V30 724 H 72.6337 3.2546 2.73781 0
M  V30 725 N 70.9488 -0.749086 1.3866 0
M  V30 726 C 71.8968 -1.88428 1.36373 0
M  V30 727 C 72.8908 -1.67561 0.248929 0
M  V30 728 O 74.0968 -1.75074 0.41821 0
M  V30 729 H 70.4718 -0.620023 0.42553 0
M  V30 730 H 72.4428 -1.87473 2.32156 0
M  V30 731 C 71.1918 -3.25961 1.21014 0
M  V30 732 H 70.5148 -3.42607 2.06059 0
M  V30 733 H 71.9548 -4.05625 1.23469 0
M  V30 734 C 70.4138 -3.36799 -0.0825941 0
M  V30 735 O 70.9438 -3.87517 -1.05797 0
M  V30 736 N 69.1498 -2.90258 -0.140939 0
M  V30 737 H 68.6968 -2.49174 0.653477 0
M  V30 738 H 68.6548 -2.97889 -1.00545 0
M  V30 739 N 72.4269 -1.23603 -0.977757 0
M  V30 740 C 73.6759 -1.06377 -1.71368 0
M  V30 741 C 73.9889 0.399062 -1.91486 0
M  V30 742 O 75.1949 0.691312 -2.62551 0
M  V30 743 C 73.6509 -1.85512 -3.08404 0
M  V30 744 C 73.2589 -3.36141 -2.96164 0
M  V30 745 C 75.0029 -1.76783 -3.85938 0
M  V30 746 C 72.9099 -4.07659 -4.28449 0
M  V30 747 H 71.8399 -0.394452 -0.642591 0
M  V30 748 H 74.4909 -1.47594 -1.09034 0
M  V30 749 H 72.8729 -1.37103 -3.71509 0
M  V30 750 H 74.0469 -3.92056 -2.42133 0
M  V30 751 H 72.3619 -3.45712 -2.32104 0
M  V30 752 H 74.9589 -2.27526 -4.83876 0
M  V30 753 H 75.3019 -0.731116 -4.0983 0
M  V30 754 H 75.8349 -2.22818 -3.2954 0
M  V30 755 H 72.5739 -5.11648 -4.09752 0
M  V30 756 H 72.0939 -3.5653 -4.82334 0
M  V30 757 H 73.7729 -4.141 -4.97122 0
M  V30 758 N 73.905 1.17692 -1.04816 0
M  V30 759 C 75.152 1.87859 -0.75599 0
M  V30 760 C 75.48 1.80812 0.716752 0
M  V30 761 O 74.735 1.20819 1.53952 0
M  V30 762 C 75.034 3.37462 -1.17703 0
M  V30 763 C 74.7 3.64713 -2.65133 0
M  V30 764 C 73.362 3.71859 -3.05408 0
M  V30 765 C 75.714 3.76492 -3.60421 0
M  V30 766 C 73.042 3.88271 -4.39843 0
M  V30 767 C 75.394 3.94421 -4.94585 0
M  V30 768 C 74.058 3.99806 -5.3452 0
M  V30 769 H 73.328 0.687425 -0.276636 0
M  V30 770 H 75.975 1.39255 -1.31455 0
M  V30 771 H 74.28 3.88097 -0.537395 0
M  V30 772 H 75.977 3.90109 -0.928218 0
M  V30 773 H 72.567 3.59772 -2.32942 0
M  V30 774 H 76.751 3.70295 -3.30447 0
M  V30 775 H 72.007 3.90687 -4.70291 0
M  V30 776 H 76.181 4.02477 -5.68318 0
M  V30 777 H 73.808 4.12276 -6.38696 0
M  V30 778 N 75.3831 0.828654 1.34056 0
M  V30 779 C 76.6301 0.419458 1.98108 0
M  V30 780 C 76.9581 -1.01886 1.65679 0
M  V30 781 O 76.2131 -1.72539 0.923512 0
M  V30 782 C 76.5121 0.575226 3.52741 0
M  V30 783 C 76.1781 1.98012 4.05095 0
M  V30 784 C 74.8401 2.36442 4.19104 0
M  V30 785 C 77.1921 2.89824 4.33188 0
M  V30 786 C 74.5201 3.66009 4.58535 0
M  V30 787 C 76.8721 4.1886 4.74066 0
M  V30 788 C 75.5361 4.5726 4.86281 0
M  V30 789 H 74.8061 0.153491 0.724929 0
M  V30 790 H 77.4531 1.05371 1.59904 0
M  V30 791 H 75.7581 -0.142385 3.91541 0
M  V30 792 H 77.4551 0.239057 4.00287 0
M  V30 793 H 74.0451 1.67162 3.94658 0
M  V30 794 H 78.2291 2.61375 4.21897 0
M  V30 795 H 73.4851 3.95579 4.66184 0
M  V30 796 H 77.6591 4.90086 4.94761 0
M  V30 797 H 75.2861 5.57707 5.16592 0
M  V30 798 N 76.8612 -1.46375 0.584142 0
M  V30 799 C 78.0862 -2.07268 0.0740405 0
M  V30 800 C 78.5112 -1.42979 -1.22223 0
M  V30 801 O 77.8692 -0.514092 -1.73859 0
M  V30 802 C 77.9172 -3.60518 -0.0767769 0
M  V30 803 O 77.0212 -3.96533 -1.13292 0
M  V30 804 H 76.3622 -0.660961 0.0634524 0
M  V30 805 H 78.8922 -1.87991 0.807492 0
M  V30 806 H 78.9022 -4.07021 -0.282489 0
M  V30 807 H 77.5772 -4.06702 0.86986 0
M  V30 808 H 76.1542 -3.61738 -0.905553 0
M  V30 809 N 78.3393 -0.321999 -1.54275 0
M  V30 810 C 79.7503 0.166384 -1.85957 0
M  V30 811 C 80.1013 1.51747 -1.24367 0
M  V30 812 O 79.2263 2.09317 -0.549124 0
M  V30 813 C 79.8213 0.308681 -3.37391 0
M  V30 814 C 78.3803 0.741286 -3.69028 0
M  V30 815 C 77.5273 -0.137937 -2.76957 0
M  V30 816 H 80.4783 -0.542335 -1.49146 0
M  V30 817 H 80.4993 1.13984 -3.63026 0
M  V30 818 H 80.0113 -0.674809 -3.82188 0
M  V30 819 H 78.1123 1.73458 -3.29762 0
M  V30 820 H 78.2253 0.546118 -4.75977 0
M  V30 821 H 76.5893 0.386251 -2.51754 0
M  V30 822 H 77.3723 -1.11816 -3.2458 0
M  V30 823 N 79.8174 1.5752 -0.0501392 0
M  V30 824 C 81.0634 1.92936 0.624798 0
M  V30 825 C 81.3964 0.928685 1.70555 0
M  V30 826 O 80.6714 -0.0454779 1.94447 0
M  V30 827 C 80.9544 3.38737 1.22185 0
M  V30 828 C 80.8074 4.49552 0.149218 0
M  V30 829 C 82.1264 3.84913 2.13378 0
M  V30 830 H 79.2454 0.701604 0.225657 0
M  V30 831 H 81.8874 1.89671 -0.111693 0
M  V30 832 H 80.0374 3.4165 1.84953 0
M  V30 833 H 81.7094 4.58768 -0.482648 0
M  V30 834 H 79.9524 4.30638 -0.522841 0
M  V30 835 H 80.6234 5.48653 0.606966 0
M  V30 836 H 83.0994 3.8387 1.60572 0
M  V30 837 H 81.9754 4.87584 2.52097 0
M  V30 838 H 82.2364 3.21611 3.03346 0
M  V30 839 N 81.2955 -0.223234 1.56011 0
M  V30 840 C 82.5205 -0.968978 1.83373 0
M  V30 841 C 82.9455 -1.77227 0.630254 0
M  V30 842 O 82.3035 -1.76345 -0.420959 0
M  V30 843 C 82.3515 -1.86363 3.08709 0
M  V30 844 O 81.4555 -2.95873 2.87285 0
M  V30 845 H 80.7965 -0.274461 0.604622 0
M  V30 846 H 83.3265 -0.237056 2.03222 0
M  V30 847 H 83.3365 -2.27376 3.38768 0
M  V30 848 H 82.0115 -1.27319 3.95933 0
M  V30 849 H 80.5885 -2.58818 2.68454 0
M  V30 850 N 82.7736 -1.49793 -0.48987 0
M  V30 851 C 84.0226 -1.59085 -1.23995 0
M  V30 852 C 84.3356 -0.287907 -1.9347 0
M  V30 853 O 85.5416 -0.259506 -2.70257 0
M  V30 854 C 83.9976 -2.80736 -2.252 0
M  V30 855 C 83.6056 -4.17833 -1.61614 0
M  V30 856 C 85.3496 -2.99364 -3.00967 0
M  V30 857 C 83.2566 -5.30693 -2.60996 0
M  V30 858 H 82.1866 -0.592372 -0.466488 0
M  V30 859 H 84.8376 -1.76197 -0.51252 0
M  V30 860 H 83.2196 -2.57142 -3.01154 0
M  V30 861 H 84.3936 -4.51608 -0.915774 0
M  V30 862 H 82.7086 -4.04656 -0.981977 0
M  V30 863 H 85.3056 -3.80851 -3.75308 0
M  V30 864 H 85.6486 -2.10356 -3.59244 0
M  V30 865 H 86.1816 -3.2305 -2.32128 0
M  V30 866 H 82.9206 -6.21796 -2.07485 0
M  V30 867 H 82.4406 -5.01359 -3.2924 0
M  V30 868 H 84.1196 -5.6049 -3.23202 0
M  V30 869 N 84.2517 0.741722 -1.39055 0
M  V30 870 C 85.2147 1.83733 -1.37021 0
M  V30 871 C 86.2147 1.58542 -0.268534 0
M  V30 872 O 87.4047 1.66067 -0.526076 0
M  V30 873 C 84.5367 3.2141 -1.13617 0
M  V30 874 H 85.7297 1.86941 -2.34506 0
M  V30 875 H 83.2827 0.944676 -1.24521 0
M  V30 876 H 84.0177 3.23865 -0.167863 0
M  V30 877 H 83.8027 3.4109 -1.93391 0
M  V30 878 H 85.2927 4.01477 -1.14918 0
M  V30 879 N 85.7298 1.2412 0.971189 0
M  V30 880 C 86.9578 1.10575 1.74874 0
M  V30 881 C 87.3728 -0.342017 1.85676 0
M  V30 882 O 86.7298 -1.23617 1.34258 0
M  V30 883 C 86.7808 1.73579 3.171 0
M  V30 884 O 86.5018 3.12695 3.06844 0
M  V30 885 C 88.0028 1.65598 4.11208 0
M  V30 886 H 85.2228 0.386504 0.548503 0
M  V30 887 H 87.7668 1.64156 1.21955 0
M  V30 888 H 85.9218 1.24009 3.67016 0
M  V30 889 H 86.3358 3.43412 3.96445 0
M  V30 890 H 87.8098 2.1437 5.08674 0
M  V30 891 H 88.2868 0.616532 4.34851 0
M  V30 892 H 88.8928 2.14578 3.67201 0
M  V30 893 N 87.2079 -1.17134 1.05439 0
M  V30 894 C 88.1709 -2.19439 0.661764 0
M  V30 895 C 89.1709 -1.58199 -0.288042 0
M  V30 896 O 90.3609 -1.74053 -0.0715803 0
M  V30 897 C 87.4929 -3.40889 -0.0276209 0
M  V30 898 H 88.6859 -2.55688 1.56728 0
M  V30 899 H 86.2389 -1.31259 0.848567 0
M  V30 900 H 86.9739 -3.10187 -0.94629 0
M  V30 901 H 86.7589 -3.86586 0.655238 0
M  V30 902 H 88.2489 -4.16603 -0.288342 0
M  V30 903 N 88.686 -0.835752 -1.33615 0
M  V30 904 C 89.933 -0.429959 -1.97883 0
M  V30 905 C 90.261 1.01006 -1.66217 0
M  V30 906 O 89.516 1.72047 -0.93265 0
M  V30 907 C 89.815 -0.593925 -3.52431 0
M  V30 908 C 89.481 -2.00158 -4.04039 0
M  V30 909 C 88.143 -2.38662 -4.17844 0
M  V30 910 C 90.495 -2.92117 -4.31644 0
M  V30 911 C 87.823 -3.68435 -4.56588 0
M  V30 912 C 90.175 -4.21368 -4.71838 0
M  V30 913 C 88.839 -4.59833 -4.83849 0
M  V30 914 H 88.109 -0.157333 -0.724104 0
M  V30 915 H 90.756 -1.06217 -1.59343 0
M  V30 916 H 89.061 0.121619 -3.91611 0
M  V30 917 H 90.758 -0.260282 -4.00154 0
M  V30 918 H 87.348 -1.69252 -3.93766 0
M  V30 919 H 91.532 -2.63608 -4.20505 0
M  V30 920 H 86.788 -3.98046 -4.64079 0
M  V30 921 H 90.962 -4.92703 -4.92155 0
M  V30 922 H 88.589 -5.60438 -5.13627 0
M  V30 923 N 90.1641 1.46063 -0.591896 0
M  V30 924 C 91.1271 2.28854 0.125973 0
M  V30 925 C 92.1271 1.38903 0.810107 0
M  V30 926 O 93.3171 1.61186 0.66066 0
M  V30 927 C 90.4491 3.19526 1.1881 0
M  V30 928 H 91.6421 2.93802 -0.601717 0
M  V30 929 H 89.1951 1.52325 -0.350254 0
M  V30 930 H 89.9301 2.59345 1.94707 0
M  V30 931 H 89.7151 3.85766 0.701936 0
M  V30 932 H 91.2051 3.81817 1.69132 0
M  V30 933 N 91.6422 0.330177 1.54103 0
M  V30 934 C 92.5752 -0.575477 2.20825 0
M  V30 935 C 93.5532 -1.11064 1.18758 0
M  V30 936 O 94.7372 -1.17341 1.47524 0
M  V30 937 C 91.8642 -1.79032 2.87516 0
M  V30 938 C 90.9102 -1.38581 4.03358 0
M  V30 939 S 91.7432 -0.416911 5.33875 0
M  V30 940 C 92.8992 -1.63889 6.04062 0
M  V30 941 H 93.1322 -0.00872114 2.97299 0
M  V30 942 H 90.6652 0.114254 1.53977 0
M  V30 943 H 92.6232 -2.48734 3.2656 0
M  V30 944 H 91.2842 -2.32827 2.10832 0
M  V30 945 H 90.4772 -2.29123 4.48908 0
M  V30 946 H 90.0792 -0.768419 3.66021 0
M  V30 947 H 92.3712 -2.57536 6.26643 0
M  V30 948 H 93.3142 -1.22542 6.97416 0
M  V30 949 H 93.7222 -1.82887 5.34053 0
M  V30 950 N 93.1203 -1.57491 0.0584922 0
M  V30 951 C 94.0503 -2.14988 -0.911178 0
M  V30 952 C 95.0313 -1.07343 -1.31952 0
M  V30 953 O 96.2163 -1.35318 -1.39294 0
M  V30 954 C 93.3463 -2.70078 -2.18347 0
M  V30 955 C 92.3003 -3.82771 -1.91495 0
M  V30 956 C 91.6263 -4.24408 -3.25241 0
M  V30 957 C 92.9263 -5.07592 -1.23075 0
M  V30 958 H 94.6203 -2.96263 -0.432246 0
M  V30 959 H 92.1663 -1.42512 -0.206469 0
M  V30 960 H 94.1193 -3.08943 -2.86587 0
M  V30 961 H 92.8433 -1.86005 -2.68458 0
M  V30 962 H 91.5023 -3.44389 -1.25664 0
M  V30 963 H 91.1503 -3.37275 -3.73168 0
M  V30 964 H 90.8503 -5.00366 -3.08071 0
M  V30 965 H 92.3743 -4.65879 -3.94701 0
M  V30 966 H 93.7883 -5.43857 -1.81362 0
M  V30 967 H 92.1853 -5.88741 -1.16207 0
M  V30 968 H 93.2553 -4.84454 -0.207847 0
M  V30 969 N 94.5984 0.214957 -1.56127 0
M  V30 970 C 95.8234 0.95924 -1.83884 0
M  V30 971 C 96.2484 1.7689 -0.639644 0
M  V30 972 O 95.6064 1.76566 0.411601 0
M  V30 973 C 95.6544 1.84723 -3.09693 0
M  V30 974 O 94.7584 2.94346 -2.8885 0
M  V30 975 H 94.0994 0.27125 -0.606069 0
M  V30 976 H 96.6294 0.226276 -2.03345 0
M  V30 977 H 96.6394 2.25576 -3.39969 0
M  V30 978 H 95.3144 1.25218 -3.96602 0
M  V30 979 H 93.8914 2.57391 -2.69823 0
M  V30 980 N 96.0765 1.50051 0.48192 0
M  V30 981 C 97.0065 1.71046 1.58951 0
M  V30 982 C 97.9875 0.559288 1.60642 0
M  V30 983 O 99.1725 0.797243 1.77081 0
M  V30 984 C 96.3025 1.79462 2.97339 0
M  V30 985 C 95.2565 2.94558 3.10515 0
M  V30 986 C 94.5825 2.88105 4.50444 0
M  V30 987 C 95.8825 4.35227 2.88747 0
M  V30 988 H 97.5765 2.6378 1.41635 0
M  V30 989 H 95.1225 1.26936 0.679942 0
M  V30 990 H 97.0755 1.92734 3.74742 0
M  V30 991 H 95.7995 0.833412 3.15788 0
M  V30 992 H 94.4585 2.80918 2.35543 0
M  V30 993 H 94.1065 1.89853 4.65795 0
M  V30 994 H 93.8065 3.65366 4.60197 0
M  V30 995 H 95.3305 3.03412 5.29881 0
M  V30 996 H 96.7445 4.49449 3.55905 0
M  V30 997 H 95.1415 5.13856 3.09955 0
M  V30 998 H 96.2115 4.48347 1.84696 0
M  V30 999 N 97.5546 -0.734337 1.39446 0
M  V30 1000 C 98.8026 -1.49096 1.36436 0
M  V30 1001 C 99.1236 -1.94961 -0.0388255 0
M  V30 1002 O 98.3936 -1.69033 -0.990191 0
M  V30 1003 H 96.9736 -0.5531 0.502085 0
M  V30 1004 H 99.6356 -0.871725 1.74319 0
M  V30 1005 H 98.7316 -2.37276 2.02747 0
M  V30 1006 N 99.0327 -1.24633 -0.964593 0
M  V30 1007 C 100.261 -1.11501 -1.74285 0
M  V30 1008 C 100.676 0.332165 -1.85855 0
M  V30 1009 O 100.033 1.22903 -1.34911 0
M  V30 1010 C 100.084 -1.75258 -3.16175 0
M  V30 1011 O 99.8047 -3.14318 -3.05182 0
M  V30 1012 C 101.306 -1.67776 -4.10324 0
M  V30 1013 H 98.5257 -0.389407 -0.546446 0
M  V30 1014 H 101.07 -1.64801 -1.21083 0
M  V30 1015 H 99.2247 -1.25954 -3.66353 0
M  V30 1016 H 99.6387 -3.4551 -3.94618 0
M  V30 1017 H 101.113 -2.17064 -5.0753 0
M  V30 1018 H 101.59 -0.639584 -4.34518 0
M  V30 1019 H 102.196 -2.16522 -3.66058 0
M  V30 1020 N 100.511 1.16574 -1.06058 0
M  V30 1021 C 101.458 2.20883 -0.669263 0
M  V30 1022 C 102.428 1.62729 0.332918 0
M  V30 1023 O 103.613 1.895 0.222346 0
M  V30 1024 C 100.753 3.45049 -0.0593572 0
M  V30 1025 C 99.8658 4.17458 -1.11143 0
M  V30 1026 C 99.0008 5.29135 -0.467916 0
M  V30 1027 C 98.0398 5.93343 -1.50369 0
M  V30 1028 N 97.1768 6.96516 -0.883706 0
M  V30 1029 H 102.017 2.53709 -1.5632 0
M  V30 1030 H 99.5538 1.24616 -0.781625 0
M  V30 1031 H 101.512 4.16033 0.311771 0
M  V30 1032 H 100.142 3.12781 0.797992 0
M  V30 1033 H 99.1938 3.45101 -1.60029 0
M  V30 1034 H 100.506 4.61307 -1.89731 0
M  V30 1035 H 99.6598 6.06684 -0.0436871 0
M  V30 1036 H 98.3988 4.86443 0.349864 0
M  V30 1037 H 97.4038 5.14517 -1.93784 0
M  V30 1038 H 98.6288 6.38114 -2.32352 0
M  V30 1039 H 96.5748 6.55943 -0.086595 0
M  V30 1040 H 96.4918 7.38723 -1.607 0
M  V30 1041 H 97.7598 7.77993 -0.484543 0
M  V30 1042 N 101.989 0.842826 1.3317 0
M  V30 1043 C 102.952 0.284065 2.27433 0
M  V30 1044 C 103.952 -0.54948 1.5112 0
M  V30 1045 O 105.142 -0.362699 1.70382 0
M  V30 1046 C 102.274 -0.599384 3.35589 0
M  V30 1047 H 103.467 1.11589 2.78366 0
M  V30 1048 H 101.02 0.616221 1.4364 0
M  V30 1049 H 101.755 -1.45349 2.89904 0
M  V30 1050 H 101.54 -0.00291266 3.921 0
M  V30 1051 H 103.03 -0.983488 4.05854 0
M  V30 1052 N 103.467 -1.45747 0.599634 0
M  V30 1053 C 104.744 -1.95585 0.0240846 0
M  V30 1054 C 105.124 -1.54217 -1.44154 0
M  V30 1055 O 104.472 -0.800903 -2.14004 0
M  V30 1056 C 104.682 -3.48344 0.21385 0
M  V30 1057 C 106.03 -4.24504 0.0904902 0
M  V30 1058 O 107.054 -3.55911 0.143558 0
M  V30 1059 O 105.913 -5.46491 -0.0310766 0
M  V30 1060 H 103.007 -0.82602 -0.0402478 0
M  V30 1061 H 105.553 -1.55951 0.669139 0
M  V30 1062 H 104.325 -3.71397 1.23206 0
M  V30 1063 H 103.948 -3.9485 -0.466842 0
M  V30 1064 N 104.945 -0.338344 -1.53925 0
M  V30 1065 C 106.173 0.261298 -2.05243 0
M  V30 1066 C 106.588 1.44625 -1.21363 0
M  V30 1067 O 105.945 1.80811 -0.247736 0
M  V30 1068 C 105.996 0.681412 -3.5502 0
M  V30 1069 O 105.717 -0.456414 -4.35716 0
M  V30 1070 C 107.218 1.34232 -4.22489 0
M  V30 1071 H 104.438 0.0513685 -0.669031 0
M  V30 1072 H 106.982 -0.488822 -1.98572 0
M  V30 1073 H 105.137 1.38148 -3.61931 0
M  V30 1074 H 105.551 -0.122564 -5.24357 0
M  V30 1075 H 107.025 1.58708 -5.28693 0
M  V30 1076 H 107.502 2.29426 -3.74514 0
M  V30 1077 H 108.108 0.684424 -4.19757 0
M  V30 1078 N 106.423 1.57458 -0.0668435 0
M  V30 1079 C 107.373 2.0896 0.912119 0
M  V30 1080 C 108.357 0.998186 1.26195 0
M  V30 1081 O 109.549 1.26133 1.24175 0
M  V30 1082 C 106.678 2.6508 2.18145 0
M  V30 1083 C 105.764 3.81218 1.85832 0
M  V30 1084 N 106.155 4.90378 1.23948 0
M  V30 1085 C 104.453 3.9042 2.15612 0
M  V30 1086 C 105.154 5.71279 1.09616 0
M  V30 1087 N 104.13 5.19389 1.60423 0
M  V30 1088 H 107.932 2.90749 0.42924 0
M  V30 1089 H 105.446 1.6182 0.137184 0
M  V30 1090 H 107.443 3.0029 2.89192 0
M  V30 1091 H 106.103 1.84736 2.67025 0
M  V30 1092 H 107.114 5.09847 0.909731 0
M  V30 1093 H 103.791 3.21043 2.66903 0
M  V30 1094 H 105.181 6.69085 0.614425 0
M  V30 1095 N 107.901 -0.206675 1.56239 0
M  V30 1096 C 109.178 -0.954051 1.70755 0
M  V30 1097 C 109.558 -2.01841 0.618353 0
M  V30 1098 O 108.906 -2.25444 -0.372434 0
M  V30 1099 C 109.116 -1.551 3.12642 0
M  V30 1100 C 110.464 -2.03757 3.72516 0
M  V30 1101 O 111.488 -1.64965 3.15698 0
M  V30 1102 O 110.347 -2.75103 4.72208 0
M  V30 1103 H 107.441 -0.446636 0.696021 0
M  V30 1104 H 109.987 -0.197283 1.68549 0
M  V30 1105 H 108.759 -0.783212 3.83382 0
M  V30 1106 H 108.382 -2.37291 3.19028 0
M  V30 1107 N 109.379 -1.50304 -0.473955 0
M  V30 1108 C 110.289 -1.7174 -1.5982 0
M  V30 1109 C 111.305 -0.600457 -1.63311 0
M  V30 1110 O 112.481 -0.878441 -1.81233 0
M  V30 1111 C 109.546 -1.80427 -2.96052 0
M  V30 1112 C 108.607 -3.04148 -3.02972 0
M  V30 1113 C 107.84 -3.12411 -4.32706 0
M  V30 1114 O 108.063 -2.27542 -5.23049 0
M  V30 1115 O 106.997 -4.05113 -4.45159 0
M  V30 1116 H 110.823 -2.67035 -1.44657 0
M  V30 1117 H 108.408 -1.34366 -0.653148 0
M  V30 1118 H 110.29 -1.88338 -3.7697 0
M  V30 1119 H 108.965 -0.883156 -3.11419 0
M  V30 1120 H 107.872 -3.0174 -2.21142 0
M  V30 1121 H 109.205 -3.95829 -2.92541 0
M  V30 1122 N 110.857 0.726932 -1.39834 0
M  V30 1123 C 112.106 1.48214 -1.36805 0
M  V30 1124 C 112.419 1.95576 0.0305291 0
M  V30 1125 O 113.625 2.7088 0.183417 0
M  V30 1126 C 112.081 2.67854 -2.40379 0
M  V30 1127 C 111.689 2.27408 -3.85992 0
M  V30 1128 C 113.433 3.45641 -2.46439 0
M  V30 1129 C 111.34 3.43819 -4.81189 0
M  V30 1130 H 110.27 0.556606 -0.508631 0
M  V30 1131 H 112.921 0.792216 -1.65518 0
M  V30 1132 H 111.303 3.3896 -2.04749 0
M  V30 1133 H 112.477 1.63795 -4.30706 0
M  V30 1134 H 110.792 1.62692 -3.83302 0
M  V30 1135 H 113.389 4.32244 -3.14753 0
M  V30 1136 H 113.732 3.88669 -1.49139 0
M  V30 1137 H 114.265 2.8157 -2.81004 0
M  V30 1138 H 111.004 3.05834 -5.79781 0
M  V30 1139 H 110.524 4.06385 -4.41148 0
M  V30 1140 H 112.203 4.10043 -5.00474 0
M  V30 1141 N 112.336 1.25143 0.95797 0
M  V30 1142 C 113.266 1.07711 2.07173 0
M  V30 1143 C 114.247 -0.0128462 1.70095 0
M  V30 1144 O 115.432 0.156061 1.93572 0
M  V30 1145 C 112.562 0.691503 3.40346 0
M  V30 1146 C 111.516 1.73132 3.9142 0
M  V30 1147 C 110.842 1.20049 5.21049 0
M  V30 1148 C 112.142 3.1294 4.1817 0
M  V30 1149 H 113.836 2.00873 2.22014 0
M  V30 1150 H 111.382 0.967191 1.06684 0
M  V30 1151 H 113.335 0.556505 4.17709 0
M  V30 1152 H 112.059 -0.275819 3.25433 0
M  V30 1153 H 110.718 1.8547 3.16222 0
M  V30 1154 H 110.366 0.223499 5.02503 0
M  V30 1155 H 110.066 1.89545 5.56189 0
M  V30 1156 H 111.59 1.07782 6.01012 0
M  V30 1157 H 113.004 3.03775 4.86203 0
M  V30 1158 H 111.401 3.79875 4.64559 0
M  V30 1159 H 112.471 3.6025 3.24573 0
M  V30 1160 N 113.814 -1.1601 1.06675 0
M  V30 1161 C 114.724 -2.24156 0.692179 0
M  V30 1162 C 115.74 -1.71507 -0.293513 0
M  V30 1163 O 116.916 -2.009 -0.141861 0
M  V30 1164 C 113.981 -3.46587 0.0884131 0
M  V30 1165 C 113.042 -4.14257 1.12646 0
M  V30 1166 C 112.275 -5.30844 0.551416 0
M  V30 1167 O 112.498 -5.66858 -0.634656 0
M  V30 1168 O 111.432 -5.87848 1.29298 0
M  V30 1169 H 115.258 -2.58513 1.59388 0
M  V30 1170 H 112.843 -1.23599 0.83926 0
M  V30 1171 H 114.725 -4.20679 -0.246361 0
M  V30 1172 H 113.4 -3.13994 -0.786712 0
M  V30 1173 H 112.307 -3.42118 1.51348 0
M  V30 1174 H 113.64 -4.50914 1.97325 0
M  V30 1175 N 115.292 -0.849877 -1.32721 0
M  V30 1176 C 116.54 -0.450032 -1.97026 0
M  V30 1177 C 116.861 0.996604 -1.67609 0
M  V30 1178 O 116.131 1.6958 -0.980786 0
M  V30 1179 H 114.711 -0.163426 -0.728904 0
M  V30 1180 H 117.373 -1.08526 -1.6189 0
M  V30 1181 H 116.469 -0.591146 -3.0645 0
M  V30 1182 N 116.77 1.45427 -0.607355 0
M  V30 1183 C 117.7 2.3329 0.0989352 0
M  V30 1184 C 118.681 1.46816 0.859007 0
M  V30 1185 O 119.866 1.75588 0.829604 0
M  V30 1186 C 116.996 3.29518 1.09705 0
M  V30 1187 C 115.95 4.25626 0.450206 0
M  V30 1188 C 115.276 5.11542 1.55655 0
M  V30 1189 C 116.576 5.18505 -0.628455 0
M  V30 1190 H 118.27 2.92595 -0.634716 0
M  V30 1191 H 115.816 1.40696 -0.306681 0
M  V30 1192 H 117.769 3.89855 1.59971 0
M  V30 1193 H 116.493 2.68372 1.86129 0
M  V30 1194 H 115.152 3.66586 -0.0315886 0
M  V30 1195 H 114.8 4.46765 2.31107 0
M  V30 1196 H 114.5 5.76647 1.12925 0
M  V30 1197 H 116.024 5.74748 2.06148 0
M  V30 1198 H 117.438 5.72916 -0.209877 0
M  V30 1199 H 115.835 5.92085 -0.977489 0
M  V30 1200 H 116.905 4.60948 -1.50514 0
M  V30 1201 N 118.248 0.346503 1.53744 0
M  V30 1202 C 119.196 -0.52422 2.26616 0
M  V30 1203 C 120.19 -1.09948 1.28871 0
M  V30 1204 O 121.396 -1.04488 1.46568 0
M  V30 1205 H 117.771 -0.187743 0.728187 0
M  V30 1206 H 119.742 0.11239 2.98188 0
M  V30 1207 C 118.491 -1.66186 3.05414 0
M  V30 1208 H 117.814 -1.22848 3.80458 0
M  V30 1209 H 119.254 -2.24622 3.59612 0
M  V30 1210 C 117.713 -2.59302 2.1509 0
M  V30 1211 O 118.243 -3.61628 1.74895 0
M  V30 1212 N 116.449 -2.28055 1.8011 0
M  V30 1213 H 115.996 -1.44883 2.12994 0
M  V30 1214 H 115.954 -2.90615 1.19958 0
M  V30 1215 N 119.726 -1.57421 0.075193 0
M  V30 1216 C 120.973 -1.93618 -0.593146 0
M  V30 1217 C 121.301 -0.955484 -1.69413 0
M  V30 1218 O 120.556 0.0283251 -1.9568 0
M  V30 1219 C 120.855 -3.36428 -1.20626 0
M  V30 1220 C 120.521 -4.50307 -0.231078 0
M  V30 1221 C 119.183 -4.81186 0.0371936 0
M  V30 1222 C 121.535 -5.19374 0.435888 0
M  V30 1223 C 118.863 -5.78466 0.979461 0
M  V30 1224 C 121.215 -6.17665 1.3665 0
M  V30 1225 C 119.879 -6.46958 1.6432 0
M  V30 1226 H 119.149 -0.708499 -0.217047 0
M  V30 1227 H 121.796 -1.90937 0.146793 0
M  V30 1228 H 120.101 -3.35592 -2.02201 0
M  V30 1229 H 121.798 -3.61727 -1.73073 0
M  V30 1230 H 118.388 -4.26227 -0.450357 0
M  V30 1231 H 122.572 -4.95711 0.241748 0
M  V30 1232 H 117.828 -5.99487 1.20106 0
M  V30 1233 H 122.002 -6.70284 1.88924 0
M  V30 1234 H 119.629 -7.2215 2.37494 0
M  V30 1235 N 121.204 0.198386 -1.56346 0
M  V30 1236 C 122.152 1.26538 -1.95169 0
M  V30 1237 C 123.146 1.47295 -0.836685 0
M  V30 1238 O 124.352 1.48195 -1.02167 0
M  V30 1239 H 120.727 0.424744 -0.620561 0
M  V30 1240 H 122.698 0.910904 -2.84157 0
M  V30 1241 C 121.447 2.6035 -2.30463 0
M  V30 1242 H 120.77 2.45192 -3.15786 0
M  V30 1243 H 122.21 3.33762 -2.61494 0
M  V30 1244 C 120.669 3.17096 -1.13806 0
M  V30 1245 O 121.199 3.99588 -0.41135 0
M  V30 1246 N 119.405 2.75795 -0.915736 0
M  V30 1247 H 118.952 2.08816 -1.50843 0
M  V30 1248 H 118.91 3.14101 -0.136979 0
M  V30 1249 N 122.682 1.50554 0.465978 0
M  V30 1250 C 123.612 1.72722 1.57128 0
M  V30 1251 C 124.593 0.576294 1.6004 0
M  V30 1252 O 125.778 0.81598 1.76225 0
M  V30 1253 C 122.908 1.82605 2.95419 0
M  V30 1254 C 121.862 2.97835 3.07373 0
M  V30 1255 C 121.188 2.92867 4.47363 0
M  V30 1256 C 122.488 4.38265 2.84114 0
M  V30 1257 H 124.182 2.65267 1.38829 0
M  V30 1258 H 121.728 1.2765 0.666441 0
M  V30 1259 H 123.681 1.96698 3.72677 0
M  V30 1260 H 122.405 0.866858 3.14886 0
M  V30 1261 H 121.064 2.83401 2.3255 0
M  V30 1262 H 120.712 1.94783 4.63755 0
M  V30 1263 H 120.412 3.70227 4.56296 0
M  V30 1264 H 121.936 3.09015 5.26633 0
M  V30 1265 H 123.35 4.53198 3.51118 0
M  V30 1266 H 121.747 5.17115 3.04487 0
M  V30 1267 H 122.817 4.50281 1.7993 0
M  V30 1268 N 124.16 -0.719506 1.40217 0
M  V30 1269 C 125.388 -1.50864 1.41589 0
M  V30 1270 C 125.803 -1.88794 0.0145275 0
M  V30 1271 O 125.16 -1.55174 -0.960594 0
M  V30 1272 C 125.211 -2.78646 2.30302 0
M  V30 1273 O 124.932 -2.42321 3.64983 0
M  V30 1274 C 126.433 -3.72569 2.40224 0
M  V30 1275 H 123.653 -0.465709 0.48307 0
M  V30 1276 H 126.197 -0.88785 1.84221 0
M  V30 1277 H 124.352 -3.37019 1.91042 0
M  V30 1278 H 124.766 -3.24514 4.12057 0
M  V30 1279 H 126.24 -4.5908 3.06512 0
M  V30 1280 H 126.717 -4.15403 1.42608 0
M  V30 1281 H 127.323 -3.20109 2.80019 0
M  V30 1282 N 125.638 -1.25649 -0.95132 0
M  V30 1283 C 126.548 -1.08073 -2.08224 0
M  V30 1284 C 127.564 -0.0169666 -1.73992 0
M  V30 1285 O 128.74 -0.218593 -2.0021 0
M  V30 1286 C 125.805 -0.704922 -3.39458 0
M  V30 1287 C 124.866 -1.84699 -3.87537 0
M  V30 1288 C 124.099 -1.48902 -5.12508 0
M  V30 1289 O 124.322 -0.386156 -5.69091 0
M  V30 1290 O 123.256 -2.32033 -5.55378 0
M  V30 1291 H 127.082 -2.02924 -2.25954 0
M  V30 1292 H 124.667 -1.04618 -1.06656 0
M  V30 1293 H 126.549 -0.507609 -4.18332 0
M  V30 1294 H 125.224 0.214291 -3.2299 0
M  V30 1295 H 124.131 -2.09919 -3.09653 0
M  V30 1296 H 125.464 -2.74557 -4.08509 0
M  V30 1297 N 127.117 1.15442 -1.07289 0
M  V30 1298 C 128.366 1.85557 -0.790669 0
M  V30 1299 C 128.679 1.83186 0.685739 0
M  V30 1300 O 129.885 2.48977 1.0827 0
M  V30 1301 C 128.341 3.33038 -1.36433 0
M  V30 1302 C 127.949 3.43856 -2.8717 0
M  V30 1303 C 129.693 4.0834 -1.1601 0
M  V30 1304 C 127.6 4.85482 -3.3773 0
M  V30 1305 H 126.53 0.695122 -0.292098 0
M  V30 1306 H 129.181 1.30219 -1.29287 0
M  V30 1307 H 127.563 3.88043 -0.789864 0
M  V30 1308 H 128.737 2.98961 -3.50655 0
M  V30 1309 H 127.052 2.81998 -3.06376 0
M  V30 1310 H 129.649 5.12859 -1.51262 0
M  V30 1311 H 129.992 4.16182 -0.0991007 0
M  V30 1312 H 130.525 3.59603 -1.70089 0
M  V30 1313 H 127.264 4.82823 -4.43353 0
M  V30 1314 H 126.784 5.30961 -2.78999 0
M  V30 1315 H 128.463 5.54335 -3.33648 0
M  V30 1316 N 128.595 0.856903 1.32268 0
M  V30 1317 C 130.006 0.515711 1.79436 0
M  V30 1318 C 130.357 -0.966586 1.70738 0
M  V30 1319 O 129.482 -1.75409 1.26731 0
M  V30 1320 C 130.077 0.929335 3.25805 0
M  V30 1321 C 128.636 0.640006 3.70919 0
M  V30 1322 C 127.783 1.12784 2.53328 0
M  V30 1323 H 130.734 1.04389 1.19535 0
M  V30 1324 H 130.755 0.246633 3.797 0
M  V30 1325 H 130.267 2.00821 3.32103 0
M  V30 1326 H 128.368 -0.428051 3.70133 0
M  V30 1327 H 128.481 1.20788 4.63624 0
M  V30 1328 H 126.845 0.548033 2.48734 0
M  V30 1329 H 127.628 2.21387 2.62379 0
M  V30 1330 N 130.073 -1.45103 0.615059 0
M  V30 1331 C 130.983 -2.34382 -0.101034 0
M  V30 1332 C 131.999 -1.51681 -0.852585 0
M  V30 1333 O 133.175 -1.8446 -0.808484 0
M  V30 1334 C 130.24 -3.29417 -1.08099 0
M  V30 1335 C 129.301 -4.28025 -0.330577 0
M  V30 1336 C 128.534 -5.1852 -1.26385 0
M  V30 1337 O 128.757 -5.12598 -2.50198 0
M  V30 1338 O 127.691 -5.97122 -0.756866 0
M  V30 1339 H 131.517 -2.97033 0.632855 0
M  V30 1340 H 129.102 -1.4461 0.375293 0
M  V30 1341 H 130.984 -3.87958 -1.6452 0
M  V30 1342 H 129.659 -2.69321 -1.79577 0
M  V30 1343 H 128.566 -3.73078 0.276283 0
M  V30 1344 H 129.899 -4.90997 0.343866 0
M  V30 1345 N 131.551 -0.354651 -1.53558 0
M  V30 1346 C 132.514 0.484566 -2.24019 0
M  V30 1347 C 133.514 1.01861 -1.24422 0
M  V30 1348 O 134.704 0.906097 -1.4878 0
M  V30 1349 C 131.836 1.67615 -2.96847 0
M  V30 1350 H 133.029 -0.131843 -2.9961 0
M  V30 1351 H 130.582 -0.106165 -1.55939 0
M  V30 1352 H 131.317 2.33095 -2.25471 0
M  V30 1353 H 131.102 1.30029 -3.69912 0
M  V30 1354 H 132.592 2.27114 -3.50441 0
M  V30 1355 N 133.029 1.57378 -0.0835403 0
M  V30 1356 C 133.961 2.10389 0.909338 0
M  V30 1357 C 134.974 1.03858 1.25369 0
M  V30 1358 O 136.163 1.31338 1.20882 0
M  V30 1359 C 133.263 2.55908 2.2218 0
M  V30 1360 C 132.436 3.86145 2.05453 0
M  V30 1361 C 131.495 4.17633 3.20108 0
M  V30 1362 O 130.521 4.87043 2.94581 0
M  V30 1363 N 131.723 3.72113 4.45547 0
M  V30 1364 H 134.488 2.962 0.456657 0
M  V30 1365 H 132.049 1.61579 0.101877 0
M  V30 1366 H 134.041 2.74027 2.97811 0
M  V30 1367 H 132.611 1.75171 2.58909 0
M  V30 1368 H 131.831 3.7729 1.1422 0
M  V30 1369 H 133.119 4.7137 1.91541 0
M  V30 1370 H 132.517 3.16062 4.69171 0
M  V30 1371 H 131.074 3.95409 5.18165 0
M  V30 1372 N 134.507 -0.190092 1.56449 0
M  V30 1373 C 135.756 -0.907912 1.80111 0
M  V30 1374 C 136.069 -1.84214 0.657619 0
M  V30 1375 O 137.275 -2.60094 0.778663 0
M  V30 1376 C 135.731 -1.66485 3.19078 0
M  V30 1377 C 135.339 -0.7752 4.41242 0
M  V30 1378 C 137.083 -2.37201 3.52045 0
M  V30 1379 C 134.99 -1.53129 5.71231 0
M  V30 1380 H 133.92 -0.34276 0.671589 0
M  V30 1381 H 136.571 -0.161109 1.82791 0
M  V30 1382 H 134.953 -2.45572 3.10661 0
M  V30 1383 H 136.127 -0.0226298 4.60794 0
M  V30 1384 H 134.442 -0.178627 4.16017 0
M  V30 1385 H 137.039 -2.94329 4.46402 0
M  V30 1386 H 137.382 -3.11632 2.76028 0
M  V30 1387 H 137.915 -1.65075 3.61932 0
M  V30 1388 H 134.654 -0.82967 6.50228 0
M  V30 1389 H 134.174 -2.25767 5.55688 0
M  V30 1390 H 135.853 -2.08377 6.12526 0
M  V30 1391 N 135.985 -1.50799 -0.457987 0
M  V30 1392 C 136.935 -1.67003 -1.55222 0
M  V30 1393 C 137.919 -0.52434 -1.52117 0
M  V30 1394 O 139.111 -0.779345 -1.58919 0
M  V30 1395 C 136.24 -1.77956 -2.93576 0
M  V30 1396 C 135.326 -2.98243 -3.01516 0
M  V30 1397 N 135.717 -4.21732 -2.79241 0
M  V30 1398 C 134.015 -2.97072 -3.32662 0
M  V30 1399 C 134.716 -5.02817 -2.92489 0
M  V30 1400 N 133.692 -4.37038 -3.23262 0
M  V30 1401 H 137.494 -2.60163 -1.36721 0
M  V30 1402 H 135.008 -1.48163 -0.664952 0
M  V30 1403 H 137.005 -1.87671 -3.72271 0
M  V30 1404 H 135.665 -0.859634 -3.13114 0
M  V30 1405 H 136.676 -4.51016 -2.54567 0
M  V30 1406 H 133.353 -2.14631 -3.58106 0
M  V30 1407 H 134.743 -6.11054 -2.79396 0
M  V30 1408 N 137.463 0.71206 -1.40597 0
M  V30 1409 C 138.373 1.8562 -1.43466 0
M  V30 1410 C 139.389 1.70902 -0.326902 0
M  V30 1411 O 140.565 1.93105 -0.572043 0
M  V30 1412 C 137.63 3.21451 -1.29884 0
M  V30 1413 C 136.691 3.48398 -2.50833 0
M  V30 1414 C 135.924 4.77749 -2.3789 0
M  V30 1415 O 136.147 5.53089 -1.39459 0
M  V30 1416 O 135.081 5.05111 -3.27333 0
M  V30 1417 H 138.907 1.86155 -2.39958 0
M  V30 1418 H 136.492 0.86295 -1.21957 0
M  V30 1419 H 138.374 4.02579 -1.24531 0
M  V30 1420 H 137.049 3.21636 -0.364997 0
M  V30 1421 H 135.956 2.67265 -2.61763 0
M  V30 1422 H 137.289 3.53014 -3.4299 0
M  V30 1423 N 138.941 1.26152 0.944643 0
M  V30 1424 C 140.189 1.11271 1.6871 0
M  V30 1425 C 140.51 -0.345166 1.91921 0
M  V30 1426 O 139.78 -1.24387 1.51343 0
M  V30 1427 H 138.36 0.408783 0.625224 0
M  V30 1428 H 141.022 1.58427 1.1352 0
M  V30 1429 H 140.118 1.62879 2.66227 0
M  V30 1430 N 140.419 -1.14872 1.07899 0
M  V30 1431 C 141.666 -1.85789 0.805532 0
M  V30 1432 C 141.994 -1.82649 -0.668561 0
M  V30 1433 O 141.249 -1.24858 -1.50695 0
M  V30 1434 C 141.548 -3.34223 1.26609 0
M  V30 1435 C 141.214 -3.57555 2.74709 0
M  V30 1436 C 139.876 -3.63631 3.1516 0
M  V30 1437 C 142.228 -3.66803 3.70277 0
M  V30 1438 C 139.556 -3.76473 4.49983 0
M  V30 1439 C 141.908 -3.8117 5.04869 0
M  V30 1440 C 140.572 -3.85494 5.44932 0
M  V30 1441 H 139.842 -0.679849 0.294765 0
M  V30 1442 H 142.489 -1.3572 1.35101 0
M  V30 1443 H 140.794 -3.86536 0.640103 0
M  V30 1444 H 142.491 -3.87511 1.03132 0
M  V30 1445 H 139.081 -3.5347 2.42398 0
M  V30 1446 H 143.265 -3.61404 3.40149 0
M  V30 1447 H 138.521 -3.7808 4.80484 0
M  V30 1448 H 142.695 -3.87268 5.78789 0
M  V30 1449 H 140.322 -3.95197 6.49403 0
M  V30 1450 N 141.898 -0.863906 -1.31812 0
M  V30 1451 C 142.83 -0.272485 -2.27575 0
M  V30 1452 C 143.843 0.56104 -1.52827 0
M  V30 1453 O 145.032 0.384021 -1.7432 0
M  V30 1454 C 142.132 0.63283 -3.32939 0
M  V30 1455 C 141.305 -0.166902 -4.37081 0
M  V30 1456 C 140.364 0.665608 -5.21973 0
M  V30 1457 O 139.39 0.0958091 -5.69119 0
M  V30 1458 N 140.592 1.9787 -5.45736 0
M  V30 1459 H 143.357 -1.0954 -2.78964 0
M  V30 1460 H 140.918 -0.724791 -1.4477 0
M  V30 1461 H 142.91 1.19532 -3.86645 0
M  V30 1462 H 141.48 1.35642 -2.81638 0
M  V30 1463 H 140.7 -0.910838 -3.83533 0
M  V30 1464 H 141.988 -0.715874 -5.03739 0
M  V30 1465 H 141.386 2.46484 -5.09178 0
M  V30 1466 H 139.943 2.48911 -6.024 0
M  V30 1467 N 143.376 1.44774 -0.622745 0
M  V30 1468 C 144.286 2.34433 0.0886031 0
M  V30 1469 C 145.302 1.52131 0.844529 0
M  V30 1470 O 146.478 1.84886 0.798691 0
M  V30 1471 C 143.543 3.29986 1.0635 0
M  V30 1472 C 142.604 4.28195 0.307873 0
M  V30 1473 C 141.837 5.19183 1.23633 0
M  V30 1474 O 142.06 5.13918 2.47476 0
M  V30 1475 O 140.994 5.97515 0.725189 0
M  V30 1476 H 144.82 2.96693 -0.648599 0
M  V30 1477 H 142.405 1.44408 -0.382957 0
M  V30 1478 H 144.287 3.88825 1.6246 0
M  V30 1479 H 142.962 2.70269 1.78146 0
M  V30 1480 H 141.869 3.72927 -0.296064 0
M  V30 1481 H 143.202 4.90808 -0.3699 0
M  V30 1482 N 144.854 0.36279 1.53368 0
M  V30 1483 C 145.784 -0.476976 2.28576 0
M  V30 1484 C 146.765 -1.08631 1.30894 0
M  V30 1485 O 147.95 -1.10409 1.59761 0
M  V30 1486 C 145.08 -1.61828 3.07293 0
M  V30 1487 C 144.034 -1.13633 4.1264 0
M  V30 1488 C 143.36 -2.36766 4.79423 0
M  V30 1489 C 144.66 -0.223061 5.21823 0
M  V30 1490 H 146.354 0.150474 2.99022 0
M  V30 1491 H 143.9 0.0738103 1.43811 0
M  V30 1492 H 145.853 -2.21237 3.58653 0
M  V30 1493 H 144.577 -2.27292 2.34533 0
M  V30 1494 H 143.236 -0.564945 3.62221 0
M  V30 1495 H 142.884 -3.0068 4.03238 0
M  V30 1496 H 142.584 -2.05192 5.50609 0
M  V30 1497 H 144.108 -2.96865 5.33576 0
M  V30 1498 H 145.522 -0.724545 5.68703 0
M  V30 1499 H 143.919 0.001678 6.001 0
M  V30 1500 H 144.989 0.735553 4.79289 0
M  V30 1501 N 146.332 -1.57332 0.0918853 0
M  V30 1502 C 147.262 -2.16872 -0.865371 0
M  V30 1503 C 148.243 -1.10118 -1.29646 0
M  V30 1504 O 149.428 -1.38242 -1.36392 0
M  V30 1505 C 146.558 -2.74649 -2.12569 0
M  V30 1506 C 145.512 -3.86747 -1.83333 0
M  V30 1507 C 144.838 -4.31212 -3.16166 0
M  V30 1508 C 146.138 -5.10089 -1.1228 0
M  V30 1509 H 147.832 -2.97114 -0.369307 0
M  V30 1510 H 145.378 -1.42918 -0.176194 0
M  V30 1511 H 147.331 -3.14952 -2.7997 0
M  V30 1512 H 146.055 -1.91657 -2.64452 0
M  V30 1513 H 144.714 -3.46978 -1.18331 0
M  V30 1514 H 144.362 -3.45115 -3.6593 0
M  V30 1515 H 144.062 -5.06788 -2.97388 0
M  V30 1516 H 145.586 -4.74146 -3.84731 0
M  V30 1517 H 147 -5.47582 -1.69785 0
M  V30 1518 H 145.397 -5.91073 -1.03693 0
M  V30 1519 H 146.467 -4.84786 -0.105041 0
M  V30 1520 N 147.81 0.181792 -1.56548 0
M  V30 1521 C 149.226 0.53316 -1.50431 0
M  V30 1522 C 149.426 1.85184 -0.794297 0
M  V30 1523 O 148.482 2.50058 -0.350318 0
M  V30 1524 C 149.795 0.575597 -2.9514 0
M  V30 1525 C 151.343 0.663519 -3.05886 0
M  V30 1526 C 151.818 0.736946 -4.52032 0
M  V30 1527 N 153.309 0.800118 -4.56237 0
M  V30 1528 C 154.044 0.877327 -5.66649 0
M  V30 1529 N 153.54 0.916016 -6.86718 0
M  V30 1530 N 155.333 0.915542 -5.54594 0
M  V30 1531 H 147.484 -0.683025 -2.01118 0
M  V30 1532 H 149.747 -0.244988 -0.915797 0
M  V30 1533 H 149.453 -0.324482 -3.502 0
M  V30 1534 H 149.327 1.42572 -3.49218 0
M  V30 1535 H 151.714 1.55403 -2.50867 0
M  V30 1536 H 151.795 -0.21307 -2.54911 0
M  V30 1537 H 151.439 -0.149262 -5.07681 0
M  V30 1538 H 151.369 1.62953 -5.00753 0
M  V30 1539 H 153.86 0.778926 -3.69785 0
M  V30 1540 H 154.173 0.975813 -7.66614 0
M  V30 1541 H 152.518 0.884469 -6.89349 0
M  V30 1542 H 155.709 0.882245 -4.59711 0
M  V30 1543 H 155.882 0.972253 -6.40665 0
M  V30 1544 N 149.288 1.51039 0.449983 0
M  V30 1545 C 150.516 1.66869 1.2232 0
M  V30 1546 C 150.931 0.360727 1.85322 0
M  V30 1547 O 150.288 -0.659531 1.70166 0
M  V30 1548 C 150.339 2.77524 2.31652 0
M  V30 1549 O 150.06 4.03252 1.7123 0
M  V30 1550 C 151.561 3.04512 3.2216 0
M  V30 1551 H 148.781 0.560326 0.369155 0
M  V30 1552 H 151.325 1.97385 0.534719 0
M  V30 1553 H 149.48 2.49642 2.96239 0
M  V30 1554 H 149.894 4.64609 2.43389 0
M  V30 1555 H 151.368 3.85551 3.95038 0
M  V30 1556 H 151.845 2.16415 3.8218 0
M  V30 1557 H 152.451 3.34005 2.63288 0
M  V30 1558 N 150.766 -0.704594 1.40972 0
M  V30 1559 C 151.696 -1.83124 1.44872 0
M  V30 1560 C 152.677 -1.67281 0.30838 0
M  V30 1561 O 153.862 -1.87149 0.518556 0
M  V30 1562 C 150.992 -3.21181 1.32136 0
M  V30 1563 C 149.946 -3.51714 2.43888 0
M  V30 1564 C 149.272 -4.89032 2.16222 0
M  V30 1565 C 150.572 -3.516 3.86232 0
M  V30 1566 H 152.266 -1.80117 2.39161 0
M  V30 1567 H 149.812 -0.865145 1.15114 0
M  V30 1568 H 151.765 -3.99702 1.33479 0
M  V30 1569 H 150.489 -3.24791 0.343279 0
M  V30 1570 H 149.148 -2.75539 2.41813 0
M  V30 1571 H 148.796 -4.89256 1.16778 0
M  V30 1572 H 148.496 -5.10426 2.911 0
M  V30 1573 H 150.02 -5.69873 2.19265 0
M  V30 1574 H 151.434 -4.2014 3.9007 0
M  V30 1575 H 149.831 -3.84523 4.60719 0
M  V30 1576 H 150.901 -2.50757 4.15029 0
M  V30 1577 N 152.244 -1.26651 -0.937939 0
M  V30 1578 C 153.192 -1.08308 -2.05845 0
M  V30 1579 C 154.186 -0.0090757 -1.69398 0
M  V30 1580 O 155.392 -0.166007 -1.79233 0
M  V30 1581 H 151.767 -0.333416 -0.674046 0
M  V30 1582 H 153.738 -2.03261 -2.18467 0
M  V30 1583 C 152.487 -0.736229 -3.39816 0
M  V30 1584 H 151.81 -1.55453 -3.6834 0
M  V30 1585 H 153.25 -0.64769 -4.19024 0
M  V30 1586 C 151.709 0.558824 -3.32233 0
M  V30 1587 O 152.239 1.59621 -3.68624 0
M  V30 1588 N 150.445 0.550657 -2.85335 0
M  V30 1589 H 149.992 -0.293943 -2.55917 0
M  V30 1590 H 149.95 1.41726 -2.80644 0
M  V30 1591 N 153.722 1.14298 -1.08507 0
M  V30 1592 C 154.654 2.1907 -0.673859 0
M  V30 1593 C 155.667 1.60381 0.279577 0
M  V30 1594 O 156.856 1.78374 0.0670754 0
M  V30 1595 C 153.956 3.38888 0.0290979 0
M  V30 1596 C 153.129 4.27103 -0.943494 0
M  V30 1597 C 152.188 5.25477 -0.275676 0
M  V30 1598 O 151.214 5.61709 -0.920401 0
M  V30 1599 N 152.416 5.7227 0.974013 0
M  V30 1600 H 155.181 2.54965 -1.57521 0
M  V30 1601 H 152.742 1.29528 -0.971287 0
M  V30 1602 H 154.734 4.01761 0.48683 0
M  V30 1603 H 153.304 3.01309 0.832555 0
M  V30 1604 H 152.524 3.61149 -1.58004 0
M  V30 1605 H 153.812 4.82905 -1.60251 0
M  V30 1606 H 153.21 5.44965 1.51755 0
M  V30 1607 H 151.767 6.37127 1.37522 0
M  V30 1608 N 155.201 0.870884 1.31352 0
M  V30 1609 C 156.612 0.534714 1.78879 0
M  V30 1610 C 156.963 -0.948423 1.71754 0
M  V30 1611 O 156.088 -1.74055 1.28584 0
M  V30 1612 C 156.683 0.963839 3.24801 0
M  V30 1613 C 155.242 0.679311 3.70219 0
M  V30 1614 C 154.389 1.15465 2.52117 0
M  V30 1615 H 157.34 1.05651 1.18421 0
M  V30 1616 H 157.361 0.286892 3.79417 0
M  V30 1617 H 156.873 2.04332 3.29955 0
M  V30 1618 H 154.974 -0.388769 3.70566 0
M  V30 1619 H 155.087 1.25698 4.62317 0
M  V30 1620 H 153.451 0.574383 2.48139 0
M  V30 1621 H 154.234 2.24157 2.60016 0
M  V30 1622 N 156.679 -1.44442 0.630414 0
M  V30 1623 C 157.956 -1.9549 0.0655657 0
M  V30 1624 C 158.336 -1.5724 -1.40851 0
M  V30 1625 O 157.684 -0.846116 -2.12257 0
M  V30 1626 C 157.894 -3.47812 0.287691 0
M  V30 1627 C 159.242 -4.24216 0.180513 0
M  V30 1628 O 160.266 -3.55526 0.219019 0
M  V30 1629 O 159.125 -5.46434 0.0848493 0
M  V30 1630 H 156.219 -0.826688 -0.0227177 0
M  V30 1631 H 158.765 -1.54496 0.702068 0
M  V30 1632 H 157.537 -3.687 1.31056 0
M  V30 1633 H 157.16 -3.95751 -0.382984 0
M  V30 1634 N 158.157 -0.370918 -1.53173 0
M  V30 1635 C 159.382 0.220293 -2.06227 0
M  V30 1636 C 159.807 1.41243 -1.24225 0
M  V30 1637 O 159.165 1.79387 -0.262645 0
M  V30 1638 C 159.213 0.586663 -3.55796 0
M  V30 1639 O 158.317 1.68317 -3.76488 0
M  V30 1640 H 157.658 0.0308099 -0.663285 0
M  V30 1641 H 160.188 -0.533068 -1.97534 0
M  V30 1642 H 160.198 0.85617 -3.98916 0
M  V30 1643 H 158.873 -0.285013 -4.14922 0
M  V30 1644 H 157.45 1.40881 -3.45264 0
M  V30 1645 N 159.635 1.57281 -0.100228 0
M  V30 1646 C 160.567 2.11342 0.886972 0
M  V30 1647 C 161.58 1.05182 1.24261 0
M  V30 1648 O 162.769 1.32613 1.19483 0
M  V30 1649 C 159.869 2.5825 2.19454 0
M  V30 1650 C 159.042 3.88302 2.01346 0
M  V30 1651 C 158.101 4.21004 3.15661 0
M  V30 1652 O 157.127 4.9014 2.89398 0
M  V30 1653 N 158.329 3.76818 4.41575 0
M  V30 1654 H 161.094 2.96668 0.425216 0
M  V30 1655 H 158.655 1.61678 0.0847334 0
M  V30 1656 H 160.647 2.7717 2.94888 0
M  V30 1657 H 159.217 1.77907 2.57037 0
M  V30 1658 H 158.437 3.7848 1.10212 0
M  V30 1659 H 159.725 4.73375 1.8653 0
M  V30 1660 H 159.123 3.2102 4.65792 0
M  V30 1661 H 157.68 4.00882 5.13942 0
M  V30 1662 N 161.113 -0.173488 1.56642 0
M  V30 1663 C 162.043 -1.2171 1.99271 0
M  V30 1664 C 163.024 -1.46289 0.867959 0
M  V30 1665 O 164.209 -1.5766 1.13388 0
M  V30 1666 C 161.339 -2.55651 2.35074 0
M  V30 1667 C 160.293 -2.45645 3.50489 0
M  V30 1668 C 159.619 -3.84056 3.72028 0
M  V30 1669 C 160.919 -1.96302 4.84007 0
M  V30 1670 H 162.613 -0.86275 2.867 0
M  V30 1671 H 160.159 -0.413571 1.37933 0
M  V30 1672 H 162.112 -3.2886 2.63494 0
M  V30 1673 H 160.836 -2.92869 1.44552 0
M  V30 1674 H 159.495 -1.7489 3.22194 0
M  V30 1675 H 159.143 -4.18664 2.788 0
M  V30 1676 H 158.843 -3.7823 4.49684 0
M  V30 1677 H 160.367 -4.58854 4.02846 0
M  V30 1678 H 161.781 -2.59284 5.11317 0
M  V30 1679 H 160.178 -2.01429 5.65284 0
M  V30 1680 H 161.248 -0.917226 4.76146 0
M  V30 1681 N 162.591 -1.51276 -0.441967 0
M  V30 1682 C 163.523 -1.68444 -1.55433 0
M  V30 1683 C 164.536 -0.565187 -1.52674 0
M  V30 1684 O 165.725 -0.839356 -1.57534 0
M  V30 1685 C 162.825 -1.67966 -2.94348 0
M  V30 1686 C 161.998 -2.964 -3.21661 0
M  V30 1687 C 161.057 -2.88171 -4.40277 0
M  V30 1688 O 160.083 -3.62119 -4.39157 0
M  V30 1689 N 161.285 -2.03706 -5.43584 0
M  V30 1690 H 164.05 -2.644 -1.41112 0
M  V30 1691 H 161.611 -1.49104 -0.630838 0
M  V30 1692 H 163.603 -1.60035 -3.71713 0
M  V30 1693 H 162.173 -0.796225 -3.0229 0
M  V30 1694 H 161.393 -3.18234 -2.32638 0
M  V30 1695 H 162.681 -3.81427 -3.36736 0
M  V30 1696 H 162.079 -1.42995 -5.47329 0
M  V30 1697 H 160.636 -2.01658 -6.1982 0
M  V30 1698 N 164.069 0.697108 -1.41344 0
M  V30 1699 C 164.999 1.82353 -1.45841 0
M  V30 1700 C 165.98 1.67115 -0.317247 0
M  V30 1701 O 167.165 1.86871 -0.528474 0
M  V30 1702 C 164.295 3.20476 -1.33838 0
M  V30 1703 C 163.249 3.50415 -2.4575 0
M  V30 1704 C 162.575 4.87878 -2.18813 0
M  V30 1705 C 163.875 3.49546 -3.88091 0
M  V30 1706 H 165.569 1.78846 -2.40113 0
M  V30 1707 H 163.115 0.859028 -1.15571 0
M  V30 1708 H 165.068 3.98988 -1.35596 0
M  V30 1709 H 163.792 3.24604 -0.360498 0
M  V30 1710 H 162.451 2.74253 -2.43271 0
M  V30 1711 H 162.099 4.8863 -1.19371 0
M  V30 1712 H 161.799 5.08875 -2.93803 0
M  V30 1713 H 163.323 5.68702 -2.22284 0
M  V30 1714 H 164.737 4.18066 -3.92293 0
M  V30 1715 H 163.134 3.82075 -4.62751 0
M  V30 1716 H 164.204 2.48552 -4.16353 0
M  V30 1717 N 165.547 1.27147 0.931209 0
M  V30 1718 C 166.775 1.16082 1.71267 0
M  V30 1719 C 167.19 -0.282772 1.8667 0
M  V30 1720 O 166.547 -1.19283 1.38122 0
M  V30 1721 C 166.598 1.8358 3.11417 0
M  V30 1722 O 166.319 3.22299 2.96741 0
M  V30 1723 C 167.82 1.78597 4.05732 0
M  V30 1724 H 165.04 0.403758 0.535929 0
M  V30 1725 H 167.584 1.67953 1.16671 0
M  V30 1726 H 165.739 1.35623 3.62885 0
M  V30 1727 H 166.153 3.55851 3.85319 0
M  V30 1728 H 167.627 2.30444 5.01597 0
M  V30 1729 H 168.104 0.754564 4.3267 0
M  V30 1730 H 168.71 2.26152 3.60188 0
M  V30 1731 N 167.025 -1.13721 1.09112 0
M  V30 1732 C 168.253 -1.88773 0.846899 0
M  V30 1733 C 168.668 -1.7896 -0.601572 0
M  V30 1734 O 168.025 -1.15394 -1.41388 0
M  V30 1735 C 168.076 -3.3849 1.26913 0
M  V30 1736 O 167.797 -3.48043 2.66079 0
M  V30 1737 C 169.298 -4.30518 1.05682 0
M  V30 1738 H 166.518 -0.59772 0.304914 0
M  V30 1739 H 169.062 -1.43977 1.45227 0
M  V30 1740 H 167.217 -3.80881 0.707723 0
M  V30 1741 H 167.631 -4.4109 2.83795 0
M  V30 1742 H 169.105 -5.3391 1.40156 0
M  V30 1743 H 169.582 -4.392 -0.00563416 0
M  V30 1744 H 170.188 -3.93893 1.60402 0
M  V30 1745 N 168.503 -0.877838 -1.30888 0
M  V30 1746 C 169.751 -0.491723 -1.96027 0
M  V30 1747 C 170.072 0.960827 -1.69685 0
M  V30 1748 O 169.342 1.67462 -1.01654 0
M  V30 1749 H 167.922 -0.17885 -0.725273 0
M  V30 1750 H 170.584 -1.11935 -1.59551 0
M  V30 1751 H 169.68 -0.656016 -3.05128 0
M  V30 1752 N 169.982 1.44106 -0.638065 0
M  V30 1753 C 170.93 2.3248 0.0748149 0
M  V30 1754 C 171.924 1.47746 0.828702 0
M  V30 1755 O 173.13 1.64049 0.740816 0
M  V30 1756 H 169.505 0.750771 0.0429686 0
M  V30 1757 H 171.476 2.90348 -0.688504 0
M  V30 1758 C 170.225 3.31843 1.03805 0
M  V30 1759 H 169.548 3.97059 0.467375 0
M  V30 1760 H 170.988 3.96345 1.50622 0
M  V30 1761 C 169.447 2.61291 2.1267 0
M  V30 1762 O 169.977 2.41702 3.20847 0
M  V30 1763 N 168.183 2.20915 1.88798 0
M  V30 1764 H 167.73 2.37047 1.00829 0
M  V30 1765 H 167.688 1.74038 2.61836 0
M  V30 1766 N 171.46 0.379036 1.52974 0
M  V30 1767 C 172.708 -0.206014 2.01047 0
M  V30 1768 C 173.029 -1.48175 1.26765 0
M  V30 1769 O 172.299 -1.92085 0.384743 0
M  V30 1770 H 170.879 -0.0791184 0.742798 0
M  V30 1771 H 173.541 0.508366 1.88153 0
M  V30 1772 H 172.637 -0.423501 3.09213 0
M  V30 1773 N 172.938 -1.57226 0.108567 0
M  V30 1774 C 173.868 -2.17778 -0.84232 0
M  V30 1775 C 174.849 -1.11487 -1.2847 0
M  V30 1776 O 176.034 -1.39681 -1.34918 0
M  V30 1777 C 173.164 -2.76888 -2.09644 0
M  V30 1778 C 172.118 -3.88669 -1.79221 0
M  V30 1779 C 171.444 -4.34541 -3.11574 0
M  V30 1780 C 172.744 -5.11251 -1.06864 0
M  V30 1781 H 174.438 -2.97489 -0.337774 0
M  V30 1782 H 171.984 -1.43097 -0.161025 0
M  V30 1783 H 173.937 -3.17904 -2.76614 0
M  V30 1784 H 172.661 -1.94451 -2.62405 0
M  V30 1785 H 171.32 -3.48213 -1.14644 0
M  V30 1786 H 170.968 -3.48977 -3.62249 0
M  V30 1787 H 170.668 -5.09914 -2.91996 0
M  V30 1788 H 172.192 -4.782 -3.7968 0
M  V30 1789 H 173.606 -5.49352 -1.63968 0
M  V30 1790 H 172.003 -5.9214 -0.974178 0
M  V30 1791 H 173.073 -4.8487 -0.0536168 0
M  V30 1792 N 174.416 0.165178 -1.56732 0
M  V30 1793 C 175.663 0.880807 -1.8234 0
M  V30 1794 C 175.991 1.81977 -0.686621 0
M  V30 1795 O 175.246 1.92971 0.325697 0
M  V30 1796 C 175.545 1.70405 -3.1416 0
M  V30 1797 C 175.211 0.913475 -4.4155 0
M  V30 1798 C 173.873 0.695303 -4.7615 0
M  V30 1799 C 176.225 0.359349 -5.1996 0
M  V30 1800 C 173.553 -0.0879947 -5.86634 0
M  V30 1801 C 175.905 -0.410893 -6.31264 0
M  V30 1802 C 174.569 -0.639808 -6.64427 0
M  V30 1803 H 173.839 0.32231 -0.667231 0
M  V30 1804 H 176.486 0.145402 -1.90947 0
M  V30 1805 H 174.791 2.50903 -3.00923 0
M  V30 1806 H 176.488 2.26091 -3.31186 0
M  V30 1807 H 173.078 1.09357 -4.14414 0
M  V30 1808 H 177.262 0.515228 -4.93618 0
M  V30 1809 H 172.518 -0.27503 -6.10781 0
M  V30 1810 H 176.692 -0.847494 -6.91224 0
M  V30 1811 H 174.319 -1.24864 -7.49875 0
M  V30 1812 N 175.894 1.51508 0.433938 0
M  V30 1813 C 176.824 1.76016 1.53429 0
M  V30 1814 C 177.805 0.610112 1.58782 0
M  V30 1815 O 178.99 0.853177 1.74455 0
M  V30 1816 C 176.12 1.88831 2.9148 0
M  V30 1817 C 175.074 3.04288 3.00987 0
M  V30 1818 C 174.4 3.0229 4.4105 0
M  V30 1819 C 175.7 4.44193 2.74754 0
M  V30 1820 H 177.394 2.68152 1.33171 0
M  V30 1821 H 174.94 1.29035 0.639214 0
M  V30 1822 H 176.893 2.04559 3.6842 0
M  V30 1823 H 175.617 0.933455 3.12976 0
M  V30 1824 H 174.276 2.8827 2.26486 0
M  V30 1825 H 173.924 2.04576 4.59519 0
M  V30 1826 H 173.624 3.79822 4.4834 0
M  V30 1827 H 175.148 3.20116 5.1996 0
M  V30 1828 H 176.562 4.60544 3.41426 0
M  V30 1829 H 174.959 5.23457 2.9345 0
M  V30 1830 H 176.029 4.53996 1.70339 0
M  V30 1831 N 177.372 -0.689602 1.41712 0
M  V30 1832 C 178.597 -1.48329 1.44959 0
M  V30 1833 C 179.022 -1.8801 0.0581283 0
M  V30 1834 O 178.38 -1.55026 -0.940035 0
M  V30 1835 C 178.428 -2.71835 2.36935 0
M  V30 1836 O 177.532 -3.69549 1.8305 0
M  V30 1837 H 176.873 -0.446199 0.491734 0
M  V30 1838 H 179.403 -0.847127 1.86239 0
M  V30 1839 H 179.413 -3.20076 2.53013 0
M  V30 1840 H 178.088 -2.42291 3.38035 0
M  V30 1841 H 176.665 -3.2851 1.76452 0
M  V30 1842 N 178.85 -1.27639 -0.924453 0
M  V30 1843 C 179.76 -1.12466 -2.05885 0
M  V30 1844 C 180.776 -0.053869 -1.73917 0
M  V30 1845 O 181.952 -0.261012 -1.99702 0
M  V30 1846 C 179.017 -0.776768 -3.37886 0
M  V30 1847 C 178.078 -1.92878 -3.83532 0
M  V30 1848 C 177.311 -1.59739 -5.09234 0
M  V30 1849 O 177.534 -0.506782 -5.68144 0
M  V30 1850 O 176.468 -2.43761 -5.50331 0
M  V30 1851 H 180.294 -2.07671 -2.21599 0
M  V30 1852 H 177.879 -1.06857 -1.04413 0
M  V30 1853 H 179.761 -0.596229 -4.17161 0
M  V30 1854 H 178.436 0.145732 -3.23372 0
M  V30 1855 H 177.343 -2.1644 -3.0513 0
M  V30 1856 H 178.676 -2.8316 -4.02593 0
M  V30 1857 N 180.328 1.1314 -1.09713 0
M  V30 1858 C 181.576 1.84119 -0.833338 0
M  V30 1859 C 181.897 1.84097 0.642904 0
M  V30 1860 O 181.167 1.29881 1.46655 0
M  V30 1861 H 179.747 0.681766 -0.305293 0
M  V30 1862 H 182.409 1.37038 -1.38588 0
M  V30 1863 H 181.505 2.88543 -1.18951 0
M  V30 1864 N 181.806 0.884767 1.30421 0
M  V30 1865 C 182.736 0.367574 2.30589 0
M  V30 1866 C 183.717 -0.549464 1.60981 0
M  V30 1867 O 184.902 -0.46336 1.88591 0
M  V30 1868 C 182.032 -0.418944 3.44764 0
M  V30 1869 C 180.986 0.406316 4.26067 0
M  V30 1870 C 180.312 -0.506793 5.32293 0
M  V30 1871 C 181.612 1.64832 4.95608 0
M  V30 1872 H 183.306 1.20462 2.74097 0
M  V30 1873 H 180.852 0.580695 1.31772 0
M  V30 1874 H 182.805 -0.791395 4.13902 0
M  V30 1875 H 181.529 -1.28964 3.0006 0
M  V30 1876 H 180.188 0.760903 3.58617 0
M  V30 1877 H 179.836 -1.37519 4.83836 0
M  V30 1878 H 179.536 0.0415828 5.87585 0
M  V30 1879 H 181.06 -0.875764 6.04287 0
M  V30 1880 H 182.474 1.34646 5.57264 0
M  V30 1881 H 180.871 2.13688 5.60765 0
M  V30 1882 H 181.941 2.39284 4.21748 0
M  V30 1883 N 183.284 -1.43765 0.645699 0
M  V30 1884 C 184.231 -2.30745 -0.0504648 0
M  V30 1885 C 185.201 -1.4432 -0.822241 0
M  V30 1886 O 186.386 -1.73202 -0.800358 0
M  V30 1887 C 183.526 -3.29802 -1.0161 0
M  V30 1888 C 182.639 -4.31326 -0.241219 0
M  V30 1889 C 181.774 -5.17469 -1.19998 0
M  V30 1890 C 180.813 -6.10691 -0.415094 0
M  V30 1891 N 179.95 -6.89483 -1.32506 0
M  V30 1892 H 184.79 -2.8973 0.697155 0
M  V30 1893 H 182.327 -1.42738 0.355563 0
M  V30 1894 H 184.285 -3.85734 -1.58949 0
M  V30 1895 H 182.915 -2.72483 -1.73069 0
M  V30 1896 H 181.967 -3.77749 0.448334 0
M  V30 1897 H 183.279 -4.9743 0.369437 0
M  V30 1898 H 182.433 -5.7799 -1.84424 0
M  V30 1899 H 181.172 -4.51473 -1.84455 0
M  V30 1900 H 180.177 -5.49265 0.242565 0
M  V30 1901 H 181.402 -6.78727 0.224966 0
M  V30 1902 H 179.348 -6.26142 -1.95657 0
M  V30 1903 H 179.265 -7.52081 -0.768783 0
M  V30 1904 H 180.533 -7.54516 -1.9577 0
M  V30 1905 N 184.763 -0.387143 -1.52771 0
M  V30 1906 C 185.693 0.440551 -2.29306 0
M  V30 1907 C 186.674 1.06535 -1.32606 0
M  V30 1908 O 187.859 1.07853 -1.61497 0
M  V30 1909 C 184.989 1.56919 -3.09829 0
M  V30 1910 C 183.943 1.07054 -4.14395 0
M  V30 1911 C 183.269 2.29109 -4.83129 0
M  V30 1912 C 184.569 0.140015 -5.22112 0
M  V30 1913 H 186.263 -0.198026 -2.98744 0
M  V30 1914 H 183.809 -0.09668 -1.43675 0
M  V30 1915 H 185.762 2.15503 -3.62128 0
M  V30 1916 H 184.486 2.23532 -2.3812 0
M  V30 1917 H 183.145 0.507247 -3.63074 0
M  V30 1918 H 182.793 2.94227 -4.0797 0
M  V30 1919 H 182.493 1.96406 -5.53804 0
M  V30 1920 H 184.017 2.88339 -5.38231 0
M  V30 1921 H 185.431 0.633978 -5.69784 0
M  V30 1922 H 183.828 -0.0971485 -6.00021 0
M  V30 1923 H 184.898 -0.811711 -4.78058 0
M  V30 1924 N 186.241 1.57166 -0.116904 0
M  V30 1925 C 187.487 1.95412 0.542405 0
M  V30 1926 C 187.82 1.00019 1.66463 0
M  V30 1927 O 187.095 0.0370346 1.94465 0
M  V30 1928 C 187.378 3.43615 1.07708 0
M  V30 1929 C 187.231 4.49781 -0.0415868 0
M  V30 1930 C 188.55 3.93616 1.96861 0
M  V30 1931 H 185.669 0.710543 0.195696 0
M  V30 1932 H 188.311 1.89027 -0.192038 0
M  V30 1933 H 186.461 3.49187 1.70296 0
M  V30 1934 H 188.133 4.56308 -0.676793 0
M  V30 1935 H 186.376 4.28033 -0.705019 0
M  V30 1936 H 187.047 5.50733 0.373717 0
M  V30 1937 H 189.523 3.90335 1.44146 0
M  V30 1938 H 188.399 4.97838 2.3119 0
M  V30 1939 H 188.66 3.34188 2.89432 0
M  V30 1940 N 187.719 -0.156864 1.56817 0
M  V30 1941 C 188.996 -0.899244 1.73704 0
M  V30 1942 C 189.376 -1.99771 0.682254 0
M  V30 1943 O 188.724 -2.26515 -0.300522 0
M  V30 1944 C 188.934 -1.45075 3.17418 0
M  V30 1945 C 190.282 -1.91802 3.7881 0
M  V30 1946 O 191.306 -1.54838 3.20786 0
M  V30 1947 O 190.165 -2.5994 4.80722 0
M  V30 1948 H 187.259 -0.424267 0.709878 0
M  V30 1949 H 189.805 -0.143561 1.69092 0
M  V30 1950 H 188.577 -0.660846 3.85679 0
M  V30 1951 H 188.2 -2.27021 3.26416 0
M  V30 1952 N 189.197 -1.51736 -0.425897 0
M  V30 1953 C 190.144 -1.73875 -1.51776 0
M  V30 1954 C 191.114 -0.580702 -1.55618 0
M  V30 1955 O 192.299 -0.81641 -1.72451 0
M  V30 1956 C 189.439 -1.88012 -2.89388 0
M  V30 1957 C 188.552 -3.15606 -2.94986 0
M  V30 1958 C 187.687 -3.20271 -4.23793 0
M  V30 1959 C 186.726 -4.42134 -4.23302 0
M  V30 1960 N 185.863 -4.44284 -5.43651 0
M  V30 1961 H 190.703 -2.67071 -1.32201 0
M  V30 1962 H 188.24 -1.32351 -0.642008 0
M  V30 1963 H 190.198 -1.9419 -3.69251 0
M  V30 1964 H 188.828 -0.98213 -3.07496 0
M  V30 1965 H 187.88 -3.18681 -2.07717 0
M  V30 1966 H 189.192 -4.05486 -2.90486 0
M  V30 1967 H 188.346 -3.25428 -5.12036 0
M  V30 1968 H 187.085 -2.28299 -4.30965 0
M  V30 1969 H 186.09 -4.3714 -3.3345 0
M  V30 1970 H 187.315 -5.35382 -4.17783 0
M  V30 1971 H 185.261 -3.55188 -5.51523 0
M  V30 1972 H 185.178 -5.27988 -5.41078 0
M  V30 1973 H 186.446 -4.53649 -6.33895 0
M  V30 1974 N 190.675 0.682077 -1.42076 0
M  V30 1975 C 191.922 1.44215 -1.42156 0
M  V30 1976 C 192.25 1.94468 -0.0354186 0
M  V30 1977 O 191.505 1.70816 0.955002 0
M  V30 1978 C 191.804 2.66036 -2.38662 0
M  V30 1979 C 191.47 2.34366 -3.85206 0
M  V30 1980 C 190.132 2.25439 -4.25124 0
M  V30 1981 C 192.484 2.08513 -4.77673 0
M  V30 1982 C 189.812 1.88775 -5.55501 0
M  V30 1983 C 192.164 1.73354 -6.08384 0
M  V30 1984 C 190.828 1.62933 -6.47309 0
M  V30 1985 H 190.098 0.527718 -0.520187 0
M  V30 1986 H 192.745 0.778387 -1.74967 0
M  V30 1987 H 191.05 3.3741 -1.99152 0
M  V30 1988 H 192.747 3.24205 -2.35991 0
M  V30 1989 H 189.337 2.42213 -3.53597 0
M  V30 1990 H 193.521 2.14346 -4.47626 0
M  V30 1991 H 188.777 1.7927 -5.84527 0
M  V30 1992 H 192.951 1.52373 -6.79526 0
M  V30 1993 H 190.578 1.34292 -7.48244 0
M  V30 1994 N 192.153 1.28127 0.917671 0
M  V30 1995 C 193.083 1.14248 2.03641 0
M  V30 1996 C 194.064 0.0412748 1.7005 0
M  V30 1997 O 195.249 0.217566 1.92977 0
M  V30 1998 C 192.379 0.799431 3.37974 0
M  V30 1999 C 191.333 1.85497 3.85713 0
M  V30 2000 C 190.659 1.36565 5.16966 0
M  V30 2001 C 191.959 3.26085 4.08002 0
M  V30 2002 H 193.653 2.07835 2.15511 0
M  V30 2003 H 191.199 1.00064 1.03553 0
M  V30 2004 H 193.152 0.689114 4.15727 0
M  V30 2005 H 191.876 -0.172145 3.26146 0
M  V30 2006 H 190.535 1.95437 3.10161 0
M  V30 2007 H 190.183 0.383253 5.01538 0
M  V30 2008 H 189.883 2.07143 5.49878 0
M  V30 2009 H 191.407 1.26848 5.97279 0
M  V30 2010 H 192.821 3.19089 4.76293 0
M  V30 2011 H 191.218 3.94462 4.52238 0
M  V30 2012 H 192.288 3.70394 3.12948 0
M  V30 2013 N 193.631 -1.12557 1.10312 0
M  V30 2014 C 194.541 -2.21841 0.763142 0
M  V30 2015 C 195.557 -1.72354 -0.238801 0
M  V30 2016 O 196.733 -2.01249 -0.0778746 0
M  V30 2017 C 193.798 -3.46131 0.198632 0
M  V30 2018 C 192.859 -4.10464 1.25769 0
M  V30 2019 C 192.092 -5.28821 0.72002 0
M  V30 2020 O 192.315 -5.6859 -0.453993 0
M  V30 2021 O 191.249 -5.83437 1.47935 0
M  V30 2022 H 195.075 -2.53312 1.67532 0
M  V30 2023 H 192.66 -1.20867 0.878157 0
M  V30 2024 H 194.542 -4.2125 -0.112401 0
M  V30 2025 H 193.217 -3.16338 -0.686419 0
M  V30 2026 H 192.124 -3.3713 1.62156 0
M  V30 2027 H 193.457 -4.44408 2.11571 0
M  V30 2028 N 195.109 -0.891671 -1.2995 0
M  V30 2029 C 196.386 -0.433307 -1.9074 0
M  V30 2030 C 196.766 1.08646 -1.80995 0
M  V30 2031 O 196.114 1.92476 -1.23147 0
M  V30 2032 C 196.324 -0.938895 -3.36134 0
M  V30 2033 C 197.672 -0.977829 -4.13187 0
M  V30 2034 O 198.696 -0.886015 -3.45005 0
M  V30 2035 O 197.555 -1.11453 -5.35015 0
M  V30 2036 H 194.649 -0.133699 -0.816121 0
M  V30 2037 H 197.195 -0.981011 -1.38471 0
M  V30 2038 H 195.967 -1.98281 -3.37343 0
M  V30 2039 H 195.59 -0.37074 -3.95868 0
M  V30 2040 N 196.587 1.43421 -0.653314 0
M  V30 2041 C 197.833 2.02111 -0.166992 0
M  V30 2042 C 198.166 1.51423 1.21592 0
M  V30 2043 O 197.441 0.707389 1.8118 0
M  V30 2044 C 197.724 3.5966 -0.177948 0
M  V30 2045 C 197.577 4.20579 -1.59478 0
M  V30 2046 C 198.896 4.37413 0.4856 0
M  V30 2047 H 196.015 0.734374 -0.0621557 0
M  V30 2048 H 198.657 1.70717 -0.834016 0
M  V30 2049 H 196.807 3.86537 0.390032 0
M  V30 2050 H 198.479 4.04732 -2.21336 0
M  V30 2051 H 196.722 3.77226 -2.14204 0
M  V30 2052 H 197.393 5.29665 -1.5543 0
M  V30 2053 H 199.869 4.161 0.00234528 0
M  V30 2054 H 198.745 5.47075 0.447207 0
M  V30 2055 H 199.006 4.13672 1.55974 0
M  V30 2056 N 198.065 0.39524 1.52563 0
M  V30 2057 C 199.012 -0.437036 2.26624 0
M  V30 2058 C 199.982 -1.05281 1.28472 0
M  V30 2059 O 201.167 -1.07971 1.57311 0
M  V30 2060 C 198.307 -1.55524 3.08069 0
M  V30 2061 C 197.42 -0.961745 4.21158 0
M  V30 2062 C 196.555 -2.05149 4.89987 0
M  V30 2063 C 195.594 -1.4342 5.95061 0
M  V30 2064 N 194.731 -2.46351 6.57462 0
M  V30 2065 H 199.571 0.200976 2.97322 0
M  V30 2066 H 197.108 0.110944 1.46681 0
M  V30 2067 H 199.066 -2.21437 3.53584 0
M  V30 2068 H 197.696 -2.16348 2.3957 0
M  V30 2069 H 196.748 -0.192048 3.79915 0
M  V30 2070 H 198.06 -0.470701 4.96574 0
M  V30 2071 H 197.214 -2.78819 5.38837 0
M  V30 2072 H 195.953 -2.57615 4.14109 0
M  V30 2073 H 194.958 -0.682774 5.45544 0
M  V30 2074 H 196.183 -0.917416 6.72875 0
M  V30 2075 H 194.129 -2.97975 5.8442 0
M  V30 2076 H 194.046 -2.02019 7.28508 0
M  V30 2077 H 195.314 -3.19633 7.10954 0
M  V30 2078 N 199.544 -1.57102 0.125237 0
M  V30 2079 C 200.491 -2.15641 -0.822655 0
M  V30 2080 C 201.461 -1.08313 -1.25927 0
M  V30 2081 O 202.646 -1.36251 -1.33567 0
M  V30 2082 C 199.786 -2.76504 -2.06494 0
M  V30 2083 C 198.899 -3.98158 -1.67612 0
M  V30 2084 C 198.034 -4.47088 -2.86854 0
M  V30 2085 C 197.073 -5.6126 -2.44242 0
M  V30 2086 N 196.21 -6.04905 -3.56419 0
M  V30 2087 H 201.05 -2.96313 -0.316625 0
M  V30 2088 H 198.587 -1.46388 -0.144588 0
M  V30 2089 H 200.545 -3.09925 -2.79289 0
M  V30 2090 H 199.175 -1.98512 -2.54545 0
M  V30 2091 H 198.227 -3.70858 -0.846661 0
M  V30 2092 H 199.539 -4.80934 -1.32301 0
M  V30 2093 H 198.693 -4.82451 -3.67867 0
M  V30 2094 H 197.432 -3.63275 -3.25396 0
M  V30 2095 H 196.437 -5.25495 -1.61663 0
M  V30 2096 H 197.662 -6.46843 -2.0681 0
M  V30 2097 H 195.608 -5.24032 -3.94623 0
M  V30 2098 H 195.525 -6.82552 -3.25051 0
M  V30 2099 H 196.793 -6.44907 -4.37853 0
M  V30 2100 N 201.022 0.148545 -1.56898 0
M  V30 2101 C 201.952 1.18524 -2.01182 0
M  V30 2102 C 202.933 1.4489 -0.891123 0
M  V30 2103 O 204.118 1.55836 -1.15882 0
M  V30 2104 C 201.248 2.51879 -2.39112 0
M  V30 2105 C 200.202 2.40038 -3.54353 0
M  V30 2106 C 199.528 3.78089 -3.78091 0
M  V30 2107 C 200.828 1.88577 -4.87069 0
M  V30 2108 H 202.522 0.817029 -2.88036 0
M  V30 2109 H 200.068 0.391575 -1.38574 0
M  V30 2110 H 202.021 3.24627 -2.68692 0
M  V30 2111 H 200.745 2.90532 -1.49193 0
M  V30 2112 H 199.404 1.69742 -3.24936 0
M  V30 2113 H 199.052 4.14175 -2.85426 0
M  V30 2114 H 198.752 3.71028 -4.55645 0
M  V30 2115 H 200.276 4.52387 -4.10095 0
M  V30 2116 H 201.69 2.51117 -5.15377 0
M  V30 2117 H 200.087 1.9241 -5.68417 0
M  V30 2118 H 201.157 0.84136 -4.77545 0
M  V30 2119 N 202.5 1.5196 0.417844 0
M  V30 2120 C 203.73 1.69181 1.18581 0
M  V30 2121 C 204.138 0.397104 1.84986 0
M  V30 2122 O 203.481 -0.636011 1.72339 0
M  V30 2123 C 203.543 2.76497 2.29759 0
M  V30 2124 C 203.207 4.18514 1.83563 0
M  V30 2125 C 204.204 5.02648 1.32821 0
M  V30 2126 C 201.889 4.64708 1.90661 0
M  V30 2127 C 203.883 6.31044 0.897894 0
M  V30 2128 C 201.57 5.93096 1.47241 0
M  V30 2129 C 202.568 6.76093 0.968891 0
M  V30 2130 O 202.256 8.02078 0.540924 0
M  V30 2131 H 201.988 0.570457 0.362705 0
M  V30 2132 H 204.542 1.99249 0.498885 0
M  V30 2133 H 202.772 2.41786 3.01789 0
M  V30 2134 H 204.461 2.82403 2.91553 0
M  V30 2135 H 205.227 4.68154 1.26716 0
M  V30 2136 H 201.106 4.00216 2.28797 0
M  V30 2137 H 204.65 6.95776 0.504192 0
M  V30 2138 H 200.547 6.271 1.53022 0
M  V30 2139 H 201.315 8.15794 0.66502 0
M  V30 2140 N 203.978 -0.674533 1.42435 0
M  V30 2141 C 204.928 -1.7807 1.4239 0
M  V30 2142 C 205.912 -1.58169 0.295202 0
M  V30 2143 O 207.104 -1.68643 0.537449 0
M  V30 2144 C 204.233 -3.16532 1.32901 0
M  V30 2145 C 203.319 -3.42055 2.50717 0
M  V30 2146 N 203.71 -3.38162 3.76139 0
M  V30 2147 C 202.008 -3.72692 2.44983 0
M  V30 2148 C 202.709 -3.63177 4.54398 0
M  V30 2149 N 201.685 -3.83954 3.84812 0
M  V30 2150 H 205.487 -1.73454 2.37257 0
M  V30 2151 H 203.001 -0.875381 1.36788 0
M  V30 2152 H 204.998 -3.958 1.30951 0
M  V30 2153 H 203.658 -3.22345 0.390363 0
M  V30 2154 H 204.669 -3.18057 4.0873 0
M  V30 2155 H 201.346 -3.85749 1.59699 0
M  V30 2156 H 202.736 -3.66125 5.63384 0
M  V30 2157 N 205.456 -1.28612 -0.910864 0
M  V30 2158 C 206.681 -1.1891 -1.69927 0
M  V30 2159 C 207.106 0.248372 -1.86453 0
M  V30 2160 O 206.464 1.17961 -1.37676 0
M  V30 2161 C 206.512 -1.89578 -3.06745 0
M  V30 2162 O 205.616 -1.20521 -3.94396 0
M  V30 2163 H 204.957 -0.412632 -0.520222 0
M  V30 2164 H 207.487 -1.69985 -1.1387 0
M  V30 2165 H 207.497 -1.97597 -3.56958 0
M  V30 2166 H 206.172 -2.94136 -2.94035 0
M  V30 2167 H 204.749 -1.20684 -3.52831 0
M  V30 2168 N 206.934 1.1197 -1.10907 0
M  V30 2169 C 207.844 2.21433 -0.774896 0
M  V30 2170 C 208.86 1.72478 0.229657 0
M  V30 2171 O 210.036 2.01288 0.0672008 0
M  V30 2172 C 207.101 3.4602 -0.216986 0
M  V30 2173 C 206.162 4.09791 -1.27944 0
M  V30 2174 C 205.395 5.28431 -0.748055 0
M  V30 2175 O 205.618 5.68823 0.423833 0
M  V30 2176 O 204.552 5.82644 -1.51027 0
M  V30 2177 H 208.378 2.5242 -1.68873 0
M  V30 2178 H 205.963 1.20399 -0.884555 0
M  V30 2179 H 207.845 4.21304 0.090059 0
M  V30 2180 H 206.52 3.16698 0.669633 0
M  V30 2181 H 205.427 3.36265 -1.63941 0
M  V30 2182 H 206.76 4.4328 -2.13925 0
M  V30 2183 N 208.412 0.89855 1.29475 0
M  V30 2184 C 209.375 0.380272 2.26023 0
M  V30 2185 C 210.375 -0.484891 1.53315 0
M  V30 2186 O 211.565 -0.290108 1.71767 0
M  V30 2187 C 208.697 -0.45651 3.3783 0
M  V30 2188 H 209.89 1.23295 2.73383 0
M  V30 2189 H 207.443 0.676589 1.40897 0
M  V30 2190 H 208.178 -1.32922 2.95808 0
M  V30 2191 H 207.963 0.163393 3.91759 0
M  V30 2192 H 209.453 -0.810466 4.0966 0
M  V30 2193 N 209.89 -1.43072 0.660911 0
M  V30 2194 C 211.137 -2.01721 0.177445 0
M  V30 2195 C 211.465 -1.5218 -1.21126 0
M  V30 2196 O 210.72 -0.708659 -1.82419 0
M  V30 2197 C 211.019 -3.57103 0.145563 0
M  V30 2198 C 210.685 -4.26021 1.47705 0
M  V30 2199 C 209.347 -4.44563 1.84165 0
M  V30 2200 C 211.699 -4.64983 2.35458 0
M  V30 2201 C 209.027 -4.99334 3.0803 0
M  V30 2202 C 211.379 -5.21127 3.58622 0
M  V30 2203 C 210.043 -5.37884 3.95268 0
M  V30 2204 H 209.313 -0.73815 0.0649317 0
M  V30 2205 H 211.96 -1.71446 0.853144 0
M  V30 2206 H 210.265 -3.86965 -0.61361 0
M  V30 2207 H 211.962 -4.00248 -0.2455 0
M  V30 2208 H 208.552 -4.11939 1.18339 0
M  V30 2209 H 212.736 -4.50343 2.08579 0
M  V30 2210 H 207.992 -5.10493 3.36462 0
M  V30 2211 H 212.166 -5.50262 4.26831 0
M  V30 2212 H 209.793 -5.80089 4.91325 0
M  V30 2213 N 211.368 -0.403325 -1.52352 0
M  V30 2214 C 212.596 0.174012 -2.06167 0
M  V30 2215 C 213.011 1.39347 -1.27388 0
M  V30 2216 O 212.368 1.79597 -0.324201 0
M  V30 2217 C 212.419 0.530223 -3.5759 0
M  V30 2218 O 212.14 -0.640806 -4.33388 0
M  V30 2219 C 213.641 1.16192 -4.27802 0
M  V30 2220 H 210.861 0.0229464 -0.670608 0
M  V30 2221 H 213.405 -0.572604 -1.9632 0
M  V30 2222 H 211.56 1.22673 -3.67464 0
M  V30 2223 H 211.974 -0.344851 -5.23365 0
M  V30 2224 H 213.448 1.36141 -5.34948 0
M  V30 2225 H 213.925 2.13335 -3.83907 0
M  V30 2226 H 214.531 0.505775 -4.22282 0
M  V30 2227 N 212.846 1.57033 -0.133567 0
M  V30 2228 C 214.092 1.95976 0.521649 0
M  V30 2229 C 214.425 1.01779 1.65393 0
M  V30 2230 O 213.7 0.0576581 1.94415 0
M  V30 2231 C 213.983 3.44738 1.04057 0
M  V30 2232 C 213.836 4.49711 -0.0892897 0
M  V30 2233 C 215.155 3.95682 1.92675 0
M  V30 2234 H 212.274 0.712579 0.188149 0
M  V30 2235 H 214.916 1.88813 -0.212076 0
M  V30 2236 H 213.066 3.50973 1.66583 0
M  V30 2237 H 214.738 4.55565 -0.725152 0
M  V30 2238 H 212.981 4.27261 -0.750378 0
M  V30 2239 H 213.652 5.51099 0.315284 0
M  V30 2240 H 216.128 3.91841 1.39998 0
M  V30 2241 H 215.004 5.00262 2.25897 0
M  V30 2242 H 215.265 3.37239 2.85872 0
M  V30 2243 N 214.325 -0.140222 1.56975 0
M  V30 2244 C 215.273 -1.19207 1.99731 0
M  V30 2245 C 216.267 -1.44089 0.890777 0
M  V30 2246 O 217.473 -1.44301 1.07597 0
M  V30 2247 H 213.848 -0.40142 0.635898 0
M  V30 2248 H 215.819 -0.804813 2.87342 0
M  V30 2249 C 214.568 -2.51617 2.39967 0
M  V30 2250 H 213.891 -2.33303 3.24669 0
M  V30 2251 H 215.331 -3.23827 2.73701 0
M  V30 2252 C 213.79 -3.12654 1.25496 0
M  V30 2253 O 214.32 -3.97786 0.559371 0
M  V30 2254 N 212.526 -2.72206 1.01746 0
M  V30 2255 H 212.073 -2.03074 1.58489 0
M  V30 2256 H 212.031 -3.13377 0.253461 0
M  V30 2257 N 215.803 -1.52179 -0.40978 0
M  V30 2258 C 217.05 -1.66206 -1.15679 0
M  V30 2259 C 217.378 -0.391674 -1.90516 0
M  V30 2260 O 216.633 0.62533 -1.8544 0
M  V30 2261 C 216.932 -2.83428 -2.17723 0
M  V30 2262 C 216.598 -4.21672 -1.59699 0
M  V30 2263 C 215.26 -4.59274 -1.43599 0
M  V30 2264 C 217.612 -5.07825 -1.17317 0
M  V30 2265 C 214.94 -5.80709 -0.836328 0
M  V30 2266 C 217.292 -6.29864 -0.587691 0
M  V30 2267 C 215.956 -6.66216 -0.413818 0
M  V30 2268 H 215.226 -0.608192 -0.423301 0
M  V30 2269 H 217.873 -1.86279 -0.444097 0
M  V30 2270 H 216.178 -2.57687 -2.95135 0
M  V30 2271 H 217.875 -2.91477 -2.75394 0
M  V30 2272 H 214.465 -3.9204 -1.73213 0
M  V30 2273 H 218.649 -4.79359 -1.28565 0
M  V30 2274 H 213.905 -6.07498 -0.689626 0
M  V30 2275 H 218.079 -6.95948 -0.250894 0
M  V30 2276 H 215.706 -7.60182 0.0529471 0
M  V30 2277 N 217.281 0.66697 -1.42791 0
M  V30 2278 C 218.529 1.42417 -1.43394 0
M  V30 2279 C 218.85 1.94925 -0.0542373 0
M  V30 2280 O 218.12 1.73564 0.908415 0
M  V30 2281 H 216.7 0.528515 -0.527902 0
M  V30 2282 H 219.362 0.787562 -1.78279 0
M  V30 2283 H 218.458 2.27333 -2.13837 0
M  V30 2284 N 218.759 1.29093 0.90403 0
M  V30 2285 C 220.036 1.075 1.63411 0
M  V30 2286 C 220.416 -0.382346 2.07609 0
M  V30 2287 O 219.764 -1.37031 1.82851 0
M  V30 2288 C 219.974 2.05858 2.81822 0
M  V30 2289 C 221.322 2.36539 3.52611 0
M  V30 2290 O 222.346 2.04019 2.91984 0
M  V30 2291 O 221.205 2.92085 4.61897 0
M  V30 2292 H 218.299 0.411547 0.717327 0
M  V30 2293 H 220.845 1.40449 0.952479 0
M  V30 2294 H 219.617 3.04037 2.46327 0
M  V30 2295 H 219.24 1.73613 3.57693 0
M  V30 2296 N 220.237 -1.11381 1.11499 0
M  V30 2297 C 221.465 -1.86934 0.88675 0
M  V30 2298 C 221.88 -1.80195 -0.563476 0
M  V30 2299 O 221.237 -1.18367 -1.38908 0
M  V30 2300 C 221.288 -3.35722 1.34064 0
M  V30 2301 O 221.009 -3.4232 2.73401 0
M  V30 2302 C 222.51 -4.2818 1.14791 0
M  V30 2303 H 219.73 -0.591117 0.317523 0
M  V30 2304 H 222.274 -1.40865 1.48248 0
M  V30 2305 H 220.429 -3.79294 0.788355 0
M  V30 2306 H 220.843 -4.34971 2.93087 0
M  V30 2307 H 222.317 -5.30817 1.5145 0
M  V30 2308 H 222.794 -4.39113 0.0875279 0
M  V30 2309 H 223.4 -3.90402 1.68721 0
M  V30 2310 N 221.715 -0.905404 -1.28997 0
M  V30 2311 C 222.625 -0.392246 -2.31298 0
M  V30 2312 C 223.641 0.515889 -1.66176 0
M  V30 2313 O 224.817 0.404093 -1.97304 0
M  V30 2314 C 221.882 0.36686 -3.44754 0
M  V30 2315 C 220.943 -0.573485 -4.25452 0
M  V30 2316 C 220.176 0.149488 -5.33491 0
M  V30 2317 O 220.399 1.37255 -5.5364 0
M  V30 2318 O 219.333 -0.510919 -5.99728 0
M  V30 2319 H 223.159 -1.2411 -2.77183 0
M  V30 2320 H 220.744 -0.669926 -1.33538 0
M  V30 2321 H 222.626 0.795907 -4.13816 0
M  V30 2322 H 221.301 1.19169 -3.00966 0
M  V30 2323 H 220.208 -1.05176 -3.59011 0
M  V30 2324 H 221.541 -1.36489 -4.72897 0
M  V30 2325 N 223.193 1.4272 -0.668489 0
M  V30 2326 C 224.103 2.34596 0.0139753 0
M  V30 2327 C 225.119 1.5474 0.795703 0
M  V30 2328 O 226.295 1.87334 0.739466 0
M  V30 2329 C 223.36 3.33202 0.957982 0
M  V30 2330 C 222.421 4.28957 0.17149 0
M  V30 2331 C 221.654 5.22853 1.07053 0
M  V30 2332 O 221.877 5.21531 2.31001 0
M  V30 2333 O 220.811 5.9952 0.534727 0
M  V30 2334 H 224.637 2.9448 -0.742661 0
M  V30 2335 H 222.222 1.43117 -0.428705 0
M  V30 2336 H 224.104 3.93796 1.50008 0
M  V30 2337 H 222.779 2.758 1.69458 0
M  V30 2338 H 221.686 3.71796 -0.414558 0
M  V30 2339 H 223.019 4.89383 -0.52586 0
M  V30 2340 N 224.671 0.411399 1.52136 0
M  V30 2341 C 225.634 -0.401089 2.25663 0
M  V30 2342 C 226.634 -0.971732 1.28117 0
M  V30 2343 O 227.824 -0.850254 1.52041 0
M  V30 2344 C 224.956 -1.56483 3.02863 0
M  V30 2345 H 226.149 0.24295 2.98914 0
M  V30 2346 H 223.702 0.163968 1.55438 0
M  V30 2347 H 224.437 -2.24567 2.33967 0
M  V30 2348 H 224.222 -1.16211 3.74483 0
M  V30 2349 H 225.712 -2.13951 3.58629 0
M  V30 2350 N 226.149 -1.5696 0.141893 0
M  V30 2351 C 227.096 -2.16501 -0.799737 0
M  V30 2352 C 228.066 -1.09643 -1.24771 0
M  V30 2353 O 229.251 -1.3766 -1.32115 0
M  V30 2354 C 226.391 -2.78679 -2.03549 0
M  V30 2355 C 225.504 -3.99914 -1.6338 0
M  V30 2356 C 224.639 -4.50106 -2.82096 0
M  V30 2357 C 223.678 -5.63819 -2.38275 0
M  V30 2358 N 222.815 -6.08651 -3.49983 0
M  V30 2359 H 227.655 -2.96632 -0.285179 0
M  V30 2360 H 225.192 -1.46533 -0.129053 0
M  V30 2361 H 227.15 -3.1287 -2.75986 0
M  V30 2362 H 225.78 -2.012 -2.52425 0
M  V30 2363 H 224.832 -3.71735 -0.807279 0
M  V30 2364 H 226.144 -4.82311 -1.27192 0
M  V30 2365 H 225.298 -4.86325 -3.62729 0
M  V30 2366 H 224.037 -3.66706 -3.21525 0
M  V30 2367 H 223.042 -5.2718 -1.56081 0
M  V30 2368 H 224.267 -6.49 -1.99938 0
M  V30 2369 H 222.213 -5.28188 -3.89042 0
M  V30 2370 H 222.13 -6.85961 -3.17794 0
M  V30 2371 H 223.398 -6.49515 -4.30988 0
M  V30 2372 N 227.627 0.131896 -1.57047 0
M  V30 2373 C 228.574 1.16236 -1.99393 0
M  V30 2374 C 229.544 1.41863 -0.863943 0
M  V30 2375 O 230.729 1.53946 -1.12718 0
M  V30 2376 C 227.869 2.48708 -2.39245 0
M  V30 2377 C 226.982 2.30127 -3.65603 0
M  V30 2378 C 226.117 3.55738 -3.94492 0
M  V30 2379 C 225.156 3.32259 -5.14073 0
M  V30 2380 N 224.293 4.50039 -5.38896 0
M  V30 2381 H 229.133 0.794251 -2.87221 0
M  V30 2382 H 226.67 0.380707 -1.42088 0
M  V30 2383 H 228.628 3.25969 -2.60384 0
M  V30 2384 H 227.258 2.83437 -1.54478 0
M  V30 2385 H 226.31 1.43845 -3.52154 0
M  V30 2386 H 227.622 2.08746 -4.5302 0
M  V30 2387 H 226.776 4.41423 -4.1621 0
M  V30 2388 H 225.515 3.80138 -3.05526 0
M  V30 2389 H 224.52 2.44963 -4.92212 0
M  V30 2390 H 225.745 3.09242 -6.04604 0
M  V30 2391 H 223.691 4.74584 -4.52886 0
M  V30 2392 H 223.608 4.31716 -6.2061 0
M  V30 2393 H 224.876 5.36895 -5.65123 0
M  V30 2394 N 229.106 1.52395 0.401703 0
M  V30 2395 C 230.038 1.72505 1.50912 0
M  V30 2396 C 231.051 0.605468 1.51122 0
M  V30 2397 O 232.24 0.880828 1.55254 0
M  V30 2398 C 229.34 1.75711 2.89791 0
M  V30 2399 C 228.513 3.04824 3.1369 0
M  V30 2400 C 227.572 2.99743 4.32482 0
M  V30 2401 O 226.598 3.73635 4.29402 0
M  V30 2402 N 227.8 2.18047 5.37992 0
M  V30 2403 H 230.565 2.68049 1.34052 0
M  V30 2404 H 228.126 1.50724 0.591084 0
M  V30 2405 H 230.118 1.69834 3.6734 0
M  V30 2406 H 228.688 0.876092 3.00072 0
M  V30 2407 H 227.908 3.2429 2.24119 0
M  V30 2408 H 229.196 3.90221 3.26504 0
M  V30 2409 H 228.594 1.57456 5.43345 0
M  V30 2410 H 227.151 2.18021 6.14256 0
M  V30 2411 N 230.584 -0.659388 1.43143 0
M  V30 2412 C 231.833 -1.41518 1.43721 0
M  V30 2413 C 232.146 -1.95499 0.0628176 0
M  V30 2414 O 233.352 -2.71446 -0.0539683 0
M  V30 2415 C 231.808 -2.5608 2.52885 0
M  V30 2416 C 231.416 -2.08733 3.96402 0
M  V30 2417 C 233.16 -3.3349 2.62649 0
M  V30 2418 C 231.067 -3.20469 4.97045 0
M  V30 2419 H 229.997 -0.531705 0.534608 0
M  V30 2420 H 232.648 -0.712343 1.69109 0
M  V30 2421 H 231.03 -3.28805 2.20688 0
M  V30 2422 H 232.204 -1.43059 4.3803 0
M  V30 2423 H 230.519 -1.44219 3.90627 0
M  V30 2424 H 233.116 -4.16734 3.35017 0
M  V30 2425 H 233.459 -3.8111 1.67513 0
M  V30 2426 H 233.992 -2.67842 2.94118 0
M  V30 2427 H 230.731 -2.77824 5.93712 0
M  V30 2428 H 230.251 -3.84874 4.60034 0
M  V30 2429 H 231.93 -3.85698 5.19467 0
M  V30 2430 N 232.062 -1.29571 -0.897171 0
M  V30 2431 C 233.01 -1.14802 -2.02295 0
M  V30 2432 C 234.004 -0.0629637 -1.69283 0
M  V30 2433 O 235.21 -0.222945 -1.78614 0
M  V30 2434 H 231.585 -0.354692 -0.663097 0
M  V30 2435 H 233.556 -2.10108 -2.11889 0
M  V30 2436 C 232.305 -0.843966 -3.37302 0
M  V30 2437 H 231.628 -1.67093 -3.63208 0
M  V30 2438 H 233.068 -0.780672 -4.16751 0
M  V30 2439 C 231.527 0.452843 -3.33843 0
M  V30 2440 O 232.057 1.47813 -3.73516 0
M  V30 2441 N 230.263 0.459601 -2.86943 0
M  V30 2442 H 229.81 -0.375213 -2.54853 0
M  V30 2443 H 229.768 1.32726 -2.85011 0
M  V30 2444 N 233.54 1.10788 -1.12088 0
M  V30 2445 C 234.817 1.79136 -0.785476 0
M  V30 2446 C 235.197 1.98246 0.725377 0
M  V30 2447 O 234.545 1.57258 1.65778 0
M  V30 2448 C 234.755 3.12375 -1.55636 0
M  V30 2449 C 236.103 3.8731 -1.74001 0
M  V30 2450 O 237.127 3.22085 -1.52117 0
M  V30 2451 O 235.986 5.04369 -2.10415 0
M  V30 2452 H 233.08 0.776226 -0.285311 0
M  V30 2453 H 235.626 1.1747 -1.2247 0
M  V30 2454 H 234.398 2.93863 -2.5838 0
M  V30 2455 H 234.021 3.81758 -1.11114 0
M  V30 2456 N 235.018 0.912232 1.28515 0
M  V30 2457 C 236.248 0.559604 1.98877 0
M  V30 2458 C 236.656 -0.863113 1.68366 0
M  V30 2459 O 235.999 -1.58304 0.931969 0
M  V30 2460 C 236.061 0.68703 3.52874 0
M  V30 2461 C 235.725 2.07901 4.06972 0
M  V30 2462 C 236.722 3.05157 4.20922 0
M  V30 2463 C 234.407 2.39178 4.417 0
M  V30 2464 C 236.401 4.31806 4.68852 0
M  V30 2465 C 234.088 3.66068 4.89324 0
M  V30 2466 C 235.086 4.62195 5.02856 0
M  V30 2467 O 234.774 5.86829 5.49442 0
M  V30 2468 H 234.506 0.212191 0.641834 0
M  V30 2469 H 237.06 1.22712 1.64715 0
M  V30 2470 H 235.29 -0.0375486 3.86682 0
M  V30 2471 H 236.979 0.341727 4.04459 0
M  V30 2472 H 237.745 2.82311 3.94367 0
M  V30 2473 H 233.624 1.65109 4.30418 0
M  V30 2474 H 237.168 5.06842 4.79329 0
M  V30 2475 H 233.065 3.88739 5.15318 0
M  V30 2476 H 233.833 5.89597 5.6773 0
M  V30 2477 N 236.496 -1.42363 0.676048 0
M  V30 2478 C 237.742 -2.0182 0.199125 0
M  V30 2479 C 238.075 -1.53339 -1.19168 0
M  V30 2480 O 237.35 -0.736124 -1.80032 0
M  V30 2481 C 237.633 -3.59331 0.235144 0
M  V30 2482 C 237.486 -4.17989 1.66149 0
M  V30 2483 C 238.805 -4.3813 -0.41595 0
M  V30 2484 H 235.924 -0.733293 0.0738311 0
M  V30 2485 H 238.566 -1.69368 0.86107 0
M  V30 2486 H 236.716 -3.87109 -0.328487 0
M  V30 2487 H 238.388 -4.0116 2.27747 0
M  V30 2488 H 236.631 -3.7377 2.20178 0
M  V30 2489 H 237.302 -5.27126 1.63837 0
M  V30 2490 H 239.778 -4.16051 0.0638529 0
M  V30 2491 H 238.654 -5.47717 -0.360115 0
M  V30 2492 H 238.915 -4.16101 -1.49373 0
M  V30 2493 N 237.974 -0.419461 -1.51915 0
M  V30 2494 C 238.884 0.407528 -2.31033 0
M  V30 2495 C 239.9 1.04413 -1.3919 0
M  V30 2496 O 241.076 1.0434 -1.72265 0
M  V30 2497 C 238.141 1.50365 -3.12396 0
M  V30 2498 C 237.202 0.889029 -4.19994 0
M  V30 2499 C 236.435 1.93291 -4.97468 0
M  V30 2500 O 236.658 3.15259 -4.75361 0
M  V30 2501 O 235.592 1.53339 -5.8204 0
M  V30 2502 H 239.418 -0.237865 -3.02767 0
M  V30 2503 H 237.003 -0.182413 -1.48282 0
M  V30 2504 H 238.885 2.13975 -3.63032 0
M  V30 2505 H 237.56 2.13345 -2.43445 0
M  V30 2506 H 236.467 0.215353 -3.7348 0
M  V30 2507 H 237.8 0.302991 -4.91267 0
M  V30 2508 N 239.452 1.56882 -0.150215 0
M  V30 2509 C 240.399 2.16922 0.788244 0
M  V30 2510 C 241.369 1.10303 1.24187 0
M  V30 2511 O 242.554 1.38359 1.31383 0
M  V30 2512 C 239.694 2.79754 2.02068 0
M  V30 2513 C 238.807 4.00775 1.61257 0
M  V30 2514 C 237.942 4.51595 2.79705 0
M  V30 2515 C 236.981 5.65074 2.35282 0
M  V30 2516 N 236.118 6.10499 3.4675 0
M  V30 2517 H 240.958 2.96779 0.269444 0
M  V30 2518 H 238.495 1.46599 0.12128 0
M  V30 2519 H 240.453 3.14329 2.74323 0
M  V30 2520 H 239.083 2.02536 2.51354 0
M  V30 2521 H 238.135 3.72158 0.787553 0
M  V30 2522 H 239.447 4.82978 1.24633 0
M  V30 2523 H 238.601 4.88242 3.60145 0
M  V30 2524 H 237.34 3.68406 3.19576 0
M  V30 2525 H 236.345 5.28 1.53283 0
M  V30 2526 H 237.57 6.50052 1.96493 0
M  V30 2527 H 235.516 5.30243 3.86236 0
M  V30 2528 H 235.433 6.87637 3.14152 0
M  V30 2529 H 236.701 6.51791 4.27537 0
M  V30 2530 N 240.93 -0.123565 1.57115 0
M  V30 2531 C 242.178 -0.83051 1.84247 0
M  V30 2532 C 242.499 -1.80629 0.73471 0
M  V30 2533 O 241.769 -1.94403 -0.241688 0
M  V30 2534 H 240.349 -0.309694 0.679778 0
M  V30 2535 H 243.011 -0.111976 1.94578 0
M  V30 2536 H 242.107 -1.37852 2.80006 0
M  V30 2537 N 242.408 -1.52605 -0.393616 0
M  V30 2538 C 243.636 -1.71294 -1.16043 0
M  V30 2539 C 244.051 -0.429259 -1.83855 0
M  V30 2540 O 243.408 0.595921 -1.72496 0
M  V30 2541 C 243.459 -2.8593 -2.21193 0
M  V30 2542 O 243.18 -4.09329 -1.56146 0
M  V30 2543 C 244.681 -3.16259 -3.10636 0
M  V30 2544 H 241.901 -0.573641 -0.348104 0
M  V30 2545 H 244.445 -1.99234 -0.461092 0
M  V30 2546 H 242.6 -2.60465 -2.86769 0
M  V30 2547 H 243.014 -4.73323 -2.25978 0
M  V30 2548 H 244.488 -3.99946 -3.80456 0
M  V30 2549 H 244.965 -2.3045 -3.73884 0
M  V30 2550 H 245.571 -3.43547 -2.50711 0
M  V30 2551 N 243.887 0.651787 -1.4349 0
M  V30 2552 C 244.819 1.77725 -1.44729 0
M  V30 2553 C 245.832 1.59141 -0.343231 0
M  V30 2554 O 247.021 1.67835 -0.607751 0
M  V30 2555 C 244.121 3.15172 -1.24579 0
M  V30 2556 C 243.294 3.60402 -2.47849 0
M  V30 2557 C 242.353 4.76656 -2.22902 0
M  V30 2558 O 241.379 4.86022 -2.96263 0
M  V30 2559 N 242.581 5.66958 -1.24656 0
M  V30 2560 H 245.346 1.77141 -2.41746 0
M  V30 2561 H 242.907 0.835678 -1.38665 0
M  V30 2562 H 244.899 3.90634 -1.0577 0
M  V30 2563 H 243.469 3.1052 -0.360015 0
M  V30 2564 H 242.689 2.75369 -2.82073 0
M  V30 2565 H 243.977 3.87368 -3.29884 0
M  V30 2566 H 243.375 5.62065 -0.640265 0
M  V30 2567 H 241.932 6.42135 -1.1183 0
M  V30 2568 N 245.365 1.30045 0.890287 0
M  V30 2569 C 246.613 1.18327 1.63839 0
M  V30 2570 C 246.934 -0.263455 1.93212 0
M  V30 2571 O 246.204 -1.17856 1.56482 0
M  V30 2572 H 244.784 0.434933 0.607324 0
M  V30 2573 H 247.446 1.631 1.06698 0
M  V30 2574 H 246.542 1.74024 2.59079 0
M  V30 2575 N 246.843 -1.10192 1.12674 0
M  V30 2576 C 247.79 -2.16606 0.796906 0
M  V30 2577 C 248.76 -1.64394 -0.237476 0
M  V30 2578 O 249.945 -1.90474 -0.111484 0
M  V30 2579 C 247.085 -3.44116 0.26043 0
M  V30 2580 C 246.198 -4.10268 1.35293 0
M  V30 2581 C 245.333 -5.25507 0.775621 0
M  V30 2582 C 244.372 -5.83567 1.84706 0
M  V30 2583 N 243.509 -6.90179 1.28829 0
M  V30 2584 H 248.349 -2.44163 1.70846 0
M  V30 2585 H 245.886 -1.19846 0.85295 0
M  V30 2586 H 247.844 -4.17143 -0.0686814 0
M  V30 2587 H 246.474 -3.16901 -0.614274 0
M  V30 2588 H 245.526 -3.35184 1.79877 0
M  V30 2589 H 246.838 -4.4946 2.16303 0
M  V30 2590 H 245.992 -6.05398 0.397327 0
M  V30 2591 H 244.731 -4.87656 -0.0656581 0
M  V30 2592 H 243.736 -5.02344 2.23452 0
M  V30 2593 H 244.961 -6.23482 2.69161 0
M  V30 2594 H 242.907 -6.54322 0.468881 0
M  V30 2595 H 242.824 -7.28097 2.03497 0
M  V30 2596 H 244.092 -7.73844 0.937311 0
M  V30 2597 N 248.321 -0.919034 -1.28029 0
M  V30 2598 C 249.57 -0.550802 -1.94034 0
M  V30 2599 C 249.883 0.910877 -1.73096 0
M  V30 2600 O 251.089 1.3875 -2.33368 0
M  V30 2601 C 249.545 -0.934249 -3.47563 0
M  V30 2602 C 249.153 -2.41602 -3.7727 0
M  V30 2603 C 250.897 -0.636854 -4.19696 0
M  V30 2604 C 248.804 -2.73932 -5.24133 0
M  V30 2605 H 247.734 -0.202273 -0.726362 0
M  V30 2606 H 250.385 -1.11867 -1.45458 0
M  V30 2607 H 248.767 -0.295115 -3.94899 0
M  V30 2608 H 249.941 -3.10233 -3.40723 0
M  V30 2609 H 248.256 -2.68441 -3.18321 0
M  V30 2610 H 250.853 -0.855005 -5.2782 0
M  V30 2611 H 251.196 0.425575 -4.14119 0
M  V30 2612 H 251.729 -1.23469 -3.78154 0
M  V30 2613 H 248.468 -3.79049 -5.34792 0
M  V30 2614 H 247.988 -2.09942 -5.61858 0
M  V30 2615 H 249.667 -2.61215 -5.91925 0
M  V30 2616 N 249.799 1.42003 -0.683588 0
M  V30 2617 C 251.045 2.01712 -0.209825 0
M  V30 2618 C 251.378 1.53968 1.18353 0
M  V30 2619 O 250.653 0.745661 1.79639 0
M  V30 2620 C 250.936 3.59202 -0.254197 0
M  V30 2621 C 250.789 4.17102 -1.68363 0
M  V30 2622 C 252.108 4.38344 0.392709 0
M  V30 2623 H 249.227 0.732891 -0.0777189 0
M  V30 2624 H 251.869 1.68909 -0.87004 0
M  V30 2625 H 250.019 3.87278 0.307954 0
M  V30 2626 H 251.691 3.99946 -2.29871 0
M  V30 2627 H 249.934 3.72597 -2.22157 0
M  V30 2628 H 250.605 5.26249 -1.6663 0
M  V30 2629 H 253.081 4.16011 -0.0859162 0
M  V30 2630 H 251.957 5.47901 0.331063 0
M  V30 2631 H 252.218 4.16887 1.47164 0
M  V30 2632 N 251.277 0.427512 1.51691 0
M  V30 2633 C 252.554 -0.201684 1.94557 0
M  V30 2634 C 252.934 -1.60981 1.36559 0
M  V30 2635 O 252.282 -2.21814 0.548702 0
M  V30 2636 C 252.492 -0.189394 3.48486 0
M  V30 2637 C 253.84 -0.39978 4.22714 0
M  V30 2638 O 254.864 -0.267945 3.55191 0
M  V30 2639 O 253.723 -0.661249 5.42485 0
M  V30 2640 H 250.817 -0.135261 0.815864 0
M  V30 2641 H 253.363 0.484782 1.62628 0
M  V30 2642 H 252.135 0.795431 3.8313 0
M  V30 2643 H 251.758 -0.919187 3.86829 0
M  V30 2644 N 252.755 -1.56801 0.158532 0
M  V30 2645 C 253.685 -2.20347 -0.772609 0
M  V30 2646 C 254.666 -1.15518 -1.24859 0
M  V30 2647 O 255.851 -1.43902 -1.30406 0
M  V30 2648 C 252.981 -2.83417 -2.00729 0
M  V30 2649 C 251.935 -3.94174 -1.66765 0
M  V30 2650 C 251.261 -4.44233 -2.97592 0
M  V30 2651 C 252.561 -5.14392 -0.905447 0
M  V30 2652 H 254.255 -2.98413 -0.242959 0
M  V30 2653 H 251.801 -1.43537 -0.115419 0
M  V30 2654 H 253.754 -3.26543 -2.6636 0
M  V30 2655 H 252.478 -2.02701 -2.56086 0
M  V30 2656 H 251.137 -3.51684 -1.03508 0
M  V30 2657 H 250.785 -3.60325 -3.50963 0
M  V30 2658 H 250.485 -5.18945 -2.75626 0
M  V30 2659 H 252.009 -4.90037 -3.64274 0
M  V30 2660 H 253.423 -5.5429 -1.46408 0
M  V30 2661 H 251.82 -5.9494 -0.7853 0
M  V30 2662 H 252.89 -4.84795 0.100668 0
M  V30 2663 N 254.233 0.115231 -1.57178 0
M  V30 2664 C 255.479 0.82357 -1.85325 0
M  V30 2665 C 255.812 1.79349 -0.744814 0
M  V30 2666 O 255.087 1.92899 0.249024 0
M  V30 2667 C 255.37 1.57014 -3.24066 0
M  V30 2668 C 255.223 0.619565 -4.45513 0
M  V30 2669 C 256.542 2.52545 -3.60429 0
M  V30 2670 H 253.661 0.297948 -0.674089 0
M  V30 2671 H 256.303 0.0877138 -1.89797 0
M  V30 2672 H 254.453 2.19742 -3.20383 0
M  V30 2673 H 256.125 0.000837639 -4.613 0
M  V30 2674 H 254.368 -0.0686174 -4.33746 0
M  V30 2675 H 255.039 1.17866 -5.3927 0
M  V30 2676 H 257.515 1.9992 -3.64926 0
M  V30 2677 H 256.391 3.01811 -4.58477 0
M  V30 2678 H 256.652 3.35383 -2.88047 0
M  V30 2679 N 255.711 1.52812 0.385517 0
M  V30 2680 C 256.658 1.77838 1.47113 0
M  V30 2681 C 257.628 0.621757 1.54024 0
M  V30 2682 O 258.813 0.861846 1.70226 0
M  V30 2683 C 255.953 1.95618 2.84302 0
M  V30 2684 C 255.066 3.23316 2.86515 0
M  V30 2685 C 254.201 3.31394 4.15152 0
M  V30 2686 C 253.24 4.53201 4.1143 0
M  V30 2687 N 252.377 4.58542 5.3168 0
M  V30 2688 H 257.217 2.70482 1.25073 0
M  V30 2689 H 254.754 1.34006 0.606692 0
M  V30 2690 H 256.712 2.03912 3.63972 0
M  V30 2691 H 255.342 1.06331 3.04784 0
M  V30 2692 H 254.394 3.24076 1.99195 0
M  V30 2693 H 255.706 4.13045 2.79634 0
M  V30 2694 H 254.86 3.3889 5.03228 0
M  V30 2695 H 253.599 2.39645 4.24761 0
M  V30 2696 H 252.604 4.45827 3.21742 0
M  V30 2697 H 253.829 5.46271 4.03442 0
M  V30 2698 H 251.775 3.69686 5.41912 0
M  V30 2699 H 251.692 5.42148 5.26889 0
M  V30 2700 H 252.96 4.70296 6.21644 0
M  V30 2701 N 257.189 -0.644168 1.43834 0
M  V30 2702 C 258.099 -1.78563 1.52159 0
M  V30 2703 C 259.115 -1.69147 0.408069 0
M  V30 2704 O 260.291 -1.90156 0.663524 0
M  V30 2705 C 257.356 -3.14888 1.45073 0
M  V30 2706 C 256.417 -3.36034 2.6717 0
M  V30 2707 C 255.65 -4.65855 2.60413 0
M  V30 2708 O 255.873 -5.45805 1.65689 0
M  V30 2709 O 254.807 -4.88918 3.5106 0
M  V30 2710 H 258.633 -1.74494 2.48567 0
M  V30 2711 H 256.218 -0.80378 1.25935 0
M  V30 2712 H 258.1 -3.96179 1.43597 0
M  V30 2713 H 256.775 -3.19528 0.518037 0
M  V30 2714 H 255.682 -2.54472 2.74217 0
M  V30 2715 H 257.015 -3.36247 3.59442 0
M  V30 2716 N 258.668 -1.30515 -0.883378 0
M  V30 2717 C 259.598 -1.19607 -2.00541 0
M  V30 2718 C 260.579 -0.086346 -1.69881 0
M  V30 2719 O 261.764 -0.268654 -1.92333 0
M  V30 2720 C 258.894 -0.888758 -3.35736 0
M  V30 2721 C 257.848 -1.95659 -3.8066 0
M  V30 2722 C 257.174 -1.50224 -5.13164 0
M  V30 2723 C 258.474 -3.36788 -3.99213 0
M  V30 2724 H 260.168 -2.13476 -2.09925 0
M  V30 2725 H 257.714 -1.02775 -1.00863 0
M  V30 2726 H 259.667 -0.799094 -4.13754 0
M  V30 2727 H 258.391 0.0856125 -3.26488 0
M  V30 2728 H 257.05 -2.03591 -3.04871 0
M  V30 2729 H 256.698 -0.516092 -5.00345 0
M  V30 2730 H 256.398 -2.2165 -5.44192 0
M  V30 2731 H 257.922 -1.42639 -5.93706 0
M  V30 2732 H 259.336 -3.31605 -4.67665 0
M  V30 2733 H 257.733 -4.06314 -4.41621 0
M  V30 2734 H 258.803 -3.78561 -3.03017 0
M  V30 2735 N 260.146 1.09593 -1.13257 0
M  V30 2736 C 261.423 1.78293 -0.804432 0
M  V30 2737 C 261.803 1.99004 0.70431 0
M  V30 2738 O 261.151 1.59007 1.641 0
M  V30 2739 C 261.361 3.10707 -1.5894 0
M  V30 2740 C 262.709 3.85443 -1.78099 0
M  V30 2741 O 263.733 3.20454 -1.55525 0
M  V30 2742 O 262.592 5.02108 -2.15753 0
M  V30 2743 H 259.686 0.773156 -0.293528 0
M  V30 2744 H 262.232 1.16164 -1.23709 0
M  V30 2745 H 261.004 2.91106 -2.61482 0
M  V30 2746 H 260.627 3.80558 -1.15157 0
M  V30 2747 N 261.624 0.925811 1.2754 0
M  V30 2748 C 263.04 0.625767 1.46821 0
M  V30 2749 C 263.24 -0.825506 1.83814 0
M  V30 2750 O 262.296 -1.60356 1.95044 0
M  V30 2751 C 263.609 1.57402 2.56213 0
M  V30 2752 C 265.157 1.58204 2.70075 0
M  V30 2753 C 265.632 2.51721 3.82623 0
M  V30 2754 N 267.123 2.49917 3.89994 0
M  V30 2755 C 267.858 3.18968 4.76494 0
M  V30 2756 N 267.354 3.97391 5.67496 0
M  V30 2757 N 269.147 3.07996 4.70208 0
M  V30 2758 H 261.298 1.86409 1.01811 0
M  V30 2759 H 263.561 0.800213 0.508295 0
M  V30 2760 H 263.267 2.60925 2.35819 0
M  V30 2761 H 263.141 1.31428 3.53563 0
M  V30 2762 H 265.528 0.554124 2.89851 0
M  V30 2763 H 265.609 1.88226 1.73218 0
M  V30 2764 H 265.253 3.54622 3.63601 0
M  V30 2765 H 265.183 2.18996 4.78903 0
M  V30 2766 H 267.674 1.9296 3.24923 0
M  V30 2767 H 267.987 4.4707 6.30356 0
M  V30 2768 H 266.332 4.01495 5.67298 0
M  V30 2769 H 269.523 2.46223 3.9811 0
M  V30 2770 H 269.696 3.6208 5.37403 0
M  V30 2771 N 263.102 -1.41638 0.69111 0
M  V30 2772 C 264.379 -1.95036 0.148421 0
M  V30 2773 C 264.759 -1.63072 -1.34055 0
M  V30 2774 O 264.107 -0.93538 -2.08478 0
M  V30 2775 C 264.317 -3.46279 0.434951 0
M  V30 2776 C 265.665 -4.23069 0.360275 0
M  V30 2777 O 266.689 -3.54277 0.369613 0
M  V30 2778 O 265.548 -5.45583 0.316534 0
M  V30 2779 H 262.642 -0.826908 0.0123654 0
M  V30 2780 H 265.188 -1.5138 0.766963 0
M  V30 2781 H 263.96 -3.6281 1.46576 0
M  V30 2782 H 263.583 -3.97019 -0.214787 0
M  V30 2783 N 264.58 -0.43555 -1.51462 0
M  V30 2784 C 265.808 0.130242 -2.0649 0
M  V30 2785 C 266.223 1.36614 -1.30315 0
M  V30 2786 O 265.58 1.78869 -0.362223 0
M  V30 2787 C 265.631 0.454253 -3.58635 0
M  V30 2788 O 265.352 -0.73259 -4.31931 0
M  V30 2789 C 266.853 1.07091 -4.3017 0
M  V30 2790 H 264.073 0.00871669 -0.670943 0
M  V30 2791 H 266.617 -0.614117 -1.95061 0
M  V30 2792 H 264.772 1.14851 -3.69984 0
M  V30 2793 H 265.186 -0.455787 -5.22516 0
M  V30 2794 H 266.66 1.24764 -5.37716 0
M  V30 2795 H 267.137 2.05144 -3.88346 0
M  V30 2796 H 267.743 0.416089 -4.2326 0
M  V30 2797 N 266.058 1.56714 -0.166846 0
M  V30 2798 C 267.304 1.97039 0.479962 0
M  V30 2799 C 267.637 1.05264 1.63197 0
M  V30 2800 O 266.912 0.0988833 1.94248 0
M  V30 2801 C 267.195 3.46867 0.967212 0
M  V30 2802 C 267.048 4.49421 -0.18466 0
M  V30 2803 C 268.367 3.9968 1.84238 0
M  V30 2804 H 265.486 0.71641 0.172992 0
M  V30 2805 H 268.128 1.8832 -0.252079 0
M  V30 2806 H 266.278 3.54428 1.59101 0
M  V30 2807 H 267.95 4.53924 -0.821621 0
M  V30 2808 H 266.193 4.25573 -0.840837 0
M  V30 2809 H 266.864 5.51644 0.198317 0
M  V30 2810 H 269.34 3.94723 1.31655 0
M  V30 2811 H 268.216 5.04941 2.15234 0
M  V30 2812 H 268.477 3.43226 2.78654 0
M  V30 2813 N 267.536 -0.106894 1.57237 0
M  V30 2814 C 268.783 -0.812526 1.85484 0
M  V30 2815 C 269.111 -1.79304 0.753687 0
M  V30 2816 O 268.366 -1.94047 -0.253853 0
M  V30 2817 C 268.665 -1.58628 3.20268 0
M  V30 2818 C 268.331 -0.748967 4.44636 0
M  V30 2819 C 266.993 -0.518104 4.78403 0
M  V30 2820 C 269.345 -0.166122 5.20935 0
M  V30 2821 C 266.673 0.305659 5.85903 0
M  V30 2822 C 269.025 0.644899 6.29304 0
M  V30 2823 C 267.689 0.885965 6.61594 0
M  V30 2824 H 266.959 -0.297324 0.678734 0
M  V30 2825 H 269.606 -0.0744332 1.91355 0
M  V30 2826 H 267.911 -2.39562 3.10028 0
M  V30 2827 H 269.608 -2.13643 3.39349 0
M  V30 2828 H 266.198 -0.939006 4.18187 0
M  V30 2829 H 270.382 -0.33167 4.95191 0
M  V30 2830 H 265.638 0.501528 6.0934 0
M  V30 2831 H 269.812 1.10345 6.87602 0
M  V30 2832 H 267.439 1.52609 7.44725 0
M  V30 2833 N 269.014 -1.53014 -0.377408 0
M  V30 2834 C 269.977 -1.77957 -1.44444 0
M  V30 2835 C 270.977 -0.649763 -1.47087 0
M  V30 2836 O 272.167 -0.917897 -1.48055 0
M  V30 2837 C 269.299 -1.89089 -2.83651 0
M  V30 2838 H 270.492 -2.73243 -1.23606 0
M  V30 2839 H 268.045 -1.43912 -0.609844 0
M  V30 2840 H 268.78 -0.958293 -3.09818 0
M  V30 2841 H 268.565 -2.71254 -2.83132 0
M  V30 2842 H 270.055 -2.1002 -3.60945 0
M  V30 2843 N 270.492 0.636531 -1.44174 0
M  V30 2844 C 271.422 1.76003 -1.53444 0
M  V30 2845 C 272.403 1.65619 -0.387841 0
M  V30 2846 O 273.588 1.84461 -0.607257 0
M  V30 2847 C 270.718 3.14511 -1.4731 0
M  V30 2848 C 269.672 3.39677 -2.60391 0
M  V30 2849 C 268.998 4.78159 -2.39308 0
M  V30 2850 C 270.298 3.32772 -4.02567 0
M  V30 2851 H 271.992 1.68501 -2.47483 0
M  V30 2852 H 269.538 0.809237 -1.19111 0
M  V30 2853 H 271.491 3.92878 -1.52397 0
M  V30 2854 H 270.215 3.22783 -0.49785 0
M  V30 2855 H 268.874 2.63688 -2.54684 0
M  V30 2856 H 268.522 4.83128 -1.39988 0
M  V30 2857 H 268.222 4.95956 -3.15122 0
M  V30 2858 H 269.746 5.58762 -2.46205 0
M  V30 2859 H 271.16 4.01051 -4.09672 0
M  V30 2860 H 269.557 3.62104 -4.7854 0
M  V30 2861 H 270.627 2.30669 -4.2652 0
M  V30 2862 N 271.97 1.30982 0.876444 0
M  V30 2863 C 273.216 1.20474 1.63138 0
M  V30 2864 C 273.549 -0.238096 1.92735 0
M  V30 2865 O 272.824 -1.1692 1.55435 0
M  V30 2866 C 273.107 2.04244 2.96574 0
M  V30 2867 C 272.96 3.56793 2.73896 0
M  V30 2868 C 274.279 1.88684 3.97601 0
M  V30 2869 H 271.398 0.439001 0.591985 0
M  V30 2870 H 274.04 1.60704 1.01361 0
M  V30 2871 H 272.19 1.70063 3.493 0
M  V30 2872 H 273.862 4.01077 2.27892 0
M  V30 2873 H 272.105 3.80548 2.08245 0
M  V30 2874 H 272.776 4.10706 3.68815 0
M  V30 2875 H 275.252 2.18584 3.54062 0
M  V30 2876 H 274.128 2.4961 4.88862 0
M  V30 2877 H 274.389 0.848343 4.33884 0
M  V30 2878 N 273.449 -1.08991 1.13837 0
M  V30 2879 C 274.397 -2.17841 0.815347 0
M  V30 2880 C 275.391 -1.68164 -0.204233 0
M  V30 2881 O 276.597 -1.79897 -0.0609304 0
M  V30 2882 H 272.972 -0.710654 0.245915 0
M  V30 2883 H 274.943 -2.42315 1.74143 0
M  V30 2884 C 273.692 -3.46381 0.302614 0
M  V30 2885 H 273.015 -3.84979 1.0785 0
M  V30 2886 H 274.455 -4.23844 0.115074 0
M  V30 2887 C 272.914 -3.22556 -0.972591 0
M  V30 2888 O 273.444 -3.45599 -2.04754 0
M  V30 2889 N 271.65 -2.76134 -0.905455 0
M  V30 2890 H 271.197 -2.57582 -0.0305421 0
M  V30 2891 H 271.155 -2.60571 -1.75926 0
M  V30 2892 N 274.927 -0.932562 -1.27047 0
M  V30 2893 C 276.157 -0.591173 -1.97961 0
M  V30 2894 C 276.565 0.836219 -1.69717 0
M  V30 2895 O 275.908 1.56801 -0.957036 0
M  V30 2896 C 275.97 -0.743082 -3.51736 0
M  V30 2897 C 275.634 -2.1435 -4.03613 0
M  V30 2898 C 276.631 -3.11815 -4.16014 0
M  V30 2899 C 274.316 -2.46175 -4.37839 0
M  V30 2900 C 276.31 -4.39211 -4.61923 0
M  V30 2901 C 273.997 -3.73806 -4.83438 0
M  V30 2902 C 274.995 -4.70137 -4.95439 0
M  V30 2903 O 274.683 -5.95496 -5.40037 0
M  V30 2904 H 274.415 -0.222375 -0.638377 0
M  V30 2905 H 276.969 -1.25317 -1.62742 0
M  V30 2906 H 275.199 -0.0239739 -3.86693 0
M  V30 2907 H 276.888 -0.40603 -4.03864 0
M  V30 2908 H 277.654 -2.88549 -3.89826 0
M  V30 2909 H 273.533 -1.71936 -4.27737 0
M  V30 2910 H 277.077 -5.14404 -4.71205 0
M  V30 2911 H 272.974 -3.96888 -5.09068 0
M  V30 2912 H 273.742 -5.98554 -5.58279 0
M  V30 2913 N 276.405 1.4127 -0.698611 0
M  V30 2914 C 277.654 2.00408 -0.227949 0
M  V30 2915 C 277.967 1.55981 1.18023 0
M  V30 2916 O 279.173 2.07699 1.74852 0
M  V30 2917 C 277.629 3.58129 -0.356636 0
M  V30 2918 C 277.237 4.11536 -1.77037 0
M  V30 2919 C 278.981 4.24466 0.0540969 0
M  V30 2920 C 276.888 5.61701 -1.85055 0
M  V30 2921 H 275.818 0.749586 -0.0814657 0
M  V30 2922 H 278.469 1.61713 -0.867249 0
M  V30 2923 H 276.851 3.94442 0.350965 0
M  V30 2924 H 278.025 3.86636 -2.50698 0
M  V30 2925 H 276.34 3.57736 -2.13105 0
M  V30 2926 H 278.937 5.34698 0.0146723 0
M  V30 2927 H 279.28 4.01687 1.09332 0
M  V30 2928 H 279.813 3.93198 -0.603337 0
M  V30 2929 H 276.552 5.89312 -2.8704 0
M  V30 2930 H 276.072 5.88519 -1.15783 0
M  V30 2931 H 277.751 6.26524 -1.61484 0
M  V30 2932 N 277.883 0.443576 1.51229 0
M  V30 2933 C 279.13 -0.120796 2.02139 0
M  V30 2934 C 279.458 -1.42166 1.32736 0
M  V30 2935 O 278.713 -1.90849 0.43301 0
M  V30 2936 C 279.012 -0.380579 3.55368 0
M  V30 2937 C 278.678 0.83523 4.43097 0
M  V30 2938 C 277.34 1.16864 4.66794 0
M  V30 2939 C 279.692 1.64601 4.94526 0
M  V30 2940 C 277.02 2.31339 5.39165 0
M  V30 2941 C 279.372 2.78181 5.68153 0
M  V30 2942 C 278.036 3.11969 5.90112 0
M  V30 2943 H 277.306 -0.0442023 0.73968 0
M  V30 2944 H 279.953 0.592046 1.82118 0
M  V30 2945 H 278.258 -1.17538 3.73754 0
M  V30 2946 H 279.955 -0.830777 3.923 0
M  V30 2947 H 276.545 0.565437 4.24854 0
M  V30 2948 H 280.729 1.40163 4.76097 0
M  V30 2949 H 275.985 2.57823 5.5438 0
M  V30 2950 H 280.159 3.41371 6.06992 0
M  V30 2951 H 277.786 4.00784 6.45969 0
M  V30 2952 N 279.361 -1.56624 0.175154 0
M  V30 2953 C 280.608 -1.96999 -0.468811 0
M  V30 2954 C 280.936 -1.06129 -1.62994 0
M  V30 2955 O 280.191 -0.0961771 -1.95464 0
M  V30 2956 C 280.49 -3.43419 -0.989864 0
M  V30 2957 C 280.156 -4.50866 0.0557687 0
M  V30 2958 C 278.818 -4.79975 0.343134 0
M  V30 2959 C 281.17 -5.15551 0.765308 0
M  V30 2960 C 278.498 -5.71066 1.34536 0
M  V30 2961 C 280.85 -6.07724 1.75654 0
M  V30 2962 C 279.514 -6.35199 2.05132 0
M  V30 2963 H 278.784 -0.720869 -0.17155 0
M  V30 2964 H 281.431 -1.89616 0.267924 0
M  V30 2965 H 279.736 -3.47772 -1.80449 0
M  V30 2966 H 281.433 -3.72002 -1.49719 0
M  V30 2967 H 278.023 -4.28229 -0.178381 0
M  V30 2968 H 282.207 -4.9317 0.556513 0
M  V30 2969 H 277.463 -5.90635 1.57988 0
M  V30 2970 H 281.637 -6.56912 2.31169 0
M  V30 2971 H 279.264 -7.05584 2.8294 0
M  V30 2972 N 280.839 0.0985539 -1.57292 0
M  V30 2973 C 281.786 1.11981 -2.01814 0
M  V30 2974 C 282.756 1.39999 -0.89384 0
M  V30 2975 O 283.941 1.5152 -1.15958 0
M  V30 2976 C 281.081 2.43577 -2.44467 0
M  V30 2977 C 280.194 2.2232 -3.70402 0
M  V30 2978 C 279.329 3.4729 -4.01949 0
M  V30 2979 C 278.368 3.2128 -5.21005 0
M  V30 2980 N 277.505 4.38507 -5.48321 0
M  V30 2981 H 282.345 0.733149 -2.88841 0
M  V30 2982 H 279.882 0.350482 -1.42864 0
M  V30 2983 H 281.84 3.20373 -2.6724 0
M  V30 2984 H 280.47 2.80097 -1.60455 0
M  V30 2985 H 279.522 1.36343 -3.55126 0
M  V30 2986 H 280.834 1.99089 -4.57345 0
M  V30 2987 H 279.988 4.32495 -4.25479 0
M  V30 2988 H 278.727 3.73572 -3.13521 0
M  V30 2989 H 277.732 2.34468 -4.97298 0
M  V30 2990 H 278.957 2.96348 -6.11028 0
M  V30 2991 H 276.903 4.64871 -4.62851 0
M  V30 2992 H 276.82 4.18455 -6.29628 0
M  V30 2993 H 278.088 5.24787 -5.76385 0
M  V30 2994 N 282.317 1.53212 0.369288 0
M  V30 2995 C 283.565 1.68881 1.11012 0
M  V30 2996 C 283.886 0.441285 1.89941 0
M  V30 2997 O 283.156 -0.544623 1.88177 0
M  V30 2998 H 281.736 0.622569 0.412816 0
M  V30 2999 H 284.398 1.90391 0.416802 0
M  V30 3000 H 283.494 2.54822 1.80201 0
M  V30 3001 N 283.795 -0.628877 1.44509 0
M  V30 3002 C 284.742 -1.74074 1.51549 0
M  V30 3003 C 285.712 -1.62084 0.363021 0
M  V30 3004 O 286.897 -1.81975 0.573567 0
M  V30 3005 C 284.037 -3.12328 1.46784 0
M  V30 3006 C 283.15 -3.35277 2.72422 0
M  V30 3007 C 282.285 -4.63515 2.59475 0
M  V30 3008 C 281.324 -4.7965 3.80266 0
M  V30 3009 N 280.461 -5.99168 3.65981 0
M  V30 3010 H 285.301 -1.67392 2.46544 0
M  V30 3011 H 282.838 -0.816527 1.22357 0
M  V30 3012 H 284.796 -3.92286 1.42012 0
M  V30 3013 H 283.426 -3.18018 0.553544 0
M  V30 3014 H 282.478 -2.49242 2.87372 0
M  V30 3015 H 283.79 -3.43078 3.62076 0
M  V30 3016 H 282.944 -5.51638 2.52548 0
M  V30 3017 H 281.683 -4.58076 1.67384 0
M  V30 3018 H 280.688 -3.89957 3.87574 0
M  V30 3019 H 281.913 -4.86902 4.73395 0
M  V30 3020 H 279.859 -5.94814 2.76644 0
M  V30 3021 H 279.776 -6.08035 4.49254 0
M  V30 3022 H 281.044 -6.89846 3.6295 0
M  V30 3023 N 285.273 -1.31445 -0.869486 0
M  V30 3024 C 286.519 -1.22347 -1.62489 0
M  V30 3025 C 286.874 0.216204 -1.91181 0
M  V30 3026 O 286.167 1.14977 -1.53268 0
M  V30 3027 C 286.361 -2.00145 -2.96102 0
M  V30 3028 C 286.19 -3.51531 -2.80456 0
M  V30 3029 C 284.96 -4.20882 -2.79618 0
M  V30 3030 C 287.158 -4.46471 -2.5528 0
M  V30 3031 N 285.14 -5.58421 -2.55027 0
M  V30 3032 C 286.511 -5.71682 -2.39957 0
M  V30 3033 C 288.566 -4.35892 -2.40629 0
M  V30 3034 C 287.269 -6.87511 -2.11472 0
M  V30 3035 C 289.295 -5.51505 -2.13532 0
M  V30 3036 C 288.657 -6.75707 -1.98998 0
M  V30 3037 H 284.756 -0.502815 -0.598917 0
M  V30 3038 H 287.34 -1.65639 -1.02332 0
M  V30 3039 H 285.511 -1.59221 -3.54264 0
M  V30 3040 H 287.243 -1.83063 -3.60929 0
M  V30 3041 H 283.998 -3.72857 -2.92018 0
M  V30 3042 H 284.422 -6.30841 -2.45701 0
M  V30 3043 H 289.064 -3.40533 -2.50593 0
M  V30 3044 H 286.782 -7.82897 -2.00245 0
M  V30 3045 H 290.368 -5.45238 -2.02995 0
M  V30 3046 H 289.248 -7.63655 -1.78326 0
M  V30 3047 N 286.751 1.08385 -1.14413 0
M  V30 3048 C 287.661 2.18856 -0.844951 0
M  V30 3049 C 288.677 1.73121 0.174668 0
M  V30 3050 O 289.853 2.014 0.00312857 0
M  V30 3051 C 286.918 3.45155 -0.32696 0
M  V30 3052 C 285.979 4.05513 -1.40916 0
M  V30 3053 C 285.212 5.25784 -0.915793 0
M  V30 3054 O 285.435 5.69884 0.242651 0
M  V30 3055 O 284.369 5.77545 -1.69487 0
M  V30 3056 H 288.195 2.46919 -1.76818 0
M  V30 3057 H 285.78 1.17524 -0.922411 0
M  V30 3058 H 287.662 4.21377 -0.0440211 0
M  V30 3059 H 286.337 3.18668 0.568539 0
M  V30 3060 H 285.244 3.30879 -1.74556 0
M  V30 3061 H 286.577 4.3625 -2.27919 0
M  V30 3062 N 288.23 0.939286 1.26551 0
M  V30 3063 C 289.646 0.641304 1.46149 0
M  V30 3064 C 289.846 -0.805964 1.84679 0
M  V30 3065 O 288.902 -1.58278 1.96734 0
M  V30 3066 C 290.215 1.6011 2.54529 0
M  V30 3067 C 291.763 1.6106 2.68382 0
M  V30 3068 C 292.238 2.55765 3.79932 0
M  V30 3069 N 293.729 2.5404 3.87322 0
M  V30 3070 C 294.464 3.24004 4.73085 0
M  V30 3071 N 293.96 4.03388 5.63249 0
M  V30 3072 N 295.753 3.12965 4.66914 0
M  V30 3073 H 287.904 1.87478 0.998285 0
M  V30 3074 H 290.167 0.805559 0.499779 0
M  V30 3075 H 289.873 2.63412 2.33039 0
M  V30 3076 H 289.747 1.35171 3.52149 0
M  V30 3077 H 292.134 0.584835 2.89247 0
M  V30 3078 H 292.215 1.90053 1.71212 0
M  V30 3079 H 291.859 3.58458 3.5982 0
M  V30 3080 H 291.789 2.24063 4.76554 0
M  V30 3081 H 294.28 1.96396 3.22858 0
M  V30 3082 H 294.593 4.5373 6.25579 0
M  V30 3083 H 292.938 4.07489 5.63008 0
M  V30 3084 H 296.129 2.50432 3.95476 0
M  V30 3085 H 296.302 3.67759 5.33533 0
M  V30 3086 N 289.708 -1.40897 0.706093 0
M  V30 3087 C 291.119 -1.84023 0.315052 0
M  V30 3088 C 291.47 -1.5906 -1.14866 0
M  V30 3089 O 290.595 -1.06651 -1.88293 0
M  V30 3090 C 291.19 -3.34055 0.565038 0
M  V30 3091 C 289.749 -3.7571 0.227806 0
M  V30 3092 C 288.896 -2.64204 0.842122 0
M  V30 3093 H 291.847 -1.303 0.905963 0
M  V30 3094 H 291.868 -3.80107 -0.172843 0
M  V30 3095 H 291.38 -3.52192 1.63042 0
M  V30 3096 H 289.481 -3.63172 -0.832895 0
M  V30 3097 H 289.594 -4.74103 0.690174 0
M  V30 3098 H 287.958 -2.53255 0.270893 0
M  V30 3099 H 288.741 -2.85155 1.91158 0
M  V30 3100 N 291.186 -0.45159 -1.50991 0
M  V30 3101 C 292.433 0.110074 -2.02201 0
M  V30 3102 C 292.761 1.4146 -1.33489 0
M  V30 3103 O 292.016 1.90617 -0.443125 0
M  V30 3104 C 292.315 0.361728 -3.55565 0
M  V30 3105 C 291.981 -0.858717 -4.42648 0
M  V30 3106 C 290.643 -1.19338 -4.66167 0
M  V30 3107 C 292.995 -1.67221 -4.93646 0
M  V30 3108 C 290.323 -2.34195 -5.37931 0
M  V30 3109 C 292.675 -2.8119 -5.6667 0
M  V30 3110 C 291.339 -3.15094 -5.88449 0
M  V30 3111 H 290.609 0.040279 -0.739904 0
M  V30 3112 H 293.256 -0.601696 -1.81802 0
M  V30 3113 H 291.561 1.15554 -3.74372 0
M  V30 3114 H 293.258 0.80996 -3.92735 0
M  V30 3115 H 289.848 -0.58796 -4.24548 0
M  V30 3116 H 294.032 -1.42686 -4.75347 0
M  V30 3117 H 289.288 -2.6076 -5.53005 0
M  V30 3118 H 293.462 -3.44585 -6.05173 0
M  V30 3119 H 291.089 -4.04204 -6.43835 0
M  V30 3120 N 292.664 1.56529 -0.183458 0
M  V30 3121 C 293.574 2.22144 0.754272 0
M  V30 3122 C 294.59 1.21684 1.24374 0
M  V30 3123 O 295.766 1.54385 1.29333 0
M  V30 3124 C 292.831 2.85884 1.96141 0
M  V30 3125 C 291.892 4.01579 1.51765 0
M  V30 3126 C 291.125 4.6227 2.66725 0
M  V30 3127 O 291.348 4.21865 3.83909 0
M  V30 3128 O 290.282 5.51936 2.40104 0
M  V30 3129 H 294.108 3.02861 0.225527 0
M  V30 3130 H 291.693 1.49331 0.0453032 0
M  V30 3131 H 293.575 3.26253 2.66715 0
M  V30 3132 H 292.25 2.08154 2.47899 0
M  V30 3133 H 291.157 3.65856 0.781049 0
M  V30 3134 H 292.49 4.80938 1.04686 0
M  V30 3135 N 294.142 -0.090211 1.57342 0
M  V30 3136 C 295.388 -0.793982 1.86611 0
M  V30 3137 C 295.721 -1.78142 0.773252 0
M  V30 3138 O 294.996 -1.93271 -0.218304 0
M  V30 3139 C 295.279 -1.51839 3.26523 0
M  V30 3140 C 295.132 -0.548609 4.46442 0
M  V30 3141 C 296.451 -2.46779 3.64401 0
M  V30 3142 H 293.57 -0.287186 0.678744 0
M  V30 3143 H 296.212 -0.0575076 1.89913 0
M  V30 3144 H 294.362 -2.14617 3.23839 0
M  V30 3145 H 296.034 0.0725513 4.61243 0
M  V30 3146 H 294.277 0.137614 4.33582 0
M  V30 3147 H 294.948 -1.09271 5.41076 0
M  V30 3148 H 297.424 -1.94089 3.68061 0
M  V30 3149 H 296.3 -2.94479 4.63221 0
M  V30 3150 H 296.561 -3.30758 2.93346 0
M  V30 3151 N 295.62 -1.53406 -0.361157 0
M  V30 3152 C 296.567 -1.80156 -1.44265 0
M  V30 3153 C 297.537 -0.646183 -1.53015 0
M  V30 3154 O 298.722 -0.888818 -1.68833 0
M  V30 3155 C 295.862 -2.00116 -2.81154 0
M  V30 3156 C 294.975 -3.27833 -2.81335 0
M  V30 3157 C 294.11 -3.37957 -4.09828 0
M  V30 3158 C 293.149 -4.59689 -4.04168 0
M  V30 3159 N 292.286 -4.66942 -5.24318 0
M  V30 3160 H 297.126 -2.72438 -1.20754 0
M  V30 3161 H 294.663 -1.34954 -0.585296 0
M  V30 3162 H 296.621 -2.09677 -3.60682 0
M  V30 3163 H 295.251 -1.11167 -3.03054 0
M  V30 3164 H 294.303 -3.27204 -1.94014 0
M  V30 3165 H 295.615 -4.17442 -2.73027 0
M  V30 3166 H 294.769 -3.46853 -4.97773 0
M  V30 3167 H 293.508 -2.46372 -4.20894 0
M  V30 3168 H 292.513 -4.50889 -3.14609 0
M  V30 3169 H 293.738 -5.5262 -3.947 0
M  V30 3170 H 291.684 -3.7826 -5.35962 0
M  V30 3171 H 291.601 -5.50462 -5.18197 0
M  V30 3172 H 292.869 -4.80127 -6.14084 0
M  V30 3173 N 297.098 0.621204 -1.44841 0
M  V30 3174 C 298.375 1.38 -1.38619 0
M  V30 3175 C 298.755 2.11041 -0.0498935 0
M  V30 3176 O 298.103 2.06992 0.967816 0
M  V30 3177 C 298.313 2.33817 -2.59096 0
M  V30 3178 C 299.661 2.96844 -3.03593 0
M  V30 3179 O 300.685 2.44141 -2.59371 0
M  V30 3180 O 299.544 3.92476 -3.80296 0
M  V30 3181 H 296.638 0.61811 -0.549426 0
M  V30 3182 H 299.184 0.645429 -1.56947 0
M  V30 3183 H 297.956 1.79012 -3.47952 0
M  V30 3184 H 297.579 3.14676 -2.43032 0
M  V30 3185 N 298.576 1.31904 0.862503 0
M  V30 3186 C 299.804 1.24998 1.64873 0
M  V30 3187 C 300.219 -0.183425 1.87907 0
M  V30 3188 O 299.576 -1.11794 1.44251 0
M  V30 3189 C 299.627 1.99829 3.01248 0
M  V30 3190 O 299.348 3.37575 2.79239 0
M  V30 3191 C 300.849 1.99852 3.95694 0
M  V30 3192 H 298.069 0.431599 0.513773 0
M  V30 3193 H 300.613 1.73901 1.07604 0
M  V30 3194 H 298.768 1.54668 3.55185 0
M  V30 3195 H 299.182 3.75776 3.65914 0
M  V30 3196 H 300.656 2.56709 4.88676 0
M  V30 3197 H 301.133 0.982852 4.28062 0
M  V30 3198 H 301.739 2.44926 3.47694 0
M  V30 3199 N 300.054 -1.07777 1.14986 0
M  V30 3200 C 300.964 -2.18404 0.856546 0
M  V30 3201 C 301.98 -1.73211 -0.165485 0
M  V30 3202 O 303.156 -2.01399 0.00755219 0
M  V30 3203 C 300.221 -3.44977 0.34526 0
M  V30 3204 C 299.282 -4.0476 1.43065 0
M  V30 3205 C 298.515 -5.25291 0.943663 0
M  V30 3206 O 298.738 -5.70004 -0.212426 0
M  V30 3207 O 297.672 -5.76638 1.72547 0
M  V30 3208 H 301.498 -2.45978 1.78125 0
M  V30 3209 H 299.083 -1.17033 0.928631 0
M  V30 3210 H 300.965 -4.21348 0.0663671 0
M  V30 3211 H 299.64 -3.18965 -0.551631 0
M  V30 3212 H 298.547 -3.29949 1.76309 0
M  V30 3213 H 299.88 -4.35035 2.30229 0
M  V30 3214 N 301.532 -0.945985 -1.26051 0
M  V30 3215 C 302.442 -0.465633 -2.29933 0
M  V30 3216 C 303.458 0.462761 -1.67733 0
M  V30 3217 O 304.634 0.341118 -1.9849 0
M  V30 3218 C 301.699 0.256994 -3.45746 0
M  V30 3219 C 300.76 -0.708549 -4.23412 0
M  V30 3220 C 299.993 -0.0203135 -5.33696 0
M  V30 3221 O 300.216 1.19571 -5.57726 0
M  V30 3222 O 299.15 -0.701459 -5.97799 0
M  V30 3223 H 302.976 -1.32866 -2.73094 0
M  V30 3224 H 300.561 -0.712071 -1.31339 0
M  V30 3225 H 302.443 0.663852 -4.16138 0
M  V30 3226 H 301.118 1.09533 -3.04605 0
M  V30 3227 H 300.025 -1.16545 -3.55483 0
M  V30 3228 H 301.358 -1.51465 -4.68315 0
M  V30 3229 N 303.011 1.40521 -0.713556 0
M  V30 3230 C 303.921 2.34522 -0.0606667 0
M  V30 3231 C 304.937 1.57193 0.74607 0
M  V30 3232 O 306.113 1.89591 0.679493 0
M  V30 3233 C 303.178 3.36081 0.851491 0
M  V30 3234 C 302.239 4.29286 0.0349339 0
M  V30 3235 C 301.472 5.25994 0.903649 0
M  V30 3236 O 301.695 5.28616 2.14292 0
M  V30 3237 O 300.629 6.00918 0.343723 0
M  V30 3238 H 304.455 2.91968 -0.835972 0
M  V30 3239 H 302.04 1.41681 -0.47402 0
M  V30 3240 H 303.922 3.98369 1.37404 0
M  V30 3241 H 302.597 2.81052 1.60598 0
M  V30 3242 H 301.504 3.70289 -0.532633 0
M  V30 3243 H 302.837 4.87462 -0.681287 0
M  V30 3244 N 304.489 0.459591 1.5075 0
M  V30 3245 C 305.766 -0.160371 1.94941 0
M  V30 3246 C 306.146 -1.58048 1.39943 0
M  V30 3247 O 305.494 -2.206 0.595629 0
M  V30 3248 C 305.704 -0.115432 3.48809 0
M  V30 3249 C 307.052 -0.310026 4.23467 0
M  V30 3250 O 308.076 -0.192543 3.55679 0
M  V30 3251 O 306.935 -0.546031 5.43765 0
M  V30 3252 H 304.029 -0.117925 0.818549 0
M  V30 3253 H 306.575 0.519169 1.61563 0
M  V30 3254 H 305.347 0.87652 3.81357 0
M  V30 3255 H 304.97 -0.836928 3.88692 0
M  V30 3256 N 305.967 -1.56429 0.191757 0
M  V30 3257 C 307.214 -1.97485 -0.447891 0
M  V30 3258 C 307.542 -1.07852 -1.61859 0
M  V30 3259 O 306.797 -0.116903 -1.95351 0
M  V30 3260 C 307.096 -3.44449 -0.953384 0
M  V30 3261 C 306.762 -4.50781 0.103586 0
M  V30 3262 C 305.424 -4.79584 0.394023 0
M  V30 3263 C 307.776 -5.1471 0.819946 0
M  V30 3264 C 305.104 -5.69607 1.40585 0
M  V30 3265 C 307.456 -6.05827 1.8209 0
M  V30 3266 C 306.12 -6.32987 2.11857 0
M  V30 3267 H 305.39 -0.722648 -0.163895 0
M  V30 3268 H 308.037 -1.89322 0.28802 0
M  V30 3269 H 306.342 -3.49666 -1.76751 0
M  V30 3270 H 308.039 -3.73569 -1.45765 0
M  V30 3271 H 304.629 -4.28394 -0.132951 0
M  V30 3272 H 308.813 -4.92552 0.608789 0
M  V30 3273 H 304.069 -5.88926 1.64243 0
M  V30 3274 H 308.243 -6.54424 2.38123 0
M  V30 3275 H 305.87 -7.02544 2.90407 0
M  V30 3276 N 307.445 0.0818655 -1.57387 0
M  V30 3277 C 308.395 1.10501 -1.99433 0
M  V30 3278 C 309.379 1.35041 -0.874798 0
M  V30 3279 O 310.571 1.35511 -1.13868 0
M  V30 3280 C 307.7 2.42159 -2.43339 0
M  V30 3281 C 306.786 2.20937 -3.62005 0
M  V30 3282 N 307.177 1.69616 -4.76512 0
M  V30 3283 C 305.475 2.51451 -3.68359 0
M  V30 3284 C 306.176 1.62973 -5.58404 0
M  V30 3285 N 305.152 2.08664 -5.01956 0
M  V30 3286 H 308.954 0.701373 -2.85408 0
M  V30 3287 H 306.468 0.289096 -1.59806 0
M  V30 3288 H 308.465 3.16208 -2.71695 0
M  V30 3289 H 307.125 2.83249 -1.58746 0
M  V30 3290 H 308.136 1.38624 -4.99003 0
M  V30 3291 H 304.813 2.95975 -2.94457 0
M  V30 3292 H 306.203 1.24233 -6.60315 0
M  V30 3293 N 308.923 1.53595 0.353017 0
M  V30 3294 C 310.169 1.70638 1.09593 0
M  V30 3295 C 310.502 0.463286 1.88593 0
M  V30 3296 O 309.777 -0.539597 1.86865 0
M  V30 3297 C 310.06 2.96406 2.04489 0
M  V30 3298 C 309.913 4.30901 1.29014 0
M  V30 3299 C 311.232 3.17812 3.0444 0
M  V30 3300 H 308.351 0.620913 0.397034 0
M  V30 3301 H 310.993 1.86254 0.375446 0
M  V30 3302 H 309.143 2.83223 2.65927 0
M  V30 3303 H 310.815 4.55917 0.702638 0
M  V30 3304 H 309.058 4.29741 0.592071 0
M  V30 3305 H 309.729 5.1506 1.98537 0
M  V30 3306 H 312.205 3.30263 2.53112 0
M  V30 3307 H 311.081 4.07223 3.6805 0
M  V30 3308 H 311.342 2.33669 3.75301 0
M  V30 3309 N 310.401 -0.613514 1.45168 0
M  V30 3310 C 311.678 -1.37263 1.39349 0
M  V30 3311 C 312.058 -2.11012 0.0610848 0
M  V30 3312 O 311.406 -2.07502 -0.956825 0
M  V30 3313 C 311.616 -2.3244 2.60332 0
M  V30 3314 C 312.964 -2.9523 3.05163 0
M  V30 3315 O 313.988 -2.42762 2.60663 0
M  V30 3316 O 312.847 -3.90454 3.82372 0
M  V30 3317 H 309.941 -0.615188 0.552696 0
M  V30 3318 H 312.487 -0.637097 1.57287 0
M  V30 3319 H 311.259 -1.77164 3.48896 0
M  V30 3320 H 310.882 -3.13383 2.44698 0
M  V30 3321 N 311.879 -1.3236 -0.855495 0
M  V30 3322 C 312.811 -1.17052 -1.97057 0
M  V30 3323 C 313.824 -0.10574 -1.62456 0
M  V30 3324 O 315.013 -0.354619 -1.74942 0
M  V30 3325 C 312.113 -0.769305 -3.30053 0
M  V30 3326 C 311.286 -1.9222 -3.929 0
M  V30 3327 C 310.345 -1.50466 -5.04228 0
M  V30 3328 O 309.371 -2.21655 -5.24269 0
M  V30 3329 N 310.573 -0.400209 -5.79119 0
M  V30 3330 H 313.338 -2.13103 -2.1073 0
M  V30 3331 H 310.899 -1.24885 -1.0303 0
M  V30 3332 H 312.891 -0.472407 -4.01933 0
M  V30 3333 H 311.461 0.100025 -3.1244 0
M  V30 3334 H 310.681 -2.38563 -3.13817 0
M  V30 3335 H 311.969 -2.69403 -4.31624 0
M  V30 3336 H 311.367 0.192319 -5.65373 0
M  V30 3337 H 309.924 -0.162912 -6.51596 0
M  V30 3338 N 313.357 1.07166 -1.15556 0
M  V30 3339 C 314.603 1.80065 -0.932984 0
M  V30 3340 C 314.936 1.86586 0.53845 0
M  V30 3341 O 314.211 1.35098 1.39924 0
M  V30 3342 C 314.494 3.25022 -1.55025 0
M  V30 3343 C 314.347 3.26634 -3.09242 0
M  V30 3344 C 315.666 4.22341 -1.2376 0
M  V30 3345 H 312.785 0.653697 -0.340366 0
M  V30 3346 H 315.427 1.25389 -1.4275 0
M  V30 3347 H 313.577 3.71712 -1.12972 0
M  V30 3348 H 315.249 2.88173 -3.60214 0
M  V30 3349 H 313.492 2.65539 -3.43033 0
M  V30 3350 H 314.163 4.28854 -3.47546 0
M  V30 3351 H 316.639 3.8405 -1.60139 0
M  V30 3352 H 315.515 5.22053 -1.69564 0
M  V30 3353 H 315.776 4.41828 -0.154938 0
M  V30 3354 N 314.835 0.952656 1.25548 0
M  V30 3355 C 316.063 0.623496 1.97282 0
M  V30 3356 C 316.478 -0.803987 1.70826 0
M  V30 3357 O 315.835 -1.53755 0.983147 0
M  V30 3358 C 315.886 0.870209 3.5087 0
M  V30 3359 O 315.607 2.24156 3.76412 0
M  V30 3360 C 317.108 0.553164 4.39835 0
M  V30 3361 H 314.328 0.233931 0.628902 0
M  V30 3362 H 316.872 1.27649 1.59768 0
M  V30 3363 H 315.027 0.263652 3.86502 0
M  V30 3364 H 315.441 2.31021 4.70882 0
M  V30 3365 H 316.915 0.776342 5.46513 0
M  V30 3366 H 317.392 -0.512215 4.36203 0
M  V30 3367 H 317.998 1.13896 4.09766 0
M  V30 3368 N 316.313 -1.40141 0.720998 0
M  V30 3369 C 317.541 -2.05096 0.272656 0
M  V30 3370 C 317.956 -1.54334 -1.0875 0
M  V30 3371 O 317.313 -0.702211 -1.6845 0
M  V30 3372 C 317.364 -3.60636 0.249835 0
M  V30 3373 O 317.085 -4.09526 1.55629 0
M  V30 3374 C 318.586 -4.42772 -0.216396 0
M  V30 3375 H 315.806 -0.659897 0.121558 0
M  V30 3376 H 318.35 -1.79449 0.980723 0
M  V30 3377 H 316.505 -3.85232 -0.409237 0
M  V30 3378 H 316.919 -5.03758 1.4604 0
M  V30 3379 H 318.393 -5.51702 -0.181212 0
M  V30 3380 H 318.87 -4.20756 -1.25941 0
M  V30 3381 H 319.476 -4.23294 0.412596 0
M  V30 3382 N 317.792 -0.46758 -1.50504 0
M  V30 3383 C 319.038 0.0887532 -2.02606 0
M  V30 3384 C 319.371 1.39686 -1.34913 0
M  V30 3385 O 318.646 1.88644 -0.473694 0
M  V30 3386 C 318.929 0.276206 -3.59039 0
M  V30 3387 C 318.782 -1.05267 -4.37309 0
M  V30 3388 C 320.101 1.03235 -4.27821 0
M  V30 3389 H 317.22 0.0307814 -0.736357 0
M  V30 3390 H 319.862 -0.612485 -1.79857 0
M  V30 3391 H 318.012 0.8735 -3.78553 0
M  V30 3392 H 319.684 -1.68628 -4.29374 0
M  V30 3393 H 317.927 -1.65015 -4.01189 0
M  V30 3394 H 318.598 -0.875197 -5.45018 0
M  V30 3395 H 321.074 0.526111 -4.12761 0
M  V30 3396 H 319.95 1.1323 -5.37094 0
M  V30 3397 H 320.211 2.06806 -3.90748 0
M  V30 3398 N 319.27 1.56325 -0.20005 0
M  V30 3399 C 320.217 2.1932 0.718833 0
M  V30 3400 C 321.187 1.14198 1.20615 0
M  V30 3401 O 322.372 1.42469 1.26914 0
M  V30 3402 C 319.512 2.86041 1.93066 0
M  V30 3403 C 318.625 4.05702 1.48425 0
M  V30 3404 C 317.76 4.60266 2.65196 0
M  V30 3405 C 316.799 5.72273 2.17185 0
M  V30 3406 N 315.936 6.21221 3.27152 0
M  V30 3407 H 320.776 2.97486 0.17489 0
M  V30 3408 H 318.313 1.46911 0.0745794 0
M  V30 3409 H 320.271 3.22897 2.64184 0
M  V30 3410 H 318.901 2.1043 2.44783 0
M  V30 3411 H 317.953 3.74475 0.668755 0
M  V30 3412 H 319.265 4.86699 1.09204 0
M  V30 3413 H 318.419 4.99453 3.4443 0
M  V30 3414 H 317.158 3.78386 3.07693 0
M  V30 3415 H 316.163 5.3261 1.36407 0
M  V30 3416 H 317.388 6.55974 1.75713 0
M  V30 3417 H 315.334 5.42263 3.69171 0
M  V30 3418 H 315.251 6.97284 2.92116 0
M  V30 3419 H 316.519 6.65063 4.06585 0
M  V30 3420 N 320.748 -0.0735177 1.57428 0
M  V30 3421 C 321.994 -0.774145 1.87443 0
M  V30 3422 C 322.327 -1.77311 0.792103 0
M  V30 3423 O 321.602 -1.93492 -0.197793 0
M  V30 3424 C 321.885 -1.48367 3.28115 0
M  V30 3425 C 321.738 -0.501227 4.46999 0
M  V30 3426 C 323.057 -2.429 3.66998 0
M  V30 3427 H 320.176 -0.279971 0.681752 0
M  V30 3428 H 322.818 -0.0373616 1.89963 0
M  V30 3429 H 320.968 -2.11171 3.26097 0
M  V30 3430 H 322.64 0.121468 4.6114 0
M  V30 3431 H 320.883 0.183593 4.33411 0
M  V30 3432 H 321.554 -1.03526 5.42205 0
M  V30 3433 H 324.03 -1.90175 3.70098 0
M  V30 3434 H 322.906 -2.89549 4.66318 0
M  V30 3435 H 323.167 -3.27628 2.96837 0
M  V30 3436 N 322.226 -1.5378 -0.344866 0
M  V30 3437 C 323.637 -1.62428 -0.920552 0
M  V30 3438 C 323.988 -0.504747 -1.89596 0
M  V30 3439 O 323.113 0.365711 -2.13287 0
M  V30 3440 C 323.708 -2.94419 -1.67639 0
M  V30 3441 C 322.267 -3.05333 -2.20111 0
M  V30 3442 C 321.414 -2.57866 -1.01982 0
M  V30 3443 H 324.365 -1.58222 -0.123042 0
M  V30 3444 H 324.386 -2.83384 -2.53917 0
M  V30 3445 H 323.898 -3.7588 -0.966224 0
M  V30 3446 H 321.999 -2.28502 -2.94308 0
M  V30 3447 H 322.112 -4.10778 -2.46573 0
M  V30 3448 H 320.476 -2.13241 -1.39285 0
M  V30 3449 H 321.259 -3.41765 -0.324308 0
M  V30 3450 N 323.704 0.605807 -1.45491 0
M  V30 3451 C 324.637 1.73022 -1.48791 0
M  V30 3452 C 325.615 1.58917 -0.344112 0
M  V30 3453 O 326.799 1.80453 -0.544876 0
M  V30 3454 C 323.926 3.10865 -1.34463 0
M  V30 3455 C 322.972 3.43554 -2.5273 0
M  V30 3456 S 323.805 3.38196 -4.15191 0
M  V30 3457 C 324.961 4.78616 -4.03333 0
M  V30 3458 H 325.194 1.69961 -2.43928 0
M  V30 3459 H 322.727 0.782611 -1.33096 0
M  V30 3460 H 324.685 3.90398 -1.26884 0
M  V30 3461 H 323.346 3.1144 -0.40794 0
M  V30 3462 H 322.539 4.43924 -2.38637 0
M  V30 3463 H 322.141 2.71541 -2.5718 0
M  V30 3464 H 324.433 5.68463 -3.68587 0
M  V30 3465 H 325.376 4.97767 -5.03621 0
M  V30 3466 H 325.784 4.54381 -3.34959 0
M  V30 3467 N 325.182 1.32811 0.848464 0
M  V30 3468 C 326.115 1.16601 1.96162 0
M  V30 3469 C 327.093 0.0638855 1.62474 0
M  V30 3470 O 328.277 0.224348 1.8716 0
M  V30 3471 C 325.404 0.786333 3.29446 0
M  V30 3472 C 324.45 1.89459 3.8211 0
M  V30 3473 S 325.283 3.50395 4.04949 0
M  V30 3474 C 326.439 3.14413 5.41198 0
M  V30 3475 H 326.672 2.10832 2.09612 0
M  V30 3476 H 324.205 1.17543 1.00115 0
M  V30 3477 H 326.163 0.574044 4.06466 0
M  V30 3478 H 324.824 -0.137218 3.138 0
M  V30 3479 H 324.017 1.58207 4.78526 0
M  V30 3480 H 323.619 2.06304 3.11953 0
M  V30 3481 H 325.911 2.64642 6.23675 0
M  V30 3482 H 326.854 4.09874 5.77416 0
M  V30 3483 H 327.262 2.51266 5.05495 0
M  V30 3484 N 326.66 -1.06551 1.16123 0
M  V30 3485 C 327.607 -2.13961 0.865414 0
M  V30 3486 C 328.577 -1.65066 -0.185055 0
M  V30 3487 O 329.762 -1.90732 -0.05083 0
M  V30 3488 C 326.902 -3.43113 0.369776 0
M  V30 3489 C 326.015 -4.05756 1.48276 0
M  V30 3490 C 325.15 -5.22773 0.942414 0
M  V30 3491 C 324.189 -5.77395 2.03179 0
M  V30 3492 N 323.326 -6.85731 1.50721 0
M  V30 3493 H 328.166 -2.38605 1.78527 0
M  V30 3494 H 325.703 -1.17072 0.890646 0
M  V30 3495 H 327.661 -4.17151 0.0640643 0
M  V30 3496 H 326.291 -3.18695 -0.513143 0
M  V30 3497 H 325.343 -3.29292 1.9045 0
M  V30 3498 H 326.655 -4.42351 2.30493 0
M  V30 3499 H 325.809 -6.03827 0.589729 0
M  V30 3500 H 324.548 -4.87618 0.0895191 0
M  V30 3501 H 323.553 -4.94981 2.3932 0
M  V30 3502 H 324.778 -6.14603 2.8886 0
M  V30 3503 H 322.724 -6.52499 0.676811 0
M  V30 3504 H 322.641 -7.21254 2.26557 0
M  V30 3505 H 323.909 -7.7047 1.18303 0
M  V30 3506 N 328.138 -0.959301 -1.25041 0
M  V30 3507 C 329.554 -0.664474 -1.4511 0
M  V30 3508 C 329.754 0.776481 -1.85938 0
M  V30 3509 O 328.81 1.55128 -1.99227 0
M  V30 3510 C 330.123 -1.64139 -2.5195 0
M  V30 3511 C 331.671 -1.65309 -2.65786 0
M  V30 3512 C 332.146 -2.61777 -3.75815 0
M  V30 3513 N 333.637 -2.60169 -3.83231 0
M  V30 3514 C 334.372 -3.31489 -4.6787 0
M  V30 3515 N 333.868 -4.12298 -5.56761 0
M  V30 3516 N 335.661 -3.20354 -4.61876 0
M  V30 3517 H 327.812 -1.89043 -0.968332 0
M  V30 3518 H 330.075 -0.813408 -0.4869 0
M  V30 3519 H 329.781 -2.67086 -2.28819 0
M  V30 3520 H 329.655 -1.40756 -3.49954 0
M  V30 3521 H 332.042 -0.630778 -2.8828 0
M  V30 3522 H 332.123 -1.92753 -1.68167 0
M  V30 3523 H 331.767 -3.64137 -3.54071 0
M  V30 3524 H 331.697 -2.31616 -4.72929 0
M  V30 3525 H 334.188 -2.01507 -3.19692 0
M  V30 3526 H 334.501 -4.63625 -6.18281 0
M  V30 3527 H 332.846 -4.16395 -5.56454 0
M  V30 3528 H 336.037 -2.56692 -3.91442 0
M  V30 3529 H 336.21 -3.76201 -5.27614 0
M  V30 3530 N 329.616 1.39756 -0.72842 0
M  V30 3531 C 330.546 2.33289 -0.0991354 0
M  V30 3532 C 331.527 1.53568 0.731489 0
M  V30 3533 O 332.712 1.81987 0.677807 0
M  V30 3534 C 329.842 3.3763 0.813834 0
M  V30 3535 C 328.796 4.2791 0.0878663 0
M  V30 3536 C 328.122 5.22894 1.11741 0
M  V30 3537 C 329.422 5.11314 -1.06563 0
M  V30 3538 H 331.116 2.86163 -0.880408 0
M  V30 3539 H 328.662 1.37591 -0.424819 0
M  V30 3540 H 330.615 4.0201 1.26355 0
M  V30 3541 H 329.339 2.83181 1.62715 0
M  V30 3542 H 327.998 3.65 -0.342159 0
M  V30 3543 H 327.646 4.64744 1.92412 0
M  V30 3544 H 327.346 5.84143 0.636477 0
M  V30 3545 H 328.87 5.90151 1.56697 0
M  V30 3546 H 330.284 5.69076 -0.694671 0
M  V30 3547 H 328.681 5.81671 -1.47577 0
M  V30 3548 H 329.751 4.46534 -1.89038 0
M  V30 3549 N 331.094 0.475555 1.50254 0
M  V30 3550 C 332.342 -0.077738 2.0195 0
M  V30 3551 C 332.663 -1.39813 1.35931 0
M  V30 3552 O 331.933 -1.89249 0.506123 0
M  V30 3553 H 330.513 -0.031719 0.746326 0
M  V30 3554 H 333.175 0.626995 1.84539 0
M  V30 3555 H 332.271 -0.225995 3.11281 0
M  V30 3556 N 332.573 -1.56217 0.208337 0
M  V30 3557 C 333.506 -2.15633 -0.746842 0
M  V30 3558 C 334.484 -1.09685 -1.20034 0
M  V30 3559 O 335.668 -1.3787 -1.28547 0
M  V30 3560 C 332.795 -2.72594 -2.01023 0
M  V30 3561 C 331.841 -3.91251 -1.69779 0
M  V30 3562 S 332.674 -5.28962 -0.834209 0
M  V30 3563 C 333.83 -5.89353 -2.10745 0
M  V30 3564 H 334.063 -2.96315 -0.241789 0
M  V30 3565 H 331.596 -1.54398 -0.00682183 0
M  V30 3566 H 333.554 -3.06053 -2.73572 0
M  V30 3567 H 332.215 -1.91929 -2.48641 0
M  V30 3568 H 331.408 -4.29562 -2.63614 0
M  V30 3569 H 331.01 -3.58869 -1.05303 0
M  V30 3570 H 333.302 -6.04522 -3.05875 0
M  V30 3571 H 334.245 -6.85661 -1.76845 0
M  V30 3572 H 334.653 -5.1807 -2.24196 0
M  V30 3573 N 334.051 0.0651679 -1.57465 0
M  V30 3574 C 335.298 0.763063 -1.87573 0
M  V30 3575 C 335.626 1.77242 -0.800961 0
M  V30 3576 O 334.881 1.94651 0.202316 0
M  V30 3577 C 335.18 1.50081 -3.24362 0
M  V30 3578 C 334.846 0.630816 -4.46466 0
M  V30 3579 C 333.508 0.391082 -4.79608 0
M  V30 3580 C 335.86 0.0279465 -5.21193 0
M  V30 3581 C 333.188 -0.460894 -5.84887 0
M  V30 3582 C 335.54 -0.811522 -6.27373 0
M  V30 3583 C 334.204 -1.06106 -6.59013 0
M  V30 3584 H 333.474 0.279224 -0.686378 0
M  V30 3585 H 336.121 0.0236726 -1.91485 0
M  V30 3586 H 334.426 2.31258 -3.16271 0
M  V30 3587 H 336.123 2.04571 -3.44894 0
M  V30 3588 H 332.713 0.8278 -4.2053 0
M  V30 3589 H 336.897 0.200262 -4.95896 0
M  V30 3590 H 332.153 -0.662907 -6.07796 0
M  V30 3591 H 336.327 -1.28537 -6.84435 0
M  V30 3592 H 333.954 -1.723 -7.40417 0
M  V30 3593 N 335.529 1.53961 0.336706 0
M  V30 3594 C 336.477 1.83136 1.43401 0
M  V30 3595 C 337.471 0.702313 1.54156 0
M  V30 3596 O 338.677 0.885765 1.56698 0
M  V30 3597 H 335.052 0.580309 0.478273 0
M  V30 3598 H 337.023 2.74925 1.16012 0
M  V30 3599 C 335.772 2.06385 2.79822 0
M  V30 3600 H 335.095 2.92718 2.72316 0
M  V30 3601 H 336.535 2.30761 3.55704 0
M  V30 3602 C 334.994 0.851414 3.25964 0
M  V30 3603 O 335.524 0.0541904 4.01663 0
M  V30 3604 N 333.73 0.66672 2.82848 0
M  V30 3605 H 333.277 1.31665 2.21409 0
M  V30 3606 H 333.235 -0.143032 3.14074 0
M  V30 3607 N 337.007 -0.598083 1.45811 0
M  V30 3608 C 338.256 -1.35295 1.49594 0
M  V30 3609 C 338.569 -1.95057 0.145679 0
M  V30 3610 O 339.775 -2.71431 0.0612099 0
M  V30 3611 C 338.231 -2.45124 2.63519 0
M  V30 3612 C 337.839 -1.91732 4.04899 0
M  V30 3613 C 339.583 -3.2205 2.76558 0
M  V30 3614 C 337.49 -2.991 5.1019 0
M  V30 3615 H 336.42 -0.508552 0.556679 0
M  V30 3616 H 339.071 -0.639977 1.71978 0
M  V30 3617 H 337.453 -3.19149 2.34435 0
M  V30 3618 H 338.627 -1.24352 4.43704 0
M  V30 3619 H 336.942 -1.27522 3.96393 0
M  V30 3620 H 339.539 -4.0215 3.52391 0
M  V30 3621 H 339.882 -3.73663 1.83526 0
M  V30 3622 H 340.415 -2.55127 3.05213 0
M  V30 3623 H 337.154 -2.52393 6.04961 0
M  V30 3624 H 336.674 -3.65017 4.75944 0
M  V30 3625 H 338.353 -3.63318 5.35359 0
M  V30 3626 N 338.485 -1.33259 -0.841409 0
M  V30 3627 C 339.417 -1.19136 -1.95804 0
M  V30 3628 C 340.43 -0.122965 -1.62335 0
M  V30 3629 O 341.619 -0.373154 -1.74556 0
M  V30 3630 C 338.719 -0.804268 -3.29218 0
M  V30 3631 C 337.892 -1.96376 -3.90839 0
M  V30 3632 C 336.951 -1.55806 -5.02604 0
M  V30 3633 O 335.977 -2.27203 -5.21888 0
M  V30 3634 N 337.179 -0.461609 -5.78662 0
M  V30 3635 H 339.944 -2.15326 -2.08458 0
M  V30 3636 H 337.505 -1.25971 -1.017 0
M  V30 3637 H 339.497 -0.51501 -4.0141 0
M  V30 3638 H 338.067 0.0668809 -3.12528 0
M  V30 3639 H 337.287 -2.41879 -3.11269 0
M  V30 3640 H 338.575 -2.73966 -4.28742 0
M  V30 3641 H 337.973 0.132343 -5.65545 0
M  V30 3642 H 336.53 -0.232013 -6.51387 0
M  V30 3643 N 339.963 1.05934 -1.16686 0
M  V30 3644 C 340.913 2.11764 -0.844978 0
M  V30 3645 C 341.897 1.59922 0.177178 0
M  V30 3646 O 343.089 1.76983 -0.0241768 0
M  V30 3647 C 340.218 3.41493 -0.351812 0
M  V30 3648 C 339.304 4.00152 -1.40496 0
M  V30 3649 N 339.695 4.32874 -2.61636 0
M  V30 3650 C 337.993 4.278 -1.26106 0
M  V30 3651 C 338.694 4.79552 -3.29249 0
M  V30 3652 N 337.67 4.79211 -2.56628 0
M  V30 3653 H 341.472 2.34916 -1.76612 0
M  V30 3654 H 338.986 1.23511 -1.05446 0
M  V30 3655 H 340.983 4.16773 -0.102796 0
M  V30 3656 H 339.643 3.19778 0.56322 0
M  V30 3657 H 340.654 4.23109 -2.98663 0
M  V30 3658 H 337.331 4.15511 -0.407081 0
M  V30 3659 H 338.721 5.14045 -4.32675 0
M  V30 3660 N 341.441 0.965919 1.2453 0
M  V30 3661 C 342.681 0.634656 1.94297 0
M  V30 3662 C 343.045 -0.814822 1.73852 0
M  V30 3663 O 344.246 -1.25622 2.3764 0
M  V30 3664 C 342.517 0.99702 3.43212 0
M  V30 3665 S 344.076 0.780038 4.31811 0
M  V30 3666 H 340.894 0.232893 0.671775 0
M  V30 3667 H 343.496 1.24249 1.50938 0
M  V30 3668 H 342.2 2.04886 3.55598 0
M  V30 3669 H 341.731 0.379888 3.91562 0
M  V30 3670 H 343.746 -0.343512 4.9501 0
M  V30 3671 N 342.919 -1.39368 0.735821 0
M  V30 3672 C 343.866 -2.30599 0.0963825 0
M  V30 3673 C 344.836 -1.49257 -0.728794 0
M  V30 3674 O 346.021 -1.77941 -0.688588 0
M  V30 3675 C 343.161 -3.35596 -0.804305 0
M  V30 3676 C 342.274 -4.31987 0.0335761 0
M  V30 3677 C 341.409 -5.24053 -0.868461 0
M  V30 3678 C 340.448 -6.12095 -0.0258776 0
M  V30 3679 N 339.585 -6.96514 -0.883893 0
M  V30 3680 H 344.425 -2.8471 0.880002 0
M  V30 3681 H 341.962 -1.40188 0.445619 0
M  V30 3682 H 343.92 -3.95062 -1.34096 0
M  V30 3683 H 342.55 -2.82938 -1.55389 0
M  V30 3684 H 341.602 -3.74133 0.68766 0
M  V30 3685 H 342.914 -4.94074 0.685036 0
M  V30 3686 H 342.068 -5.88549 -1.47293 0
M  V30 3687 H 340.807 -4.62289 -1.5537 0
M  V30 3688 H 339.812 -5.4661 0.591386 0
M  V30 3689 H 341.037 -6.75923 0.656156 0
M  V30 3690 H 338.983 -6.37318 -1.55441 0
M  V30 3691 H 338.9 -7.55448 -0.288931 0
M  V30 3692 H 340.168 -7.65439 -1.4739 0
M  V30 3693 N 344.397 -0.483516 -1.5 0
M  V30 3694 C 345.344 0.304164 -2.28787 0
M  V30 3695 C 346.314 0.976114 -1.34392 0
M  V30 3696 O 347.499 0.986156 -1.63339 0
M  V30 3697 C 344.639 1.37298 -3.16612 0
M  V30 3698 C 343.752 0.714561 -4.26049 0
M  V30 3699 C 342.887 1.76232 -5.01114 0
M  V30 3700 C 341.926 1.08483 -6.0241 0
M  V30 3701 N 341.063 2.076 -6.70706 0
M  V30 3702 H 345.903 -0.373981 -2.95644 0
M  V30 3703 H 343.44 -0.196275 -1.45785 0
M  V30 3704 H 345.398 2.00445 -3.65893 0
M  V30 3705 H 344.028 2.02012 -2.51776 0
M  V30 3706 H 343.08 -0.0297798 -3.80388 0
M  V30 3707 H 344.392 0.180383 -4.98474 0
M  V30 3708 H 343.546 2.46929 -5.54176 0
M  V30 3709 H 342.285 2.33033 -4.28424 0
M  V30 3710 H 341.29 0.363545 -5.48597 0
M  V30 3711 H 342.515 0.523551 -6.77079 0
M  V30 3712 H 340.461 2.63394 -6.00799 0
M  V30 3713 H 340.378 1.59201 -7.39047 0
M  V30 3714 H 341.646 2.77639 -7.2838 0
M  V30 3715 N 345.875 1.56104 -0.216619 0
M  V30 3716 C 346.805 2.23063 0.690296 0
M  V30 3717 C 347.786 1.20072 1.20485 0
M  V30 3718 O 348.971 1.48643 1.24976 0
M  V30 3719 C 346.101 2.90672 1.90072 0
M  V30 3720 C 345.055 4.00092 1.5202 0
M  V30 3721 C 344.381 4.54972 2.80899 0
M  V30 3722 C 345.681 5.17398 0.71391 0
M  V30 3723 H 347.375 2.99109 0.132038 0
M  V30 3724 H 344.921 1.43866 0.0620664 0
M  V30 3725 H 346.874 3.36204 2.54057 0
M  V30 3726 H 345.598 2.12066 2.48386 0
M  V30 3727 H 344.257 3.55283 0.903839 0
M  V30 3728 H 343.905 3.73102 3.37348 0
M  V30 3729 H 343.605 5.28817 2.56176 0
M  V30 3730 H 345.129 5.0322 3.45836 0
M  V30 3731 H 346.543 5.59342 1.25735 0
M  V30 3732 H 344.94 5.97444 0.563951 0
M  V30 3733 H 346.01 4.84088 -0.280527 0
M  V30 3734 N 347.353 -0.0568162 1.57498 0
M  V30 3735 C 348.578 -0.769402 1.92601 0
M  V30 3736 C 349.003 -1.69559 0.814336 0
M  V30 3737 O 348.361 -1.79811 -0.231903 0
M  V30 3738 C 348.409 -1.52634 3.26704 0
M  V30 3739 O 347.513 -2.63797 3.16994 0
M  V30 3740 H 346.854 -0.208909 0.63028 0
M  V30 3741 H 349.384 -0.0205798 2.0459 0
M  V30 3742 H 349.394 -1.90234 3.60936 0
M  V30 3743 H 348.069 -0.846875 4.07186 0
M  V30 3744 H 346.646 -2.28943 2.94346 0
M  V30 3745 N 348.832 -1.54138 -0.328536 0
M  V30 3746 C 350.057 -1.76378 -1.09112 0
M  V30 3747 C 350.482 -0.508596 -1.81094 0
M  V30 3748 O 349.84 0.539598 -1.73084 0
M  V30 3749 C 349.888 -2.95358 -2.06872 0
M  V30 3750 O 348.992 -2.66556 -3.14677 0
M  V30 3751 H 348.333 -0.584614 -0.314838 0
M  V30 3752 H 350.863 -2.01146 -0.374348 0
M  V30 3753 H 350.873 -3.22566 -2.4983 0
M  V30 3754 H 349.548 -3.86385 -1.5388 0
M  V30 3755 H 348.125 -2.50282 -2.7643 0
M  V30 3756 N 350.31 0.590341 -1.46126 0
M  V30 3757 C 351.556 1.34874 -1.52252 0
M  V30 3758 C 351.911 1.91658 -0.168807 0
M  V30 3759 O 351.204 1.73093 0.821556 0
M  V30 3760 C 351.398 2.5032 -2.55097 0
M  V30 3761 C 351.227 2.04843 -4.00337 0
M  V30 3762 C 349.997 1.90213 -4.68132 0
M  V30 3763 C 352.195 1.61267 -4.88362 0
M  V30 3764 N 350.177 1.38727 -5.9802 0
M  V30 3765 C 351.548 1.21319 -6.08015 0
M  V30 3766 C 353.603 1.49015 -4.75078 0
M  V30 3767 C 352.306 0.7034 -7.15852 0
M  V30 3768 C 354.332 0.994401 -5.8298 0
M  V30 3769 C 353.694 0.604659 -7.018 0
M  V30 3770 H 349.793 0.486803 -0.612002 0
M  V30 3771 H 352.377 0.673007 -1.82698 0
M  V30 3772 H 350.548 3.15466 -2.26574 0
M  V30 3773 H 352.28 3.1725 -2.51266 0
M  V30 3774 H 349.035 2.11927 -4.23537 0
M  V30 3775 H 349.459 1.15168 -6.67132 0
M  V30 3776 H 354.101 1.77768 -3.83612 0
M  V30 3777 H 351.819 0.403446 -8.07092 0
M  V30 3778 H 355.405 0.903621 -5.7474 0
M  V30 3779 H 354.285 0.226963 -7.83871 0
M  V30 3780 N 351.788 1.33704 0.83433 0
M  V30 3781 C 353.034 1.25603 1.59222 0
M  V30 3782 C 353.367 -0.176659 1.93395 0
M  V30 3783 O 352.642 -1.11915 1.59076 0
M  V30 3784 C 352.925 2.13576 2.89926 0
M  V30 3785 C 352.778 3.65326 2.62406 0
M  V30 3786 C 354.097 2.01238 3.91397 0
M  V30 3787 H 351.216 0.457613 0.577719 0
M  V30 3788 H 353.858 1.63848 0.961972 0
M  V30 3789 H 352.008 1.8109 3.43713 0
M  V30 3790 H 353.68 4.08124 2.15017 0
M  V30 3791 H 351.923 3.8698 1.96033 0
M  V30 3792 H 352.594 4.22232 3.55562 0
M  V30 3793 H 355.07 2.29738 3.46929 0
M  V30 3794 H 353.946 2.65036 4.80673 0
M  V30 3795 H 354.207 0.985951 4.30966 0
M  V30 3796 N 353.266 -1.05314 1.17247 0
M  V30 3797 C 354.196 -2.1498 0.911362 0
M  V30 3798 C 355.177 -1.69471 -0.146169 0
M  V30 3799 O 356.362 -1.942 0.003812 0
M  V30 3800 C 353.492 -3.4472 0.422528 0
M  V30 3801 C 352.446 -4.03789 1.4191 0
M  V30 3802 C 351.772 -5.28858 0.788274 0
M  V30 3803 C 353.072 -4.41418 2.7919 0
M  V30 3804 H 354.766 -2.3708 1.82848 0
M  V30 3805 H 352.312 -1.13938 0.880569 0
M  V30 3806 H 354.265 -4.20787 0.227289 0
M  V30 3807 H 352.989 -3.22269 -0.530123 0
M  V30 3808 H 351.648 -3.2979 1.60106 0
M  V30 3809 H 351.296 -5.02709 -0.171173 0
M  V30 3810 H 350.996 -5.69338 1.45353 0
M  V30 3811 H 352.52 -6.07612 0.603282 0
M  V30 3812 H 353.934 -5.08524 2.64719 0
M  V30 3813 H 352.331 -4.92913 3.42282 0
M  V30 3814 H 353.401 -3.51819 3.33693 0
M  V30 3815 N 354.744 -0.972509 -1.24016 0
M  V30 3816 C 355.674 -0.525548 -2.27509 0
M  V30 3817 C 356.655 0.437262 -1.64384 0
M  V30 3818 O 357.84 0.332343 -1.91335 0
M  V30 3819 C 354.97 0.180448 -3.46831 0
M  V30 3820 C 353.924 -0.698859 -4.22256 0
M  V30 3821 C 353.25 0.138903 -5.3452 0
M  V30 3822 C 354.55 -1.98582 -4.83076 0
M  V30 3823 H 356.244 -1.39058 -2.65148 0
M  V30 3824 H 353.79 -0.67009 -1.27459 0
M  V30 3825 H 355.743 0.504387 -4.18371 0
M  V30 3826 H 354.467 1.07987 -3.08231 0
M  V30 3827 H 353.126 -1.00614 -3.52523 0
M  V30 3828 H 352.774 1.03862 -4.9216 0
M  V30 3829 H 352.474 -0.446259 -5.85903 0
M  V30 3830 H 353.998 0.457404 -6.08884 0
M  V30 3831 H 355.412 -1.72715 -5.46665 0
M  V30 3832 H 353.809 -2.5181 -5.44713 0
M  V30 3833 H 354.879 -2.67769 -4.04262 0
M  V30 3834 N 356.222 1.38976 -0.743202 0
M  V30 3835 C 357.155 2.28128 -0.0572165 0
M  V30 3836 C 358.133 1.44827 0.739182 0
M  V30 3837 O 359.317 1.74207 0.720009 0
M  V30 3838 C 356.444 3.25796 0.926001 0
M  V30 3839 C 355.49 4.25947 0.217099 0
M  V30 3840 S 356.323 5.24604 -1.07477 0
M  V30 3841 C 357.479 6.25829 -0.0943545 0
M  V30 3842 H 357.712 2.85961 -0.813246 0
M  V30 3843 H 355.245 1.44822 -0.535341 0
M  V30 3844 H 357.203 3.82583 1.48797 0
M  V30 3845 H 355.864 2.66966 1.65493 0
M  V30 3846 H 355.057 4.94746 0.961372 0
M  V30 3847 H 354.659 3.73002 -0.273059 0
M  V30 3848 H 356.951 6.73411 0.743239 0
M  V30 3849 H 357.894 7.0412 -0.749713 0
M  V30 3850 H 358.302 5.63797 0.281706 0
M  V30 3851 N 357.7 0.491464 1.49741 0
M  V30 3852 C 358.647 -0.292027 2.28945 0
M  V30 3853 C 359.617 -0.968973 1.34908 0
M  V30 3854 O 360.802 -0.97748 1.6386 0
M  V30 3855 C 357.942 -1.35617 3.17336 0
M  V30 3856 C 357.055 -0.691957 4.26422 0
M  V30 3857 C 356.19 -1.73572 5.02042 0
M  V30 3858 C 355.229 -1.05286 6.02977 0
M  V30 3859 N 354.366 -2.0404 6.71798 0
M  V30 3860 H 359.206 0.389654 2.95442 0
M  V30 3861 H 356.743 0.204003 1.45679 0
M  V30 3862 H 358.701 -1.98502 3.66951 0
M  V30 3863 H 357.331 -2.00674 2.52844 0
M  V30 3864 H 356.383 0.0499523 3.80367 0
M  V30 3865 H 357.695 -0.153946 4.98562 0
M  V30 3866 H 356.849 -2.43987 5.55478 0
M  V30 3867 H 355.588 -2.30757 4.29654 0
M  V30 3868 H 354.593 -0.334446 5.48782 0
M  V30 3869 H 355.818 -0.487636 6.77347 0
M  V30 3870 H 353.764 -2.60205 6.02187 0
M  V30 3871 H 353.681 -1.55279 7.39881 0
M  V30 3872 H 354.949 -2.73772 7.29842 0
M  V30 3873 N 359.178 -1.55987 0.224894 0
M  V30 3874 C 360.408 -2.02489 -0.41007 0
M  V30 3875 C 360.816 -1.10391 -1.53657 0
M  V30 3876 O 360.159 -0.106458 -1.83391 0
M  V30 3877 C 360.221 -3.45319 -0.999757 0
M  V30 3878 C 359.885 -4.56999 -0.00827976 0
M  V30 3879 C 360.882 -5.13812 0.793314 0
M  V30 3880 C 358.567 -5.02176 0.111442 0
M  V30 3881 C 360.561 -6.14276 1.7013 0
M  V30 3882 C 358.248 -6.02477 1.02296 0
M  V30 3883 C 359.246 -6.58403 1.81643 0
M  V30 3884 O 358.934 -7.56751 2.71262 0
M  V30 3885 H 358.666 -0.667915 -0.104235 0
M  V30 3886 H 361.22 -2.0257 0.339782 0
M  V30 3887 H 359.45 -3.42318 -1.79876 0
M  V30 3888 H 361.139 -3.7545 -1.54248 0
M  V30 3889 H 361.905 -4.79756 0.711288 0
M  V30 3890 H 357.784 -4.58323 -0.49605 0
M  V30 3891 H 361.328 -6.57854 2.32107 0
M  V30 3892 H 357.225 -6.35954 1.10599 0
M  V30 3893 H 357.993 -7.74286 2.65375 0
M  V30 3894 N 360.656 0.0484629 -1.57525 0
M  V30 3895 C 361.586 1.0549 -2.08313 0
M  V30 3896 C 362.567 1.38929 -0.981463 0
M  V30 3897 O 363.752 1.48151 -1.25558 0
M  V30 3898 C 360.882 2.36162 -2.54646 0
M  V30 3899 C 359.836 2.17016 -3.68901 0
M  V30 3900 C 359.162 3.53278 -4.01371 0
M  V30 3901 C 360.462 1.57219 -4.98076 0
M  V30 3902 H 362.156 0.632195 -2.92649 0
M  V30 3903 H 359.702 0.302654 -1.40784 0
M  V30 3904 H 361.655 3.06882 -2.88793 0
M  V30 3905 H 360.379 2.80456 -1.67368 0
M  V30 3906 H 359.038 1.48733 -3.35073 0
M  V30 3907 H 358.686 3.95185 -3.11188 0
M  V30 3908 H 358.386 3.41299 -4.78318 0
M  V30 3909 H 359.91 4.25391 -4.38035 0
M  V30 3910 H 361.324 2.17832 -5.30304 0
M  V30 3911 H 359.721 1.55871 -5.79503 0
M  V30 3912 H 360.791 0.535956 -4.81929 0
M  V30 3913 N 362.134 1.5431 0.320358 0
M  V30 3914 C 363.382 1.72327 1.05583 0
M  V30 3915 C 363.703 0.50149 1.88441 0
M  V30 3916 O 362.973 -0.48448 1.89815 0
M  V30 3917 H 361.553 0.635387 0.3928 0
M  V30 3918 H 364.215 1.91621 0.356019 0
M  V30 3919 H 363.311 2.60426 1.72003 0
M  V30 3920 N 363.613 -0.582584 1.46437 0
M  V30 3921 C 364.561 -1.71272 1.5738 0
M  V30 3922 C 365.555 -1.63524 0.44229 0
M  V30 3923 O 366.761 -1.69016 0.619166 0
M  V30 3924 H 363.136 -0.566273 0.494813 0
M  V30 3925 H 365.107 -1.59174 2.52401 0
M  V30 3926 C 363.856 -3.09658 1.58136 0
M  V30 3927 H 363.179 -3.16291 2.44541 0
M  V30 3928 H 364.619 -3.88494 1.69847 0
M  V30 3929 C 363.078 -3.3547 0.310026 0
M  V30 3930 O 363.608 -3.97199 -0.599683 0
M  V30 3931 N 361.814 -2.89925 0.197901 0
M  V30 3932 H 361.361 -2.39873 0.93909 0
M  V30 3933 H 361.319 -3.07568 -0.65185 0
M  V30 3934 N 365.091 -1.34144 -0.827227 0
M  V30 3935 C 366.054 -1.25264 -1.91942 0
M  V30 3936 C 367.054 -0.168866 -1.59911 0
M  V30 3937 O 368.244 -0.421198 -1.69031 0
M  V30 3938 C 365.376 -0.932952 -3.27885 0
M  V30 3939 H 366.569 -2.22357 -2.0124 0
M  V30 3940 H 364.122 -1.1837 -1.0207 0
M  V30 3941 H 364.857 0.0349917 -3.24281 0
M  V30 3942 H 364.642 -1.71682 -3.52516 0
M  V30 3943 H 366.132 -0.895874 -4.07877 0
M  V30 3944 N 366.569 1.04691 -1.17803 0
M  V30 3945 C 367.797 1.81446 -0.99423 0
M  V30 3946 C 368.212 1.83174 0.457459 0
M  V30 3947 O 367.569 1.26265 1.31771 0
M  V30 3948 C 367.62 3.27334 -1.5341 0
M  V30 3949 O 367.341 3.25798 -2.92895 0
M  V30 3950 C 368.842 4.20759 -1.39559 0
M  V30 3951 H 366.062 0.571599 -0.351447 0
M  V30 3952 H 368.606 1.31982 -1.56208 0
M  V30 3953 H 366.761 3.74052 -1.00815 0
M  V30 3954 H 367.175 4.17144 -3.17949 0
M  V30 3955 H 368.649 5.21084 -1.82141 0
M  V30 3956 H 369.126 4.37856 -0.343394 0
M  V30 3957 H 369.732 3.79901 -1.91195 0
M  V30 3958 N 368.047 0.979072 1.23499 0
M  V30 3959 C 369.01 0.523244 2.23147 0
M  V30 3960 C 370.01 -0.386406 1.56088 0
M  V30 3961 O 371.2 -0.180283 1.73265 0
M  V30 3962 C 368.332 -0.240739 3.40049 0
M  V30 3963 H 369.525 1.40432 2.64989 0
M  V30 3964 H 367.078 0.764824 1.36309 0
M  V30 3965 H 367.813 -1.13841 3.03662 0
M  V30 3966 H 367.598 0.412207 3.89927 0
M  V30 3967 H 369.088 -0.548297 4.13985 0
M  V30 3968 N 369.525 -1.3858 0.750561 0
M  V30 3969 C 370.774 -1.99424 0.302172 0
M  V30 3970 C 371.087 -1.60254 -1.12152 0
M  V30 3971 O 372.293 -2.14046 -1.67023 0
M  V30 3972 C 370.749 -3.56558 0.489307 0
M  V30 3973 C 370.357 -4.04682 1.92189 0
M  V30 3974 C 372.101 -4.24374 0.103478 0
M  V30 3975 C 370.008 -5.54446 2.05775 0
M  V30 3976 H 368.938 -0.746046 0.10923 0
M  V30 3977 H 371.589 -1.58383 0.92667 0
M  V30 3978 H 369.971 -3.95472 -0.204329 0
M  V30 3979 H 371.145 -3.77065 2.64875 0
M  V30 3980 H 369.46 -3.4958 2.26236 0
M  V30 3981 H 372.057 -5.34384 0.183787 0
M  V30 3982 H 372.4 -4.05468 -0.943481 0
M  V30 3983 H 372.933 -3.90688 0.748854 0
M  V30 3984 H 369.672 -5.78252 3.08714 0
M  V30 3985 H 369.192 -5.83816 1.37546 0
M  V30 3986 H 370.871 -6.20099 1.84626 0
M  V30 3987 N 371.003 -0.499398 -1.49478 0
M  V30 3988 C 372.25 0.0456899 -2.02448 0
M  V30 3989 C 372.578 1.37142 -1.37921 0
M  V30 3990 O 371.833 1.89111 -0.503544 0
M  V30 3991 C 372.132 0.248424 -3.56536 0
M  V30 3992 C 371.798 -0.999107 -4.39692 0
M  V30 3993 C 370.46 -1.34108 -4.62135 0
M  V30 3994 C 372.812 -1.82842 -4.88076 0
M  V30 3995 C 370.14 -2.51191 -5.30208 0
M  V30 3996 C 372.492 -2.99076 -5.57437 0
M  V30 3997 C 371.156 -3.33655 -5.78127 0
M  V30 3998 H 370.426 0.0167191 -0.740811 0
M  V30 3999 H 373.073 -0.65923 -1.79795 0
M  V30 4000 H 371.378 1.03586 -3.77859 0
M  V30 4001 H 373.075 0.684605 -3.95113 0
M  V30 4002 H 369.665 -0.722729 -4.22463 0
M  V30 4003 H 373.849 -1.57737 -4.70566 0
M  V30 4004 H 369.105 -2.78221 -5.44429 0
M  V30 4005 H 373.279 -3.63664 -5.93904 0
M  V30 4006 H 370.906 -4.24483 -6.30649 0
M  V30 4007 N 372.481 1.55866 -0.233164 0
M  V30 4008 C 373.728 1.98603 0.395374 0
M  V30 4009 C 374.056 1.12105 1.58942 0
M  V30 4010 O 373.311 0.168656 1.94972 0
M  V30 4011 C 373.61 3.46856 0.861724 0
M  V30 4012 C 373.276 4.50348 -0.223066 0
M  V30 4013 C 371.938 4.78371 -0.521038 0
M  V30 4014 C 374.29 5.12355 -0.956124 0
M  V30 4015 C 371.618 5.6568 -1.55638 0
M  V30 4016 C 373.97 6.00786 -1.98089 0
M  V30 4017 C 372.634 6.27148 -2.28565 0
M  V30 4018 H 371.904 0.726739 0.144677 0
M  V30 4019 H 374.551 1.88491 -0.338114 0
M  V30 4020 H 372.856 3.5423 1.67418 0
M  V30 4021 H 374.553 3.77302 1.35809 0
M  V30 4022 H 371.143 4.28596 0.0193234 0
M  V30 4023 H 375.327 4.90765 -0.739166 0
M  V30 4024 H 370.583 5.84365 -1.798 0
M  V30 4025 H 374.757 6.4788 -2.55391 0
M  V30 4026 H 372.384 6.94597 -3.08932 0
M  V30 4027 N 373.959 -0.0401083 1.57549 0
M  V30 4028 C 374.889 -1.04384 2.08869 0
M  V30 4029 C 375.87 -1.38407 0.988817 0
M  V30 4030 O 377.055 -1.47483 1.26342 0
M  V30 4031 C 374.185 -2.34808 2.55895 0
M  V30 4032 C 373.139 -2.15057 3.70047 0
M  V30 4033 C 372.465 -3.51145 4.03239 0
M  V30 4034 C 373.765 -1.54576 4.98902 0
M  V30 4035 H 375.459 -0.616666 2.92981 0
M  V30 4036 H 373.005 -0.295184 1.40942 0
M  V30 4037 H 374.958 -3.05346 2.90417 0
M  V30 4038 H 373.682 -2.79565 1.68853 0
M  V30 4039 H 372.341 -1.46954 3.35857 0
M  V30 4040 H 371.989 -3.93529 3.13279 0
M  V30 4041 H 371.689 -3.38758 4.80122 0
M  V30 4042 H 373.213 -4.23062 4.40285 0
M  V30 4043 H 374.627 -2.15017 5.31451 0
M  V30 4044 H 373.024 -1.52796 5.80322 0
M  V30 4045 H 374.094 -0.51039 4.82206 0
M  V30 4046 N 375.437 -1.54477 -0.31217 0
M  V30 4047 C 376.848 -1.64344 -0.885891 0
M  V30 4048 C 377.199 -0.54485 -1.88483 0
M  V30 4049 O 376.324 0.320387 -2.14015 0
M  V30 4050 C 376.919 -2.97908 -1.61357 0
M  V30 4051 C 375.478 -3.09933 -2.13585 0
M  V30 4052 C 374.625 -2.59971 -0.964897 0
M  V30 4053 H 377.576 -1.58448 -0.0894528 0
M  V30 4054 H 377.597 -2.88706 -2.47848 0
M  V30 4055 H 377.109 -3.77845 -0.886277 0
M  V30 4056 H 375.21 -2.34694 -2.89395 0
M  V30 4057 H 375.323 -4.15916 -2.37804 0
M  V30 4058 H 373.687 -2.16147 -1.34731 0
M  V30 4059 H 374.47 -3.42376 -0.251742 0
M  V30 4060 N 376.915 0.57481 -1.46744 0
M  V30 4061 C 378.192 1.3352 -1.4294 0
M  V30 4062 C 378.572 2.10775 -0.117009 0
M  V30 4063 O 377.92 2.09966 0.901474 0
M  V30 4064 C 378.13 2.25456 -2.66403 0
M  V30 4065 C 379.478 2.87035 -3.12883 0
M  V30 4066 O 380.502 2.35766 -2.67007 0
M  V30 4067 O 379.361 3.80179 -3.92589 0
M  V30 4068 H 376.455 0.600318 -0.568812 0
M  V30 4069 H 379.001 0.595171 -1.58921 0
M  V30 4070 H 377.773 1.67851 -3.53471 0
M  V30 4071 H 377.396 3.06785 -2.52921 0
M  V30 4072 N 378.394 1.34581 0.820102 0
M  V30 4073 C 379.304 1.28471 1.96297 0
M  V30 4074 C 380.32 0.191902 1.72939 0
M  V30 4075 O 381.496 0.418879 1.96996 0
M  V30 4076 C 378.561 1.04281 3.30645 0
M  V30 4077 C 377.622 2.22745 3.66992 0
M  V30 4078 C 376.855 1.997 4.9493 0
M  V30 4079 O 377.078 0.956656 5.6232 0
M  V30 4080 O 376.012 2.86723 5.2922 0
M  V30 4081 H 379.838 2.24624 2.04396 0
M  V30 4082 H 377.423 1.14816 0.955913 0
M  V30 4083 H 379.305 0.925841 4.11104 0
M  V30 4084 H 377.98 0.111697 3.23507 0
M  V30 4085 H 376.887 2.40003 2.86966 0
M  V30 4086 H 378.22 3.14257 3.78819 0
M  V30 4087 N 379.872 -1.04064 1.18357 0
M  V30 4088 C 381.12 -1.76915 0.977013 0
M  V30 4089 C 381.441 -1.88624 -0.494577 0
M  V30 4090 O 380.711 -1.41125 -1.3587 0
M  V30 4091 H 379.291 -0.65535 0.358504 0
M  V30 4092 H 381.953 -1.25592 1.49039 0
M  V30 4093 H 381.049 -2.78178 1.41504 0
M  V30 4094 N 381.35 -0.985608 -1.22978 0
M  V30 4095 C 382.297 -0.529825 -2.24636 0
M  V30 4096 C 383.267 0.434028 -1.60329 0
M  V30 4097 O 384.452 0.340414 -1.87739 0
M  V30 4098 C 381.592 0.156533 -3.44745 0
M  V30 4099 C 380.705 -0.848197 -4.23591 0
M  V30 4100 C 379.84 -0.136109 -5.31026 0
M  V30 4101 C 378.879 -1.1297 -6.01585 0
M  V30 4102 N 378.016 -0.446415 -7.00679 0
M  V30 4103 H 382.856 -1.40148 -2.62988 0
M  V30 4104 H 380.393 -0.702168 -1.29259 0
M  V30 4105 H 382.351 0.571324 -4.1327 0
M  V30 4106 H 380.981 0.992025 -3.07179 0
M  V30 4107 H 380.033 -1.38135 -3.54433 0
M  V30 4108 H 381.345 -1.60512 -4.72268 0
M  V30 4109 H 380.499 0.335784 -6.0577 0
M  V30 4110 H 379.238 0.653373 -4.83304 0
M  V30 4111 H 378.243 -1.6123 -5.25628 0
M  V30 4112 H 379.468 -1.91993 -6.51395 0
M  V30 4113 H 377.414 0.323763 -6.55201 0
M  V30 4114 H 377.331 -1.1419 -7.47326 0
M  V30 4115 H 378.599 0.00291697 -7.795 0
M  V30 4116 N 382.828 1.3818 -0.7579 0
M  V30 4117 C 383.758 2.33027 -0.148597 0
M  V30 4118 C 384.739 1.55085 0.69875 0
M  V30 4119 O 385.924 1.83384 0.639053 0
M  V30 4120 C 383.054 3.3928 0.742034 0
M  V30 4121 C 382.008 4.28 -0.00291946 0
M  V30 4122 C 381.334 5.25146 1.00625 0
M  V30 4123 C 382.634 5.08938 -1.17385 0
M  V30 4124 H 384.328 2.84231 -0.940909 0
M  V30 4125 H 381.874 1.36659 -0.453908 0
M  V30 4126 H 383.827 4.046 1.17799 0
M  V30 4127 H 382.551 2.86569 1.56671 0
M  V30 4128 H 381.21 3.64192 -0.419504 0
M  V30 4129 H 380.858 4.68721 1.8251 0
M  V30 4130 H 380.558 5.85361 0.512428 0
M  V30 4131 H 382.082 5.93342 1.44143 0
M  V30 4132 H 383.496 5.67474 -0.815224 0
M  V30 4133 H 381.893 5.7841 -1.59882 0
M  V30 4134 H 382.963 4.42424 -1.98468 0
M  V30 4135 N 384.306 0.507319 1.49211 0
M  V30 4136 C 385.238 -0.304532 2.27168 0
M  V30 4137 C 386.251 -0.924956 1.33972 0
M  V30 4138 O 387.44 -0.807227 1.59205 0
M  V30 4139 C 384.54 -1.44431 3.06583 0
M  V30 4140 C 383.713 -0.930026 4.27398 0
M  V30 4141 C 382.772 -1.94817 4.88807 0
M  V30 4142 O 381.798 -1.51418 5.4869 0
M  V30 4143 N 383 -3.279 4.79022 0
M  V30 4144 H 385.765 0.36395 2.97482 0
M  V30 4145 H 383.326 0.340249 1.58284 0
M  V30 4146 H 385.318 -2.12311 3.44537 0
M  V30 4147 H 383.888 -2.01684 2.38835 0
M  V30 4148 H 383.108 -0.0759244 3.94127 0
M  V30 4149 H 384.396 -0.564932 5.05654 0
M  V30 4150 H 383.794 -3.65843 4.3148 0
M  V30 4151 H 382.351 -3.91476 5.21142 0
M  V30 4152 N 385.784 -1.5574 0.241426 0
M  V30 4153 C 386.734 -2.17803 -0.674233 0
M  V30 4154 C 387.718 -1.13225 -1.14319 0
M  V30 4155 O 388.91 -1.39153 -1.09387 0
M  V30 4156 C 386.039 -2.87682 -1.87333 0
M  V30 4157 C 385.125 -3.99509 -1.42313 0
M  V30 4158 N 385.516 -5.01115 -0.686798 0
M  V30 4159 C 383.814 -4.11964 -1.70885 0
M  V30 4160 C 384.515 -5.79922 -0.454456 0
M  V30 4161 N 383.491 -5.34001 -1.01705 0
M  V30 4162 H 387.293 -2.93718 -0.103447 0
M  V30 4163 H 384.807 -1.62342 0.0435095 0
M  V30 4164 H 386.804 -3.3057 -2.54026 0
M  V30 4165 H 385.464 -2.13269 -2.4484 0
M  V30 4166 H 386.475 -5.16799 -0.337459 0
M  V30 4167 H 383.152 -3.48718 -2.2957 0
M  V30 4168 H 384.542 -6.71768 0.132992 0
M  V30 4169 N 387.262 0.0317525 -1.57568 0
M  V30 4170 C 388.192 1.03274 -2.0942 0
M  V30 4171 C 389.173 1.3788 -0.996143 0
M  V30 4172 O 390.358 1.46811 -1.27122 0
M  V30 4173 C 387.488 2.33448 -2.57137 0
M  V30 4174 C 386.442 2.13091 -3.71182 0
M  V30 4175 C 385.768 3.49001 -4.05095 0
M  V30 4176 C 387.068 1.51928 -4.99715 0
M  V30 4177 H 388.762 0.60112 -2.93303 0
M  V30 4178 H 386.308 0.287705 -1.41097 0
M  V30 4179 H 388.261 3.03802 -2.92032 0
M  V30 4180 H 386.985 2.78665 -1.70333 0
M  V30 4181 H 385.644 1.45171 -3.36632 0
M  V30 4182 H 385.292 3.91862 -3.15362 0
M  V30 4183 H 384.992 3.36207 -4.81911 0
M  V30 4184 H 386.516 4.20721 -4.42522 0
M  V30 4185 H 387.93 2.12196 -5.32584 0
M  V30 4186 H 386.327 1.49716 -5.81124 0
M  V30 4187 H 387.397 0.484811 -4.8247 0
M  V30 4188 N 388.74 1.54641 0.303973 0
M  V30 4189 C 389.65 1.88439 1.39743 0
M  V30 4190 C 390.666 0.778239 1.55626 0
M  V30 4191 O 391.842 1.07442 1.70347 0
M  V30 4192 C 388.907 2.12212 2.74166 0
M  V30 4193 C 387.968 3.35936 2.67293 0
M  V30 4194 C 387.201 3.58566 3.95305 0
M  V30 4195 O 387.424 2.84263 4.9452 0
M  V30 4196 O 386.358 4.52078 3.97378 0
M  V30 4197 H 390.184 2.81458 1.14083 0
M  V30 4198 H 387.769 1.40793 0.499768 0
M  V30 4199 H 389.651 2.29067 3.53704 0
M  V30 4200 H 388.326 1.22379 2.99675 0
M  V30 4201 H 387.233 3.24448 1.86237 0
M  V30 4202 H 388.566 4.2589 2.46736 0
M  V30 4203 N 390.218 -0.567019 1.47046 0
M  V30 4204 C 391.166 -1.69593 1.59188 0
M  V30 4205 C 392.16 -1.63046 0.459609 0
M  V30 4206 O 393.366 -1.6835 0.637058 0
M  V30 4207 H 389.741 -0.560993 0.500791 0
M  V30 4208 H 391.712 -1.56488 2.54075 0
M  V30 4209 C 390.461 -3.07964 1.61411 0
M  V30 4210 H 389.784 -3.13679 2.47881 0
M  V30 4211 H 391.224 -3.86671 1.73958 0
M  V30 4212 C 389.683 -3.35123 0.34559 0
M  V30 4213 O 390.213 -3.97812 -0.557521 0
M  V30 4214 N 388.419 -2.89699 0.22864 0
M  V30 4215 H 387.966 -2.38863 0.964479 0
M  V30 4216 H 387.924 -3.08242 -0.619192 0
M  V30 4217 N 391.696 -1.35014 -0.812953 0
M  V30 4218 C 392.606 -1.2951 -1.95613 0
M  V30 4219 C 393.622 -0.20107 -1.72834 0
M  V30 4220 O 394.798 -0.42932 -1.96771 0
M  V30 4221 C 391.863 -1.06033 -3.30088 0
M  V30 4222 C 390.924 -2.24688 -3.65805 0
M  V30 4223 C 390.157 -2.02322 -4.93864 0
M  V30 4224 O 390.38 -0.986464 -5.61805 0
M  V30 4225 O 389.314 -2.89525 -5.27692 0
M  V30 4226 H 393.14 -2.25705 -2.03202 0
M  V30 4227 H 390.725 -1.15321 -0.949811 0
M  V30 4228 H 392.607 -0.94763 -4.10607 0
M  V30 4229 H 391.282 -0.128852 -3.23443 0
M  V30 4230 H 390.189 -2.41521 -2.85689 0
M  V30 4231 H 391.522 -3.16261 -3.77147 0
M  V30 4232 N 393.175 1.03435 -1.18907 0
M  V30 4233 C 394.105 2.13503 -0.945448 0
M  V30 4234 C 395.086 1.69682 0.119189 0
M  V30 4235 O 396.271 1.94169 -0.034707 0
M  V30 4236 C 393.401 3.44004 -0.477316 0
M  V30 4237 C 392.355 4.0148 -1.48316 0
M  V30 4238 C 391.681 5.27537 -0.872311 0
M  V30 4239 C 392.981 4.36921 -2.86177 0
M  V30 4240 H 394.675 2.34141 -1.86597 0
M  V30 4241 H 392.221 1.12523 -0.898584 0
M  V30 4242 H 394.174 4.20372 -0.294204 0
M  V30 4243 H 392.898 3.23072 0.478786 0
M  V30 4244 H 391.557 3.27201 -1.65332 0
M  V30 4245 H 391.205 5.02917 0.0911752 0
M  V30 4246 H 390.905 5.66954 -1.54393 0
M  V30 4247 H 392.429 6.06576 -0.699871 0
M  V30 4248 H 393.843 5.04248 -2.72776 0
M  V30 4249 H 392.24 4.87405 -3.50081 0
M  V30 4250 H 393.31 3.46466 -3.39248 0
M  V30 4251 N 394.653 0.992116 1.22453 0
M  V30 4252 C 395.881 0.685944 1.95198 0
M  V30 4253 C 396.296 -0.749233 1.73297 0
M  V30 4254 O 395.653 -1.50549 1.03156 0
M  V30 4255 C 395.704 0.981395 3.47924 0
M  V30 4256 O 395.425 2.36018 3.6909 0
M  V30 4257 C 396.926 0.692815 4.37853 0
M  V30 4258 H 394.146 0.253821 0.621141 0
M  V30 4259 H 396.69 1.32668 1.55626 0
M  V30 4260 H 394.845 0.386481 3.85467 0
M  V30 4261 H 395.259 2.45884 4.63294 0
M  V30 4262 H 396.733 0.949818 5.43767 0
M  V30 4263 H 397.21 -0.373181 4.37612 0
M  V30 4264 H 397.816 1.26874 4.05935 0
M  V30 4265 N 396.131 -1.37776 0.765217 0
M  V30 4266 C 397.081 -2.2768 0.12075 0
M  V30 4267 C 398.065 -1.45778 -0.680988 0
M  V30 4268 O 399.257 -1.684 -0.545033 0
M  V30 4269 C 396.386 -3.34722 -0.762626 0
M  V30 4270 C 395.472 -4.24074 0.0465881 0
M  V30 4271 N 395.863 -4.93939 1.08892 0
M  V30 4272 C 394.161 -4.45643 -0.178418 0
M  V30 4273 C 394.862 -5.59845 1.57951 0
M  V30 4274 N 393.838 -5.36218 0.892797 0
M  V30 4275 H 397.64 -2.79166 0.918889 0
M  V30 4276 H 395.154 -1.50816 0.602353 0
M  V30 4277 H 397.151 -3.98031 -1.24005 0
M  V30 4278 H 395.811 -2.84793 -1.55959 0
M  V30 4279 H 396.822 -4.96572 1.47095 0
M  V30 4280 H 393.499 -4.06599 -0.9478 0
M  V30 4281 H 394.889 -6.25703 2.44838 0
M  V30 4282 N 397.609 -0.515225 -1.4894 0
M  V30 4283 C 398.886 0.0879088 -1.95402 0
M  V30 4284 C 399.266 1.52745 -1.45712 0
M  V30 4285 O 398.614 2.18238 -0.677093 0
M  V30 4286 C 398.824 -0.0141055 -3.48997 0
M  V30 4287 C 400.172 0.152646 -4.24326 0
M  V30 4288 O 401.196 0.0604025 -3.56149 0
M  V30 4289 O 400.055 0.34384 -5.45417 0
M  V30 4290 H 397.149 0.0874636 -0.822362 0
M  V30 4291 H 399.695 -0.578775 -1.59525 0
M  V30 4292 H 398.467 -1.01745 -3.77841 0
M  V30 4293 H 398.09 0.692091 -3.9153 0
M  V30 4294 N 399.087 1.5561 -0.249682 0
M  V30 4295 C 400.336 1.98187 0.37479 0
M  V30 4296 C 400.649 1.14111 1.58865 0
M  V30 4297 O 401.855 1.46714 2.28445 0
M  V30 4298 C 400.311 3.52661 0.718192 0
M  V30 4299 C 399.919 4.45481 -0.474428 0
M  V30 4300 C 401.663 4.03888 1.3067 0
M  V30 4301 C 399.57 5.91303 -0.107026 0
M  V30 4302 H 398.5 0.740159 0.143808 0
M  V30 4303 H 401.151 1.80125 -0.350336 0
M  V30 4304 H 399.533 3.66429 1.50152 0
M  V30 4305 H 400.707 4.43473 -1.25172 0
M  V30 4306 H 399.022 4.04751 -0.978052 0
M  V30 4307 H 401.619 5.10358 1.59496 0
M  V30 4308 H 401.962 3.51401 2.23211 0
M  V30 4309 H 402.495 3.93457 0.586211 0
M  V30 4310 H 399.234 6.47833 -0.999642 0
M  V30 4311 H 398.754 5.9644 0.634013 0
M  V30 4312 H 400.433 6.46258 0.309807 0
M  V30 4313 N 400.565 -0.0233959 1.57583 0
M  V30 4314 C 401.814 -0.712133 1.8871 0
M  V30 4315 C 402.127 -1.76217 0.848944 0
M  V30 4316 O 403.333 -2.50389 1.04964 0
M  V30 4317 C 401.789 -1.3177 3.3491 0
M  V30 4318 C 401.397 -0.303715 4.46969 0
M  V30 4319 C 403.141 -1.98598 3.75179 0
M  V30 4320 C 401.048 -0.917945 5.84233 0
M  V30 4321 H 399.978 -0.269735 0.704101 0
M  V30 4322 H 402.629 0.0333114 1.8347 0
M  V30 4323 H 401.011 -2.11304 3.34913 0
M  V30 4324 H 402.185 0.465325 4.58445 0
M  V30 4325 H 400.5 0.2628 4.1557 0
M  V30 4326 H 403.097 -2.45416 4.75053 0
M  V30 4327 H 403.44 -2.80659 3.07468 0
M  V30 4328 H 403.973 -1.25831 3.77374 0
M  V30 4329 H 400.712 -0.136633 6.55358 0
M  V30 4330 H 400.232 -1.65669 5.76467 0
M  V30 4331 H 401.911 -1.4236 6.31144 0
M  V30 4332 N 402.043 -1.548 -0.295768 0
M  V30 4333 C 403.271 -1.78327 -1.04914 0
M  V30 4334 C 403.686 -0.545316 -1.80753 0
M  V30 4335 O 403.043 0.485013 -1.75937 0
M  V30 4336 C 403.094 -2.99418 -2.02561 0
M  V30 4337 O 402.815 -4.18431 -1.29798 0
M  V30 4338 C 404.316 -3.35375 -2.89895 0
M  V30 4339 H 401.536 -0.594618 -0.310918 0
M  V30 4340 H 404.08 -2.01763 -0.333454 0
M  V30 4341 H 402.235 -2.78175 -2.69624 0
M  V30 4342 H 402.649 -4.86736 -1.95419 0
M  V30 4343 H 404.123 -4.23332 -3.54251 0
M  V30 4344 H 404.6 -2.53761 -3.58472 0
M  V30 4345 H 405.206 -3.58796 -2.28355 0
M  V30 4346 N 403.521 0.559213 -1.47345 0
M  V30 4347 C 404.468 1.66645 -1.59682 0
M  V30 4348 C 405.438 1.60168 -0.43994 0
M  V30 4349 O 406.623 1.79031 -0.659736 0
M  V30 4350 C 403.763 3.04969 -1.61518 0
M  V30 4351 C 402.876 3.21897 -2.88108 0
M  V30 4352 C 402.011 4.50608 -2.81294 0
M  V30 4353 C 401.05 4.60961 -4.02717 0
M  V30 4354 N 400.187 5.81024 -3.94151 0
M  V30 4355 H 405.027 1.55439 -2.54249 0
M  V30 4356 H 402.564 0.757219 -1.26113 0
M  V30 4357 H 404.522 3.85064 -1.60566 0
M  V30 4358 H 403.152 3.15015 -0.704645 0
M  V30 4359 H 402.204 2.35248 -2.98936 0
M  V30 4360 H 403.516 3.25412 -3.78032 0
M  V30 4361 H 402.67 5.3896 -2.7858 0
M  V30 4362 H 401.409 4.49568 -1.89049 0
M  V30 4363 H 400.414 3.71021 -4.05738 0
M  V30 4364 H 401.639 4.63761 -4.96087 0
M  V30 4365 H 399.585 5.80938 -3.04708 0
M  V30 4366 H 399.502 5.85909 -4.77752 0
M  V30 4367 H 400.77 6.71744 -3.9545 0
M  V30 4368 N 404.999 1.35443 0.805782 0
M  V30 4369 C 406.246 1.28761 1.56291 0
M  V30 4370 C 406.574 -0.137747 1.94012 0
M  V30 4371 O 405.829 -1.1032 1.61642 0
M  V30 4372 C 406.128 2.14045 2.86216 0
M  V30 4373 C 405.794 3.62826 2.67709 0
M  V30 4374 C 404.456 4.0338 2.6237 0
M  V30 4375 C 406.808 4.57227 2.50186 0
M  V30 4376 C 404.136 5.36501 2.37451 0
M  V30 4377 C 406.488 5.90547 2.26797 0
M  V30 4378 C 405.152 6.30245 2.1988 0
M  V30 4379 H 404.422 0.471171 0.571908 0
M  V30 4380 H 407.069 1.67347 0.930974 0
M  V30 4381 H 405.374 1.68342 3.53791 0
M  V30 4382 H 407.071 2.0621 3.43917 0
M  V30 4383 H 403.661 3.30644 2.72713 0
M  V30 4384 H 407.845 4.2678 2.53323 0
M  V30 4385 H 403.101 5.66259 2.30567 0
M  V30 4386 H 407.275 6.63274 2.12228 0
M  V30 4387 H 404.902 7.33328 2.00333 0
M  V30 4388 N 406.477 -1.02803 1.19454 0
M  V30 4389 C 407.407 -2.12999 0.956758 0
M  V30 4390 C 408.388 -1.69743 -0.110188 0
M  V30 4391 O 409.573 -1.94148 0.0450038 0
M  V30 4392 C 406.703 -3.43746 0.495553 0
M  V30 4393 C 405.657 -4.00688 1.50443 0
M  V30 4394 C 404.983 -5.27067 0.900275 0
M  V30 4395 C 406.283 -4.35397 2.8849 0
M  V30 4396 H 407.977 -2.33148 1.87836 0
M  V30 4397 H 405.523 -1.12045 0.904539 0
M  V30 4398 H 407.476 -4.2021 0.316493 0
M  V30 4399 H 406.2 -3.23321 -0.461646 0
M  V30 4400 H 404.859 -3.2632 1.67065 0
M  V30 4401 H 404.507 -5.02959 -0.064503 0
M  V30 4402 H 404.207 -5.66127 1.57397 0
M  V30 4403 H 405.731 -6.06196 0.73203 0
M  V30 4404 H 407.145 -5.02795 2.75446 0
M  V30 4405 H 405.542 -4.85541 3.52661 0
M  V30 4406 H 406.612 -3.44662 3.41081 0
M  V30 4407 N 407.956 -0.998596 -1.21925 0
M  V30 4408 C 408.866 -0.562736 -2.27751 0
M  V30 4409 C 409.882 0.391203 -1.69545 0
M  V30 4410 O 411.058 0.256625 -1.99758 0
M  V30 4411 C 408.123 0.11012 -3.46525 0
M  V30 4412 C 407.184 -0.887495 -4.20026 0
M  V30 4413 C 406.417 -0.246654 -5.3313 0
M  V30 4414 O 406.64 0.958088 -5.62296 0
M  V30 4415 O 405.574 -0.954374 -5.94286 0
M  V30 4416 H 409.4 -1.44329 -2.67213 0
M  V30 4417 H 406.985 -0.767135 -1.28201 0
M  V30 4418 H 408.867 0.486756 -4.18579 0
M  V30 4419 H 407.542 0.965154 -3.08976 0
M  V30 4420 H 406.449 -1.31517 -3.5022 0
M  V30 4421 H 407.782 -1.71191 -4.6147 0
M  V30 4422 N 409.434 1.37368 -0.772513 0
M  V30 4423 C 410.382 2.32134 -0.147111 0
M  V30 4424 C 411.376 1.54972 0.684106 0
M  V30 4425 O 412.582 1.70363 0.581083 0
M  V30 4426 H 408.957 0.751449 -0.028786 0
M  V30 4427 H 410.928 2.82464 -0.962112 0
M  V30 4428 C 409.677 3.40226 0.71703 0
M  V30 4429 H 409 3.99706 0.0867951 0
M  V30 4430 H 410.44 4.08897 1.12159 0
M  V30 4431 C 408.899 2.80372 1.86797 0
M  V30 4432 O 409.429 2.71183 2.96349 0
M  V30 4433 N 407.635 2.37904 1.66883 0
M  V30 4434 H 407.182 2.45578 0.777759 0
M  V30 4435 H 407.14 1.98202 2.44056 0
M  V30 4436 N 410.912 0.523116 1.48665 0
M  V30 4437 C 411.822 -0.247406 2.33292 0
M  V30 4438 C 412.838 -0.945769 1.46052 0
M  V30 4439 O 414.014 -0.922253 1.79043 0
M  V30 4440 C 411.079 -1.28487 3.22012 0
M  V30 4441 C 410.14 -0.597592 4.2512 0
M  V30 4442 C 409.373 -1.58563 5.09601 0
M  V30 4443 O 409.596 -2.81763 4.95949 0
M  V30 4444 O 408.53 -1.12879 5.91221 0
M  V30 4445 H 412.356 0.445869 3.00409 0
M  V30 4446 H 409.941 0.284128 1.46673 0
M  V30 4447 H 411.823 -1.88459 3.7691 0
M  V30 4448 H 410.498 -1.96068 2.57564 0
M  V30 4449 H 409.405 0.0424407 3.74076 0
M  V30 4450 H 410.738 0.0361517 4.92187 0
M  V30 4451 N 412.39 -1.55475 0.257931 0
M  V30 4452 C 413.667 -1.91155 -0.414629 0
M  V30 4453 C 414.047 -1.18008 -1.75035 0
M  V30 4454 O 413.395 -0.301193 -2.26506 0
M  V30 4455 C 413.605 -3.44283 -0.571859 0
M  V30 4456 C 414.953 -4.15744 -0.862678 0
M  V30 4457 O 415.977 -3.50083 -0.657314 0
M  V30 4458 O 414.836 -5.31909 -1.2544 0
M  V30 4459 H 411.93 -0.796016 -0.22425 0
M  V30 4460 H 414.476 -1.66976 0.302814 0
M  V30 4461 H 413.248 -3.89558 0.368844 0
M  V30 4462 H 412.871 -3.7436 -1.33943 0
M  V30 4463 N 413.868 0.0150385 -1.57593 0
M  V30 4464 C 415.284 0.370907 -1.5523 0
M  V30 4465 C 415.484 1.75735 -0.985882 0
M  V30 4466 O 414.54 2.44944 -0.613077 0
M  V30 4467 C 415.853 0.259908 -2.99575 0
M  V30 4468 C 417.401 0.335959 -3.11192 0
M  V30 4469 C 417.876 0.254253 -4.57294 0
M  V30 4470 N 419.367 0.312618 -4.62144 0
M  V30 4471 C 420.102 0.272505 -5.72752 0
M  V30 4472 N 419.598 0.183864 -6.92556 0
M  V30 4473 N 421.391 0.323267 -5.6117 0
M  V30 4474 H 413.542 -0.892104 -1.92757 0
M  V30 4475 H 415.805 -0.340563 -0.884715 0
M  V30 4476 H 415.511 -0.693403 -3.44797 0
M  V30 4477 H 415.385 1.048 -3.62349 0
M  V30 4478 H 417.772 1.27971 -2.65909 0
M  V30 4479 H 417.853 -0.481739 -2.51223 0
M  V30 4480 H 417.497 -0.685887 -5.03247 0
M  V30 4481 H 417.427 1.09024 -5.15191 0
M  V30 4482 H 419.918 0.38307 -3.75953 0
M  V30 4483 H 420.231 0.15874 -7.72637 0
M  V30 4484 H 418.576 0.149708 -6.94839 0
M  V30 4485 H 421.767 0.390607 -4.66467 0
M  V30 4486 H 421.94 0.288539 -6.47357 0
M  V30 4487 N 415.346 1.54954 0.287554 0
M  V30 4488 C 416.762 1.46469 0.633964 0
M  V30 4489 C 416.962 0.666865 1.90145 0
M  V30 4490 O 416.018 0.179906 2.51858 0
M  V30 4491 C 417.331 2.90556 0.774454 0
M  V30 4492 C 418.879 3.00681 0.869462 0
M  V30 4493 C 419.354 4.45993 1.04184 0
M  V30 4494 N 420.845 4.4976 1.10772 0
M  V30 4495 C 421.58 5.59393 1.25964 0
M  V30 4496 N 421.076 6.78923 1.37968 0
M  V30 4497 N 422.869 5.47107 1.28959 0
M  V30 4498 H 415.02 2.05288 -0.545041 0
M  V30 4499 H 417.283 0.930305 -0.182308 0
M  V30 4500 H 416.989 3.51594 -0.086207 0
M  V30 4501 H 416.863 3.38743 1.6593 0
M  V30 4502 H 419.25 2.39749 1.7206 0
M  V30 4503 H 419.331 2.55769 -0.0396831 0
M  V30 4504 H 418.975 5.07524 0.195422 0
M  V30 4505 H 418.905 4.88548 1.96542 0
M  V30 4506 H 421.396 3.63651 1.02794 0
M  V30 4507 H 421.709 7.58231 1.49353 0
M  V30 4508 H 420.054 6.81763 1.34999 0
M  V30 4509 H 423.245 4.52668 1.19202 0
M  V30 4510 H 423.418 6.32595 1.40455 0
M  V30 4511 N 416.824 -0.551391 1.4764 0
M  V30 4512 C 418.049 -1.33837 1.58437 0
M  V30 4513 C 418.474 -1.866 0.237063 0
M  V30 4514 O 417.832 -1.6328 -0.787994 0
M  V30 4515 C 417.88 -2.48014 2.61766 0
M  V30 4516 O 416.984 -3.50419 2.1744 0
M  V30 4517 H 416.325 -0.397299 0.532024 0
M  V30 4518 H 418.855 -0.665759 1.93465 0
M  V30 4519 H 418.865 -2.94503 2.82369 0
M  V30 4520 H 417.54 -2.08969 3.5959 0
M  V30 4521 H 416.117 -3.10196 2.06961 0
M  V30 4522 N 418.302 -1.35869 -0.798587 0
M  V30 4523 C 419.265 -1.29307 -1.89242 0
M  V30 4524 C 420.265 -0.202747 -1.59517 0
M  V30 4525 O 421.455 -0.456957 -1.681 0
M  V30 4526 C 418.587 -1.00229 -3.25833 0
M  V30 4527 H 419.78 -2.26576 -1.96478 0
M  V30 4528 H 417.333 -1.20509 -0.995358 0
M  V30 4529 H 418.068 -0.033801 -3.24282 0
M  V30 4530 H 417.853 -1.79121 -3.48795 0
M  V30 4531 H 419.343 -0.98219 -4.05885 0
M  V30 4532 N 419.78 1.02168 -1.19998 0
M  V30 4533 C 421.005 1.79833 -1.03319 0
M  V30 4534 C 421.43 1.83504 0.413281 0
M  V30 4535 O 420.788 1.26635 1.29743 0
M  V30 4536 C 420.836 3.22396 -1.61533 0
M  V30 4537 O 419.94 4.03555 -0.849519 0
M  V30 4538 H 419.281 0.554872 -0.364709 0
M  V30 4539 H 421.811 1.28542 -1.59179 0
M  V30 4540 H 421.821 3.73124 -1.65054 0
M  V30 4541 H 420.496 3.19039 -2.66809 0
M  V30 4542 H 419.073 3.62169 -0.888129 0
M  V30 4543 N 421.258 1.00505 1.21394 0
M  V30 4544 C 422.188 0.585684 2.26035 0
M  V30 4545 C 423.169 -0.393525 1.65485 0
M  V30 4546 O 424.354 -0.281497 1.92149 0
M  V30 4547 C 421.484 -0.0884283 3.47187 0
M  V30 4548 C 420.438 0.810567 4.20254 0
M  V30 4549 C 419.764 0.00286382 5.347 0
M  V30 4550 C 421.064 2.1132 4.77641 0
M  V30 4551 H 422.758 1.46039 2.61368 0
M  V30 4552 H 420.304 0.703648 1.25638 0
M  V30 4553 H 422.257 -0.393286 4.19561 0
M  V30 4554 H 420.981 -0.997766 3.10986 0
M  V30 4555 H 419.64 1.09925 3.49731 0
M  V30 4556 H 419.288 -0.907765 4.94741 0
M  V30 4557 H 418.988 0.601444 5.84514 0
M  V30 4558 H 420.512 -0.295808 6.09883 0
M  V30 4559 H 421.926 1.87148 5.41893 0
M  V30 4560 H 420.323 2.66164 5.37845 0
M  V30 4561 H 421.393 2.78393 3.9702 0
M  V30 4562 N 422.737 -1.36956 0.779787 0
M  V30 4563 C 423.687 -2.27539 0.144892 0
M  V30 4564 C 424.671 -1.46493 -0.665488 0
M  V30 4565 O 425.863 -1.68968 -0.527141 0
M  V30 4566 C 422.992 -3.35512 -0.727082 0
M  V30 4567 C 422.078 -4.24001 0.0915642 0
M  V30 4568 N 422.469 -4.92757 1.14125 0
M  V30 4569 C 420.767 -4.45807 -0.131141 0
M  V30 4570 C 421.468 -5.58138 1.6388 0
M  V30 4571 N 420.444 -5.35241 0.94962 0
M  V30 4572 H 424.246 -2.78176 0.948446 0
M  V30 4573 H 421.76 -1.50169 0.618315 0
M  V30 4574 H 423.757 -3.99324 -1.19776 0
M  V30 4575 H 422.417 -2.86431 -1.52929 0
M  V30 4576 H 423.428 -4.94984 1.52353 0
M  V30 4577 H 420.105 -4.07582 -0.904621 0
M  V30 4578 H 421.495 -6.23071 2.51461 0
M  V30 4579 N 424.215 -0.530993 -1.48385 0
M  V30 4580 C 425.145 0.219985 -2.32461 0
M  V30 4581 C 426.126 0.934111 -1.42156 0
M  V30 4582 O 427.311 0.919694 -1.71042 0
M  V30 4583 C 424.441 1.26674 -3.23375 0
M  V30 4584 C 423.395 0.67069 -4.22712 0
M  V30 4585 C 422.721 1.82017 -5.02766 0
M  V30 4586 C 424.021 -0.358268 -5.2107 0
M  V30 4587 H 425.715 -0.48187 -2.95497 0
M  V30 4588 H 423.261 -0.233182 -1.42099 0
M  V30 4589 H 425.214 1.80006 -3.81019 0
M  V30 4590 H 423.938 1.99818 -2.58341 0
M  V30 4591 H 422.597 0.158878 -3.66256 0
M  V30 4592 H 422.245 2.54002 -4.34157 0
M  V30 4593 H 421.945 1.42727 -5.70003 0
M  V30 4594 H 423.469 2.35725 -5.63264 0
M  V30 4595 H 424.883 0.0880081 -5.73232 0
M  V30 4596 H 423.28 -0.66861 -5.96364 0
M  V30 4597 H 424.35 -1.26367 -4.68145 0
M  V30 4598 N 425.693 1.55336 -0.266172 0
M  V30 4599 C 427.104 1.85236 0.233315 0
M  V30 4600 C 427.455 1.18816 1.56132 0
M  V30 4601 O 426.58 0.473307 2.11161 0
M  V30 4602 C 427.175 3.36059 0.430113 0
M  V30 4603 C 425.734 3.66116 0.873842 0
M  V30 4604 C 424.881 2.77274 -0.0380016 0
M  V30 4605 H 427.832 1.51004 -0.488214 0
M  V30 4606 H 427.853 3.58681 1.26998 0
M  V30 4607 H 427.365 3.84373 -0.536588 0
M  V30 4608 H 425.466 3.23295 1.85233 0
M  V30 4609 H 425.579 4.73699 0.717358 0
M  V30 4610 H 423.943 2.50198 0.476759 0
M  V30 4611 H 424.726 3.284 -1.00042 0
M  V30 4612 N 427.171 -0.0066808 1.57599 0
M  V30 4613 C 428.118 -1.00024 2.08 0
M  V30 4614 C 429.088 -1.34549 0.973943 0
M  V30 4615 O 430.273 -1.44502 1.24595 0
M  V30 4616 C 427.413 -2.2891 2.58252 0
M  V30 4617 C 426.526 -2.00346 3.82734 0
M  V30 4618 C 425.661 -3.23265 4.21513 0
M  V30 4619 C 424.7 -2.90357 5.3885 0
M  V30 4620 N 423.837 -4.05793 5.72954 0
M  V30 4621 H 428.677 -0.563499 2.92624 0
M  V30 4622 H 426.214 -0.266592 1.44664 0
M  V30 4623 H 428.172 -3.04247 2.85464 0
M  V30 4624 H 426.802 -2.70265 1.76512 0
M  V30 4625 H 425.854 -1.15406 3.62471 0
M  V30 4626 H 427.166 -1.72086 4.68175 0
M  V30 4627 H 426.32 -4.06953 4.49971 0
M  V30 4628 H 425.059 -3.54657 3.34768 0
M  V30 4629 H 424.064 -2.05075 5.10122 0
M  V30 4630 H 425.289 -2.60219 6.27266 0
M  V30 4631 H 423.235 -4.37094 4.89167 0
M  V30 4632 H 423.152 -3.81034 6.52954 0
M  V30 4633 H 424.42 -4.90289 6.06001 0
M  V30 4634 N 428.649 -1.55105 -0.279332 0
M  V30 4635 C 429.579 -1.90557 -1.34945 0
M  V30 4636 C 430.56 -0.766738 -1.51839 0
M  V30 4637 O 431.745 -1.02434 -1.64988 0
M  V30 4638 C 428.875 -2.17193 -2.71006 0
M  V30 4639 C 427.829 -3.33021 -2.68851 0
M  V30 4640 C 427.155 -3.45123 -4.08405 0
M  V30 4641 C 428.455 -4.69578 -2.28678 0
M  V30 4642 H 430.149 -2.80188 -1.05522 0
M  V30 4643 H 427.695 -1.34811 -0.506173 0
M  V30 4644 H 429.648 -2.40581 -3.45975 0
M  V30 4645 H 428.372 -1.24355 -3.01999 0
M  V30 4646 H 427.031 -3.0959 -1.9634 0
M  V30 4647 H 426.679 -2.49762 -4.3661 0
M  V30 4648 H 426.379 -4.22995 -4.07859 0
M  V30 4649 H 427.903 -3.70796 -4.85121 0
M  V30 4650 H 429.317 -4.92553 -2.93368 0
M  V30 4651 H 427.714 -5.5032 -2.39306 0
M  V30 4652 H 428.784 -4.68828 -1.23807 0
M  V30 4653 N 430.127 0.543554 -1.4793 0
M  V30 4654 C 431.352 1.32995 -1.59145 0
M  V30 4655 C 431.777 1.86472 -0.246956 0
M  V30 4656 O 431.135 1.63696 0.779324 0
M  V30 4657 C 431.183 2.46623 -2.63077 0
M  V30 4658 O 430.287 3.49261 -2.19295 0
M  V30 4659 H 429.628 0.394472 -0.534124 0
M  V30 4660 H 432.158 0.655489 -1.93816 0
M  V30 4661 H 432.168 2.93001 -2.83926 0
M  V30 4662 H 430.843 2.07059 -3.60693 0
M  V30 4663 H 429.42 3.09094 -2.08603 0
M  V30 4664 N 431.605 1.3629 0.791371 0
M  V30 4665 C 432.854 1.29742 1.54434 0
M  V30 4666 C 433.167 -0.121729 1.95221 0
M  V30 4667 O 434.373 -0.309579 2.69729 0
M  V30 4668 C 432.829 2.27623 2.78776 0
M  V30 4669 C 432.437 3.74963 2.45166 0
M  V30 4670 C 434.181 2.30047 3.56761 0
M  V30 4671 C 432.088 4.64626 3.65891 0
M  V30 4672 H 431.018 0.482113 0.579727 0
M  V30 4673 H 433.669 1.61642 0.868565 0
M  V30 4674 H 432.051 1.88714 3.48142 0
M  V30 4675 H 433.225 4.22596 1.83709 0
M  V30 4676 H 431.54 3.75295 1.80396 0
M  V30 4677 H 434.137 2.94247 4.46456 0
M  V30 4678 H 434.48 1.30846 3.95203 0
M  V30 4679 H 435.013 2.67563 2.94372 0
M  V30 4680 H 431.752 5.64883 3.32547 0
M  V30 4681 H 431.272 4.2171 4.26521 0
M  V30 4682 H 432.951 4.80801 4.32943 0
M  V30 4683 N 433.083 -1.0153 1.20538 0
M  V30 4684 C 434.311 -1.78746 1.04199 0
M  V30 4685 C 434.726 -1.84323 -0.408733 0
M  V30 4686 O 434.083 -1.29714 -1.28377 0
M  V30 4687 C 434.134 -3.23152 1.62035 0
M  V30 4688 O 433.855 -3.17918 3.0143 0
M  V30 4689 C 435.356 -4.16911 1.50666 0
M  V30 4690 H 432.576 -0.56208 0.366479 0
M  V30 4691 H 435.12 -1.27794 1.59653 0
M  V30 4692 H 433.275 -3.71248 1.10697 0
M  V30 4693 H 433.689 -4.08567 3.28897 0
M  V30 4694 H 435.163 -5.16072 1.95892 0
M  V30 4695 H 435.64 -4.36791 0.459363 0
M  V30 4696 H 436.246 -3.74698 2.01201 0
M  V30 4697 N 434.561 -1.01147 -1.20859 0
M  V30 4698 C 435.809 -0.696486 -1.89719 0
M  V30 4699 C 436.13 0.775788 -1.78904 0
M  V30 4700 O 435.4 1.55759 -1.18811 0
M  V30 4701 H 433.98 -0.254628 -0.702263 0
M  V30 4702 H 436.642 -1.28197 -1.46804 0
M  V30 4703 H 435.738 -0.975357 -2.96468 0
M  V30 4704 N 436.039 1.36541 -0.78704 0
M  V30 4705 C 437.267 2.03561 -0.370199 0
M  V30 4706 C 437.682 1.59347 1.01263 0
M  V30 4707 O 437.039 0.781781 1.64907 0
M  V30 4708 C 437.09 3.59033 -0.421614 0
M  V30 4709 O 436.811 4.01634 -1.7499 0
M  V30 4710 C 438.312 4.433 0.00489763 0
M  V30 4711 H 435.532 0.653346 -0.152904 0
M  V30 4712 H 438.076 1.74566 -1.06522 0
M  V30 4713 H 436.231 3.86746 0.224971 0
M  V30 4714 H 436.645 4.96217 -1.69909 0
M  V30 4715 H 438.119 5.51939 -0.0822184 0
M  V30 4716 H 438.596 4.26285 1.05723 0
M  V30 4717 H 439.202 4.20843 -0.614085 0
M  V30 4718 N 437.518 0.538854 1.48102 0
M  V30 4719 C 438.748 0.0122958 2.06596 0
M  V30 4720 C 439.156 -1.27861 1.39457 0
M  V30 4721 O 438.499 -1.77348 0.478907 0
M  V30 4722 C 438.561 -0.273131 3.58461 0
M  V30 4723 C 438.225 0.92561 4.47528 0
M  V30 4724 C 439.222 1.82637 4.86765 0
M  V30 4725 C 436.907 1.13511 4.89306 0
M  V30 4726 C 438.901 2.92047 5.66558 0
M  V30 4727 C 436.588 2.23233 5.68868 0
M  V30 4728 C 437.586 3.12333 6.07402 0
M  V30 4729 O 437.274 4.20155 6.85365 0
M  V30 4730 H 437.006 0.0344283 0.675123 0
M  V30 4731 H 439.56 0.746494 1.91355 0
M  V30 4732 H 437.79 -1.06141 3.71848 0
M  V30 4733 H 439.479 -0.742842 3.99045 0
M  V30 4734 H 440.245 1.67649 4.55103 0
M  V30 4735 H 436.124 0.450835 4.5879 0
M  V30 4736 H 439.668 3.6162 5.96554 0
M  V30 4737 H 435.565 2.38201 5.99942 0
M  V30 4738 H 436.333 4.17975 7.03732 0
M  V30 4739 N 438.996 -1.55193 0.274407 0
M  V30 4740 C 440.273 -1.91584 -0.394331 0
M  V30 4741 C 440.653 -1.19858 -1.73774 0
M  V30 4742 O 440.001 -0.3252 -2.26174 0
M  V30 4743 C 440.211 -3.4487 -0.535311 0
M  V30 4744 C 441.559 -4.16636 -0.818534 0
M  V30 4745 O 442.583 -3.5076 -0.620146 0
M  V30 4746 O 441.442 -5.33209 -1.19792 0
M  V30 4747 H 438.536 -0.798349 -0.215794 0
M  V30 4748 H 441.082 -1.66646 0.320507 0
M  V30 4749 H 439.854 -3.89145 0.410141 0
M  V30 4750 H 439.477 -3.75759 -1.29964 0
M  V30 4751 N 440.474 -0.00167713 -1.576 0
M  V30 4752 C 441.404 0.988091 -2.11563 0
M  V30 4753 C 442.385 1.35736 -1.02517 0
M  V30 4754 O 443.57 1.44082 -1.30208 0
M  V30 4755 C 440.7 2.27941 -2.62031 0
M  V30 4756 C 439.654 2.0517 -3.75619 0
M  V30 4757 C 438.98 3.4033 -4.12407 0
M  V30 4758 C 440.28 1.41294 -5.02825 0
M  V30 4759 H 441.974 0.538771 -2.94513 0
M  V30 4760 H 439.52 0.257712 -1.41675 0
M  V30 4761 H 441.473 2.97539 -2.9841 0
M  V30 4762 H 440.197 2.74989 -1.76205 0
M  V30 4763 H 438.856 1.37998 -3.39635 0
M  V30 4764 H 438.504 3.85085 -3.23603 0
M  V30 4765 H 438.204 3.25909 -4.88935 0
M  V30 4766 H 439.728 4.1124 -4.51347 0
M  V30 4767 H 441.142 2.00851 -5.36965 0
M  V30 4768 H 439.539 1.37356 -5.84169 0
M  V30 4769 H 440.609 0.382362 -4.8339 0
M  V30 4770 N 441.952 1.55251 0.271103 0
M  V30 4771 C 442.899 1.88261 1.33516 0
M  V30 4772 C 443.869 0.734296 1.48988 0
M  V30 4773 O 445.054 0.985741 1.63364 0
M  V30 4774 C 442.194 2.16168 2.69008 0
M  V30 4775 C 441.307 3.43678 2.61743 0
M  V30 4776 C 440.442 3.61276 3.89427 0
M  V30 4777 C 439.481 4.82472 3.7668 0
M  V30 4778 N 438.618 4.96717 4.96202 0
M  V30 4779 H 443.458 2.79015 1.04665 0
M  V30 4780 H 440.995 1.38137 0.505618 0
M  V30 4781 H 442.953 2.30349 3.47844 0
M  V30 4782 H 441.583 1.28646 2.96057 0
M  V30 4783 H 440.635 3.37959 1.74607 0
M  V30 4784 H 441.947 4.3265 2.48224 0
M  V30 4785 H 441.101 3.75284 4.76704 0
M  V30 4786 H 439.84 2.70492 4.05814 0
M  V30 4787 H 438.845 4.68465 2.87786 0
M  V30 4788 H 440.07 5.74692 3.61809 0
M  V30 4789 H 438.016 4.08865 5.12997 0
M  V30 4790 H 437.933 5.79738 4.85222 0
M  V30 4791 H 439.201 5.15113 5.85046 0
M  V30 4792 N 443.43 -0.535701 1.48216 0
M  V30 4793 C 444.655 -1.32149 1.59848 0
M  V30 4794 C 445.08 -1.86338 0.256842 0
M  V30 4795 O 444.438 -1.64107 -0.770632 0
M  V30 4796 C 444.486 -2.45224 2.64381 0
M  V30 4797 O 443.59 -3.48093 2.21144 0
M  V30 4798 H 442.931 -0.391634 0.536208 0
M  V30 4799 H 445.461 -0.645202 1.94161 0
M  V30 4800 H 445.471 -2.91491 2.85476 0
M  V30 4801 H 444.146 -2.05143 3.61786 0
M  V30 4802 H 442.723 -3.07984 2.10239 0
M  V30 4803 N 444.908 -1.36708 -0.784132 0
M  V30 4804 C 446.154 -1.31426 -1.54451 0
M  V30 4805 C 446.487 0.10476 -1.93917 0
M  V30 4806 O 445.762 1.05934 -1.6312 0
M  V30 4807 C 446.045 -2.24189 -2.818 0
M  V30 4808 C 445.898 -3.74813 -2.48667 0
M  V30 4809 C 447.217 -2.15626 -3.83658 0
M  V30 4810 H 444.336 -0.478739 -0.560337 0
M  V30 4811 H 446.978 -1.67305 -0.900498 0
M  V30 4812 H 445.128 -1.93722 -3.36755 0
M  V30 4813 H 446.8 -4.15823 -1.99722 0
M  V30 4814 H 445.043 -3.93989 -1.81535 0
M  V30 4815 H 445.714 -4.35138 -3.39646 0
M  V30 4816 H 448.19 -2.42456 -3.38163 0
M  V30 4817 H 447.066 -2.82694 -4.70506 0
M  V30 4818 H 447.327 -1.14522 -4.27009 0
M  V30 4819 N 446.386 1.0089 -1.21074 0
M  V30 4820 C 447.316 2.1145 -0.990523 0
M  V30 4821 C 448.297 1.69897 0.0831699 0
M  V30 4822 O 449.482 1.94052 -0.0758853 0
M  V30 4823 C 446.612 3.42914 -0.550177 0
M  V30 4824 C 445.566 3.98244 -1.56799 0
M  V30 4825 C 444.892 5.25568 -0.984013 0
M  V30 4826 C 446.192 4.30752 -2.95381 0
M  V30 4827 H 447.886 2.3013 -1.91521 0
M  V30 4828 H 445.432 1.10592 -0.92225 0
M  V30 4829 H 447.385 4.19653 -0.383305 0
M  V30 4830 H 446.109 3.24014 0.41015 0
M  V30 4831 H 444.768 3.23621 -1.72236 0
M  V30 4832 H 444.416 5.02998 -0.0155216 0
M  V30 4833 H 444.116 5.63551 -1.66384 0
M  V30 4834 H 445.64 6.04955 -0.828378 0
M  V30 4835 H 447.054 4.98349 -2.8341 0
M  V30 4836 H 445.451 4.79869 -3.60341 0
M  V30 4837 H 446.521 3.39192 -3.46521 0
M  V30 4838 N 447.864 1.01787 1.20321 0
M  V30 4839 C 449.112 0.706538 1.89347 0
M  V30 4840 C 449.433 -0.766289 1.79313 0
M  V30 4841 O 448.703 -1.55126 1.19635 0
M  V30 4842 H 447.283 0.258348 0.700903 0
M  V30 4843 H 449.945 1.28974 1.46122 0
M  V30 4844 H 449.041 0.991066 2.95946 0
M  V30 4845 N 449.342 -1.36122 0.79427 0
M  V30 4846 C 450.274 -2.28683 0.153903 0
M  V30 4847 C 451.287 -1.49707 -0.639669 0
M  V30 4848 O 452.476 -1.7209 -0.474054 0
M  V30 4849 C 449.576 -3.29202 -0.804921 0
M  V30 4850 C 448.749 -4.37358 -0.060366 0
M  V30 4851 C 447.808 -5.17811 -0.935849 0
M  V30 4852 O 446.834 -5.67853 -0.391309 0
M  V30 4853 N 448.036 -5.34721 -2.25951 0
M  V30 4854 H 450.801 -2.84278 0.949008 0
M  V30 4855 H 448.362 -1.4834 0.648611 0
M  V30 4856 H 450.354 -3.79914 -1.39455 0
M  V30 4857 H 448.924 -2.74212 -1.50088 0
M  V30 4858 H 448.144 -3.87746 0.710382 0
M  V30 4859 H 449.432 -5.06777 0.45324 0
M  V30 4860 H 448.83 -4.95687 -2.72601 0
M  V30 4861 H 447.387 -5.88657 -2.79867 0
M  V30 4862 N 450.82 -0.546701 -1.47814 0
M  V30 4863 C 451.75 0.195317 -2.32682 0
M  V30 4864 C 452.731 0.918981 -1.43139 0
M  V30 4865 O 453.916 0.901501 -1.72008 0
M  V30 4866 C 451.046 1.23237 -3.247 0
M  V30 4867 C 450 0.625818 -4.234 0
M  V30 4868 C 449.326 1.76674 -5.04669 0
M  V30 4869 C 450.626 -0.413515 -5.2066 0
M  V30 4870 H 452.32 -0.513184 -2.94969 0
M  V30 4871 H 449.866 -0.248241 -1.41844 0
M  V30 4872 H 451.819 1.75955 -3.82907 0
M  V30 4873 H 450.543 1.97067 -2.60446 0
M  V30 4874 H 449.202 0.120023 -3.66403 0
M  V30 4875 H 448.85 2.49383 -4.36826 0
M  V30 4876 H 448.55 1.36673 -5.71484 0
M  V30 4877 H 450.074 2.29738 -5.65732 0
M  V30 4878 H 451.488 0.0272042 -5.73294 0
M  V30 4879 H 449.885 -0.731825 -5.95621 0
M  V30 4880 H 450.955 -1.31325 -4.66778 0
M  V30 4881 N 452.299 1.55045 -0.282633 0
M  V30 4882 C 453.547 1.99365 0.331334 0
M  V30 4883 C 453.868 1.1725 1.55812 0
M  V30 4884 O 453.138 0.263871 1.94115 0
M  V30 4885 H 451.718 0.736397 0.125414 0
M  V30 4886 H 454.38 1.90964 -0.389711 0
M  V30 4887 H 453.476 3.0596 0.616036 0
M  V30 4888 N 453.777 0.010035 1.57597 0
M  V30 4889 C 455.026 -0.671945 1.90178 0
M  V30 4890 C 455.339 -1.74376 0.886131 0
M  V30 4891 O 456.545 -2.48107 1.10252 0
M  V30 4892 C 455.001 -1.24636 3.3763 0
M  V30 4893 C 454.609 -0.208838 4.47513 0
M  V30 4894 C 456.353 -1.90595 3.79307 0
M  V30 4895 C 454.26 -0.793814 5.86048 0
M  V30 4896 H 453.19 -0.25474 0.709665 0
M  V30 4897 H 455.841 0.0722206 1.83358 0
M  V30 4898 H 454.223 -2.04152 3.3932 0
M  V30 4899 H 455.397 0.562463 4.57354 0
M  V30 4900 H 453.712 0.350889 4.14919 0
M  V30 4901 H 456.309 -2.35284 4.80151 0
M  V30 4902 H 456.652 -2.74074 3.13352 0
M  V30 4903 H 457.185 -1.17798 3.79958 0
M  V30 4904 H 453.924 0.00240855 6.555 0
M  V30 4905 H 453.444 -1.53404 5.79851 0
M  V30 4906 H 455.123 -1.2894 6.34022 0
M  V30 4907 N 455.255 -1.55392 -0.262866 0
M  V30 4908 C 456.483 -1.80513 -1.01108 0
M  V30 4909 C 456.898 -0.583533 -1.79556 0
M  V30 4910 O 456.255 0.447585 -1.76926 0
M  V30 4911 C 456.306 -3.03648 -1.96164 0
M  V30 4912 O 456.027 -4.2109 -1.20893 0
M  V30 4913 C 457.528 -3.41448 -2.82715 0
M  V30 4914 H 454.748 -0.601079 -0.298236 0
M  V30 4915 H 457.292 -2.02425 -0.290582 0
M  V30 4916 H 455.447 -2.83832 -2.63663 0
M  V30 4917 H 455.861 -4.90771 -1.85051 0
M  V30 4918 H 457.335 -4.30751 -3.45192 0
M  V30 4919 H 457.812 -2.61308 -3.53008 0
M  V30 4920 H 458.418 -3.63559 -2.20693 0
M  V30 4921 N 456.733 0.527833 -1.48498 0
M  V30 4922 C 457.68 1.6322 -1.6318 0
M  V30 4923 C 458.65 1.59199 -0.473815 0
M  V30 4924 O 459.835 1.77591 -0.697563 0
M  V30 4925 C 456.975 3.01474 -1.67951 0
M  V30 4926 C 456.088 3.15713 -2.94871 0
M  V30 4927 C 455.223 4.44539 -2.90789 0
M  V30 4928 C 454.262 4.52315 -4.12404 0
M  V30 4929 N 453.399 5.72533 -4.06387 0
M  V30 4930 H 458.239 1.50011 -2.57489 0
M  V30 4931 H 455.776 0.730298 -1.27691 0
M  V30 4932 H 457.734 3.81572 -1.68698 0
M  V30 4933 H 456.364 3.1345 -0.771306 0
M  V30 4934 H 455.416 2.28854 -3.03859 0
M  V30 4935 H 456.728 3.1732 -3.8485 0
M  V30 4936 H 455.882 5.3293 -2.89949 0
M  V30 4937 H 454.621 4.45457 -1.98542 0
M  V30 4938 H 453.626 3.62331 -4.13517 0
M  V30 4939 H 454.851 4.53134 -5.05812 0
M  V30 4940 H 452.797 5.74344 -3.16962 0
M  V30 4941 H 452.714 5.75643 -4.90073 0
M  V30 4942 H 453.982 6.63204 -4.0961 0
M  V30 4943 N 458.211 1.37122 0.776871 0
M  V30 4944 C 459.457 1.32243 1.53752 0
M  V30 4945 C 459.79 -0.0944745 1.9397 0
M  V30 4946 O 459.065 -1.05068 1.6368 0
M  V30 4947 C 459.348 2.25681 2.80607 0
M  V30 4948 C 459.201 3.76127 2.46676 0
M  V30 4949 C 460.52 2.17657 3.82509 0
M  V30 4950 H 457.639 0.481704 0.557791 0
M  V30 4951 H 460.281 1.6778 0.891612 0
M  V30 4952 H 458.431 1.95505 3.35723 0
M  V30 4953 H 460.103 4.16877 1.97513 0
M  V30 4954 H 458.346 3.94946 1.79443 0
M  V30 4955 H 459.017 4.36933 3.37333 0
M  V30 4956 H 461.493 2.44245 3.36873 0
M  V30 4957 H 460.369 2.85185 4.69 0
M  V30 4958 H 460.63 1.16785 4.26396 0
M  V30 4959 N 459.689 -1.00246 1.21608 0
M  V30 4960 C 460.936 -1.74061 1.03485 0
M  V30 4961 C 461.264 -1.89658 -0.431308 0
M  V30 4962 O 460.519 -1.42976 -1.33627 0
M  V30 4963 C 460.818 -3.15448 1.68009 0
M  V30 4964 C 460.484 -3.19792 3.17874 0
M  V30 4965 C 459.146 -3.20685 3.58768 0
M  V30 4966 C 461.498 -3.16835 4.13842 0
M  V30 4967 C 458.826 -3.16309 4.94131 0
M  V30 4968 C 461.178 -3.14001 5.49169 0
M  V30 4969 C 459.842 -3.13204 5.89457 0
M  V30 4970 H 459.112 -0.636934 0.378677 0
M  V30 4971 H 461.759 -1.17473 1.51236 0
M  V30 4972 H 460.064 -3.75284 1.12557 0
M  V30 4973 H 461.761 -3.71285 1.51487 0
M  V30 4974 H 458.351 -3.19842 2.85305 0
M  V30 4975 H 462.535 -3.15303 3.83272 0
M  V30 4976 H 457.791 -3.14032 5.24589 0
M  V30 4977 H 461.965 -3.10667 6.23265 0
M  V30 4978 H 459.592 -3.09568 6.94314 0
M  V30 4979 N 461.167 -1.02423 -1.1978 0
M  V30 4980 C 462.392 -0.7373 -1.93852 0
M  V30 4981 C 462.817 0.696923 -1.74713 0
M  V30 4982 O 462.175 1.48056 -1.04638 0
M  V30 4983 C 462.223 -1.08783 -3.438 0
M  V30 4984 O 461.327 -0.20383 -4.11896 0
M  V30 4985 H 460.668 -0.27284 -0.605355 0
M  V30 4986 H 463.198 -1.36966 -1.51992 0
M  V30 4987 H 463.208 -1.04276 -3.9445 0
M  V30 4988 H 461.883 -2.13274 -3.57053 0
M  V30 4989 H 460.46 -0.307091 -3.71633 0
M  V30 4990 N 462.645 1.35699 -0.801477 0
M  V30 4991 C 463.593 2.3177 -0.196317 0
M  V30 4992 C 464.587 1.56388 0.651081 0
M  V30 4993 O 465.793 1.71557 0.544815 0
M  V30 4994 H 462.168 0.750669 -0.0447189 0
M  V30 4995 H 464.139 2.8036 -1.02181 0
M  V30 4996 C 462.888 3.41671 0.644702 0
M  V30 4997 H 462.211 3.998 0.0019921 0
M  V30 4998 H 463.651 4.11184 1.0346 0
M  V30 4999 C 462.11 2.84271 1.80808 0
M  V30 5000 O 462.64 2.77408 2.9053 0
M  V30 5001 N 460.846 2.41391 1.61799 0
M  V30 5002 H 460.393 2.47173 0.725493 0
M  V30 5003 H 460.351 2.03334 2.39797 0
M  V30 5004 N 464.123 0.554532 1.47522 0
M  V30 5005 C 465.371 0.0294208 2.02079 0
M  V30 5006 C 465.692 -1.32411 1.43151 0
M  V30 5007 O 464.962 -1.863 0.605728 0
M  V30 5008 H 463.542 0.00788672 0.746958 0
M  V30 5009 H 466.204 0.723934 1.80956 0
M  V30 5010 H 465.3 -0.0606745 3.12041 0
M  V30 5011 N 465.601 -1.54893 0.290851 0
M  V30 5012 C 466.564 -2.21824 -0.576784 0
M  V30 5013 C 467.564 -1.20104 -1.06919 0
M  V30 5014 O 468.754 -1.44906 -0.966843 0
M  V30 5015 C 465.886 -2.89662 -1.79747 0
M  V30 5016 H 467.079 -2.99899 0.00784051 0
M  V30 5017 H 464.632 -1.56245 0.0415934 0
M  V30 5018 H 465.367 -2.15639 -2.42219 0
M  V30 5019 H 465.152 -3.64219 -1.45214 0
M  V30 5020 H 466.642 -3.4075 -2.4141 0
M  V30 5021 N 467.08 -0.0183926 -1.57589 0
M  V30 5022 C 468.357 0.700621 -1.82622 0
M  V30 5023 C 468.737 1.90951 -0.90005 0
M  V30 5024 O 468.085 2.28452 0.0469145 0
M  V30 5025 C 468.295 1.08899 -3.31575 0
M  V30 5026 C 469.643 1.48514 -3.9778 0
M  V30 5027 O 470.667 1.18227 -3.36007 0
M  V30 5028 O 469.526 2.04903 -5.06633 0
M  V30 5029 H 466.62 0.342743 -0.752633 0
M  V30 5030 H 469.166 -0.0452548 -1.6964 0
M  V30 5031 H 467.938 0.228113 -3.90635 0
M  V30 5032 H 467.561 1.89338 -3.49624 0
M  V30 5033 N 468.558 1.5553 0.254621 0
M  V30 5034 C 469.488 1.9268 1.31897 0
M  V30 5035 C 470.469 0.790797 1.506 0
M  V30 5036 O 471.654 1.05045 1.63337 0
M  V30 5037 C 468.784 2.21477 2.67517 0
M  V30 5038 C 467.738 3.37256 2.63519 0
M  V30 5039 C 467.064 3.51576 4.02862 0
M  V30 5040 C 468.364 4.73157 2.21179 0
M  V30 5041 H 470.058 2.81832 1.01051 0
M  V30 5042 H 467.604 1.35599 0.484662 0
M  V30 5043 H 469.557 2.46055 3.42104 0
M  V30 5044 H 468.281 1.29144 2.99982 0
M  V30 5045 H 466.94 3.12675 1.9139 0
M  V30 5046 H 466.588 2.56676 4.32581 0
M  V30 5047 H 466.288 4.2943 4.01078 0
M  V30 5048 H 467.812 3.78467 4.79161 0
M  V30 5049 H 469.226 4.97158 2.85494 0
M  V30 5050 H 467.623 5.54058 2.30521 0
M  V30 5051 H 468.693 4.70739 1.16332 0
M  V30 5052 N 470.036 -0.519951 1.48776 0
M  V30 5053 C 471.261 -1.30447 1.6124 0
M  V30 5054 C 471.686 -1.86055 0.276591 0
M  V30 5055 O 471.044 -1.64915 -0.753183 0
M  V30 5056 C 471.092 -2.42406 2.66967 0
M  V30 5057 O 470.196 -3.45728 2.24824 0
M  V30 5058 H 469.537 -0.385924 0.540332 0
M  V30 5059 H 472.067 -0.624572 1.94834 0
M  V30 5060 H 472.077 -2.88447 2.88552 0
M  V30 5061 H 470.752 -2.01294 3.63941 0
M  V30 5062 H 469.329 -3.05737 2.13494 0
M  V30 5063 N 471.514 -1.37532 -0.769588 0
M  V30 5064 C 472.762 -1.32597 -1.5252 0
M  V30 5065 C 473.083 0.0884294 -1.94799 0
M  V30 5066 O 472.353 1.03289 -1.66458 0
M  V30 5067 H 470.933 -0.487846 -0.565699 0
M  V30 5068 H 473.595 -1.72044 -0.915806 0
M  V30 5069 H 472.691 -1.96643 -2.42359 0
M  V30 5070 N 472.992 0.995999 -1.22138 0
M  V30 5071 C 474.238 1.73767 -1.04561 0
M  V30 5072 C 474.571 1.89633 0.418698 0
M  V30 5073 O 473.846 1.43723 1.3105 0
M  V30 5074 C 474.129 3.14505 -1.75382 0
M  V30 5075 C 473.982 3.06306 -3.29388 0
M  V30 5076 C 475.301 4.13615 -1.50369 0
M  V30 5077 H 472.42 0.630728 -0.38125 0
M  V30 5078 H 475.062 1.16057 -1.50435 0
M  V30 5079 H 473.212 3.63775 -1.36383 0
M  V30 5080 H 474.884 2.64681 -3.77812 0
M  V30 5081 H 473.127 2.43186 -3.59226 0
M  V30 5082 H 473.798 4.05884 -3.74116 0
M  V30 5083 H 476.274 3.73089 -1.84239 0
M  V30 5084 H 475.15 5.10212 -2.02421 0
M  V30 5085 H 475.411 4.39949 -0.435611 0
M  V30 5086 N 474.47 1.03057 1.19235 0
M  V30 5087 C 475.698 0.747697 1.92917 0
M  V30 5088 C 476.113 -0.69372 1.75593 0
M  V30 5089 O 475.47 -1.47191 1.07894 0
M  V30 5090 C 475.521 1.09159 3.44625 0
M  V30 5091 O 475.242 2.47641 3.61394 0
M  V30 5092 C 476.743 0.831763 4.35427 0
M  V30 5093 H 473.963 0.273453 0.612751 0
M  V30 5094 H 476.507 1.37552 1.51327 0
M  V30 5095 H 474.662 0.508919 3.84043 0
M  V30 5096 H 475.076 2.60499 4.55237 0
M  V30 5097 H 476.55 1.12233 5.4047 0
M  V30 5098 H 477.027 -0.233769 4.38577 0
M  V30 5099 H 477.633 1.39725 4.01693 0
M  V30 5100 N 475.948 -1.35272 0.808662 0
M  V30 5101 C 476.858 -2.33546 0.222079 0
M  V30 5102 C 477.874 -1.6196 -0.636011 0
M  V30 5103 O 479.05 -1.93822 -0.547274 0
M  V30 5104 C 476.115 -3.41148 -0.61795 0
M  V30 5105 C 475.176 -4.28507 0.260875 0
M  V30 5106 C 474.409 -5.3097 -0.539156 0
M  V30 5107 O 474.632 -5.42123 -1.77367 0
M  V30 5108 O 473.566 -6.01858 0.0710526 0
M  V30 5109 H 477.392 -2.85515 1.03512 0
M  V30 5110 H 474.977 -1.38079 0.570495 0
M  V30 5111 H 476.859 -4.06889 -1.09634 0
M  V30 5112 H 475.534 -2.91447 -1.40855 0
M  V30 5113 H 474.441 -3.6574 0.786451 0
M  V30 5114 H 475.774 -4.81611 1.01547 0
M  V30 5115 N 477.426 -0.562348 -1.47226 0
M  V30 5116 C 478.336 0.185466 -2.33866 0
M  V30 5117 C 479.352 0.906713 -1.48508 0
M  V30 5118 O 480.528 0.874458 -1.81425 0
M  V30 5119 C 477.593 1.19904 -3.25306 0
M  V30 5120 C 476.654 0.484669 -4.26555 0
M  V30 5121 C 475.887 1.44996 -5.13626 0
M  V30 5122 O 476.11 2.68515 -5.03245 0
M  V30 5123 O 475.044 0.971642 -5.94006 0
M  V30 5124 H 478.87 -0.525361 -2.99121 0
M  V30 5125 H 476.455 -0.322916 -1.45868 0
M  V30 5126 H 478.337 1.78399 -3.81774 0
M  V30 5127 H 477.012 1.8917 -2.62672 0
M  V30 5128 H 475.919 -0.141605 -3.73832 0
M  V30 5129 H 477.252 -0.166634 -4.91918 0
M  V30 5130 N 478.904 1.54736 -0.299062 0
M  V30 5131 C 479.867 2.22127 0.565012 0
M  V30 5132 C 480.867 1.20669 1.06281 0
M  V30 5133 O 482.057 1.45417 0.959145 0
M  V30 5134 C 479.189 2.90611 1.78208 0
M  V30 5135 H 480.382 2.99891 -0.0237448 0
M  V30 5136 H 477.935 1.5622 -0.0498788 0
M  V30 5137 H 478.67 2.16921 2.41072 0
M  V30 5138 H 478.455 3.64984 1.43281 0
M  V30 5139 H 479.945 3.42026 2.396 0
M  V30 5140 N 480.382 0.0267497 1.57577 0
M  V30 5141 C 481.793 -0.512413 1.79531 0
M  V30 5142 C 482.144 -1.72391 0.936791 0
M  V30 5143 O 481.269 -2.15903 0.146543 0
M  V30 5144 C 481.864 -0.936378 3.25603 0
M  V30 5145 C 480.423 -1.42067 3.4856 0
M  V30 5146 C 479.57 -0.384278 2.74624 0
M  V30 5147 H 482.521 0.252797 1.56674 0
M  V30 5148 H 482.542 -1.80088 3.35184 0
M  V30 5149 H 482.054 -0.0544332 3.88062 0
M  V30 5150 H 480.155 -2.32262 2.9135 0
M  V30 5151 H 480.268 -1.42968 4.57271 0
M  V30 5152 H 478.632 -0.851855 2.40032 0
M  V30 5153 H 479.415 0.489159 3.39797 0
M  V30 5154 N 481.861 -1.55662 -0.24637 0
M  V30 5155 C 482.791 -1.93377 -1.30873 0
M  V30 5156 C 483.772 -0.798773 -1.50179 0
M  V30 5157 O 484.957 -1.0591 -1.62778 0
M  V30 5158 C 482.087 -2.22893 -2.66338 0
M  V30 5159 C 481.041 -3.38649 -2.61727 0
M  V30 5160 C 480.367 -3.53708 -4.00992 0
M  V30 5161 C 481.667 -4.74323 -2.18666 0
M  V30 5162 H 483.361 -2.82363 -0.995552 0
M  V30 5163 H 480.907 -1.35854 -0.477464 0
M  V30 5164 H 482.86 -2.47866 -3.40794 0
M  V30 5165 H 481.584 -1.30733 -2.99293 0
M  V30 5166 H 480.243 -3.13685 -1.89729 0
M  V30 5167 H 479.891 -2.58967 -4.31214 0
M  V30 5168 H 479.591 -4.31551 -3.98795 0
M  V30 5169 H 481.115 -3.81003 -4.77147 0
M  V30 5170 H 482.529 -4.98665 -2.82854 0
M  V30 5171 H 480.926 -5.55273 -2.27579 0
M  V30 5172 H 481.996 -4.71349 -1.13834 0
M  V30 5173 N 483.339 0.512053 -1.4905 0
M  V30 5174 C 484.286 1.6148 -1.64902 0
M  V30 5175 C 485.256 1.58687 -0.490673 0
M  V30 5176 O 486.441 1.76842 -0.71636 0
M  V30 5177 C 483.581 2.99676 -1.71139 0
M  V30 5178 C 482.694 3.12568 -2.98203 0
M  V30 5179 C 481.829 4.4143 -2.95487 0
M  V30 5180 C 480.868 4.47916 -4.17179 0
M  V30 5181 N 480.005 5.68191 -4.12437 0
M  V30 5182 H 484.845 1.47271 -2.59066 0
M  V30 5183 H 482.382 0.716713 -1.28459 0
M  V30 5184 H 484.34 3.79761 -1.72736 0
M  V30 5185 H 482.97 3.12614 -0.804508 0
M  V30 5186 H 482.022 2.25618 -3.06269 0
M  V30 5187 H 483.334 3.1322 -3.88194 0
M  V30 5188 H 482.488 5.29825 -2.95585 0
M  V30 5189 H 481.227 4.43326 -2.03256 0
M  V30 5190 H 480.232 3.57925 -4.17337 0
M  V30 5191 H 481.457 4.47744 -5.1059 0
M  V30 5192 H 479.403 5.7095 -3.23036 0
M  V30 5193 H 479.32 5.70413 -4.96151 0
M  V30 5194 H 480.588 6.58823 -4.16621 0
M  V30 5195 N 484.817 1.37938 0.762283 0
M  V30 5196 C 485.747 1.37176 1.88958 0
M  V30 5197 C 486.728 0.238945 1.68413 0
M  V30 5198 O 487.913 0.440726 1.89133 0
M  V30 5199 C 485.043 1.18742 3.2637 0
M  V30 5200 C 483.997 2.29136 3.61498 0
M  V30 5201 C 483.323 1.95816 4.97554 0
M  V30 5202 C 484.623 3.71363 3.6727 0
M  V30 5203 H 486.317 2.31509 1.89853 0
M  V30 5204 H 483.863 1.11438 0.912005 0
M  V30 5205 H 485.816 1.16837 4.04879 0
M  V30 5206 H 484.54 0.208683 3.25933 0
M  V30 5207 H 483.199 2.30213 2.85303 0
M  V30 5208 H 482.847 0.964475 4.93667 0
M  V30 5209 H 482.547 2.69745 5.22026 0
M  V30 5210 H 484.071 1.95513 5.78452 0
M  V30 5211 H 485.485 3.72364 4.35911 0
M  V30 5212 H 483.882 4.44425 4.03245 0
M  V30 5213 H 484.952 4.04305 2.67704 0
M  V30 5214 N 486.295 -0.989507 1.22664 0
M  V30 5215 C 487.52 -1.77031 1.08051 0
M  V30 5216 C 487.945 -1.84535 -0.364483 0
M  V30 5217 O 487.303 -1.3003 -1.2634 0
M  V30 5218 C 487.351 -3.18 1.70024 0
M  V30 5219 O 486.455 -4.01161 0.956216 0
M  V30 5220 H 485.796 -0.545008 0.379292 0
M  V30 5221 H 488.326 -1.24277 1.62531 0
M  V30 5222 H 488.336 -3.68616 1.74888 0
M  V30 5223 H 487.011 -3.11853 2.75174 0
M  V30 5224 H 485.588 -3.59687 0.98384 0
M  V30 5225 N 487.773 -1.03688 -1.18687 0
M  V30 5226 C 488.72 -0.624624 -2.22187 0
M  V30 5227 C 489.69 0.365636 -1.62026 0
M  V30 5228 O 490.875 0.260481 -1.89014 0
M  V30 5229 C 488.015 0.0101738 -3.45099 0
M  V30 5230 C 487.128 -1.02709 -4.19613 0
M  V30 5231 C 486.263 -0.361213 -5.2997 0
M  V30 5232 C 485.302 -1.38384 -5.96252 0
M  V30 5233 N 484.439 -0.743196 -6.98155 0
M  V30 5234 H 489.279 -1.51176 -2.56807 0
M  V30 5235 H 486.816 -0.75636 -1.26165 0
M  V30 5236 H 488.774 0.395528 -4.15321 0
M  V30 5237 H 487.404 0.860848 -3.1111 0
M  V30 5238 H 486.456 -1.53043 -3.48256 0
M  V30 5239 H 487.768 -1.80398 -4.65036 0
M  V30 5240 H 486.922 0.0785537 -6.06649 0
M  V30 5241 H 485.661 0.447799 -4.8564 0
M  V30 5242 H 484.666 -1.83378 -5.18317 0
M  V30 5243 H 485.891 -2.19448 -6.42666 0
M  V30 5244 H 483.837 0.0455789 -6.55984 0
M  V30 5245 H 483.754 -1.45784 -7.41811 0
M  V30 5246 H 485.022 -0.327698 -7.78811 0
M  V30 5247 N 489.251 1.34841 -0.815825 0
M  V30 5248 C 490.214 2.27959 -0.238185 0
M  V30 5249 C 491.214 1.49983 0.579816 0
M  V30 5250 O 492.404 1.69617 0.396953 0
M  V30 5251 C 489.536 3.34314 0.666876 0
M  V30 5252 H 490.729 2.80558 -1.05958 0
M  V30 5253 H 488.282 1.44852 -0.587156 0
M  V30 5254 H 489.017 2.86916 1.5116 0
M  V30 5255 H 488.802 3.92014 0.0819106 0
M  V30 5256 H 490.292 4.0379 1.06506 0
M  V30 5257 N 490.729 0.570148 1.46925 0
M  V30 5258 C 491.975 0.0510284 2.02736 0
M  V30 5259 C 492.308 -1.3006 1.44215 0
M  V30 5260 O 491.583 -1.84932 0.602521 0
M  V30 5261 C 491.866 -0.028215 3.60089 0
M  V30 5262 C 491.719 1.35142 4.29018 0
M  V30 5263 C 493.038 -0.735181 4.33916 0
M  V30 5264 H 490.157 0.0200178 0.736728 0
M  V30 5265 H 492.799 0.73493 1.75211 0
M  V30 5266 H 490.949 -0.610648 3.83671 0
M  V30 5267 H 492.621 1.97806 4.16738 0
M  V30 5268 H 490.864 1.9226 3.88868 0
M  V30 5269 H 491.535 1.24857 5.37694 0
M  V30 5270 H 494.011 -0.240519 4.15404 0
M  V30 5271 H 492.887 -0.759622 5.43618 0
M  V30 5272 H 493.148 -1.79397 4.04066 0
M  V30 5273 N 492.207 -1.54576 0.307264 0
M  V30 5274 C 493.157 -2.20467 -0.581249 0
M  V30 5275 C 494.141 -1.17972 -1.09414 0
M  V30 5276 O 495.333 -1.43667 -1.03387 0
M  V30 5277 C 492.462 -2.95369 -1.74963 0
M  V30 5278 C 491.548 -4.05186 -1.25241 0
M  V30 5279 N 491.939 -5.03577 -0.47364 0
M  V30 5280 C 490.237 -4.18841 -1.53259 0
M  V30 5281 C 490.938 -5.81328 -0.208083 0
M  V30 5282 N 489.914 -5.37834 -0.789651 0
M  V30 5283 H 493.716 -2.93892 0.0212221 0
M  V30 5284 H 491.23 -1.62011 0.112325 0
M  V30 5285 H 493.227 -3.41046 -2.39777 0
M  V30 5286 H 491.887 -2.23461 -2.35574 0
M  V30 5287 H 492.898 -5.17766 -0.117963 0
M  V30 5288 H 489.575 -3.58141 -2.14573 0
M  V30 5289 H 490.965 -6.706 0.417793 0
M  V30 5290 N 493.685 -0.035106 -1.57561 0
M  V30 5291 C 494.632 0.94474 -2.10578 0
M  V30 5292 C 495.602 1.3192 -1.00927 0
M  V30 5293 O 496.787 1.41147 -1.28382 0
M  V30 5294 C 493.927 2.21982 -2.64231 0
M  V30 5295 C 493.04 1.90128 -3.87911 0
M  V30 5296 C 492.175 3.11975 -4.29936 0
M  V30 5297 C 491.214 2.75968 -5.46359 0
M  V30 5298 N 490.351 3.90459 -5.83512 0
M  V30 5299 H 495.191 0.485717 -2.94015 0
M  V30 5300 H 492.728 0.228143 -1.4532 0
M  V30 5301 H 494.686 2.96572 -2.9343 0
M  V30 5302 H 493.316 2.6549 -1.83616 0
M  V30 5303 H 492.368 1.05755 -3.65404 0
M  V30 5304 H 493.68 1.59613 -4.72573 0
M  V30 5305 H 492.834 3.9488 -4.60603 0
M  V30 5306 H 491.573 3.45657 -3.44053 0
M  V30 5307 H 490.578 1.91478 -5.1538 0
M  V30 5308 H 491.803 2.43497 -6.33945 0
M  V30 5309 H 489.749 4.23971 -5.00584 0
M  V30 5310 H 489.666 3.63588 -6.62827 0
M  V30 5311 H 490.934 4.7405 -6.18787 0
M  V30 5312 N 495.163 1.55791 0.238111 0
M  V30 5313 C 496.126 1.90239 1.27835 0
M  V30 5314 C 497.126 0.779552 1.4064 0
M  V30 5315 O 498.316 1.04747 1.3919 0
M  V30 5316 C 495.448 2.13859 2.65475 0
M  V30 5317 H 496.641 2.83262 0.985034 0
M  V30 5318 H 494.194 1.48818 0.477799 0
M  V30 5319 H 494.929 1.23334 2.99932 0
M  V30 5320 H 494.714 2.95643 2.57561 0
M  V30 5321 H 496.204 2.41664 3.40571 0
M  V30 5322 N 496.642 -0.504142 1.49319 0
M  V30 5323 C 497.888 -1.26033 1.58882 0
M  V30 5324 C 498.221 -1.92268 0.273274 0
M  V30 5325 O 497.496 -1.80567 -0.72291 0
M  V30 5326 C 497.779 -2.32976 2.7458 0
M  V30 5327 C 497.632 -1.71263 4.1592 0
M  V30 5328 C 498.951 -3.34561 2.85932 0
M  V30 5329 H 496.07 -0.456863 0.578312 0
M  V30 5330 H 498.712 -0.558965 1.81592 0
M  V30 5331 H 496.862 -2.92796 2.55348 0
M  V30 5332 H 498.534 -1.15294 4.4666 0
M  V30 5333 H 496.777 -1.01686 4.21714 0
M  V30 5334 H 497.448 -2.48816 4.92742 0
M  V30 5335 H 499.924 -2.84727 3.0343 0
M  V30 5336 H 498.8 -4.06754 3.68568 0
M  V30 5337 H 499.061 -3.96695 1.95154 0
M  V30 5338 N 498.12 -1.38341 -0.754957 0
M  V30 5339 C 499.05 -1.38176 -1.88227 0
M  V30 5340 C 500.031 -0.247873 -1.68284 0
M  V30 5341 O 501.216 -0.45075 -1.88896 0
M  V30 5342 C 498.346 -1.20471 -3.25736 0
M  V30 5343 C 497.3 -2.3105 -3.60278 0
M  V30 5344 C 496.626 -1.98452 -4.96509 0
M  V30 5345 C 497.926 -3.73305 -3.65295 0
M  V30 5346 H 499.62 -2.32512 -1.88622 0
M  V30 5347 H 497.166 -1.1192 -0.906082 0
M  V30 5348 H 499.119 -1.18982 -4.04254 0
M  V30 5349 H 497.843 -0.225965 -3.25817 0
M  V30 5350 H 496.502 -2.31723 -2.84078 0
M  V30 5351 H 496.15 -0.990641 -4.93148 0
M  V30 5352 H 495.85 -2.7251 -5.20588 0
M  V30 5353 H 497.374 -1.98578 -5.77407 0
M  V30 5354 H 498.788 -3.7467 -4.3393 0
M  V30 5355 H 497.185 -4.46557 -4.00883 0
M  V30 5356 H 498.255 -4.05719 -2.65556 0
M  V30 5357 N 499.598 0.982988 -1.23187 0
M  V30 5358 C 500.826 1.75921 -1.08901 0
M  V30 5359 C 501.241 1.85341 0.359719 0
M  V30 5360 O 500.598 1.33072 1.24892 0
M  V30 5361 C 500.649 3.18742 -1.70545 0
M  V30 5362 O 500.37 3.09814 -3.09753 0
M  V30 5363 C 501.871 4.1277 -1.61667 0
M  V30 5364 H 499.091 0.552166 -0.381252 0
M  V30 5365 H 501.635 1.23516 -1.62985 0
M  V30 5366 H 499.79 3.68182 -1.20501 0
M  V30 5367 H 500.204 3.99703 -3.39614 0
M  V30 5368 H 501.678 5.10697 -2.09506 0
M  V30 5369 H 502.155 4.3542 -0.575009 0
M  V30 5370 H 502.761 3.69232 -2.11064 0
M  V30 5371 N 501.076 1.04316 1.18135 0
M  V30 5372 C 502.325 0.74319 1.87509 0
M  V30 5373 C 502.638 -0.732136 1.81381 0
M  V30 5374 O 503.844 -1.14572 2.46141 0
M  V30 5375 C 502.3 1.27913 3.36402 0
M  V30 5376 C 501.908 2.78326 3.51053 0
M  V30 5377 C 503.652 1.0558 4.11161 0
M  V30 5378 C 501.559 3.25266 4.93919 0
M  V30 5379 H 500.489 0.274313 0.702331 0
M  V30 5380 H 503.14 1.25931 1.33467 0
M  V30 5381 H 501.522 0.690853 3.89927 0
M  V30 5382 H 502.696 3.42933 3.07788 0
M  V30 5383 H 501.011 2.991 2.89704 0
M  V30 5384 H 503.608 1.38161 5.16542 0
M  V30 5385 H 503.951 -0.00684729 4.16299 0
M  V30 5386 H 504.484 1.60882 3.63816 0
M  V30 5387 H 501.223 4.30922 4.9395 0
M  V30 5388 H 500.743 2.65396 5.3789 0
M  V30 5389 H 502.422 3.19433 5.62647 0
M  V30 5390 N 502.554 -1.34406 0.822964 0
M  V30 5391 C 503.831 -1.92733 0.333641 0
M  V30 5392 C 504.211 -1.75107 -1.17901 0
M  V30 5393 O 503.559 -1.12983 -1.98613 0
M  V30 5394 C 503.769 -3.40557 0.763023 0
M  V30 5395 C 505.117 -4.17709 0.761879 0
M  V30 5396 O 506.141 -3.49141 0.705606 0
M  V30 5397 O 505 -5.40082 0.835109 0
M  V30 5398 H 502.094 -0.821964 0.0911249 0
M  V30 5399 H 504.64 -1.4338 0.907757 0
M  V30 5400 H 503.412 -3.47187 1.8049 0
M  V30 5401 H 503.035 -3.97259 0.164605 0
M  V30 5402 N 504.032 -0.577932 -1.46621 0
M  V30 5403 C 504.942 0.160651 -2.34049 0
M  V30 5404 C 505.958 0.890911 -1.49462 0
M  V30 5405 O 507.134 0.855166 -1.82343 0
M  V30 5406 C 504.199 1.16447 -3.26559 0
M  V30 5407 C 503.26 0.4394 -4.27045 0
M  V30 5408 C 502.493 1.3954 -5.15135 0
M  V30 5409 O 502.716 2.63162 -5.06065 0
M  V30 5410 O 501.65 0.908585 -5.95003 0
M  V30 5411 H 505.476 -0.557057 -2.98547 0
M  V30 5412 H 503.061 -0.338369 -1.45518 0
M  V30 5413 H 504.943 1.7434 -3.83645 0
M  V30 5414 H 503.618 1.86373 -2.64663 0
M  V30 5415 H 502.525 -0.181247 -3.73661 0
M  V30 5416 H 503.858 -0.218799 -4.91713 0
M  V30 5417 N 505.51 1.54411 -0.315457 0
M  V30 5418 C 506.457 2.24048 0.554166 0
M  V30 5419 C 507.427 1.2283 1.11812 0
M  V30 5420 O 508.612 1.51491 1.15997 0
M  V30 5421 C 505.752 2.99574 1.71316 0
M  V30 5422 C 504.865 4.15594 1.17922 0
M  V30 5423 C 504 4.78669 2.30324 0
M  V30 5424 C 503.039 5.86807 1.74137 0
M  V30 5425 N 502.176 6.43777 2.8017 0
M  V30 5426 H 507.016 2.97964 -0.0462602 0
M  V30 5427 H 504.553 1.47059 -0.0346009 0
M  V30 5428 H 506.511 3.41604 2.39505 0
M  V30 5429 H 505.141 2.28008 2.285 0
M  V30 5430 H 504.193 3.78404 0.389136 0
M  V30 5431 H 505.505 4.93459 0.728012 0
M  V30 5432 H 504.659 5.23626 3.06433 0
M  V30 5433 H 503.398 4.00168 2.78778 0
M  V30 5434 H 502.403 5.41261 0.965236 0
M  V30 5435 H 503.628 6.67201 1.2657 0
M  V30 5436 H 501.574 5.68153 3.2793 0
M  V30 5437 H 501.491 7.17031 2.39588 0
M  V30 5438 H 502.759 6.9339 3.56132 0
M  V30 5439 N 506.988 0.0434614 1.5754 0
M  V30 5440 C 508.236 -0.630786 1.92004 0
M  V30 5441 C 508.557 -1.71836 0.921807 0
M  V30 5442 O 507.827 -1.9587 -0.034522 0
M  V30 5443 H 506.407 -0.235988 0.708745 0
M  V30 5444 H 509.069 0.0946462 1.9467 0
M  V30 5445 H 508.165 -1.07434 2.93026 0
M  V30 5446 N 508.466 -1.55915 -0.229846 0
M  V30 5447 C 509.694 -1.82617 -0.972562 0
M  V30 5448 C 510.109 -0.621488 -1.78278 0
M  V30 5449 O 509.466 0.409956 -1.77836 0
M  V30 5450 C 509.517 -3.0774 -1.89679 0
M  V30 5451 O 509.238 -4.23559 -1.11934 0
M  V30 5452 C 510.739 -3.47368 -2.75409 0
M  V30 5453 H 507.959 -0.60727 -0.285419 0
M  V30 5454 H 510.503 -2.02996 -0.247579 0
M  V30 5455 H 508.658 -2.89361 -2.57583 0
M  V30 5456 H 509.072 -4.94586 -1.74599 0
M  V30 5457 H 510.546 -4.37977 -3.35977 0
M  V30 5458 H 511.023 -2.68737 -3.47386 0
M  V30 5459 H 511.629 -3.68158 -2.12931 0
M  V30 5460 N 509.944 0.496216 -1.49584 0
M  V30 5461 C 510.854 1.62352 -1.69349 0
M  V30 5462 C 511.87 1.64184 -0.576147 0
M  V30 5463 O 513.046 1.82517 -0.85144 0
M  V30 5464 C 510.111 2.98698 -1.76013 0
M  V30 5465 C 509.172 3.07454 -2.99617 0
M  V30 5466 C 508.405 4.37296 -3.05953 0
M  V30 5467 O 508.628 5.2637 -2.19752 0
M  V30 5468 O 507.562 4.51124 -3.9846 0
M  V30 5469 H 511.388 1.48606 -2.64859 0
M  V30 5470 H 508.973 0.673022 -1.33382 0
M  V30 5471 H 510.855 3.79725 -1.82721 0
M  V30 5472 H 509.53 3.12696 -0.836828 0
M  V30 5473 H 508.437 2.25597 -2.98424 0
M  V30 5474 H 509.77 2.98385 -3.91443 0
M  V30 5475 N 511.423 1.38739 0.74761 0
M  V30 5476 C 512.386 1.36241 1.84312 0
M  V30 5477 C 513.386 0.261811 1.58654 0
M  V30 5478 O 514.576 0.519031 1.66288 0
M  V30 5479 C 511.708 1.12253 3.21888 0
M  V30 5480 H 512.901 2.33712 1.87933 0
M  V30 5481 H 510.454 1.2412 0.949946 0
M  V30 5482 H 511.189 0.154133 3.23934 0
M  V30 5483 H 510.974 1.91943 3.41907 0
M  V30 5484 H 512.464 1.13215 4.0196 0
M  V30 5485 N 512.901 -0.976442 1.23707 0
M  V30 5486 C 513.864 -2.0511 1.02287 0
M  V30 5487 C 514.864 -1.60791 -0.0167195 0
M  V30 5488 O 516.054 -1.72761 0.223408 0
M  V30 5489 C 513.186 -3.36458 0.548507 0
M  V30 5490 H 514.379 -2.25545 1.9766 0
M  V30 5491 H 511.932 -1.15042 1.05806 0
M  V30 5492 H 512.667 -3.21713 -0.408818 0
M  V30 5493 H 512.452 -3.69967 1.29874 0
M  V30 5494 H 513.942 -4.15489 0.419406 0
M  V30 5495 N 514.379 -1.04941 -1.1758 0
M  V30 5496 C 515.627 -0.756492 -1.87408 0
M  V30 5497 C 515.948 0.718478 -1.81281 0
M  V30 5498 O 515.218 1.519 -1.23706 0
M  V30 5499 H 513.798 -0.276841 -0.693807 0
M  V30 5500 H 516.46 -1.32803 -1.42652 0
M  V30 5501 H 515.556 -1.06918 -2.93215 0
M  V30 5502 N 515.857 1.33968 -0.830081 0
M  V30 5503 C 516.82 2.27694 -0.26235 0
M  V30 5504 C 517.82 1.50589 0.563876 0
M  V30 5505 O 519.01 1.70028 0.378941 0
M  V30 5506 C 516.142 3.35002 0.63138 0
M  V30 5507 H 517.335 2.79419 -1.08928 0
M  V30 5508 H 514.888 1.44221 -0.602486 0
M  V30 5509 H 515.623 2.88504 1.48109 0
M  V30 5510 H 515.408 3.92079 0.0403276 0
M  V30 5511 H 516.898 4.04897 1.02217 0
M  V30 5512 N 517.335 0.585699 1.46312 0
M  V30 5513 C 518.268 -0.194257 2.27372 0
M  V30 5514 C 519.246 -0.894116 1.3581 0
M  V30 5515 O 520.43 -0.907402 1.65222 0
M  V30 5516 C 517.557 -1.27901 3.13622 0
M  V30 5517 C 516.603 -0.684666 4.20969 0
M  V30 5518 S 517.436 0.490745 5.33247 0
M  V30 5519 C 518.592 -0.595137 6.23064 0
M  V30 5520 H 518.825 0.493515 2.93175 0
M  V30 5521 H 516.358 0.372666 1.49835 0
M  V30 5522 H 518.316 -1.90008 3.63878 0
M  V30 5523 H 516.977 -1.93875 2.47126 0
M  V30 5524 H 516.17 -1.50015 4.81156 0
M  V30 5525 H 515.772 -0.139204 3.73741 0
M  V30 5526 H 518.064 -1.48002 6.61137 0
M  V30 5527 H 519.007 -0.0299446 7.08094 0
M  V30 5528 H 519.415 -0.900627 5.57269 0
M  V30 5529 N 518.813 -1.54241 0.323641 0
M  V30 5530 C 520.06 -2.0057 -0.27891 0
M  V30 5531 C 520.388 -1.21181 -1.52136 0
M  V30 5532 O 519.643 -0.282043 -1.93657 0
M  V30 5533 C 519.942 -3.5129 -0.658031 0
M  V30 5534 C 519.608 -4.48281 0.485252 0
M  V30 5535 C 518.27 -4.74519 0.799055 0
M  V30 5536 C 520.622 -5.05909 1.25322 0
M  V30 5537 C 517.95 -5.55643 1.88354 0
M  V30 5538 C 520.302 -5.88215 2.32779 0
M  V30 5539 C 518.966 -6.12755 2.64741 0
M  V30 5540 H 518.236 -0.733938 -0.10206 0
M  V30 5541 H 520.883 -1.862 0.447435 0
M  V30 5542 H 519.188 -3.63388 -1.4648 0
M  V30 5543 H 520.885 -3.84578 -1.1358 0
M  V30 5544 H 517.475 -4.27979 0.230593 0
M  V30 5545 H 521.659 -4.8562 1.02404 0
M  V30 5546 H 516.915 -5.72888 2.13564 0
M  V30 5547 H 521.089 -6.31888 2.92729 0
M  V30 5548 H 518.716 -6.75404 3.48904 0
M  V30 5549 N 520.291 -0.0518155 -1.57515 0
M  V30 5550 C 521.221 0.920283 -2.146 0
M  V30 5551 C 522.202 1.32406 -1.06783 0
M  V30 5552 O 523.387 1.39866 -1.34726 0
M  V30 5553 C 520.517 2.1949 -2.6915 0
M  V30 5554 C 519.471 1.93116 -3.81956 0
M  V30 5555 C 518.797 3.27037 -4.23026 0
M  V30 5556 C 520.097 1.25225 -5.07066 0
M  V30 5557 H 521.791 0.444801 -2.96077 0
M  V30 5558 H 519.337 0.212508 -1.42423 0
M  V30 5559 H 521.29 2.87894 -3.07725 0
M  V30 5560 H 520.014 2.69244 -1.84865 0
M  V30 5561 H 518.673 1.27123 -3.43854 0
M  V30 5562 H 518.321 3.74595 -3.3569 0
M  V30 5563 H 518.021 3.10189 -4.99056 0
M  V30 5564 H 519.545 3.96673 -4.64202 0
M  V30 5565 H 520.959 1.83666 -5.43083 0
M  V30 5566 H 519.356 1.18702 -5.88243 0
M  V30 5567 H 520.426 0.228382 -4.84362 0
M  V30 5568 N 521.769 1.56035 0.221574 0
M  V30 5569 C 522.679 1.95581 1.29558 0
M  V30 5570 C 523.695 0.859639 1.51282 0
M  V30 5571 O 524.871 1.16321 1.64413 0
M  V30 5572 C 521.936 2.26447 2.62531 0
M  V30 5573 C 520.997 3.49632 2.4911 0
M  V30 5574 C 520.23 3.79017 3.75742 0
M  V30 5575 O 520.453 3.10077 4.78757 0
M  V30 5576 O 519.387 4.72507 3.72855 0
M  V30 5577 H 523.213 2.8711 0.990035 0
M  V30 5578 H 520.798 1.43244 0.424434 0
M  V30 5579 H 522.68 2.47494 3.41064 0
M  V30 5580 H 521.355 1.38092 2.92766 0
M  V30 5581 H 520.262 3.33864 1.68777 0
M  V30 5582 H 521.595 4.3837 2.23814 0
M  V30 5583 N 523.247 -0.488276 1.49845 0
M  V30 5584 C 524.21 -1.57069 1.66919 0
M  V30 5585 C 525.21 -1.51445 0.540479 0
M  V30 5586 O 526.4 -1.5437 0.807188 0
M  V30 5587 C 523.532 -2.96718 1.67844 0
M  V30 5588 H 524.725 -1.43254 2.63474 0
M  V30 5589 H 522.278 -0.713435 1.39068 0
M  V30 5590 H 523.013 -3.15996 0.7292 0
M  V30 5591 H 522.798 -3.02208 2.49826 0
M  V30 5592 H 524.288 -3.75335 1.83066 0
M  V30 5593 N 524.725 -1.39134 -0.740242 0
M  V30 5594 C 525.974 -1.35384 -1.49512 0
M  V30 5595 C 526.287 0.04919 -1.95538 0
M  V30 5596 O 527.493 0.209257 -2.70692 0
M  V30 5597 C 525.949 -2.37812 -2.70136 0
M  V30 5598 C 525.557 -3.83804 -2.31081 0
M  V30 5599 C 527.301 -2.4313 -3.47977 0
M  V30 5600 C 525.208 -4.77886 -3.48395 0
M  V30 5601 H 524.138 -0.503297 -0.561434 0
M  V30 5602 H 526.789 -1.64754 -0.807974 0
M  V30 5603 H 525.171 -2.01505 -3.40899 0
M  V30 5604 H 526.345 -4.29123 -1.67898 0
M  V30 5605 H 524.66 -3.81732 -1.66343 0
M  V30 5606 H 527.257 -3.10614 -4.35228 0
M  V30 5607 H 527.6 -1.45423 -3.90074 0
M  V30 5608 H 528.133 -2.78304 -2.84239 0
M  V30 5609 H 524.872 -5.76836 -3.11353 0
M  V30 5610 H 524.392 -4.3725 -4.10576 0
M  V30 5611 H 526.071 -4.96538 -4.148 0
M  V30 5612 N 526.204 0.969867 -1.24223 0
M  V30 5613 C 527.615 1.52717 -1.07399 0
M  V30 5614 C 527.966 1.92956 0.355298 0
M  V30 5615 O 527.091 1.77112 1.2434 0
M  V30 5616 C 527.686 2.77521 -1.94339 0
M  V30 5617 C 526.245 3.29615 -1.81744 0
M  V30 5618 C 525.392 2.02537 -1.89405 0
M  V30 5619 H 528.343 0.788399 -1.37732 0
M  V30 5620 H 528.364 3.50773 -1.47439 0
M  V30 5621 H 527.876 2.48203 -2.98357 0
M  V30 5622 H 525.977 3.63789 -0.805505 0
M  V30 5623 H 526.09 3.98661 -2.65718 0
M  V30 5624 H 524.454 2.17151 -1.33108 0
M  V30 5625 H 525.237 1.75587 -2.94999 0
M  V30 5626 N 527.682 1.05563 1.17022 0
M  V30 5627 C 528.615 0.604197 2.20056 0
M  V30 5628 C 529.593 -0.369169 1.58354 0
M  V30 5629 O 530.777 -0.279898 1.8641 0
M  V30 5630 C 527.904 -0.115265 3.38504 0
M  V30 5631 C 526.95 0.813698 4.18666 0
M  V30 5632 S 527.783 2.30492 4.83357 0
M  V30 5633 C 528.939 1.59674 6.0519 0
M  V30 5634 H 529.172 1.47713 2.58008 0
M  V30 5635 H 526.705 0.867932 1.27696 0
M  V30 5636 H 528.663 -0.524162 4.0714 0
M  V30 5637 H 527.324 -0.964284 2.98932 0
M  V30 5638 H 526.517 0.256736 5.03346 0
M  V30 5639 H 526.119 1.16213 3.55486 0
M  V30 5640 H 528.411 0.898164 6.7152 0
M  V30 5641 H 529.354 2.42115 6.65422 0
M  V30 5642 H 529.762 1.08252 5.54023 0
M  V30 5643 N 529.16 -1.33526 0.837174 0
M  V30 5644 C 530.385 -2.0258 0.444545 0
M  V30 5645 C 530.81 -1.6258 -0.946006 0
M  V30 5646 O 530.168 -0.817548 -1.6182 0
M  V30 5647 C 530.216 -3.5605 0.571006 0
M  V30 5648 O 529.32 -4.10422 -0.403431 0
M  V30 5649 H 528.661 -0.638866 0.180958 0
M  V30 5650 H 531.191 -1.70462 1.13154 0
M  V30 5651 H 531.201 -4.05488 0.452024 0
M  V30 5652 H 529.876 -3.84509 1.58512 0
M  V30 5653 H 528.453 -3.72113 -0.242147 0
M  V30 5654 N 530.638 -0.59345 -1.46 0
M  V30 5655 C 531.887 -0.0808084 -2.01538 0
M  V30 5656 C 532.2 1.29112 -1.46934 0
M  V30 5657 O 533.406 1.8957 -1.94359 0
M  V30 5658 C 531.862 -0.0938311 -3.59778 0
M  V30 5659 C 531.47 -1.46474 -4.23379 0
M  V30 5660 C 533.214 0.364306 -4.22934 0
M  V30 5661 C 531.121 -1.4349 -5.73729 0
M  V30 5662 H 530.051 -0.0264407 -0.753536 0
M  V30 5663 H 532.702 -0.746689 -1.67621 0
M  V30 5664 H 531.084 0.638427 -3.9082 0
M  V30 5665 H 532.258 -2.21758 -4.03931 0
M  V30 5666 H 530.573 -1.86379 -3.7236 0
M  V30 5667 H 533.17 0.405584 -5.3316 0
M  V30 5668 H 533.513 1.38409 -3.92618 0
M  V30 5669 H 534.046 -0.31423 -3.96557 0
M  V30 5670 H 530.785 -2.43184 -6.08722 0
M  V30 5671 H 530.305 -0.724431 -5.95409 0
M  V30 5672 H 531.984 -1.15243 -6.36654 0
M  V30 5673 N 532.116 1.54067 -0.331816 0
M  V30 5674 C 533.527 1.86059 0.15454 0
M  V30 5675 C 533.878 1.25331 1.50952 0
M  V30 5676 O 533.003 0.562441 2.08963 0
M  V30 5677 C 533.598 3.37581 0.287192 0
M  V30 5678 C 532.157 3.69493 0.717773 0
M  V30 5679 C 531.304 2.76863 -0.155569 0
M  V30 5680 H 534.255 1.48797 -0.55182 0
M  V30 5681 H 534.276 3.63744 1.11671 0
M  V30 5682 H 533.788 3.81751 -0.699131 0
M  V30 5683 H 531.889 3.3086 1.71354 0
M  V30 5684 H 532.002 4.76315 0.5158 0
M  V30 5685 H 530.366 2.51995 0.370213 0
M  V30 5686 H 531.149 3.23861 -1.13881 0
M  V30 5687 N 533.594 0.0601682 1.57485 0
M  V30 5688 C 535.005 -0.474217 1.80577 0
M  V30 5689 C 535.356 -1.70365 0.973147 0
M  V30 5690 O 534.481 -2.15544 0.192306 0
M  V30 5691 C 535.076 -0.867102 3.27516 0
M  V30 5692 C 533.635 -1.34642 3.51495 0
M  V30 5693 C 532.782 -0.32594 2.75378 0
M  V30 5694 H 535.733 0.285973 1.56102 0
M  V30 5695 H 535.754 -1.72938 3.38929 0
M  V30 5696 H 535.266 0.0278927 3.8809 0
M  V30 5697 H 533.367 -2.2603 2.96212 0
M  V30 5698 H 533.48 -1.33237 4.60201 0
M  V30 5699 H 531.844 -0.800749 2.41785 0
M  V30 5700 H 532.627 0.561125 3.38683 0
M  V30 5701 N 535.072 -1.5615 -0.213296 0
M  V30 5702 C 535.982 -1.96265 -1.28519 0
M  V30 5703 C 536.998 -0.86765 -1.50824 0
M  V30 5704 O 538.174 -1.17191 -1.63793 0
M  V30 5705 C 535.239 -2.27836 -2.61327 0
M  V30 5706 C 534.3 -3.50949 -2.47252 0
M  V30 5707 C 533.533 -3.81004 -3.73727 0
M  V30 5708 O 533.756 -3.12612 -4.77106 0
M  V30 5709 O 532.69 -4.74477 -3.70344 0
M  V30 5710 H 536.516 -2.87631 -0.974795 0
M  V30 5711 H 534.101 -1.43467 -0.416832 0
M  V30 5712 H 535.983 -2.49299 -3.39747 0
M  V30 5713 H 534.658 -1.39643 -2.9203 0
M  V30 5714 H 533.565 -3.34754 -1.67004 0
M  V30 5715 H 534.898 -4.39551 -2.21486 0
M  V30 5716 N 536.55 0.480323 -1.50102 0
M  V30 5717 C 537.796 1.23489 -1.60867 0
M  V30 5718 C 538.129 1.91809 -0.303827 0
M  V30 5719 O 537.404 1.81694 0.694092 0
M  V30 5720 C 537.687 2.28578 -2.78252 0
M  V30 5721 C 537.54 1.64624 -4.18592 0
M  V30 5722 C 538.859 3.2997 -2.91218 0
M  V30 5723 H 535.978 0.447605 -0.585507 0
M  V30 5724 H 538.62 0.530005 -1.82458 0
M  V30 5725 H 536.77 2.88697 -2.59974 0
M  V30 5726 H 538.442 1.08173 -4.48438 0
M  V30 5727 H 536.685 0.949645 -4.23278 0
M  V30 5728 H 537.356 2.40946 -4.96638 0
M  V30 5729 H 539.832 2.79864 -3.07921 0
M  V30 5730 H 538.708 4.00839 -3.74993 0
M  V30 5731 H 538.969 3.93541 -2.0144 0
M  V30 5732 N 538.028 1.39524 0.732853 0
M  V30 5733 C 538.975 1.38416 1.84688 0
M  V30 5734 C 539.945 0.243539 1.64305 0
M  V30 5735 O 541.13 0.438979 1.85681 0
M  V30 5736 C 538.27 1.23555 3.22224 0
M  V30 5737 C 537.383 2.47179 3.54298 0
M  V30 5738 C 536.518 2.2489 4.81246 0
M  V30 5739 C 535.557 3.44178 5.0617 0
M  V30 5740 N 534.694 3.21192 6.24323 0
M  V30 5741 H 539.534 2.33645 1.84971 0
M  V30 5742 H 537.071 1.16059 0.903804 0
M  V30 5743 H 539.029 1.12949 4.0162 0
M  V30 5744 H 537.659 0.31954 3.21215 0
M  V30 5745 H 536.711 2.68379 2.69587 0
M  V30 5746 H 538.023 3.36022 3.68633 0
M  V30 5747 H 537.177 2.11538 5.68627 0
M  V30 5748 H 535.916 1.33443 4.69089 0
M  V30 5749 H 534.921 3.58025 4.17251 0
M  V30 5750 H 536.146 4.36528 5.20212 0
M  V30 5751 H 534.092 2.32413 6.1345 0
M  V30 5752 H 534.009 4.03594 6.39256 0
M  V30 5753 H 535.277 3.1154 7.14537 0
M  V30 5754 N 539.506 -0.963266 1.24736 0
M  V30 5755 C 540.753 -1.7068 1.0897 0
M  V30 5756 C 541.081 -1.90934 -0.370751 0
M  V30 5757 O 540.336 -1.47155 -1.29011 0
M  V30 5758 C 540.635 -3.09944 1.7796 0
M  V30 5759 C 540.301 -3.09518 3.27887 0
M  V30 5760 C 538.963 -3.09109 3.68789 0
M  V30 5761 C 541.315 -3.03509 4.23712 0
M  V30 5762 C 538.643 -3.00429 5.03944 0
M  V30 5763 C 540.995 -2.96371 5.5888 0
M  V30 5764 C 539.659 -2.94293 5.99123 0
M  V30 5765 H 538.929 -0.624564 0.398749 0
M  V30 5766 H 541.576 -1.12603 1.54896 0
M  V30 5767 H 539.881 -3.71513 1.2444 0
M  V30 5768 H 541.578 -3.66278 1.63222 0
M  V30 5769 H 538.168 -3.10603 2.95337 0
M  V30 5770 H 542.352 -3.0295 3.93109 0
M  V30 5771 H 537.608 -2.97183 5.34314 0
M  V30 5772 H 541.782 -2.90681 6.32833 0
M  V30 5773 H 539.409 -2.87322 7.03811 0
M  V30 5774 N 540.985 -1.06182 -1.16461 0
M  V30 5775 C 541.933 -0.665716 -2.2287 0
M  V30 5776 C 542.927 0.317822 -1.66392 0
M  V30 5777 O 544.133 0.182807 -1.79069 0
M  V30 5778 H 540.508 -0.197148 -0.725697 0
M  V30 5779 H 542.479 -1.57307 -2.53569 0
M  V30 5780 C 541.228 -0.0669803 -3.47635 0
M  V30 5781 H 540.551 -0.814899 -3.91407 0
M  V30 5782 H 541.991 0.172669 -4.23648 0
M  V30 5783 C 540.45 1.18913 -3.15216 0
M  V30 5784 O 540.98 2.27723 -3.30916 0
M  V30 5785 N 539.186 1.09066 -2.69357 0
M  V30 5786 H 538.733 0.20518 -2.56782 0
M  V30 5787 H 538.691 1.93195 -2.48039 0
M  V30 5788 N 542.463 1.3308 -0.844243 0
M  V30 5789 C 543.41 2.29104 -0.279323 0
M  V30 5790 C 544.38 1.54577 0.607882 0
M  V30 5791 O 545.565 1.8285 0.545009 0
M  V30 5792 C 542.705 3.40927 0.53508 0
M  V30 5793 C 541.818 4.30354 -0.376749 0
M  V30 5794 C 540.953 5.29297 0.449276 0
M  V30 5795 C 539.992 6.10365 -0.460606 0
M  V30 5796 N 539.129 7.01335 0.327612 0
M  V30 5797 H 543.969 2.76817 -1.10346 0
M  V30 5798 H 541.506 1.36203 -0.555611 0
M  V30 5799 H 543.464 4.04469 1.02278 0
M  V30 5800 H 542.094 2.94391 1.32414 0
M  V30 5801 H 541.146 3.67485 -0.982791 0
M  V30 5802 H 542.458 4.87067 -1.07549 0
M  V30 5803 H 541.612 5.98392 1.00058 0
M  V30 5804 H 540.351 4.73174 1.18143 0
M  V30 5805 H 539.356 5.40182 -1.02388 0
M  V30 5806 H 540.581 6.68571 -1.1912 0
M  V30 5807 H 538.527 6.47655 1.04305 0
M  V30 5808 H 538.444 7.55355 -0.3123 0
M  V30 5809 H 539.712 7.74731 0.86098 0
M  V30 5810 N 543.941 0.601185 1.45683 0
M  V30 5811 C 545.352 0.179659 1.85834 0
M  V30 5812 C 545.703 -1.26189 1.50236 0
M  V30 5813 O 544.828 -1.95587 0.925987 0
M  V30 5814 C 545.423 0.319277 3.37292 0
M  V30 5815 C 543.982 -0.0475092 3.7637 0
M  V30 5816 C 543.129 0.646692 2.69654 0
M  V30 5817 H 546.08 0.808268 1.36575 0
M  V30 5818 H 546.101 -0.4503 3.77826 0
M  V30 5819 H 545.613 1.36855 3.6317 0
M  V30 5820 H 543.714 -1.0962 3.5611 0
M  V30 5821 H 543.827 0.34168 4.7788 0
M  V30 5822 H 542.191 0.0849971 2.54558 0
M  V30 5823 H 542.974 1.69797 2.98369 0
M  V30 5824 N 545.419 -1.53889 0.339982 0
M  V30 5825 C 546.666 -2.00855 -0.257621 0
M  V30 5826 C 546.994 -1.22788 -1.50842 0
M  V30 5827 O 546.249 -0.302567 -1.93347 0
M  V30 5828 C 546.548 -3.51968 -0.620735 0
M  V30 5829 C 546.214 -4.47741 0.532771 0
M  V30 5830 C 544.876 -4.73645 0.849339 0
M  V30 5831 C 547.228 -5.04551 1.3068 0
M  V30 5832 C 544.556 -5.53614 1.94237 0
M  V30 5833 C 546.908 -5.85713 2.39005 0
M  V30 5834 C 545.572 -6.09912 2.71225 0
M  V30 5835 H 544.842 -0.734979 -0.0942703 0
M  V30 5836 H 547.489 -1.85714 0.467159 0
M  V30 5837 H 545.794 -3.64921 -1.42618 0
M  V30 5838 H 547.491 -3.85762 -1.09495 0
M  V30 5839 H 544.081 -4.27711 0.275973 0
M  V30 5840 H 548.265 -4.84507 1.07549 0
M  V30 5841 H 543.521 -5.7059 2.19628 0
M  V30 5842 H 547.695 -6.28748 2.99415 0
M  V30 5843 H 545.322 -6.71665 3.56047 0
M  V30 5844 N 546.897 -0.0685191 -1.57451 0
M  V30 5845 C 548.143 0.602239 -1.93652 0
M  V30 5846 C 548.476 1.6946 -0.948526 0
M  V30 5847 O 547.751 1.94487 0.022782 0
M  V30 5848 C 548.034 1.18223 -3.4014 0
M  V30 5849 C 547.887 0.0967431 -4.49696 0
M  V30 5850 C 549.206 2.08872 -3.87377 0
M  V30 5851 H 546.325 0.217453 -0.70419 0
M  V30 5852 H 548.967 -0.133821 -1.89528 0
M  V30 5853 H 547.117 1.80953 -3.43785 0
M  V30 5854 H 548.789 -0.536155 -4.58174 0
M  V30 5855 H 547.032 -0.573063 -4.29998 0
M  V30 5856 H 547.703 0.542894 -5.49324 0
M  V30 5857 H 550.179 1.56081 -3.85717 0
M  V30 5858 H 549.055 2.46389 -4.90493 0
M  V30 5859 H 549.316 2.99572 -3.25129 0
M  V30 5860 N 548.375 1.56261 0.205012 0
M  V30 5861 C 549.622 1.8004 0.926927 0
M  V30 5862 C 549.95 0.640086 1.83666 0
M  V30 5863 O 549.205 -0.374702 1.92079 0
M  V30 5864 C 549.504 3.09722 1.78345 0
M  V30 5865 C 549.17 4.39082 1.02555 0
M  V30 5866 C 547.832 4.74226 0.816256 0
M  V30 5867 C 550.184 5.18877 0.491559 0
M  V30 5868 C 547.512 5.86668 0.0613287 0
M  V30 5869 C 549.864 6.32105 -0.250107 0
M  V30 5870 C 548.528 6.6584 -0.470508 0
M  V30 5871 H 547.798 0.658812 0.339187 0
M  V30 5872 H 550.445 1.90515 0.19395 0
M  V30 5873 H 548.75 2.9444 2.5848 0
M  V30 5874 H 550.447 3.25324 2.34446 0
M  V30 5875 H 547.037 4.11497 1.19868 0
M  V30 5876 H 551.221 4.92147 0.640684 0
M  V30 5877 H 546.477 6.11283 -0.119501 0
M  V30 5878 H 550.651 6.93157 -0.671307 0
M  V30 5879 H 548.278 7.5281 -1.05739 0
M  V30 5880 N 549.853 -0.472356 1.50355 0
M  V30 5881 C 550.783 -1.57859 1.72055 0
M  V30 5882 C 551.764 -1.60283 0.569505 0
M  V30 5883 O 552.949 -1.7657 0.808503 0
M  V30 5884 C 550.079 -2.96191 1.81351 0
M  V30 5885 C 549.033 -3.08633 2.96529 0
M  V30 5886 C 548.359 -4.486 2.90968 0
M  V30 5887 C 549.659 -2.85969 4.37057 0
M  V30 5888 H 551.353 -1.39953 2.64676 0
M  V30 5889 H 548.899 -0.671846 1.27367 0
M  V30 5890 H 550.852 -3.73507 1.95117 0
M  V30 5891 H 549.576 -3.15251 0.853502 0
M  V30 5892 H 548.235 -2.33749 2.82413 0
M  V30 5893 H 547.883 -4.64577 1.92815 0
M  V30 5894 H 547.583 -4.57861 3.68289 0
M  V30 5895 H 549.107 -5.27938 3.0678 0
M  V30 5896 H 550.521 -3.53036 4.51706 0
M  V30 5897 H 548.918 -3.06677 5.15819 0
M  V30 5898 H 549.988 -1.81838 4.49514 0
M  V30 5899 N 551.331 -1.39911 -0.725443 0
M  V30 5900 C 552.264 -1.33788 -1.84867 0
M  V30 5901 C 553.242 -0.209907 -1.61239 0
M  V30 5902 O 554.426 -0.391943 -1.8438 0
M  V30 5903 C 551.553 -1.07975 -3.21028 0
M  V30 5904 C 550.599 -2.23092 -3.635 0
M  V30 5905 S 551.432 -3.85431 -3.71757 0
M  V30 5906 C 552.588 -3.61862 -5.10692 0
M  V30 5907 H 552.821 -2.28848 -1.89779 0
M  V30 5908 H 550.354 -1.26079 -0.891254 0
M  V30 5909 H 552.312 -0.937669 -3.99647 0
M  V30 5910 H 550.973 -0.145865 -3.13761 0
M  V30 5911 H 550.166 -2.00647 -4.62338 0
M  V30 5912 H 549.768 -2.33553 -2.92112 0
M  V30 5913 H 552.06 -3.19719 -5.97316 0
M  V30 5914 H 553.003 -4.60196 -5.38169 0
M  V30 5915 H 553.411 -2.95757 -4.8082 0
M  V30 5916 N 552.809 0.956637 -1.25245 0
M  V30 5917 C 554.058 1.69537 -1.0927 0
M  V30 5918 C 554.371 1.92136 0.366503 0
M  V30 5919 O 555.577 2.63687 0.64665 0
M  V30 5920 C 554.033 3.05211 -1.9072 0
M  V30 5921 C 553.641 2.90416 -3.41119 0
M  V30 5922 C 555.385 3.82882 -1.83308 0
M  V30 5923 C 553.292 4.21468 -4.14872 0
M  V30 5924 H 552.222 0.635804 -0.405302 0
M  V30 5925 H 554.873 1.06513 -1.49423 0
M  V30 5926 H 553.255 3.69128 -1.43389 0
M  V30 5927 H 554.429 2.35444 -3.9611 0
M  V30 5928 H 552.744 2.26203 -3.49602 0
M  V30 5929 H 555.341 4.79944 -2.35706 0
M  V30 5930 H 555.684 4.0853 -0.800572 0
M  V30 5931 H 556.217 3.25711 -2.28379 0
M  V30 5932 H 552.956 4.01009 -5.18529 0
M  V30 5933 H 552.476 4.76213 -3.64665 0
M  V30 5934 H 554.155 4.90022 -4.22478 0
M  V30 5935 N 554.287 1.06798 1.15896 0
M  V30 5936 C 555.197 0.694564 2.24083 0
M  V30 5937 C 556.213 -0.291687 1.71538 0
M  V30 5938 O 557.389 -0.139723 2.00915 0
M  V30 5939 C 554.454 0.0921014 3.46578 0
M  V30 5940 C 553.515 1.13087 4.14137 0
M  V30 5941 C 552.748 0.557064 5.30785 0
M  V30 5942 O 552.971 -0.628623 5.66925 0
M  V30 5943 O 551.905 1.29924 5.8771 0
M  V30 5944 H 555.731 1.59663 2.58344 0
M  V30 5945 H 553.316 0.840575 1.2351 0
M  V30 5946 H 555.198 -0.241884 4.20705 0
M  V30 5947 H 553.873 -0.78337 3.14078 0
M  V30 5948 H 552.78 1.51712 3.41957 0
M  V30 5949 H 554.113 1.97805 4.50704 0
M  V30 5950 N 555.766 -1.3263 0.851289 0
M  V30 5951 C 556.698 -2.27824 0.250757 0
M  V30 5952 C 557.711 -1.52285 -0.575598 0
M  V30 5953 O 558.9 -1.73946 -0.400638 0
M  V30 5954 C 556 -3.3232 -0.664571 0
M  V30 5955 C 555.173 -4.37221 0.125187 0
M  V30 5956 C 554.232 -5.21314 -0.715385 0
M  V30 5957 O 553.258 -5.69002 -0.150111 0
M  V30 5958 N 554.46 -5.43823 -2.03069 0
M  V30 5959 H 557.225 -2.79997 1.06873 0
M  V30 5960 H 554.786 -1.45455 0.710943 0
M  V30 5961 H 556.778 -3.85486 -1.23216 0
M  V30 5962 H 555.348 -2.80331 -1.38323 0
M  V30 5963 H 554.568 -3.84384 0.874199 0
M  V30 5964 H 555.856 -5.04399 0.667774 0
M  V30 5965 H 555.254 -5.06803 -2.51332 0
M  V30 5966 H 553.811 -5.99998 -2.54648 0
M  V30 5967 N 557.244 -0.608902 -1.45362 0
M  V30 5968 C 558.192 0.121639 -2.32282 0
M  V30 5969 C 559.186 0.858301 -1.46046 0
M  V30 5970 O 560.392 0.773718 -1.62523 0
M  V30 5971 H 556.767 0.058086 -0.749753 0
M  V30 5972 H 558.738 -0.629866 -2.91677 0
M  V30 5973 C 557.487 1.1047 -3.29684 0
M  V30 5974 H 556.81 0.547278 -3.96036 0
M  V30 5975 H 558.25 1.58576 -3.9323 0
M  V30 5976 C 556.709 2.17891 -2.56954 0
M  V30 5977 O 557.239 3.25652 -2.35189 0
M  V30 5978 N 555.445 1.93211 -2.17066 0
M  V30 5979 H 554.992 1.05584 -2.34967 0
M  V30 5980 H 554.95 2.6529 -1.68727 0
M  V30 5981 N 558.722 1.53707 -0.348139 0
M  V30 5982 C 559.95 2.05406 0.248224 0
M  V30 5983 C 560.365 1.22282 1.43849 0
M  V30 5984 O 559.722 0.259244 1.80649 0
M  V30 5985 C 559.773 3.55446 0.658793 0
M  V30 5986 O 559.494 4.35417 -0.484149 0
M  V30 5987 C 560.995 4.23335 1.31539 0
M  V30 5988 H 558.215 0.669344 0.0471075 0
M  V30 5989 H 560.759 1.98257 -0.501456 0
M  V30 5990 H 558.914 3.62803 1.35841 0
M  V30 5991 H 559.328 5.24268 -0.155949 0
M  V30 5992 H 560.802 5.29692 1.55338 0
M  V30 5993 H 561.279 3.75967 2.27036 0
M  V30 5994 H 561.885 4.20184 0.657683 0
M  V30 5995 N 560.2 0.0768682 1.57412 0
M  V30 5996 C 561.147 -0.888577 2.13009 0
M  V30 5997 C 562.117 -1.29198 1.0439 0
M  V30 5998 O 563.302 -1.37694 1.3208 0
M  V30 5999 C 560.442 -2.14899 2.70023 0
M  V30 6000 C 559.555 -1.79777 3.92816 0
M  V30 6001 C 558.69 -3.00467 4.38056 0
M  V30 6002 C 557.729 -2.61385 5.53484 0
M  V30 6003 N 556.866 -3.74851 5.93659 0
M  V30 6004 H 561.706 -0.407593 2.95199 0
M  V30 6005 H 559.243 -0.189534 1.45874 0
M  V30 6006 H 561.201 -2.88688 3.0119 0
M  V30 6007 H 559.831 -2.60529 1.9059 0
M  V30 6008 H 558.883 -0.960301 3.68079 0
M  V30 6009 H 560.195 -1.47027 4.76639 0
M  V30 6010 H 559.349 -3.82529 4.7091 0
M  V30 6011 H 558.088 -3.36413 3.53097 0
M  V30 6012 H 557.093 -1.77746 5.20275 0
M  V30 6013 H 558.318 -2.26603 6.40178 0
M  V30 6014 H 556.264 -4.1055 5.11649 0
M  V30 6015 H 556.181 -3.45887 6.72234 0
M  V30 6016 H 557.449 -4.57477 6.31138 0
M  V30 6017 N 561.678 -1.56367 -0.196722 0
M  V30 6018 C 562.903 -1.84991 -0.937714 0
M  V30 6019 C 563.328 -0.660244 -1.76132 0
M  V30 6020 O 562.686 0.390967 -1.77034 0
M  V30 6021 C 562.734 -3.11828 -1.81096 0
M  V30 6022 O 561.838 -2.92266 -2.90955 0
M  V30 6023 H 561.179 -0.609193 -0.264159 0
M  V30 6024 H 563.709 -2.03595 -0.202529 0
M  V30 6025 H 563.719 -3.42579 -2.21594 0
M  V30 6026 H 562.394 -3.98037 -1.2058 0
M  V30 6027 H 560.971 -2.72809 -2.54224 0
M  V30 6028 N 563.156 0.464375 -1.50603 0
M  V30 6029 C 564.567 1.04507 -1.5471 0
M  V30 6030 C 564.918 1.9297 -0.354542 0
M  V30 6031 O 564.043 2.09763 0.531812 0
M  V30 6032 C 564.638 1.90207 -2.80369 0
M  V30 6033 C 563.197 2.43373 -2.87135 0
M  V30 6034 C 562.344 1.21886 -2.49076 0
M  V30 6035 H 565.295 0.246716 -1.56771 0
M  V30 6036 H 565.316 2.75353 -2.62604 0
M  V30 6037 H 564.828 1.25796 -3.67147 0
M  V30 6038 H 562.929 3.11318 -2.04724 0
M  V30 6039 H 563.042 2.7802 -3.90181 0
M  V30 6040 H 561.406 1.55575 -2.01664 0
M  V30 6041 H 562.189 0.591268 -3.3817 0
M  V30 6042 N 564.634 1.40294 0.718013 0
M  V30 6043 C 565.564 1.43118 1.84498 0
M  V30 6044 C 566.545 0.292403 1.67568 0
M  V30 6045 O 567.73 0.500675 1.87635 0
M  V30 6046 C 564.86 1.29065 3.22427 0
M  V30 6047 C 563.814 2.40521 3.54025 0
M  V30 6048 C 563.14 2.11546 4.91073 0
M  V30 6049 C 564.44 3.82859 3.55269 0
M  V30 6050 H 566.134 2.37432 1.82391 0
M  V30 6051 H 563.68 1.14283 0.87609 0
M  V30 6052 H 565.633 1.29658 4.00957 0
M  V30 6053 H 564.357 0.312271 3.25104 0
M  V30 6054 H 563.016 2.39173 2.77834 0
M  V30 6055 H 562.664 1.12104 4.90348 0
M  V30 6056 H 562.364 2.86216 5.1318 0
M  V30 6057 H 563.888 2.13817 5.71939 0
M  V30 6058 H 565.302 3.86044 4.23843 0
M  V30 6059 H 563.699 4.57029 3.88902 0
M  V30 6060 H 564.769 4.12617 2.54706 0
M  V30 6061 N 566.112 -0.949982 1.2575 0
M  V30 6062 C 567.359 -1.69515 1.10774 0
M  V30 6063 C 567.687 -1.91316 -0.350479 0
M  V30 6064 O 566.942 -1.48515 -1.27443 0
M  V30 6065 C 567.241 -3.08039 1.81237 0
M  V30 6066 C 566.907 -3.06023 3.31151 0
M  V30 6067 C 565.569 -3.0518 3.72047 0
M  V30 6068 C 567.921 -2.98998 4.26907 0
M  V30 6069 C 565.249 -2.95067 5.07102 0
M  V30 6070 C 567.601 -2.90426 5.61992 0
M  V30 6071 C 566.265 -2.87922 6.0221 0
M  V30 6072 H 565.535 -0.6203 0.405351 0
M  V30 6073 H 568.182 -1.10953 1.56082 0
M  V30 6074 H 566.487 -3.70172 1.28373 0
M  V30 6075 H 568.184 -3.64526 1.67098 0
M  V30 6076 H 564.774 -3.07453 2.98614 0
M  V30 6077 H 568.958 -2.98764 3.963 0
M  V30 6078 H 564.214 -2.915 5.37436 0
M  V30 6079 H 568.388 -2.83952 6.35881 0
M  V30 6080 H 566.015 -2.79841 7.06819 0
M  V30 6081 N 567.59 -1.07411 -1.15328 0
M  V30 6082 C 568.523 -0.63913 -2.19067 0
M  V30 6083 C 569.501 0.343929 -1.58921 0
M  V30 6084 O 570.685 0.250207 -1.86832 0
M  V30 6085 C 567.812 0.0613977 -3.38644 0
M  V30 6086 C 566.858 -0.880201 -4.17318 0
M  V30 6087 S 567.691 -2.38152 -4.79629 0
M  V30 6088 C 568.847 -1.69281 -6.02573 0
M  V30 6089 H 569.08 -1.51799 -2.55626 0
M  V30 6090 H 566.613 -0.888138 -1.26299 0
M  V30 6091 H 568.571 0.459323 -4.07922 0
M  V30 6092 H 567.232 0.916605 -3.00428 0
M  V30 6093 H 566.425 -0.336781 -5.02874 0
M  V30 6094 H 566.027 -1.21854 -3.53592 0
M  V30 6095 H 568.319 -1.00488 -6.70006 0
M  V30 6096 H 569.262 -2.52671 -6.61485 0
M  V30 6097 H 569.67 -1.17053 -5.52231 0
M  V30 6098 N 569.068 1.32177 -0.85831 0
M  V30 6099 C 570.316 1.96735 -0.462568 0
M  V30 6100 C 570.637 1.6824 0.985911 0
M  V30 6101 O 569.907 0.991564 1.68952 0
M  V30 6102 H 568.487 0.727849 -0.168064 0
M  V30 6103 H 571.149 1.61195 -1.09554 0
M  V30 6104 H 570.245 3.06068 -0.610647 0
M  V30 6105 N 570.547 0.616602 1.45037 0
M  V30 6106 C 571.494 -0.0969439 2.30596 0
M  V30 6107 C 572.464 -0.851151 1.42635 0
M  V30 6108 O 573.649 -0.835092 1.71554 0
M  V30 6109 C 570.789 -1.08234 3.27688 0
M  V30 6110 C 569.902 -0.328072 4.30752 0
M  V30 6111 C 569.037 -1.30399 5.14946 0
M  V30 6112 C 568.076 -0.538049 6.09731 0
M  V30 6113 N 567.213 -1.46371 6.86673 0
M  V30 6114 H 572.053 0.63864 2.91076 0
M  V30 6115 H 569.59 0.326733 1.43425 0
M  V30 6116 H 571.548 -1.66688 3.82454 0
M  V30 6117 H 570.178 -1.78523 2.68941 0
M  V30 6118 H 569.23 0.372136 3.78575 0
M  V30 6119 H 570.542 0.269142 4.98073 0
M  V30 6120 H 569.696 -1.96032 5.74157 0
M  V30 6121 H 568.435 -1.93514 4.47665 0
M  V30 6122 H 567.44 0.131852 5.49642 0
M  V30 6123 H 568.665 0.0881732 6.79043 0
M  V30 6124 H 566.611 -2.08233 6.22073 0
M  V30 6125 H 566.528 -0.920152 7.50379 0
M  V30 6126 H 567.796 -2.10932 7.50418 0
M  V30 6127 N 572.025 -1.5352 0.356285 0
M  V30 6128 C 573.271 -2.01414 -0.236653 0
M  V30 6129 C 573.604 -1.24339 -1.49176 0
M  V30 6130 O 572.879 -0.334496 -1.91602 0
M  V30 6131 C 573.162 -3.56059 -0.537982 0
M  V30 6132 C 573.015 -4.43835 0.730112 0
M  V30 6133 C 574.334 -4.19127 -1.34239 0
M  V30 6134 H 571.453 -0.732135 -0.0845386 0
M  V30 6135 H 574.095 -1.83854 0.479341 0
M  V30 6136 H 572.245 -3.71153 -1.14795 0
M  V30 6137 H 573.917 -4.40555 1.36782 0
M  V30 6138 H 572.16 -4.1218 1.3524 0
M  V30 6139 H 572.831 -5.49958 0.474358 0
M  V30 6140 H 575.307 -4.07809 -0.826498 0
M  V30 6141 H 574.183 -5.27378 -1.52198 0
M  V30 6142 H 574.444 -3.74581 -2.34822 0
M  V30 6143 N 573.503 -0.0852151 -1.57369 0
M  V30 6144 C 574.749 0.581666 -1.94279 0
M  V30 6145 C 575.082 1.68444 -0.966446 0
M  V30 6146 O 574.357 1.945 0.00215277 0
M  V30 6147 C 574.64 1.14609 -3.41375 0
M  V30 6148 C 574.493 0.0490414 -4.49773 0
M  V30 6149 C 575.812 2.04751 -3.8957 0
M  V30 6150 H 572.931 0.209972 -0.706456 0
M  V30 6151 H 575.573 -0.153915 -1.89376 0
M  V30 6152 H 573.723 1.77297 -3.45685 0
M  V30 6153 H 575.395 -0.584721 -4.57579 0
M  V30 6154 H 573.638 -0.618638 -4.29366 0
M  V30 6155 H 574.309 0.484601 -5.49869 0
M  V30 6156 H 576.785 1.51981 -3.87351 0
M  V30 6157 H 575.661 2.41173 -4.93079 0
M  V30 6158 H 575.922 2.96107 -3.28288 0
M  V30 6159 N 574.981 1.5647 0.188427 0
M  V30 6160 C 575.929 1.95971 1.25293 0
M  V30 6161 C 576.923 0.846047 1.4676 0
M  V30 6162 O 578.129 1.03109 1.47542 0
M  V30 6163 H 574.504 0.623253 0.420784 0
M  V30 6164 H 576.475 2.84731 0.892792 0
M  V30 6165 C 575.224 2.32116 2.58877 0
M  V30 6166 H 574.547 3.17341 2.43176 0
M  V30 6167 H 575.987 2.63613 3.3209 0
M  V30 6168 C 574.446 1.15823 3.16365 0
M  V30 6169 O 574.976 0.436785 3.99318 0
M  V30 6170 N 573.182 0.933278 2.75206 0
M  V30 6171 H 572.729 1.52169 2.07852 0
M  V30 6172 H 572.687 0.156976 3.14008 0
M  V30 6173 N 576.459 -0.456382 1.50847 0
M  V30 6174 C 577.87 -1.03685 1.55262 0
M  V30 6175 C 578.221 -1.92779 0.364771 0
M  V30 6176 O 577.346 -2.10043 -0.52068 0
M  V30 6177 C 577.941 -1.88718 2.81374 0
M  V30 6178 C 576.5 -2.41847 2.88422 0
M  V30 6179 C 575.647 -1.20564 2.49719 0
M  V30 6180 H 578.598 -0.238399 1.56899 0
M  V30 6181 H 578.619 -2.73957 2.6406 0
M  V30 6182 H 578.131 -1.23847 3.67809 0
M  V30 6183 H 576.232 -3.10228 2.06372 0
M  V30 6184 H 576.345 -2.75947 3.9165 0
M  V30 6185 H 574.709 -1.54504 2.02486 0
M  V30 6186 H 575.492 -0.573326 3.38479 0
M  V30 6187 N 577.937 -1.40673 -0.710563 0
M  V30 6188 C 579.165 -1.42547 -1.4996 0
M  V30 6189 C 579.58 -0.0265485 -1.88781 0
M  V30 6190 O 578.937 0.950694 -1.55782 0
M  V30 6191 C 578.988 -2.32071 -2.77173 0
M  V30 6192 O 578.709 -3.66518 -2.39992 0
M  V30 6193 C 580.21 -2.42591 -3.71032 0
M  V30 6194 H 577.43 -0.486025 -0.462623 0
M  V30 6195 H 579.974 -1.84783 -0.876102 0
M  V30 6196 H 578.129 -1.93184 -3.35795 0
M  V30 6197 H 578.543 -4.14115 -3.21884 0
M  V30 6198 H 580.017 -3.09429 -4.57119 0
M  V30 6199 H 580.494 -1.4525 -4.14486 0
M  V30 6200 H 581.1 -2.82051 -3.18319 0
M  V30 6201 N 579.415 0.9433 -1.26252 0
M  V30 6202 C 580.347 2.04542 -1.03417 0
M  V30 6203 C 581.36 1.62799 0.0046911 0
M  V30 6204 O 582.549 1.76944 -0.235146 0
M  V30 6205 C 579.649 3.34511 -0.543671 0
M  V30 6206 C 578.822 4.05033 -1.65128 0
M  V30 6207 C 577.881 5.13273 -1.1592 0
M  V30 6208 O 576.907 5.38095 -1.85586 0
M  V30 6209 N 578.109 5.805 -0.00649279 0
M  V30 6210 H 580.874 2.24699 -1.98319 0
M  V30 6211 H 578.435 1.11264 -1.1761 0
M  V30 6212 H 580.427 4.04212 -0.198703 0
M  V30 6213 H 578.997 3.11042 0.311711 0
M  V30 6214 H 578.217 3.29275 -2.16729 0
M  V30 6215 H 579.505 4.48903 -2.39508 0
M  V30 6216 H 578.903 5.62767 0.575347 0
M  V30 6217 H 577.46 6.51201 0.279416 0
M  V30 6218 N 580.893 1.08022 1.14757 0
M  V30 6219 C 581.84 0.706657 2.19716 0
M  V30 6220 C 582.81 -0.30525 1.63271 0
M  V30 6221 O 583.995 -0.19015 1.8985 0
M  V30 6222 C 581.135 0.117914 3.44898 0
M  V30 6223 C 580.248 1.18212 4.15512 0
M  V30 6224 C 579.383 0.557659 5.28265 0
M  V30 6225 C 578.422 1.60418 5.90705 0
M  V30 6226 N 577.559 1.0018 6.94916 0
M  V30 6227 H 582.399 1.60603 2.51019 0
M  V30 6228 H 579.936 0.802664 1.23271 0
M  V30 6229 H 581.894 -0.241112 4.16503 0
M  V30 6230 H 580.524 -0.744788 3.1409 0
M  V30 6231 H 579.576 1.65863 3.42335 0
M  V30 6232 H 580.888 1.97533 4.5802 0
M  V30 6233 H 580.042 0.146654 6.06523 0
M  V30 6234 H 578.781 -0.267249 4.86967 0
M  V30 6235 H 577.786 2.02489 5.11154 0
M  V30 6236 H 579.011 2.43149 6.34078 0
M  V30 6237 H 576.957 0.197917 6.55701 0
M  V30 6238 H 576.874 1.73216 7.35889 0
M  V30 6239 H 578.142 0.616523 7.77058 0
M  V30 6240 O 582.41 -1.2689 0.999054 0
M  V30 6241 H 583.101 -1.82419 0.651387 0
M  V30 END ATOM
M  V30 BEGIN BOND
M  V30 END BOND
M  V30 END CTAB
M  END
$$$$
