drugbank_target|Q04912 Macrophage-stimulating protein receptor (DB12010)
 OpenBabel12092121173D

  0  0  0     0  0            999 V3000
M  V30 BEGIN CTAB
M  V30 COUNTS 21312 21600 0 0 0
M  V30 BEGIN ATOM
M  V30 1 H -0.908 1.98254 -0.117106 0
M  V30 2 N 0 1.576 0 0
M  V30 3 C 0.933 2.03868 1.02534 0
M  V30 4 C 1.911 0.928543 1.3348 0
M  V30 5 O 3.095 1.19667 1.45644 0
M  V30 6 C 0.222 2.43627 2.35294 0
M  V30 7 C -0.732 3.65373 2.2001 0
M  V30 8 S 0.101 5.13292 1.52614 0
M  V30 9 C 1.257 5.56322 2.86805 0
M  V30 10 H 1.49 2.90518 0.631377 0
M  V30 11 H -0.977 1.52953 0.210867 0
M  V30 12 H 0.981 2.67203 3.11629 0
M  V30 13 H -0.358 1.57376 2.7183 0
M  V30 14 H -1.165 3.90944 3.18086 0
M  V30 15 H -1.563 3.418 1.51819 0
M  V30 16 H 0.729 5.58782 3.83104 0
M  V30 17 H 1.672 6.56266 2.65933 0
M  V30 18 H 2.08 4.83886 2.90714 0
M  V30 19 N 1.4781 -0.272755 1.55222 0
M  V30 20 C 2.3881 -1.35918 1.91216 0
M  V30 21 C 3.4041 -1.54026 0.809436 0
M  V30 22 O 4.5801 -1.68148 1.10852 0
M  V30 23 C 1.6451 -2.69834 2.17693 0
M  V30 24 C 0.7061 -2.6047 3.41253 0
M  V30 25 C -0.0609 -3.88 3.66458 0
M  V30 26 O 0.1621 -4.88693 2.94169 0
M  V30 27 O -0.9039 -3.88189 4.59992 0
M  V30 28 H 2.9221 -1.0839 2.83699 0
M  V30 29 H 0.5071 -0.471301 1.41771 0
M  V30 30 H 2.3891 -3.49017 2.36147 0
M  V30 31 H 1.0641 -2.97148 1.28392 0
M  V30 32 H -0.0289 -1.79663 3.28134 0
M  V30 33 H 1.3041 -2.38106 4.30774 0
M  V30 34 N 2.9562 -1.48159 -0.537278 0
M  V30 35 C 3.8862 -1.65029 -1.6519 0
M  V30 36 C 4.8672 -0.499281 -1.62607 0
M  V30 37 O 6.0522 -0.730972 -1.79918 0
M  V30 38 C 3.1822 -1.68303 -3.03795 0
M  V30 39 C 2.1362 -2.8283 -3.21234 0
M  V30 40 C 1.4622 -2.71189 -4.60826 0
M  V30 41 C 2.7622 -4.24211 -3.04701 0
M  V30 42 H 4.4562 -2.58341 -1.51328 0
M  V30 43 H 2.0022 -1.24325 -0.726585 0
M  V30 44 H 3.9552 -1.78693 -3.81637 0
M  V30 45 H 2.6792 -0.715635 -3.18663 0
M  V30 46 H 1.3382 -2.71983 -2.45807 0
M  V30 47 H 0.9862 -1.72435 -4.7252 0
M  V30 48 H 0.6862 -3.48035 -4.7344 0
M  V30 49 H 2.2102 -2.83537 -5.40777 0
M  V30 50 H 3.6242 -4.3593 -3.72341 0
M  V30 51 H 2.0212 -5.01998 -3.28813 0
M  V30 52 H 3.0912 -4.41184 -2.01209 0
M  V30 53 N 4.4343 0.785586 -1.36625 0
M  V30 54 C 5.3643 1.91259 -1.33949 0
M  V30 55 C 6.3453 1.68795 -0.210325 0
M  V30 56 O 7.5303 1.89854 -0.408561 0
M  V30 57 C 4.6603 3.28339 -1.13186 0
M  V30 58 C 3.6143 3.65335 -2.22967 0
M  V30 59 C 2.9403 5.00806 -1.87342 0
M  V30 60 C 4.2403 3.7352 -3.65075 0
M  V30 61 H 5.9343 1.93755 -2.28253 0
M  V30 62 H 3.4803 0.930788 -1.09874 0
M  V30 63 H 5.4333 4.06804 -1.09948 0
M  V30 64 H 4.1573 3.2624 -0.153332 0
M  V30 65 H 2.8163 2.89169 -2.25337 0
M  V30 66 H 2.4643 4.95233 -0.880545 0
M  V30 67 H 2.1643 5.26529 -2.60846 0
M  V30 68 H 3.6883 5.81687 -1.85667 0
M  V30 69 H 5.1023 4.42168 -3.64911 0
M  V30 70 H 3.4993 4.10731 -4.37516 0
M  V30 71 H 4.5693 2.74527 -3.99703 0
M  V30 72 N 5.9124 1.20967 1.01018 0
M  V30 73 C 7.3234 1.02319 1.56165 0
M  V30 74 C 7.6744 -0.418546 1.91684 0
M  V30 75 O 6.7994 -1.30096 1.72928 0
M  V30 76 C 7.3944 1.85109 2.8376 0
M  V30 77 C 5.9534 1.70809 3.35412 0
M  V30 78 C 5.1004 1.82643 2.08655 0
M  V30 79 H 8.0514 1.35065 0.833255 0
M  V30 80 H 8.0724 1.35827 3.55431 0
M  V30 81 H 7.5844 2.90035 2.57878 0
M  V30 82 H 5.6854 0.685464 3.66241 0
M  V30 83 H 5.7984 2.52467 4.07182 0
M  V30 84 H 4.1624 1.25896 2.21409 0
M  V30 85 H 4.9454 2.89066 1.85191 0
M  V30 86 N 7.3905 -1.2043 1.01659 0
M  V30 87 C 8.8015 -1.71517 0.737482 0
M  V30 88 C 9.1525 -1.81547 -0.743973 0
M  V30 89 O 8.2775 -1.47803 -1.58061 0
M  V30 90 C 8.8725 -3.11515 1.33206 0
M  V30 91 C 7.4315 -3.59912 1.10183 0
M  V30 92 C 6.5785 -2.37116 1.43776 0
M  V30 93 H 9.5295 -1.05444 1.18606 0
M  V30 94 H 9.5505 -3.73575 0.722636 0
M  V30 95 H 9.0625 -3.04182 2.41028 0
M  V30 96 H 7.1635 -3.72577 0.0412756 0
M  V30 97 H 7.2765 -4.44731 1.78188 0
M  V30 98 H 5.6405 -2.39857 0.856778 0
M  V30 99 H 6.4235 -2.32424 2.52654 0
M  V30 100 N 8.8686 -0.792821 -1.36206 0
M  V30 101 C 9.7986 -0.207853 -2.32573 0
M  V30 102 C 10.7796 0.659055 -1.56813 0
M  V30 103 O 11.9646 0.592176 -1.84951 0
M  V30 104 C 9.0946 0.655449 -3.41059 0
M  V30 105 C 8.0486 -0.111842 -4.27854 0
M  V30 106 C 7.3746 0.872274 -5.27537 0
M  V30 107 C 8.6746 -1.30299 -5.05786 0
M  V30 108 H 10.3686 -1.01294 -2.81744 0
M  V30 109 H 7.9146 -0.48854 -1.3546 0
M  V30 110 H 9.8676 1.07464 -4.07467 0
M  V30 111 H 8.5916 1.49328 -2.90463 0
M  V30 112 H 7.2506 -0.512053 -3.63006 0
M  V30 113 H 6.8986 1.70523 -4.73214 0
M  V30 114 H 6.5986 0.363291 -5.86476 0
M  V30 115 H 8.1226 1.28996 -5.96818 0
M  V30 116 H 9.5366 -0.959379 -5.65216 0
M  V30 117 H 7.9336 -1.7455 -5.74154 0
M  V30 118 H 9.0036 -2.09663 -4.37229 0
M  V30 119 N 10.3467 1.47872 -0.545128 0
M  V30 120 C 11.7577 1.86384 -0.108581 0
M  V30 121 C 12.1087 1.45309 1.31832 0
M  V30 122 O 11.2337 0.850641 1.9898 0
M  V30 123 C 11.8287 3.38265 -0.190274 0
M  V30 124 C 10.3877 3.75914 0.191164 0
M  V30 125 C 9.5347 2.71926 -0.543273 0
M  V30 126 H 12.4857 1.39561 -0.755537 0
M  V30 127 H 12.5067 3.75831 0.594217 0
M  V30 128 H 12.0187 3.6813 -1.2289 0
M  V30 129 H 10.1197 3.51665 1.23136 0
M  V30 130 H 10.2327 4.78836 -0.158987 0
M  V30 131 H 8.5967 2.54697 0.0122495 0
M  V30 132 H 9.3797 3.04634 -1.58282 0
M  V30 133 N 11.8248 0.280983 1.55075 0
M  V30 134 C 12.7568 -0.637268 2.20163 0
M  V30 135 C 13.7698 -1.11298 1.18813 0
M  V30 136 O 14.9588 -1.03388 1.4551 0
M  V30 137 C 12.0588 -1.88199 2.81841 0
M  V30 138 C 11.2318 -1.55211 4.08936 0
M  V30 139 C 10.2908 -2.64991 4.54606 0
M  V30 140 O 9.3168 -2.30929 5.2025 0
M  V30 141 N 10.5188 -3.95161 4.25238 0
M  V30 142 H 13.2838 -0.0801694 2.99593 0
M  V30 143 H 10.8448 0.102329 1.61576 0
M  V30 144 H 12.8368 -2.60948 3.09335 0
M  V30 145 H 11.4068 -2.34799 2.06369 0
M  V30 146 H 10.6268 -0.658185 3.88666 0
M  V30 147 H 11.9148 -1.30681 4.91732 0
M  V30 148 H 11.3128 -4.25653 3.72607 0
M  V30 149 H 9.8698 -4.6427 4.5749 0
M  V30 150 N 13.3029 -1.57598 0.00835791 0
M  V30 151 C 14.5279 -1.95617 -0.689103 0
M  V30 152 C 14.9529 -0.883753 -1.66046 0
M  V30 153 O 14.3109 0.157352 -1.80616 0
M  V30 154 C 14.3589 -3.32736 -1.38994 0
M  V30 155 O 13.4629 -3.27631 -2.50463 0
M  V30 156 H 12.8039 -0.638379 -0.182668 0
M  V30 157 H 15.3339 -2.045 0.064036 0
M  V30 158 H 15.3439 -3.68494 -1.75147 0
M  V30 159 H 14.0189 -4.1034 -0.677778 0
M  V30 160 H 12.5959 -3.03561 -2.16576 0
M  V30 161 N 14.781 0.264519 -1.55364 0
M  V30 162 C 16.028 0.994986 -1.7637 0
M  V30 163 C 16.356 1.85976 -0.5695 0
M  V30 164 O 15.611 1.90509 0.44776 0
M  V30 165 C 15.91 1.9004 -3.02687 0
M  V30 166 C 15.576 1.19243 -4.34847 0
M  V30 167 C 14.238 0.996709 -4.70764 0
M  V30 168 C 16.59 0.689296 -5.16622 0
M  V30 169 C 13.918 0.285261 -5.86006 0
M  V30 170 C 16.27 -0.00860079 -6.32599 0
M  V30 171 C 14.934 -0.215963 -6.67151 0
M  V30 172 H 14.204 0.364091 -0.645383 0
M  V30 173 H 16.851 0.266543 -1.89636 0
M  V30 174 H 15.156 2.69533 -2.84357 0
M  V30 175 H 16.853 2.46695 -3.16137 0
M  V30 176 H 13.443 1.3549 -4.06621 0
M  V30 177 H 17.627 0.828108 -4.89342 0
M  V30 178 H 12.883 0.113961 -6.11294 0
M  V30 179 H 17.057 -0.406186 -6.95214 0
M  V30 180 H 14.684 -0.769217 -7.56298 0
M  V30 181 N 16.2591 1.48442 0.529413 0
M  V30 182 C 17.1891 1.65902 1.64313 0
M  V30 183 C 18.1701 0.507897 1.6234 0
M  V30 184 O 19.3551 0.740503 1.79528 0
M  V30 185 C 16.4851 1.69911 3.02898 0
M  V30 186 C 15.4391 2.8453 3.19729 0
M  V30 187 C 14.7651 2.73629 4.59381 0
M  V30 188 C 16.0651 4.25821 3.02447 0
M  V30 189 H 17.7591 2.5914 1.49955 0
M  V30 190 H 15.3051 1.24709 0.719982 0
M  V30 191 H 17.2581 1.80715 3.80684 0
M  V30 192 H 15.9821 0.732524 3.18279 0
M  V30 193 H 14.6411 2.73283 2.44361 0
M  V30 194 H 14.2891 1.74938 4.71599 0
M  V30 195 H 13.9891 3.50541 4.71588 0
M  V30 196 H 15.5131 2.86401 5.39265 0
M  V30 197 H 16.9271 4.37898 3.70024 0
M  V30 198 H 15.3241 5.03735 3.26146 0
M  V30 199 H 16.3941 4.42244 1.98867 0
M  V30 200 N 17.7372 -0.778329 1.37039 0
M  V30 201 C 18.6672 -1.90546 1.34962 0
M  V30 202 C 19.6482 -1.68681 0.219274 0
M  V30 203 O 20.8332 -1.89634 0.418624 0
M  V30 204 C 17.9632 -3.27734 1.14925 0
M  V30 205 C 16.9172 -3.64147 2.24902 0
M  V30 206 C 16.2432 -4.99806 1.89996 0
M  V30 207 C 17.5432 -3.71579 3.67051 0
M  V30 208 H 19.2372 -1.92541 2.29277 0
M  V30 209 H 16.7832 -0.924948 1.10366 0
M  V30 210 H 18.7362 -4.06215 1.12104 0
M  V30 211 H 17.4602 -3.26154 0.170631 0
M  V30 212 H 16.1192 -2.8797 2.26868 0
M  V30 213 H 15.7672 -4.94759 0.906796 0
M  V30 214 H 15.4672 -5.25139 2.63634 0
M  V30 215 H 16.9912 -5.80694 1.88749 0
M  V30 216 H 18.4052 -4.40227 3.67251 0
M  V30 217 H 16.8022 -4.08405 4.39688 0
M  V30 218 H 17.8722 -2.72404 4.01154 0
M  V30 219 N 19.2153 -1.21501 -1.00376 0
M  V30 220 C 20.1453 -0.999478 -2.11028 0
M  V30 221 C 21.1263 0.0759671 -1.6993 0
M  V30 222 O 22.3113 -0.0841106 -1.94018 0
M  V30 223 C 19.4413 -0.564709 -3.42678 0
M  V30 224 C 18.3953 -1.58486 -3.97576 0
M  V30 225 C 17.7213 -1.00628 -5.25146 0
M  V30 226 C 19.0213 -2.97204 -4.29496 0
M  V30 227 H 20.7153 -1.92495 -2.29317 0
M  V30 228 H 18.2613 -0.92693 -1.102 0
M  V30 229 H 20.2143 -0.401091 -4.19487 0
M  V30 230 H 18.9383 0.396411 -3.24185 0
M  V30 231 H 17.5973 -1.73606 -3.22888 0
M  V30 232 H 17.2453 -0.0368439 -5.02987 0
M  V30 233 H 16.9453 -1.68771 -5.62841 0
M  V30 234 H 18.4693 -0.854015 -6.04598 0
M  V30 235 H 19.8833 -2.8552 -4.97143 0
M  V30 236 H 18.2803 -3.62372 -4.78338 0
M  V30 237 H 19.3503 -3.47956 -3.3772 0
M  V30 238 N 20.6934 1.19889 -1.02296 0
M  V30 239 C 21.6234 2.25141 -0.619174 0
M  V30 240 C 22.6044 1.66051 0.368915 0
M  V30 241 O 23.7894 1.92546 0.252941 0
M  V30 242 C 20.9194 3.4728 0.0368783 0
M  V30 243 C 19.8734 4.19005 -0.872865 0
M  V30 244 C 19.1994 5.34637 -0.0822402 0
M  V30 245 C 20.4994 4.74452 -2.18387 0
M  V30 246 H 22.1934 2.59171 -1.49903 0
M  V30 247 H 19.7394 1.24579 -0.722222 0
M  V30 248 H 21.6924 4.20098 0.330958 0
M  V30 249 H 20.4164 3.12433 0.95149 0
M  V30 250 H 19.0754 3.48061 -1.15105 0
M  V30 251 H 18.7234 4.96034 0.83422 0
M  V30 252 H 18.4234 5.83557 -0.688149 0
M  V30 253 H 19.9474 6.10255 0.205238 0
M  V30 254 H 21.3614 5.39055 -1.95172 0
M  V30 255 H 19.7584 5.33834 -2.74119 0
M  V30 256 H 20.8284 3.92844 -2.84257 0
M  V30 257 N 22.1715 0.800033 1.35784 0
M  V30 258 C 23.1015 0.220184 2.3246 0
M  V30 259 C 24.0825 -0.65073 1.57161 0
M  V30 260 O 25.2675 -0.582359 1.85263 0
M  V30 261 C 22.3975 -0.637353 3.41402 0
M  V30 262 C 21.3515 0.134531 4.27789 0
M  V30 263 C 20.6775 -0.844285 5.27992 0
M  V30 264 C 21.9775 1.32979 5.05088 0
M  V30 265 H 23.6715 1.02787 2.81203 0
M  V30 266 H 21.2175 0.495717 1.35199 0
M  V30 267 H 23.1705 -1.05302 4.08031 0
M  V30 268 H 21.8945 -1.47785 2.91251 0
M  V30 269 H 20.5535 0.531296 3.6273 0
M  V30 270 H 20.2015 -1.68011 4.74111 0
M  V30 271 H 19.9015 -0.332184 5.8666 0
M  V30 272 H 21.4255 -1.2583 5.97494 0
M  V30 273 H 22.8395 0.98934 5.64699 0
M  V30 274 H 21.2365 1.77593 5.7322 0
M  V30 275 H 22.3065 2.11978 4.36111 0
M  V30 276 N 23.6496 -1.47581 0.552962 0
M  V30 277 C 24.5796 -2.32762 -0.185451 0
M  V30 278 C 25.5606 -1.43527 -0.912905 0
M  V30 279 O 26.7456 -1.72388 -0.894201 0
M  V30 280 C 23.8756 -3.25219 -1.21859 0
M  V30 281 C 22.8296 -4.23661 -0.607864 0
M  V30 282 C 22.1556 -5.05413 -1.74533 0
M  V30 283 C 23.4556 -5.20481 0.435582 0
M  V30 284 H 25.1496 -2.94749 0.525684 0
M  V30 285 H 22.6956 -1.41738 0.254251 0
M  V30 286 H 24.6486 -3.8365 -1.7433 0
M  V30 287 H 23.3726 -2.61279 -1.95961 0
M  V30 288 H 22.0316 -3.66451 -0.104489 0
M  V30 289 H 21.6796 -4.3788 -2.47529 0
M  V30 290 H 21.3796 -5.72059 -1.34249 0
M  V30 291 H 22.9036 -5.66701 -2.27338 0
M  V30 292 H 24.3176 -5.733 -0.00290157 0
M  V30 293 H 22.7146 -5.95305 0.757067 0
M  V30 294 H 23.7846 -4.66217 1.33303 0
M  V30 295 N 25.1277 -0.289203 -1.54924 0
M  V30 296 C 26.5387 0.205791 -1.85562 0
M  V30 297 C 26.8897 1.54351 -1.2112 0
M  V30 298 O 26.0147 2.10435 -0.504601 0
M  V30 299 C 26.6097 0.380177 -3.3666 0
M  V30 300 C 25.1687 0.819395 -3.67373 0
M  V30 301 C 24.3157 -0.079159 -2.77187 0
M  V30 302 H 27.2667 -0.510577 -1.50262 0
M  V30 303 H 27.2877 1.21659 -3.60526 0
M  V30 304 H 26.7997 -0.593589 -3.83534 0
M  V30 305 H 24.9007 1.80413 -3.26009 0
M  V30 306 H 25.0137 0.646957 -4.74712 0
M  V30 307 H 23.3777 0.439565 -2.50878 0
M  V30 308 H 24.1607 -1.04906 -3.26878 0
M  V30 309 N 26.6058 1.57591 -0.0167156 0
M  V30 310 C 27.5688 2.08393 0.954204 0
M  V30 311 C 28.5688 0.996531 1.26198 0
M  V30 312 O 29.7588 1.25858 1.20438 0
M  V30 313 C 26.8908 2.5394 2.27436 0
M  V30 314 H 28.0838 2.95455 0.514451 0
M  V30 315 H 25.6368 1.54582 0.231089 0
M  V30 316 H 26.3718 1.70171 2.76066 0
M  V30 317 H 26.1568 3.33371 2.06412 0
M  V30 318 H 27.6468 2.93512 2.97053 0
M  V30 319 N 28.0839 -0.256276 1.55502 0
M  V30 320 C 29.0309 -1.31714 1.89526 0
M  V30 321 C 30.0009 -1.4828 0.748479 0
M  V30 322 O 31.1859 -1.62416 1.00128 0
M  V30 323 C 28.3259 -2.66933 2.18725 0
M  V30 324 C 27.4389 -2.58452 3.4616 0
M  V30 325 C 26.5739 -3.85961 3.64976 0
M  V30 326 C 25.6129 -3.72059 4.86044 0
M  V30 327 N 24.7499 -4.9144 5.01429 0
M  V30 328 H 29.5899 -1.01998 2.80001 0
M  V30 329 H 27.1269 -0.492413 1.38613 0
M  V30 330 H 29.0849 -3.4563 2.33657 0
M  V30 331 H 27.7149 -2.94816 1.31466 0
M  V30 332 H 26.7669 -1.71374 3.3961 0
M  V30 333 H 28.0789 -2.44085 4.34999 0
M  V30 334 H 27.2329 -4.73101 3.79816 0
M  V30 335 H 25.9719 -4.03215 2.74353 0
M  V30 336 H 24.9769 -2.83302 4.7119 0
M  V30 337 H 26.2019 -3.56309 5.78118 0
M  V30 338 H 24.1479 -5.09072 4.13741 0
M  V30 339 H 24.0649 -4.79668 5.84341 0
M  V30 340 H 25.3329 -5.80104 5.20672 0
M  V30 341 N 29.562 -1.4872 -0.521534 0
M  V30 342 C 30.973 -1.50607 -1.10337 0
M  V30 343 C 31.324 -0.280612 -1.94183 0
M  V30 344 O 30.449 0.611507 -2.0758 0
M  V30 345 C 31.044 -2.72903 -2.00772 0
M  V30 346 C 29.603 -2.77634 -2.54158 0
M  V30 347 C 28.75 -2.44241 -1.31307 0
M  V30 348 H 31.701 -1.55714 -0.306388 0
M  V30 349 H 31.722 -2.519 -2.85178 0
M  V30 350 H 31.234 -3.62077 -1.39721 0
M  V30 351 H 29.335 -1.92689 -3.18907 0
M  V30 352 H 29.448 -3.79283 -2.92714 0
M  V30 353 H 27.812 -1.95577 -1.63161 0
M  V30 354 H 28.595 -3.35666 -0.719943 0
M  V30 355 N 31.0401 0.771051 -1.3745 0
M  V30 356 C 32.0031 1.86598 -1.33093 0
M  V30 357 C 33.0031 1.59076 -0.234845 0
M  V30 358 O 34.1931 1.67145 -0.490732 0
M  V30 359 C 31.3251 3.23747 -1.06773 0
M  V30 360 H 32.5181 1.91873 -2.30488 0
M  V30 361 H 30.0711 0.970876 -1.2249 0
M  V30 362 H 30.8061 3.24148 -0.099129 0
M  V30 363 H 30.5911 3.45115 -1.86112 0
M  V30 364 H 32.0811 4.03824 -1.06377 0
M  V30 365 N 32.5182 1.22032 0.997298 0
M  V30 366 C 33.4812 0.987909 2.06816 0
M  V30 367 C 34.4812 -0.0440084 1.6074 0
M  V30 368 O 35.6712 0.194053 1.73116 0
M  V30 369 C 32.8032 0.49132 3.37341 0
M  V30 370 H 33.9962 1.93803 2.28868 0
M  V30 371 H 31.5492 1.03838 1.16822 0
M  V30 372 H 32.2842 -0.463364 3.20973 0
M  V30 373 H 32.0692 1.23575 3.72118 0
M  V30 374 H 33.5592 0.348824 4.16141 0
M  V30 375 N 33.9963 -1.19345 1.0293 0
M  V30 376 C 35.2443 -1.88665 0.724574 0
M  V30 377 C 35.5653 -1.80036 -0.749144 0
M  V30 378 O 34.8353 -1.2111 -1.53978 0
M  V30 379 H 33.4153 -0.698406 0.265025 0
M  V30 380 H 36.0773 -1.44885 1.30362 0
M  V30 381 H 35.1733 -2.94987 1.01926 0
M  V30 382 N 35.4744 -0.807222 -1.35358 0
M  V30 383 C 36.3844 -0.219594 -2.3357 0
M  V30 384 C 37.4004 0.637734 -1.61892 0
M  V30 385 O 38.5764 0.549336 -1.93763 0
M  V30 386 C 35.6414 0.62158 -3.41083 0
M  V30 387 C 34.7024 -0.256315 -4.28534 0
M  V30 388 C 33.9354 0.544807 -5.30912 0
M  V30 389 O 34.1584 1.77944 -5.41934 0
M  V30 390 O 33.0924 -0.0646478 -6.01865 0
M  V30 391 H 36.9184 -1.03208 -2.85625 0
M  V30 392 H 34.5034 -0.569025 -1.38139 0
M  V30 393 H 36.3854 1.10067 -4.06772 0
M  V30 394 H 35.0604 1.41165 -2.91297 0
M  V30 395 H 33.9674 -0.782559 -3.65823 0
M  V30 396 H 35.3004 -1.01034 -4.81719 0
M  V30 397 N 36.9525 1.47285 -0.560781 0
M  V30 398 C 38.2295 1.9558 0.0277798 0
M  V30 399 C 38.6095 1.5034 1.48192 0
M  V30 400 O 37.9575 0.743882 2.16052 0
M  V30 401 C 38.1675 3.48789 -0.121418 0
M  V30 402 C 39.5155 4.24594 0.0220912 0
M  V30 403 O 40.5395 3.56166 -0.0491439 0
M  V30 404 O 39.3985 5.46217 0.175958 0
M  V30 405 H 36.4925 0.824663 0.0621342 0
M  V30 406 H 39.0385 1.5767 -0.627556 0
M  V30 407 H 37.8105 3.74533 -1.13316 0
M  V30 408 H 37.4335 3.93473 0.571366 0
M  V30 409 N 38.4306 0.297415 1.54768 0
M  V30 410 C 39.6766 -0.306263 2.01081 0
M  V30 411 C 40.0316 -1.518 1.18214 0
M  V30 412 O 39.3246 -1.89967 0.249613 0
M  V30 413 C 39.5186 -0.717561 3.50123 0
M  V30 414 C 39.3476 0.45277 4.47415 0
M  V30 415 C 38.1176 0.943651 4.9641 0
M  V30 416 C 40.3156 1.29657 4.97688 0
M  V30 417 N 38.2976 2.08112 5.77549 0
M  V30 418 C 39.6686 2.28158 5.76493 0
M  V30 419 C 41.7236 1.32735 4.79881 0
M  V30 420 C 40.4266 3.29509 6.39387 0
M  V30 421 C 42.4526 2.32943 5.43591 0
M  V30 422 C 41.8146 3.30174 6.22225 0
M  V30 423 H 37.9136 -0.0766274 0.778237 0
M  V30 424 H 40.4976 0.426515 1.89971 0
M  V30 425 H 38.6686 -1.41952 3.6153 0
M  V30 426 H 40.4006 -1.30047 3.83236 0
M  V30 427 H 37.1556 0.51922 4.70745 0
M  V30 428 H 37.5796 2.65414 6.22803 0
M  V30 429 H 42.2216 0.589375 4.18672 0
M  V30 430 H 39.9396 4.04228 6.99732 0
M  V30 431 H 43.5256 2.36094 5.31743 0
M  V30 432 H 42.4056 4.06445 6.7065 0
M  V30 433 N 39.9087 -1.5758 0.0250728 0
M  V30 434 C 40.8407 -2.06869 -0.986796 0
M  V30 435 C 41.8537 -0.991332 -1.29137 0
M  V30 436 O 43.0427 -1.26761 -1.25674 0
M  V30 437 C 40.1427 -2.47486 -2.31525 0
M  V30 438 C 39.3157 -3.78253 -2.19643 0
M  V30 439 C 38.3747 -4.05464 -3.35388 0
M  V30 440 O 37.4007 -4.75774 -3.12454 0
M  V30 441 N 38.6027 -3.55321 -4.59051 0
M  V30 442 H 41.3677 -2.94302 -0.566276 0
M  V30 443 H 38.9287 -1.6109 -0.161776 0
M  V30 444 H 40.9207 -2.62785 -3.07776 0
M  V30 445 H 39.4907 -1.65441 -2.65232 0
M  V30 446 H 38.7107 -3.7279 -1.28144 0
M  V30 447 H 39.9987 -4.63936 -2.08903 0
M  V30 448 H 39.3967 -2.98431 -4.80578 0
M  V30 449 H 37.9537 -3.75905 -5.32483 0
M  V30 450 N 41.3868 0.248026 -1.55636 0
M  V30 451 C 42.6268 0.983592 -1.79178 0
M  V30 452 C 42.9908 1.82567 -0.594414 0
M  V30 453 O 44.1918 2.59292 -0.708583 0
M  V30 454 C 42.4628 1.82228 -3.07454 0
M  V30 455 S 44.0218 2.61709 -3.52213 0
M  V30 456 H 40.8398 0.330866 -0.629324 0
M  V30 457 H 43.4418 0.251562 -1.93875 0
M  V30 458 H 42.1458 1.19333 -3.92668 0
M  V30 459 H 41.6768 2.59708 -2.95492 0
M  V30 460 H 43.6918 3.84655 -3.13457 0
M  V30 461 N 42.8649 1.48995 0.513639 0
M  V30 462 C 44.2759 1.5119 1.09537 0
M  V30 463 C 44.6269 0.290906 1.94031 0
M  V30 464 O 43.7519 -0.60049 2.07902 0
M  V30 465 C 44.3469 2.73964 1.99322 0
M  V30 466 C 42.9059 2.78978 2.52682 0
M  V30 467 C 42.0529 2.44934 1.30009 0
M  V30 468 H 45.0039 1.55875 0.298125 0
M  V30 469 H 45.0249 2.53409 2.83838 0
M  V30 470 H 44.5369 3.62813 1.37799 0
M  V30 471 H 42.6379 1.94378 3.1788 0
M  V30 472 H 42.7509 3.8083 2.90698 0
M  V30 473 H 41.1149 1.9644 1.62122 0
M  V30 474 H 41.8979 3.36043 0.702131 0
M  V30 475 N 44.343 -0.763751 1.37857 0
M  V30 476 C 45.759 -1.06542 1.18832 0
M  V30 477 C 45.959 -2.01478 0.0299722 0
M  V30 478 O 45.015 -2.4458 -0.627447 0
M  V30 479 C 46.328 -1.65525 2.51042 0
M  V30 480 C 47.876 -1.77745 2.57635 0
M  V30 481 C 48.351 -2.4014 3.89996 0
M  V30 482 N 49.842 -2.47582 3.91481 0
M  V30 483 C 50.577 -2.96732 4.9065 0
M  V30 484 N 50.073 -3.45993 6.00217 0
M  V30 485 N 51.866 -2.95679 4.78048 0
M  V30 486 H 44.017 -0.133556 2.1198 0
M  V30 487 H 46.28 -0.121879 0.940133 0
M  V30 488 H 45.986 -1.03236 3.36207 0
M  V30 489 H 45.86 -2.64719 2.68707 0
M  V30 490 H 48.247 -2.39164 1.72872 0
M  V30 491 H 48.328 -0.772836 2.43846 0
M  V30 492 H 47.972 -1.79358 4.75177 0
M  V30 493 H 47.902 -3.41223 4.01092 0
M  V30 494 H 50.393 -2.1273 3.12337 0
M  V30 495 H 50.706 -3.81922 6.7183 0
M  V30 496 H 49.051 -3.44077 6.03851 0
M  V30 497 H 52.242 -2.56499 3.91568 0
M  V30 498 H 52.415 -3.33672 5.55488 0
M  V30 499 N 45.8211 -1.22559 -0.990812 0
M  V30 500 C 47.0491 -1.07779 -1.76611 0
M  V30 501 C 47.4641 0.371513 -1.85109 0
M  V30 502 O 46.8211 1.25737 -1.32274 0
M  V30 503 C 46.8721 -1.68512 -3.19822 0
M  V30 504 O 46.5931 -3.07774 -3.1178 0
M  V30 505 C 48.0941 -1.59035 -4.13791 0
M  V30 506 H 45.3141 -0.377729 -0.554583 0
M  V30 507 H 47.8581 -1.62195 -1.24551 0
M  V30 508 H 46.0131 -1.18154 -3.68942 0
M  V30 509 H 46.4271 -3.37062 -4.01858 0
M  V30 510 H 47.9011 -2.0625 -5.1202 0
M  V30 511 H 48.3781 -0.547273 -4.35777 0
M  V30 512 H 48.9841 -2.08709 -3.70568 0
M  V30 513 N 47.2992 1.18797 -1.03562 0
M  V30 514 C 48.7102 1.70322 -0.764676 0
M  V30 515 C 49.0612 1.82708 0.714996 0
M  V30 516 O 48.1862 1.50299 1.55689 0
M  V30 517 C 48.7812 3.09356 -1.38145 0
M  V30 518 C 47.3402 3.58114 -1.15895 0
M  V30 519 C 46.4872 2.34798 -1.4753 0
M  V30 520 H 49.4382 1.03543 -1.20268 0
M  V30 521 H 49.4592 3.72378 -0.781977 0
M  V30 522 H 48.9712 3.00309 -2.45837 0
M  V30 523 H 47.0722 3.72464 -0.100544 0
M  V30 524 H 47.1852 4.4184 -1.8524 0
M  V30 525 H 45.5492 2.38464 -0.894829 0
M  V30 526 H 46.3322 2.28375 -2.56319 0
M  V30 527 N 48.7773 0.814389 1.34928 0
M  V30 528 C 50.0073 0.41054 2.0248 0
M  V30 529 C 50.4153 -0.985625 1.61499 0
M  V30 530 O 49.7583 -1.64781 0.811976 0
M  V30 531 C 49.8203 0.423384 3.56998 0
M  V30 532 C 49.4843 1.77141 4.21272 0
M  V30 533 C 50.4813 2.73093 4.42398 0
M  V30 534 C 48.1663 2.05755 4.58225 0
M  V30 535 C 50.1603 3.95838 4.9959 0
M  V30 536 C 47.8473 3.28762 5.1513 0
M  V30 537 C 48.8453 4.23621 5.35755 0
M  V30 538 O 48.5333 5.44456 5.91458 0
M  V30 539 H 48.2653 0.163997 0.655806 0
M  V30 540 H 50.8193 1.10155 1.73364 0
M  V30 541 H 49.0493 -0.324276 3.85338 0
M  V30 542 H 50.7383 0.0407683 4.0588 0
M  V30 543 H 51.5043 2.5228 4.14222 0
M  V30 544 H 47.3833 1.32727 4.4148 0
M  V30 545 H 50.9273 4.69891 5.15605 0
M  V30 546 H 46.8243 3.49443 5.42734 0
M  V30 547 H 47.5923 5.4586 6.09901 0
M  V30 548 N 50.2554 -1.46986 0.568584 0
M  V30 549 C 51.2184 -2.28624 -0.162366 0
M  V30 550 C 52.2184 -1.37596 -0.832103 0
M  V30 551 O 53.4084 -1.60115 -0.68622 0
M  V30 552 C 50.5404 -3.17596 -1.23878 0
M  V30 553 H 51.7334 -2.94722 0.554899 0
M  V30 554 H 49.2864 -1.52863 0.325976 0
M  V30 555 H 50.0214 -2.56214 -1.98808 0
M  V30 556 H 49.8064 -3.846 -0.763219 0
M  V30 557 H 51.2964 -3.79078 -1.75185 0
M  V30 558 N 51.7335 -0.305618 -1.54608 0
M  V30 559 C 52.6965 0.555591 -2.22364 0
M  V30 560 C 53.6965 1.05768 -1.21119 0
M  V30 561 O 54.8865 0.952972 -1.45822 0
M  V30 562 C 52.0185 1.76974 -2.91364 0
M  V30 563 H 53.2115 -0.0364572 -2.99878 0
M  V30 564 H 50.7645 -0.0565007 -1.56198 0
M  V30 565 H 51.4995 2.40151 -2.17941 0
M  V30 566 H 51.2845 1.41732 -3.65588 0
M  V30 567 H 52.7745 2.38148 -3.43038 0
M  V30 568 N 53.2116 1.57565 -0.0334293 0
M  V30 569 C 54.4366 1.96689 0.657895 0
M  V30 570 C 54.8616 0.910057 1.64619 0
M  V30 571 O 54.2196 -0.128598 1.80843 0
M  V30 572 C 54.2676 3.34905 1.33683 0
M  V30 573 O 53.3716 3.31574 2.45219 0
M  V30 574 H 52.7126 0.641205 0.172489 0
M  V30 575 H 55.2426 2.04372 -0.0965621 0
M  V30 576 H 55.2526 3.71234 1.69262 0
M  V30 577 H 53.9276 4.11366 0.612411 0
M  V30 578 H 52.5046 3.06968 2.11719 0
M  V30 579 N 54.6897 -0.239769 1.55765 0
M  V30 580 C 56.1057 -0.588624 1.48349 0
M  V30 581 C 56.3057 -1.88005 0.72502 0
M  V30 582 O 55.3617 -2.51186 0.257269 0
M  V30 583 C 56.6747 -0.68474 2.928 0
M  V30 584 C 58.2227 -0.77659 3.03213 0
M  V30 585 C 58.6977 -0.904207 4.48986 0
M  V30 586 N 60.1887 -0.968896 4.52953 0
M  V30 587 C 60.9237 -1.08703 5.63002 0
M  V30 588 N 60.4197 -1.17026 6.82845 0
M  V30 589 N 62.2127 -1.12074 5.50814 0
M  V30 590 H 54.3637 0.607911 2.03515 0
M  V30 591 H 56.6267 0.21083 0.924259 0
M  V30 592 H 56.3327 0.194284 3.51163 0
M  V30 593 H 56.2067 -1.55435 3.43686 0
M  V30 594 H 58.5937 -1.64606 2.44926 0
M  V30 595 H 58.6747 0.118315 2.55526 0
M  V30 596 H 58.3187 -0.0392633 5.07885 0
M  V30 597 H 58.2487 -1.81426 4.9436 0
M  V30 598 H 60.7397 -0.915633 3.6664 0
M  V30 599 H 61.0527 -1.25966 7.62465 0
M  V30 600 H 59.3977 -1.13971 6.85591 0
M  V30 601 H 62.5887 -1.05226 4.5612 0
M  V30 602 H 62.7617 -1.20936 6.36615 0
M  V30 603 N 56.1678 -1.49265 -0.50573 0
M  V30 604 C 57.4448 -1.49012 -1.26707 0
M  V30 605 C 57.8248 -0.215205 -2.1 0
M  V30 606 O 57.1728 0.802547 -2.13943 0
M  V30 607 C 57.3828 -2.7663 -2.12783 0
M  V30 608 C 58.7308 -3.25932 -2.72127 0
M  V30 609 O 59.7548 -2.77715 -2.23054 0
M  V30 610 O 58.6138 -4.09897 -3.61451 0
M  V30 611 H 55.7078 -0.596197 -0.57313 0
M  V30 612 H 58.2538 -1.61524 -0.52039 0
M  V30 613 H 57.0258 -3.60916 -1.5118 0
M  V30 614 H 56.6488 -2.66956 -2.94653 0
M  V30 615 N 57.6459 0.756429 -1.3826 0
M  V30 616 C 58.8929 1.51547 -1.34312 0
M  V30 617 C 59.2209 1.94382 0.0677144 0
M  V30 618 O 58.4759 1.65514 1.04421 0
M  V30 619 C 58.7749 2.78313 -2.24224 0
M  V30 620 C 58.4409 2.54455 -3.72241 0
M  V30 621 C 57.1029 2.47657 -4.12576 0
M  V30 622 C 59.4549 2.3354 -4.65949 0
M  V30 623 C 56.7829 2.17956 -5.44713 0
M  V30 624 C 59.1349 2.05359 -5.9834 0
M  V30 625 C 57.7989 1.97016 -6.37762 0
M  V30 626 H 57.0689 0.55455 -0.491482 0
M  V30 627 H 59.7159 0.870039 -1.70595 0
M  V30 628 H 58.0209 3.47492 -1.80987 0
M  V30 629 H 59.7179 3.36259 -2.18474 0
M  V30 630 H 56.3079 2.60616 -3.40261 0
M  V30 631 H 60.4919 2.37772 -4.35635 0
M  V30 632 H 55.7479 2.10003 -5.74203 0
M  V30 633 H 59.9219 1.88179 -6.70494 0
M  V30 634 H 57.5489 1.73766 -7.40074 0
M  V30 635 N 59.124 1.23083 0.984299 0
M  V30 636 C 60.401 0.9689 1.69917 0
M  V30 637 C 60.781 -0.513604 2.04757 0
M  V30 638 O 60.129 -1.48383 1.73767 0
M  V30 639 C 60.339 1.87518 2.94343 0
M  V30 640 C 61.687 2.13636 3.6694 0
M  V30 641 O 62.711 1.85036 3.04368 0
M  V30 642 O 61.57 2.62119 4.79537 0
M  V30 643 H 58.664 0.365095 0.742048 0
M  V30 644 H 61.21 1.34107 1.03987 0
M  V30 645 H 59.982 2.87756 2.65164 0
M  V30 646 H 59.605 1.50514 3.6801 0
M  V30 647 N 60.6021 -1.18246 1.0419 0
M  V30 648 C 61.8481 -1.88536 0.747122 0
M  V30 649 C 62.1811 -1.80223 -0.723409 0
M  V30 650 O 61.4561 -1.20337 -1.52804 0
M  V30 651 C 61.7391 -3.38968 1.21544 0
M  V30 652 C 61.5921 -3.56084 2.74816 0
M  V30 653 C 62.9111 -4.32648 0.806482 0
M  V30 654 H 60.0301 -0.684619 0.272883 0
M  V30 655 H 62.6721 -1.39113 1.29413 0
M  V30 656 H 60.8221 -3.8119 0.750081 0
M  V30 657 H 62.4941 -3.22946 3.29399 0
M  V30 658 H 60.7371 -2.98699 3.14582 0
M  V30 659 H 61.4081 -4.61639 3.02644 0
M  V30 660 H 63.8841 -3.98211 1.20695 0
M  V30 661 H 62.7601 -5.36462 1.1619 0
M  V30 662 H 63.0211 -4.41146 -0.29029 0
M  V30 663 N 62.0802 -0.821533 -1.34494 0
M  V30 664 C 63.0272 -0.240397 -2.29545 0
M  V30 665 C 63.9972 0.634031 -1.53523 0
M  V30 666 O 65.1822 0.575966 -1.81899 0
M  V30 667 C 62.3222 0.592869 -3.39969 0
M  V30 668 C 61.4352 -0.30365 -4.30932 0
M  V30 669 C 60.5702 0.539049 -5.28458 0
M  V30 670 C 59.6092 -0.356942 -6.11058 0
M  V30 671 N 58.7462 0.446603 -7.00678 0
M  V30 672 H 63.5862 -1.05632 -2.7865 0
M  V30 673 H 61.1232 -0.532413 -1.37127 0
M  V30 674 H 63.0812 1.09129 -4.02675 0
M  V30 675 H 61.7112 1.37392 -2.92102 0
M  V30 676 H 60.7632 -0.920276 -3.691 0
M  V30 677 H 62.0752 -0.992661 -4.88823 0
M  V30 678 H 61.2292 1.102 -5.96608 0
M  V30 679 H 59.9682 1.26157 -4.71101 0
M  V30 680 H 58.9732 -0.932047 -5.41842 0
M  V30 681 H 60.1982 -1.07755 -6.70497 0
M  V30 682 H 58.1442 1.15282 -6.45791 0
M  V30 683 H 58.0612 -0.184048 -7.55776 0
M  V30 684 H 59.3292 0.992352 -7.73158 0
M  V30 685 N 63.5583 1.46682 -0.576371 0
M  V30 686 C 64.7883 2.06498 -0.0648694 0
M  V30 687 C 65.1963 1.42665 1.24271 0
M  V30 688 O 64.5393 0.523886 1.76071 0
M  V30 689 C 64.6013 3.5904 0.181816 0
M  V30 690 C 64.2653 4.45028 -1.0392 0
M  V30 691 C 65.2623 4.81959 -1.94966 0
M  V30 692 C 62.9473 4.86259 -1.25927 0
M  V30 693 C 64.9413 5.58942 -3.06371 0
M  V30 694 C 62.6283 5.63002 -2.37638 0
M  V30 695 C 63.6263 5.99257 -3.2769 0
M  V30 696 O 63.3143 6.7445 -4.37461 0
M  V30 697 H 63.0463 0.674028 -0.0515987 0
M  V30 698 H 65.6003 1.89393 -0.794951 0
M  V30 699 H 63.8303 3.74429 0.966436 0
M  V30 700 H 65.5193 4.00806 0.641047 0
M  V30 701 H 66.2853 4.50689 -1.79177 0
M  V30 702 H 62.1643 4.57494 -0.567448 0
M  V30 703 H 65.7083 5.87158 -3.76684 0
M  V30 704 H 61.6053 5.93686 -2.53392 0
M  V30 705 H 62.3733 6.92867 -4.35749 0
M  V30 706 N 65.0364 0.313813 1.54444 0
M  V30 707 C 66.2824 -0.292108 2.00685 0
M  V30 708 C 66.6154 -1.52548 1.20177 0
M  V30 709 O 65.8904 -1.92452 0.281531 0
M  V30 710 C 66.1734 -0.635968 3.5444 0
M  V30 711 C 66.0264 0.607437 4.4568 0
M  V30 712 C 67.3454 -1.45747 4.15266 0
M  V30 713 H 64.4644 -0.104697 0.729526 0
M  V30 714 H 67.1064 0.428457 1.85106 0
M  V30 715 H 65.2564 -1.24986 3.67846 0
M  V30 716 H 66.9284 1.24581 4.44159 0
M  V30 717 H 65.1714 1.23822 4.15753 0
M  V30 718 H 65.8424 0.322515 5.51057 0
M  V30 719 H 68.3184 -0.938645 4.05375 0
M  V30 720 H 67.1944 -1.66683 5.2298 0
M  V30 721 H 67.4554 -2.45063 3.67963 0
M  V30 722 N 66.5145 -1.57545 0.0417849 0
M  V30 723 C 67.7605 -1.92601 -0.635021 0
M  V30 724 C 68.0935 -0.919627 -1.71045 0
M  V30 725 O 67.3685 0.0557892 -1.9442 0
M  V30 726 C 67.6515 -3.38085 -1.23979 0
M  V30 727 C 67.5045 -4.49467 -0.173057 0
M  V30 728 C 68.8235 -3.83776 -2.15416 0
M  V30 729 H 65.9425 -0.700397 -0.229374 0
M  V30 730 H 68.5845 -1.89728 0.101633 0
M  V30 731 H 66.7345 -3.40664 -1.86762 0
M  V30 732 H 68.4065 -4.59018 0.458312 0
M  V30 733 H 66.6495 -4.30909 0.499996 0
M  V30 734 H 67.3205 -5.48323 -0.636054 0
M  V30 735 H 69.7965 -3.83013 -1.62605 0
M  V30 736 H 68.6725 -4.8624 -2.54679 0
M  V30 737 H 68.9335 -3.19998 -3.05047 0
M  V30 738 N 67.9926 0.231505 -1.5589 0
M  V30 739 C 69.4036 0.799327 -1.68724 0
M  V30 740 C 69.7546 1.85398 -0.642022 0
M  V30 741 O 68.8796 2.1539 0.208784 0
M  V30 742 C 69.4746 1.45664 -3.05888 0
M  V30 743 C 68.0336 1.97197 -3.20609 0
M  V30 744 C 67.1806 0.828552 -2.64632 0
M  V30 745 H 70.1316 0.00702616 -1.58698 0
M  V30 746 H 70.1526 2.32517 -3.01191 0
M  V30 747 H 69.6646 0.688808 -3.81939 0
M  V30 748 H 67.7656 2.76813 -2.4941 0
M  V30 749 H 67.8786 2.15878 -4.27707 0
M  V30 750 H 66.2426 1.23321 -2.22854 0
M  V30 751 H 67.0256 0.0735544 -3.43221 0
M  V30 752 N 69.4707 1.49531 0.497807 0
M  V30 753 C 70.6957 1.63159 1.28039 0
M  V30 754 C 71.1207 0.30418 1.85624 0
M  V30 755 O 70.4787 -0.728618 1.66015 0
M  V30 756 C 70.5267 2.70537 2.38416 0
M  V30 757 O 69.6307 2.29931 3.42353 0
M  V30 758 H 68.9717 0.546001 0.377861 0
M  V30 759 H 71.5017 1.9574 0.59558 0
M  V30 760 H 71.5117 2.92802 2.84132 0
M  V30 761 H 70.1867 3.6689 1.95869 0
M  V30 762 H 68.7637 2.18009 3.02533 0
M  V30 763 N 70.9488 -0.749086 1.3866 0
M  V30 764 C 72.1958 -1.50833 1.35114 0
M  V30 765 C 72.5238 -1.94415 -0.0574049 0
M  V30 766 O 71.7788 -1.66065 -1.03541 0
M  V30 767 C 72.0778 -2.7712 2.25697 0
M  V30 768 C 71.7438 -2.52477 3.73585 0
M  V30 769 C 70.4058 -2.45466 4.13884 0
M  V30 770 C 72.7578 -2.31066 4.67181 0
M  V30 771 C 70.0858 -2.15064 5.45861 0
M  V30 772 C 72.4378 -2.02183 5.9942 0
M  V30 773 C 71.1018 -1.93631 6.38798 0
M  V30 774 H 70.3718 -0.551936 0.494416 0
M  V30 775 H 73.0188 -0.860979 1.71054 0
M  V30 776 H 71.3238 -3.46528 1.82827 0
M  V30 777 H 73.0208 -3.35096 2.20254 0
M  V30 778 H 69.6108 -2.58807 3.41638 0
M  V30 779 H 73.7948 -2.35459 4.3689 0
M  V30 780 H 69.0508 -2.06954 5.75308 0
M  V30 781 H 73.2248 -1.8462 6.71482 0
M  V30 782 H 70.8518 -1.69839 7.40985 0
M  V30 783 N 72.4269 -1.23603 -0.977757 0
M  V30 784 C 73.6519 -1.09735 -1.75991 0
M  V30 785 C 74.0769 0.346858 -1.84874 0
M  V30 786 O 73.4349 1.25093 -1.3123 0
M  V30 787 C 73.4829 -1.73051 -3.16363 0
M  V30 788 O 72.5869 -0.994452 -4.0023 0
M  V30 789 H 71.9279 -0.384476 -0.541364 0
M  V30 790 H 74.4579 -1.6371 -1.2272 0
M  V30 791 H 74.4679 -1.78398 -3.66931 0
M  V30 792 H 73.1429 -2.78137 -3.09213 0
M  V30 793 H 71.7199 -1.01812 -3.58732 0
M  V30 794 N 73.905 1.17692 -1.04816 0
M  V30 795 C 74.868 2.19787 -0.650117 0
M  V30 796 C 75.868 1.58044 0.296427 0
M  V30 797 O 77.058 1.74012 0.0808097 0
M  V30 798 C 74.19 3.40869 0.0456987 0
M  V30 799 H 75.383 2.56516 -1.5537 0
M  V30 800 H 72.936 1.31708 -0.841594 0
M  V30 801 H 73.671 3.09681 0.962726 0
M  V30 802 H 73.456 3.86928 -0.634727 0
M  V30 803 H 74.946 4.16445 0.310432 0
M  V30 804 N 75.3831 0.828654 1.34056 0
M  V30 805 C 76.6311 0.41863 1.97717 0
M  V30 806 C 76.9521 -1.02314 1.66002 0
M  V30 807 O 76.2221 -1.71119 0.953683 0
M  V30 808 H 74.8021 0.151809 0.731412 0
M  V30 809 H 77.4641 1.05936 1.63596 0
M  V30 810 H 76.5601 0.542318 3.07352 0
M  V30 811 N 76.8612 -1.46375 0.584142 0
M  V30 812 C 78.1092 -2.01978 0.0701287 0
M  V30 813 C 78.4302 -1.4579 -1.295 0
M  V30 814 O 77.7002 -0.64314 -1.85042 0
M  V30 815 H 76.2802 -0.746648 0.0229345 0
M  V30 816 H 78.9422 -1.79461 0.760245 0
M  V30 817 H 78.0382 -3.121 0.0022064 0
M  V30 818 N 78.3393 -0.321999 -1.54275 0
M  V30 819 C 79.2693 0.537411 -2.27231 0
M  V30 820 C 80.2503 1.12064 -1.27968 0
M  V30 821 O 81.4353 1.14606 -1.56777 0
M  V30 822 C 78.5653 1.69919 -3.02894 0
M  V30 823 C 77.5193 1.24534 -4.09482 0
M  V30 824 C 76.8453 2.49394 -4.72977 0
M  V30 825 C 78.1453 0.361335 -5.21049 0
M  V30 826 H 79.8393 -0.0711406 -2.99315 0
M  V30 827 H 77.3853 -0.0356555 -1.43956 0
M  V30 828 H 79.3383 2.30668 -3.52662 0
M  V30 829 H 78.0623 2.33431 -2.28424 0
M  V30 830 H 76.7213 0.660782 -3.60596 0
M  V30 831 H 76.3693 3.11265 -3.95124 0
M  V30 832 H 76.0693 2.19718 -5.44975 0
M  V30 833 H 77.5933 3.10908 -5.25517 0
M  V30 834 H 79.0073 0.875072 -5.66582 0
M  V30 835 H 77.4043 0.157428 -5.99893 0
M  V30 836 H 78.4743 -0.60822 -4.8107 0
M  V30 837 N 79.8174 1.5752 -0.0501392 0
M  V30 838 C 81.0634 1.92936 0.624798 0
M  V30 839 C 81.3964 0.928685 1.70555 0
M  V30 840 O 80.6714 -0.0454779 1.94447 0
M  V30 841 C 80.9544 3.38737 1.22185 0
M  V30 842 C 80.8074 4.49552 0.149218 0
M  V30 843 C 82.1264 3.84913 2.13378 0
M  V30 844 H 79.2454 0.701604 0.225657 0
M  V30 845 H 81.8874 1.89671 -0.111693 0
M  V30 846 H 80.0374 3.4165 1.84953 0
M  V30 847 H 81.7094 4.58768 -0.482648 0
M  V30 848 H 79.9524 4.30638 -0.522841 0
M  V30 849 H 80.6234 5.48653 0.606966 0
M  V30 850 H 83.0994 3.8387 1.60572 0
M  V30 851 H 81.9754 4.87584 2.52097 0
M  V30 852 H 82.2364 3.21611 3.03346 0
M  V30 853 N 81.2955 -0.223234 1.56011 0
M  V30 854 C 82.2275 -1.30006 1.88762 0
M  V30 855 C 83.2405 -1.43129 0.775746 0
M  V30 856 O 84.4295 -1.44057 1.05403 0
M  V30 857 C 81.5295 -2.67589 2.07965 0
M  V30 858 C 80.7025 -2.76434 3.38973 0
M  V30 859 C 79.7615 -3.95019 3.47629 0
M  V30 860 O 78.7875 -3.83436 4.20672 0
M  V30 861 N 79.9895 -5.09249 2.78649 0
M  V30 862 H 82.7545 -1.02238 2.81722 0
M  V30 863 H 80.3155 -0.413278 1.56536 0
M  V30 864 H 82.3075 -3.45297 2.11073 0
M  V30 865 H 80.8775 -2.87964 1.21638 0
M  V30 866 H 80.0975 -1.85216 3.47978 0
M  V30 867 H 81.3855 -2.79313 4.25278 0
M  V30 868 H 80.7835 -5.21556 2.19081 0
M  V30 869 H 79.3405 -5.85007 2.8742 0
M  V30 870 N 82.7736 -1.49793 -0.48987 0
M  V30 871 C 83.7366 -1.66752 -1.57246 0
M  V30 872 C 84.7366 -0.538867 -1.51502 0
M  V30 873 O 85.9266 -0.805545 -1.54456 0
M  V30 874 C 83.0586 -1.67528 -2.96896 0
M  V30 875 H 84.2516 -2.63321 -1.43534 0
M  V30 876 H 81.8046 -1.38992 -0.714914 0
M  V30 877 H 82.5396 -0.725837 -3.16073 0
M  V30 878 H 82.3246 -2.49504 -3.02473 0
M  V30 879 H 83.8146 -1.82667 -3.7553 0
M  V30 880 N 84.2517 0.741722 -1.39055 0
M  V30 881 C 85.1847 1.86416 -1.31622 0
M  V30 882 C 86.1627 1.61473 -0.191076 0
M  V30 883 O 87.3467 1.84825 -0.370399 0
M  V30 884 C 84.4737 3.22266 -1.04221 0
M  V30 885 C 83.5197 3.66079 -2.18834 0
M  V30 886 S 84.3527 3.7623 -3.81066 0
M  V30 887 C 85.5087 5.14881 -3.55877 0
M  V30 888 H 85.7417 1.92437 -2.26617 0
M  V30 889 H 83.2747 0.905907 -1.25031 0
M  V30 890 H 85.2327 4.00714 -0.890964 0
M  V30 891 H 83.8937 3.1391 -0.109237 0
M  V30 892 H 83.0867 4.64648 -1.95238 0
M  V30 893 H 82.6887 2.94817 -2.30128 0
M  V30 894 H 84.9807 6.01006 -3.12726 0
M  V30 895 H 85.9237 5.43503 -4.53884 0
M  V30 896 H 86.3317 4.84239 -2.90126 0
M  V30 897 N 85.7298 1.2412 0.971189 0
M  V30 898 C 86.9758 1.08041 1.71625 0
M  V30 899 C 87.3088 -0.380407 1.90438 0
M  V30 900 O 86.5838 -1.28127 1.46334 0
M  V30 901 C 86.8668 1.81682 3.10908 0
M  V30 902 C 86.7198 3.35493 2.99608 0
M  V30 903 C 88.0388 1.58671 4.10501 0
M  V30 904 H 85.1578 0.39388 0.622919 0
M  V30 905 H 87.7998 1.52743 1.13003 0
M  V30 906 H 85.9498 1.43684 3.60953 0
M  V30 907 H 87.6218 3.83068 2.57015 0
M  V30 908 H 85.8648 3.64052 2.35899 0
M  V30 909 H 86.5358 3.82217 3.98264 0
M  V30 910 H 89.0118 1.91719 3.69301 0
M  V30 911 H 87.8878 2.1266 5.06031 0
M  V30 912 H 88.1488 0.524161 4.38982 0
M  V30 913 N 87.2079 -1.17134 1.05439 0
M  V30 914 C 88.4359 -1.91372 0.786414 0
M  V30 915 C 88.8509 -1.76955 -0.658202 0
M  V30 916 O 88.2079 -1.10838 -1.44987 0
M  V30 917 C 88.2589 -3.42356 1.1608 0
M  V30 918 O 87.9799 -3.56332 2.54871 0
M  V30 919 C 89.4809 -4.33663 0.919322 0
M  V30 920 H 86.7009 -0.607118 0.285743 0
M  V30 921 H 89.2449 -1.48525 1.40572 0
M  V30 922 H 87.3999 -3.82939 0.586191 0
M  V30 923 H 87.8139 -4.49896 2.69618 0
M  V30 924 H 89.2879 -5.38099 1.231 0
M  V30 925 H 89.7649 -4.38959 -0.145359 0
M  V30 926 H 90.3709 -3.98796 1.47789 0
M  V30 927 N 88.686 -0.835752 -1.33615 0
M  V30 928 C 89.916 -0.442701 -2.01801 0
M  V30 929 C 90.324 0.959807 -1.63047 0
M  V30 930 O 89.667 1.63468 -0.838088 0
M  V30 931 C 89.729 -0.480125 -3.56279 0
M  V30 932 C 89.393 -1.8382 -4.18401 0
M  V30 933 C 90.39 -2.80097 -4.37998 0
M  V30 934 C 88.075 -2.13019 -4.54894 0
M  V30 935 C 90.069 -4.03736 -4.9323 0
M  V30 936 C 87.756 -3.36916 -5.09834 0
M  V30 937 C 88.754 -4.32091 -5.28948 0
M  V30 938 O 88.442 -5.53797 -5.82721 0
M  V30 939 H 88.174 -0.17441 -0.653114 0
M  V30 940 H 90.728 -1.129 -1.71589 0
M  V30 941 H 88.958 0.262931 -3.85805 0
M  V30 942 H 90.647 -0.105335 -4.05763 0
M  V30 943 H 91.413 -2.58838 -4.10156 0
M  V30 944 H 87.292 -1.39733 -4.39313 0
M  V30 945 H 90.836 -4.78034 -5.08064 0
M  V30 946 H 86.733 -3.58033 -5.37106 0
M  V30 947 H 87.501 -5.55494 -6.0114 0
M  V30 948 N 90.1641 1.46063 -0.591896 0
M  V30 949 C 91.0741 2.34192 0.13831 0
M  V30 950 C 92.0901 1.50305 0.876608 0
M  V30 951 O 93.2661 1.8315 0.837728 0
M  V30 952 C 90.3311 3.27656 1.13326 0
M  V30 953 C 89.3921 4.27445 0.39863 0
M  V30 954 C 88.6251 5.16443 1.34618 0
M  V30 955 O 88.8481 5.08553 2.58321 0
M  V30 956 O 87.7821 5.95843 0.851768 0
M  V30 957 H 91.6081 2.98002 -0.58552 0
M  V30 958 H 89.1931 1.45188 -0.352239 0
M  V30 959 H 91.0751 3.85291 1.70671 0
M  V30 960 H 89.7501 2.6643 1.83839 0
M  V30 961 H 88.6571 3.73471 -0.216895 0
M  V30 962 H 89.9901 4.91482 -0.265709 0
M  V30 963 N 91.6422 0.330177 1.54103 0
M  V30 964 C 92.8902 -0.269871 2.0029 0
M  V30 965 C 93.2112 -1.52133 1.21986 0
M  V30 966 O 92.4812 -1.93212 0.323438 0
M  V30 967 H 91.0612 -0.10271 0.739905 0
M  V30 968 H 93.7232 0.448249 1.89675 0
M  V30 969 H 92.8192 -0.52166 3.07709 0
M  V30 970 N 93.1203 -1.57491 0.0584922 0
M  V30 971 C 94.3973 -1.84346 -0.653918 0
M  V30 972 C 94.7773 -0.948355 -1.88599 0
M  V30 973 O 94.1253 -0.0112403 -2.28497 0
M  V30 974 C 94.3353 -3.34239 -1.00425 0
M  V30 975 C 95.6833 -4.01431 -1.38342 0
M  V30 976 O 96.7073 -3.38907 -1.09637 0
M  V30 977 O 95.5663 -5.11683 -1.91943 0
M  V30 978 H 92.6603 -0.761112 -0.323478 0
M  V30 979 H 95.2063 -1.6947 0.0884125 0
M  V30 980 H 93.9783 -3.91089 -0.128625 0
M  V30 981 H 93.6013 -3.54329 -1.80378 0
M  V30 982 N 94.5984 0.214957 -1.56127 0
M  V30 983 C 96.0144 0.564948 -1.49267 0
M  V30 984 C 96.2144 1.86827 -0.754838 0
M  V30 985 O 95.2704 2.50745 -0.297198 0
M  V30 986 C 96.5834 0.638071 -2.93852 0
M  V30 987 C 98.1314 0.728253 -3.0441 0
M  V30 988 C 98.6064 0.832663 -4.50367 0
M  V30 989 N 100.097 0.896712 -4.54437 0
M  V30 990 C 100.832 0.997324 -5.6466 0
M  V30 991 N 100.328 1.06147 -6.8462 0
M  V30 992 N 102.121 1.03297 -5.52527 0
M  V30 993 H 94.2724 -0.640211 -2.02522 0
M  V30 994 H 96.5354 -0.225507 -0.920788 0
M  V30 995 H 96.2414 -0.250126 -3.50809 0
M  V30 996 H 96.1154 1.49947 -3.46115 0
M  V30 997 H 98.5024 1.60689 -2.47514 0
M  V30 998 H 98.5834 -0.158952 -2.55306 0
M  V30 999 H 98.2274 -0.0415417 -5.07883 0
M  V30 1000 H 98.1574 1.73538 -4.97184 0
M  V30 1001 H 100.648 0.857188 -3.6805 0
M  V30 1002 H 100.961 1.1382 -7.64372 0
M  V30 1003 H 99.3064 1.03049 -6.87318 0
M  V30 1004 H 102.497 0.979558 -4.57736 0
M  V30 1005 H 102.67 1.10793 -6.38458 0
M  V30 1006 N 96.0765 1.50051 0.48192 0
M  V30 1007 C 97.0245 1.68635 1.60203 0
M  V30 1008 C 98.0185 0.552184 1.60148 0
M  V30 1009 O 99.2245 0.732377 1.64427 0
M  V30 1010 H 95.5995 0.532081 0.531407 0
M  V30 1011 H 97.5705 2.62616 1.41688 0
M  V30 1012 C 96.3195 1.78775 2.9822 0
M  V30 1013 H 95.6425 2.6543 2.98976 0
M  V30 1014 H 97.0825 1.95806 3.7608 0
M  V30 1015 C 95.5415 0.536849 3.32595 0
M  V30 1016 O 96.0715 -0.328897 4.00351 0
M  V30 1017 N 94.2775 0.394091 2.87915 0
M  V30 1018 H 93.8245 1.09962 2.32951 0
M  V30 1019 H 93.7825 -0.441737 3.11281 0
M  V30 1020 N 97.5546 -0.734337 1.39446 0
M  V30 1021 C 98.4646 -1.87879 1.40495 0
M  V30 1022 C 99.4806 -1.714 0.299672 0
M  V30 1023 O 100.657 -1.93991 0.541249 0
M  V30 1024 C 97.7216 -3.23477 1.24754 0
M  V30 1025 C 96.7826 -3.52344 2.45259 0
M  V30 1026 C 96.0156 -4.81473 2.30259 0
M  V30 1027 O 96.2386 -5.55237 1.30643 0
M  V30 1028 O 95.1726 -5.10254 3.19256 0
M  V30 1029 H 98.9986 -1.89949 2.36966 0
M  V30 1030 H 96.5836 -0.882243 1.20569 0
M  V30 1031 H 98.4656 -4.04509 1.18111 0
M  V30 1032 H 97.1406 -3.22176 0.313781 0
M  V30 1033 H 96.0476 -2.71396 2.57478 0
M  V30 1034 H 97.3806 -3.58426 3.37331 0
M  V30 1035 N 99.0327 -1.24633 -0.964593 0
M  V30 1036 C 100.258 -1.11596 -1.74818 0
M  V30 1037 C 100.683 0.32723 -1.85232 0
M  V30 1038 O 100.041 1.23695 -1.32549 0
M  V30 1039 C 100.089 -1.76397 -3.1451 0
M  V30 1040 O 99.1927 -1.03685 -3.99153 0
M  V30 1041 H 98.5337 -0.390196 -0.537255 0
M  V30 1042 H 101.064 -1.65002 -1.20977 0
M  V30 1043 H 101.074 -1.8228 -3.65018 0
M  V30 1044 H 99.7487 -2.81401 -3.06246 0
M  V30 1045 H 98.3257 -1.05611 -3.57632 0
M  V30 1046 N 100.511 1.16574 -1.06058 0
M  V30 1047 C 101.474 2.19085 -0.673392 0
M  V30 1048 C 102.474 1.5835 0.279648 0
M  V30 1049 O 103.664 1.74088 0.0623488 0
M  V30 1050 C 100.796 3.40899 0.00954234 0
M  V30 1051 H 101.989 2.54853 -1.58081 0
M  V30 1052 H 99.5418 1.30808 -0.855516 0
M  V30 1053 H 100.277 3.10684 0.929826 0
M  V30 1054 H 100.062 3.86233 -0.67573 0
M  V30 1055 H 101.552 4.1675 0.266245 0
M  V30 1056 N 101.989 0.842826 1.3317 0
M  V30 1057 C 103.235 0.441099 1.97945 0
M  V30 1058 C 103.568 -0.998024 1.66593 0
M  V30 1059 O 102.843 -1.69839 0.947898 0
M  V30 1060 C 103.126 0.666841 3.53872 0
M  V30 1061 C 102.979 2.15352 3.94897 0
M  V30 1062 C 104.298 0.115544 4.39948 0
M  V30 1063 H 101.417 0.161739 0.719034 0
M  V30 1064 H 104.059 1.05907 1.57746 0
M  V30 1065 H 102.209 0.140828 3.88245 0
M  V30 1066 H 103.881 2.7447 3.70761 0
M  V30 1067 H 102.124 2.63653 3.44484 0
M  V30 1068 H 102.795 2.26221 5.03516 0
M  V30 1069 H 105.271 0.565213 4.12243 0
M  V30 1070 H 104.147 0.303152 5.48062 0
M  V30 1071 H 104.408 -0.980935 4.3108 0
M  V30 1072 N 103.467 -1.45747 0.599634 0
M  V30 1073 C 104.714 -2.02292 0.0917284 0
M  V30 1074 C 105.042 -1.46906 -1.27472 0
M  V30 1075 O 104.297 -0.630652 -1.8526 0
M  V30 1076 C 104.596 -3.57399 -0.00602758 0
M  V30 1077 C 104.262 -4.31902 1.29503 0
M  V30 1078 C 102.924 -4.51974 1.65144 0
M  V30 1079 C 105.276 -4.74551 2.15525 0
M  V30 1080 C 102.604 -5.11949 2.86574 0
M  V30 1081 C 104.956 -5.35868 3.36196 0
M  V30 1082 C 103.62 -5.54165 3.72099 0
M  V30 1083 H 102.89 -0.740239 0.0335658 0
M  V30 1084 H 105.537 -1.7491 0.779661 0
M  V30 1085 H 103.842 -3.84014 -0.777183 0
M  V30 1086 H 105.539 -3.98846 -0.415038 0
M  V30 1087 H 102.129 -4.16588 1.00761 0
M  V30 1088 H 106.313 -4.58784 1.8929 0
M  V30 1089 H 101.569 -5.24305 3.14507 0
M  V30 1090 H 105.743 -5.6787 4.03109 0
M  V30 1091 H 103.37 -6.00406 4.6628 0
M  V30 1092 N 104.945 -0.338344 -1.53925 0
M  V30 1093 C 106.191 0.260143 -2.01125 0
M  V30 1094 C 106.524 1.50617 -1.22589 0
M  V30 1095 O 105.799 1.91979 -0.312113 0
M  V30 1096 C 106.082 0.579499 -3.55407 0
M  V30 1097 C 105.935 -0.678264 -4.44657 0
M  V30 1098 C 107.254 1.39122 -4.17532 0
M  V30 1099 H 104.373 0.0930772 -0.731099 0
M  V30 1100 H 107.015 -0.457852 -1.84401 0
M  V30 1101 H 105.165 1.19118 -3.69788 0
M  V30 1102 H 106.837 -1.31631 -4.42121 0
M  V30 1103 H 105.08 -1.3042 -4.13731 0
M  V30 1104 H 105.751 -0.410143 -5.50474 0
M  V30 1105 H 108.227 0.874035 -4.06817 0
M  V30 1106 H 107.103 1.58342 -5.25565 0
M  V30 1107 H 107.364 2.39178 -3.71815 0
M  V30 1108 N 106.423 1.57458 -0.0668435 0
M  V30 1109 C 107.386 2.11323 0.887422 0
M  V30 1110 C 108.386 1.03618 1.22964 0
M  V30 1111 O 109.576 1.29626 1.16373 0
M  V30 1112 C 106.708 2.61048 2.19242 0
M  V30 1113 H 107.901 2.96942 0.420194 0
M  V30 1114 H 105.454 1.55239 0.181793 0
M  V30 1115 H 106.189 1.78868 2.70512 0
M  V30 1116 H 105.974 3.39769 1.95702 0
M  V30 1117 H 107.464 3.02814 2.87565 0
M  V30 1118 N 107.901 -0.206675 1.56239 0
M  V30 1119 C 109.15 -0.926964 1.79138 0
M  V30 1120 C 109.463 -1.84901 0.638043 0
M  V30 1121 O 110.669 -2.60906 0.751033 0
M  V30 1122 C 109.125 -1.6986 3.17294 0
M  V30 1123 C 108.733 -0.821956 4.40395 0
M  V30 1124 C 110.477 -2.40922 3.4951 0
M  V30 1125 C 108.384 -1.59179 5.69575 0
M  V30 1126 H 107.314 -0.349864 0.667915 0
M  V30 1127 H 109.965 -0.180487 1.8261 0
M  V30 1128 H 108.347 -2.48853 3.08039 0
M  V30 1129 H 109.521 -0.0715019 4.60745 0
M  V30 1130 H 107.836 -0.222741 4.15804 0
M  V30 1131 H 110.433 -2.99047 4.43255 0
M  V30 1132 H 110.776 -3.14542 2.72707 0
M  V30 1133 H 111.309 -1.68905 3.60161 0
M  V30 1134 H 108.048 -0.898589 6.49312 0
M  V30 1135 H 107.568 -2.31648 5.53262 0
M  V30 1136 H 109.247 -2.14862 6.10281 0
M  V30 1137 N 109.379 -1.50304 -0.473955 0
M  V30 1138 C 110.795 -1.37667 -0.807466 0
M  V30 1139 C 110.995 -0.430555 -1.96846 0
M  V30 1140 O 110.051 0.127874 -2.52176 0
M  V30 1141 C 111.364 -2.78974 -1.12223 0
M  V30 1142 C 112.912 -2.87868 -1.22885 0
M  V30 1143 C 113.387 -4.30003 -1.57676 0
M  V30 1144 N 114.878 -4.3294 -1.64673 0
M  V30 1145 C 115.613 -5.3991 -1.93091 0
M  V30 1146 N 115.109 -6.57092 -2.1955 0
M  V30 1147 N 116.902 -5.27351 -1.94569 0
M  V30 1148 H 109.053 -2.10394 0.291212 0
M  V30 1149 H 111.316 -0.945575 0.0677609 0
M  V30 1150 H 111.022 -3.50031 -0.342229 0
M  V30 1151 H 110.896 -3.16038 -2.05913 0
M  V30 1152 H 113.283 -2.17032 -1.99953 0
M  V30 1153 H 113.364 -2.54352 -0.271814 0
M  V30 1154 H 113.008 -5.01375 -0.81149 0
M  V30 1155 H 112.938 -4.61004 -2.54525 0
M  V30 1156 H 115.429 -3.48441 -1.46277 0
M  V30 1157 H 115.742 -7.34425 -2.405 0
M  V30 1158 H 114.087 -6.60272 -2.16948 0
M  V30 1159 H 117.278 -4.34801 -1.73394 0
M  V30 1160 H 117.451 -6.10805 -2.16381 0
M  V30 1161 N 110.857 0.726932 -1.39834 0
M  V30 1162 C 111.805 1.86235 -1.39353 0
M  V30 1163 C 112.799 1.67144 -0.275555 0
M  V30 1164 O 114.005 1.74387 -0.44601 0
M  V30 1165 H 110.38 0.613174 -0.43534 0
M  V30 1166 H 112.351 1.83756 -2.35109 0
M  V30 1167 C 111.1 3.23995 -1.26185 0
M  V30 1168 H 110.423 3.39285 -2.11484 0
M  V30 1169 H 111.863 4.03609 -1.29907 0
M  V30 1170 C 110.322 3.36888 0.0290018 0
M  V30 1171 O 110.852 3.89152 0.99619 0
M  V30 1172 N 109.058 2.90446 0.0947437 0
M  V30 1173 H 108.605 2.48102 -0.693035 0
M  V30 1174 H 108.563 2.99451 0.957932 0
M  V30 1175 N 112.336 1.25143 0.95797 0
M  V30 1176 C 113.752 1.01892 1.22842 0
M  V30 1177 C 113.952 -0.266311 1.99732 0
M  V30 1178 O 113.008 -0.979913 2.3271 0
M  V30 1179 C 114.321 2.24004 2.00606 0
M  V30 1180 C 115.869 2.28731 2.13662 0
M  V30 1181 C 116.344 3.5049 2.94823 0
M  V30 1182 N 117.835 3.50866 3.02403 0
M  V30 1183 C 118.57 4.4174 3.65586 0
M  V30 1184 N 118.066 5.42882 4.30408 0
M  V30 1185 N 119.859 4.29429 3.62694 0
M  V30 1186 H 112.01 2.07718 0.443493 0
M  V30 1187 H 114.273 0.912031 0.258657 0
M  V30 1188 H 113.979 3.17395 1.51503 0
M  V30 1189 H 113.853 2.26907 3.01319 0
M  V30 1190 H 116.24 1.35865 2.61963 0
M  V30 1191 H 116.321 2.29848 1.12265 0
M  V30 1192 H 115.965 4.43676 2.47213 0
M  V30 1193 H 115.895 3.46617 3.96439 0
M  V30 1194 H 118.386 2.777 2.56302 0
M  V30 1195 H 118.699 6.0844 4.76467 0
M  V30 1196 H 117.044 5.46758 4.29047 0
M  V30 1197 H 120.235 3.49643 3.11236 0
M  V30 1198 H 120.408 5.00448 4.1165 0
M  V30 1199 N 113.814 -1.1601 1.06675 0
M  V30 1200 C 114.744 -2.22688 0.702307 0
M  V30 1201 C 115.725 -1.67306 -0.307032 0
M  V30 1202 O 116.91 -1.93352 -0.181305 0
M  V30 1203 C 114.04 -3.47178 0.092038 0
M  V30 1204 C 112.994 -4.15477 1.02777 0
M  V30 1205 C 112.32 -5.33963 0.28061 0
M  V30 1206 C 113.62 -4.66019 2.35846 0
M  V30 1207 H 115.314 -2.53429 1.59419 0
M  V30 1208 H 112.86 -1.21813 0.767961 0
M  V30 1209 H 114.813 -4.21037 -0.174814 0
M  V30 1210 H 113.537 -3.15749 -0.834877 0
M  V30 1211 H 112.196 -3.43549 1.27944 0
M  V30 1212 H 111.844 -4.98788 -0.649545 0
M  V30 1213 H 111.544 -5.806 0.904258 0
M  V30 1214 H 113.068 -6.10596 0.021396 0
M  V30 1215 H 114.482 -5.3144 2.15045 0
M  V30 1216 H 112.879 -5.23293 2.93743 0
M  V30 1217 H 113.949 -3.82023 2.98641 0
M  V30 1218 N 115.292 -0.849877 -1.32721 0
M  V30 1219 C 116.242 -0.262892 -2.26479 0
M  V30 1220 C 117.226 0.588493 -1.49752 0
M  V30 1221 O 118.418 0.438659 -1.71478 0
M  V30 1222 C 115.547 0.551818 -3.38836 0
M  V30 1223 C 114.633 -0.311689 -4.22953 0
M  V30 1224 N 115.024 -1.39567 -4.86163 0
M  V30 1225 C 113.322 -0.100611 -4.45887 0
M  V30 1226 C 114.023 -1.92651 -5.48872 0
M  V30 1227 N 112.999 -1.22637 -5.29586 0
M  V30 1228 H 116.801 -1.09166 -2.72873 0
M  V30 1229 H 114.315 -0.695486 -1.46754 0
M  V30 1230 H 116.312 0.988713 -4.05006 0
M  V30 1231 H 114.972 1.37844 -2.93988 0
M  V30 1232 H 115.983 -1.77859 -4.86402 0
M  V30 1233 H 112.66 0.691681 -4.11731 0
M  V30 1234 H 114.05 -2.83487 -6.09167 0
M  V30 1235 N 116.77 1.45427 -0.607355 0
M  V30 1236 C 118.016 2.0254 -0.102607 0
M  V30 1237 C 118.349 1.47478 1.26348 0
M  V30 1238 O 117.624 0.64939 1.83339 0
M  V30 1239 C 117.907 3.60044 -0.0634347 0
M  V30 1240 C 117.76 4.2544 -1.46017 0
M  V30 1241 C 119.079 4.35646 0.624514 0
M  V30 1242 H 116.198 0.73598 -0.0387607 0
M  V30 1243 H 118.84 1.73284 -0.779282 0
M  V30 1244 H 116.99 3.85101 0.512808 0
M  V30 1245 H 118.662 4.11569 -2.08347 0
M  V30 1246 H 116.905 3.83849 -2.02094 0
M  V30 1247 H 117.576 5.34342 -1.385 0
M  V30 1248 H 120.052 4.15882 0.134723 0
M  V30 1249 H 118.928 5.45376 0.621028 0
M  V30 1250 H 119.189 4.08501 1.69055 0
M  V30 1251 N 118.248 0.346503 1.53744 0
M  V30 1252 C 119.178 -0.501193 2.28058 0
M  V30 1253 C 120.159 -1.10014 1.29734 0
M  V30 1254 O 121.344 -1.12097 1.58581 0
M  V30 1255 C 118.474 -1.65078 3.05559 0
M  V30 1256 C 117.428 -1.18003 4.11411 0
M  V30 1257 C 116.754 -2.41837 4.76884 0
M  V30 1258 C 118.054 -0.278394 5.21558 0
M  V30 1259 H 119.748 0.11875 2.99164 0
M  V30 1260 H 117.294 0.0585531 1.43881 0
M  V30 1261 H 119.247 -2.25028 3.56287 0
M  V30 1262 H 117.971 -2.29767 2.32109 0
M  V30 1263 H 116.63 -0.603331 3.61601 0
M  V30 1264 H 116.278 -3.0494 4.00026 0
M  V30 1265 H 115.978 -2.1102 5.48402 0
M  V30 1266 H 117.502 -3.02508 5.30397 0
M  V30 1267 H 118.916 -0.784823 5.67903 0
M  V30 1268 H 117.313 -0.0619707 6.00068 0
M  V30 1269 H 118.383 0.684677 4.80042 0
M  V30 1270 N 119.726 -1.57421 0.075193 0
M  V30 1271 C 120.974 -1.93236 -0.591974 0
M  V30 1272 C 121.295 -0.956241 -1.69944 0
M  V30 1273 O 120.565 -0.00494792 -1.95899 0
M  V30 1274 H 119.145 -0.713355 -0.22166 0
M  V30 1275 H 121.807 -1.9444 0.133848 0
M  V30 1276 H 120.903 -2.95131 -1.01509 0
M  V30 1277 N 121.204 0.198386 -1.56346 0
M  V30 1278 C 122.615 0.763358 -1.70381 0
M  V30 1279 C 122.966 1.83995 -0.681203 0
M  V30 1280 O 122.091 2.15785 0.16305 0
M  V30 1281 C 122.686 1.39143 -3.08909 0
M  V30 1282 C 121.245 1.90352 -3.2472 0
M  V30 1283 C 120.392 0.772233 -2.6633 0
M  V30 1284 H 123.343 -0.0266377 -1.58678 0
M  V30 1285 H 123.364 2.26076 -3.06055 0
M  V30 1286 H 122.876 0.607638 -3.83314 0
M  V30 1287 H 120.977 2.71461 -2.55225 0
M  V30 1288 H 121.09 2.06757 -4.3219 0
M  V30 1289 H 119.454 1.18566 -2.2542 0
M  V30 1290 H 120.237 0.00073556 -3.433 0
M  V30 1291 N 122.682 1.50554 0.465978 0
M  V30 1292 C 123.959 1.5232 1.22712 0
M  V30 1293 C 124.339 0.270807 2.09356 0
M  V30 1294 O 123.687 -0.745541 2.15995 0
M  V30 1295 C 123.897 2.82175 2.05374 0
M  V30 1296 C 125.245 3.33033 2.6339 0
M  V30 1297 O 126.269 2.83531 2.15612 0
M  V30 1298 O 125.128 4.19336 3.50456 0
M  V30 1299 H 122.222 0.611183 0.557122 0
M  V30 1300 H 124.768 1.62847 0.477381 0
M  V30 1301 H 123.54 3.64797 1.41558 0
M  V30 1302 H 123.163 2.74675 2.87471 0
M  V30 1303 N 124.16 -0.719506 1.40217 0
M  V30 1304 C 125.09 -1.8465 1.42922 0
M  V30 1305 C 126.071 -1.67599 0.29062 0
M  V30 1306 O 127.256 -1.87688 0.498677 0
M  V30 1307 C 124.386 -3.22565 1.28722 0
M  V30 1308 C 123.34 -3.54281 2.40144 0
M  V30 1309 C 122.666 -4.91298 2.11023 0
M  V30 1310 C 123.966 -3.55676 3.82481 0
M  V30 1311 H 125.66 -1.82644 2.37237 0
M  V30 1312 H 123.206 -0.877305 1.1419 0
M  V30 1313 H 125.159 -4.01095 1.29232 0
M  V30 1314 H 123.883 -3.25137 0.308811 0
M  V30 1315 H 122.542 -2.78088 2.38877 0
M  V30 1316 H 122.19 -4.90468 1.11582 0
M  V30 1317 H 121.89 -5.13485 2.8567 0
M  V30 1318 H 123.414 -5.72166 2.13209 0
M  V30 1319 H 124.828 -4.24254 3.85592 0
M  V30 1320 H 123.225 -3.89388 4.56614 0
M  V30 1321 H 124.295 -2.55144 4.12346 0
M  V30 1322 N 125.638 -1.25649 -0.95132 0
M  V30 1323 C 126.585 -1.06323 -2.04851 0
M  V30 1324 C 127.555 0.0286491 -1.66075 0
M  V30 1325 O 128.74 -0.12917 -1.90362 0
M  V30 1326 C 125.88 -0.691529 -3.381 0
M  V30 1327 C 124.993 -1.85861 -3.89974 0
M  V30 1328 C 124.128 -1.43096 -5.11563 0
M  V30 1329 C 123.167 -2.56696 -5.55674 0
M  V30 1330 N 122.304 -2.14684 -6.68472 0
M  V30 1331 H 127.144 -2.00222 -2.20715 0
M  V30 1332 H 124.681 -0.997027 -1.08156 0
M  V30 1333 H 126.639 -0.456963 -4.1469 0
M  V30 1334 H 125.269 0.210474 -3.22113 0
M  V30 1335 H 124.321 -2.20639 -3.09875 0
M  V30 1336 H 125.633 -2.71161 -4.18657 0
M  V30 1337 H 124.787 -1.15624 -5.9558 0
M  V30 1338 H 123.526 -0.548722 -4.84603 0
M  V30 1339 H 122.531 -2.84909 -4.7022 0
M  V30 1340 H 123.756 -3.45503 -5.8464 0
M  V30 1341 H 121.702 -1.28881 -6.43215 0
M  V30 1342 H 121.619 -2.9353 -6.96689 0
M  V30 1343 H 122.887 -1.90397 -7.5589 0
M  V30 1344 N 127.117 1.15442 -1.07289 0
M  V30 1345 C 128.342 1.90638 -0.816828 0
M  V30 1346 C 128.767 1.77445 0.624083 0
M  V30 1347 O 128.125 1.10671 1.43602 0
M  V30 1348 C 128.173 3.39008 -1.22906 0
M  V30 1349 O 127.277 4.10701 -0.373975 0
M  V30 1350 H 126.618 0.593555 -0.297638 0
M  V30 1351 H 129.148 1.46198 -1.43134 0
M  V30 1352 H 129.158 3.89801 -1.20497 0
M  V30 1353 H 127.833 3.47929 -2.27856 0
M  V30 1354 H 126.41 3.70046 -0.460499 0
M  V30 1355 N 128.595 0.856903 1.32268 0
M  V30 1356 C 129.841 0.462069 1.97466 0
M  V30 1357 C 130.174 -0.980298 1.67642 0
M  V30 1358 O 129.449 -1.68824 0.965858 0
M  V30 1359 C 129.732 0.704336 3.53145 0
M  V30 1360 C 129.585 2.19529 3.9259 0
M  V30 1361 C 130.904 0.1622 4.39801 0
M  V30 1362 H 128.023 0.169357 0.717278 0
M  V30 1363 H 130.665 1.07574 1.56614 0
M  V30 1364 H 128.815 0.181999 3.88073 0
M  V30 1365 H 130.487 2.78387 3.67829 0
M  V30 1366 H 128.73 2.67292 3.41668 0
M  V30 1367 H 129.401 2.31549 5.01088 0
M  V30 1368 H 131.877 0.608905 4.11621 0
M  V30 1369 H 130.753 0.361265 5.4771 0
M  V30 1370 H 131.014 -0.935158 4.32096 0
M  V30 1371 N 130.073 -1.45103 0.615059 0
M  V30 1372 C 131.005 -2.28786 -0.13762 0
M  V30 1373 C 132.018 -1.40376 -0.824525 0
M  V30 1374 O 133.207 -1.64681 -0.688662 0
M  V30 1375 C 130.307 -3.16322 -1.21628 0
M  V30 1376 C 129.48 -4.33054 -0.615039 0
M  V30 1377 C 128.539 -5.01743 -1.58556 0
M  V30 1378 O 127.565 -5.58293 -1.10895 0
M  V30 1379 N 128.767 -5.01714 -2.91998 0
M  V30 1380 H 131.532 -2.94025 0.580483 0
M  V30 1381 H 129.093 -1.55373 0.45507 0
M  V30 1382 H 131.085 -3.59139 -1.86552 0
M  V30 1383 H 129.655 -2.52943 -1.83681 0
M  V30 1384 H 128.875 -3.93627 0.21245 0
M  V30 1385 H 130.163 -5.08431 -0.193704 0
M  V30 1386 H 129.561 -4.57075 -3.33316 0
M  V30 1387 H 128.118 -5.48371 -3.52325 0
M  V30 1388 N 131.551 -0.354651 -1.53558 0
M  V30 1389 C 132.776 0.242153 -2.05981 0
M  V30 1390 C 133.201 1.42553 -1.2272 0
M  V30 1391 O 132.559 1.79656 -0.243604 0
M  V30 1392 C 132.607 0.624367 -3.55154 0
M  V30 1393 O 131.711 1.72301 -3.74681 0
M  V30 1394 H 131.052 0.0378432 -0.662921 0
M  V30 1395 H 133.582 -0.512087 -1.98088 0
M  V30 1396 H 133.592 0.898433 -3.97985 0
M  V30 1397 H 132.267 -0.240989 -4.15201 0
M  V30 1398 H 130.844 1.44535 -3.4375 0
M  V30 1399 N 133.029 1.57378 -0.0835403 0
M  V30 1400 C 133.959 2.1641 0.87686 0
M  V30 1401 C 134.94 1.09429 1.30228 0
M  V30 1402 O 136.125 1.37516 1.37124 0
M  V30 1403 C 133.255 2.73517 2.14022 0
M  V30 1404 C 132.209 3.85769 1.85381 0
M  V30 1405 C 131.535 4.29529 3.18448 0
M  V30 1406 C 132.835 5.09486 1.14984 0
M  V30 1407 H 134.529 2.96914 0.385059 0
M  V30 1408 H 132.075 1.42823 0.18377 0
M  V30 1409 H 134.028 3.13463 2.81636 0
M  V30 1410 H 132.752 1.90252 2.65465 0
M  V30 1411 H 131.411 3.46345 1.20169 0
M  V30 1412 H 131.059 3.43169 3.67755 0
M  V30 1413 H 130.759 5.05204 3.00071 0
M  V30 1414 H 132.283 4.72099 3.8724 0
M  V30 1415 H 133.697 5.46674 1.72687 0
M  V30 1416 H 132.094 5.90515 1.06826 0
M  V30 1417 H 133.164 4.84724 0.130749 0
M  V30 1418 N 134.507 -0.190092 1.56449 0
M  V30 1419 C 135.47 -1.21925 1.9408 0
M  V30 1420 C 136.47 -1.38176 0.822431 0
M  V30 1421 O 137.66 -1.35903 1.08977 0
M  V30 1422 C 134.792 -2.58773 2.21922 0
M  V30 1423 H 135.985 -0.897464 2.86157 0
M  V30 1424 H 133.538 -0.43181 1.50217 0
M  V30 1425 H 134.273 -2.95998 1.32499 0
M  V30 1426 H 134.058 -2.48348 3.03424 0
M  V30 1427 H 135.548 -3.32978 2.52022 0
M  V30 1428 N 135.985 -1.50799 -0.457987 0
M  V30 1429 C 137.213 -1.66218 -1.23203 0
M  V30 1430 C 137.628 -0.350894 -1.85511 0
M  V30 1431 O 136.985 0.668546 -1.69814 0
M  V30 1432 C 137.036 -2.76291 -2.33121 0
M  V30 1433 O 136.757 -4.02338 -1.73366 0
M  V30 1434 C 138.258 -3.028 -3.2377 0
M  V30 1435 H 135.478 -0.558361 -0.372121 0
M  V30 1436 H 138.022 -1.97099 -0.545179 0
M  V30 1437 H 136.177 -2.48068 -2.97558 0
M  V30 1438 H 136.591 -4.63312 -2.4585 0
M  V30 1439 H 138.065 -3.8345 -3.97077 0
M  V30 1440 H 138.542 -2.14385 -3.83322 0
M  V30 1441 H 139.148 -3.32604 -2.65056 0
M  V30 1442 N 137.463 0.71206 -1.40597 0
M  V30 1443 C 138.711 1.46907 -1.38791 0
M  V30 1444 C 139.032 1.94998 0.00780391 0
M  V30 1445 O 138.302 1.70587 0.963174 0
M  V30 1446 H 136.882 0.545043 -0.51082 0
M  V30 1447 H 139.544 0.843882 -1.75683 0
M  V30 1448 H 138.64 2.34021 -2.06496 0
M  V30 1449 N 138.941 1.26152 0.944643 0
M  V30 1450 C 140.352 1.10454 1.50522 0
M  V30 1451 C 140.703 -0.31635 1.93633 0
M  V30 1452 O 139.828 -1.20746 1.79581 0
M  V30 1453 C 140.423 1.99891 2.73549 0
M  V30 1454 C 138.982 1.88348 3.25886 0
M  V30 1455 C 138.129 1.93447 1.9868 0
M  V30 1456 H 141.08 1.39292 0.760489 0
M  V30 1457 H 141.101 1.54477 3.47732 0
M  V30 1458 H 140.613 3.03297 2.42141 0
M  V30 1459 H 138.714 0.878636 3.62092 0
M  V30 1460 H 138.827 2.73696 3.93227 0
M  V30 1461 H 137.191 1.37456 2.14425 0
M  V30 1462 H 137.974 2.98476 1.69607 0
M  V30 1463 N 140.419 -1.14872 1.07899 0
M  V30 1464 C 141.382 -2.17986 0.708161 0
M  V30 1465 C 142.382 -1.58775 -0.25442 0
M  V30 1466 O 143.572 -1.74166 -0.034645 0
M  V30 1467 C 140.704 -3.40871 0.0446929 0
M  V30 1468 H 141.897 -2.52306 1.62116 0
M  V30 1469 H 139.45 -1.2943 0.876218 0
M  V30 1470 H 140.185 -3.12124 -0.880281 0
M  V30 1471 H 139.97 -3.8511 0.737091 0
M  V30 1472 H 141.46 -4.17121 -0.19991 0
M  V30 1473 N 141.898 -0.863906 -1.31812 0
M  V30 1474 C 143.146 -0.470904 -1.96537 0
M  V30 1475 C 143.467 0.978771 -1.68657 0
M  V30 1476 O 142.737 1.6853 -0.998717 0
M  V30 1477 H 141.317 -0.171148 -0.72713 0
M  V30 1478 H 143.979 -1.10236 -1.60729 0
M  V30 1479 H 143.075 -0.623616 -3.05806 0
M  V30 1480 N 143.376 1.44774 -0.622745 0
M  V30 1481 C 144.653 1.95522 -0.0551974 0
M  V30 1482 C 145.033 1.5649 1.41683 0
M  V30 1483 O 144.381 0.834848 2.12703 0
M  V30 1484 C 144.591 3.4796 -0.269242 0
M  V30 1485 C 145.939 4.24306 -0.158014 0
M  V30 1486 O 146.963 3.55637 -0.200162 0
M  V30 1487 O 145.822 5.46471 -0.0558693 0
M  V30 1488 H 142.916 0.826556 0.0271015 0
M  V30 1489 H 145.462 1.54866 -0.693864 0
M  V30 1490 H 144.234 3.6939 -1.29099 0
M  V30 1491 H 143.857 3.95543 0.403966 0
M  V30 1492 N 144.854 0.36279 1.53368 0
M  V30 1493 C 146.265 -0.117022 1.86333 0
M  V30 1494 C 146.616 -1.48397 1.28347 0
M  V30 1495 O 145.741 -2.07787 0.604428 0
M  V30 1496 C 146.336 -0.21912 3.38091 0
M  V30 1497 C 144.895 -0.643184 3.70864 0
M  V30 1498 C 144.042 0.211318 2.76494 0
M  V30 1499 H 146.993 0.581687 1.47655 0
M  V30 1500 H 147.014 -1.04319 3.6592 0
M  V30 1501 H 146.526 0.775902 3.80265 0
M  V30 1502 H 144.627 -1.64654 3.34245 0
M  V30 1503 H 144.74 -0.41973 4.77258 0
M  V30 1504 H 143.104 -0.319367 2.5269 0
M  V30 1505 H 143.887 1.20383 3.21501 0
M  V30 1506 N 146.332 -1.57332 0.0918853 0
M  V30 1507 C 147.58 -1.93853 -0.571446 0
M  V30 1508 C 147.901 -0.974212 -1.6892 0
M  V30 1509 O 147.171 -0.0257254 -1.95883 0
M  V30 1510 H 145.751 -0.715666 -0.214082 0
M  V30 1511 H 148.413 -1.94287 0.154464 0
M  V30 1512 H 147.509 -2.96191 -0.983729 0
M  V30 1513 N 147.81 0.181792 -1.56548 0
M  V30 1514 C 149.05 0.906711 -1.83189 0
M  V30 1515 C 149.414 1.79882 -0.671312 0
M  V30 1516 O 150.615 2.56054 -0.81792 0
M  V30 1517 C 148.886 1.69023 -3.14906 0
M  V30 1518 S 150.445 2.46535 -3.62996 0
M  V30 1519 H 147.263 0.303877 -0.642791 0
M  V30 1520 H 149.865 0.169107 -1.94767 0
M  V30 1521 H 148.569 1.02571 -3.97376 0
M  V30 1522 H 148.1 2.46941 -3.06241 0
M  V30 1523 H 150.115 3.71014 -3.29489 0
M  V30 1524 N 149.288 1.51039 0.449983 0
M  V30 1525 C 150.22 1.67617 1.56324 0
M  V30 1526 C 151.233 0.557083 1.52972 0
M  V30 1527 O 152.422 0.830989 1.57977 0
M  V30 1528 C 149.522 1.66402 2.95235 0
M  V30 1529 C 148.695 2.9469 3.23229 0
M  V30 1530 C 147.754 2.85832 4.41799 0
M  V30 1531 O 146.78 3.59785 4.41071 0
M  V30 1532 N 147.982 2.00821 5.44657 0
M  V30 1533 H 150.747 2.63648 1.42512 0
M  V30 1534 H 148.308 1.48767 0.638737 0
M  V30 1535 H 150.3 1.58062 3.72557 0
M  V30 1536 H 148.87 0.780182 3.02708 0
M  V30 1537 H 148.09 3.16996 2.34323 0
M  V30 1538 H 149.378 3.79636 3.38754 0
M  V30 1539 H 148.776 1.40091 5.48079 0
M  V30 1540 H 147.333 1.98368 6.20881 0
M  V30 1541 N 150.766 -0.704594 1.40972 0
M  V30 1542 C 151.994 -1.49354 1.43182 0
M  V30 1543 C 152.409 -1.88768 0.0345508 0
M  V30 1544 O 151.766 -1.56184 -0.944081 0
M  V30 1545 C 151.817 -2.76187 2.33244 0
M  V30 1546 O 151.538 -2.38436 3.67532 0
M  V30 1547 C 153.039 -3.7 2.44162 0
M  V30 1548 H 150.259 -0.460559 0.487982 0
M  V30 1549 H 152.803 -0.868261 1.85153 0
M  V30 1550 H 150.958 -3.34974 1.94606 0
M  V30 1551 H 151.372 -3.20126 4.15475 0
M  V30 1552 H 152.846 -4.55803 3.11364 0
M  V30 1553 H 153.323 -4.13867 1.47006 0
M  V30 1554 H 153.929 -3.17121 2.83398 0
M  V30 1555 N 152.244 -1.26651 -0.937939 0
M  V30 1556 C 153.484 -1.13611 -1.69917 0
M  V30 1557 C 153.848 0.314687 -1.89404 0
M  V30 1558 O 155.049 0.567285 -2.62746 0
M  V30 1559 C 153.32 -1.88742 -3.03498 0
M  V30 1560 S 154.879 -1.91794 -3.94665 0
M  V30 1561 H 151.697 -0.405767 -0.583844 0
M  V30 1562 H 154.299 -1.60416 -1.11745 0
M  V30 1563 H 153.003 -2.9336 -2.86999 0
M  V30 1564 H 152.534 -1.42391 -3.66727 0
M  V30 1565 H 154.549 -1.00698 -4.85875 0
M  V30 1566 N 153.722 1.14298 -1.08507 0
M  V30 1567 C 154.685 2.17607 -0.719711 0
M  V30 1568 C 155.685 1.58907 0.245997 0
M  V30 1569 O 156.875 1.74181 0.0254081 0
M  V30 1570 C 154.007 3.40842 -0.0627695 0
M  V30 1571 H 155.2 2.51443 -1.63452 0
M  V30 1572 H 152.753 1.28963 -0.88307 0
M  V30 1573 H 153.488 3.12587 0.863716 0
M  V30 1574 H 153.273 3.84713 -0.757504 0
M  V30 1575 H 154.763 4.17221 0.177786 0
M  V30 1576 N 155.201 0.870884 1.31352 0
M  V30 1577 C 156.164 0.332243 2.26779 0
M  V30 1578 C 157.164 -0.517302 1.52252 0
M  V30 1579 O 158.354 -0.326477 1.71113 0
M  V30 1580 C 155.486 -0.528066 3.36785 0
M  V30 1581 H 156.679 1.17469 2.75937 0
M  V30 1582 H 154.232 0.64655 1.423 0
M  V30 1583 H 154.967 -1.39167 2.92922 0
M  V30 1584 H 154.752 0.0802582 3.92018 0
M  V30 1585 H 156.242 -0.897179 4.07849 0
M  V30 1586 N 156.679 -1.44442 0.630414 0
M  V30 1587 C 157.919 -2.03934 0.137919 0
M  V30 1588 C 158.283 -1.48509 -1.21692 0
M  V30 1589 O 159.484 -1.99499 -1.80149 0
M  V30 1590 C 157.755 -3.57187 0.123373 0
M  V30 1591 S 159.314 -4.37741 -0.304604 0
M  V30 1592 H 156.132 -0.708401 0.0607353 0
M  V30 1593 H 158.734 -1.76835 0.833643 0
M  V30 1594 H 157.438 -3.95032 1.11256 0
M  V30 1595 H 156.969 -3.88895 -0.59362 0
M  V30 1596 H 158.984 -4.71403 -1.54897 0
M  V30 1597 N 158.157 -0.370918 -1.53173 0
M  V30 1598 C 159.405 0.216673 -2.00935 0
M  V30 1599 C 159.726 1.48845 -1.25977 0
M  V30 1600 O 158.996 1.92286 -0.374551 0
M  V30 1601 H 157.576 0.0830565 -0.742368 0
M  V30 1602 H 160.238 -0.49838 -1.8842 0
M  V30 1603 H 159.334 0.439893 -3.08984 0
M  V30 1604 N 159.635 1.57281 -0.100228 0
M  V30 1605 C 161.046 1.81725 0.428107 0
M  V30 1606 C 161.397 1.01619 1.67833 0
M  V30 1607 O 160.522 0.247098 2.14985 0
M  V30 1608 C 161.117 3.29617 0.78347 0
M  V30 1609 C 159.676 3.54808 1.25653 0
M  V30 1610 C 158.823 2.76118 0.255752 0
M  V30 1611 H 161.774 1.55324 -0.325608 0
M  V30 1612 H 161.795 3.4322 1.64256 0
M  V30 1613 H 161.307 3.87893 -0.12665 0
M  V30 1614 H 159.408 3.01868 2.18418 0
M  V30 1615 H 159.521 4.63443 1.21482 0
M  V30 1616 H 157.885 2.43745 0.738956 0
M  V30 1617 H 158.668 3.37145 -0.647136 0
M  V30 1618 N 161.113 -0.173488 1.56642 0
M  V30 1619 C 162.361 -0.888706 1.81512 0
M  V30 1620 C 162.682 -1.82875 0.676872 0
M  V30 1621 O 161.952 -1.93536 -0.303414 0
M  V30 1622 H 160.532 -0.331164 0.669582 0
M  V30 1623 H 163.194 -0.173823 1.94123 0
M  V30 1624 H 162.29 -1.46691 2.75478 0
M  V30 1625 N 162.591 -1.51276 -0.441967 0
M  V30 1626 C 164.002 -1.56244 -1.02199 0
M  V30 1627 C 164.353 -0.383149 -1.92422 0
M  V30 1628 O 163.478 0.500613 -2.1053 0
M  V30 1629 C 164.073 -2.83162 -1.86024 0
M  V30 1630 C 162.632 -2.90716 -2.39084 0
M  V30 1631 C 161.779 -2.50858 -1.18175 0
M  V30 1632 H 164.73 -1.5712 -0.223416 0
M  V30 1633 H 164.751 -2.66663 -2.71425 0
M  V30 1634 H 164.263 -3.68974 -1.20331 0
M  V30 1635 H 162.364 -2.09323 -3.08244 0
M  V30 1636 H 162.477 -3.94266 -2.72198 0
M  V30 1637 H 160.841 -2.03951 -1.52565 0
M  V30 1638 H 161.624 -3.3901 -0.541001 0
M  V30 1639 N 164.069 0.697108 -1.41344 0
M  V30 1640 C 165.019 1.80313 -1.39539 0
M  V30 1641 C 166.003 1.58618 -0.270001 0
M  V30 1642 O 167.195 1.69477 -0.510551 0
M  V30 1643 C 164.324 3.18606 -1.27848 0
M  V30 1644 C 163.41 3.46001 -2.45244 0
M  V30 1645 N 163.801 3.44103 -3.70711 0
M  V30 1646 C 162.099 3.76542 -2.39023 0
M  V30 1647 C 162.8 3.7036 -4.48563 0
M  V30 1648 N 161.776 3.90027 -3.78655 0
M  V30 1649 H 165.578 1.77207 -2.34468 0
M  V30 1650 H 163.092 0.897031 -1.35378 0
M  V30 1651 H 165.089 3.97833 -1.24637 0
M  V30 1652 H 163.749 3.22925 -0.339032 0
M  V30 1653 H 164.76 3.2452 -4.03618 0
M  V30 1654 H 161.437 3.88241 -1.53542 0
M  V30 1655 H 162.827 3.75042 -5.57488 0
M  V30 1656 N 165.547 1.27147 0.931209 0
M  V30 1657 C 166.795 1.13055 1.6752 0
M  V30 1658 C 167.116 -0.324791 1.92276 0
M  V30 1659 O 166.386 -1.22775 1.52654 0
M  V30 1660 H 164.966 0.415391 0.620854 0
M  V30 1661 H 167.628 1.59623 1.11833 0
M  V30 1662 H 166.724 1.65694 2.64485 0
M  V30 1663 N 167.025 -1.13721 1.09112 0
M  V30 1664 C 168.436 -1.6648 0.845068 0
M  V30 1665 C 168.787 -1.85911 -0.62701 0
M  V30 1666 O 167.912 -1.57556 -1.48341 0
M  V30 1667 C 168.507 -3.02413 1.52748 0
M  V30 1668 C 167.066 -3.52176 1.32849 0
M  V30 1669 C 166.213 -2.27492 1.58564 0
M  V30 1670 H 169.164 -0.976872 1.25072 0
M  V30 1671 H 169.185 -3.68223 0.958752 0
M  V30 1672 H 168.697 -2.88238 2.59885 0
M  V30 1673 H 166.798 -3.7156 0.278137 0
M  V30 1674 H 166.911 -4.32499 2.0611 0
M  V30 1675 H 165.275 -2.33923 1.00758 0
M  V30 1676 H 166.058 -2.15886 2.66924 0
M  V30 1677 N 168.503 -0.877838 -1.30888 0
M  V30 1678 C 169.914 -0.544193 -1.78593 0
M  V30 1679 C 170.265 0.939301 -1.72254 0
M  V30 1680 O 169.39 1.7337 -1.29505 0
M  V30 1681 C 169.985 -0.98105 -3.24285 0
M  V30 1682 C 168.544 -0.698935 -3.69854 0
M  V30 1683 C 167.691 -1.168 -2.51502 0
M  V30 1684 H 170.642 -1.06278 -1.17859 0
M  V30 1685 H 170.663 -0.307009 -3.79259 0
M  V30 1686 H 170.175 -2.06079 -3.28866 0
M  V30 1687 H 168.276 0.369112 -3.70767 0
M  V30 1688 H 168.389 -1.28148 -4.61644 0
M  V30 1689 H 166.753 -0.587535 -2.47831 0
M  V30 1690 H 167.536 -2.25533 -2.58824 0
M  V30 1691 N 169.982 1.44106 -0.638065 0
M  V30 1692 C 171.23 2.01579 -0.145043 0
M  V30 1693 C 171.551 1.50496 1.24 0
M  V30 1694 O 170.821 0.711374 1.82527 0
M  V30 1695 H 169.401 0.745282 -0.05063 0
M  V30 1696 H 172.063 1.76516 -0.826327 0
M  V30 1697 H 171.159 3.11877 -0.118039 0
M  V30 1698 N 171.46 0.379036 1.52974 0
M  V30 1699 C 172.737 -0.263479 1.93817 0
M  V30 1700 C 173.117 -1.65244 1.31368 0
M  V30 1701 O 172.465 -2.23448 0.477856 0
M  V30 1702 C 172.675 -0.300166 3.47707 0
M  V30 1703 C 174.023 -0.534061 4.21228 0
M  V30 1704 O 175.047 -0.38081 3.54159 0
M  V30 1705 O 173.906 -0.833501 5.40106 0
M  V30 1706 H 171 -0.161149 0.811147 0
M  V30 1707 H 173.546 0.432798 1.64088 0
M  V30 1708 H 172.318 0.673138 3.85467 0
M  V30 1709 H 171.941 -1.04179 3.83709 0
M  V30 1710 N 172.938 -1.57226 0.108567 0
M  V30 1711 C 174.166 -1.99179 -0.559954 0
M  V30 1712 C 174.581 -0.988022 -1.60884 0
M  V30 1713 O 173.938 0.0205512 -1.82488 0
M  V30 1714 C 173.989 -3.41159 -1.19552 0
M  V30 1715 O 173.71 -4.37694 -0.188577 0
M  V30 1716 C 175.211 -3.98188 -1.94837 0
M  V30 1717 H 172.431 -0.654228 -0.149088 0
M  V30 1718 H 174.975 -2.03598 0.19183 0
M  V30 1719 H 173.13 -3.37711 -1.89815 0
M  V30 1720 H 173.544 -5.20469 -0.649014 0
M  V30 1721 H 175.018 -4.99644 -2.34648 0
M  V30 1722 H 175.495 -3.3675 -2.81951 0
M  V30 1723 H 176.101 -4.0515 -1.2936 0
M  V30 1724 N 174.416 0.165178 -1.56732 0
M  V30 1725 C 175.693 0.908443 -1.73224 0
M  V30 1726 C 176.073 2.0013 -0.67165 0
M  V30 1727 O 175.421 2.26353 0.31253 0
M  V30 1728 C 175.631 1.46756 -3.16644 0
M  V30 1729 C 176.979 1.93809 -3.77787 0
M  V30 1730 O 178.003 1.56537 -3.1996 0
M  V30 1731 O 176.862 2.62486 -4.79336 0
M  V30 1732 H 173.956 0.428025 -0.707618 0
M  V30 1733 H 176.502 0.152526 -1.69013 0
M  V30 1734 H 175.274 0.68129 -3.85323 0
M  V30 1735 H 174.897 2.28749 -3.25207 0
M  V30 1736 N 175.894 1.51508 0.433938 0
M  V30 1737 C 177.122 1.68157 1.20543 0
M  V30 1738 C 177.537 0.380362 1.84929 0
M  V30 1739 O 176.894 -0.641446 1.70856 0
M  V30 1740 C 176.945 2.79965 2.28696 0
M  V30 1741 O 176.666 4.05045 1.66943 0
M  V30 1742 C 178.167 3.07912 3.18912 0
M  V30 1743 H 175.387 0.56421 0.363191 0
M  V30 1744 H 177.931 1.97941 0.513754 0
M  V30 1745 H 176.086 2.5277 2.93574 0
M  V30 1746 H 176.5 4.67165 2.38448 0
M  V30 1747 H 177.974 3.89719 3.90926 0
M  V30 1748 H 178.451 2.20456 3.79863 0
M  V30 1749 H 179.057 3.36779 2.59731 0
M  V30 1750 N 177.372 -0.689602 1.41712 0
M  V30 1751 C 178.319 -1.80345 1.44029 0
M  V30 1752 C 179.289 -1.63478 0.293948 0
M  V30 1753 O 180.474 -1.84244 0.495869 0
M  V30 1754 C 177.614 -3.18272 1.33405 0
M  V30 1755 C 176.727 -3.46529 2.57956 0
M  V30 1756 C 175.862 -4.74103 2.39582 0
M  V30 1757 C 174.901 -4.95347 3.5958 0
M  V30 1758 N 174.038 -6.14151 3.40239 0
M  V30 1759 H 178.878 -1.77698 2.39222 0
M  V30 1760 H 176.415 -0.867688 1.18784 0
M  V30 1761 H 178.373 -3.97956 1.25246 0
M  V30 1762 H 177.003 -3.2008 0.418164 0
M  V30 1763 H 176.055 -2.61207 2.76542 0
M  V30 1764 H 177.367 -3.58126 3.47199 0
M  V30 1765 H 176.521 -5.61853 2.28924 0
M  V30 1766 H 175.26 -4.64763 1.47805 0
M  V30 1767 H 174.265 -4.06044 3.70686 0
M  V30 1768 H 175.49 -5.06542 4.52318 0
M  V30 1769 H 173.436 -6.06013 2.51167 0
M  V30 1770 H 173.353 -6.26543 4.23061 0
M  V30 1771 H 174.621 -7.04619 3.33365 0
M  V30 1772 N 178.85 -1.27639 -0.924453 0
M  V30 1773 C 180.096 -1.14336 -1.67497 0
M  V30 1774 C 180.429 0.309465 -1.91718 0
M  V30 1775 O 179.704 1.22608 -1.50989 0
M  V30 1776 C 179.987 -1.93096 -3.0395 0
M  V30 1777 C 179.84 -3.46381 -2.8695 0
M  V30 1778 C 181.159 -1.73798 -4.0433 0
M  V30 1779 H 178.278 -0.416728 -0.607871 0
M  V30 1780 H 180.92 -1.56832 -1.07256 0
M  V30 1781 H 179.07 -1.56982 -3.55372 0
M  V30 1782 H 180.742 -3.92343 -2.42621 0
M  V30 1783 H 178.985 -3.72557 -2.22225 0
M  V30 1784 H 179.656 -3.96735 -3.83804 0
M  V30 1785 H 182.132 -2.05293 -3.61931 0
M  V30 1786 H 181.008 -2.31294 -4.97789 0
M  V30 1787 H 181.269 -0.686725 -4.36734 0
M  V30 1788 N 180.328 1.1314 -1.09713 0
M  V30 1789 C 181.258 2.20748 -0.761102 0
M  V30 1790 C 182.239 1.68061 0.262566 0
M  V30 1791 O 183.424 1.93765 0.129977 0
M  V30 1792 C 180.554 3.46812 -0.184054 0
M  V30 1793 C 179.508 4.12606 -1.13757 0
M  V30 1794 C 178.834 5.33031 -0.422083 0
M  V30 1795 C 180.134 4.59603 -2.48118 0
M  V30 1796 H 181.828 2.49113 -1.66082 0
M  V30 1797 H 179.374 1.19734 -0.799987 0
M  V30 1798 H 181.327 4.21353 0.0631215 0
M  V30 1799 H 180.051 3.17851 0.750868 0
M  V30 1800 H 178.71 3.40036 -1.37007 0
M  V30 1801 H 178.358 5.00335 0.517072 0
M  V30 1802 H 178.058 5.77999 -1.05788 0
M  V30 1803 H 179.582 6.10325 -0.183277 0
M  V30 1804 H 180.996 5.25552 -2.29059 0
M  V30 1805 H 179.393 5.15321 -3.07514 0
M  V30 1806 H 180.463 3.73971 -3.08665 0
M  V30 1807 N 181.806 0.884767 1.30421 0
M  V30 1808 C 183.052 0.503851 1.96441 0
M  V30 1809 C 183.385 -0.944518 1.69684 0
M  V30 1810 O 182.66 -1.66737 1.00145 0
M  V30 1811 C 182.943 0.779085 3.51571 0
M  V30 1812 C 182.796 2.27807 3.87846 0
M  V30 1813 C 184.115 0.255452 4.39358 0
M  V30 1814 H 181.234 0.184533 0.713524 0
M  V30 1815 H 183.876 1.10872 1.54297 0
M  V30 1816 H 182.026 0.264274 3.876 0
M  V30 1817 H 183.698 2.86127 3.61841 0
M  V30 1818 H 181.941 2.74479 3.35922 0
M  V30 1819 H 182.612 2.42125 4.96064 0
M  V30 1820 H 185.088 0.696079 4.10236 0
M  V30 1821 H 183.964 0.477361 5.4682 0
M  V30 1822 H 184.225 -0.843293 4.33983 0
M  V30 1823 N 183.284 -1.43765 0.645699 0
M  V30 1824 C 184.214 -2.33471 -0.0370477 0
M  V30 1825 C 185.195 -1.49042 -0.819779 0
M  V30 1826 O 186.38 -1.77726 -0.782758 0
M  V30 1827 C 183.51 -3.32311 -1.0093 0
M  V30 1828 C 182.464 -4.2667 -0.337201 0
M  V30 1829 C 181.79 -5.1549 -1.42037 0
M  V30 1830 C 183.09 -5.16657 0.765706 0
M  V30 1831 H 184.784 -2.90809 0.712069 0
M  V30 1832 H 182.33 -1.39834 0.343876 0
M  V30 1833 H 184.283 -3.9396 -1.49578 0
M  V30 1834 H 183.007 -2.73213 -1.78948 0
M  V30 1835 H 181.666 -3.66374 0.128771 0
M  V30 1836 H 181.314 -4.52735 -2.1918 0
M  V30 1837 H 181.014 -5.79438 -0.975966 0
M  V30 1838 H 182.538 -5.80012 -1.90838 0
M  V30 1839 H 183.952 -5.72158 0.361702 0
M  V30 1840 H 182.349 -5.89286 1.13413 0
M  V30 1841 H 183.419 -4.56796 1.62683 0
M  V30 1842 N 184.763 -0.387143 -1.52771 0
M  V30 1843 C 186.04 0.253197 -1.93954 0
M  V30 1844 C 186.42 1.64545 -1.32243 0
M  V30 1845 O 185.768 2.23191 -0.489699 0
M  V30 1846 C 185.978 0.281722 -3.47861 0
M  V30 1847 C 187.326 0.511715 -4.21505 0
M  V30 1848 O 188.35 0.362023 -3.54356 0
M  V30 1849 O 187.209 0.804847 -5.40541 0
M  V30 1850 H 184.303 0.156845 -0.811991 0
M  V30 1851 H 186.849 -0.441494 -1.63856 0
M  V30 1852 H 185.621 -0.693571 -3.85104 0
M  V30 1853 H 185.244 1.02142 -3.84256 0
M  V30 1854 N 186.241 1.57166 -0.116904 0
M  V30 1855 C 187.652 1.82169 0.408809 0
M  V30 1856 C 188.003 1.03393 1.66746 0
M  V30 1857 O 187.128 0.269886 2.1471 0
M  V30 1858 C 187.723 3.30429 0.748466 0
M  V30 1859 C 186.282 3.5612 1.21882 0
M  V30 1860 C 185.429 2.76374 0.226452 0
M  V30 1861 H 188.38 1.5497 -0.342063 0
M  V30 1862 H 188.401 3.44943 1.60607 0
M  V30 1863 H 187.913 3.87737 -0.167784 0
M  V30 1864 H 186.014 3.04168 2.15204 0
M  V30 1865 H 186.127 4.64705 1.16559 0
M  V30 1866 H 184.491 2.44515 0.713063 0
M  V30 1867 H 185.274 3.3644 -0.682859 0
M  V30 1868 N 187.719 -0.156864 1.56817 0
M  V30 1869 C 188.682 -1.17781 1.96622 0
M  V30 1870 C 189.682 -1.36401 0.851555 0
M  V30 1871 O 190.872 -1.33561 1.11836 0
M  V30 1872 C 188.004 -2.54008 2.27361 0
M  V30 1873 H 189.197 -0.836564 2.87996 0
M  V30 1874 H 186.75 -0.39985 1.51099 0
M  V30 1875 H 187.485 -2.9312 1.38748 0
M  V30 1876 H 187.27 -2.41856 3.08623 0
M  V30 1877 H 188.76 -3.27558 2.59029 0
M  V30 1878 N 189.197 -1.51736 -0.425897 0
M  V30 1879 C 190.127 -1.76827 -1.52494 0
M  V30 1880 C 191.108 -0.618524 -1.58456 0
M  V30 1881 O 192.293 -0.862416 -1.74 0
M  V30 1882 C 189.423 -1.90374 -2.90474 0
M  V30 1883 C 188.377 -3.0588 -2.99369 0
M  V30 1884 C 187.703 -3.04625 -4.3944 0
M  V30 1885 C 189.003 -4.45644 -2.72394 0
M  V30 1886 H 190.697 -2.68855 -1.31748 0
M  V30 1887 H 188.243 -1.29372 -0.632362 0
M  V30 1888 H 190.196 -2.0651 -3.6733 0
M  V30 1889 H 188.92 -0.95004 -3.12477 0
M  V30 1890 H 187.579 -2.89467 -2.24954 0
M  V30 1891 H 187.227 -2.0701 -4.58428 0
M  V30 1892 H 186.927 -3.82195 -4.46319 0
M  V30 1893 H 188.451 -3.22869 -5.18255 0
M  V30 1894 H 189.865 -4.62348 -3.38979 0
M  V30 1895 H 188.262 -5.25006 -2.9067 0
M  V30 1896 H 189.332 -4.54893 -1.67929 0
M  V30 1897 N 190.675 0.682077 -1.42076 0
M  V30 1898 C 192.086 1.26246 -1.37546 0
M  V30 1899 C 192.437 1.96092 -0.0651481 0
M  V30 1900 O 191.562 1.99587 0.836297 0
M  V30 1901 C 192.157 2.29594 -2.49143 0
M  V30 1902 C 190.716 2.83175 -2.47969 0
M  V30 1903 C 189.863 1.57395 -2.28303 0
M  V30 1904 H 192.814 0.475937 -1.51395 0
M  V30 1905 H 192.835 3.11175 -2.18976 0
M  V30 1906 H 192.347 1.78729 -3.44496 0
M  V30 1907 H 190.448 3.3818 -1.56413 0
M  V30 1908 H 190.561 3.32687 -3.44755 0
M  V30 1909 H 188.925 1.83699 -1.76428 0
M  V30 1910 H 189.708 1.08507 -3.25701 0
M  V30 1911 N 192.153 1.28127 0.917671 0
M  V30 1912 C 193.116 1.11744 2.00115 0
M  V30 1913 C 194.116 0.0583052 1.60694 0
M  V30 1914 O 195.306 0.303755 1.71531 0
M  V30 1915 C 192.438 0.704862 3.33533 0
M  V30 1916 H 193.631 2.07966 2.16079 0
M  V30 1917 H 191.184 1.11058 1.09981 0
M  V30 1918 H 191.919 -0.258299 3.2327 0
M  V30 1919 H 191.704 1.4699 3.63505 0
M  V30 1920 H 193.194 0.612768 4.1308 0
M  V30 1921 N 193.631 -1.12557 1.10312 0
M  V30 1922 C 194.561 -2.20341 0.772798 0
M  V30 1923 C 195.542 -1.68198 -0.25365 0
M  V30 1924 O 196.727 -1.93831 -0.119699 0
M  V30 1925 C 193.857 -3.46709 0.202443 0
M  V30 1926 C 192.811 -4.11996 1.15943 0
M  V30 1927 C 192.137 -5.328 0.450345 0
M  V30 1928 C 193.437 -4.5828 2.50552 0
M  V30 1929 H 195.131 -2.48229 1.674 0
M  V30 1930 H 192.677 -1.19308 0.806326 0
M  V30 1931 H 194.63 -4.2138 -0.0407752 0
M  V30 1932 H 193.354 -3.18245 -0.734001 0
M  V30 1933 H 192.013 -3.39305 1.38808 0
M  V30 1934 H 191.661 -5.00602 -0.490531 0
M  V30 1935 H 191.361 -5.7743 1.08851 0
M  V30 1936 H 192.885 -6.10219 0.215642 0
M  V30 1937 H 194.299 -5.2433 2.31843 0
M  V30 1938 H 192.696 -5.13683 3.10242 0
M  V30 1939 H 193.766 -3.72329 3.10643 0
M  V30 1940 N 195.109 -0.891671 -1.2995 0
M  V30 1941 C 196.355 -0.514261 -1.96171 0
M  V30 1942 C 196.688 0.935506 -1.70182 0
M  V30 1943 O 195.963 1.66204 -1.01028 0
M  V30 1944 C 196.246 -0.797719 -3.51153 0
M  V30 1945 C 196.099 -2.2986 -3.86632 0
M  V30 1946 C 197.418 -0.278749 -4.39216 0
M  V30 1947 H 194.537 -0.188314 -0.712535 0
M  V30 1948 H 197.179 -1.11689 -1.53706 0
M  V30 1949 H 195.329 -0.284826 -3.87455 0
M  V30 1950 H 197.001 -2.88042 -3.60319 0
M  V30 1951 H 195.244 -2.76257 -3.34462 0
M  V30 1952 H 195.915 -2.44753 -4.94773 0
M  V30 1953 H 198.391 -0.717825 -4.09862 0
M  V30 1954 H 197.267 -0.506353 -5.46559 0
M  V30 1955 H 197.528 0.820266 -4.34424 0
M  V30 1956 N 196.587 1.43421 -0.653314 0
M  V30 1957 C 197.812 2.06678 -0.172846 0
M  V30 1958 C 198.237 1.48648 1.15262 0
M  V30 1959 O 197.595 0.596457 1.71208 0
M  V30 1960 C 197.643 3.60474 -0.0953184 0
M  V30 1961 O 196.747 4.01487 0.942442 0
M  V30 1962 H 196.088 0.657181 -0.0949155 0
M  V30 1963 H 198.618 1.83925 -0.896265 0
M  V30 1964 H 198.628 4.07905 0.0879728 0
M  V30 1965 H 197.303 4.02088 -1.06291 0
M  V30 1966 H 195.88 3.65646 0.731932 0
M  V30 1967 N 198.065 0.39524 1.52563 0
M  V30 1968 C 199.305 -0.184744 2.03563 0
M  V30 1969 C 199.669 -1.43548 1.27507 0
M  V30 1970 O 200.87 -2.093 1.68662 0
M  V30 1971 C 199.141 -0.440294 3.54678 0
M  V30 1972 S 200.7 -0.989712 4.27493 0
M  V30 1973 H 197.518 -0.0515075 0.709132 0
M  V30 1974 H 200.12 0.544957 1.87751 0
M  V30 1975 H 198.824 0.477005 4.07618 0
M  V30 1976 H 198.355 -1.19825 3.74707 0
M  V30 1977 H 200.37 -2.27155 4.41152 0
M  V30 1978 N 199.544 -1.57102 0.125237 0
M  V30 1979 C 200.792 -1.95021 -0.530198 0
M  V30 1980 C 201.113 -1.00982 -1.66816 0
M  V30 1981 O 200.383 -0.0672693 -1.95784 0
M  V30 1982 H 198.963 -0.720046 -0.198853 0
M  V30 1983 H 201.625 -1.93916 0.19564 0
M  V30 1984 H 200.721 -2.98211 -0.920681 0
M  V30 1985 N 201.022 0.148545 -1.56898 0
M  V30 1986 C 202.247 0.880385 -1.87787 0
M  V30 1987 C 202.672 1.74018 -0.714093 0
M  V30 1988 O 202.03 1.78153 0.336343 0
M  V30 1989 C 202.078 1.71422 -3.17249 0
M  V30 1990 O 201.182 2.8183 -3.01074 0
M  V30 1991 H 200.523 0.245301 -0.617028 0
M  V30 1992 H 203.053 0.139826 -2.04122 0
M  V30 1993 H 203.063 2.10954 -3.49231 0
M  V30 1994 H 201.738 1.08284 -4.01556 0
M  V30 1995 H 200.315 2.45715 -2.80497 0
M  V30 1996 N 202.5 1.5196 0.417844 0
M  V30 1997 C 203.725 1.69717 1.1921 0
M  V30 1998 C 204.15 0.402148 1.83751 0
M  V30 1999 O 203.508 -0.639593 1.69643 0
M  V30 2000 C 203.556 2.82794 2.2374 0
M  V30 2001 O 202.66 2.47756 3.29683 0
M  V30 2002 H 202.001 0.565263 0.348387 0
M  V30 2003 H 204.531 1.98621 0.490985 0
M  V30 2004 H 204.541 3.07452 2.68212 0
M  V30 2005 H 203.216 3.76756 1.76146 0
M  V30 2006 H 201.793 2.33739 2.90552 0
M  V30 2007 N 203.978 -0.674533 1.42435 0
M  V30 2008 C 204.908 -1.80009 1.48724 0
M  V30 2009 C 205.889 -1.6659 0.343793 0
M  V30 2010 O 207.074 -1.86007 0.558137 0
M  V30 2011 C 204.204 -3.18306 1.38919 0
M  V30 2012 C 203.158 -3.46461 2.51294 0
M  V30 2013 C 202.484 -4.84335 2.26547 0
M  V30 2014 C 203.784 -3.43328 3.93603 0
M  V30 2015 H 205.478 -1.75004 2.42928 0
M  V30 2016 H 203.024 -0.840533 1.16923 0
M  V30 2017 H 204.977 -3.9678 1.41927 0
M  V30 2018 H 203.701 -3.2399 0.412094 0
M  V30 2019 H 202.36 -2.70348 2.47604 0
M  V30 2020 H 202.008 -4.86669 1.2713 0
M  V30 2021 H 201.708 -5.04136 3.01861 0
M  V30 2022 H 203.232 -5.65094 2.31304 0
M  V30 2023 H 204.646 -4.11772 3.98894 0
M  V30 2024 H 203.043 -3.74664 4.68771 0
M  V30 2025 H 204.113 -2.41897 4.20255 0
M  V30 2026 N 205.456 -1.28612 -0.910864 0
M  V30 2027 C 206.388 -1.08589 -2.01844 0
M  V30 2028 C 207.401 -0.0367419 -1.62759 0
M  V30 2029 O 208.59 -0.280101 -1.76289 0
M  V30 2030 C 205.69 -0.628626 -3.33019 0
M  V30 2031 C 204.863 -1.75382 -4.00699 0
M  V30 2032 C 203.922 -1.28945 -5.10156 0
M  V30 2033 O 202.948 -1.9922 -5.33198 0
M  V30 2034 N 204.15 -0.154224 -5.80295 0
M  V30 2035 H 206.915 -2.03973 -2.19579 0
M  V30 2036 H 204.476 -1.20403 -1.08234 0
M  V30 2037 H 206.468 -0.301508 -4.03575 0
M  V30 2038 H 205.038 0.232451 -3.11735 0
M  V30 2039 H 204.258 -2.25039 -3.23653 0
M  V30 2040 H 205.546 -2.50854 -4.42662 0
M  V30 2041 H 204.944 0.43194 -5.64049 0
M  V30 2042 H 203.501 0.113599 -6.51701 0
M  V30 2043 N 206.934 1.1197 -1.10907 0
M  V30 2044 C 208.182 1.83225 -0.852819 0
M  V30 2045 C 208.503 1.84769 0.623341 0
M  V30 2046 O 207.773 1.3143 1.45269 0
M  V30 2047 H 206.353 0.67849 -0.312507 0
M  V30 2048 H 209.015 1.3556 -1.40033 0
M  V30 2049 H 208.111 2.87265 -1.22005 0
M  V30 2050 N 208.412 0.89855 1.29475 0
M  V30 2051 C 209.828 0.594483 1.48115 0
M  V30 2052 C 210.028 -0.86431 1.82022 0
M  V30 2053 O 209.084 -1.64457 1.91599 0
M  V30 2054 C 210.397 1.51932 2.59494 0
M  V30 2055 C 211.945 1.5244 2.7337 0
M  V30 2056 C 212.42 2.43548 3.87877 0
M  V30 2057 N 213.911 2.41589 3.95208 0
M  V30 2058 C 214.646 3.08789 4.83153 0
M  V30 2059 N 214.142 3.85265 5.75798 0
M  V30 2060 N 215.935 2.97952 4.76635 0
M  V30 2061 H 208.086 1.84207 1.05742 0
M  V30 2062 H 210.349 0.789251 0.525154 0
M  V30 2063 H 210.055 2.55865 2.41301 0
M  V30 2064 H 209.929 1.23899 3.56271 0
M  V30 2065 H 212.316 0.492518 2.90961 0
M  V30 2066 H 212.397 1.8451 1.77172 0
M  V30 2067 H 212.041 3.46829 3.71041 0
M  V30 2068 H 211.971 2.08788 4.83441 0
M  V30 2069 H 214.462 1.86025 3.28943 0
M  V30 2070 H 214.775 4.33598 6.39697 0
M  V30 2071 H 213.12 3.89371 5.75687 0
M  V30 2072 H 216.311 2.37723 4.03244 0
M  V30 2073 H 216.484 3.50599 5.44962 0
M  V30 2074 N 209.89 -1.43072 0.660911 0
M  V30 2075 C 211.13 -2.03596 0.181146 0
M  V30 2076 C 211.494 -1.51057 -1.18515 0
M  V30 2077 O 212.695 -2.03275 -1.75877 0
M  V30 2078 C 210.966 -3.56845 0.19911 0
M  V30 2079 S 212.525 -4.38289 -0.211684 0
M  V30 2080 H 209.343 -0.706954 0.0757479 0
M  V30 2081 H 211.945 -1.75027 0.870965 0
M  V30 2082 H 210.649 -3.92583 1.1961 0
M  V30 2083 H 210.18 -3.90067 -0.510996 0
M  V30 2084 H 212.195 -4.74583 -1.44863 0
M  V30 2085 N 211.368 -0.403325 -1.52352 0
M  V30 2086 C 212.615 0.174347 -2.01748 0
M  V30 2087 C 212.943 1.45636 -1.2892 0
M  V30 2088 O 212.198 1.9193 -0.382258 0
M  V30 2089 C 212.497 0.474665 -3.54234 0
M  V30 2090 C 212.163 -0.717458 -4.45155 0
M  V30 2091 C 210.825 -1.04447 -4.69728 0
M  V30 2092 C 213.177 -1.51432 -4.98716 0
M  V30 2093 C 210.505 -2.16963 -5.45109 0
M  V30 2094 C 212.857 -2.6302 -5.75329 0
M  V30 2095 C 211.521 -2.96213 -5.98175 0
M  V30 2096 H 210.791 0.0637981 -0.738248 0
M  V30 2097 H 213.438 -0.543553 -1.83624 0
M  V30 2098 H 211.743 1.27406 -3.70506 0
M  V30 2099 H 213.44 0.934496 -3.89959 0
M  V30 2100 H 210.03 -0.452596 -4.26204 0
M  V30 2101 H 214.214 -1.27491 -4.79645 0
M  V30 2102 H 209.47 -2.43034 -5.61021 0
M  V30 2103 H 213.644 -3.25158 -6.15829 0
M  V30 2104 H 211.271 -3.83516 -6.56368 0
M  V30 2105 N 212.846 1.57033 -0.133567 0
M  V30 2106 C 213.776 2.1909 0.807567 0
M  V30 2107 C 214.757 1.13517 1.26681 0
M  V30 2108 O 215.942 1.41809 1.32679 0
M  V30 2109 C 213.072 2.80188 2.05212 0
M  V30 2110 C 212.026 3.91471 1.73015 0
M  V30 2111 C 211.352 4.39443 3.04622 0
M  V30 2112 C 212.652 5.12886 0.987168 0
M  V30 2113 H 214.346 2.97988 0.290403 0
M  V30 2114 H 211.892 1.43335 0.138239 0
M  V30 2115 H 213.845 3.22264 2.71521 0
M  V30 2116 H 212.569 1.98601 2.59278 0
M  V30 2117 H 211.228 3.49993 1.0909 0
M  V30 2118 H 210.876 3.54695 3.56651 0
M  V30 2119 H 210.576 5.14495 2.83847 0
M  V30 2120 H 212.1 4.8418 3.72024 0
M  V30 2121 H 213.514 5.51891 1.55208 0
M  V30 2122 H 211.911 5.93615 0.87985 0
M  V30 2123 H 212.981 4.84894 -0.0235286 0
M  V30 2124 N 214.325 -0.140222 1.56975 0
M  V30 2125 C 215.275 -1.17827 1.95194 0
M  V30 2126 C 216.259 -1.38195 0.824075 0
M  V30 2127 O 217.451 -1.39643 1.0876 0
M  V30 2128 C 214.58 -2.51024 2.34184 0
M  V30 2129 C 213.666 -2.3422 3.53556 0
M  V30 2130 N 214.057 -1.87185 4.69889 0
M  V30 2131 C 212.355 -2.64949 3.58773 0
M  V30 2132 C 213.056 -1.83586 5.5197 0
M  V30 2133 N 212.032 -2.2715 4.93866 0
M  V30 2134 H 215.834 -0.806817 2.82609 0
M  V30 2135 H 213.348 -0.348208 1.58623 0
M  V30 2136 H 215.345 -3.26074 2.59772 0
M  V30 2137 H 214.005 -2.88945 1.48124 0
M  V30 2138 H 215.016 -1.57048 4.93514 0
M  V30 2139 H 211.693 -3.067 2.8327 0
M  V30 2140 H 213.083 -1.48655 6.55249 0
M  V30 2141 N 215.803 -1.52179 -0.40978 0
M  V30 2142 C 217.08 -1.56769 -1.16974 0
M  V30 2143 C 217.46 -0.348322 -2.08206 0
M  V30 2144 O 216.808 0.664862 -2.18613 0
M  V30 2145 C 217.018 -2.89603 -1.9476 0
M  V30 2146 C 218.366 -3.42579 -2.50849 0
M  V30 2147 O 219.39 -2.91338 -2.04941 0
M  V30 2148 O 218.249 -4.32054 -3.34652 0
M  V30 2149 H 215.343 -0.631439 -0.534054 0
M  V30 2150 H 217.889 -1.64507 -0.416613 0
M  V30 2151 H 216.661 -3.698 -1.27921 0
M  V30 2152 H 216.284 -2.85155 -2.77079 0
M  V30 2153 N 217.281 0.66697 -1.42791 0
M  V30 2154 C 218.211 1.79218 -1.49677 0
M  V30 2155 C 219.192 1.66405 -0.352623 0
M  V30 2156 O 220.377 1.85708 -0.567993 0
M  V30 2157 C 217.507 3.17565 -1.40605 0
M  V30 2158 C 216.461 3.45124 -2.53127 0
M  V30 2159 C 215.787 4.83127 -2.29112 0
M  V30 2160 C 217.087 3.41236 -3.95418 0
M  V30 2161 H 218.781 1.73713 -2.43853 0
M  V30 2162 H 216.327 0.83432 -1.17367 0
M  V30 2163 H 218.28 3.96022 -1.44029 0
M  V30 2164 H 217.004 3.23767 -0.429271 0
M  V30 2165 H 215.663 2.69031 -2.49034 0
M  V30 2166 H 215.311 4.85988 -1.29709 0
M  V30 2167 H 215.011 5.02528 -3.04531 0
M  V30 2168 H 216.535 5.63859 -2.34297 0
M  V30 2169 H 217.949 4.09651 -4.01073 0
M  V30 2170 H 216.346 3.72173 -4.70752 0
M  V30 2171 H 217.416 2.39665 -4.21532 0
M  V30 2172 N 218.759 1.29093 0.90403 0
M  V30 2173 C 219.669 1.15727 2.0407 0
M  V30 2174 C 220.685 0.0815308 1.73809 0
M  V30 2175 O 221.861 0.292749 1.99261 0
M  V30 2176 C 218.926 0.830424 3.36608 0
M  V30 2177 C 217.987 1.98955 3.80415 0
M  V30 2178 C 217.22 1.6782 5.06628 0
M  V30 2179 O 217.443 0.597105 5.67266 0
M  V30 2180 O 216.377 2.52486 5.46383 0
M  V30 2181 H 220.203 2.11171 2.18267 0
M  V30 2182 H 217.788 1.08504 1.027 0
M  V30 2183 H 219.67 0.662521 4.16159 0
M  V30 2184 H 218.345 -0.0942678 3.23563 0
M  V30 2185 H 217.252 2.21267 3.01648 0
M  V30 2186 H 218.585 2.89529 3.98037 0
M  V30 2187 N 220.237 -1.11381 1.11499 0
M  V30 2188 C 221.648 -1.6465 0.880191 0
M  V30 2189 C 221.999 -1.87199 -0.587434 0
M  V30 2190 O 221.124 -1.60667 -1.44966 0
M  V30 2191 C 221.719 -2.99105 1.59128 0
M  V30 2192 C 220.278 -3.49279 1.40289 0
M  V30 2193 C 219.425 -2.24077 1.63354 0
M  V30 2194 H 222.376 -0.950123 1.27116 0
M  V30 2195 H 222.397 -3.66107 1.03664 0
M  V30 2196 H 221.909 -2.82661 2.65941 0
M  V30 2197 H 220.01 -3.70887 0.356888 0
M  V30 2198 H 220.123 -4.2803 2.15238 0
M  V30 2199 H 218.487 -2.31733 1.05698 0
M  V30 2200 H 219.27 -2.10175 2.71443 0
M  V30 2201 N 221.715 -0.905404 -1.28997 0
M  V30 2202 C 222.647 -0.344748 -2.26592 0
M  V30 2203 C 223.66 0.512135 -1.54535 0
M  V30 2204 O 224.849 0.328368 -1.75454 0
M  V30 2205 C 221.949 0.526587 -3.34784 0
M  V30 2206 C 221.122 -0.305871 -4.36329 0
M  V30 2207 C 220.181 0.499209 -5.23827 0
M  V30 2208 O 219.207 -0.0853004 -5.69136 0
M  V30 2209 N 220.409 1.80408 -5.51755 0
M  V30 2210 H 223.174 -1.18359 -2.75338 0
M  V30 2211 H 220.735 -0.770481 -1.42391 0
M  V30 2212 H 222.727 1.07171 -3.90252 0
M  V30 2213 H 221.297 1.26613 -2.85811 0
M  V30 2214 H 220.517 -1.0324 -3.80441 0
M  V30 2215 H 221.805 -0.875773 -5.01206 0
M  V30 2216 H 221.203 2.3016 -5.16762 0
M  V30 2217 H 219.76 2.29621 -6.10014 0
M  V30 2218 N 223.193 1.4272 -0.668489 0
M  V30 2219 C 224.441 2.01226 -0.187769 0
M  V30 2220 C 224.762 1.53092 1.2078 0
M  V30 2221 O 224.032 0.74993 1.80977 0
M  V30 2222 H 222.612 0.744041 -0.0664272 0
M  V30 2223 H 225.274 1.74723 -0.863583 0
M  V30 2224 H 224.37 3.11556 -0.184166 0
M  V30 2225 N 224.671 0.411399 1.52136 0
M  V30 2226 C 225.899 -0.163076 2.06256 0
M  V30 2227 C 226.314 -1.3867 1.28125 0
M  V30 2228 O 225.671 -1.79423 0.333721 0
M  V30 2229 C 225.722 -0.511252 3.57867 0
M  V30 2230 O 225.443 0.66378 4.33042 0
M  V30 2231 C 226.944 -1.13921 4.28412 0
M  V30 2232 H 224.164 -0.0193897 0.67072 0
M  V30 2233 H 226.708 0.583007 1.96013 0
M  V30 2234 H 224.863 -1.20723 3.6811 0
M  V30 2235 H 225.277 0.372601 5.23175 0
M  V30 2236 H 226.751 -1.33302 5.35663 0
M  V30 2237 H 227.228 -2.11296 3.85033 0
M  V30 2238 H 227.834 -0.483373 4.22544 0
M  V30 2239 N 226.149 -1.5696 0.141893 0
M  V30 2240 C 227.112 -2.15316 -0.785587 0
M  V30 2241 C 228.112 -1.09366 -1.1788 0
M  V30 2242 O 229.302 -1.35031 -1.10056 0
M  V30 2243 C 226.434 -2.71211 -2.06537 0
M  V30 2244 H 227.627 -2.98608 -0.278041 0
M  V30 2245 H 225.18 -1.5593 -0.107519 0
M  V30 2246 H 225.915 -1.91571 -2.6167 0
M  V30 2247 H 225.7 -3.4872 -1.79268 0
M  V30 2248 H 227.19 -3.16189 -2.72789 0
M  V30 2249 N 227.627 0.131896 -1.57047 0
M  V30 2250 C 228.873 0.843179 -1.84441 0
M  V30 2251 C 229.206 1.80129 -0.725749 0
M  V30 2252 O 228.481 1.92624 0.269469 0
M  V30 2253 C 228.764 1.60442 -3.22382 0
M  V30 2254 C 228.617 0.666782 -4.4483 0
M  V30 2255 C 229.936 2.56354 -3.5773 0
M  V30 2256 H 227.055 0.305081 -0.670891 0
M  V30 2257 H 229.697 0.107839 -1.89694 0
M  V30 2258 H 227.847 2.23128 -3.18035 0
M  V30 2259 H 229.519 0.0497646 -4.61273 0
M  V30 2260 H 227.762 -0.022609 -4.33794 0
M  V30 2261 H 228.433 1.23579 -5.37989 0
M  V30 2262 H 230.909 2.0378 -3.62785 0
M  V30 2263 H 229.785 3.06657 -4.5525 0
M  V30 2264 H 230.046 3.38419 -2.84473 0
M  V30 2265 N 229.106 1.52395 0.401703 0
M  V30 2266 C 230.056 1.72649 1.48917 0
M  V30 2267 C 231.04 0.580436 1.50066 0
M  V30 2268 O 232.232 0.83779 1.55917 0
M  V30 2269 C 229.361 1.88729 2.86769 0
M  V30 2270 C 228.447 3.09228 2.90239 0
M  V30 2271 N 228.838 4.31805 2.63396 0
M  V30 2272 C 227.136 3.09214 3.21408 0
M  V30 2273 C 227.837 5.13326 2.73625 0
M  V30 2274 N 226.813 4.48735 3.06819 0
M  V30 2275 H 230.615 2.65058 1.26971 0
M  V30 2276 H 228.129 1.50528 0.609504 0
M  V30 2277 H 230.126 2.01358 3.65049 0
M  V30 2278 H 228.786 0.975252 3.09708 0
M  V30 2279 H 229.797 4.60154 2.37653 0
M  V30 2280 H 226.474 2.27774 3.49893 0
M  V30 2281 H 227.864 6.21003 2.56524 0
M  V30 2282 N 230.584 -0.659388 1.43143 0
M  V30 2283 C 231.514 -1.78422 1.50625 0
M  V30 2284 C 232.495 -1.66216 0.361443 0
M  V30 2285 O 233.68 -1.85404 0.577834 0
M  V30 2286 C 230.81 -3.16815 1.42287 0
M  V30 2287 C 229.764 -3.43777 2.54954 0
M  V30 2288 C 229.09 -4.81905 2.31671 0
M  V30 2289 C 230.39 -3.39134 3.97222 0
M  V30 2290 H 232.084 -1.72417 2.44771 0
M  V30 2291 H 229.63 -0.828084 1.17808 0
M  V30 2292 H 231.583 -3.95253 1.46127 0
M  V30 2293 H 230.307 -3.23534 0.446435 0
M  V30 2294 H 228.966 -2.67707 2.50457 0
M  V30 2295 H 228.614 -4.85294 1.32284 0
M  V30 2296 H 228.314 -5.00906 3.07192 0
M  V30 2297 H 229.838 -5.62609 2.37284 0
M  V30 2298 H 231.252 -4.07518 4.03239 0
M  V30 2299 H 229.649 -3.69671 4.72719 0
M  V30 2300 H 230.719 -2.37426 4.22797 0
M  V30 2301 N 232.062 -1.29571 -0.897171 0
M  V30 2302 C 233.025 -1.14913 -1.98312 0
M  V30 2303 C 234.025 -0.0838629 -1.60581 0
M  V30 2304 O 235.215 -0.331006 -1.71026 0
M  V30 2305 C 232.347 -0.757835 -3.3237 0
M  V30 2306 H 233.54 -2.11377 -2.12743 0
M  V30 2307 H 231.093 -1.12793 -1.08201 0
M  V30 2308 H 231.828 0.206837 -3.2364 0
M  V30 2309 H 231.613 -1.52755 -3.61121 0
M  V30 2310 H 233.103 -0.678408 -4.12053 0
M  V30 2311 N 233.54 1.10788 -1.12088 0
M  V30 2312 C 234.503 2.15207 -0.788577 0
M  V30 2313 C 235.503 1.59609 0.195317 0
M  V30 2314 O 236.693 1.74174 -0.0300193 0
M  V30 2315 C 233.825 3.4047 -0.171174 0
M  V30 2316 H 235.018 2.46116 -1.71368 0
M  V30 2317 H 232.571 1.26089 -0.923652 0
M  V30 2318 H 233.306 3.15176 0.763832 0
M  V30 2319 H 233.091 3.82109 -0.879514 0
M  V30 2320 H 234.581 4.17576 0.04496 0
M  V30 2321 N 235.018 0.912232 1.28515 0
M  V30 2322 C 236.429 0.591352 1.77087 0
M  V30 2323 C 236.78 -0.8933 1.74684 0
M  V30 2324 O 235.905 -1.69876 1.34056 0
M  V30 2325 C 236.5 1.06668 3.2157 0
M  V30 2326 C 235.059 0.79675 3.67871 0
M  V30 2327 C 234.206 1.23427 2.48316 0
M  V30 2328 H 237.157 1.09365 1.15 0
M  V30 2329 H 237.178 0.407455 3.78312 0
M  V30 2330 H 236.69 2.14726 3.23287 0
M  V30 2331 H 234.791 -0.270679 3.71616 0
M  V30 2332 H 234.904 1.40343 4.58084 0
M  V30 2333 H 233.268 0.653036 2.46186 0
M  V30 2334 H 234.051 2.32316 2.52753 0
M  V30 2335 N 236.496 -1.42363 0.676048 0
M  V30 2336 C 237.459 -2.29199 0.00766941 0
M  V30 2337 C 238.459 -1.43389 -0.727745 0
M  V30 2338 O 239.649 -1.64764 -0.56556 0
M  V30 2339 C 236.781 -3.2591 -0.999785 0
M  V30 2340 H 237.974 -2.89794 0.771988 0
M  V30 2341 H 235.527 -1.50024 0.438468 0
M  V30 2342 H 236.262 -2.70256 -1.79255 0
M  V30 2343 H 236.047 -3.89202 -0.475829 0
M  V30 2344 H 237.537 -3.91028 -1.46583 0
M  V30 2345 N 237.974 -0.419461 -1.51915 0
M  V30 2346 C 239.214 0.152336 -2.03832 0
M  V30 2347 C 239.578 1.41501 -1.29775 0
M  V30 2348 O 240.779 2.06591 -1.7197 0
M  V30 2349 C 239.05 0.383812 -3.55333 0
M  V30 2350 S 240.609 0.921577 -4.29013 0
M  V30 2351 H 237.427 0.0402193 -0.709862 0
M  V30 2352 H 240.029 -0.574758 -1.8686 0
M  V30 2353 H 238.733 -0.541794 -4.06808 0
M  V30 2354 H 238.264 1.13849 -3.76566 0
M  V30 2355 H 240.279 2.20108 -4.4471 0
M  V30 2356 N 239.452 1.56882 -0.150215 0
M  V30 2357 C 240.382 2.19935 0.784284 0
M  V30 2358 C 241.363 1.14854 1.25469 0
M  V30 2359 O 242.548 1.43209 1.31168 0
M  V30 2360 C 239.678 2.82349 2.02229 0
M  V30 2361 C 238.632 3.93285 1.68853 0
M  V30 2362 C 237.958 4.42649 2.99944 0
M  V30 2363 C 239.258 5.13904 0.932714 0
M  V30 2364 H 240.952 2.9828 0.258781 0
M  V30 2365 H 238.498 1.43473 0.123029 0
M  V30 2366 H 240.451 3.25126 2.68088 0
M  V30 2367 H 239.175 2.0134 2.57157 0
M  V30 2368 H 237.834 3.5113 1.05371 0
M  V30 2369 H 237.482 3.58458 3.52869 0
M  V30 2370 H 237.182 5.17476 2.78374 0
M  V30 2371 H 238.706 4.88099 3.66868 0
M  V30 2372 H 240.12 5.53506 1.49345 0
M  V30 2373 H 238.517 5.94515 0.81684 0
M  V30 2374 H 239.587 4.84842 -0.0749568 0
M  V30 2375 N 240.93 -0.123565 1.57115 0
M  V30 2376 C 242.177 -0.832153 1.84612 0
M  V30 2377 C 242.505 -1.80093 0.734627 0
M  V30 2378 O 241.76 -1.93766 -0.27442 0
M  V30 2379 C 242.059 -1.62016 3.18568 0
M  V30 2380 C 241.725 -0.796084 4.43817 0
M  V30 2381 C 240.387 -0.568816 4.77826 0
M  V30 2382 C 242.739 -0.221364 5.2073 0
M  V30 2383 C 240.067 0.243499 5.86194 0
M  V30 2384 C 242.419 0.578117 6.29953 0
M  V30 2385 C 241.083 0.815744 6.62497 0
M  V30 2386 H 240.353 -0.304507 0.675542 0
M  V30 2387 H 243 -0.0947248 1.91266 0
M  V30 2388 H 241.305 -2.42837 3.0747 0
M  V30 2389 H 243.002 -2.17231 3.37064 0
M  V30 2390 H 239.592 -0.983307 4.17168 0
M  V30 2391 H 243.776 -0.384173 4.94811 0
M  V30 2392 H 239.032 0.436871 6.09837 0
M  V30 2393 H 243.206 1.03046 6.88734 0
M  V30 2394 H 240.833 1.44701 7.46301 0
M  V30 2395 N 242.408 -1.52605 -0.393616 0
M  V30 2396 C 243.633 -1.71592 -1.16495 0
M  V30 2397 C 244.058 -0.43133 -1.83088 0
M  V30 2398 O 243.416 0.612523 -1.7064 0
M  V30 2399 C 243.464 -2.86318 -2.19213 0
M  V30 2400 O 242.568 -2.52969 -3.257 0
M  V30 2401 H 241.909 -0.570734 -0.33935 0
M  V30 2402 H 244.439 -1.99377 -0.459324 0
M  V30 2403 H 244.449 -3.1168 -2.63286 0
M  V30 2404 H 243.124 -3.79511 -1.7013 0
M  V30 2405 H 241.701 -2.38332 -2.86797 0
M  V30 2406 N 243.887 0.651787 -1.4349 0
M  V30 2407 C 244.85 1.74647 -1.48429 0
M  V30 2408 C 245.85 1.56513 -0.368817 0
M  V30 2409 O 247.04 1.62385 -0.630623 0
M  V30 2410 C 244.172 3.13533 -1.33827 0
M  V30 2411 H 245.365 1.71649 -2.4592 0
M  V30 2412 H 242.918 0.863573 -1.30277 0
M  V30 2413 H 243.653 3.22142 -0.37349 0
M  V30 2414 H 243.438 3.28101 -2.14691 0
M  V30 2415 H 244.928 3.93356 -1.40218 0
M  V30 2416 N 245.365 1.30045 0.890287 0
M  V30 2417 C 246.315 1.12592 1.9826 0
M  V30 2418 C 247.299 0.0426021 1.60844 0
M  V30 2419 O 248.491 0.265346 1.75 0
M  V30 2420 C 245.62 0.814301 3.33503 0
M  V30 2421 C 244.706 1.93761 3.7725 0
M  V30 2422 N 245.097 3.18232 3.93143 0
M  V30 2423 C 243.395 1.83277 4.06602 0
M  V30 2424 C 244.096 3.9158 4.30163 0
M  V30 2425 N 243.072 3.19591 4.3973 0
M  V30 2426 H 246.874 2.07003 2.08631 0
M  V30 2427 H 244.388 1.21307 1.07974 0
M  V30 2428 H 246.385 0.67029 4.11476 0
M  V30 2429 H 245.045 -0.121797 3.24471 0
M  V30 2430 H 246.056 3.53581 3.78419 0
M  V30 2431 H 242.733 0.97001 4.06075 0
M  V30 2432 H 244.123 4.98744 4.50226 0
M  V30 2433 N 246.843 -1.10192 1.12674 0
M  V30 2434 C 247.793 -2.14754 0.765801 0
M  V30 2435 C 248.777 -1.59154 -0.236409 0
M  V30 2436 O 249.969 -1.76951 -0.0415261 0
M  V30 2437 C 247.098 -3.42563 0.224827 0
M  V30 2438 C 246.184 -4.05091 1.25548 0
M  V30 2439 N 246.575 -4.42287 2.4539 0
M  V30 2440 C 244.873 -4.32186 1.10142 0
M  V30 2441 C 245.574 -4.91441 3.11224 0
M  V30 2442 N 244.55 -4.88405 2.38666 0
M  V30 2443 H 248.352 -2.41309 1.67772 0
M  V30 2444 H 245.866 -1.27339 1.00789 0
M  V30 2445 H 247.863 -4.16868 -0.0519578 0
M  V30 2446 H 246.523 -3.17467 -0.681515 0
M  V30 2447 H 247.534 -4.33902 2.82754 0
M  V30 2448 H 244.211 -4.16735 0.252587 0
M  V30 2449 H 245.601 -5.29749 4.13298 0
M  V30 2450 N 248.321 -0.919034 -1.28029 0
M  V30 2451 C 249.269 -0.401753 -2.29104 0
M  V30 2452 C 250.263 0.509354 -1.61561 0
M  V30 2453 O 251.469 0.390014 -1.75724 0
M  V30 2454 H 247.844 -0.111331 -0.743713 0
M  V30 2455 H 249.815 -1.2672 -2.70156 0
M  V30 2456 C 248.564 0.338148 -3.46052 0
M  V30 2457 H 247.887 -0.353732 -3.98232 0
M  V30 2458 H 249.327 0.664653 -4.18758 0
M  V30 2459 C 247.786 1.54798 -2.99231 0
M  V30 2460 O 248.316 2.64696 -3.02157 0
M  V30 2461 N 246.522 1.3968 -2.54829 0
M  V30 2462 H 246.069 0.502698 -2.52647 0
M  V30 2463 H 246.027 2.20755 -2.23863 0
M  V30 2464 N 249.799 1.42003 -0.683588 0
M  V30 2465 C 251.215 1.55625 -0.353976 0
M  V30 2466 C 251.415 1.66151 1.14 0
M  V30 2467 O 250.471 1.63329 1.92561 0
M  V30 2468 C 251.784 2.80171 -1.092 0
M  V30 2469 C 253.332 2.93954 -1.07518 0
M  V30 2470 C 253.807 4.21372 -1.79471 0
M  V30 2471 N 255.298 4.28303 -1.76381 0
M  V30 2472 C 256.033 5.25729 -2.28904 0
M  V30 2473 N 255.529 6.29254 -2.89846 0
M  V30 2474 N 257.322 5.17586 -2.19228 0
M  V30 2475 H 249.473 1.33415 -1.6527 0
M  V30 2476 H 251.736 0.64282 -0.696769 0
M  V30 2477 H 251.442 2.78561 -2.14701 0
M  V30 2478 H 251.316 3.7133 -0.662862 0
M  V30 2479 H 253.703 2.95086 -0.028475 0
M  V30 2480 H 253.784 2.04002 -1.54328 0
M  V30 2481 H 253.428 4.21001 -2.84114 0
M  V30 2482 H 253.358 5.10275 -1.30104 0
M  V30 2483 H 255.849 3.54119 -1.31939 0
M  V30 2484 H 256.162 6.99964 -3.27522 0
M  V30 2485 H 254.507 6.29791 -2.93919 0
M  V30 2486 H 257.698 4.35631 -1.71299 0
M  V30 2487 H 257.871 5.93348 -2.60466 0
M  V30 2488 N 251.277 0.427512 1.51691 0
M  V30 2489 C 252.688 -0.0378867 1.86662 0
M  V30 2490 C 253.039 -1.42819 1.34525 0
M  V30 2491 O 252.164 -2.05037 0.692014 0
M  V30 2492 C 252.759 -0.0755266 3.38716 0
M  V30 2493 C 251.318 -0.485309 3.73258 0
M  V30 2494 C 250.465 0.328399 2.75349 0
M  V30 2495 H 253.416 0.64379 1.45055 0
M  V30 2496 H 253.437 -0.887056 3.70016 0
M  V30 2497 H 252.949 0.936487 3.76632 0
M  V30 2498 H 251.05 -1.50329 3.40928 0
M  V30 2499 H 251.163 -0.21693 4.78609 0
M  V30 2500 H 249.527 -0.211905 2.53817 0
M  V30 2501 H 250.31 1.3391 3.16106 0
M  V30 2502 N 252.755 -1.56801 0.158532 0
M  V30 2503 C 254.032 -1.88131 -0.535357 0
M  V30 2504 C 254.412 -1.06638 -1.82186 0
M  V30 2505 O 253.76 -0.156533 -2.27963 0
M  V30 2506 C 253.97 -3.39949 -0.789653 0
M  V30 2507 C 255.318 -4.09416 -1.12533 0
M  V30 2508 O 256.342 -3.45194 -0.878622 0
M  V30 2509 O 255.201 -5.22855 -1.59014 0
M  V30 2510 H 252.295 -0.780143 -0.27442 0
M  V30 2511 H 254.841 -1.68564 0.19601 0
M  V30 2512 H 253.613 -3.91115 0.120353 0
M  V30 2513 H 253.236 -3.65084 -1.57479 0
M  V30 2514 N 254.233 0.115231 -1.57178 0
M  V30 2515 C 255.51 0.852873 -1.76027 0
M  V30 2516 C 255.89 1.97892 -0.73498 0
M  V30 2517 O 255.238 2.27232 0.24036 0
M  V30 2518 C 255.448 1.36608 -3.21153 0
M  V30 2519 C 256.796 1.81692 -3.83762 0
M  V30 2520 O 257.82 1.46278 -3.24779 0
M  V30 2521 O 256.679 2.47104 -4.87444 0
M  V30 2522 H 253.773 0.405296 -0.720877 0
M  V30 2523 H 256.319 0.0986785 -1.69413 0
M  V30 2524 H 255.091 0.558357 -3.87296 0
M  V30 2525 H 254.714 2.18287 -3.3232 0
M  V30 2526 N 255.711 1.52812 0.385517 0
M  V30 2527 C 256.951 1.69716 1.13911 0
M  V30 2528 C 257.315 0.42962 1.87132 0
M  V30 2529 O 258.516 0.475071 2.64569 0
M  V30 2530 C 256.787 2.90021 2.0886 0
M  V30 2531 S 258.346 3.27531 2.92009 0
M  V30 2532 H 255.164 0.59739 0.385547 0
M  V30 2533 H 257.766 1.90868 0.423061 0
M  V30 2534 H 256.47 3.80493 1.53797 0
M  V30 2535 H 256.001 2.71213 2.84969 0
M  V30 2536 H 258.016 2.77989 4.11019 0
M  V30 2537 N 257.189 -0.644168 1.43834 0
M  V30 2538 C 258.6 -1.22554 1.40845 0
M  V30 2539 C 258.951 -1.9585 0.117115 0
M  V30 2540 O 258.076 -2.01734 -0.783086 0
M  V30 2541 C 258.671 -2.22907 2.55143 0
M  V30 2542 C 257.23 -2.76501 2.5539 0
M  V30 2543 C 256.377 -1.51287 2.32396 0
M  V30 2544 H 259.328 -0.43563 1.52604 0
M  V30 2545 H 259.349 -3.05259 2.2715 0
M  V30 2546 H 258.861 -1.69533 3.49114 0
M  V30 2547 H 256.962 -3.33914 1.65324 0
M  V30 2548 H 257.075 -3.23429 3.53455 0
M  V30 2549 H 255.439 -1.78957 1.81236 0
M  V30 2550 H 256.222 -0.998336 3.28463 0
M  V30 2551 N 258.668 -1.30515 -0.883378 0
M  V30 2552 C 259.945 -1.10086 -1.6168 0
M  V30 2553 C 260.325 0.349269 -2.08191 0
M  V30 2554 O 259.673 1.34105 -1.85008 0
M  V30 2555 C 259.883 -2.10315 -2.78511 0
M  V30 2556 C 261.231 -2.42119 -3.48803 0
M  V30 2557 O 262.255 -2.08638 -2.88702 0
M  V30 2558 O 261.114 -2.99396 -4.57192 0
M  V30 2559 H 258.208 -0.422907 -0.710689 0
M  V30 2560 H 260.754 -1.41947 -0.930015 0
M  V30 2561 H 259.526 -3.07917 -2.41459 0
M  V30 2562 H 259.149 -1.79282 -3.54886 0
M  V30 2563 N 260.146 1.09593 -1.13257 0
M  V30 2564 C 261.386 1.83349 -0.903472 0
M  V30 2565 C 261.75 1.83641 0.560351 0
M  V30 2566 O 262.951 2.53037 0.906947 0
M  V30 2567 C 261.222 3.25629 -1.47311 0
M  V30 2568 S 262.781 4.16408 -1.38382 0
M  V30 2569 H 259.599 0.632014 -0.325699 0
M  V30 2570 H 262.201 1.31817 -1.44376 0
M  V30 2571 H 260.905 3.22991 -2.53189 0
M  V30 2572 H 260.436 3.82233 -0.930689 0
M  V30 2573 H 262.451 4.94884 -0.361113 0
M  V30 2574 N 261.624 0.925811 1.2754 0
M  V30 2575 C 262.87 0.566092 1.94739 0
M  V30 2576 C 263.203 -0.890057 1.72603 0
M  V30 2577 O 262.478 -1.63467 1.05399 0
M  V30 2578 C 262.761 0.89054 3.48915 0
M  V30 2579 C 262.614 2.4003 3.80402 0
M  V30 2580 C 263.933 0.395101 4.38323 0
M  V30 2581 H 261.052 0.20714 0.707292 0
M  V30 2582 H 263.694 1.15725 1.50691 0
M  V30 2583 H 261.844 0.387452 3.86563 0
M  V30 2584 H 263.516 2.97494 3.52555 0
M  V30 2585 H 261.759 2.85028 3.2702 0
M  V30 2586 H 262.43 2.57785 4.8811 0
M  V30 2587 H 264.906 0.826241 4.07814 0
M  V30 2588 H 263.782 0.651086 5.45025 0
M  V30 2589 H 264.043 -0.704798 4.36446 0
M  V30 2590 N 263.102 -1.41638 0.69111 0
M  V30 2591 C 264.065 -2.29178 0.0319786 0
M  V30 2592 C 265.065 -1.44153 -0.712496 0
M  V30 2593 O 266.255 -1.65354 -0.548053 0
M  V30 2594 C 263.387 -3.26952 -0.965161 0
M  V30 2595 H 264.58 -2.88959 0.802681 0
M  V30 2596 H 262.133 -1.4955 0.454356 0
M  V30 2597 H 262.868 -2.72142 -1.76378 0
M  V30 2598 H 262.653 -3.89685 -0.434522 0
M  V30 2599 H 264.143 -3.92561 -1.42428 0
M  V30 2600 N 264.58 -0.43555 -1.51462 0
M  V30 2601 C 265.805 0.132627 -2.06976 0
M  V30 2602 C 266.23 1.35848 -1.30104 0
M  V30 2603 O 265.588 1.78112 -0.338493 0
M  V30 2604 C 265.636 0.43523 -3.57964 0
M  V30 2605 O 264.74 1.52198 -3.83288 0
M  V30 2606 H 264.081 0.00265 -0.663995 0
M  V30 2607 H 266.611 -0.616369 -1.95095 0
M  V30 2608 H 266.621 0.686206 -4.02188 0
M  V30 2609 H 265.296 -0.460739 -4.1334 0
M  V30 2610 H 263.873 1.2611 -3.50928 0
M  V30 2611 N 266.058 1.56714 -0.166846 0
M  V30 2612 C 267.469 1.83378 0.350646 0
M  V30 2613 C 267.82 1.08646 1.63372 0
M  V30 2614 O 266.945 0.338058 2.13743 0
M  V30 2615 C 267.54 3.32643 0.642963 0
M  V30 2616 C 266.099 3.59818 1.10491 0
M  V30 2617 C 265.246 2.76954 0.138411 0
M  V30 2618 H 268.197 1.53803 -0.391193 0
M  V30 2619 H 268.218 3.49878 1.49551 0
M  V30 2620 H 267.73 3.87007 -0.291055 0
M  V30 2621 H 265.831 3.1086 2.05418 0
M  V30 2622 H 265.944 4.68178 1.01716 0
M  V30 2623 H 264.308 2.4666 0.634911 0
M  V30 2624 H 265.091 3.34097 -0.789549 0
M  V30 2625 N 267.536 -0.106894 1.57237 0
M  V30 2626 C 268.466 -1.13148 2.04254 0
M  V30 2627 C 269.447 -1.42476 0.929224 0
M  V30 2628 O 270.632 -1.52709 1.19973 0
M  V30 2629 C 267.762 -2.4545 2.45706 0
M  V30 2630 C 266.716 -2.30558 3.60592 0
M  V30 2631 C 266.042 -3.67931 3.87983 0
M  V30 2632 C 267.342 -1.75597 4.91897 0
M  V30 2633 H 269.036 -0.740374 2.90101 0
M  V30 2634 H 266.582 -0.354696 1.39563 0
M  V30 2635 H 268.535 -3.17389 2.77205 0
M  V30 2636 H 267.259 -2.86475 1.56843 0
M  V30 2637 H 265.918 -1.61067 3.29322 0
M  V30 2638 H 265.566 -4.06462 2.96306 0
M  V30 2639 H 265.266 -3.58817 4.65322 0
M  V30 2640 H 266.79 -4.41356 4.21945 0
M  V30 2641 H 268.204 -2.37364 5.21854 0
M  V30 2642 H 266.601 -1.77272 5.73319 0
M  V30 2643 H 267.671 -0.714451 4.79608 0
M  V30 2644 N 269.014 -1.53014 -0.377408 0
M  V30 2645 C 270.262 -1.6829 -1.11906 0
M  V30 2646 C 270.583 -0.431206 -1.90173 0
M  V30 2647 O 269.853 0.554595 -1.87886 0
M  V30 2648 H 268.433 -0.620371 -0.416112 0
M  V30 2649 H 271.095 -1.90167 -0.426893 0
M  V30 2650 H 270.191 -2.53862 -1.8155 0
M  V30 2651 N 270.492 0.636531 -1.44174 0
M  V30 2652 C 271.72 1.42353 -1.50144 0
M  V30 2653 C 272.135 1.88389 -0.124575 0
M  V30 2654 O 271.492 1.6051 0.868489 0
M  V30 2655 C 271.543 2.64744 -2.46156 0
M  V30 2656 O 271.264 2.20629 -3.7849 0
M  V30 2657 C 272.765 3.57929 -2.61537 0
M  V30 2658 H 269.985 0.436752 -0.5094 0
M  V30 2659 H 272.529 0.778933 -1.89084 0
M  V30 2660 H 270.684 3.25307 -2.10366 0
M  V30 2661 H 271.098 2.99938 -4.30276 0
M  V30 2662 H 272.572 4.40428 -3.32757 0
M  V30 2663 H 273.049 4.06382 -1.66585 0
M  V30 2664 H 273.655 3.03238 -2.98206 0
M  V30 2665 N 271.97 1.30982 0.876444 0
M  V30 2666 C 273.386 1.09498 1.16113 0
M  V30 2667 C 273.586 -0.13875 2.01022 0
M  V30 2668 O 272.642 -0.829935 2.38471 0
M  V30 2669 C 273.955 2.36308 1.85954 0
M  V30 2670 C 275.503 2.41856 1.98683 0
M  V30 2671 C 275.978 3.6853 2.71937 0
M  V30 2672 N 277.469 3.69387 2.79477 0
M  V30 2673 C 278.204 4.64096 3.36753 0
M  V30 2674 N 277.7 5.69155 3.95012 0
M  V30 2675 N 279.493 4.51626 3.3465 0
M  V30 2676 H 271.644 2.10118 0.310494 0
M  V30 2677 H 273.907 0.926634 0.200131 0
M  V30 2678 H 273.613 3.26388 1.31011 0
M  V30 2679 H 273.487 2.4561 2.86278 0
M  V30 2680 H 275.874 1.52249 2.52793 0
M  V30 2681 H 275.955 2.36523 0.9742 0
M  V30 2682 H 275.599 4.58499 2.18496 0
M  V30 2683 H 275.529 3.71127 3.73593 0
M  V30 2684 H 278.02 2.93438 2.38123 0
M  V30 2685 H 278.333 6.3751 4.36808 0
M  V30 2686 H 276.678 5.72937 3.93406 0
M  V30 2687 H 279.869 3.68728 2.8837 0
M  V30 2688 H 280.042 5.25614 3.7899 0
M  V30 2689 N 273.449 -1.08991 1.13837 0
M  V30 2690 C 274.695 -1.81526 0.90422 0
M  V30 2691 C 275.028 -1.85706 -0.568066 0
M  V30 2692 O 274.303 -1.32855 -1.42056 0
M  V30 2693 C 274.586 -3.27447 1.49835 0
M  V30 2694 C 274.439 -3.31512 3.04006 0
M  V30 2695 C 275.758 -4.24256 1.17025 0
M  V30 2696 H 272.877 -0.659029 0.329923 0
M  V30 2697 H 275.519 -1.27644 1.40737 0
M  V30 2698 H 273.669 -3.73462 1.07044 0
M  V30 2699 H 275.341 -2.93867 3.55584 0
M  V30 2700 H 273.584 -2.70963 3.38765 0
M  V30 2701 H 274.255 -4.34329 3.40679 0
M  V30 2702 H 276.731 -3.86549 1.54009 0
M  V30 2703 H 275.607 -5.24684 1.61237 0
M  V30 2704 H 275.868 -4.42019 0.0846274 0
M  V30 2705 N 274.927 -0.932562 -1.27047 0
M  V30 2706 C 276.155 -0.592031 -1.98249 0
M  V30 2707 C 276.57 0.831062 -1.69525 0
M  V30 2708 O 275.927 1.55299 -0.958561 0
M  V30 2709 C 275.978 -0.814279 -3.5221 0
M  V30 2710 O 275.699 -2.18139 -3.7993 0
M  V30 2711 C 277.2 -0.483121 -4.4066 0
M  V30 2712 H 274.42 -0.223896 -0.632544 0
M  V30 2713 H 276.964 -1.25091 -1.61779 0
M  V30 2714 H 275.119 -0.20213 -3.86872 0
M  V30 2715 H 275.533 -2.235 -4.74498 0
M  V30 2716 H 277.007 -0.689298 -5.47679 0
M  V30 2717 H 277.484 0.581546 -4.35333 0
M  V30 2718 H 278.09 -1.07362 -4.11526 0
M  V30 2719 N 276.405 1.4127 -0.698611 0
M  V30 2720 C 277.651 2.01478 -0.231207 0
M  V30 2721 C 277.984 1.55215 1.16713 0
M  V30 2722 O 277.259 0.764672 1.78838 0
M  V30 2723 C 277.542 3.58912 -0.292281 0
M  V30 2724 C 277.395 4.15293 -1.72778 0
M  V30 2725 C 278.714 4.38736 0.346194 0
M  V30 2726 H 275.833 0.732025 -0.0854878 0
M  V30 2727 H 278.475 1.67977 -0.887906 0
M  V30 2728 H 276.625 3.87582 0.26686 0
M  V30 2729 H 278.297 3.97486 -2.341 0
M  V30 2730 H 276.54 3.7022 -2.26096 0
M  V30 2731 H 277.211 5.24452 -1.72202 0
M  V30 2732 H 279.687 4.15897 -0.130035 0
M  V30 2733 H 278.563 5.48221 0.272932 0
M  V30 2734 H 278.824 4.18425 1.42734 0
M  V30 2735 N 277.883 0.443576 1.51229 0
M  V30 2736 C 279.129 -0.120975 2.02439 0
M  V30 2737 C 279.462 -1.41815 1.32674 0
M  V30 2738 O 278.737 -1.89373 0.443622 0
M  V30 2739 C 279.02 -0.333291 3.58554 0
M  V30 2740 C 278.873 0.982968 4.38928 0
M  V30 2741 C 280.192 -1.10028 4.26124 0
M  V30 2742 H 277.311 -0.0424923 0.735774 0
M  V30 2743 H 279.953 0.583794 1.80809 0
M  V30 2744 H 278.103 -0.933614 3.77115 0
M  V30 2745 H 279.775 1.61775 4.32003 0
M  V30 2746 H 278.018 1.58611 4.03763 0
M  V30 2747 H 278.689 0.788379 5.46341 0
M  V30 2748 H 281.165 -0.591711 4.11871 0
M  V30 2749 H 280.041 -1.21761 5.35225 0
M  V30 2750 H 280.302 -2.12996 3.87408 0
M  V30 2751 N 279.361 -1.56624 0.175154 0
M  V30 2752 C 280.271 -2.21741 -0.766042 0
M  V30 2753 C 281.287 -1.21023 -1.25018 0
M  V30 2754 O 282.463 -1.53697 -1.3015 0
M  V30 2755 C 279.528 -2.84839 -1.97655 0
M  V30 2756 C 278.589 -4.00769 -1.53892 0
M  V30 2757 C 277.822 -4.60849 -2.69173 0
M  V30 2758 O 278.045 -4.19823 -3.86141 0
M  V30 2759 O 276.979 -5.50655 -2.43028 0
M  V30 2760 H 280.805 -3.02738 -0.241585 0
M  V30 2761 H 278.39 -1.49305 -0.053222 0
M  V30 2762 H 280.272 -3.24834 -2.68442 0
M  V30 2763 H 278.947 -2.06836 -2.48999 0
M  V30 2764 H 277.854 -3.65436 -0.80044 0
M  V30 2765 H 279.187 -4.80376 -1.07236 0
M  V30 2766 N 280.839 0.0985539 -1.57292 0
M  V30 2767 C 281.771 1.14595 -1.98496 0
M  V30 2768 C 282.784 1.36512 -0.887031 0
M  V30 2769 O 283.973 1.35225 -1.16518 0
M  V30 2770 C 281.073 2.50216 -2.28572 0
M  V30 2771 C 280.246 2.48624 -3.59868 0
M  V30 2772 C 279.305 3.66146 -3.7792 0
M  V30 2773 O 278.331 3.48795 -4.49812 0
M  V30 2774 N 279.533 4.85496 -3.18235 0
M  V30 2775 H 282.298 0.795277 -2.88956 0
M  V30 2776 H 279.859 0.287579 -1.59325 0
M  V30 2777 H 281.851 3.27432 -2.37845 0
M  V30 2778 H 280.421 2.77387 -1.44136 0
M  V30 2779 H 279.641 1.56978 -3.61596 0
M  V30 2780 H 280.929 2.44635 -4.46129 0
M  V30 2781 H 280.327 5.02497 -2.59833 0
M  V30 2782 H 278.884 5.60317 -3.32999 0
M  V30 2783 N 282.317 1.53212 0.369288 0
M  V30 2784 C 283.565 1.68881 1.11012 0
M  V30 2785 C 283.886 0.441285 1.89941 0
M  V30 2786 O 283.156 -0.544623 1.88177 0
M  V30 2787 H 281.736 0.622569 0.412816 0
M  V30 2788 H 284.398 1.90391 0.416802 0
M  V30 2789 H 283.494 2.54822 1.80201 0
M  V30 2790 N 283.795 -0.628877 1.44509 0
M  V30 2791 C 284.727 -1.754 1.47538 0
M  V30 2792 C 285.74 -1.58575 0.368506 0
M  V30 2793 O 286.929 -1.66847 0.634376 0
M  V30 2794 C 284.029 -3.1315 1.29577 0
M  V30 2795 C 283.202 -3.56413 2.53551 0
M  V30 2796 C 282.261 -4.7305 2.30457 0
M  V30 2797 O 281.287 -4.81247 3.03957 0
M  V30 2798 N 282.489 -5.64903 1.3366 0
M  V30 2799 H 285.254 -1.73272 2.44534 0
M  V30 2800 H 282.815 -0.813512 1.39977 0
M  V30 2801 H 284.807 -3.88902 1.11971 0
M  V30 2802 H 283.377 -3.09908 0.409371 0
M  V30 2803 H 282.597 -2.70847 2.86419 0
M  V30 2804 H 283.885 -3.82071 3.36005 0
M  V30 2805 H 283.283 -5.60975 0.729604 0
M  V30 2806 H 281.84 -6.40275 1.22032 0
M  V30 2807 N 285.273 -1.31445 -0.869486 0
M  V30 2808 C 286.236 -1.19094 -1.9583 0
M  V30 2809 C 287.236 -0.117906 -1.60367 0
M  V30 2810 O 288.426 -0.367208 -1.70286 0
M  V30 2811 C 285.558 -0.828165 -3.30688 0
M  V30 2812 H 286.751 -2.15842 -2.08212 0
M  V30 2813 H 284.304 -1.15063 -1.05784 0
M  V30 2814 H 285.039 0.138142 -3.24006 0
M  V30 2815 H 284.824 -1.6038 -3.578 0
M  V30 2816 H 286.314 -0.765658 -4.10521 0
M  V30 2817 N 286.751 1.08385 -1.14413 0
M  V30 2818 C 287.976 1.85057 -0.936413 0
M  V30 2819 C 288.401 1.81055 0.509971 0
M  V30 2820 O 287.759 1.1958 1.36273 0
M  V30 2821 C 287.807 3.30505 -1.44217 0
M  V30 2822 O 286.911 4.07491 -0.634409 0
M  V30 2823 H 286.252 0.573425 -0.334784 0
M  V30 2824 H 288.782 1.36799 -1.52142 0
M  V30 2825 H 288.792 3.81348 -1.45043 0
M  V30 2826 H 287.467 3.32734 -2.49522 0
M  V30 2827 H 286.044 3.66368 -0.694902 0
M  V30 2828 N 288.23 0.939286 1.26551 0
M  V30 2829 C 289.46 0.601663 1.97645 0
M  V30 2830 C 289.868 -0.827206 1.70159 0
M  V30 2831 O 289.211 -1.56291 0.965338 0
M  V30 2832 C 289.273 0.761725 3.51337 0
M  V30 2833 C 288.937 2.16487 4.0247 0
M  V30 2834 C 289.934 3.14016 4.14355 0
M  V30 2835 C 287.619 2.48494 4.36527 0
M  V30 2836 C 289.613 4.41654 4.59587 0
M  V30 2837 C 287.3 3.76364 4.81449 0
M  V30 2838 C 288.298 4.72758 4.92939 0
M  V30 2839 O 287.986 5.98352 5.36871 0
M  V30 2840 H 287.718 0.225758 0.637189 0
M  V30 2841 H 290.272 1.26178 1.62075 0
M  V30 2842 H 288.502 0.0444808 3.86674 0
M  V30 2843 H 290.191 0.427442 4.03643 0
M  V30 2844 H 290.957 2.90613 3.8829 0
M  V30 2845 H 286.836 1.74202 4.26819 0
M  V30 2846 H 290.38 5.16896 4.68471 0
M  V30 2847 H 286.277 3.99582 5.06956 0
M  V30 2848 H 287.045 6.01507 5.55096 0
M  V30 2849 N 289.708 -1.40897 0.706093 0
M  V30 2850 C 290.955 -2.01054 0.241531 0
M  V30 2851 C 291.283 -1.55956 -1.16223 0
M  V30 2852 O 290.538 -0.766336 -1.80072 0
M  V30 2853 C 290.837 -3.5646 0.259099 0
M  V30 2854 C 290.503 -4.21106 1.61184 0
M  V30 2855 C 289.165 -4.38479 1.98216 0
M  V30 2856 C 291.517 -4.57256 2.50132 0
M  V30 2857 C 288.845 -4.89282 3.2376 0
M  V30 2858 C 291.197 -5.09454 3.7502 0
M  V30 2859 C 289.861 -5.25037 4.12181 0
M  V30 2860 H 289.131 -0.73571 0.0883825 0
M  V30 2861 H 291.778 -1.68645 0.907257 0
M  V30 2862 H 290.083 -3.88721 -0.490189 0
M  V30 2863 H 291.78 -4.00826 -0.11804 0
M  V30 2864 H 288.37 -4.07966 1.31384 0
M  V30 2865 H 292.554 -4.43479 2.228 0
M  V30 2866 H 287.81 -4.99531 3.52532 0
M  V30 2867 H 291.984 -5.36404 4.44121 0
M  V30 2868 H 289.611 -5.64164 5.09532 0
M  V30 2869 N 291.186 -0.45159 -1.50991 0
M  V30 2870 C 292.416 0.108177 -2.06317 0
M  V30 2871 C 292.824 1.35774 -1.31765 0
M  V30 2872 O 292.167 1.79838 -0.374694 0
M  V30 2873 C 292.229 0.481659 -3.56259 0
M  V30 2874 C 291.893 -0.663114 -4.52163 0
M  V30 2875 C 292.89 -1.53947 -4.96585 0
M  V30 2876 C 290.575 -0.8479 -4.95092 0
M  V30 2877 C 292.569 -2.58518 -5.82621 0
M  V30 2878 C 290.256 -1.89686 -5.80915 0
M  V30 2879 C 291.254 -2.76388 -6.24579 0
M  V30 2880 O 290.942 -3.79482 -7.08695 0
M  V30 2881 H 290.674 0.00499183 -0.675982 0
M  V30 2882 H 293.228 -0.633659 -1.95381 0
M  V30 2883 H 291.458 1.27641 -3.65027 0
M  V30 2884 H 293.147 0.974233 -3.94035 0
M  V30 2885 H 293.913 -1.4083 -4.64103 0
M  V30 2886 H 289.792 -0.18258 -4.60638 0
M  V30 2887 H 293.336 -3.26224 -6.16623 0
M  V30 2888 H 289.233 -2.02817 -6.12809 0
M  V30 2889 H 290.001 -3.76234 -7.26905 0
M  V30 2890 N 292.664 1.56529 -0.183458 0
M  V30 2891 C 293.91 1.97537 0.459036 0
M  V30 2892 C 294.243 1.06989 1.62071 0
M  V30 2893 O 293.518 0.11948 1.94133 0
M  V30 2894 C 293.801 3.47874 0.930368 0
M  V30 2895 C 293.654 4.492 -0.232317 0
M  V30 2896 C 294.973 4.01612 1.79989 0
M  V30 2897 H 292.092 0.718204 0.165383 0
M  V30 2898 H 294.734 1.88042 -0.272038 0
M  V30 2899 H 292.884 3.56095 1.55333 0
M  V30 2900 H 294.556 4.53027 -0.86972 0
M  V30 2901 H 292.799 4.24657 -0.885928 0
M  V30 2902 H 293.47 5.51823 0.139796 0
M  V30 2903 H 295.946 3.96097 1.27461 0
M  V30 2904 H 294.822 5.07195 2.09867 0
M  V30 2905 H 295.083 3.46163 2.74998 0
M  V30 2906 N 294.142 -0.090211 1.57342 0
M  V30 2907 C 295.105 -1.09335 2.01441 0
M  V30 2908 C 296.105 -1.32666 0.908641 0
M  V30 2909 O 297.295 -1.28697 1.174 0
M  V30 2910 C 294.427 -2.44136 2.3793 0
M  V30 2911 H 295.62 -0.713662 2.91285 0
M  V30 2912 H 293.173 -0.335404 1.52659 0
M  V30 2913 H 293.908 -2.86972 1.51055 0
M  V30 2914 H 293.693 -2.28548 3.18603 0
M  V30 2915 H 295.183 -3.16277 2.72688 0
M  V30 2916 N 295.62 -1.53406 -0.361157 0
M  V30 2917 C 296.845 -1.74024 -1.12829 0
M  V30 2918 C 297.27 -0.470069 -1.82132 0
M  V30 2919 O 296.628 0.57619 -1.719 0
M  V30 2920 C 296.676 -2.90903 -2.13091 0
M  V30 2921 O 295.78 -2.59821 -3.20261 0
M  V30 2922 H 295.121 -0.577804 -0.327168 0
M  V30 2923 H 297.651 -2.00307 -0.41693 0
M  V30 2924 H 297.661 -3.17194 -2.56616 0
M  V30 2925 H 296.336 -3.83034 -1.62042 0
M  V30 2926 H 294.913 -2.44362 -2.81677 0
M  V30 2927 N 297.098 0.621204 -1.44841 0
M  V30 2928 C 298.323 1.41244 -1.51871 0
M  V30 2929 C 298.748 1.87519 -0.147764 0
M  V30 2930 O 298.106 1.59334 0.865 0
M  V30 2931 C 298.154 2.60221 -2.49634 0
M  V30 2932 O 297.258 3.60395 -2.00473 0
M  V30 2933 H 296.599 0.42223 -0.512463 0
M  V30 2934 H 299.129 0.757305 -1.90069 0
M  V30 2935 H 299.139 3.0764 -2.67996 0
M  V30 2936 H 297.814 2.25887 -3.4921 0
M  V30 2937 H 296.391 3.19717 -1.91925 0
M  V30 2938 N 298.576 1.31904 0.862503 0
M  V30 2939 C 299.506 1.22782 1.98612 0
M  V30 2940 C 300.487 0.113362 1.69722 0
M  V30 2941 O 301.672 0.299218 1.91881 0
M  V30 2942 C 298.802 0.942058 3.34279 0
M  V30 2943 C 297.756 2.0169 3.77499 0
M  V30 2944 C 297.082 1.58369 5.10709 0
M  V30 2945 C 298.382 3.43096 3.93805 0
M  V30 2946 H 300.076 2.16788 2.06502 0
M  V30 2947 H 297.622 1.04366 0.992154 0
M  V30 2948 H 299.575 0.864818 4.1243 0
M  V30 2949 H 298.299 -0.0336603 3.26583 0
M  V30 2950 H 296.958 2.08416 3.01593 0
M  V30 2951 H 296.606 0.595628 4.99461 0
M  V30 2952 H 296.306 2.30279 5.40597 0
M  V30 2953 H 297.83 1.52067 5.91361 0
M  V30 2954 H 299.244 3.39003 4.62331 0
M  V30 2955 H 297.641 4.13288 4.35101 0
M  V30 2956 H 298.711 3.83334 2.96957 0
M  V30 2957 N 300.054 -1.07777 1.14986 0
M  V30 2958 C 301.331 -1.7699 0.832695 0
M  V30 2959 C 301.711 -2.001 -0.672561 0
M  V30 2960 O 301.059 -1.61598 -1.6155 0
M  V30 2961 C 301.269 -3.08139 1.63863 0
M  V30 2962 C 302.617 -3.8256 1.84208 0
M  V30 2963 O 303.641 -3.17939 1.60603 0
M  V30 2964 O 302.5 -4.98612 2.23714 0
M  V30 2965 H 299.594 -0.768389 0.305791 0
M  V30 2966 H 302.14 -1.14182 1.25541 0
M  V30 2967 H 300.912 -2.86909 2.6608 0
M  V30 2968 H 300.535 -3.78678 1.21197 0
M  V30 2969 N 301.532 -0.945985 -1.26051 0
M  V30 2970 C 302.495 -0.463897 -2.24456 0
M  V30 2971 C 303.495 0.427655 -1.55009 0
M  V30 2972 O 304.685 0.226157 -1.72726 0
M  V30 2973 C 301.817 0.330812 -3.39291 0
M  V30 2974 H 303.01 -1.33357 -2.68619 0
M  V30 2975 H 300.563 -0.728416 -1.38289 0
M  V30 2976 H 301.298 1.21852 -3.00537 0
M  V30 2977 H 301.083 -0.308679 -3.90883 0
M  V30 2978 H 302.573 0.657865 -4.12386 0
M  V30 2979 N 303.011 1.40521 -0.713556 0
M  V30 2980 C 303.974 2.29098 -0.0684347 0
M  V30 2981 C 304.974 1.45268 0.689472 0
M  V30 2982 O 306.164 1.66205 0.521677 0
M  V30 2983 C 303.296 3.28446 0.913024 0
M  V30 2984 H 304.489 2.87645 -0.84855 0
M  V30 2985 H 302.042 1.48809 -0.47809 0
M  V30 2986 H 302.777 2.74913 1.72027 0
M  V30 2987 H 302.562 3.90327 0.372472 0
M  V30 2988 H 304.052 3.94777 1.36165 0
M  V30 2989 N 304.489 0.459591 1.5075 0
M  V30 2990 C 305.735 -0.0994966 2.02556 0
M  V30 2991 C 306.068 -1.40399 1.3417 0
M  V30 2992 O 305.343 -1.88892 0.463683 0
M  V30 2993 C 305.626 -0.295242 3.58888 0
M  V30 2994 C 305.479 1.02947 4.37861 0
M  V30 2995 C 306.798 -1.05502 4.27267 0
M  V30 2996 H 303.917 -0.034686 0.736183 0
M  V30 2997 H 306.559 0.602938 1.8018 0
M  V30 2998 H 304.709 -0.893563 3.78084 0
M  V30 2999 H 306.381 1.66348 4.30263 0
M  V30 3000 H 304.624 1.62885 4.02058 0
M  V30 3001 H 305.295 0.846281 5.45474 0
M  V30 3002 H 307.771 -0.547993 4.12476 0
M  V30 3003 H 306.647 -1.16077 5.36486 0
M  V30 3004 H 306.908 -2.08875 3.89645 0
M  V30 3005 N 305.967 -1.56429 0.191757 0
M  V30 3006 C 306.93 -2.17707 -0.716688 0
M  V30 3007 C 307.93 -1.13061 -1.14341 0
M  V30 3008 O 309.12 -1.38464 -1.05704 0
M  V30 3009 C 306.252 -2.77644 -1.97804 0
M  V30 3010 H 307.445 -2.99342 -0.1829 0
M  V30 3011 H 304.998 -1.56193 -0.0578566 0
M  V30 3012 H 305.733 -1.99799 -2.55443 0
M  V30 3013 H 305.518 -3.54246 -1.68083 0
M  V30 3014 H 307.008 -3.24708 -2.62592 0
M  V30 3015 N 307.445 0.0818655 -1.57387 0
M  V30 3016 C 308.408 1.08265 -2.02018 0
M  V30 3017 C 309.408 1.32183 -0.915664 0
M  V30 3018 O 310.598 1.28073 -1.18081 0
M  V30 3019 C 307.73 2.42871 -2.39221 0
M  V30 3020 H 308.923 0.698204 -2.91659 0
M  V30 3021 H 306.476 0.327303 -1.52835 0
M  V30 3022 H 307.211 2.86167 -1.52575 0
M  V30 3023 H 306.996 2.26855 -3.19811 0
M  V30 3024 H 308.486 3.14826 -2.74362 0
M  V30 3025 N 308.923 1.53595 0.353017 0
M  V30 3026 C 310.148 1.7462 1.11904 0
M  V30 3027 C 310.573 0.479721 1.8188 0
M  V30 3028 O 309.931 -0.567066 1.72204 0
M  V30 3029 C 309.979 2.92029 2.11545 0
M  V30 3030 O 309.083 2.61516 3.18878 0
M  V30 3031 H 308.424 0.579531 0.324099 0
M  V30 3032 H 310.954 2.00525 0.406301 0
M  V30 3033 H 310.964 3.18551 2.5493 0
M  V30 3034 H 309.639 3.83888 1.60008 0
M  V30 3035 H 308.216 2.45852 2.80377 0
M  V30 3036 N 310.401 -0.613514 1.45168 0
M  V30 3037 C 311.648 -1.37268 1.48875 0
M  V30 3038 C 311.976 -1.94077 0.128161 0
M  V30 3039 O 311.231 -1.75178 -0.872416 0
M  V30 3040 C 311.53 -2.54347 2.51083 0
M  V30 3041 C 311.196 -2.1572 3.95949 0
M  V30 3042 C 309.858 -2.04899 4.35396 0
M  V30 3043 C 312.21 -1.85485 4.87078 0
M  V30 3044 C 309.538 -1.62057 5.63875 0
M  V30 3045 C 311.89 -1.4413 6.15962 0
M  V30 3046 C 310.554 -1.31863 6.54346 0
M  V30 3047 H 309.824 -0.502299 0.544773 0
M  V30 3048 H 312.471 -0.694021 1.78481 0
M  V30 3049 H 310.776 -3.27524 2.15024 0
M  V30 3050 H 312.473 -3.12577 2.51191 0
M  V30 3051 H 309.063 -2.25066 3.64751 0
M  V30 3052 H 313.247 -1.92745 4.57343 0
M  V30 3053 H 308.503 -1.51177 5.92415 0
M  V30 3054 H 312.677 -1.19778 6.86022 0
M  V30 3055 H 310.304 -0.984392 7.538 0
M  V30 3056 N 311.879 -1.3236 -0.855495 0
M  V30 3057 C 313.104 -1.2601 -1.64731 0
M  V30 3058 C 313.529 0.169068 -1.87339 0
M  V30 3059 O 312.887 1.12016 -1.42556 0
M  V30 3060 C 312.935 -2.02417 -2.98429 0
M  V30 3061 O 312.039 -1.3714 -3.8893 0
M  V30 3062 H 311.38 -0.434325 -0.502253 0
M  V30 3063 H 313.91 -1.74661 -1.06558 0
M  V30 3064 H 313.92 -2.12559 -3.48257 0
M  V30 3065 H 312.595 -3.06343 -2.81295 0
M  V30 3066 H 311.172 -1.3554 -3.47395 0
M  V30 3067 N 313.357 1.07166 -1.15556 0
M  V30 3068 C 314.768 1.6127 -0.940693 0
M  V30 3069 C 315.119 1.89251 0.517551 0
M  V30 3070 O 314.244 1.65937 1.38903 0
M  V30 3071 C 314.839 2.92993 -1.7012 0
M  V30 3072 C 313.398 3.43832 -1.53156 0
M  V30 3073 C 312.545 2.1786 -1.71558 0
M  V30 3074 H 315.496 0.90229 -1.30554 0
M  V30 3075 H 315.517 3.62007 -1.17181 0
M  V30 3076 H 315.029 2.72596 -2.76248 0
M  V30 3077 H 313.13 3.69307 -0.494294 0
M  V30 3078 H 313.243 4.19747 -2.30975 0
M  V30 3079 H 311.607 2.2765 -1.14225 0
M  V30 3080 H 312.39 1.99956 -2.79056 0
M  V30 3081 N 314.835 0.952656 1.25548 0
M  V30 3082 C 316.251 0.656769 1.4546 0
M  V30 3083 C 316.451 -0.78633 1.85524 0
M  V30 3084 O 315.507 -1.56183 1.98402 0
M  V30 3085 C 316.82 1.62801 2.52817 0
M  V30 3086 C 318.368 1.63897 2.66659 0
M  V30 3087 C 318.843 2.5978 3.77198 0
M  V30 3088 N 320.334 2.58133 3.84606 0
M  V30 3089 C 321.069 3.29003 4.69621 0
M  V30 3090 N 320.565 4.09339 5.58939 0
M  V30 3091 N 322.358 3.179 4.63569 0
M  V30 3092 H 314.509 1.88526 0.978344 0
M  V30 3093 H 316.772 0.810815 0.491206 0
M  V30 3094 H 316.478 2.65869 2.30232 0
M  V30 3095 H 316.352 1.38898 3.50695 0
M  V30 3096 H 318.739 0.615481 2.8861 0
M  V30 3097 H 318.82 1.91858 1.69187 0
M  V30 3098 H 318.464 3.62254 3.55997 0
M  V30 3099 H 318.394 2.29105 4.7415 0
M  V30 3100 H 320.885 1.99809 3.20757 0
M  V30 3101 H 321.198 4.6034 6.20731 0
M  V30 3102 H 319.543 4.13438 5.58654 0
M  V30 3103 H 322.734 2.54612 3.92798 0
M  V30 3104 H 322.907 3.73398 5.29602 0
M  V30 3105 N 316.313 -1.40141 0.720998 0
M  V30 3106 C 317.538 -2.05618 0.271258 0
M  V30 3107 C 317.963 -1.53978 -1.08039 0
M  V30 3108 O 317.321 -0.677463 -1.68167 0
M  V30 3109 C 317.369 -3.59609 0.267197 0
M  V30 3110 O 316.473 -4.05526 -0.749814 0
M  V30 3111 H 315.814 -0.651904 0.126162 0
M  V30 3112 H 318.344 -1.79439 0.982997 0
M  V30 3113 H 318.354 -4.0786 0.106744 0
M  V30 3114 H 317.029 -3.96559 1.25354 0
M  V30 3115 H 315.606 -3.68722 -0.556644 0
M  V30 3116 N 317.792 -0.46758 -1.50504 0
M  V30 3117 C 319.038 0.0887532 -2.02606 0
M  V30 3118 C 319.371 1.39686 -1.34913 0
M  V30 3119 O 318.646 1.88644 -0.473694 0
M  V30 3120 C 318.929 0.276206 -3.59039 0
M  V30 3121 C 318.782 -1.05267 -4.37309 0
M  V30 3122 C 320.101 1.03235 -4.27821 0
M  V30 3123 H 317.22 0.0307814 -0.736357 0
M  V30 3124 H 319.862 -0.612485 -1.79857 0
M  V30 3125 H 318.012 0.8735 -3.78553 0
M  V30 3126 H 319.684 -1.68628 -4.29374 0
M  V30 3127 H 317.927 -1.65015 -4.01189 0
M  V30 3128 H 318.598 -0.875197 -5.45018 0
M  V30 3129 H 321.074 0.526111 -4.12761 0
M  V30 3130 H 319.95 1.1323 -5.37094 0
M  V30 3131 H 320.211 2.06806 -3.90748 0
M  V30 3132 N 319.27 1.56325 -0.20005 0
M  V30 3133 C 320.495 2.02548 0.44597 0
M  V30 3134 C 320.92 1.07922 1.5406 0
M  V30 3135 O 320.278 0.0635775 1.81188 0
M  V30 3136 C 320.326 3.47175 0.974761 0
M  V30 3137 O 319.43 3.55671 2.08739 0
M  V30 3138 H 318.771 0.655862 0.103638 0
M  V30 3139 H 321.301 2.02201 -0.312381 0
M  V30 3140 H 321.311 3.87067 1.2901 0
M  V30 3141 H 319.986 4.15538 0.17347 0
M  V30 3142 H 318.563 3.27657 1.78032 0
M  V30 3143 N 320.748 -0.0735177 1.57428 0
M  V30 3144 C 321.997 -0.771809 1.86349 0
M  V30 3145 C 322.31 -1.78828 0.792452 0
M  V30 3146 O 323.516 -2.53602 0.96945 0
M  V30 3147 C 321.972 -1.42358 3.30548 0
M  V30 3148 C 321.58 -0.445761 4.45777 0
M  V30 3149 C 323.324 -2.10434 3.6867 0
M  V30 3150 C 321.231 -1.10335 5.81016 0
M  V30 3151 H 320.161 -0.291999 0.695164 0
M  V30 3152 H 322.812 -0.0250749 1.83483 0
M  V30 3153 H 321.194 -2.21852 3.28021 0
M  V30 3154 H 322.368 0.319239 4.59693 0
M  V30 3155 H 320.683 0.130457 4.16196 0
M  V30 3156 H 323.28 -2.60405 4.67004 0
M  V30 3157 H 323.623 -2.90298 2.98383 0
M  V30 3158 H 324.156 -1.37773 3.7318 0
M  V30 3159 H 320.895 -0.345061 6.54591 0
M  V30 3160 H 320.415 -1.83925 5.70904 0
M  V30 3161 H 322.094 -1.62367 6.26295 0
M  V30 3162 N 322.226 -1.5378 -0.344866 0
M  V30 3163 C 323.642 -1.44015 -0.687888 0
M  V30 3164 C 323.842 -0.595834 -1.92489 0
M  V30 3165 O 322.898 -0.0863064 -2.52352 0
M  V30 3166 C 324.211 -2.87481 -0.881758 0
M  V30 3167 C 325.759 -2.97247 -0.980459 0
M  V30 3168 C 326.234 -4.41819 -1.20665 0
M  V30 3169 N 327.725 -4.45339 -1.27389 0
M  V30 3170 C 328.46 -5.54333 -1.46639 0
M  V30 3171 N 327.956 -6.73335 -1.63071 0
M  V30 3172 N 329.749 -5.41944 -1.49176 0
M  V30 3173 H 321.9 -2.07169 0.468475 0
M  V30 3174 H 324.163 -0.93643 0.147655 0
M  V30 3175 H 323.869 -3.51672 -0.0443444 0
M  V30 3176 H 323.743 -3.32352 -1.78388 0
M  V30 3177 H 326.13 -2.33197 -1.8084 0
M  V30 3178 H 326.211 -2.5574 -0.0552713 0
M  V30 3179 H 325.855 -5.06449 -0.383652 0
M  V30 3180 H 325.785 -4.80917 -2.14539 0
M  V30 3181 H 328.276 -3.59585 -1.1622 0
M  V30 3182 H 328.589 -7.52165 -1.77391 0
M  V30 3183 H 326.934 -6.76282 -1.60209 0
M  V30 3184 H 330.125 -4.47932 -1.3592 0
M  V30 3185 H 330.298 -6.26946 -1.63837 0
M  V30 3186 N 323.704 0.605807 -1.45491 0
M  V30 3187 C 325.12 0.926751 -1.29936 0
M  V30 3188 C 325.32 1.99896 -0.253706 0
M  V30 3189 O 324.376 2.50038 0.351737 0
M  V30 3190 C 325.689 1.36599 -2.67883 0
M  V30 3191 C 327.237 1.4801 -2.75793 0
M  V30 3192 C 327.712 1.95309 -4.14268 0
M  V30 3193 N 329.203 2.0254 -4.16571 0
M  V30 3194 C 329.938 2.40363 -5.20589 0
M  V30 3195 N 329.434 2.77143 -6.34952 0
M  V30 3196 N 331.227 2.40718 -5.07948 0
M  V30 3197 H 323.378 -0.102862 -2.12151 0
M  V30 3198 H 325.641 0.016639 -0.947854 0
M  V30 3199 H 325.347 0.652306 -3.45598 0
M  V30 3200 H 325.221 2.33215 -2.96463 0
M  V30 3201 H 327.608 2.1847 -1.98381 0
M  V30 3202 H 327.689 0.497041 -2.50925 0
M  V30 3203 H 327.333 1.25436 -4.92167 0
M  V30 3204 H 327.263 2.94532 -4.3653 0
M  V30 3205 H 329.754 1.76699 -3.34045 0
M  V30 3206 H 330.067 3.0489 -7.10114 0
M  V30 3207 H 328.412 2.74834 -6.3835 0
M  V30 3208 H 331.603 2.11392 -4.1765 0
M  V30 3209 H 331.776 2.69869 -5.89131 0
M  V30 3210 N 325.182 1.32811 0.848464 0
M  V30 3211 C 326.112 1.24882 1.97299 0
M  V30 3212 C 327.093 0.131357 1.69592 0
M  V30 3213 O 328.278 0.319553 1.91553 0
M  V30 3214 C 325.408 0.97746 3.33261 0
M  V30 3215 C 324.362 2.05682 3.75338 0
M  V30 3216 C 323.688 1.63777 5.09 0
M  V30 3217 C 324.988 3.47254 3.90144 0
M  V30 3218 H 326.682 2.18966 2.04191 0
M  V30 3219 H 324.228 1.05413 0.981029 0
M  V30 3220 H 326.181 0.908513 4.1149 0
M  V30 3221 H 324.905 0.000980011 3.266 0
M  V30 3222 H 323.564 2.11603 2.99366 0
M  V30 3223 H 323.212 0.648569 4.98801 0
M  V30 3224 H 322.912 2.36 5.38124 0
M  V30 3225 H 324.436 1.5833 5.89715 0
M  V30 3226 H 325.85 3.43888 4.58709 0
M  V30 3227 H 324.247 4.1788 4.30693 0
M  V30 3228 H 325.317 3.86462 2.92874 0
M  V30 3229 N 326.66 -1.06551 1.16123 0
M  V30 3230 C 327.607 -2.13961 0.865414 0
M  V30 3231 C 328.577 -1.65066 -0.185055 0
M  V30 3232 O 329.762 -1.90732 -0.05083 0
M  V30 3233 C 326.902 -3.43113 0.369776 0
M  V30 3234 C 326.015 -4.05756 1.48276 0
M  V30 3235 C 325.15 -5.22773 0.942414 0
M  V30 3236 C 324.189 -5.77395 2.03179 0
M  V30 3237 N 323.326 -6.85731 1.50721 0
M  V30 3238 H 328.166 -2.38605 1.78527 0
M  V30 3239 H 325.703 -1.17072 0.890646 0
M  V30 3240 H 327.661 -4.17151 0.0640643 0
M  V30 3241 H 326.291 -3.18695 -0.513143 0
M  V30 3242 H 325.343 -3.29292 1.9045 0
M  V30 3243 H 326.655 -4.42351 2.30493 0
M  V30 3244 H 325.809 -6.03827 0.589729 0
M  V30 3245 H 324.548 -4.87618 0.0895191 0
M  V30 3246 H 323.553 -4.94981 2.3932 0
M  V30 3247 H 324.778 -6.14603 2.8886 0
M  V30 3248 H 322.724 -6.52499 0.676811 0
M  V30 3249 H 322.641 -7.21254 2.26557 0
M  V30 3250 H 323.909 -7.7047 1.18303 0
M  V30 3251 N 328.138 -0.959301 -1.25041 0
M  V30 3252 C 329.101 -0.487677 -2.23952 0
M  V30 3253 C 330.101 0.41119 -1.55454 0
M  V30 3254 O 331.291 0.207825 -1.72956 0
M  V30 3255 C 328.423 0.294807 -3.39623 0
M  V30 3256 H 329.616 -1.36198 -2.67189 0
M  V30 3257 H 327.169 -0.743042 -1.37508 0
M  V30 3258 H 327.904 1.18658 -3.01813 0
M  V30 3259 H 327.689 -0.35012 -3.90534 0
M  V30 3260 H 329.179 0.614089 -4.1306 0
M  V30 3261 N 329.616 1.39756 -0.72842 0
M  V30 3262 C 330.893 1.94574 -0.200079 0
M  V30 3263 C 331.273 1.66569 1.29684 0
M  V30 3264 O 330.621 0.990326 2.05924 0
M  V30 3265 C 330.831 3.45004 -0.526608 0
M  V30 3266 C 332.179 4.21965 -0.472318 0
M  V30 3267 O 333.203 3.53173 -0.463413 0
M  V30 3268 O 332.062 5.44552 -0.461075 0
M  V30 3269 H 329.156 0.826289 -0.0342851 0
M  V30 3270 H 331.702 1.49293 -0.806829 0
M  V30 3271 H 330.474 3.58796 -1.56144 0
M  V30 3272 H 330.097 3.97449 0.109449 0
M  V30 3273 N 331.094 0.475555 1.50254 0
M  V30 3274 C 332.057 -0.305016 2.27161 0
M  V30 3275 C 333.057 -0.916519 1.32123 0
M  V30 3276 O 334.247 -0.785003 1.5551 0
M  V30 3277 C 331.379 -1.43496 3.09227 0
M  V30 3278 H 332.572 0.369511 2.97615 0
M  V30 3279 H 330.125 0.229747 1.54602 0
M  V30 3280 H 330.86 -2.14441 2.43281 0
M  V30 3281 H 330.645 -1.00223 3.79075 0
M  V30 3282 H 332.135 -1.98548 3.67381 0
M  V30 3283 N 332.573 -1.56217 0.208337 0
M  V30 3284 C 333.798 -2.02782 -0.435222 0
M  V30 3285 C 334.223 -1.08738 -1.53485 0
M  V30 3286 O 333.581 -0.0731855 -1.81152 0
M  V30 3287 C 333.629 -3.47687 -0.956335 0
M  V30 3288 O 332.733 -3.56773 -2.06849 0
M  V30 3289 H 332.074 -0.656403 -0.100158 0
M  V30 3290 H 334.604 -2.02033 0.3231 0
M  V30 3291 H 334.614 -3.87745 -1.26955 0
M  V30 3292 H 333.289 -4.15624 -0.15143 0
M  V30 3293 H 331.866 -3.28597 -1.76292 0
M  V30 3294 N 334.051 0.0651679 -1.57465 0
M  V30 3295 C 335.299 0.761555 -1.87202 0
M  V30 3296 C 335.62 1.77778 -0.801243 0
M  V30 3297 O 334.89 1.95166 0.16937 0
M  V30 3298 H 333.47 0.284251 -0.690804 0
M  V30 3299 H 336.132 0.0396827 -1.9486 0
M  V30 3300 H 335.228 1.27365 -2.84929 0
M  V30 3301 N 335.529 1.53961 0.336706 0
M  V30 3302 C 336.776 1.71536 1.07618 0
M  V30 3303 C 337.104 0.482125 1.8843 0
M  V30 3304 O 336.359 -0.536142 1.88213 0
M  V30 3305 C 336.658 2.93493 2.03953 0
M  V30 3306 C 336.324 4.28811 1.39399 0
M  V30 3307 C 334.986 4.65602 1.21523 0
M  V30 3308 C 337.338 5.12844 0.929541 0
M  V30 3309 C 334.666 5.84037 0.558312 0
M  V30 3310 C 337.018 6.31951 0.286505 0
M  V30 3311 C 335.682 6.67432 0.0954869 0
M  V30 3312 H 334.952 0.627696 0.393801 0
M  V30 3313 H 337.599 1.88186 0.354715 0
M  V30 3314 H 335.904 2.71475 2.82504 0
M  V30 3315 H 337.601 3.04285 2.61174 0
M  V30 3316 H 334.191 3.99858 1.54311 0
M  V30 3317 H 338.375 4.84947 1.05548 0
M  V30 3318 H 333.631 6.10097 0.398995 0
M  V30 3319 H 337.805 6.96352 -0.0814376 0
M  V30 3320 H 335.432 7.59063 -0.415579 0
M  V30 3321 N 337.007 -0.598083 1.45811 0
M  V30 3322 C 337.97 -1.69018 1.54808 0
M  V30 3323 C 338.97 -1.55037 0.426652 0
M  V30 3324 O 340.16 -1.59932 0.690456 0
M  V30 3325 C 337.292 -3.0835 1.45371 0
M  V30 3326 H 338.485 -1.62403 2.52121 0
M  V30 3327 H 336.038 -0.814626 1.33392 0
M  V30 3328 H 336.773 -3.20534 0.492793 0
M  V30 3329 H 336.558 -3.19907 2.26721 0
M  V30 3330 H 338.048 -3.8788 1.54721 0
M  V30 3331 N 338.485 -1.33259 -0.841409 0
M  V30 3332 C 339.896 -1.22066 -1.41269 0
M  V30 3333 C 340.247 0.161479 -1.95534 0
M  V30 3334 O 339.372 1.06094 -1.88608 0
M  V30 3335 C 339.967 -2.20996 -2.568 0
M  V30 3336 C 338.526 -2.13649 -3.09888 0
M  V30 3337 C 337.673 -2.08623 -1.82679 0
M  V30 3338 H 340.624 -1.44895 -0.647395 0
M  V30 3339 H 340.645 -1.81621 -3.34356 0
M  V30 3340 H 340.157 -3.2158 -2.17274 0
M  V30 3341 H 338.258 -1.16359 -3.53965 0
M  V30 3342 H 338.371 -3.04079 -3.70234 0
M  V30 3343 H 336.735 -1.54061 -2.02824 0
M  V30 3344 H 337.518 -3.1101 -1.45353 0
M  V30 3345 N 339.963 1.05934 -1.16686 0
M  V30 3346 C 341.211 1.78447 -0.948744 0
M  V30 3347 C 341.532 1.87813 0.524523 0
M  V30 3348 O 340.802 1.38945 1.38098 0
M  V30 3349 H 339.382 0.660971 -0.348033 0
M  V30 3350 H 342.044 1.27947 -1.47022 0
M  V30 3351 H 341.14 2.80394 -1.37061 0
M  V30 3352 N 341.441 0.965919 1.2453 0
M  V30 3353 C 342.688 0.626831 1.92554 0
M  V30 3354 C 343.016 -0.837739 1.75534 0
M  V30 3355 O 342.271 -1.61793 1.10098 0
M  V30 3356 C 342.57 0.945428 3.44669 0
M  V30 3357 C 342.236 2.39785 3.81856 0
M  V30 3358 C 340.898 2.79483 3.91718 0
M  V30 3359 C 343.25 3.34055 4.00071 0
M  V30 3360 C 340.578 4.12496 4.1721 0
M  V30 3361 C 342.93 4.66694 4.27059 0
M  V30 3362 C 341.594 5.06172 4.3514 0
M  V30 3363 H 340.864 0.229374 0.704605 0
M  V30 3364 H 343.511 1.21707 1.4785 0
M  V30 3365 H 341.816 0.272926 3.90848 0
M  V30 3366 H 343.513 0.661484 3.95507 0
M  V30 3367 H 340.103 2.08003 3.74743 0
M  V30 3368 H 344.287 3.04571 3.91855 0
M  V30 3369 H 339.543 4.42709 4.21685 0
M  V30 3370 H 343.717 5.3971 4.40097 0
M  V30 3371 H 341.344 6.09262 4.54646 0
M  V30 3372 N 342.919 -1.39368 0.735821 0
M  V30 3373 C 344.165 -2.00794 0.284544 0
M  V30 3374 C 344.498 -1.58255 -1.12557 0
M  V30 3375 O 343.773 -0.811819 -1.76748 0
M  V30 3376 C 344.056 -3.58011 0.387337 0
M  V30 3377 C 343.909 -4.10566 1.83728 0
M  V30 3378 C 345.228 -4.395 -0.22975 0
M  V30 3379 H 342.347 -0.729501 0.104866 0
M  V30 3380 H 344.989 -1.65564 0.93213 0
M  V30 3381 H 343.139 -3.88154 -0.164006 0
M  V30 3382 H 344.811 -3.91139 2.44556 0
M  V30 3383 H 343.054 -3.64095 2.35833 0
M  V30 3384 H 343.725 -5.19702 1.86047 0
M  V30 3385 H 346.201 -4.15406 0.240257 0
M  V30 3386 H 345.077 -5.48752 -0.127485 0
M  V30 3387 H 345.338 -4.22062 -1.3159 0
M  V30 3388 N 344.397 -0.483516 -1.5 0
M  V30 3389 C 345.36 0.292965 -2.2732 0
M  V30 3390 C 346.36 0.909499 -1.32608 0
M  V30 3391 O 347.55 0.776745 -1.55924 0
M  V30 3392 C 344.682 1.41854 -3.09984 0
M  V30 3393 H 345.875 -0.385289 -2.97415 0
M  V30 3394 H 343.428 -0.237942 -1.54478 0
M  V30 3395 H 344.163 2.13148 -2.44414 0
M  V30 3396 H 343.948 0.982114 -3.79601 0
M  V30 3397 H 345.438 1.96597 -3.68429 0
M  V30 3398 N 345.875 1.56104 -0.216619 0
M  V30 3399 C 346.805 2.23063 0.690296 0
M  V30 3400 C 347.786 1.20072 1.20485 0
M  V30 3401 O 348.971 1.48643 1.24976 0
M  V30 3402 C 346.101 2.90672 1.90072 0
M  V30 3403 C 345.055 4.00092 1.5202 0
M  V30 3404 C 344.381 4.54972 2.80899 0
M  V30 3405 C 345.681 5.17398 0.71391 0
M  V30 3406 H 347.375 2.99109 0.132038 0
M  V30 3407 H 344.921 1.43866 0.0620664 0
M  V30 3408 H 346.874 3.36204 2.54057 0
M  V30 3409 H 345.598 2.12066 2.48386 0
M  V30 3410 H 344.257 3.55283 0.903839 0
M  V30 3411 H 343.905 3.73102 3.37348 0
M  V30 3412 H 343.605 5.28817 2.56176 0
M  V30 3413 H 345.129 5.0322 3.45836 0
M  V30 3414 H 346.543 5.59342 1.25735 0
M  V30 3415 H 344.94 5.97444 0.563951 0
M  V30 3416 H 346.01 4.84088 -0.280527 0
M  V30 3417 N 347.353 -0.0568162 1.57498 0
M  V30 3418 C 348.578 -0.769402 1.92601 0
M  V30 3419 C 349.003 -1.69559 0.814336 0
M  V30 3420 O 348.361 -1.79811 -0.231903 0
M  V30 3421 C 348.409 -1.52634 3.26704 0
M  V30 3422 O 347.513 -2.63797 3.16994 0
M  V30 3423 H 346.854 -0.208909 0.63028 0
M  V30 3424 H 349.384 -0.0205798 2.0459 0
M  V30 3425 H 349.394 -1.90234 3.60936 0
M  V30 3426 H 348.069 -0.846875 4.07186 0
M  V30 3427 H 346.646 -2.28943 2.94346 0
M  V30 3428 N 348.832 -1.54138 -0.328536 0
M  V30 3429 C 350.078 -1.7236 -1.06865 0
M  V30 3430 C 350.411 -0.493231 -1.87832 0
M  V30 3431 O 349.686 0.5098 -1.877 0
M  V30 3432 C 349.969 -2.99621 -1.99747 0
M  V30 3433 C 349.822 -4.32899 -1.22143 0
M  V30 3434 C 351.141 -3.22615 -2.99345 0
M  V30 3435 H 348.26 -0.627151 -0.387105 0
M  V30 3436 H 350.902 -1.86827 -0.345767 0
M  V30 3437 H 349.052 -2.87418 -2.61387 0
M  V30 3438 H 350.724 -4.56978 -0.630017 0
M  V30 3439 H 348.967 -4.30628 -0.523628 0
M  V30 3440 H 349.638 -5.18154 -1.90318 0
M  V30 3441 H 352.114 -3.34248 -2.47826 0
M  V30 3442 H 350.99 -4.13027 -3.61524 0
M  V30 3443 H 351.251 -2.3961 -3.71536 0
M  V30 3444 N 350.31 0.590341 -1.46126 0
M  V30 3445 C 351.24 1.71032 -1.58966 0
M  V30 3446 C 352.221 1.64302 -0.440335 0
M  V30 3447 O 353.406 1.82436 -0.665634 0
M  V30 3448 C 350.536 3.09665 -1.57241 0
M  V30 3449 C 349.49 3.31221 -2.71066 0
M  V30 3450 C 348.816 4.70303 -2.54399 0
M  V30 3451 C 350.116 3.19796 -4.1295 0
M  V30 3452 H 351.81 1.60543 -2.52718 0
M  V30 3453 H 349.356 0.770933 -1.21625 0
M  V30 3454 H 351.309 3.87831 -1.64819 0
M  V30 3455 H 350.033 3.21036 -0.600289 0
M  V30 3456 H 348.692 2.55452 -2.62944 0
M  V30 3457 H 348.34 4.78429 -1.55288 0
M  V30 3458 H 348.04 4.85679 -3.30741 0
M  V30 3459 H 349.564 5.50647 -2.63857 0
M  V30 3460 H 350.978 3.87815 -4.22223 0
M  V30 3461 H 349.375 3.46696 -4.89818 0
M  V30 3462 H 350.445 2.16983 -4.33643 0
M  V30 3463 N 351.788 1.33704 0.83433 0
M  V30 3464 C 353.199 1.22813 1.4062 0
M  V30 3465 C 353.55 -0.151107 1.95617 0
M  V30 3466 O 352.675 -1.05092 1.89168 0
M  V30 3467 C 353.27 2.22355 2.55624 0
M  V30 3468 C 351.829 2.1529 3.08751 0
M  V30 3469 C 350.976 2.09589 1.8157 0
M  V30 3470 H 353.927 1.45236 0.639702 0
M  V30 3471 H 353.948 1.83391 3.33389 0
M  V30 3472 H 353.46 3.22728 2.15566 0
M  V30 3473 H 351.561 1.18235 3.53343 0
M  V30 3474 H 351.674 3.06038 3.68616 0
M  V30 3475 H 350.038 1.55134 2.02004 0
M  V30 3476 H 350.821 3.11777 1.43701 0
M  V30 3477 N 353.266 -1.05314 1.17247 0
M  V30 3478 C 354.213 -2.13031 0.888058 0
M  V30 3479 C 355.183 -1.65253 -0.167537 0
M  V30 3480 O 356.368 -1.90775 -0.0305974 0
M  V30 3481 C 353.508 -3.42702 0.406147 0
M  V30 3482 C 352.621 -4.04161 1.52572 0
M  V30 3483 C 351.756 -5.21744 0.997808 0
M  V30 3484 C 350.795 -5.75207 2.09291 0
M  V30 3485 N 349.932 -6.84094 1.57986 0
M  V30 3486 H 354.772 -2.36698 1.81048 0
M  V30 3487 H 352.309 -1.16121 0.903013 0
M  V30 3488 H 354.267 -4.17059 0.108305 0
M  V30 3489 H 352.897 -3.19222 -0.479313 0
M  V30 3490 H 351.949 -3.27253 1.93931 0
M  V30 3491 H 353.261 -4.39881 2.35172 0
M  V30 3492 H 352.415 -6.03168 0.653739 0
M  V30 3493 H 351.154 -4.87495 0.141232 0
M  V30 3494 H 350.159 -4.92414 2.44557 0
M  V30 3495 H 351.384 -6.11505 2.95362 0
M  V30 3496 H 349.33 -6.51745 0.74598 0
M  V30 3497 H 349.247 -7.18811 2.34195 0
M  V30 3498 H 350.515 -7.69172 1.26468 0
M  V30 3499 N 354.744 -0.972509 -1.24016 0
M  V30 3500 C 355.694 -0.477561 -2.22942 0
M  V30 3501 C 356.678 0.44308 -1.54679 0
M  V30 3502 O 357.87 0.273219 -1.74879 0
M  V30 3503 C 354.999 0.226348 -3.42553 0
M  V30 3504 C 354.085 -0.713403 -4.18057 0
M  V30 3505 N 354.476 -1.8527 -4.70647 0
M  V30 3506 C 352.774 -0.525145 -4.42898 0
M  V30 3507 C 353.475 -2.44089 -5.28011 0
M  V30 3508 N 352.451 -1.72556 -5.15486 0
M  V30 3509 H 356.253 -1.34678 -2.61226 0
M  V30 3510 H 353.767 -0.832196 -1.39457 0
M  V30 3511 H 355.764 0.598184 -4.12586 0
M  V30 3512 H 354.424 1.09195 -3.05788 0
M  V30 3513 H 355.435 -2.2341 -4.67235 0
M  V30 3514 H 352.112 0.296096 -4.16449 0
M  V30 3515 H 353.502 -3.40259 -5.79374 0
M  V30 3516 N 356.222 1.38976 -0.743202 0
M  V30 3517 C 357.152 2.33171 -0.123873 0
M  V30 3518 C 358.133 1.54336 0.71516 0
M  V30 3519 O 359.318 1.82696 0.658467 0
M  V30 3520 C 356.448 3.38474 0.777978 0
M  V30 3521 C 355.402 4.27979 0.0424758 0
M  V30 3522 C 354.728 5.2405 1.06189 0
M  V30 3523 C 356.028 5.10155 -1.1198 0
M  V30 3524 H 357.722 2.85213 -0.910709 0
M  V30 3525 H 355.268 1.37133 -0.439388 0
M  V30 3526 H 357.221 4.03328 1.22084 0
M  V30 3527 H 355.945 2.84891 1.59702 0
M  V30 3528 H 354.604 3.64616 -0.380853 0
M  V30 3529 H 354.252 4.66758 1.87472 0
M  V30 3530 H 353.952 5.84785 0.574485 0
M  V30 3531 H 355.476 5.9178 1.50428 0
M  V30 3532 H 356.89 5.68307 -0.75499 0
M  V30 3533 H 355.287 5.80073 -1.53738 0
M  V30 3534 H 356.357 4.44504 -1.93764 0
M  V30 3535 N 357.7 0.491464 1.49741 0
M  V30 3536 C 358.946 -0.0565092 2.02721 0
M  V30 3537 C 359.279 -1.37522 1.37118 0
M  V30 3538 O 358.554 -1.87866 0.503645 0
M  V30 3539 C 358.837 -0.219051 3.59433 0
M  V30 3540 C 358.69 1.12211 4.35579 0
M  V30 3541 C 360.009 -0.964157 4.29409 0
M  V30 3542 H 357.128 -0.0190627 0.736753 0
M  V30 3543 H 359.77 0.641021 1.7886 0
M  V30 3544 H 357.92 -0.813165 3.79895 0
M  V30 3545 H 359.592 1.75437 4.26637 0
M  V30 3546 H 357.835 1.71377 3.98513 0
M  V30 3547 H 358.506 0.961794 5.43556 0
M  V30 3548 H 360.982 -0.460378 4.13545 0
M  V30 3549 H 359.858 -1.04671 5.38828 0
M  V30 3550 H 360.119 -2.00563 3.93988 0
M  V30 3551 N 359.178 -1.55987 0.224894 0
M  V30 3552 C 360.403 -2.03232 -0.41369 0
M  V30 3553 C 360.828 -1.10359 -1.52323 0
M  V30 3554 O 360.186 -0.092395 -1.81064 0
M  V30 3555 C 360.234 -3.48682 -0.919405 0
M  V30 3556 O 359.338 -3.58947 -2.03054 0
M  V30 3557 H 358.679 -0.657428 -0.0931903 0
M  V30 3558 H 361.209 -2.01679 0.34451 0
M  V30 3559 H 361.219 -3.8907 -1.22835 0
M  V30 3560 H 359.894 -4.15761 -0.107339 0
M  V30 3561 H 358.471 -3.30448 -1.72796 0
M  V30 3562 N 360.656 0.0484629 -1.57525 0
M  V30 3563 C 361.886 0.754326 -1.92337 0
M  V30 3564 C 362.294 1.70443 -0.82132 0
M  V30 3565 O 361.637 1.82466 0.21254 0
M  V30 3566 C 361.699 1.58231 -3.22805 0
M  V30 3567 C 361.363 0.799074 -4.4996 0
M  V30 3568 C 362.36 0.1079 -5.19788 0
M  V30 3569 C 360.045 0.759345 -4.96527 0
M  V30 3570 C 362.039 -0.612516 -6.3445 0
M  V30 3571 C 359.726 0.0351713 -6.1109 0
M  V30 3572 C 360.724 -0.649537 -6.79904 0
M  V30 3573 O 360.412 -1.36199 -7.92278 0
M  V30 3574 H 360.144 0.218257 -0.639797 0
M  V30 3575 H 362.698 0.0159295 -2.05394 0
M  V30 3576 H 360.928 2.36406 -3.06021 0
M  V30 3577 H 362.617 2.16898 -3.43089 0
M  V30 3578 H 363.383 0.129748 -4.84826 0
M  V30 3579 H 359.262 1.28177 -4.42822 0
M  V30 3580 H 362.806 -1.14751 -6.88097 0
M  V30 3581 H 358.703 0.0113314 -6.45499 0
M  V30 3582 H 359.471 -1.27366 -8.0853 0
M  V30 3583 N 362.134 1.5431 0.320358 0
M  V30 3584 C 363.359 1.76954 1.08175 0
M  V30 3585 C 363.784 0.518193 1.80821 0
M  V30 3586 O 363.142 -0.530411 1.73368 0
M  V30 3587 C 363.19 2.96451 2.05303 0
M  V30 3588 O 362.294 2.68221 3.13259 0
M  V30 3589 H 361.635 0.586275 0.311733 0
M  V30 3590 H 364.165 2.01342 0.363676 0
M  V30 3591 H 364.175 3.23887 2.48116 0
M  V30 3592 H 362.85 3.87196 1.51829 0
M  V30 3593 H 361.427 2.51744 2.75099 0
M  V30 3594 N 363.613 -0.582584 1.46437 0
M  V30 3595 C 364.862 -1.337 1.5102 0
M  V30 3596 C 365.175 -1.94891 0.166359 0
M  V30 3597 O 366.381 -2.71351 0.0899954 0
M  V30 3598 C 364.837 -2.42315 2.66104 0
M  V30 3599 C 364.445 -1.87427 4.06909 0
M  V30 3600 C 366.189 -3.19099 2.79958 0
M  V30 3601 C 364.096 -2.93672 5.13333 0
M  V30 3602 H 363.026 -0.502619 0.562041 0
M  V30 3603 H 365.677 -0.621701 1.72647 0
M  V30 3604 H 364.059 -3.16645 2.37807 0
M  V30 3605 H 365.233 -1.19639 4.44998 0
M  V30 3606 H 363.548 -1.2331 3.97723 0
M  V30 3607 H 366.145 -3.9839 3.56636 0
M  V30 3608 H 366.488 -3.71695 1.87479 0
M  V30 3609 H 367.021 -2.51875 3.07902 0
M  V30 3610 H 363.76 -2.45962 6.07604 0
M  V30 3611 H 363.28 -3.59948 4.79789 0
M  V30 3612 H 364.959 -3.5762 5.39182 0
M  V30 3613 N 365.091 -1.34144 -0.827227 0
M  V30 3614 C 366.001 -1.27428 -1.96975 0
M  V30 3615 C 367.017 -0.182728 -1.73038 0
M  V30 3616 O 368.193 -0.408426 -1.97215 0
M  V30 3617 C 365.258 -1.02526 -3.31194 0
M  V30 3618 C 364.319 -2.20796 -3.68168 0
M  V30 3619 C 363.552 -1.97073 -4.95982 0
M  V30 3620 O 363.775 -0.926822 -5.6282 0
M  V30 3621 O 362.709 -2.83912 -5.30733 0
M  V30 3622 H 366.535 -2.23537 -2.05584 0
M  V30 3623 H 364.12 -1.14307 -0.961989 0
M  V30 3624 H 366.002 -0.904026 -4.11589 0
M  V30 3625 H 364.677 -0.0945389 -3.23562 0
M  V30 3626 H 363.584 -2.38477 -2.88235 0
M  V30 3627 H 364.917 -3.12243 -3.8048 0
M  V30 3628 N 366.569 1.04691 -1.17803 0
M  V30 3629 C 367.799 1.81183 -0.992788 0
M  V30 3630 C 368.207 1.8347 0.462098 0
M  V30 3631 O 367.55 1.2643 1.33271 0
M  V30 3632 C 367.612 3.28363 -1.46349 0
M  V30 3633 C 367.276 3.49749 -2.94151 0
M  V30 3634 C 368.273 3.41456 -3.92051 0
M  V30 3635 C 365.958 3.76548 -3.32441 0
M  V30 3636 C 367.952 3.59656 -5.26238 0
M  V30 3637 C 365.639 3.94396 -4.66792 0
M  V30 3638 C 366.637 3.8595 -5.635 0
M  V30 3639 O 366.325 4.03294 -6.9542 0
M  V30 3640 H 366.057 0.577622 -0.351182 0
M  V30 3641 H 368.611 1.32876 -1.5663 0
M  V30 3642 H 366.841 3.77609 -0.833574 0
M  V30 3643 H 368.53 3.86395 -1.24313 0
M  V30 3644 H 369.296 3.20723 -3.63815 0
M  V30 3645 H 365.175 3.82224 -2.57732 0
M  V30 3646 H 368.719 3.52979 -6.01707 0
M  V30 3647 H 364.616 4.14622 -4.94731 0
M  V30 3648 H 365.384 4.2049 -7.02232 0
M  V30 3649 N 368.047 0.979072 1.23499 0
M  V30 3650 C 369.293 0.648178 1.92163 0
M  V30 3651 C 369.626 -0.816049 1.76222 0
M  V30 3652 O 368.901 -1.58849 1.12237 0
M  V30 3653 C 369.184 1.03773 3.44824 0
M  V30 3654 C 369.037 2.55948 3.69879 0
M  V30 3655 C 370.356 0.580653 4.36253 0
M  V30 3656 H 367.475 0.236952 0.69787 0
M  V30 3657 H 370.117 1.22012 1.45647 0
M  V30 3658 H 368.267 0.551058 3.84572 0
M  V30 3659 H 369.939 3.12179 3.3962 0
M  V30 3660 H 368.182 2.98641 3.14636 0
M  V30 3661 H 368.853 2.78255 4.76737 0
M  V30 3662 H 371.329 0.998465 4.03943 0
M  V30 3663 H 370.205 0.881663 5.41773 0
M  V30 3664 H 370.466 -0.519052 4.39042 0
M  V30 3665 N 369.525 -1.3858 0.750561 0
M  V30 3666 C 370.475 -2.27795 0.0965949 0
M  V30 3667 C 371.459 -1.45048 -0.696411 0
M  V30 3668 O 372.651 -1.67812 -0.562863 0
M  V30 3669 C 369.78 -3.33894 -0.798085 0
M  V30 3670 C 368.866 -4.241 0.0016067 0
M  V30 3671 N 369.257 -4.95067 1.03647 0
M  V30 3672 C 367.555 -4.45429 -0.225674 0
M  V30 3673 C 368.256 -5.61489 1.52004 0
M  V30 3674 N 367.232 -5.37135 0.835874 0
M  V30 3675 H 371.034 -2.80125 0.889228 0
M  V30 3676 H 368.548 -1.51446 0.586323 0
M  V30 3677 H 370.545 -3.96693 -1.28219 0
M  V30 3678 H 369.205 -2.83123 -1.5897 0
M  V30 3679 H 370.216 -4.98104 1.41819 0
M  V30 3680 H 366.893 -4.05571 -0.990872 0
M  V30 3681 H 368.283 -6.28264 2.38188 0
M  V30 3682 N 371.003 -0.499398 -1.49478 0
M  V30 3683 C 372.228 0.044722 -2.07352 0
M  V30 3684 C 372.653 1.30207 -1.35749 0
M  V30 3685 O 372.011 1.76516 -0.413732 0
M  V30 3686 C 372.059 0.283013 -3.59488 0
M  V30 3687 O 371.163 1.35804 -3.89398 0
M  V30 3688 H 370.504 -0.0255147 -0.66351 0
M  V30 3689 H 373.034 -0.698561 -1.92305 0
M  V30 3690 H 373.044 0.515007 -4.04737 0
M  V30 3691 H 371.719 -0.635636 -4.11014 0
M  V30 3692 H 370.296 1.11113 -3.55961 0
M  V30 3693 N 372.481 1.55866 -0.233164 0
M  V30 3694 C 373.728 1.98603 0.395374 0
M  V30 3695 C 374.056 1.12105 1.58942 0
M  V30 3696 O 373.311 0.168656 1.94972 0
M  V30 3697 C 373.61 3.46856 0.861724 0
M  V30 3698 C 373.276 4.50348 -0.223066 0
M  V30 3699 C 371.938 4.78371 -0.521038 0
M  V30 3700 C 374.29 5.12355 -0.956124 0
M  V30 3701 C 371.618 5.6568 -1.55638 0
M  V30 3702 C 373.97 6.00786 -1.98089 0
M  V30 3703 C 372.634 6.27148 -2.28565 0
M  V30 3704 H 371.904 0.726739 0.144677 0
M  V30 3705 H 374.551 1.88491 -0.338114 0
M  V30 3706 H 372.856 3.5423 1.67418 0
M  V30 3707 H 374.553 3.77302 1.35809 0
M  V30 3708 H 371.143 4.28596 0.0193234 0
M  V30 3709 H 375.327 4.90765 -0.739166 0
M  V30 3710 H 370.583 5.84365 -1.798 0
M  V30 3711 H 374.757 6.4788 -2.55391 0
M  V30 3712 H 372.384 6.94597 -3.08932 0
M  V30 3713 N 373.959 -0.0401083 1.57549 0
M  V30 3714 C 374.909 -1.05175 2.02292 0
M  V30 3715 C 375.893 -1.32674 0.910294 0
M  V30 3716 O 377.085 -1.32444 1.17421 0
M  V30 3717 C 374.214 -2.35622 2.49674 0
M  V30 3718 C 373.3 -2.11261 3.67736 0
M  V30 3719 N 373.691 -1.56923 4.80842 0
M  V30 3720 C 371.989 -2.41596 3.74897 0
M  V30 3721 C 372.69 -1.48111 5.62528 0
M  V30 3722 N 371.666 -1.95282 5.07312 0
M  V30 3723 H 375.468 -0.625455 2.87168 0
M  V30 3724 H 372.982 -0.246624 1.60516 0
M  V30 3725 H 374.979 -3.08893 2.79983 0
M  V30 3726 H 373.639 -2.7894 1.662 0
M  V30 3727 H 374.65 -1.25345 5.02503 0
M  V30 3728 H 371.327 -2.88064 3.02201 0
M  V30 3729 H 372.717 -1.06683 6.63377 0
M  V30 3730 N 375.437 -1.54477 -0.31217 0
M  V30 3731 C 376.665 -1.77205 -1.068 0
M  V30 3732 C 377.08 -0.526114 -1.81321 0
M  V30 3733 O 376.437 0.503647 -1.75413 0
M  V30 3734 C 376.488 -2.97253 -2.05725 0
M  V30 3735 O 376.209 -4.1703 -1.34228 0
M  V30 3736 C 377.71 -3.32281 -2.93435 0
M  V30 3737 H 374.93 -0.591287 -0.317208 0
M  V30 3738 H 377.474 -2.01398 -0.354834 0
M  V30 3739 H 375.629 -2.753 -2.72559 0
M  V30 3740 H 376.043 -4.84636 -2.00571 0
M  V30 3741 H 377.517 -4.19551 -3.58721 0
M  V30 3742 H 377.994 -2.49945 -3.61143 0
M  V30 3743 H 378.6 -3.56353 -2.32147 0
M  V30 3744 N 376.915 0.57481 -1.46744 0
M  V30 3745 C 378.163 1.33009 -1.52161 0
M  V30 3746 C 378.484 1.94185 -0.178092 0
M  V30 3747 O 377.754 1.7899 0.796196 0
M  V30 3748 H 376.334 0.493873 -0.560445 0
M  V30 3749 H 378.996 0.672589 -1.82927 0
M  V30 3750 H 378.092 2.13273 -2.27862 0
M  V30 3751 N 378.394 1.34581 0.820102 0
M  V30 3752 C 379.357 1.2628 1.91275 0
M  V30 3753 C 380.357 0.177344 1.59819 0
M  V30 3754 O 381.547 0.430156 1.68806 0
M  V30 3755 C 378.679 0.950327 3.27386 0
M  V30 3756 H 379.872 2.23421 2.00057 0
M  V30 3757 H 377.425 1.1891 1.0144 0
M  V30 3758 H 378.16 -0.0177938 3.24295 0
M  V30 3759 H 377.945 1.73549 3.51601 0
M  V30 3760 H 379.435 0.917492 4.07396 0
M  V30 3761 N 379.872 -1.04064 1.18357 0
M  V30 3762 C 381.119 -1.77265 0.978947 0
M  V30 3763 C 381.447 -1.88189 -0.491428 0
M  V30 3764 O 380.702 -1.38653 -1.38108 0
M  V30 3765 C 381.001 -3.20634 1.57888 0
M  V30 3766 C 380.667 -3.29743 3.07539 0
M  V30 3767 C 379.329 -3.31937 3.48384 0
M  V30 3768 C 381.681 -3.29841 4.03552 0
M  V30 3769 C 379.009 -3.3187 4.83818 0
M  V30 3770 C 381.361 -3.31313 5.38901 0
M  V30 3771 C 380.025 -3.31799 5.79194 0
M  V30 3772 H 379.295 -0.648659 0.358222 0
M  V30 3773 H 381.942 -1.22225 1.47422 0
M  V30 3774 H 380.247 -3.78675 1.00561 0
M  V30 3775 H 381.944 -3.75917 1.39598 0
M  V30 3776 H 378.534 -3.28757 2.74986 0
M  V30 3777 H 382.718 -3.27337 3.73047 0
M  V30 3778 H 377.974 -3.30562 5.14333 0
M  V30 3779 H 382.148 -3.30338 6.13066 0
M  V30 3780 H 379.775 -3.315 6.84114 0
M  V30 3781 N 381.35 -0.985608 -1.22978 0
M  V30 3782 C 382.596 -0.65836 -1.91816 0
M  V30 3783 C 382.929 0.806692 -1.76653 0
M  V30 3784 O 382.204 1.58252 -1.13078 0
M  V30 3785 C 382.487 -1.056 -3.44268 0
M  V30 3786 C 382.34 -2.57906 -3.68516 0
M  V30 3787 C 383.659 -0.603781 -4.35939 0
M  V30 3788 H 380.778 -0.24065 -0.696604 0
M  V30 3789 H 383.42 -1.22783 -1.44998 0
M  V30 3790 H 381.57 -0.571445 -3.84274 0
M  V30 3791 H 383.242 -3.13976 -3.3796 0
M  V30 3792 H 381.485 -3.00305 -3.13048 0
M  V30 3793 H 382.156 -2.80779 -4.75255 0
M  V30 3794 H 384.632 -1.01987 -4.03408 0
M  V30 3795 H 383.508 -0.910383 -5.41298 0
M  V30 3796 H 383.769 0.495761 -4.39312 0
M  V30 3797 N 382.828 1.3818 -0.7579 0
M  V30 3798 C 384.058 2.04004 -0.326463 0
M  V30 3799 C 384.466 1.57286 1.05156 0
M  V30 3800 O 383.809 0.743144 1.67997 0
M  V30 3801 C 383.871 3.58444 -0.275402 0
M  V30 3802 C 383.535 4.28237 -1.59569 0
M  V30 3803 C 384.532 4.53312 -2.54566 0
M  V30 3804 C 382.217 4.66341 -1.86631 0
M  V30 3805 C 384.211 5.15531 -3.74842 0
M  V30 3806 C 381.898 5.28283 -3.0718 0
M  V30 3807 C 382.896 5.52814 -4.01106 0
M  V30 3808 O 382.584 6.13465 -5.19534 0
M  V30 3809 H 382.316 0.662026 -0.136739 0
M  V30 3810 H 384.87 1.7777 -1.02893 0
M  V30 3811 H 383.1 3.83667 0.483337 0
M  V30 3812 H 384.789 4.05701 0.127099 0
M  V30 3813 H 385.555 4.24299 -2.34936 0
M  V30 3814 H 381.434 4.46591 -1.14358 0
M  V30 3815 H 384.978 5.34594 -4.48168 0
M  V30 3816 H 380.875 5.56719 -3.26702 0
M  V30 3817 H 381.643 6.31951 -5.20173 0
M  V30 3818 N 384.306 0.507319 1.49211 0
M  V30 3819 C 385.553 -0.0349529 2.0247 0
M  V30 3820 C 385.881 -1.36409 1.38647 0
M  V30 3821 O 385.136 -1.88841 0.513566 0
M  V30 3822 C 385.435 -0.229513 3.56662 0
M  V30 3823 C 385.101 1.02241 4.39156 0
M  V30 3824 C 383.763 1.36557 4.61417 0
M  V30 3825 C 386.115 1.85428 4.871 0
M  V30 3826 C 383.443 2.53999 5.28868 0
M  V30 3827 C 385.795 3.02028 5.55843 0
M  V30 3828 C 384.459 3.36717 5.76349 0
M  V30 3829 H 383.729 -0.0127902 0.74089 0
M  V30 3830 H 386.376 0.668756 1.79443 0
M  V30 3831 H 384.681 -1.0158 3.78403 0
M  V30 3832 H 386.378 -0.663641 3.9547 0
M  V30 3833 H 382.968 0.745124 4.22073 0
M  V30 3834 H 387.152 1.6023 4.69723 0
M  V30 3835 H 382.408 2.81105 5.42946 0
M  V30 3836 H 386.582 3.66808 5.91967 0
M  V30 3837 H 384.209 4.27821 6.28389 0
M  V30 3838 N 385.784 -1.5574 0.241426 0
M  V30 3839 C 386.714 -2.24133 -0.654722 0
M  V30 3840 C 387.695 -1.21974 -1.1856 0
M  V30 3841 O 388.88 -1.50612 -1.22595 0
M  V30 3842 C 386.01 -2.93659 -1.85423 0
M  V30 3843 C 384.964 -4.0246 -1.45636 0
M  V30 3844 C 384.29 -4.59383 -2.73626 0
M  V30 3845 C 385.59 -5.18468 -0.631506 0
M  V30 3846 H 387.284 -2.99281 -0.0844353 0
M  V30 3847 H 384.83 -1.43947 -0.0391707 0
M  V30 3848 H 386.783 -3.40203 -2.48676 0
M  V30 3849 H 385.507 -2.15991 -2.44981 0
M  V30 3850 H 384.166 -3.56676 -0.847202 0
M  V30 3851 H 383.814 -3.78422 -3.3137 0
M  V30 3852 H 383.514 -5.32826 -2.4773 0
M  V30 3853 H 385.038 -5.08658 -3.37786 0
M  V30 3854 H 386.452 -5.61272 -1.1682 0
M  V30 3855 H 384.849 -5.98266 -0.468831 0
M  V30 3856 H 385.919 -4.8358 0.357506 0
M  V30 3857 N 387.262 0.0317525 -1.57568 0
M  V30 3858 C 388.49 0.734949 -1.93407 0
M  V30 3859 C 388.905 1.69036 -0.84096 0
M  V30 3860 O 388.262 1.81582 0.182836 0
M  V30 3861 C 388.313 1.49432 -3.29169 0
M  V30 3862 O 388.034 0.577261 -4.3428 0
M  V30 3863 C 389.535 2.29492 -3.79273 0
M  V30 3864 H 386.755 0.206706 -0.638368 0
M  V30 3865 H 389.299 -0.00992046 -2.04498 0
M  V30 3866 H 387.454 2.1911 -3.19483 0
M  V30 3867 H 387.868 1.10952 -5.1263 0
M  V30 3868 H 389.342 2.78172 -4.76785 0
M  V30 3869 H 389.819 3.10794 -3.10328 0
M  V30 3870 H 390.425 1.64894 -3.92033 0
M  V30 3871 N 388.74 1.54641 0.303973 0
M  V30 3872 C 389.986 1.74038 1.04109 0
M  V30 3873 C 390.319 0.523051 1.87024 0
M  V30 3874 O 389.594 -0.479874 1.88487 0
M  V30 3875 C 389.877 3.02761 1.94955 0
M  V30 3876 C 389.73 4.34787 1.1524 0
M  V30 3877 C 391.049 3.27336 2.94175 0
M  V30 3878 H 388.168 0.63323 0.377079 0
M  V30 3879 H 390.81 1.87354 0.316001 0
M  V30 3880 H 388.96 2.9154 2.56782 0
M  V30 3881 H 390.632 4.57922 0.557236 0
M  V30 3882 H 388.875 4.31407 0.455053 0
M  V30 3883 H 389.546 5.21116 1.8205 0
M  V30 3884 H 392.022 3.38148 2.42477 0
M  V30 3885 H 390.898 4.18726 3.54908 0
M  V30 3886 H 391.159 2.45491 3.67677 0
M  V30 3887 N 390.218 -0.567019 1.47046 0
M  V30 3888 C 391.15 -1.68985 1.54844 0
M  V30 3889 C 392.163 -1.56869 0.435431 0
M  V30 3890 O 393.352 -1.64006 0.70457 0
M  V30 3891 C 390.452 -3.07373 1.42742 0
M  V30 3892 C 389.625 -3.45339 2.6844 0
M  V30 3893 C 388.684 -4.62849 2.50314 0
M  V30 3894 O 387.71 -4.67922 3.24095 0
M  V30 3895 N 388.912 -5.58726 1.57499 0
M  V30 3896 H 391.677 -1.62745 2.51663 0
M  V30 3897 H 389.238 -0.753411 1.43302 0
M  V30 3898 H 391.23 -3.83803 1.28365 0
M  V30 3899 H 389.8 -3.07893 0.540445 0
M  V30 3900 H 389.02 -2.58455 2.97648 0
M  V30 3901 H 390.308 -3.67476 3.51907 0
M  V30 3902 H 389.706 -5.57376 0.966876 0
M  V30 3903 H 388.263 -6.34523 1.49078 0
M  V30 3904 N 391.696 -1.35014 -0.812953 0
M  V30 3905 C 393.107 -1.25035 -1.38648 0
M  V30 3906 C 393.458 0.119967 -1.95833 0
M  V30 3907 O 392.583 1.02069 -1.90816 0
M  V30 3908 C 393.178 -2.26394 -2.52054 0
M  V30 3909 C 391.737 -2.20175 -3.05287 0
M  V30 3910 C 390.884 -2.12451 -1.78213 0
M  V30 3911 H 393.835 -1.46235 -0.616516 0
M  V30 3912 H 393.856 -1.88672 -3.30429 0
M  V30 3913 H 393.368 -3.26116 -2.10404 0
M  V30 3914 H 391.469 -1.23841 -3.51417 0
M  V30 3915 H 391.582 -3.11863 -3.63701 0
M  V30 3916 H 389.946 -1.58328 -1.9951 0
M  V30 3917 H 390.729 -3.14024 -1.38723 0
M  V30 3918 N 393.175 1.03435 -1.18907 0
M  V30 3919 C 394.138 2.09756 -0.923844 0
M  V30 3920 C 395.138 1.60528 0.093416 0
M  V30 3921 O 396.328 1.73631 -0.140727 0
M  V30 3922 C 393.46 3.38692 -0.387354 0
M  V30 3923 H 394.653 2.34719 -1.86674 0
M  V30 3924 H 392.206 1.19959 -1.00197 0
M  V30 3925 H 392.941 3.19396 0.561845 0
M  V30 3926 H 392.726 3.75742 -1.12074 0
M  V30 3927 H 394.216 4.17016 -0.220694 0
M  V30 3928 N 394.653 0.992116 1.22453 0
M  V30 3929 C 395.878 0.685644 1.95739 0
M  V30 3930 C 396.303 -0.743 1.72804 0
M  V30 3931 O 395.661 -1.50778 1.00676 0
M  V30 3932 C 395.709 0.996293 3.46564 0
M  V30 3933 O 394.813 0.0945512 4.12292 0
M  V30 3934 H 394.154 0.256694 0.612376 0
M  V30 3935 H 396.684 1.32888 1.5557 0
M  V30 3936 H 396.694 0.93781 3.97076 0
M  V30 3937 H 395.369 2.03733 3.62582 0
M  V30 3938 H 393.946 0.208451 3.72317 0
M  V30 3939 N 396.131 -1.37776 0.765217 0
M  V30 3940 C 397.377 -2.00145 0.327072 0
M  V30 3941 C 397.71 -1.60607 -1.09175 0
M  V30 3942 O 396.985 -0.849127 -1.74986 0
M  V30 3943 C 397.268 -3.57109 0.46319 0
M  V30 3944 C 397.121 -4.06576 1.92395 0
M  V30 3945 C 398.44 -4.39888 -0.136473 0
M  V30 3946 H 395.559 -0.727113 0.120316 0
M  V30 3947 H 398.201 -1.63549 0.967039 0
M  V30 3948 H 396.351 -3.88414 -0.0816358 0
M  V30 3949 H 398.023 -3.85864 2.52798 0
M  V30 3950 H 396.266 -3.59011 2.43503 0
M  V30 3951 H 396.937 -5.15639 1.97028 0
M  V30 3952 H 399.413 -4.14803 0.328317 0
M  V30 3953 H 398.289 -5.48899 -0.0110582 0
M  V30 3954 H 398.55 -4.24758 -1.22608 0
M  V30 3955 N 397.609 -0.515225 -1.4894 0
M  V30 3956 C 398.837 0.0206034 -2.0689 0
M  V30 3957 C 399.252 1.29514 -1.37374 0
M  V30 3958 O 398.609 1.76698 -0.456529 0
M  V30 3959 C 398.66 0.26351 -3.60538 0
M  V30 3960 O 398.381 -0.960517 -4.27441 0
M  V30 3961 C 399.882 0.841383 -4.35242 0
M  V30 3962 H 397.102 -0.0268608 -0.670462 0
M  V30 3963 H 399.646 -0.716651 -1.91532 0
M  V30 3964 H 397.801 0.950777 -3.75552 0
M  V30 3965 H 398.215 -0.73212 -5.19365 0
M  V30 3966 H 399.689 0.96085 -5.43573 0
M  V30 3967 H 400.166 1.8427 -3.98674 0
M  V30 3968 H 400.772 0.191143 -4.2487 0
M  V30 3969 N 399.087 1.5561 -0.249682 0
M  V30 3970 C 400.364 1.90932 0.424761 0
M  V30 3971 C 400.744 1.17078 1.75658 0
M  V30 3972 O 400.092 0.289176 2.26663 0
M  V30 3973 C 400.302 3.43975 0.590109 0
M  V30 3974 C 401.65 4.15281 0.884714 0
M  V30 3975 O 402.674 3.49729 0.67587 0
M  V30 3976 O 401.533 5.31236 1.28259 0
M  V30 3977 H 398.627 0.794815 0.228468 0
M  V30 3978 H 401.173 1.67135 -0.293954 0
M  V30 3979 H 399.945 3.89748 -0.34818 0
M  V30 3980 H 399.568 3.73644 1.35926 0
M  V30 3981 N 400.565 -0.0233959 1.57583 0
M  V30 3982 C 401.842 -0.748794 1.807 0
M  V30 3983 C 402.222 -1.9327 0.849106 0
M  V30 3984 O 401.57 -2.28247 -0.107468 0
M  V30 3985 C 401.78 -1.17651 3.28571 0
M  V30 3986 C 403.128 -1.59008 3.93702 0
M  V30 3987 O 404.152 -1.27094 3.32755 0
M  V30 3988 O 403.011 -2.18264 5.01022 0
M  V30 3989 H 400.105 -0.362578 0.743281 0
M  V30 3990 H 402.651 0.000261958 1.697 0
M  V30 3991 H 401.423 -0.331603 3.89892 0
M  V30 3992 H 401.046 -1.98541 3.44481 0
M  V30 3993 N 402.043 -1.548 -0.295768 0
M  V30 3994 C 403.454 -1.65274 -0.868411 0
M  V30 3995 C 403.805 -0.56481 -1.87894 0
M  V30 3996 O 402.93 0.29767 -2.14343 0
M  V30 3997 C 403.525 -2.99603 -1.58188 0
M  V30 3998 C 402.084 -3.12181 -2.10286 0
M  V30 3999 C 401.231 -2.6098 -0.93727 0
M  V30 4000 H 404.182 -1.58534 -0.0726422 0
M  V30 4001 H 404.203 -2.91319 -2.44772 0
M  V30 4002 H 403.715 -3.78764 -0.846151 0
M  V30 4003 H 401.816 -2.3775 -2.8689 0
M  V30 4004 H 401.929 -4.18415 -2.33379 0
M  V30 4005 H 400.293 -2.17564 -1.32431 0
M  V30 4006 H 401.076 -3.42623 -0.215414 0
M  V30 4007 N 403.521 0.559213 -1.47345 0
M  V30 4008 C 404.746 1.34676 -1.57725 0
M  V30 4009 C 405.171 1.86723 -0.227164 0
M  V30 4010 O 404.529 1.6286 0.796642 0
M  V30 4011 C 404.577 2.49399 -2.60447 0
M  V30 4012 O 403.681 3.51567 -2.15578 0
M  V30 4013 H 403.022 0.400115 -0.52991 0
M  V30 4014 H 405.552 0.676009 -1.93109 0
M  V30 4015 H 405.562 2.95996 -2.80803 0
M  V30 4016 H 404.237 2.10873 -3.58477 0
M  V30 4017 H 402.814 3.11289 -2.05313 0
M  V30 4018 N 404.999 1.35443 0.805782 0
M  V30 4019 C 405.962 1.28301 1.89925 0
M  V30 4020 C 406.962 0.194285 1.59622 0
M  V30 4021 O 408.152 0.448036 1.6834 0
M  V30 4022 C 405.284 0.984997 3.2636 0
M  V30 4023 H 406.477 2.2553 1.97677 0
M  V30 4024 H 404.03 1.19979 1.00173 0
M  V30 4025 H 404.765 0.016603 3.24296 0
M  V30 4026 H 404.55 1.77269 3.4974 0
M  V30 4027 H 406.04 0.960651 4.064 0
M  V30 4028 N 406.477 -1.02803 1.19454 0
M  V30 4029 C 407.407 -2.12999 0.956758 0
M  V30 4030 C 408.388 -1.69743 -0.110188 0
M  V30 4031 O 409.573 -1.94148 0.0450038 0
M  V30 4032 C 406.703 -3.43746 0.495553 0
M  V30 4033 C 405.657 -4.00688 1.50443 0
M  V30 4034 C 404.983 -5.27067 0.900275 0
M  V30 4035 C 406.283 -4.35397 2.8849 0
M  V30 4036 H 407.977 -2.33148 1.87836 0
M  V30 4037 H 405.523 -1.12045 0.904539 0
M  V30 4038 H 407.476 -4.2021 0.316493 0
M  V30 4039 H 406.2 -3.23321 -0.461646 0
M  V30 4040 H 404.859 -3.2632 1.67065 0
M  V30 4041 H 404.507 -5.02959 -0.064503 0
M  V30 4042 H 404.207 -5.66127 1.57397 0
M  V30 4043 H 405.731 -6.06196 0.73203 0
M  V30 4044 H 407.145 -5.02795 2.75446 0
M  V30 4045 H 405.542 -4.85541 3.52661 0
M  V30 4046 H 406.612 -3.44662 3.41081 0
M  V30 4047 N 407.956 -0.998596 -1.21925 0
M  V30 4048 C 408.906 -0.524743 -2.21879 0
M  V30 4049 C 409.89 0.41017 -1.55584 0
M  V30 4050 O 411.082 0.236063 -1.75419 0
M  V30 4051 C 408.211 0.153636 -3.42956 0
M  V30 4052 C 407.297 -0.801918 -4.16449 0
M  V30 4053 N 407.688 -1.95211 -4.66611 0
M  V30 4054 C 405.986 -0.618972 -4.41684 0
M  V30 4055 C 406.687 -2.55234 -5.22715 0
M  V30 4056 N 405.663 -1.83451 -5.1171 0
M  V30 4057 H 409.465 -1.40189 -2.58311 0
M  V30 4058 H 406.979 -0.86159 -1.3766 0
M  V30 4059 H 408.976 0.510534 -4.13762 0
M  V30 4060 H 407.636 1.02684 -3.08036 0
M  V30 4061 H 408.647 -2.33271 -4.62391 0
M  V30 4062 H 405.324 0.207694 -4.16983 0
M  V30 4063 H 406.714 -3.52471 -5.72026 0
M  V30 4064 N 409.434 1.37368 -0.772513 0
M  V30 4065 C 410.662 2.03942 -0.348588 0
M  V30 4066 C 411.077 1.58264 1.02947 0
M  V30 4067 O 410.434 0.764246 1.65727 0
M  V30 4068 C 410.485 3.5946 -0.38351 0
M  V30 4069 O 410.206 4.03468 -1.70721 0
M  V30 4070 C 411.707 4.4327 0.0519152 0
M  V30 4071 H 408.927 0.654931 -0.145966 0
M  V30 4072 H 411.471 1.75686 -1.04665 0
M  V30 4073 H 409.626 3.86486 0.265978 0
M  V30 4074 H 410.04 4.97991 -1.64636 0
M  V30 4075 H 411.514 5.51995 -0.0236733 0
M  V30 4076 H 411.991 4.2514 1.10238 0
M  V30 4077 H 412.597 4.21471 -0.569415 0
M  V30 4078 N 410.912 0.523116 1.48665 0
M  V30 4079 C 412.328 0.180511 1.58576 0
M  V30 4080 C 412.528 -1.31597 1.52592 0
M  V30 4081 O 411.584 -2.0937 1.4114 0
M  V30 4082 C 412.897 0.776949 2.90489 0
M  V30 4083 C 414.445 0.745058 3.04003 0
M  V30 4084 C 414.92 1.31995 4.38567 0
M  V30 4085 N 416.411 1.28162 4.45117 0
M  V30 4086 C 417.146 1.6964 5.47731 0
M  V30 4087 N 416.642 2.18816 6.57337 0
M  V30 4088 N 418.435 1.6092 5.38573 0
M  V30 4089 H 410.586 1.4958 1.50797 0
M  V30 4090 H 412.849 0.621772 0.715614 0
M  V30 4091 H 412.555 1.82732 3.00503 0
M  V30 4092 H 412.429 0.25007 3.7637 0
M  V30 4093 H 414.816 -0.296532 2.93606 0
M  V30 4094 H 414.897 1.30933 2.1975 0
M  V30 4095 H 414.541 2.36043 4.49718 0
M  V30 4096 H 414.471 0.731418 5.21496 0
M  V30 4097 H 416.962 0.92155 3.66491 0
M  V30 4098 H 417.275 2.48478 7.31764 0
M  V30 4099 H 415.62 2.22805 6.58318 0
M  V30 4100 H 418.811 1.22304 4.5184 0
M  V30 4101 H 418.984 1.93567 6.18414 0
M  V30 4102 N 412.39 -1.55475 0.257931 0
M  V30 4103 C 413.32 -2.24815 -0.630912 0
M  V30 4104 C 414.301 -1.23224 -1.17259 0
M  V30 4105 O 415.486 -1.51904 -1.20991 0
M  V30 4106 C 412.616 -2.95609 -1.82298 0
M  V30 4107 C 411.57 -4.03982 -1.41359 0
M  V30 4108 C 410.896 -4.6226 -2.68738 0
M  V30 4109 C 412.196 -5.19109 -0.57648 0
M  V30 4110 H 413.89 -2.99354 -0.0526878 0
M  V30 4111 H 411.436 -1.4398 -0.023901 0
M  V30 4112 H 413.389 -3.42822 -2.45054 0
M  V30 4113 H 412.113 -2.18577 -2.42676 0
M  V30 4114 H 410.772 -3.57555 -0.809324 0
M  V30 4115 H 410.42 -3.81915 -3.27338 0
M  V30 4116 H 410.12 -5.35424 -2.42065 0
M  V30 4117 H 411.644 -5.12212 -3.32372 0
M  V30 4118 H 413.058 -5.62479 -1.10861 0
M  V30 4119 H 411.455 -5.98729 -0.405351 0
M  V30 4120 H 412.525 -4.83174 0.408776 0
M  V30 4121 N 413.868 0.0150385 -1.57593 0
M  V30 4122 C 414.831 0.995996 -2.06428 0
M  V30 4123 C 415.831 1.2818 -0.970903 0
M  V30 4124 O 417.021 1.22949 -1.23406 0
M  V30 4125 C 414.153 2.32506 -2.49307 0
M  V30 4126 H 415.346 0.573873 -2.94358 0
M  V30 4127 H 412.899 0.262186 -1.54085 0
M  V30 4128 H 413.634 2.79438 -1.64575 0
M  V30 4129 H 413.419 2.13087 -3.29145 0
M  V30 4130 H 414.909 3.02906 -2.87468 0
M  V30 4131 N 415.346 1.54954 0.287554 0
M  V30 4132 C 416.762 1.46469 0.633964 0
M  V30 4133 C 416.962 0.666865 1.90145 0
M  V30 4134 O 416.018 0.179906 2.51858 0
M  V30 4135 C 417.331 2.90556 0.774454 0
M  V30 4136 C 418.879 3.00681 0.869462 0
M  V30 4137 C 419.354 4.45993 1.04184 0
M  V30 4138 N 420.845 4.4976 1.10772 0
M  V30 4139 C 421.58 5.59393 1.25964 0
M  V30 4140 N 421.076 6.78923 1.37968 0
M  V30 4141 N 422.869 5.47107 1.28959 0
M  V30 4142 H 415.02 2.05288 -0.545041 0
M  V30 4143 H 417.283 0.930305 -0.182308 0
M  V30 4144 H 416.989 3.51594 -0.086207 0
M  V30 4145 H 416.863 3.38743 1.6593 0
M  V30 4146 H 419.25 2.39749 1.7206 0
M  V30 4147 H 419.331 2.55769 -0.0396831 0
M  V30 4148 H 418.975 5.07524 0.195422 0
M  V30 4149 H 418.905 4.88548 1.96542 0
M  V30 4150 H 421.396 3.63651 1.02794 0
M  V30 4151 H 421.709 7.58231 1.49353 0
M  V30 4152 H 420.054 6.81763 1.34999 0
M  V30 4153 H 423.245 4.52668 1.19202 0
M  V30 4154 H 423.418 6.32595 1.40455 0
M  V30 4155 N 416.824 -0.551391 1.4764 0
M  V30 4156 C 417.754 -1.66757 1.63445 0
M  V30 4157 C 418.735 -1.63077 0.483742 0
M  V30 4158 O 419.92 -1.80607 0.71377 0
M  V30 4159 C 417.05 -3.05387 1.65396 0
M  V30 4160 C 416.004 -3.23918 2.79752 0
M  V30 4161 C 415.33 -4.63393 2.66779 0
M  V30 4162 C 416.63 -3.08735 4.21284 0
M  V30 4163 H 418.324 -1.53786 2.56886 0
M  V30 4164 H 415.87 -0.738415 1.23626 0
M  V30 4165 H 417.823 -3.83325 1.75043 0
M  V30 4166 H 416.547 -3.19332 0.685195 0
M  V30 4167 H 415.206 -2.48391 2.69625 0
M  V30 4168 H 414.854 -4.74144 1.67918 0
M  V30 4169 H 414.554 -4.7674 3.43501 0
M  V30 4170 H 416.078 -5.43458 2.78364 0
M  V30 4171 H 417.492 -3.76484 4.32357 0
M  V30 4172 H 415.889 -3.33588 4.98838 0
M  V30 4173 H 416.959 -2.0541 4.39243 0
M  V30 4174 N 418.302 -1.35869 -0.798587 0
M  V30 4175 C 419.527 -1.32883 -1.59238 0
M  V30 4176 C 419.952 0.0894587 -1.87887 0
M  V30 4177 O 419.31 1.05869 -1.47178 0
M  V30 4178 C 419.358 -2.14892 -2.89575 0
M  V30 4179 O 418.462 -1.53512 -3.82763 0
M  V30 4180 H 417.803 -0.455236 -0.48338 0
M  V30 4181 H 420.333 -1.79024 -0.990539 0
M  V30 4182 H 420.343 -2.27139 -3.38928 0
M  V30 4183 H 419.018 -3.17998 -2.68049 0
M  V30 4184 H 417.595 -1.50153 -3.41334 0
M  V30 4185 N 419.78 1.02168 -1.19998 0
M  V30 4186 C 420.743 2.08765 -0.94604 0
M  V30 4187 C 421.743 1.60618 0.0763846 0
M  V30 4188 O 422.933 1.73472 -0.159135 0
M  V30 4189 C 420.065 3.38262 -0.423255 0
M  V30 4190 H 421.258 2.32726 -1.89153 0
M  V30 4191 H 418.811 1.1889 -1.01464 0
M  V30 4192 H 419.546 3.19974 0.527938 0
M  V30 4193 H 419.331 3.74532 -1.16053 0
M  V30 4194 H 420.821 4.16759 -0.264911 0
M  V30 4195 N 421.258 1.00505 1.21394 0
M  V30 4196 C 422.486 0.706609 1.9446 0
M  V30 4197 C 422.901 -0.73081 1.74082 0
M  V30 4198 O 422.258 -1.49446 1.04747 0
M  V30 4199 C 422.309 1.01824 3.46863 0
M  V30 4200 O 422.03 2.39919 3.66566 0
M  V30 4201 C 423.531 0.739216 4.37093 0
M  V30 4202 H 420.751 0.260394 0.618414 0
M  V30 4203 H 423.295 1.34311 1.54211 0
M  V30 4204 H 421.45 0.427343 3.85036 0
M  V30 4205 H 421.864 2.50784 4.6066 0
M  V30 4206 H 423.338 1.00744 5.42729 0
M  V30 4207 H 423.815 -0.326746 4.37983 0
M  V30 4208 H 424.421 1.31173 4.04566 0
M  V30 4209 N 422.737 -1.36956 0.779787 0
M  V30 4210 C 423.647 -2.33965 0.172491 0
M  V30 4211 C 424.663 -1.60574 -0.670222 0
M  V30 4212 O 425.839 -1.92617 -0.588263 0
M  V30 4213 C 422.904 -3.39761 -0.690173 0
M  V30 4214 C 421.965 -4.28964 0.169924 0
M  V30 4215 C 421.198 -5.29707 -0.651662 0
M  V30 4216 O 421.421 -5.38238 -1.88827 0
M  V30 4217 O 420.355 -6.01873 -0.0566264 0
M  V30 4218 H 424.181 -2.87647 0.974321 0
M  V30 4219 H 421.766 -1.39258 0.541078 0
M  V30 4220 H 423.648 -4.04471 -1.1824 0
M  V30 4221 H 422.323 -2.88394 -1.47006 0
M  V30 4222 H 421.23 -3.67326 0.708696 0
M  V30 4223 H 422.563 -4.83656 0.913085 0
M  V30 4224 N 424.215 -0.530993 -1.48385 0
M  V30 4225 C 425.626 -0.0907905 -1.86479 0
M  V30 4226 C 425.977 1.33213 -1.44044 0
M  V30 4227 O 425.102 1.99783 -0.831615 0
M  V30 4228 C 425.697 -0.157987 -3.38431 0
M  V30 4229 C 424.256 0.227026 -3.75715 0
M  V30 4230 C 423.403 -0.5173 -2.72432 0
M  V30 4231 H 426.354 -0.742186 -1.40276 0
M  V30 4232 H 426.375 0.630053 -3.75247 0
M  V30 4233 H 425.887 -1.19372 -3.69286 0
M  V30 4234 H 423.988 1.26486 -3.50474 0
M  V30 4235 H 424.101 -0.113288 -4.78966 0
M  V30 4236 H 422.465 0.0365527 -2.54674 0
M  V30 4237 H 423.248 -1.55368 -3.0613 0
M  V30 4238 N 425.693 1.55336 -0.266172 0
M  V30 4239 C 426.603 2.2583 0.635458 0
M  V30 4240 C 427.619 1.28106 1.17749 0
M  V30 4241 O 428.795 1.61024 1.20968 0
M  V30 4242 C 425.86 2.95879 1.80712 0
M  V30 4243 C 424.921 4.09059 1.30265 0
M  V30 4244 C 424.154 4.75759 2.41846 0
M  V30 4245 O 424.377 4.41622 3.61007 0
M  V30 4246 O 423.311 5.63888 2.1051 0
M  V30 4247 H 427.137 3.03631 0.0646693 0
M  V30 4248 H 424.722 1.49361 -0.0339177 0
M  V30 4249 H 426.604 3.39932 2.49047 0
M  V30 4250 H 425.279 2.21002 2.36516 0
M  V30 4251 H 424.186 3.69482 0.586019 0
M  V30 4252 H 425.519 4.85811 0.790458 0
M  V30 4253 N 427.171 -0.0066808 1.57599 0
M  V30 4254 C 428.101 -0.999296 2.11036 0
M  V30 4255 C 429.082 -1.36278 1.01795 0
M  V30 4256 O 430.267 -1.4477 1.29442 0
M  V30 4257 C 427.397 -2.29328 2.60818 0
M  V30 4258 C 426.351 -2.07159 3.74525 0
M  V30 4259 C 425.677 -3.42512 4.10596 0
M  V30 4260 C 426.977 -1.43959 5.02069 0
M  V30 4261 H 428.671 -0.554382 2.94223 0
M  V30 4262 H 426.217 -0.265221 1.41536 0
M  V30 4263 H 428.17 -2.99117 2.96828 0
M  V30 4264 H 426.894 -2.7592 1.74745 0
M  V30 4265 H 425.553 -1.39797 3.38899 0
M  V30 4266 H 425.201 -3.86795 3.21556 0
M  V30 4267 H 424.901 -3.28498 4.87199 0
M  V30 4268 H 426.425 -4.13628 4.4916 0
M  V30 4269 H 427.839 -2.03696 5.35893 0
M  V30 4270 H 426.236 -1.40452 5.83432 0
M  V30 4271 H 427.306 -0.407992 4.83181 0
M  V30 4272 N 428.649 -1.55105 -0.279332 0
M  V30 4273 C 429.897 -1.75066 -1.00977 0
M  V30 4274 C 430.218 -0.551276 -1.87045 0
M  V30 4275 O 429.488 0.433984 -1.91032 0
M  V30 4276 H 428.068 -0.645578 -0.375816 0
M  V30 4277 H 430.73 -1.92497 -0.305089 0
M  V30 4278 H 429.826 -2.64894 -1.65038 0
M  V30 4279 N 430.127 0.543554 -1.4793 0
M  V30 4280 C 431.404 1.30458 -1.4574 0
M  V30 4281 C 431.784 2.1048 -0.161692 0
M  V30 4282 O 431.132 2.11831 0.856734 0
M  V30 4283 C 431.342 2.19754 -2.71126 0
M  V30 4284 C 432.69 2.80334 -3.18901 0
M  V30 4285 O 433.714 2.30049 -2.71948 0
M  V30 4286 O 432.573 3.71766 -4.00565 0
M  V30 4287 H 429.667 0.588117 -0.581418 0
M  V30 4288 H 432.213 0.561328 -1.60147 0
M  V30 4289 H 430.985 1.60316 -3.56952 0
M  V30 4290 H 430.608 3.01351 -2.59371 0
M  V30 4291 N 431.605 1.3629 0.791371 0
M  V30 4292 C 432.835 1.33368 1.57786 0
M  V30 4293 C 433.243 -0.0875188 1.88997 0
M  V30 4294 O 432.586 -1.05427 1.50435 0
M  V30 4295 C 432.648 2.08802 2.92646 0
M  V30 4296 C 432.312 3.57903 2.84174 0
M  V30 4297 C 433.309 4.52191 2.56553 0
M  V30 4298 C 430.994 4.00762 3.02812 0
M  V30 4299 C 432.988 5.87315 2.47669 0
M  V30 4300 C 430.675 5.35977 2.93551 0
M  V30 4301 C 431.673 6.29066 2.66017 0
M  V30 4302 O 431.361 7.61798 2.56746 0
M  V30 4303 H 431.093 0.459166 0.496128 0
M  V30 4304 H 433.647 1.79952 0.990269 0
M  V30 4305 H 431.877 1.56878 3.53449 0
M  V30 4306 H 433.566 1.98762 3.53904 0
M  V30 4307 H 434.332 4.20393 2.41858 0
M  V30 4308 H 430.211 3.2868 3.2325 0
M  V30 4309 H 433.755 6.59943 2.26099 0
M  V30 4310 H 429.652 5.67384 3.07808 0
M  V30 4311 H 430.42 7.71898 2.72242 0
M  V30 4312 N 433.083 -1.0153 1.20538 0
M  V30 4313 C 434.499 -1.27461 0.96051 0
M  V30 4314 C 434.699 -1.98273 -0.359193 0
M  V30 4315 O 433.755 -2.27886 -1.0874 0
M  V30 4316 C 435.068 -2.10837 2.14402 0
M  V30 4317 C 436.616 -2.24099 2.18515 0
M  V30 4318 C 437.091 -3.10852 3.36355 0
M  V30 4319 N 438.582 -3.18441 3.36377 0
M  V30 4320 C 439.317 -3.85795 4.24205 0
M  V30 4321 N 438.813 -4.55264 5.22213 0
M  V30 4322 N 440.606 -3.82331 4.12043 0
M  V30 4323 H 432.757 -0.539907 2.05423 0
M  V30 4324 H 435.02 -0.30092 0.898972 0
M  V30 4325 H 434.726 -1.66144 3.09983 0
M  V30 4326 H 434.6 -3.11576 2.12604 0
M  V30 4327 H 436.987 -2.68016 1.23497 0
M  V30 4328 H 437.068 -1.22865 2.24361 0
M  V30 4329 H 436.712 -2.6764 4.31661 0
M  V30 4330 H 436.642 -4.12177 3.27746 0
M  V30 4331 H 439.133 -2.68978 2.65442 0
M  V30 4332 H 439.446 -5.04331 5.85551 0
M  V30 4333 H 437.791 -4.54085 5.26148 0
M  V30 4334 H 440.982 -3.27207 3.34743 0
M  V30 4335 H 441.155 -4.34547 4.807 0
M  V30 4336 N 434.561 -1.01147 -1.20859 0
M  V30 4337 C 435.471 -0.58686 -2.27141 0
M  V30 4338 C 436.487 0.373198 -1.69951 0
M  V30 4339 O 437.663 0.235423 -2.00019 0
M  V30 4340 C 434.728 0.0733602 -3.46622 0
M  V30 4341 C 433.789 -0.931995 -4.19061 0
M  V30 4342 C 433.022 -0.303186 -5.32838 0
M  V30 4343 O 433.245 0.898395 -5.63281 0
M  V30 4344 O 432.179 -1.01735 -5.9324 0
M  V30 4345 H 436.005 -1.47155 -2.65667 0
M  V30 4346 H 433.59 -0.780689 -1.2738 0
M  V30 4347 H 435.472 0.442333 -4.19072 0
M  V30 4348 H 434.147 0.932329 -3.09983 0
M  V30 4349 H 433.054 -1.35224 -3.48805 0
M  V30 4350 H 434.387 -1.76076 -4.59628 0
M  V30 4351 N 436.039 1.36541 -0.78704 0
M  V30 4352 C 436.969 2.32659 -0.197992 0
M  V30 4353 C 437.95 1.56533 0.665697 0
M  V30 4354 O 439.135 1.84698 0.60001 0
M  V30 4355 C 436.265 3.40778 0.669901 0
M  V30 4356 C 435.219 4.27897 -0.0937039 0
M  V30 4357 C 434.545 5.27163 0.894629 0
M  V30 4358 C 435.845 5.06334 -1.28154 0
M  V30 4359 H 437.539 2.82171 -1.00099 0
M  V30 4360 H 435.085 1.35665 -0.482793 0
M  V30 4361 H 437.038 4.07008 1.09191 0
M  V30 4362 H 435.762 2.89827 1.50558 0
M  V30 4363 H 434.421 3.6322 -0.49666 0
M  V30 4364 H 434.069 4.72486 1.72527 0
M  V30 4365 H 433.769 5.86317 0.388149 0
M  V30 4366 H 435.293 5.96266 1.31525 0
M  V30 4367 H 436.707 5.65617 -0.93541 0
M  V30 4368 H 435.104 5.74888 -1.72115 0
M  V30 4369 H 436.174 4.38114 -2.07807 0
M  V30 4370 N 437.518 0.538854 1.48102 0
M  V30 4371 C 438.764 0.00801365 2.02798 0
M  V30 4372 C 439.097 -1.3309 1.41424 0
M  V30 4373 O 438.372 -1.86169 0.563158 0
M  V30 4374 C 438.655 -0.104589 3.59948 0
M  V30 4375 C 438.508 1.26012 4.31788 0
M  V30 4376 C 439.827 -0.827055 4.32259 0
M  V30 4377 H 436.946 0.00438624 0.736987 0
M  V30 4378 H 439.588 0.6976 1.7673 0
M  V30 4379 H 437.738 -0.691893 3.82289 0
M  V30 4380 H 439.41 1.88922 4.2084 0
M  V30 4381 H 437.653 1.83968 3.92859 0
M  V30 4382 H 438.324 1.13424 5.40221 0
M  V30 4383 H 440.8 -0.328578 4.14801 0
M  V30 4384 H 439.676 -0.87476 5.41885 0
M  V30 4385 H 439.937 -1.87927 4.0017 0
M  V30 4386 N 438.996 -1.55193 0.274407 0
M  V30 4387 C 439.926 -2.25471 -0.607032 0
M  V30 4388 C 440.907 -1.24461 -1.15946 0
M  V30 4389 O 442.092 -1.53179 -1.19373 0
M  V30 4390 C 439.222 -2.97526 -1.79153 0
M  V30 4391 C 438.176 -4.05459 -1.37067 0
M  V30 4392 C 437.502 -4.65084 -2.6382 0
M  V30 4393 C 438.802 -5.19691 -0.521389 0
M  V30 4394 H 440.496 -2.99393 -0.0209343 0
M  V30 4395 H 438.042 -1.43997 -0.00862866 0
M  V30 4396 H 439.995 -3.45402 -2.41404 0
M  V30 4397 H 438.719 -2.21138 -2.40344 0
M  V30 4398 H 437.378 -3.58393 -0.771355 0
M  V30 4399 H 437.026 -3.85365 -3.23268 0
M  V30 4400 H 436.726 -5.37961 -2.36372 0
M  V30 4401 H 438.25 -5.15708 -3.26921 0
M  V30 4402 H 439.664 -5.63623 -1.04889 0
M  V30 4403 H 438.061 -5.99126 -0.341825 0
M  V30 4404 H 439.131 -4.82713 0.46 0
M  V30 4405 N 440.474 -0.00167713 -1.576 0
M  V30 4406 C 441.751 0.719951 -1.81868 0
M  V30 4407 C 442.131 1.91895 -0.879747 0
M  V30 4408 O 441.479 2.28389 0.0711423 0
M  V30 4409 C 441.689 1.12409 -3.30402 0
M  V30 4410 C 443.037 1.52724 -3.96182 0
M  V30 4411 O 444.061 1.21784 -3.34734 0
M  V30 4412 O 442.92 2.10265 -5.04431 0
M  V30 4413 H 440.014 0.350707 -0.748955 0
M  V30 4414 H 442.56 -0.0272597 -1.69678 0
M  V30 4415 H 441.332 0.269532 -3.90371 0
M  V30 4416 H 440.955 1.93035 -3.47596 0
M  V30 4417 N 441.952 1.55251 0.271103 0
M  V30 4418 C 443.192 1.77698 1.01008 0
M  V30 4419 C 443.556 0.567246 1.83429 0
M  V30 4420 O 444.757 0.670013 2.60316 0
M  V30 4421 C 443.028 3.04715 1.86772 0
M  V30 4422 S 444.587 3.48289 2.66909 0
M  V30 4423 H 441.405 0.624343 0.340172 0
M  V30 4424 H 444.007 1.9348 0.280315 0
M  V30 4425 H 442.711 3.90853 1.25149 0
M  V30 4426 H 442.242 2.91604 2.64066 0
M  V30 4427 H 444.257 3.07712 3.89266 0
M  V30 4428 N 443.43 -0.535701 1.48216 0
M  V30 4429 C 444.846 -0.863701 1.3421 0
M  V30 4430 C 445.046 -1.98458 0.34879 0
M  V30 4431 O 444.102 -2.51432 -0.23204 0
M  V30 4432 C 445.415 -1.23662 2.74095 0
M  V30 4433 C 446.963 -1.34683 2.82541 0
M  V30 4434 C 447.438 -1.75322 4.23115 0
M  V30 4435 N 448.929 -1.82434 4.2576 0
M  V30 4436 C 449.664 -2.15252 5.31464 0
M  V30 4437 N 449.16 -2.46533 6.47452 0
M  V30 4438 N 450.953 -2.16209 5.18855 0
M  V30 4439 H 443.104 0.203965 2.11418 0
M  V30 4440 H 445.367 0.0286033 0.947568 0
M  V30 4441 H 445.073 -0.486674 3.48316 0
M  V30 4442 H 444.947 -2.18805 3.07253 0
M  V30 4443 H 447.334 -2.08756 2.08579 0
M  V30 4444 H 447.415 -0.376756 2.5301 0
M  V30 4445 H 447.059 -1.01812 4.97591 0
M  V30 4446 H 446.989 -2.7337 4.50085 0
M  V30 4447 H 449.48 -1.6056 3.42095 0
M  V30 4448 H 449.793 -2.70662 7.23852 0
M  V30 4449 H 448.138 -2.44065 6.50736 0
M  V30 4450 H 451.329 -1.91224 4.2726 0
M  V30 4451 H 451.502 -2.41453 6.01335 0
M  V30 4452 N 444.908 -1.36708 -0.784132 0
M  V30 4453 C 446.155 -1.31231 -1.54222 0
M  V30 4454 C 446.483 0.106864 -1.94206 0
M  V30 4455 O 445.738 1.07734 -1.63376 0
M  V30 4456 C 446.037 -2.18571 -2.82774 0
M  V30 4457 C 445.703 -3.67039 -2.61903 0
M  V30 4458 C 444.365 -4.07503 -2.55919 0
M  V30 4459 C 446.717 -4.61149 -2.4288 0
M  V30 4460 C 444.045 -5.40211 -2.28886 0
M  V30 4461 C 446.397 -5.94081 -2.17373 0
M  V30 4462 C 445.061 -6.33664 -2.09825 0
M  V30 4463 H 444.331 -0.48021 -0.56434 0
M  V30 4464 H 446.978 -1.68807 -0.904233 0
M  V30 4465 H 445.283 -1.73949 -3.51068 0
M  V30 4466 H 446.98 -2.11655 -3.40592 0
M  V30 4467 H 443.57 -3.34941 -2.67418 0
M  V30 4468 H 447.754 -4.30756 -2.46501 0
M  V30 4469 H 443.01 -5.69855 -2.21529 0
M  V30 4470 H 447.184 -6.66566 -2.01649 0
M  V30 4471 H 444.811 -7.36423 -1.88641 0
M  V30 4472 N 446.386 1.0089 -1.21074 0
M  V30 4473 C 447.349 2.0775 -0.968129 0
M  V30 4474 C 448.349 1.6069 0.0593445 0
M  V30 4475 O 449.539 1.73293 -0.177525 0
M  V30 4476 C 446.671 3.37794 -0.459108 0
M  V30 4477 H 447.864 2.30707 -1.9161 0
M  V30 4478 H 445.417 1.17807 -1.02719 0
M  V30 4479 H 446.152 3.20516 0.49397 0
M  V30 4480 H 445.937 3.7328 -1.20019 0
M  V30 4481 H 447.427 4.16454 -0.309099 0
M  V30 4482 N 447.864 1.01787 1.20321 0
M  V30 4483 C 449.275 0.739307 1.71438 0
M  V30 4484 C 449.626 -0.742041 1.81627 0
M  V30 4485 O 448.751 -1.57903 1.47971 0
M  V30 4486 C 449.346 1.33538 3.11373 0
M  V30 4487 C 447.905 1.10566 3.59795 0
M  V30 4488 C 447.052 1.44028 2.36962 0
M  V30 4489 H 450.003 1.18718 1.05317 0
M  V30 4490 H 450.024 0.726611 3.73498 0
M  V30 4491 H 449.536 2.41352 3.03926 0
M  V30 4492 H 447.637 0.0452405 3.72573 0
M  V30 4493 H 447.75 1.78661 4.44542 0
M  V30 4494 H 446.114 0.85933 2.39766 0
M  V30 4495 H 446.897 2.52901 2.32155 0
M  V30 4496 N 449.342 -1.36122 0.79427 0
M  V30 4497 C 450.289 -2.29982 0.194101 0
M  V30 4498 C 451.259 -1.52214 -0.664833 0
M  V30 4499 O 452.444 -1.80702 -0.612498 0
M  V30 4500 C 449.584 -3.38706 -0.661244 0
M  V30 4501 C 448.697 -4.31456 0.216766 0
M  V30 4502 C 447.832 -5.27265 -0.645411 0
M  V30 4503 C 446.871 -6.11653 0.233756 0
M  V30 4504 N 446.008 -6.99636 -0.587682 0
M  V30 4505 H 450.848 -2.80722 0.999965 0
M  V30 4506 H 448.385 -1.38172 0.504677 0
M  V30 4507 H 450.343 -4.00394 -1.17219 0
M  V30 4508 H 448.973 -2.89274 -1.43249 0
M  V30 4509 H 448.025 -3.7088 0.845724 0
M  V30 4510 H 449.337 -4.90724 0.893973 0
M  V30 4511 H 448.491 -5.94266 -1.22198 0
M  V30 4512 H 447.23 -4.68463 -1.35623 0
M  V30 4513 H 446.235 -5.4361 0.82269 0
M  V30 4514 H 447.46 -6.72531 0.942247 0
M  V30 4515 H 445.406 -6.43337 -1.2827 0
M  V30 4516 H 445.323 -7.55993 0.0317402 0
M  V30 4517 H 446.591 -7.71001 -1.14792 0
M  V30 4518 N 450.82 -0.546701 -1.47814 0
M  V30 4519 C 452.236 -0.205717 -1.58269 0
M  V30 4520 C 452.436 1.29153 -1.54667 0
M  V30 4521 O 451.492 2.07098 -1.44453 0
M  V30 4522 C 452.805 -0.823065 -2.89216 0
M  V30 4523 C 454.353 -0.793328 -3.02779 0
M  V30 4524 C 454.828 -1.38955 -4.36412 0
M  V30 4525 N 456.319 -1.35227 -4.43021 0
M  V30 4526 C 457.054 -1.78333 -5.44963 0
M  V30 4527 N 456.55 -2.29246 -6.53772 0
M  V30 4528 N 458.343 -1.69467 -5.35945 0
M  V30 4529 H 450.494 -1.5196 -1.48398 0
M  V30 4530 H 452.757 -0.633078 -0.705632 0
M  V30 4531 H 452.463 -1.8749 -2.97558 0
M  V30 4532 H 452.337 -0.309915 -3.75925 0
M  V30 4533 H 454.724 0.249784 -2.94041 0
M  V30 4534 H 454.805 -1.34412 -2.17639 0
M  V30 4535 H 454.449 -2.43168 -4.45906 0
M  V30 4536 H 454.379 -0.814291 -5.20266 0
M  V30 4537 H 456.87 -0.979739 -3.64979 0
M  V30 4538 H 457.183 -2.60089 -7.27718 0
M  V30 4539 H 455.528 -2.3325 -6.5469 0
M  V30 4540 H 458.719 -1.29477 -4.49837 0
M  V30 4541 H 458.892 -2.03381 -6.15256 0
M  V30 4542 N 452.299 1.55045 -0.282633 0
M  V30 4543 C 453.715 1.59441 0.0712997 0
M  V30 4544 C 453.915 1.2998 1.53972 0
M  V30 4545 O 452.971 1.06431 2.28973 0
M  V30 4546 C 454.284 2.99097 -0.310104 0
M  V30 4547 C 455.832 3.1194 -0.257343 0
M  V30 4548 C 456.307 4.53875 -0.613297 0
M  V30 4549 N 457.798 4.5974 -0.565134 0
M  V30 4550 C 458.533 5.67603 -0.81326 0
M  V30 4551 N 458.029 6.83582 -1.1264 0
M  V30 4552 N 459.822 5.57187 -0.741553 0
M  V30 4553 H 451.973 1.72458 -1.23984 0
M  V30 4554 H 454.236 0.804549 -0.501403 0
M  V30 4555 H 453.942 3.25516 -1.33163 0
M  V30 4556 H 453.816 3.75616 0.345366 0
M  V30 4557 H 456.203 2.85281 0.754905 0
M  V30 4558 H 456.284 2.37618 -0.947178 0
M  V30 4559 H 455.928 4.81261 -1.62327 0
M  V30 4560 H 455.858 5.26508 0.09841 0
M  V30 4561 H 458.349 3.76427 -0.333294 0
M  V30 4562 H 458.662 7.6175 -1.30219 0
M  V30 4563 H 457.007 6.85179 -1.16425 0
M  V30 4564 H 460.198 4.65457 -0.496705 0
M  V30 4565 H 460.371 6.41171 -0.938306 0
M  V30 4566 N 453.777 0.010035 1.57597 0
M  V30 4567 C 455.193 -0.346164 1.55801 0
M  V30 4568 C 455.393 -1.74144 1.01371 0
M  V30 4569 O 454.449 -2.43938 0.651968 0
M  V30 4570 C 455.762 -0.212216 2.9995 0
M  V30 4571 C 457.31 -0.286409 3.11687 0
M  V30 4572 C 457.785 -0.18147 4.5764 0
M  V30 4573 N 459.276 -0.239056 4.62583 0
M  V30 4574 C 460.011 -0.181351 5.73113 0
M  V30 4575 N 459.507 -0.073661 6.92761 0
M  V30 4576 N 461.3 -0.233949 5.61613 0
M  V30 4577 H 453.451 0.922657 1.91313 0
M  V30 4578 H 455.714 0.354595 0.879185 0
M  V30 4579 H 455.42 0.748169 3.4365 0
M  V30 4580 H 455.294 -0.990224 3.6397 0
M  V30 4581 H 457.681 -1.23724 2.67911 0
M  V30 4582 H 457.762 0.521645 2.50425 0
M  V30 4583 H 457.406 0.765863 5.02093 0
M  V30 4584 H 457.336 -1.00814 5.1686 0
M  V30 4585 H 459.827 -0.32321 3.76515 0
M  V30 4586 H 460.14 -0.0358003 7.72792 0
M  V30 4587 H 458.485 -0.0391461 6.94989 0
M  V30 4588 H 461.676 -0.316347 4.6703 0
M  V30 4589 H 461.849 -0.185514 6.47734 0
M  V30 4590 N 455.255 -1.55392 -0.262866 0
M  V30 4591 C 456.671 -1.47459 -0.610582 0
M  V30 4592 C 456.871 -0.697031 -1.8906 0
M  V30 4593 O 455.927 -0.219952 -2.5154 0
M  V30 4594 C 457.24 -2.91751 -0.728131 0
M  V30 4595 C 458.788 -3.02027 -0.821517 0
M  V30 4596 C 459.263 -4.47594 -0.97076 0
M  V30 4597 N 460.754 -4.51465 -1.03603 0
M  V30 4598 C 461.489 -5.61326 -1.17049 0
M  V30 4599 N 460.985 -6.81032 -1.2715 0
M  V30 4600 N 462.778 -5.49089 -1.20239 0
M  V30 4601 H 454.929 -2.04395 0.577632 0
M  V30 4602 H 457.192 -0.927287 0.197086 0
M  V30 4603 H 456.898 -3.51413 0.142132 0
M  V30 4604 H 456.772 -3.4134 -1.6052 0
M  V30 4605 H 459.159 -2.42456 -1.68224 0
M  V30 4606 H 459.24 -2.55674 0.0803688 0
M  V30 4607 H 458.884 -5.07771 -0.114655 0
M  V30 4608 H 458.814 -4.91613 -1.88745 0
M  V30 4609 H 461.305 -3.6524 -0.96996 0
M  V30 4610 H 461.618 -7.60511 -1.37271 0
M  V30 4611 H 459.963 -6.83824 -1.24136 0
M  V30 4612 H 463.154 -4.54507 -1.11985 0
M  V30 4613 H 463.327 -6.34749 -1.30373 0
M  V30 4614 N 456.733 0.527833 -1.48498 0
M  V30 4615 C 457.981 1.28101 -1.56316 0
M  V30 4616 C 458.302 1.9352 -0.239781 0
M  V30 4617 O 457.572 1.81433 0.738849 0
M  V30 4618 H 456.152 0.475793 -0.575873 0
M  V30 4619 H 458.814 0.614052 -1.84974 0
M  V30 4620 H 457.91 2.05916 -2.34532 0
M  V30 4621 N 458.211 1.37122 0.776871 0
M  V30 4622 C 459.174 1.32301 1.8716 0
M  V30 4623 C 460.174 0.228099 1.59174 0
M  V30 4624 O 461.364 0.483642 1.67352 0
M  V30 4625 C 458.496 1.054 3.24197 0
M  V30 4626 H 459.689 2.29673 1.92848 0
M  V30 4627 H 457.242 1.22077 0.97606 0
M  V30 4628 H 457.977 0.0853872 3.24188 0
M  V30 4629 H 457.762 1.84648 3.45901 0
M  V30 4630 H 459.252 1.04664 4.04271 0
M  V30 4631 N 459.689 -1.00246 1.21608 0
M  V30 4632 C 461.1 -1.55511 1.03312 0
M  V30 4633 C 461.451 -1.91946 -0.406332 0
M  V30 4634 O 460.576 -1.73753 -1.28992 0
M  V30 4635 C 461.171 -2.82576 1.86913 0
M  V30 4636 C 459.73 -3.34318 1.72941 0
M  V30 4637 C 458.877 -2.07487 1.83968 0
M  V30 4638 H 461.828 -0.824638 1.35593 0
M  V30 4639 H 461.849 -3.54559 1.38087 0
M  V30 4640 H 461.361 -2.56026 2.91672 0
M  V30 4641 H 459.462 -3.65797 0.70877 0
M  V30 4642 H 459.575 -4.05566 2.55055 0
M  V30 4643 H 457.939 -2.20603 1.27304 0
M  V30 4644 H 458.722 -1.83346 2.9024 0
M  V30 4645 N 461.167 -1.02423 -1.1978 0
M  V30 4646 C 462.077 -0.610919 -2.26506 0
M  V30 4647 C 463.093 0.355152 -1.70337 0
M  V30 4648 O 464.269 0.214195 -2.00258 0
M  V30 4649 C 461.334 0.0365921 -3.46681 0
M  V30 4650 C 460.395 -0.976389 -4.18049 0
M  V30 4651 C 459.628 -0.359683 -5.32487 0
M  V30 4652 O 459.851 0.838601 -5.64202 0
M  V30 4653 O 458.785 -1.08022 -5.92127 0
M  V30 4654 H 462.611 -1.49965 -2.64091 0
M  V30 4655 H 460.196 -0.794156 -1.26545 0
M  V30 4656 H 462.078 0.39786 -4.19518 0
M  V30 4657 H 460.753 0.899398 -3.10954 0
M  V30 4658 H 459.66 -1.38916 -3.47352 0
M  V30 4659 H 460.993 -1.80941 -4.57735 0
M  V30 4660 N 462.645 1.35699 -0.801477 0
M  V30 4661 C 463.893 1.9852 -0.37871 0
M  V30 4662 C 464.214 1.63907 1.05638 0
M  V30 4663 O 463.484 0.919013 1.73006 0
M  V30 4664 H 462.064 0.734322 -0.137042 0
M  V30 4665 H 464.726 1.65697 -1.02619 0
M  V30 4666 H 463.822 3.08382 -0.480284 0
M  V30 4667 N 464.123 0.554532 1.47522 0
M  V30 4668 C 465.371 0.0294208 2.02079 0
M  V30 4669 C 465.692 -1.32411 1.43151 0
M  V30 4670 O 464.962 -1.863 0.605728 0
M  V30 4671 H 463.542 0.00788672 0.746958 0
M  V30 4672 H 466.204 0.723934 1.80956 0
M  V30 4673 H 465.3 -0.0606745 3.12041 0
M  V30 4674 N 465.601 -1.54893 0.290851 0
M  V30 4675 C 466.533 -2.20564 -0.623236 0
M  V30 4676 C 467.546 -1.19519 -1.1054 0
M  V30 4677 O 468.735 -1.46165 -1.02459 0
M  V30 4678 C 465.835 -2.83033 -1.86401 0
M  V30 4679 C 465.008 -4.09916 -1.52604 0
M  V30 4680 C 464.067 -4.56284 -2.62091 0
M  V30 4681 O 463.093 -5.2171 -2.27612 0
M  V30 4682 N 464.295 -4.27746 -3.92446 0
M  V30 4683 H 467.06 -2.99638 -0.0610915 0
M  V30 4684 H 464.621 -1.61508 0.112615 0
M  V30 4685 H 466.613 -3.1099 -2.58973 0
M  V30 4686 H 465.183 -2.0786 -2.33481 0
M  V30 4687 H 464.403 -3.89078 -0.633424 0
M  V30 4688 H 465.691 -4.92554 -1.27547 0
M  V30 4689 H 465.089 -3.7531 -4.23272 0
M  V30 4690 H 463.646 -4.60437 -4.61347 0
M  V30 4691 N 467.08 -0.0183926 -1.57589 0
M  V30 4692 C 468.491 0.521927 -1.79256 0
M  V30 4693 C 468.842 1.72885 -0.927636 0
M  V30 4694 O 467.967 2.15978 -0.135091 0
M  V30 4695 C 468.562 0.953632 -3.25102 0
M  V30 4696 C 467.121 1.43913 -3.47801 0
M  V30 4697 C 466.268 0.398837 -2.74417 0
M  V30 4698 H 469.219 -0.244485 -1.56805 0
M  V30 4699 H 469.24 1.81863 -3.34224 0
M  V30 4700 H 468.752 0.0750123 -3.88028 0
M  V30 4701 H 466.853 2.33804 -2.90115 0
M  V30 4702 H 466.966 1.45391 -4.56507 0
M  V30 4703 H 465.33 0.864572 -2.39577 0
M  V30 4704 H 466.113 -0.471132 -3.40052 0
M  V30 4705 N 468.558 1.5553 0.254621 0
M  V30 4706 C 469.788 1.80784 1.00004 0
M  V30 4707 C 470.196 0.59071 1.79742 0
M  V30 4708 O 469.539 -0.449988 1.78103 0
M  V30 4709 C 469.601 2.99268 1.99196 0
M  V30 4710 C 469.265 4.35595 1.38224 0
M  V30 4711 C 470.262 5.13884 0.788611 0
M  V30 4712 C 467.947 4.82281 1.40393 0
M  V30 4713 C 469.941 6.37004 0.224783 0
M  V30 4714 C 467.628 6.05351 0.836243 0
M  V30 4715 C 468.626 6.82551 0.24769 0
M  V30 4716 O 468.314 8.03297 -0.311249 0
M  V30 4717 H 468.046 0.60565 0.300274 0
M  V30 4718 H 470.6 2.03411 0.285143 0
M  V30 4719 H 468.83 2.72377 2.74496 0
M  V30 4720 H 470.519 3.11682 2.60018 0
M  V30 4721 H 471.285 4.78938 0.764423 0
M  V30 4722 H 467.164 4.22189 1.85142 0
M  V30 4723 H 470.708 6.97203 -0.235235 0
M  V30 4724 H 466.605 6.39776 0.857733 0
M  V30 4725 H 467.373 8.1825 -0.20237 0
M  V30 4726 N 470.036 -0.519951 1.48776 0
M  V30 4727 C 471.447 -1.10177 1.50725 0
M  V30 4728 C 471.798 -1.94153 0.282678 0
M  V30 4729 O 470.923 -2.07645 -0.609298 0
M  V30 4730 C 471.518 -2.00482 2.73116 0
M  V30 4731 C 470.077 -2.53862 2.77905 0
M  V30 4732 C 469.224 -1.31047 2.44381 0
M  V30 4733 H 472.175 -0.30473 1.55747 0
M  V30 4734 H 472.196 -2.8491 2.52203 0
M  V30 4735 H 471.708 -1.39335 3.62225 0
M  V30 4736 H 469.809 -3.18702 1.93029 0
M  V30 4737 H 469.922 -2.9231 3.79594 0
M  V30 4738 H 468.286 -1.62953 1.95751 0
M  V30 4739 H 469.069 -0.71637 3.35743 0
M  V30 4740 N 471.514 -1.37532 -0.769588 0
M  V30 4741 C 472.76 -1.33057 -1.53048 0
M  V30 4742 C 473.093 0.0841865 -1.94017 0
M  V30 4743 O 472.368 1.04198 -1.64235 0
M  V30 4744 C 472.651 -2.27166 -2.79406 0
M  V30 4745 C 472.504 -3.77429 -2.44677 0
M  V30 4746 C 473.823 -2.19683 -3.81349 0
M  V30 4747 H 470.942 -0.484655 -0.555228 0
M  V30 4748 H 473.584 -1.68251 -0.882702 0
M  V30 4749 H 471.734 -1.97283 -3.34682 0
M  V30 4750 H 473.406 -4.17918 -1.953 0
M  V30 4751 H 471.649 -3.95892 -1.77346 0
M  V30 4752 H 472.32 -4.38716 -3.35011 0
M  V30 4753 H 474.796 -2.46029 -3.35573 0
M  V30 4754 H 473.672 -2.87668 -4.67481 0
M  V30 4755 H 473.933 -1.19045 -4.25771 0
M  V30 4756 N 472.992 0.995999 -1.22138 0
M  V30 4757 C 473.922 2.10387 -1.01289 0
M  V30 4758 C 474.903 1.69975 0.0651454 0
M  V30 4759 O 476.088 1.9396 -0.0964628 0
M  V30 4760 C 473.218 3.42312 -0.586517 0
M  V30 4761 C 472.172 3.96558 -1.61014 0
M  V30 4762 C 471.498 5.24494 -1.0397 0
M  V30 4763 C 472.798 4.27595 -2.99933 0
M  V30 4764 H 474.492 2.28086 -1.93951 0
M  V30 4765 H 472.038 1.09607 -0.933928 0
M  V30 4766 H 473.991 4.19223 -0.427793 0
M  V30 4767 H 472.715 3.24431 0.375761 0
M  V30 4768 H 471.374 3.21776 -1.75658 0
M  V30 4769 H 471.022 5.02953 -0.0688703 0
M  V30 4770 H 470.722 5.61755 -1.72352 0
M  V30 4771 H 472.246 6.04042 -0.892494 0
M  V30 4772 H 473.66 4.95315 -2.8868 0
M  V30 4773 H 472.057 4.76021 -3.6541 0
M  V30 4774 H 473.127 3.35498 -3.50099 0
M  V30 4775 N 474.47 1.03057 1.19235 0
M  V30 4776 C 475.886 0.747947 1.40989 0
M  V30 4777 C 476.086 -0.666752 1.90149 0
M  V30 4778 O 475.142 -1.43249 2.07933 0
M  V30 4779 C 476.455 1.7855 2.41951 0
M  V30 4780 C 478.003 1.80524 2.55695 0
M  V30 4781 C 478.478 2.83243 3.59913 0
M  V30 4782 N 479.969 2.8207 3.67411 0
M  V30 4783 C 480.704 3.58204 4.47747 0
M  V30 4784 N 480.2 4.44057 5.31775 0
M  V30 4785 N 481.993 3.46738 4.42413 0
M  V30 4786 H 474.144 1.94367 0.856468 0
M  V30 4787 H 476.407 0.840412 0.438647 0
M  V30 4788 H 476.113 2.79973 2.12857 0
M  V30 4789 H 475.987 1.6092 3.41152 0
M  V30 4790 H 478.374 0.79778 2.84112 0
M  V30 4791 H 478.455 2.02229 1.56643 0
M  V30 4792 H 478.099 3.84161 3.32239 0
M  V30 4793 H 478.029 2.58795 4.5862 0
M  V30 4794 H 480.52 2.19803 3.074 0
M  V30 4795 H 480.833 4.98884 5.90199 0
M  V30 4796 H 479.178 4.48129 5.3123 0
M  V30 4797 H 482.369 2.79077 3.75811 0
M  V30 4798 H 482.542 4.06322 5.04783 0
M  V30 4799 N 475.948 -1.35272 0.808662 0
M  V30 4800 C 477.194 -1.99003 0.390581 0
M  V30 4801 C 477.527 -1.63999 -1.0401 0
M  V30 4802 O 476.802 -0.904368 -1.72196 0
M  V30 4803 C 477.085 -3.55454 0.576566 0
M  V30 4804 C 476.938 -4.00249 2.05233 0
M  V30 4805 C 478.257 -4.401 0.00354277 0
M  V30 4806 H 475.376 -0.722917 0.143388 0
M  V30 4807 H 478.018 -1.6039 1.01858 0
M  V30 4808 H 476.168 -3.88477 0.0419766 0
M  V30 4809 H 477.84 -3.77626 2.64946 0
M  V30 4810 H 476.083 -3.51082 2.54801 0
M  V30 4811 H 476.754 -5.0911 2.13333 0
M  V30 4812 H 479.23 -4.13548 0.460117 0
M  V30 4813 H 478.106 -5.48656 0.163575 0
M  V30 4814 H 478.367 -4.28444 -1.09032 0
M  V30 4815 N 477.426 -0.562348 -1.47226 0
M  V30 4816 C 478.389 0.172056 -2.28553 0
M  V30 4817 C 479.389 0.837928 -1.37242 0
M  V30 4818 O 480.579 0.693001 -1.59822 0
M  V30 4819 C 477.711 1.25223 -3.17068 0
M  V30 4820 H 478.904 -0.542401 -2.94954 0
M  V30 4821 H 476.457 -0.319493 -1.53 0
M  V30 4822 H 477.192 1.99892 -2.55369 0
M  V30 4823 H 476.977 0.779515 -3.84273 0
M  V30 4824 H 478.467 1.76791 -3.78332 0
M  V30 4825 N 478.904 1.54736 -0.299062 0
M  V30 4826 C 479.854 2.20155 0.592932 0
M  V30 4827 C 480.838 1.1739 1.10038 0
M  V30 4828 O 482.03 1.43116 1.04147 0
M  V30 4829 C 479.159 2.94437 1.76527 0
M  V30 4830 C 478.245 4.04516 1.27388 0
M  V30 4831 N 478.636 5.03319 0.500339 0
M  V30 4832 C 476.934 4.18022 1.55478 0
M  V30 4833 C 477.635 5.81209 0.238909 0
M  V30 4834 N 476.611 5.37408 0.818163 0
M  V30 4835 H 480.413 2.93899 -0.00563596 0
M  V30 4836 H 477.927 1.62068 -0.103732 0
M  V30 4837 H 479.924 3.3977 2.41582 0
M  V30 4838 H 478.584 2.22209 2.36756 0
M  V30 4839 H 479.595 5.17696 0.145419 0
M  V30 4840 H 476.272 3.56998 2.16469 0
M  V30 4841 H 477.662 6.70812 -0.382223 0
M  V30 4842 N 480.382 0.0267497 1.57577 0
M  V30 4843 C 481.607 -0.666227 1.96408 0
M  V30 4844 C 482.032 -1.65004 0.903071 0
M  V30 4845 O 481.39 -1.80787 -0.136263 0
M  V30 4846 C 481.438 -1.35101 3.34335 0
M  V30 4847 O 480.542 -2.46623 3.30531 0
M  V30 4848 H 479.883 -0.175206 0.640468 0
M  V30 4849 H 482.413 0.0878977 2.04411 0
M  V30 4850 H 482.423 -1.70834 3.70513 0
M  V30 4851 H 481.098 -0.629844 4.11103 0
M  V30 4852 H 479.675 -2.13019 3.06068 0
M  V30 4853 N 481.861 -1.55662 -0.24637 0
M  V30 4854 C 482.824 -1.89558 -1.28842 0
M  V30 4855 C 483.824 -0.772082 -1.41052 0
M  V30 4856 O 485.014 -1.04007 -1.39743 0
M  V30 4857 C 482.146 -2.12449 -2.66605 0
M  V30 4858 H 483.339 -2.82735 -1.00004 0
M  V30 4859 H 480.892 -1.48562 -0.485684 0
M  V30 4860 H 481.627 -1.21742 -3.00582 0
M  V30 4861 H 481.412 -2.94273 -2.59125 0
M  V30 4862 H 482.902 -2.39854 -3.41847 0
M  V30 4863 N 483.339 0.512053 -1.4905 0
M  V30 4864 C 484.75 1.09376 -1.51307 0
M  V30 4865 C 485.101 1.94 -0.292971 0
M  V30 4866 O 484.226 2.07965 0.598277 0
M  V30 4867 C 484.821 1.99031 -2.74176 0
M  V30 4868 C 483.38 2.52385 -2.79247 0
M  V30 4869 C 482.527 1.29749 -2.45073 0
M  V30 4870 H 485.478 0.296467 -1.55906 0
M  V30 4871 H 485.499 2.83569 -2.53711 0
M  V30 4872 H 485.011 1.37412 -3.62959 0
M  V30 4873 H 483.112 3.17673 -1.94716 0
M  V30 4874 H 483.225 2.90293 -3.81139 0
M  V30 4875 H 481.589 1.61912 -1.96612 0
M  V30 4876 H 482.372 0.698555 -3.36118 0
M  V30 4877 N 484.817 1.37938 0.762283 0
M  V30 4878 C 486.063 1.33866 1.52341 0
M  V30 4879 C 486.396 -0.0738961 1.94059 0
M  V30 4880 O 485.671 -1.03326 1.64785 0
M  V30 4881 C 485.954 2.28644 2.78197 0
M  V30 4882 C 485.807 3.78722 2.42672 0
M  V30 4883 C 487.126 2.21702 3.80179 0
M  V30 4884 H 484.245 0.487593 0.55265 0
M  V30 4885 H 486.887 1.68717 0.873767 0
M  V30 4886 H 485.037 1.99055 3.33631 0
M  V30 4887 H 486.709 4.18948 1.93081 0
M  V30 4888 H 484.952 3.96827 1.75244 0
M  V30 4889 H 485.623 4.40486 3.3268 0
M  V30 4890 H 488.099 2.47805 3.34263 0
M  V30 4891 H 486.975 2.90143 4.65949 0
M  V30 4892 H 487.236 1.21301 4.25133 0
M  V30 4893 N 486.295 -0.989507 1.22664 0
M  V30 4894 C 487.543 -1.72612 1.05117 0
M  V30 4895 C 487.864 -1.90552 -0.414131 0
M  V30 4896 O 487.134 -1.4676 -1.29762 0
M  V30 4897 H 485.714 -0.639555 0.385977 0
M  V30 4898 H 488.376 -1.19158 1.54232 0
M  V30 4899 H 487.472 -2.71926 1.53175 0
M  V30 4900 N 487.773 -1.03688 -1.18687 0
M  V30 4901 C 488.736 -0.629115 -2.20397 0
M  V30 4902 C 489.736 0.311495 -1.57754 0
M  V30 4903 O 490.926 0.0974107 -1.73927 0
M  V30 4904 C 488.058 0.0782231 -3.4081 0
M  V30 4905 H 489.251 -1.52915 -2.57987 0
M  V30 4906 H 486.804 -0.828988 -1.32505 0
M  V30 4907 H 487.539 0.992233 -3.08748 0
M  V30 4908 H 487.324 -0.597776 -3.87517 0
M  V30 4909 H 488.814 0.350156 -4.16129 0
M  V30 4910 N 489.251 1.34841 -0.815825 0
M  V30 4911 C 490.183 2.28409 -0.190265 0
M  V30 4912 C 491.196 1.50705 0.615771 0
M  V30 4913 O 492.385 1.72822 0.446616 0
M  V30 4914 C 489.485 3.30441 0.752446 0
M  V30 4915 C 488.658 4.37399 -0.00922152 0
M  V30 4916 C 487.717 5.19234 0.853351 0
M  V30 4917 O 486.743 5.68404 0.300919 0
M  V30 4918 N 487.945 5.38248 2.17416 0
M  V30 4919 H 490.71 2.82732 -0.994114 0
M  V30 4920 H 488.271 1.47289 -0.672129 0
M  V30 4921 H 490.263 3.82084 1.33394 0
M  V30 4922 H 488.833 2.76565 1.45707 0
M  V30 4923 H 488.053 3.86567 -0.771979 0
M  V30 4924 H 489.341 5.05992 -0.533807 0
M  V30 4925 H 488.739 4.99961 2.6468 0
M  V30 4926 H 487.296 5.93035 2.70467 0
M  V30 4927 N 490.729 0.570148 1.46925 0
M  V30 4928 C 491.659 -0.158274 2.32963 0
M  V30 4929 C 492.64 -0.896093 1.44583 0
M  V30 4930 O 493.825 -0.874022 1.7342 0
M  V30 4931 C 490.955 -1.18055 3.26619 0
M  V30 4932 C 489.909 -0.558379 4.24342 0
M  V30 4933 C 489.235 -1.68623 5.07415 0
M  V30 4934 C 490.535 0.496295 5.19937 0
M  V30 4935 H 492.229 0.560046 2.94115 0
M  V30 4936 H 489.775 0.270775 1.41431 0
M  V30 4937 H 491.728 -1.69841 3.85658 0
M  V30 4938 H 490.452 -1.92899 2.63548 0
M  V30 4939 H 489.111 -0.0617157 3.66548 0
M  V30 4940 H 488.759 -2.42402 4.40738 0
M  V30 4941 H 488.459 -1.27564 5.73586 0
M  V30 4942 H 489.983 -2.20709 5.69315 0
M  V30 4943 H 491.397 0.0640052 5.73264 0
M  V30 4944 H 489.794 0.82649 5.94381 0
M  V30 4945 H 490.864 1.38735 4.6463 0
M  V30 4946 N 492.207 -1.54576 0.307264 0
M  V30 4947 C 493.17 -2.22423 -0.553224 0
M  V30 4948 C 494.17 -1.21231 -1.05639 0
M  V30 4949 O 495.36 -1.45923 -0.951419 0
M  V30 4950 C 492.492 -2.91552 -1.76664 0
M  V30 4951 H 493.685 -2.99874 0.0396484 0
M  V30 4952 H 491.238 -1.56192 0.0581629 0
M  V30 4953 H 491.973 -2.18196 -2.39918 0
M  V30 4954 H 491.758 -3.65738 -1.41343 0
M  V30 4955 H 493.248 -3.43292 -2.37783 0
M  V30 4956 N 493.685 -0.035106 -1.57561 0
M  V30 4957 C 494.913 0.652258 -1.9635 0
M  V30 4958 C 495.328 1.65317 -0.911897 0
M  V30 4959 O 494.685 1.82194 0.105657 0
M  V30 4960 C 494.736 1.35337 -3.35211 0
M  V30 4961 O 494.457 0.392548 -4.36338 0
M  V30 4962 C 495.958 2.13199 -3.88666 0
M  V30 4963 H 493.178 0.179444 -0.646561 0
M  V30 4964 H 495.722 -0.0966459 -2.04271 0
M  V30 4965 H 493.877 2.05362 -3.28489 0
M  V30 4966 H 494.291 0.891097 -5.16875 0
M  V30 4967 H 495.765 2.577 -4.88154 0
M  V30 4968 H 496.242 2.97353 -3.23231 0
M  V30 4969 H 496.848 1.48118 -3.98674 0
M  V30 4970 N 495.163 1.55791 0.238111 0
M  V30 4971 C 496.073 1.94196 1.31625 0
M  V30 4972 C 497.089 0.843545 1.52185 0
M  V30 4973 O 498.265 1.1457 1.65637 0
M  V30 4974 C 495.33 2.2365 2.64918 0
M  V30 4975 C 494.391 3.46971 2.52804 0
M  V30 4976 C 493.624 3.7501 3.79741 0
M  V30 4977 O 493.847 3.04982 4.82019 0
M  V30 4978 O 492.781 4.68525 3.77846 0
M  V30 4979 H 496.607 2.86044 1.02043 0
M  V30 4980 H 494.192 1.42786 0.439603 0
M  V30 4981 H 496.074 2.43863 3.4367 0
M  V30 4982 H 494.749 1.34979 2.94215 0
M  V30 4983 H 493.656 3.32055 1.72309 0
M  V30 4984 H 494.989 4.35971 2.28451 0
M  V30 4985 N 496.642 -0.504142 1.49319 0
M  V30 4986 C 497.572 -1.61473 1.68667 0
M  V30 4987 C 498.553 -1.61455 0.535378 0
M  V30 4988 O 499.738 -1.78245 0.770868 0
M  V30 4989 C 496.868 -2.99971 1.75028 0
M  V30 4990 C 495.822 -3.14854 2.89916 0
M  V30 4991 C 495.148 -4.54671 2.81387 0
M  V30 4992 C 496.448 -2.95176 4.30893 0
M  V30 4993 H 498.142 -1.45535 2.61648 0
M  V30 4994 H 495.688 -0.698711 1.25913 0
M  V30 4995 H 497.641 -3.77562 1.8715 0
M  V30 4996 H 496.365 -3.1699 0.786441 0
M  V30 4997 H 495.024 -2.39687 2.77391 0
M  V30 4998 H 494.672 -4.68562 1.82917 0
M  V30 4999 H 494.372 -4.6557 3.58494 0
M  V30 5000 H 495.896 -5.34327 2.95512 0
M  V30 5001 H 497.31 -3.62538 4.44116 0
M  V30 5002 H 495.707 -3.17549 5.09198 0
M  V30 5003 H 496.777 -1.91332 4.45556 0
M  V30 5004 N 498.12 -1.38341 -0.754957 0
M  V30 5005 C 499.345 -1.37882 -1.5493 0
M  V30 5006 C 499.77 0.0296385 -1.88077 0
M  V30 5007 O 499.128 1.01133 -1.50472 0
M  V30 5008 C 499.176 -2.23996 -2.82592 0
M  V30 5009 O 498.28 -1.65612 -3.77686 0
M  V30 5010 H 497.621 -0.470384 -0.468652 0
M  V30 5011 H 500.151 -1.82084 -0.933082 0
M  V30 5012 H 500.161 -2.37806 -3.3153 0
M  V30 5013 H 498.836 -3.26365 -2.57796 0
M  V30 5014 H 497.413 -1.60936 -3.36384 0
M  V30 5015 N 499.598 0.982988 -1.23187 0
M  V30 5016 C 500.847 1.71817 -1.05649 0
M  V30 5017 C 501.16 1.91315 0.407176 0
M  V30 5018 O 502.366 2.62256 0.702436 0
M  V30 5019 C 500.822 3.09188 -1.84203 0
M  V30 5020 C 500.43 2.97586 -3.34882 0
M  V30 5021 C 502.174 3.86684 -1.75146 0
M  V30 5022 C 500.081 4.30173 -4.05839 0
M  V30 5023 H 499.011 0.644258 -0.391724 0
M  V30 5024 H 501.662 1.09659 -1.4713 0
M  V30 5025 H 500.044 3.72087 -1.35527 0
M  V30 5026 H 501.218 2.43793 -3.91026 0
M  V30 5027 H 499.533 2.33567 -3.44725 0
M  V30 5028 H 502.13 4.84836 -2.25473 0
M  V30 5029 H 502.473 4.10136 -0.713737 0
M  V30 5030 H 503.006 3.30482 -2.21419 0
M  V30 5031 H 499.745 4.11918 -5.09906 0
M  V30 5032 H 499.265 4.83841 -3.54482 0
M  V30 5033 H 500.944 4.98873 -4.11989 0
M  V30 5034 N 501.076 1.04316 1.18135 0
M  V30 5035 C 502.039 0.640794 2.2006 0
M  V30 5036 C 503.039 -0.303124 1.57917 0
M  V30 5037 O 504.229 -0.0881855 1.73977 0
M  V30 5038 C 501.361 -0.060148 3.40847 0
M  V30 5039 H 502.554 1.54281 2.57172 0
M  V30 5040 H 500.107 0.836004 1.32063 0
M  V30 5041 H 500.842 -0.975845 3.0927 0
M  V30 5042 H 500.627 0.618319 3.87194 0
M  V30 5043 H 502.117 -0.328082 4.16309 0
M  V30 5044 N 502.554 -1.34406 0.822964 0
M  V30 5045 C 503.464 -2.33298 0.246838 0
M  V30 5046 C 504.48 -1.62625 -0.618797 0
M  V30 5047 O 505.656 -1.94391 -0.526685 0
M  V30 5048 C 502.721 -3.41785 -0.581731 0
M  V30 5049 C 501.782 -4.28206 0.306309 0
M  V30 5050 C 501.015 -5.31512 -0.48281 0
M  V30 5051 O 501.238 -5.43973 -1.71607 0
M  V30 5052 O 500.172 -6.01749 0.134884 0
M  V30 5053 H 503.998 -2.84401 1.06534 0
M  V30 5054 H 501.583 -1.37466 0.585108 0
M  V30 5055 H 503.465 -4.08028 -1.05313 0
M  V30 5056 H 502.14 -2.92925 -1.37756 0
M  V30 5057 H 501.047 -3.64885 0.825199 0
M  V30 5058 H 502.38 -4.80507 1.06649 0
M  V30 5059 N 504.032 -0.577932 -1.46621 0
M  V30 5060 C 505.28 -0.061566 -2.02006 0
M  V30 5061 C 505.601 1.30117 -1.4524 0
M  V30 5062 O 504.871 1.85313 -0.63529 0
M  V30 5063 H 503.451 -0.0197692 -0.746738 0
M  V30 5064 H 506.113 -0.752631 -1.79782 0
M  V30 5065 H 505.209 0.0110238 -3.12098 0
M  V30 5066 N 505.51 1.54411 -0.315457 0
M  V30 5067 C 506.442 2.21527 0.588067 0
M  V30 5068 C 507.455 1.21263 1.08624 0
M  V30 5069 O 508.644 1.47777 1.00121 0
M  V30 5070 C 505.744 2.85963 1.81875 0
M  V30 5071 C 504.917 4.12291 1.46063 0
M  V30 5072 C 503.976 4.60396 2.54799 0
M  V30 5073 O 503.002 5.25265 2.19283 0
M  V30 5074 N 504.204 4.33935 3.85591 0
M  V30 5075 H 506.969 2.99697 0.013414 0
M  V30 5076 H 504.53 1.61308 -0.138295 0
M  V30 5077 H 506.522 3.15071 2.53993 0
M  V30 5078 H 505.092 2.11548 2.30144 0
M  V30 5079 H 504.312 3.90036 0.571445 0
M  V30 5080 H 505.6 4.9452 1.19695 0
M  V30 5081 H 504.998 3.81996 4.17248 0
M  V30 5082 H 503.555 4.67718 4.53964 0
M  V30 5083 N 506.988 0.0434614 1.5754 0
M  V30 5084 C 507.898 -0.94893 2.14552 0
M  V30 5085 C 508.914 -1.34707 1.10136 0
M  V30 5086 O 510.09 -1.42557 1.42266 0
M  V30 5087 C 507.155 -2.208 2.67298 0
M  V30 5088 C 506.216 -1.86893 3.86484 0
M  V30 5089 C 505.449 -3.06797 4.36705 0
M  V30 5090 O 505.672 -4.19921 3.86034 0
M  V30 5091 O 504.606 -2.8826 5.28384 0
M  V30 5092 H 508.432 -0.494099 2.99654 0
M  V30 5093 H 506.017 -0.177989 1.48336 0
M  V30 5094 H 507.899 -2.94686 3.01228 0
M  V30 5095 H 506.574 -2.65436 1.85272 0
M  V30 5096 H 505.481 -1.10347 3.57455 0
M  V30 5097 H 506.814 -1.47062 4.69716 0
M  V30 5098 N 508.466 -1.55915 -0.229846 0
M  V30 5099 C 509.712 -1.78807 -0.956868 0
M  V30 5100 C 510.045 -0.611687 -1.84315 0
M  V30 5101 O 509.32 0.389398 -1.90562 0
M  V30 5102 C 509.603 -3.11718 -1.80288 0
M  V30 5103 C 509.456 -4.3979 -0.943649 0
M  V30 5104 C 510.775 -3.40999 -2.78222 0
M  V30 5105 H 507.894 -0.6505 -0.346437 0
M  V30 5106 H 510.536 -1.88648 -0.226252 0
M  V30 5107 H 508.686 -3.03459 -2.42579 0
M  V30 5108 H 510.358 -4.60059 -0.338121 0
M  V30 5109 H 508.601 -4.33086 -0.248705 0
M  V30 5110 H 509.272 -5.29208 -1.5698 0
M  V30 5111 H 511.748 -3.49332 -2.26067 0
M  V30 5112 H 510.624 -4.35183 -3.34526 0
M  V30 5113 H 510.885 -2.62754 -3.55546 0
M  V30 5114 N 509.944 0.496216 -1.49584 0
M  V30 5115 C 510.874 1.60576 -1.69521 0
M  V30 5116 C 511.855 1.61169 -0.543933 0
M  V30 5117 O 513.04 1.77834 -0.78031 0
M  V30 5118 C 510.17 2.99038 -1.76616 0
M  V30 5119 C 509.124 3.13312 -2.91581 0
M  V30 5120 C 508.45 4.53172 -2.83794 0
M  V30 5121 C 509.75 2.92886 -4.32452 0
M  V30 5122 H 511.444 1.44146 -2.62416 0
M  V30 5123 H 508.99 0.692024 -1.26282 0
M  V30 5124 H 510.943 3.76564 -1.8915 0
M  V30 5125 H 509.667 3.16568 -0.80324 0
M  V30 5126 H 508.326 2.38213 -2.78658 0
M  V30 5127 H 507.974 4.67585 -1.854 0
M  V30 5128 H 507.674 4.63662 -3.60958 0
M  V30 5129 H 509.198 5.32752 -2.98342 0
M  V30 5130 H 510.612 3.60178 -4.46032 0
M  V30 5131 H 509.009 3.14844 -5.10875 0
M  V30 5132 H 510.079 1.88966 -4.46565 0
M  V30 5133 N 511.423 1.38739 0.74761 0
M  V30 5134 C 512.67 1.35274 1.50689 0
M  V30 5135 C 512.998 -0.0553359 1.94421 0
M  V30 5136 O 512.253 -1.03365 1.66175 0
M  V30 5137 C 512.552 2.25992 2.7688 0
M  V30 5138 C 512.218 3.73854 2.5208 0
M  V30 5139 C 510.88 4.14145 2.45025 0
M  V30 5140 C 513.232 4.67427 2.30568 0
M  V30 5141 C 510.56 5.4609 2.14483 0
M  V30 5142 C 512.912 5.99635 2.01545 0
M  V30 5143 C 511.576 6.39004 1.92951 0
M  V30 5144 H 510.846 0.495003 0.55141 0
M  V30 5145 H 513.493 1.71145 0.859158 0
M  V30 5146 H 511.798 1.83196 3.46333 0
M  V30 5147 H 513.495 2.20611 3.34861 0
M  V30 5148 H 510.085 3.41913 2.58444 0
M  V30 5149 H 514.269 4.3714 2.34994 0
M  V30 5150 H 509.525 5.75528 2.06342 0
M  V30 5151 H 513.699 6.71678 1.83906 0
M  V30 5152 H 511.326 7.41165 1.6905 0
M  V30 5153 N 512.901 -0.976442 1.23707 0
M  V30 5154 C 514.149 -1.71487 1.06942 0
M  V30 5155 C 514.47 -1.9098 -0.393897 0
M  V30 5156 O 513.74 -1.48128 -1.28198 0
M  V30 5157 H 512.32 -0.635425 0.392739 0
M  V30 5158 H 514.982 -1.17515 1.55487 0
M  V30 5159 H 514.078 -2.70286 1.56051 0
M  V30 5160 N 514.379 -1.04941 -1.1758 0
M  V30 5161 C 515.625 -0.759112 -1.88057 0
M  V30 5162 C 515.958 0.711918 -1.8068 0
M  V30 5163 O 515.233 1.52035 -1.21308 0
M  V30 5164 C 515.516 -1.237 -3.38187 0
M  V30 5165 C 515.369 -2.77078 -3.54327 0
M  V30 5166 C 516.688 -0.834014 -4.32125 0
M  V30 5167 H 513.807 -0.277237 -0.682868 0
M  V30 5168 H 516.449 -1.30296 -1.38286 0
M  V30 5169 H 514.599 -0.774337 -3.80705 0
M  V30 5170 H 516.271 -3.31449 -3.20842 0
M  V30 5171 H 514.514 -3.16477 -2.96689 0
M  V30 5172 H 515.185 -3.05577 -4.59703 0
M  V30 5173 H 517.661 -1.23228 -3.97434 0
M  V30 5174 H 516.537 -1.19603 -5.35711 0
M  V30 5175 H 516.798 0.262195 -4.41322 0
M  V30 5176 N 515.857 1.33968 -0.830081 0
M  V30 5177 C 517.104 1.98063 -0.421566 0
M  V30 5178 C 517.432 1.65787 1.0171 0
M  V30 5179 O 516.687 0.925348 1.72441 0
M  V30 5180 C 516.986 3.52679 -0.57898 0
M  V30 5181 C 516.652 4.04884 -1.98443 0
M  V30 5182 C 515.314 4.18852 -2.36888 0
M  V30 5183 C 517.666 4.32879 -2.90285 0
M  V30 5184 C 514.994 4.58145 -3.66497 0
M  V30 5185 C 517.346 4.7362 -4.19364 0
M  V30 5186 C 516.01 4.85794 -4.57778 0
M  V30 5187 H 515.28 0.724765 -0.154262 0
M  V30 5188 H 517.927 1.59792 -1.05541 0
M  V30 5189 H 516.232 3.91556 0.138219 0
M  V30 5190 H 517.929 4.00261 -0.243317 0
M  V30 5191 H 514.519 3.9448 -1.67581 0
M  V30 5192 H 518.703 4.21619 -2.61823 0
M  V30 5193 H 513.959 4.65762 -3.96075 0
M  V30 5194 H 518.133 4.9424 -4.90612 0
M  V30 5195 H 515.76 5.15998 -5.58256 0
M  V30 5196 N 517.335 0.585699 1.46312 0
M  V30 5197 C 518.581 0.0725284 2.0267 0
M  V30 5198 C 518.914 -1.28523 1.45586 0
M  V30 5199 O 518.189 -1.84283 0.622101 0
M  V30 5200 C 518.472 0.0099788 3.60099 0
M  V30 5201 C 518.325 1.39685 4.27561 0
M  V30 5202 C 519.644 -0.689117 4.34671 0
M  V30 5203 H 516.763 0.0278307 0.736474 0
M  V30 5204 H 519.405 0.753472 1.74421 0
M  V30 5205 H 517.555 -0.56992 3.84297 0
M  V30 5206 H 519.227 2.02215 4.14617 0
M  V30 5207 H 517.47 1.96374 3.86807 0
M  V30 5208 H 518.141 1.30553 5.36339 0
M  V30 5209 H 520.617 -0.196446 4.15636 0
M  V30 5210 H 519.493 -0.701921 5.44393 0
M  V30 5211 H 519.754 -1.75101 4.05946 0
M  V30 5212 N 518.813 -1.54241 0.323641 0
M  V30 5213 C 520.041 -2.04985 -0.280871 0
M  V30 5214 C 520.456 -1.19978 -1.45777 0
M  V30 5215 O 519.813 -0.230471 -1.81039 0
M  V30 5216 C 519.864 -3.54353 -0.715258 0
M  V30 5217 O 519.585 -4.36132 0.414817 0
M  V30 5218 C 521.086 -4.21189 -1.38257 0
M  V30 5219 H 518.306 -0.66851 -0.0577502 0
M  V30 5220 H 520.85 -1.99029 0.469852 0
M  V30 5221 H 519.005 -3.60596 -1.41596 0
M  V30 5222 H 519.419 -5.2445 0.0725227 0
M  V30 5223 H 520.893 -5.27154 -1.63745 0
M  V30 5224 H 521.37 -3.72307 -2.32989 0
M  V30 5225 H 521.976 -4.19085 -0.724447 0
M  V30 5226 N 520.291 -0.0518155 -1.57515 0
M  V30 5227 C 521.539 0.620595 -1.92336 0
M  V30 5228 C 521.86 1.71345 -0.930907 0
M  V30 5229 O 521.13 1.95885 0.0241341 0
M  V30 5230 H 519.71 0.232226 -0.709986 0
M  V30 5231 H 522.372 -0.104969 -1.94617 0
M  V30 5232 H 521.468 1.05879 -2.93592 0
M  V30 5233 N 521.769 1.56035 0.221574 0
M  V30 5234 C 522.716 1.92413 1.27459 0
M  V30 5235 C 523.686 0.781323 1.46576 0
M  V30 5236 O 524.871 1.03721 1.60145 0
M  V30 5237 C 522.011 2.24617 2.61995 0
M  V30 5238 C 521.124 3.51831 2.50677 0
M  V30 5239 C 520.259 3.73482 3.77736 0
M  V30 5240 C 519.298 4.94211 3.6114 0
M  V30 5241 N 518.435 5.12252 4.80148 0
M  V30 5242 H 523.275 2.82203 0.957355 0
M  V30 5243 H 520.812 1.39676 0.461415 0
M  V30 5244 H 522.77 2.41298 3.40339 0
M  V30 5245 H 521.4 1.38 2.91815 0
M  V30 5246 H 520.452 3.43343 1.63767 0
M  V30 5247 H 521.764 4.40328 2.34334 0
M  V30 5248 H 520.918 3.9026 4.64523 0
M  V30 5249 H 519.657 2.83266 3.97003 0
M  V30 5250 H 518.662 4.77384 2.72736 0
M  V30 5251 H 519.887 5.85912 3.43343 0
M  V30 5252 H 517.833 4.24978 4.99729 0
M  V30 5253 H 517.75 5.94881 4.66532 0
M  V30 5254 H 519.018 5.33465 5.68362 0
M  V30 5255 N 523.247 -0.488276 1.49845 0
M  V30 5256 C 524.524 -1.24959 1.50481 0
M  V30 5257 C 524.904 -2.09735 0.239698 0
M  V30 5258 O 524.252 -2.14865 -0.777524 0
M  V30 5259 C 524.462 -2.0954 2.79095 0
M  V30 5260 C 525.81 -2.68305 3.29086 0
M  V30 5261 O 526.834 -2.19797 2.80299 0
M  V30 5262 O 525.693 -3.56643 4.14087 0
M  V30 5263 H 522.787 -0.566133 0.602845 0
M  V30 5264 H 525.333 -0.501504 1.6212 0
M  V30 5265 H 524.105 -1.46958 3.62656 0
M  V30 5266 H 523.728 -2.91517 2.70377 0
M  V30 5267 N 524.725 -1.39134 -0.740242 0
M  V30 5268 C 525.973 -1.35803 -1.49673 0
M  V30 5269 C 526.294 0.0470897 -1.94943 0
M  V30 5270 O 525.564 0.997347 -1.68611 0
M  V30 5271 H 524.144 -0.499736 -0.555224 0
M  V30 5272 H 526.806 -1.73947 -0.879107 0
M  V30 5273 H 525.902 -2.0174 -2.38133 0
M  V30 5274 N 526.204 0.969867 -1.24223 0
M  V30 5275 C 527.452 1.70918 -1.0785 0
M  V30 5276 C 527.773 1.91186 0.383763 0
M  V30 5277 O 527.043 1.48806 1.27411 0
M  V30 5278 H 525.623 0.633334 -0.396103 0
M  V30 5279 H 528.285 1.16689 -1.56108 0
M  V30 5280 H 527.381 2.69455 -1.57482 0
M  V30 5281 N 527.682 1.05563 1.17022 0
M  V30 5282 C 529.093 0.793475 1.69 0
M  V30 5283 C 529.444 -0.683882 1.83895 0
M  V30 5284 O 528.569 -1.53116 1.5292 0
M  V30 5285 C 529.164 1.43376 3.06967 0
M  V30 5286 C 527.723 1.21956 3.56095 0
M  V30 5287 C 526.87 1.51494 2.3226 0
M  V30 5288 H 529.821 1.22008 1.01487 0
M  V30 5289 H 529.842 0.845068 3.70997 0
M  V30 5290 H 529.354 2.50899 2.96093 0
M  V30 5291 H 527.455 0.163749 3.7224 0
M  V30 5292 H 527.568 1.92713 4.38633 0
M  V30 5293 H 525.932 0.935175 2.3691 0
M  V30 5294 H 526.715 2.60159 2.23992 0
M  V30 5295 N 529.16 -1.33526 0.837174 0
M  V30 5296 C 530.408 -1.97446 0.431211 0
M  V30 5297 C 530.729 -1.6665 -1.01255 0
M  V30 5298 O 529.999 -0.964559 -1.70508 0
M  V30 5299 H 528.579 -0.73043 0.156463 0
M  V30 5300 H 531.241 -1.62918 1.06976 0
M  V30 5301 H 530.337 -3.07001 0.561877 0
M  V30 5302 N 530.638 -0.59345 -1.46 0
M  V30 5303 C 531.884 -0.0832754 -2.02629 0
M  V30 5304 C 532.217 1.27749 -1.46266 0
M  V30 5305 O 531.492 1.8395 -0.631866 0
M  V30 5306 C 531.775 -0.0290756 -3.60088 0
M  V30 5307 C 531.628 -1.41951 -4.26814 0
M  V30 5308 C 532.947 0.666055 -4.35031 0
M  V30 5309 H 530.066 -0.031736 -0.736316 0
M  V30 5310 H 532.708 -0.762711 -1.74019 0
M  V30 5311 H 530.858 0.549532 -3.84594 0
M  V30 5312 H 532.53 -2.04411 -4.13538 0
M  V30 5313 H 530.773 -1.98422 -3.8576 0
M  V30 5314 H 531.444 -1.33395 -5.3564 0
M  V30 5315 H 533.92 0.174401 -4.15734 0
M  V30 5316 H 532.796 0.673041 -5.44758 0
M  V30 5317 H 533.057 1.72946 -4.06869 0
M  V30 5318 N 532.116 1.54067 -0.331816 0
M  V30 5319 C 533.364 2.00319 0.267739 0
M  V30 5320 C 533.685 1.22148 1.52003 0
M  V30 5321 O 532.955 0.325494 1.93177 0
M  V30 5322 H 531.535 0.740014 0.101922 0
M  V30 5323 H 534.197 1.89628 -0.450267 0
M  V30 5324 H 533.293 3.07765 0.518385 0
M  V30 5325 N 533.594 0.0601682 1.57485 0
M  V30 5326 C 535.005 -0.474217 1.80577 0
M  V30 5327 C 535.356 -1.70365 0.973147 0
M  V30 5328 O 534.481 -2.15544 0.192306 0
M  V30 5329 C 535.076 -0.867102 3.27516 0
M  V30 5330 C 533.635 -1.34642 3.51495 0
M  V30 5331 C 532.782 -0.32594 2.75378 0
M  V30 5332 H 535.733 0.285973 1.56102 0
M  V30 5333 H 535.754 -1.72938 3.38929 0
M  V30 5334 H 535.266 0.0278927 3.8809 0
M  V30 5335 H 533.367 -2.2603 2.96212 0
M  V30 5336 H 533.48 -1.33237 4.60201 0
M  V30 5337 H 531.844 -0.800749 2.41785 0
M  V30 5338 H 532.627 0.561125 3.38683 0
M  V30 5339 N 535.072 -1.5615 -0.213296 0
M  V30 5340 C 536.02 -1.93953 -1.28394 0
M  V30 5341 C 537.014 -0.822592 -1.48087 0
M  V30 5342 O 538.22 -1.00748 -1.49164 0
M  V30 5343 H 534.595 -0.61648 -0.430646 0
M  V30 5344 H 536.566 -2.83275 -0.937977 0
M  V30 5345 C 535.315 -2.27969 -2.62537 0
M  V30 5346 H 534.638 -3.13432 -2.48194 0
M  V30 5347 H 536.078 -2.58297 -3.36242 0
M  V30 5348 C 534.537 -1.10775 -3.18167 0
M  V30 5349 O 535.067 -0.373201 -3.99963 0
M  V30 5350 N 533.273 -0.889377 -2.76656 0
M  V30 5351 H 532.82 -1.48843 -2.10246 0
M  V30 5352 H 532.778 -0.107 -3.14218 0
M  V30 5353 N 536.55 0.480323 -1.50102 0
M  V30 5354 C 537.775 1.26126 -1.64642 0
M  V30 5355 C 538.2 1.85257 -0.325823 0
M  V30 5356 O 537.558 1.66854 0.709194 0
M  V30 5357 C 537.606 2.35243 -2.73301 0
M  V30 5358 O 536.71 3.39646 -2.33911 0
M  V30 5359 H 536.051 0.371463 -0.550374 0
M  V30 5360 H 538.581 0.572696 -1.96421 0
M  V30 5361 H 538.591 2.80695 -2.96098 0
M  V30 5362 H 537.266 1.91574 -3.6915 0
M  V30 5363 H 535.843 2.99969 -2.21525 0
M  V30 5364 N 538.028 1.39524 0.732853 0
M  V30 5365 C 539.274 1.37068 1.49467 0
M  V30 5366 C 539.607 -0.0327166 1.94172 0
M  V30 5367 O 538.882 -0.998071 1.66939 0
M  V30 5368 C 539.165 2.34494 2.73285 0
M  V30 5369 C 539.018 3.83784 2.34585 0
M  V30 5370 C 540.337 2.29717 3.75391 0
M  V30 5371 H 537.456 0.499206 0.542183 0
M  V30 5372 H 540.098 1.70532 0.837783 0
M  V30 5373 H 538.248 2.06087 3.29333 0
M  V30 5374 H 539.92 4.22949 1.84151 0
M  V30 5375 H 538.163 4.00455 1.66787 0
M  V30 5376 H 538.834 4.47444 3.23262 0
M  V30 5377 H 541.31 2.54839 3.28932 0
M  V30 5378 H 540.186 2.99962 4.59689 0
M  V30 5379 H 540.447 1.30291 4.22465 0
M  V30 5380 N 539.506 -0.963266 1.24736 0
M  V30 5381 C 540.752 -1.70933 1.09131 0
M  V30 5382 C 541.085 -1.90676 -0.368273 0
M  V30 5383 O 540.36 -1.47147 -1.27193 0
M  V30 5384 C 540.643 -3.09744 1.83658 0
M  V30 5385 C 540.496 -2.97465 3.37394 0
M  V30 5386 C 541.815 -4.09483 1.61282 0
M  V30 5387 H 538.934 -0.620398 0.397838 0
M  V30 5388 H 541.576 -1.12028 1.53459 0
M  V30 5389 H 539.726 -3.60031 1.4598 0
M  V30 5390 H 541.398 -2.54571 3.84696 0
M  V30 5391 H 539.641 -2.33576 3.65547 0
M  V30 5392 H 540.312 -3.95822 3.84745 0
M  V30 5393 H 542.788 -3.68073 1.94066 0
M  V30 5394 H 541.664 -5.04666 2.15878 0
M  V30 5395 H 541.925 -4.38639 0.552102 0
M  V30 5396 N 540.985 -1.06182 -1.16461 0
M  V30 5397 C 542.225 -0.787048 -1.8864 0
M  V30 5398 C 542.589 0.674093 -1.79778 0
M  V30 5399 O 543.79 1.06341 -2.46871 0
M  V30 5400 C 542.061 -1.2666 -3.34203 0
M  V30 5401 S 543.62 -1.12071 -4.24247 0
M  V30 5402 H 540.438 -0.285539 -0.651144 0
M  V30 5403 H 543.04 -1.35851 -1.40587 0
M  V30 5404 H 541.744 -2.32496 -3.38192 0
M  V30 5405 H 541.275 -0.689841 -3.87304 0
M  V30 5406 H 543.29 -0.0509341 -4.96174 0
M  V30 5407 N 542.463 1.3308 -0.844243 0
M  V30 5408 C 543.426 2.27403 -0.286485 0
M  V30 5409 C 544.426 1.51179 0.547872 0
M  V30 5410 O 545.616 1.70421 0.360886 0
M  V30 5411 C 542.748 3.35653 0.595813 0
M  V30 5412 H 543.941 2.78248 -1.11885 0
M  V30 5413 H 541.494 1.43574 -0.617749 0
M  V30 5414 H 542.229 2.90058 1.4504 0
M  V30 5415 H 542.014 3.921 -0.00125994 0
M  V30 5416 H 543.504 4.05958 0.979168 0
M  V30 5417 N 543.941 0.601185 1.45683 0
M  V30 5418 C 545.188 0.0938811 2.02282 0
M  V30 5419 C 545.516 -1.27315 1.47041 0
M  V30 5420 O 544.771 -1.85193 0.632623 0
M  V30 5421 C 545.07 -0.00222425 3.574 0
M  V30 5422 C 544.736 1.29963 4.31764 0
M  V30 5423 C 543.398 1.65625 4.51798 0
M  V30 5424 C 545.75 2.1603 4.74321 0
M  V30 5425 C 543.078 2.87119 5.11644 0
M  V30 5426 C 545.43 3.36766 5.3551 0
M  V30 5427 C 544.094 3.72689 5.53768 0
M  V30 5428 H 543.364 0.0343535 0.740203 0
M  V30 5429 H 546.011 0.781522 1.74827 0
M  V30 5430 H 544.316 -0.773096 3.84097 0
M  V30 5431 H 546.013 -0.410794 3.9889 0
M  V30 5432 H 542.603 1.01204 4.1648 0
M  V30 5433 H 546.787 1.89778 4.58582 0
M  V30 5434 H 542.043 3.15065 5.2397 0
M  V30 5435 H 546.217 4.03713 5.67441 0
M  V30 5436 H 543.844 4.66918 5.99909 0
M  V30 5437 N 545.419 -1.53889 0.339982 0
M  V30 5438 C 546.83 -1.86139 -0.144671 0
M  V30 5439 C 547.181 -1.2613 -1.50285 0
M  V30 5440 O 546.306 -0.573515 -2.08662 0
M  V30 5441 C 546.901 -3.37728 -0.269285 0
M  V30 5442 C 545.46 -3.69868 -0.698168 0
M  V30 5443 C 544.607 -2.76777 0.170249 0
M  V30 5444 H 547.558 -1.48503 0.559704 0
M  V30 5445 H 547.579 -3.64331 -1.0974 0
M  V30 5446 H 547.091 -3.81375 0.719366 0
M  V30 5447 H 545.192 -3.31764 -1.69597 0
M  V30 5448 H 545.305 -4.76582 -0.490533 0
M  V30 5449 H 543.669 -2.52188 -0.356844 0
M  V30 5450 H 544.452 -3.23253 1.15597 0
M  V30 5451 N 546.897 -0.0685191 -1.57451 0
M  V30 5452 C 548.146 0.600898 -1.92541 0
M  V30 5453 C 548.459 1.70967 -0.950239 0
M  V30 5454 O 549.665 2.43844 -1.19384 0
M  V30 5455 C 548.121 1.12019 -3.42023 0
M  V30 5456 C 547.729 0.0426028 -4.4798 0
M  V30 5457 C 549.473 1.76386 -3.86119 0
M  V30 5458 C 547.38 0.575759 -5.88591 0
M  V30 5459 H 546.31 0.228225 -0.71863 0
M  V30 5460 H 548.961 -0.140223 -1.82963 0
M  V30 5461 H 547.343 1.91418 -3.46663 0
M  V30 5462 H 548.517 -0.73182 -4.54952 0
M  V30 5463 H 546.832 -0.504642 -4.13331 0
M  V30 5464 H 549.429 2.17302 -4.88553 0
M  V30 5465 H 549.772 2.62255 -3.23308 0
M  V30 5466 H 550.305 1.03615 -3.84069 0
M  V30 5467 H 547.044 -0.245691 -6.55039 0
M  V30 5468 H 546.564 1.31778 -5.85145 0
M  V30 5469 H 548.243 1.0532 -6.3837 0
M  V30 5470 N 548.375 1.56261 0.205012 0
M  V30 5471 C 549.652 1.70856 0.952233 0
M  V30 5472 C 550.032 0.620501 2.01775 0
M  V30 5473 O 549.38 -0.370035 2.25484 0
M  V30 5474 C 549.59 3.12807 1.54767 0
M  V30 5475 C 550.938 3.72733 2.0336 0
M  V30 5476 O 551.962 3.15873 1.64629 0
M  V30 5477 O 550.821 4.72501 2.746 0
M  V30 5478 H 547.915 0.696496 0.445895 0
M  V30 5479 H 550.461 1.6857 0.195489 0
M  V30 5480 H 549.233 3.83465 0.779132 0
M  V30 5481 H 548.856 3.1928 2.36951 0
M  V30 5482 N 549.853 -0.472356 1.50355 0
M  V30 5483 C 550.783 -1.57859 1.72055 0
M  V30 5484 C 551.764 -1.60283 0.569505 0
M  V30 5485 O 552.949 -1.7657 0.808503 0
M  V30 5486 C 550.079 -2.96191 1.81351 0
M  V30 5487 C 549.033 -3.08633 2.96529 0
M  V30 5488 C 548.359 -4.486 2.90968 0
M  V30 5489 C 549.659 -2.85969 4.37057 0
M  V30 5490 H 551.353 -1.39953 2.64676 0
M  V30 5491 H 548.899 -0.671846 1.27367 0
M  V30 5492 H 550.852 -3.73507 1.95117 0
M  V30 5493 H 549.576 -3.15251 0.853502 0
M  V30 5494 H 548.235 -2.33749 2.82413 0
M  V30 5495 H 547.883 -4.64577 1.92815 0
M  V30 5496 H 547.583 -4.57861 3.68289 0
M  V30 5497 H 549.107 -5.27938 3.0678 0
M  V30 5498 H 550.521 -3.53036 4.51706 0
M  V30 5499 H 548.918 -3.06677 5.15819 0
M  V30 5500 H 549.988 -1.81838 4.49514 0
M  V30 5501 N 551.331 -1.39911 -0.725443 0
M  V30 5502 C 552.261 -1.42138 -1.85254 0
M  V30 5503 C 553.242 -0.283513 -1.67721 0
M  V30 5504 O 554.427 -0.490717 -1.87898 0
M  V30 5505 C 551.557 -1.27354 -3.23107 0
M  V30 5506 C 550.511 -2.3864 -3.55296 0
M  V30 5507 C 549.837 -2.08939 -4.92188 0
M  V30 5508 C 551.137 -3.8097 -3.57295 0
M  V30 5509 H 552.831 -2.36461 -1.83648 0
M  V30 5510 H 550.377 -1.13817 -0.882138 0
M  V30 5511 H 552.33 -1.2753 -4.01639 0
M  V30 5512 H 551.054 -0.295025 -3.25265 0
M  V30 5513 H 549.713 -2.37696 -2.79099 0
M  V30 5514 H 549.361 -1.09502 -4.90936 0
M  V30 5515 H 549.061 -2.83491 -5.14691 0
M  V30 5516 H 550.585 -2.10781 -5.73065 0
M  V30 5517 H 551.999 -3.8379 -4.25885 0
M  V30 5518 H 550.396 -4.5496 -3.9132 0
M  V30 5519 H 551.466 -4.11261 -2.5689 0
M  V30 5520 N 552.809 0.956637 -1.25245 0
M  V30 5521 C 554.086 1.67716 -1.00651 0
M  V30 5522 C 554.466 2.0585 0.467866 0
M  V30 5523 O 553.814 1.77029 1.44475 0
M  V30 5524 C 554.024 2.90093 -1.94028 0
M  V30 5525 C 555.372 3.6209 -2.21756 0
M  V30 5526 O 556.396 3.00171 -1.9177 0
M  V30 5527 O 555.255 4.7358 -2.72735 0
M  V30 5528 H 552.349 0.733731 -0.381533 0
M  V30 5529 H 554.895 1.00974 -1.3639 0
M  V30 5530 H 553.667 2.58689 -2.93591 0
M  V30 5531 H 553.29 3.64566 -1.58674 0
M  V30 5532 N 554.287 1.06798 1.15896 0
M  V30 5533 C 555.515 0.808694 1.90441 0
M  V30 5534 C 555.93 -0.637506 1.77711 0
M  V30 5535 O 555.287 -1.43684 1.12522 0
M  V30 5536 C 555.338 1.20068 3.40978 0
M  V30 5537 O 555.059 2.59013 3.53333 0
M  V30 5538 C 556.56 0.96987 4.3256 0
M  V30 5539 H 553.78 0.292809 0.603742 0
M  V30 5540 H 556.324 1.42296 1.46874 0
M  V30 5541 H 554.479 0.630842 3.82229 0
M  V30 5542 H 554.893 2.7485 4.46719 0
M  V30 5543 H 556.367 1.29371 5.36626 0
M  V30 5544 H 556.844 -0.0941209 4.39099 0
M  V30 5545 H 557.45 1.52433 3.97044 0
M  V30 5546 N 555.766 -1.3263 0.851289 0
M  V30 5547 C 556.696 -2.31449 0.308771 0
M  V30 5548 C 557.677 -1.59531 -0.590255 0
M  V30 5549 O 558.862 -1.87351 -0.511205 0
M  V30 5550 C 555.992 -3.43586 -0.506548 0
M  V30 5551 C 554.946 -4.26963 0.297753 0
M  V30 5552 C 554.272 -5.30831 -0.642094 0
M  V30 5553 C 555.572 -4.99643 1.52166 0
M  V30 5554 H 557.266 -2.77074 1.13447 0
M  V30 5555 H 554.812 -1.33207 0.546971 0
M  V30 5556 H 556.765 -4.11754 -0.896474 0
M  V30 5557 H 555.489 -2.96681 -1.36558 0
M  V30 5558 H 554.148 -3.60437 0.669391 0
M  V30 5559 H 553.796 -4.8018 -1.49788 0
M  V30 5560 H 553.496 -5.87501 -0.107968 0
M  V30 5561 H 555.02 -6.01862 -1.02927 0
M  V30 5562 H 556.434 -5.6051 1.20421 0
M  V30 5563 H 554.831 -5.66022 1.99347 0
M  V30 5564 H 555.901 -4.27701 2.28474 0
M  V30 5565 N 557.244 -0.608902 -1.45362 0
M  V30 5566 C 558.493 -0.10218 -2.01441 0
M  V30 5567 C 558.806 1.27546 -1.48295 0
M  V30 5568 O 560.012 1.87498 -1.96359 0
M  V30 5569 C 558.468 -0.131985 -3.59658 0
M  V30 5570 C 558.076 -1.50956 -4.21801 0
M  V30 5571 C 559.82 0.319427 -4.23296 0
M  V30 5572 C 557.727 -1.49568 -5.72174 0
M  V30 5573 H 556.657 -0.0344314 -0.753213 0
M  V30 5574 H 559.308 -0.764426 -1.6682 0
M  V30 5575 H 557.69 0.596939 -3.91475 0
M  V30 5576 H 558.864 -2.26029 -4.01556 0
M  V30 5577 H 557.179 -1.90318 -3.70362 0
M  V30 5578 H 559.776 0.349013 -5.3356 0
M  V30 5579 H 560.119 1.34237 -3.94064 0
M  V30 5580 H 560.652 -0.356273 -3.96201 0
M  V30 5581 H 557.391 -2.49626 -6.06108 0
M  V30 5582 H 556.911 -0.787542 -5.94607 0
M  V30 5583 H 558.59 -1.21989 -6.35396 0
M  V30 5584 N 558.722 1.53707 -0.348139 0
M  V30 5585 C 559.999 1.93247 0.302475 0
M  V30 5586 C 560.379 1.28012 1.67857 0
M  V30 5587 O 559.727 0.43274 2.24365 0
M  V30 5588 C 559.937 3.47031 0.370159 0
M  V30 5589 C 561.285 4.20066 0.61882 0
M  V30 5590 O 562.309 3.53319 0.452087 0
M  V30 5591 O 561.168 5.38318 0.94215 0
M  V30 5592 H 558.262 0.807736 0.177458 0
M  V30 5593 H 560.808 1.64927 -0.399651 0
M  V30 5594 H 559.58 3.86745 -0.59534 0
M  V30 5595 H 559.203 3.81532 1.11888 0
M  V30 5596 N 560.2 0.0768682 1.57412 0
M  V30 5597 C 561.11 -0.903207 2.16516 0
M  V30 5598 C 562.126 -1.32341 1.12968 0
M  V30 5599 O 563.302 -1.39507 1.45258 0
M  V30 5600 C 560.367 -2.1508 2.71922 0
M  V30 5601 C 559.428 -1.78653 3.90361 0
M  V30 5602 C 558.661 -2.97465 4.43114 0
M  V30 5603 O 558.884 -4.11638 3.94854 0
M  V30 5604 O 557.818 -2.76987 5.3438 0
M  V30 5605 H 561.644 -0.430427 3.00634 0
M  V30 5606 H 559.229 -0.146485 1.4868 0
M  V30 5607 H 561.111 -2.8823 3.07411 0
M  V30 5608 H 559.786 -2.61446 1.9086 0
M  V30 5609 H 558.693 -1.0274 3.59716 0
M  V30 5610 H 560.026 -1.37066 4.7273 0
M  V30 5611 N 561.678 -1.56367 -0.196722 0
M  V30 5612 C 562.926 -1.80172 -0.915554 0
M  V30 5613 C 563.247 -0.649649 -1.8386 0
M  V30 5614 O 562.517 0.332111 -1.93064 0
M  V30 5615 H 561.097 -0.664592 -0.341067 0
M  V30 5616 H 563.759 -1.93844 -0.202622 0
M  V30 5617 H 562.855 -2.7327 -1.50764 0
M  V30 5618 N 563.156 0.464375 -1.50603 0
M  V30 5619 C 564.402 1.21776 -1.62168 0
M  V30 5620 C 564.735 1.91476 -0.324154 0
M  V30 5621 O 564.01 1.8242 0.674782 0
M  V30 5622 C 564.293 2.25614 -2.80661 0
M  V30 5623 C 564.146 1.60175 -4.20314 0
M  V30 5624 C 565.465 3.26862 -2.94702 0
M  V30 5625 H 562.584 0.44137 -0.590222 0
M  V30 5626 H 565.226 0.510623 -1.8301 0
M  V30 5627 H 563.376 2.85923 -2.63021 0
M  V30 5628 H 565.048 1.03411 -4.4956 0
M  V30 5629 H 563.291 0.904697 -4.24261 0
M  V30 5630 H 563.962 2.35665 -4.99165 0
M  V30 5631 H 566.438 2.76582 -3.10872 0
M  V30 5632 H 565.314 3.96839 -3.79223 0
M  V30 5633 H 565.575 3.91382 -2.05603 0
M  V30 5634 N 564.634 1.40294 0.718013 0
M  V30 5635 C 565.544 1.42678 1.86226 0
M  V30 5636 C 566.56 0.319655 1.71039 0
M  V30 5637 O 567.736 0.563852 1.93346 0
M  V30 5638 C 564.801 1.2852 3.21999 0
M  V30 5639 C 563.862 2.49354 3.49458 0
M  V30 5640 C 563.095 2.35863 4.78753 0
M  V30 5641 O 563.318 1.37114 5.53675 0
M  V30 5642 O 562.252 3.25189 5.06494 0
M  V30 5643 H 566.078 2.39167 1.87171 0
M  V30 5644 H 563.663 1.2159 0.868112 0
M  V30 5645 H 565.545 1.22824 4.03103 0
M  V30 5646 H 564.22 0.351359 3.21787 0
M  V30 5647 H 563.127 2.60628 2.68373 0
M  V30 5648 H 564.46 3.41491 3.54464 0
M  V30 5649 N 566.112 -0.949982 1.2575 0
M  V30 5650 C 567.528 -1.22191 1.02672 0
M  V30 5651 C 567.728 -1.99898 -0.253588 0
M  V30 5652 O 566.784 -2.33329 -0.965076 0
M  V30 5653 C 568.097 -1.99175 2.25277 0
M  V30 5654 C 569.645 -2.12201 2.30087 0
M  V30 5655 C 570.12 -2.92586 3.5236 0
M  V30 5656 N 571.611 -3.00163 3.52784 0
M  V30 5657 C 572.346 -3.62766 4.44059 0
M  V30 5658 N 571.842 -4.26943 5.45611 0
M  V30 5659 N 573.635 -3.59953 4.3173 0
M  V30 5660 H 565.786 -0.430258 2.07996 0
M  V30 5661 H 568.049 -0.252844 0.91366 0
M  V30 5662 H 567.755 -1.49479 3.18354 0
M  V30 5663 H 567.629 -2.99868 2.28821 0
M  V30 5664 H 570.016 -2.61093 1.3753 0
M  V30 5665 H 570.097 -1.10799 2.30559 0
M  V30 5666 H 569.741 -2.44383 4.45241 0
M  V30 5667 H 569.671 -3.94224 3.49134 0
M  V30 5668 H 572.162 -2.54529 2.79327 0
M  V30 5669 H 572.475 -4.72583 6.11461 0
M  V30 5670 H 570.82 -4.25557 5.49478 0
M  V30 5671 H 574.011 -3.09003 3.51617 0
M  V30 5672 H 574.184 -4.08455 5.03059 0
M  V30 5673 N 567.59 -1.07411 -1.15328 0
M  V30 5674 C 568.83 -0.807011 -1.87794 0
M  V30 5675 C 569.194 0.654987 -1.80482 0
M  V30 5676 O 570.395 1.03716 -2.47985 0
M  V30 5677 C 568.666 -1.30198 -3.32841 0
M  V30 5678 S 570.225 -1.16564 -4.23034 0
M  V30 5679 H 567.043 -0.292429 -0.648079 0
M  V30 5680 H 569.645 -1.37334 -1.39139 0
M  V30 5681 H 568.349 -2.3607 -3.35707 0
M  V30 5682 H 567.88 -0.730881 -3.86551 0
M  V30 5683 H 569.895 -0.103557 -4.96092 0
M  V30 5684 N 569.068 1.32177 -0.85831 0
M  V30 5685 C 570.308 1.98927 -0.469822 0
M  V30 5686 C 570.672 1.66423 0.95746 0
M  V30 5687 O 571.873 2.26293 1.45069 0
M  V30 5688 C 570.144 3.50352 -0.706288 0
M  V30 5689 S 571.703 4.36824 -0.415918 0
M  V30 5690 H 568.521 0.688909 -0.175855 0
M  V30 5691 H 571.123 1.60807 -1.11181 0
M  V30 5692 H 569.827 3.71497 -1.74407 0
M  V30 5693 H 569.358 3.93367 -0.0508568 0
M  V30 5694 H 571.373 4.90398 0.756581 0
M  V30 5695 N 570.547 0.616602 1.45037 0
M  V30 5696 C 571.457 -0.0985401 2.34393 0
M  V30 5697 C 572.473 -0.850971 1.51771 0
M  V30 5698 O 573.649 -0.806521 1.84546 0
M  V30 5699 C 570.714 -1.07748 3.29532 0
M  V30 5700 C 569.775 -0.326022 4.2806 0
M  V30 5701 C 569.008 -1.25833 5.18654 0
M  V30 5702 O 569.231 -2.49652 5.12864 0
M  V30 5703 O 568.165 -0.750512 5.97203 0
M  V30 5704 H 571.991 0.636016 2.96966 0
M  V30 5705 H 569.576 0.376832 1.44569 0
M  V30 5706 H 571.458 -1.64107 3.88133 0
M  V30 5707 H 570.133 -1.79291 2.69512 0
M  V30 5708 H 569.04 0.280253 3.73049 0
M  V30 5709 H 570.373 0.349091 4.9096 0
M  V30 5710 N 572.025 -1.5352 0.356285 0
M  V30 5711 C 573.25 -2.06007 -0.239961 0
M  V30 5712 C 573.675 -1.22872 -1.42422 0
M  V30 5713 O 573.033 -0.245516 -1.7963 0
M  V30 5714 C 573.081 -3.5522 -0.620587 0
M  V30 5715 O 572.185 -3.74864 -1.71902 0
M  V30 5716 H 571.526 -0.662961 -0.0371377 0
M  V30 5717 H 574.056 -1.98033 0.514194 0
M  V30 5718 H 574.066 -3.98081 -0.894197 0
M  V30 5719 H 572.741 -4.15175 0.245407 0
M  V30 5720 H 571.318 -3.43904 -1.44169 0
M  V30 5721 N 573.503 -0.0852151 -1.57369 0
M  V30 5722 C 574.914 0.445428 -1.81309 0
M  V30 5723 C 575.265 1.68795 -1.00013 0
M  V30 5724 O 574.39 2.15211 -0.226573 0
M  V30 5725 C 574.985 0.814887 -3.28854 0
M  V30 5726 C 573.544 1.29032 -3.53592 0
M  V30 5727 C 572.691 0.282089 -2.75861 0
M  V30 5728 H 575.642 -0.310771 -1.55627 0
M  V30 5729 H 575.663 1.67524 -3.41637 0
M  V30 5730 H 575.175 -0.0896309 -3.87996 0
M  V30 5731 H 573.276 2.21289 -2.9977 0
M  V30 5732 H 573.389 1.25898 -4.62262 0
M  V30 5733 H 571.753 0.762182 -2.43029 0
M  V30 5734 H 572.536 -0.614936 -3.37748 0
M  V30 5735 N 574.981 1.5647 0.188427 0
M  V30 5736 C 576.227 1.81281 0.909124 0
M  V30 5737 C 576.56 0.66034 1.82628 0
M  V30 5738 O 575.835 -0.338737 1.91528 0
M  V30 5739 C 576.118 3.16388 1.7196 0
M  V30 5740 C 575.971 4.42137 0.826714 0
M  V30 5741 C 577.29 3.48256 2.69083 0
M  V30 5742 H 574.409 0.659457 0.329068 0
M  V30 5743 H 577.051 1.89182 0.176156 0
M  V30 5744 H 575.201 3.09784 2.34448 0
M  V30 5745 H 576.873 4.60794 0.216025 0
M  V30 5746 H 575.116 4.33594 0.133792 0
M  V30 5747 H 575.787 5.33184 1.42893 0
M  V30 5748 H 578.263 3.55203 2.16726 0
M  V30 5749 H 577.139 4.43899 3.2287 0
M  V30 5750 H 577.4 2.72088 3.48455 0
M  V30 5751 N 576.459 -0.456382 1.50847 0
M  V30 5752 C 577.409 -1.55045 1.67168 0
M  V30 5753 C 578.393 -1.52061 0.525958 0
M  V30 5754 O 579.585 -1.58836 0.781036 0
M  V30 5755 C 576.714 -2.93386 1.78268 0
M  V30 5756 C 575.8 -3.01198 2.98564 0
M  V30 5757 N 576.191 -2.78792 4.22029 0
M  V30 5758 C 574.489 -3.32346 2.97426 0
M  V30 5759 C 575.19 -2.91953 5.03128 0
M  V30 5760 N 574.166 -3.22797 4.37382 0
M  V30 5761 H 577.968 -1.36444 2.60308 0
M  V30 5762 H 575.482 -0.663375 1.48233 0
M  V30 5763 H 577.479 -3.72071 1.88067 0
M  V30 5764 H 576.139 -3.13022 0.862965 0
M  V30 5765 H 577.15 -2.54087 4.51287 0
M  V30 5766 H 573.827 -3.57877 2.15012 0
M  V30 5767 H 575.217 -2.78745 6.11351 0
M  V30 5768 N 577.937 -1.40673 -0.710563 0
M  V30 5769 C 579.348 -1.34975 -1.28991 0
M  V30 5770 C 579.699 -0.0256272 -1.96183 0
M  V30 5771 O 578.824 0.876339 -1.97862 0
M  V30 5772 C 579.419 -2.44467 -2.34567 0
M  V30 5773 C 577.978 -2.42213 -2.88114 0
M  V30 5774 C 577.125 -2.25085 -1.61963 0
M  V30 5775 H 580.076 -1.50406 -0.506343 0
M  V30 5776 H 580.097 -2.12663 -3.15523 0
M  V30 5777 H 579.609 -3.40825 -1.85634 0
M  V30 5778 H 577.71 -1.49568 -3.41263 0
M  V30 5779 H 577.823 -3.37983 -3.39565 0
M  V30 5780 H 576.187 -1.72691 -1.87216 0
M  V30 5781 H 576.97 -3.23449 -1.15047 0
M  V30 5782 N 579.415 0.9433 -1.26252 0
M  V30 5783 C 580.663 1.68592 -1.11451 0
M  V30 5784 C 580.984 1.91957 0.343123 0
M  V30 5785 O 580.254 1.51475 1.24226 0
M  V30 5786 H 578.834 0.624789 -0.409448 0
M  V30 5787 H 581.496 1.13351 -1.58548 0
M  V30 5788 H 580.592 2.66054 -1.63162 0
M  V30 5789 N 580.893 1.08022 1.14757 0
M  V30 5790 C 581.823 0.728248 2.21853 0
M  V30 5791 C 582.804 -0.287486 1.67653 0
M  V30 5792 O 583.989 -0.158727 1.9355 0
M  V30 5793 C 581.119 0.132549 3.47047 0
M  V30 5794 C 580.073 1.07619 4.14249 0
M  V30 5795 C 579.399 0.342907 5.33599 0
M  V30 5796 C 580.699 2.41268 4.63235 0
M  V30 5797 H 582.393 1.62365 2.51551 0
M  V30 5798 H 579.939 0.782125 1.20908 0
M  V30 5799 H 581.892 -0.125665 4.21213 0
M  V30 5800 H 580.616 -0.797971 3.16702 0
M  V30 5801 H 579.275 1.31944 3.42033 0
M  V30 5802 H 578.923 -0.59129 4.99513 0
M  V30 5803 H 578.623 0.971955 5.79506 0
M  V30 5804 H 580.147 0.0926538 6.1053 0
M  V30 5805 H 581.561 2.21232 5.28894 0
M  V30 5806 H 579.958 2.9983 5.19829 0
M  V30 5807 H 581.028 3.03079 3.78512 0
M  V30 5808 N 582.371 -1.3172 0.865308 0
M  V30 5809 C 583.787 -1.4958 0.556596 0
M  V30 5810 C 583.987 -1.79763 -0.910353 0
M  V30 5811 O 583.043 -1.87351 -1.6928 0
M  V30 5812 C 584.356 -2.63277 1.45279 0
M  V30 5813 C 585.904 -2.77161 1.45433 0
M  V30 5814 C 586.379 -3.93949 2.33598 0
M  V30 5815 N 587.87 -4.01228 2.31453 0
M  V30 5816 C 588.605 -4.90855 2.96393 0
M  V30 5817 N 588.101 -5.85416 3.70486 0
M  V30 5818 N 589.894 -4.84063 2.85726 0
M  V30 5819 H 582.045 -1.10396 1.81456 0
M  V30 5820 H 584.308 -0.54507 0.775631 0
M  V30 5821 H 584.014 -2.47734 2.49641 0
M  V30 5822 H 583.888 -3.59309 1.14792 0
M  V30 5823 H 586.275 -2.9212 0.41831 0
M  V30 5824 H 586.356 -1.8181 1.79941 0
M  V30 5825 H 586 -3.79748 3.37274 0
M  V30 5826 H 585.93 -4.88598 1.96417 0
M  V30 5827 H 588.421 -3.3357 1.77593 0
M  V30 5828 H 588.734 -6.50525 4.17178 0
M  V30 5829 H 587.079 -5.85409 3.74594 0
M  V30 5830 H 590.27 -4.09163 2.27384 0
M  V30 5831 H 590.443 -5.53708 3.36617 0
M  V30 5832 N 583.85 -0.624285 -1.44708 0
M  V30 5833 C 585.266 -0.289322 -1.56956 0
M  V30 5834 C 585.466 1.20773 -1.61295 0
M  V30 5835 O 584.522 1.9915 -1.55227 0
M  V30 5836 C 585.835 -0.975215 -2.84447 0
M  V30 5837 C 587.383 -0.952709 -2.98148 0
M  V30 5838 C 587.858 -1.61893 -4.28433 0
M  V30 5839 N 589.349 -1.5852 -4.35231 0
M  V30 5840 C 590.084 -2.06969 -5.34744 0
M  V30 5841 N 589.58 -2.63579 -6.40701 0
M  V30 5842 N 591.373 -1.97638 -5.26209 0
M  V30 5843 H 583.524 -1.59612 -1.40135 0
M  V30 5844 H 585.787 -0.669592 -0.671081 0
M  V30 5845 H 585.493 -2.02999 -2.87201 0
M  V30 5846 H 585.367 -0.508749 -3.73753 0
M  V30 5847 H 587.754 0.093568 -2.94952 0
M  V30 5848 H 587.835 -1.4576 -2.10209 0
M  V30 5849 H 587.479 -2.66463 -4.32389 0
M  V30 5850 H 587.409 -1.08893 -5.15218 0
M  V30 5851 H 589.899 -1.17183 -3.59272 0
M  V30 5852 H 590.213 -2.98298 -7.12908 0
M  V30 5853 H 588.558 -2.67626 -6.41406 0
M  V30 5854 H 591.749 -1.5314 -4.42341 0
M  V30 5855 H 591.922 -2.35708 -6.03611 0
M  V30 5856 N 585.328 1.53329 -0.364422 0
M  V30 5857 C 586.576 2.00842 0.225189 0
M  V30 5858 C 586.897 1.25345 1.49378 0
M  V30 5859 O 586.167 0.366396 1.92443 0
M  V30 5860 H 584.747 0.742009 0.0862027 0
M  V30 5861 H 587.409 1.8863 -0.490389 0
M  V30 5862 H 586.505 3.08795 0.452987 0
M  V30 5863 N 586.806 0.0935595 1.57322 0
M  V30 5864 C 587.736 -0.863062 2.16964 0
M  V30 5865 C 588.717 -1.29528 1.10256 0
M  V30 5866 O 589.902 -1.36245 1.38387 0
M  V30 5867 C 587.032 -2.12276 2.74875 0
M  V30 5868 C 585.986 -1.82921 3.86942 0
M  V30 5869 C 585.312 -3.15707 4.31548 0
M  V30 5870 C 586.612 -1.11737 5.10208 0
M  V30 5871 H 588.306 -0.366145 2.97153 0
M  V30 5872 H 585.852 -0.174673 1.42937 0
M  V30 5873 H 587.805 -2.79634 3.1525 0
M  V30 5874 H 586.529 -2.64248 1.91938 0
M  V30 5875 H 585.188 -1.17961 3.47103 0
M  V30 5876 H 584.836 -3.65563 3.45504 0
M  V30 5877 H 584.536 -2.96849 5.07104 0
M  V30 5878 H 586.06 -3.84226 4.74555 0
M  V30 5879 H 587.474 -1.69203 5.47762 0
M  V30 5880 H 585.871 -1.03064 5.91183 0
M  V30 5881 H 586.941 -0.0998818 4.84797 0
M  V30 5882 N 588.284 -1.56567 -0.180126 0
M  V30 5883 C 589.561 -1.7235 -0.924931 0
M  V30 5884 C 589.941 -0.652523 -2.00762 0
M  V30 5885 O 589.289 0.334115 -2.26044 0
M  V30 5886 C 589.499 -3.1523 -1.49771 0
M  V30 5887 C 590.847 -3.75921 -1.97405 0
M  V30 5888 O 591.871 -3.18452 -1.59583 0
M  V30 5889 O 590.73 -4.7681 -2.67048 0
M  V30 5890 H 587.824 -0.703502 -0.434758 0
M  V30 5891 H 590.37 -1.6886 -0.168647 0
M  V30 5892 H 589.142 -3.84656 -0.718027 0
M  V30 5893 H 588.765 -3.23009 -2.31842 0
M  V30 5894 N 589.762 0.448376 -1.51087 0
M  V30 5895 C 591.009 1.19872 -1.63209 0
M  V30 5896 C 591.337 1.91451 -0.343062 0
M  V30 5897 O 590.592 1.83789 0.672321 0
M  V30 5898 C 590.891 2.24866 -2.77795 0
M  V30 5899 C 590.557 1.70378 -4.17471 0
M  V30 5900 C 589.219 1.55241 -4.55471 0
M  V30 5901 C 591.571 1.30203 -5.04675 0
M  V30 5902 C 588.899 0.983844 -5.78392 0
M  V30 5903 C 591.251 0.747798 -6.28165 0
M  V30 5904 C 589.915 0.583233 -6.64947 0
M  V30 5905 H 589.185 0.438642 -0.597222 0
M  V30 5906 H 591.832 0.49136 -1.85089 0
M  V30 5907 H 590.137 3.01598 -2.50092 0
M  V30 5908 H 591.834 2.82723 -2.84374 0
M  V30 5909 H 588.424 1.83134 -3.87505 0
M  V30 5910 H 592.608 1.40723 -4.75932 0
M  V30 5911 H 587.864 0.844007 -6.05546 0
M  V30 5912 H 592.038 0.427927 -6.95084 0
M  V30 5913 H 589.665 0.140532 -7.6007 0
M  V30 5914 N 591.24 1.41047 0.703093 0
M  V30 5915 C 592.487 1.4 1.46309 0
M  V30 5916 C 592.815 0.00654574 1.94499 0
M  V30 5917 O 592.07 -0.980255 1.6938 0
M  V30 5918 C 592.369 2.34686 2.6955 0
M  V30 5919 C 592.035 3.81684 2.40058 0
M  V30 5920 C 590.697 4.21731 2.31725 0
M  V30 5921 C 593.049 4.74525 2.15581 0
M  V30 5922 C 590.377 5.52637 1.97001 0
M  V30 5923 C 592.729 6.05744 1.82366 0
M  V30 5924 C 591.393 6.44819 1.72524 0
M  V30 5925 H 590.663 0.512295 0.535382 0
M  V30 5926 H 593.31 1.73792 0.804275 0
M  V30 5927 H 591.615 1.94122 3.40329 0
M  V30 5928 H 593.312 2.31152 3.27673 0
M  V30 5929 H 589.902 3.49963 2.47435 0
M  V30 5930 H 594.086 4.44395 2.20968 0
M  V30 5931 H 589.342 5.81802 1.87928 0
M  V30 5932 H 593.516 6.77189 1.62444 0
M  V30 5933 H 591.143 7.46168 1.45385 0
M  V30 5934 N 592.718 -0.936591 1.26751 0
M  V30 5935 C 593.65 -2.03991 1.045 0
M  V30 5936 C 594.663 -1.628 0.00394261 0
M  V30 5937 O 595.852 -1.76817 0.244526 0
M  V30 5938 C 592.952 -3.34218 0.561403 0
M  V30 5939 C 592.125 -4.04151 1.67274 0
M  V30 5940 C 591.184 -5.12651 1.1864 0
M  V30 5941 O 590.21 -5.37104 1.88437 0
M  V30 5942 N 591.412 -5.80488 0.037278 0
M  V30 5943 H 594.177 -2.23644 1.99508 0
M  V30 5944 H 591.738 -1.10638 1.18198 0
M  V30 5945 H 593.73 -4.04101 0.220136 0
M  V30 5946 H 592.3 -3.11203 -0.295211 0
M  V30 5947 H 591.52 -3.28121 2.18472 0
M  V30 5948 H 592.808 -4.47626 2.41885 0
M  V30 5949 H 592.206 -5.63064 -0.545494 0
M  V30 5950 H 590.763 -6.5134 -0.244877 0
M  V30 5951 N 594.196 -1.08629 -1.14182 0
M  V30 5952 C 595.421 -0.83902 -1.89671 0
M  V30 5953 C 595.846 0.603332 -1.78161 0
M  V30 5954 O 595.204 1.42301 -1.12339 0
M  V30 5955 C 595.252 -1.26854 -3.37551 0
M  V30 5956 O 594.356 -0.42188 -4.10236 0
M  V30 5957 H 593.697 -0.304545 -0.590041 0
M  V30 5958 H 596.227 -1.4483 -1.44518 0
M  V30 5959 H 596.237 -1.25038 -3.88368 0
M  V30 5960 H 594.912 -2.31901 -3.45246 0
M  V30 5961 H 593.489 -0.503654 -3.69483 0
M  V30 5962 N 595.674 1.31259 -0.872281 0
M  V30 5963 C 597.085 1.78822 -0.536617 0
M  V30 5964 C 597.436 1.71855 0.946594 0
M  V30 5965 O 596.561 1.28769 1.73918 0
M  V30 5966 C 597.156 3.24698 -0.967294 0
M  V30 5967 C 595.715 3.70147 -0.683251 0
M  V30 5968 C 594.862 2.51994 -1.15733 0
M  V30 5969 H 597.813 1.18308 -1.05777 0
M  V30 5970 H 597.834 3.79386 -0.290929 0
M  V30 5971 H 597.346 3.29737 -2.04683 0
M  V30 5972 H 595.447 3.70607 0.384825 0
M  V30 5973 H 595.56 4.62183 -1.2619 0
M  V30 5974 H 593.924 2.48078 -0.577024 0
M  V30 5975 H 594.707 2.59778 -2.24434 0
M  V30 5976 N 597.152 0.631951 1.44375 0
M  V30 5977 C 598.377 0.142146 2.06912 0
M  V30 5978 C 598.802 -1.17456 1.4692 0
M  V30 5979 O 598.16 -1.72074 0.570975 0
M  V30 5980 C 598.208 0.0417952 3.60576 0
M  V30 5981 O 597.312 -1.00194 4.00044 0
M  V30 5982 H 596.653 0.0851491 0.658518 0
M  V30 5983 H 599.183 0.868863 1.85235 0
M  V30 5984 H 599.193 -0.148517 4.0773 0
M  V30 5985 H 597.868 1.0031 4.03622 0
M  V30 5986 H 596.445 -0.786131 3.64519 0
M  V30 5987 N 598.631 -1.53133 0.372548 0
M  V30 5988 C 599.878 -2.01356 -0.214959 0
M  V30 5989 C 600.206 -1.2596 -1.48204 0
M  V30 5990 O 599.461 -0.343511 -1.92662 0
M  V30 5991 C 599.76 -3.53206 -0.545938 0
M  V30 5992 C 599.426 -4.46511 0.627624 0
M  V30 5993 C 598.088 -4.71737 0.949615 0
M  V30 5994 C 600.44 -5.01666 1.41353 0
M  V30 5995 C 597.768 -5.4937 2.05936 0
M  V30 5996 C 600.12 -5.80511 2.51375 0
M  V30 5997 C 598.784 -6.04022 2.84101 0
M  V30 5998 H 598.054 -0.736813 -0.078659 0
M  V30 5999 H 600.701 -1.84682 0.506447 0
M  V30 6000 H 599.006 -3.67864 -1.34845 0
M  V30 6001 H 600.703 -3.87997 -1.01287 0
M  V30 6002 H 597.293 -4.27029 0.366635 0
M  V30 6003 H 601.477 -4.82117 1.17802 0
M  V30 6004 H 596.733 -5.65803 2.31682 0
M  V30 6005 H 600.907 -6.22255 3.12684 0
M  V30 6006 H 598.534 -6.63962 3.70214 0
M  V30 6007 N 600.109 -0.101901 -1.5727 0
M  V30 6008 C 601.349 0.563489 -1.96479 0
M  V30 6009 C 601.713 1.64926 -0.983021 0
M  V30 6010 O 602.914 2.37234 -1.26386 0
M  V30 6011 C 601.185 1.09809 -3.40113 0
M  V30 6012 S 602.744 1.7744 -4.01323 0
M  V30 6013 H 599.562 0.183675 -0.686866 0
M  V30 6014 H 602.164 -0.182922 -1.94642 0
M  V30 6015 H 600.868 0.296447 -4.09328 0
M  V30 6016 H 600.399 1.88018 -3.45562 0
M  V30 6017 H 602.414 3.0591 -3.90683 0
M  V30 6018 N 601.587 1.56661 0.17182 0
M  V30 6019 C 602.998 1.71652 0.734329 0
M  V30 6020 C 603.349 0.712335 1.82812 0
M  V30 6021 O 602.474 -0.126401 2.16031 0
M  V30 6022 C 603.069 3.11226 1.3388 0
M  V30 6023 C 601.628 3.27904 1.84813 0
M  V30 6024 C 600.775 2.67603 0.726917 0
M  V30 6025 H 603.726 1.5861 -0.0535665 0
M  V30 6026 H 603.747 3.09849 2.20849 0
M  V30 6027 H 603.259 3.8429 0.54249 0
M  V30 6028 H 601.36 2.59796 2.6709 0
M  V30 6029 H 601.473 4.35637 1.99392 0
M  V30 6030 H 599.837 2.274 1.14723 0
M  V30 6031 H 600.62 3.43252 -0.0575334 0
M  V30 6032 N 603.065 -0.440357 1.51323 0
M  V30 6033 C 604.013 -1.55492 1.72988 0
M  V30 6034 C 605.007 -1.58564 0.596138 0
M  V30 6035 O 606.213 -1.62345 0.777443 0
M  V30 6036 H 602.588 -0.516532 0.546533 0
M  V30 6037 H 604.559 -1.34392 2.66423 0
M  V30 6038 C 603.308 -2.93176 1.86931 0
M  V30 6039 H 602.631 -2.91543 2.73574 0
M  V30 6040 H 604.071 -3.70537 2.06103 0
M  V30 6041 C 602.53 -3.30988 0.628365 0
M  V30 6042 O 603.06 -4.01106 -0.218367 0
M  V30 6043 N 601.266 -2.86719 0.473339 0
M  V30 6044 H 600.813 -2.2983 1.16345 0
M  V30 6045 H 600.771 -3.12381 -0.355727 0
M  V30 6046 N 604.543 -1.41418 -0.695603 0
M  V30 6047 C 605.954 -1.36335 -1.27552 0
M  V30 6048 C 606.305 -0.0464336 -1.96145 0
M  V30 6049 O 605.43 0.855304 -1.9878 0
M  V30 6050 C 606.025 -2.46941 -2.3196 0
M  V30 6051 C 604.584 -2.45256 -2.85529 0
M  V30 6052 C 603.731 -2.2679 -1.59566 0
M  V30 6053 H 606.682 -1.50934 -0.490362 0
M  V30 6054 H 606.703 -2.15997 -3.1325 0
M  V30 6055 H 606.215 -3.42775 -1.82008 0
M  V30 6056 H 604.316 -1.53179 -3.39657 0
M  V30 6057 H 604.429 -3.41565 -3.35961 0
M  V30 6058 H 602.793 -1.74667 -1.85374 0
M  V30 6059 H 603.576 -3.24651 -1.1161 0
M  V30 6060 N 606.021 0.929856 -1.27246 0
M  V30 6061 C 607.432 1.49223 -1.12203 0
M  V30 6062 C 607.783 1.93989 0.293731 0
M  V30 6063 O 606.908 1.80978 1.18642 0
M  V30 6064 C 607.503 2.71198 -2.0307 0
M  V30 6065 C 606.062 3.23666 -1.92139 0
M  V30 6066 C 605.209 1.96409 -1.95752 0
M  V30 6067 H 608.16 0.744181 -1.4017 0
M  V30 6068 H 608.181 3.45905 -1.58524 0
M  V30 6069 H 607.693 2.38585 -3.06102 0
M  V30 6070 H 605.794 3.61042 -0.920834 0
M  V30 6071 H 605.907 3.90006 -2.78267 0
M  V30 6072 H 604.271 2.12806 -1.39949 0
M  V30 6073 H 605.054 1.66113 -3.00436 0
M  V30 6074 N 607.499 1.09233 1.13605 0
M  V30 6075 C 608.747 0.825525 1.84471 0
M  V30 6076 C 609.068 -0.650702 1.83823 0
M  V30 6077 O 608.338 -1.47204 1.29259 0
M  V30 6078 H 606.918 0.3024 0.683054 0
M  V30 6079 H 609.58 1.38006 1.37624 0
M  V30 6080 H 608.676 1.17727 2.89045 0
M  V30 6081 N 608.977 -1.30795 0.87923 0
M  V30 6082 C 609.907 -2.30742 0.357796 0
M  V30 6083 C 610.888 -1.60747 -0.556283 0
M  V30 6084 O 612.073 -1.88393 -0.47135 0
M  V30 6085 C 609.203 -3.44583 -0.433555 0
M  V30 6086 C 608.157 -4.26235 0.388251 0
M  V30 6087 C 607.483 -5.32073 -0.529352 0
M  V30 6088 C 608.783 -4.96303 1.62729 0
M  V30 6089 H 610.477 -2.74605 1.19299 0
M  V30 6090 H 608.023 -1.32017 0.575104 0
M  V30 6091 H 609.976 -4.13563 -0.808934 0
M  V30 6092 H 608.7 -2.99511 -1.30234 0
M  V30 6093 H 607.359 -3.58936 0.745695 0
M  V30 6094 H 607.007 -4.83249 -1.39569 0
M  V30 6095 H 606.707 -5.87598 0.0166741 0
M  V30 6096 H 608.231 -6.0391 -0.901373 0
M  V30 6097 H 609.645 -5.5783 1.32283 0
M  V30 6098 H 608.042 -5.61666 2.11309 0
M  V30 6099 H 609.112 -4.22758 2.37494 0
M  V30 6100 N 610.455 -0.639598 -1.44038 0
M  V30 6101 C 611.365 0.0612377 -2.3452 0
M  V30 6102 C 612.381 0.826717 -1.53106 0
M  V30 6103 O 613.557 0.777059 -1.85806 0
M  V30 6104 C 610.622 1.02492 -3.31204 0
M  V30 6105 C 609.683 0.25788 -4.28525 0
M  V30 6106 C 608.916 1.17566 -5.2059 0
M  V30 6107 O 609.139 2.41461 -5.16771 0
M  V30 6108 O 608.073 0.655407 -5.98321 0
M  V30 6109 H 611.899 -0.68318 -2.95916 0
M  V30 6110 H 609.484 -0.399784 -1.43952 0
M  V30 6111 H 611.366 1.57911 -3.90694 0
M  V30 6112 H 610.041 1.7498 -2.7233 0
M  V30 6113 H 608.948 -0.339566 -3.72556 0
M  V30 6114 H 610.281 -0.427154 -4.90343 0
M  V30 6115 N 611.933 1.52934 -0.380664 0
M  V30 6116 C 612.896 2.24809 0.446473 0
M  V30 6117 C 613.896 1.26133 0.997347 0
M  V30 6118 O 615.086 1.50297 0.880714 0
M  V30 6119 C 612.218 2.99649 1.62553 0
M  V30 6120 H 613.411 2.99343 -0.182677 0
M  V30 6121 H 610.964 1.55736 -0.132618 0
M  V30 6122 H 611.699 2.29395 2.29235 0
M  V30 6123 H 611.484 3.72066 1.23732 0
M  V30 6124 H 612.974 3.54246 2.21133 0
M  V30 6125 N 613.412 0.11024 1.57214 0
M  V30 6126 C 614.342 -0.840002 2.17867 0
M  V30 6127 C 615.323 -1.28352 1.11624 0
M  V30 6128 O 616.508 -1.3477 1.39824 0
M  V30 6129 C 613.638 -2.09349 2.77111 0
M  V30 6130 C 612.592 -1.78807 3.8886 0
M  V30 6131 C 611.918 -3.11112 4.34872 0
M  V30 6132 C 613.218 -1.0632 5.11364 0
M  V30 6133 H 614.912 -0.334608 2.97524 0
M  V30 6134 H 612.458 -0.159502 1.43114 0
M  V30 6135 H 614.411 -2.76275 3.18198 0
M  V30 6136 H 613.135 -2.62198 1.9473 0
M  V30 6137 H 611.794 -1.14273 3.48335 0
M  V30 6138 H 611.442 -3.61877 3.49362 0
M  V30 6139 H 611.142 -2.91453 5.10224 0
M  V30 6140 H 612.666 -3.79171 4.78604 0
M  V30 6141 H 614.08 -1.63383 5.49526 0
M  V30 6142 H 612.477 -0.967876 5.92243 0
M  V30 6143 H 613.547 -0.0484569 4.84876 0
M  V30 6144 N 614.89 -1.56749 -0.16351 0
M  V30 6145 C 616.115 -1.86938 -0.898264 0
M  V30 6146 C 616.54 -0.697456 -1.74692 0
M  V30 6147 O 615.898 0.353327 -1.77824 0
M  V30 6148 C 615.946 -3.15599 -1.74441 0
M  V30 6149 O 615.05 -2.98371 -2.8469 0
M  V30 6150 H 614.391 -0.614659 -0.251178 0
M  V30 6151 H 616.921 -2.03979 -0.159298 0
M  V30 6152 H 616.931 -3.47202 -2.14277 0
M  V30 6153 H 615.606 -4.00505 -1.1211 0
M  V30 6154 H 614.183 -2.7814 -2.4838 0
M  V30 6155 N 616.368 0.432326 -1.51554 0
M  V30 6156 C 617.779 1.01202 -1.56892 0
M  V30 6157 C 618.13 1.92175 -0.395394 0
M  V30 6158 O 617.255 2.10844 0.487198 0
M  V30 6159 C 617.85 1.84217 -2.8434 0
M  V30 6160 C 616.409 2.37228 -2.92233 0
M  V30 6161 C 615.556 1.16576 -2.51606 0
M  V30 6162 H 618.507 0.213407 -1.57259 0
M  V30 6163 H 618.528 2.69721 -2.68385 0
M  V30 6164 H 618.04 1.17979 -3.69733 0
M  V30 6165 H 616.141 3.06905 -2.11282 0
M  V30 6166 H 616.254 2.69682 -3.95991 0
M  V30 6167 H 614.618 1.51263 -2.04919 0
M  V30 6168 H 615.401 0.519404 -3.39348 0
M  V30 6169 N 617.846 1.41785 0.688094 0
M  V30 6170 C 618.794 1.44436 1.82321 0
M  V30 6171 C 619.788 0.321544 1.6632 0
M  V30 6172 O 620.994 0.493931 1.73091 0
M  V30 6173 H 617.369 0.452084 0.600936 0
M  V30 6174 H 619.34 2.40087 1.77202 0
M  V30 6175 C 618.089 1.35071 3.20392 0
M  V30 6176 H 617.412 2.2076 3.33324 0
M  V30 6177 H 618.852 1.40988 3.99873 0
M  V30 6178 C 617.311 0.0639127 3.36839 0
M  V30 6179 O 617.841 -0.888495 3.91751 0
M  V30 6180 N 616.047 -0.0146114 2.90596 0
M  V30 6181 H 615.594 0.761191 2.46097 0
M  V30 6182 H 615.552 -0.874988 3.01979 0
M  V30 6183 N 619.324 -0.923095 1.27737 0
M  V30 6184 C 620.552 -1.70525 1.17171 0
M  V30 6185 C 620.967 -1.86847 -0.270881 0
M  V30 6186 O 620.324 -1.38879 -1.18401 0
M  V30 6187 C 620.375 -3.10242 1.85559 0
M  V30 6188 O 620.096 -2.94683 3.24182 0
M  V30 6189 C 621.597 -4.04586 1.81176 0
M  V30 6190 H 618.817 -0.533347 0.407163 0
M  V30 6191 H 621.361 -1.15599 1.68692 0
M  V30 6192 H 619.516 -3.62014 1.3793 0
M  V30 6193 H 619.93 -3.83045 3.58297 0
M  V30 6194 H 621.404 -5.00119 2.33633 0
M  V30 6195 H 621.881 -4.3218 0.782099 0
M  V30 6196 H 622.487 -3.58741 2.2844 0
M  V30 6197 N 620.802 -1.09834 -1.13024 0
M  V30 6198 C 622.027 -0.85909 -1.88771 0
M  V30 6199 C 622.452 0.584402 -1.78791 0
M  V30 6200 O 621.81 1.41101 -1.13842 0
M  V30 6201 C 621.858 -1.30427 -3.36186 0
M  V30 6202 O 620.962 -0.465368 -4.09766 0
M  V30 6203 H 620.303 -0.310786 -0.586778 0
M  V30 6204 H 622.833 -1.46355 -1.42973 0
M  V30 6205 H 622.843 -1.2915 -3.8702 0
M  V30 6206 H 621.518 -2.3555 -3.42767 0
M  V30 6207 H 620.095 -0.542814 -3.68928 0
M  V30 6208 N 622.28 1.30327 -0.886154 0
M  V30 6209 C 623.52 1.97886 -0.511912 0
M  V30 6210 C 623.884 1.68417 0.921944 0
M  V30 6211 O 625.085 2.29319 1.40237 0
M  V30 6212 C 623.356 3.48775 -0.780444 0
M  V30 6213 S 624.915 4.35844 -0.508482 0
M  V30 6214 H 621.733 0.685024 -0.190428 0
M  V30 6215 H 624.335 1.58413 -1.14567 0
M  V30 6216 H 623.039 3.67714 -1.82248 0
M  V30 6217 H 622.57 3.93171 -0.134284 0
M  V30 6218 H 624.585 4.91893 0.65239 0
M  V30 6219 N 623.758 0.647228 1.43697 0
M  V30 6220 C 625.174 0.314256 1.56476 0
M  V30 6221 C 625.374 -1.18191 1.63196 0
M  V30 6222 O 624.43 -1.96655 1.58376 0
M  V30 6223 C 625.743 1.02034 2.82859 0
M  V30 6224 C 627.291 1.00002 2.96595 0
M  V30 6225 C 627.766 1.68689 4.25803 0
M  V30 6226 N 629.257 1.65424 4.32654 0
M  V30 6227 C 629.992 2.1545 5.31384 0
M  V30 6228 N 629.488 2.73738 6.36427 0
M  V30 6229 N 631.281 2.05985 5.22998 0
M  V30 6230 H 623.432 1.61821 1.37578 0
M  V30 6231 H 625.695 0.680184 0.660344 0
M  V30 6232 H 625.401 2.07542 2.83935 0
M  V30 6233 H 625.275 0.568146 3.72897 0
M  V30 6234 H 627.662 -0.0466319 2.95063 0
M  V30 6235 H 627.743 1.49086 2.07863 0
M  V30 6236 H 627.387 2.73308 4.28095 0
M  V30 6237 H 627.317 1.17076 5.13421 0
M  V30 6238 H 629.808 1.22884 3.57363 0
M  V30 6239 H 630.121 3.09602 7.08072 0
M  V30 6240 H 628.466 2.77796 6.37067 0
M  V30 6241 H 631.657 1.60157 4.39849 0
M  V30 6242 H 631.83 2.45281 5.99784 0
M  V30 6243 N 625.236 -1.5273 0.388769 0
M  V30 6244 C 626.186 -2.23238 -0.463567 0
M  V30 6245 C 627.17 -1.23606 -1.03007 0
M  V30 6246 O 628.362 -1.48945 -0.956261 0
M  V30 6247 C 625.491 -3.04228 -1.5906 0
M  V30 6248 C 624.577 -4.11255 -1.03587 0
M  V30 6249 N 624.968 -5.0538 -0.206038 0
M  V30 6250 C 623.266 -4.26376 -1.30841 0
M  V30 6251 C 623.967 -5.81613 0.100359 0
M  V30 6252 N 622.943 -5.41264 -0.503447 0
M  V30 6253 H 626.745 -2.93367 0.176978 0
M  V30 6254 H 624.259 -1.61188 0.198046 0
M  V30 6255 H 626.256 -3.53277 -2.21362 0
M  V30 6256 H 624.916 -2.35634 -2.23398 0
M  V30 6257 H 625.927 -5.17663 0.156659 0
M  V30 6258 H 622.604 -3.69011 -1.95287 0
M  V30 6259 H 623.994 -6.67442 0.772676 0
M  V30 6260 N 626.714 -0.118576 -1.57153 0
M  V30 6261 C 627.961 0.539526 -1.9518 0
M  V30 6262 C 628.289 1.66714 -1.00184 0
M  V30 6263 O 627.544 1.95683 -0.0256482 0
M  V30 6264 C 627.843 1.11303 -3.39627 0
M  V30 6265 C 627.509 0.106809 -4.50773 0
M  V30 6266 C 626.171 -0.169876 -4.809 0
M  V30 6267 C 628.523 -0.57895 -5.17975 0
M  V30 6268 C 625.851 -1.13861 -5.75545 0
M  V30 6269 C 628.203 -1.53631 -6.13661 0
M  V30 6270 C 626.867 -1.82099 -6.42181 0
M  V30 6271 H 626.137 0.197427 -0.714215 0
M  V30 6272 H 628.784 -0.199391 -1.90459 0
M  V30 6273 H 627.089 1.92869 -3.4104 0
M  V30 6274 H 628.786 1.63032 -3.66363 0
M  V30 6275 H 625.376 0.332645 -4.27307 0
M  V30 6276 H 629.56 -0.378359 -4.94856 0
M  V30 6277 H 624.816 -1.36592 -5.95947 0
M  V30 6278 H 628.99 -2.07337 -6.64819 0
M  V30 6279 H 626.617 -2.57319 -7.15326 0
M  V30 6280 N 628.193 1.56834 0.155195 0
M  V30 6281 C 629.604 1.72421 0.716082 0
M  V30 6282 C 629.955 0.731685 1.82046 0
M  V30 6283 O 629.08 -0.103481 2.16152 0
M  V30 6284 C 629.675 3.12629 1.30571 0
M  V30 6285 C 628.234 3.29846 1.81325 0
M  V30 6286 C 627.381 2.68359 0.698494 0
M  V30 6287 H 630.332 1.58544 -0.0703861 0
M  V30 6288 H 630.353 3.12174 2.1755 0
M  V30 6289 H 629.865 3.84844 0.501701 0
M  V30 6290 H 627.966 2.62614 2.64319 0
M  V30 6291 H 628.079 4.37727 1.9476 0
M  V30 6292 H 626.443 2.28604 1.12305 0
M  V30 6293 H 627.226 3.43171 -0.0939366 0
M  V30 6294 N 629.671 -0.424282 1.51781 0
M  V30 6295 C 630.601 -1.52305 1.7699 0
M  V30 6296 C 631.582 -1.5839 0.620209 0
M  V30 6297 O 632.767 -1.73908 0.864268 0
M  V30 6298 C 629.897 -2.90271 1.90683 0
M  V30 6299 C 628.851 -2.99043 3.06198 0
M  V30 6300 C 628.177 -4.39116 3.05092 0
M  V30 6301 C 629.477 -2.7192 4.45934 0
M  V30 6302 H 631.171 -1.31461 2.68995 0
M  V30 6303 H 628.717 -0.630985 1.29439 0
M  V30 6304 H 630.67 -3.6711 2.06901 0
M  V30 6305 H 629.394 -3.12376 0.953365 0
M  V30 6306 H 628.053 -2.24646 2.89706 0
M  V30 6307 H 627.701 -4.58207 2.07498 0
M  V30 6308 H 627.401 -4.45912 3.82669 0
M  V30 6309 H 628.925 -5.17911 3.2342 0
M  V30 6310 H 630.339 -3.38487 4.62709 0
M  V30 6311 H 628.736 -2.90111 5.25315 0
M  V30 6312 H 629.806 -1.67445 4.55072 0
M  V30 6313 N 631.149 -1.42148 -0.680565 0
M  V30 6314 C 632.079 -1.4796 -1.80638 0
M  V30 6315 C 633.06 -0.336728 -1.66734 0
M  V30 6316 O 634.245 -0.550247 -1.86242 0
M  V30 6317 C 631.375 -1.37569 -3.18892 0
M  V30 6318 C 630.329 -2.49823 -3.47524 0
M  V30 6319 C 629.655 -2.24491 -4.85291 0
M  V30 6320 C 630.955 -3.92144 -3.44994 0
M  V30 6321 H 632.649 -2.42184 -1.76032 0
M  V30 6322 H 630.195 -1.16566 -0.845481 0
M  V30 6323 H 632.148 -1.40243 -3.97379 0
M  V30 6324 H 630.872 -0.398357 -3.24162 0
M  V30 6325 H 629.531 -2.46455 -2.71395 0
M  V30 6326 H 629.179 -1.25066 -4.87204 0
M  V30 6327 H 628.879 -2.99722 -5.05411 0
M  V30 6328 H 630.403 -2.28906 -5.66069 0
M  V30 6329 H 631.817 -3.97145 -4.13459 0
M  V30 6330 H 630.214 -4.67179 -3.76648 0
M  V30 6331 H 631.284 -4.19225 -2.43676 0
M  V30 6332 N 632.627 0.916307 -1.28225 0
M  V30 6333 C 633.873 1.66765 -1.154 0
M  V30 6334 C 634.206 1.91912 0.297251 0
M  V30 6335 O 633.481 1.51766 1.21644 0
M  V30 6336 C 633.764 3.02715 -1.95028 0
M  V30 6337 C 633.617 2.84738 -3.48201 0
M  V30 6338 C 634.936 4.03215 -1.76369 0
M  V30 6339 H 632.055 0.605205 -0.42059 0
M  V30 6340 H 634.697 1.06255 -1.57512 0
M  V30 6341 H 632.847 3.54365 -1.59242 0
M  V30 6342 H 634.519 2.40118 -3.9388 0
M  V30 6343 H 632.762 2.19848 -3.73964 0
M  V30 6344 H 633.433 3.8127 -3.99171 0
M  V30 6345 H 635.909 3.60617 -2.07593 0
M  V30 6346 H 634.785 4.96306 -2.34459 0
M  V30 6347 H 635.046 4.36288 -0.71452 0
M  V30 6348 N 634.105 1.10431 1.1244 0
M  V30 6349 C 635.33 0.869089 1.88313 0
M  V30 6350 C 635.755 -0.574912 1.79099 0
M  V30 6351 O 635.113 -1.40496 1.14589 0
M  V30 6352 C 635.161 1.32208 3.3549 0
M  V30 6353 O 634.265 0.487092 4.09513 0
M  V30 6354 H 633.606 0.313894 0.585121 0
M  V30 6355 H 636.136 1.47111 1.42195 0
M  V30 6356 H 636.146 1.31201 3.86329 0
M  V30 6357 H 634.821 2.37364 3.41513 0
M  V30 6358 H 633.398 0.562372 3.68635 0
M  V30 6359 N 635.583 -1.29855 0.893053 0
M  V30 6360 C 636.808 -2.00512 0.530066 0
M  V30 6361 C 637.233 -1.66446 -0.876199 0
M  V30 6362 O 636.591 -0.885446 -1.58207 0
M  V30 6363 C 636.639 -3.53308 0.721505 0
M  V30 6364 O 635.743 -4.11764 -0.228994 0
M  V30 6365 H 635.084 -0.630617 0.207891 0
M  V30 6366 H 637.614 -1.6551 1.20282 0
M  V30 6367 H 637.624 -4.03206 0.623599 0
M  V30 6368 H 636.299 -3.77439 1.74678 0
M  V30 6369 H 634.876 -3.72805 -0.0841034 0
M  V30 6370 N 637.061 -0.65484 -1.43351 0
M  V30 6371 C 638.286 -0.175046 -2.0666 0
M  V30 6372 C 638.711 1.15104 -1.4877 0
M  V30 6373 O 638.069 1.71144 -0.598279 0
M  V30 6374 C 638.117 -0.0991544 -3.60464 0
M  V30 6375 O 637.221 0.938169 -4.01587 0
M  V30 6376 H 636.562 -0.0956148 -0.65708 0
M  V30 6377 H 639.092 -0.898222 -1.83829 0
M  V30 6378 H 639.102 0.083632 -4.07914 0
M  V30 6379 H 637.777 -1.06719 -4.01975 0
M  V30 6380 H 636.354 0.72804 -3.65724 0
M  V30 6381 N 638.539 1.52521 -0.396863 0
M  V30 6382 C 639.786 2.01672 0.182898 0
M  V30 6383 C 640.114 1.28302 1.46181 0
M  V30 6384 O 639.369 0.374118 1.92091 0
M  V30 6385 C 639.668 3.5403 0.489677 0
M  V30 6386 C 639.334 4.45456 -0.698581 0
M  V30 6387 C 637.996 4.70166 -1.02454 0
M  V30 6388 C 640.348 4.99354 -1.49316 0
M  V30 6389 C 637.676 5.46024 -2.1465 0
M  V30 6390 C 640.028 5.76439 -2.60579 0
M  V30 6391 C 638.692 5.99426 -2.93675 0
M  V30 6392 H 637.962 0.737971 0.066927 0
M  V30 6393 H 640.609 1.83853 -0.535764 0
M  V30 6394 H 638.914 3.69963 1.28976 0
M  V30 6395 H 640.611 3.8956 0.951018 0
M  V30 6396 H 637.201 4.26392 -0.434525 0
M  V30 6397 H 641.385 4.80182 -1.25457 0
M  V30 6398 H 636.641 5.62046 -2.40654 0
M  V30 6399 H 640.815 6.17202 -3.22544 0
M  V30 6400 H 638.442 6.57988 -3.80731 0
M  V30 6401 N 640.017 0.126909 1.57088 0
M  V30 6402 C 641.242 -0.53997 2.00248 0
M  V30 6403 C 641.667 -1.58927 1.00618 0
M  V30 6404 O 641.025 -1.81288 -0.0210131 0
M  V30 6405 C 641.073 -1.13565 3.4225 0
M  V30 6406 O 640.177 -2.25103 3.45547 0
M  V30 6407 H 639.518 -0.13412 0.650314 0
M  V30 6408 H 642.048 0.217718 2.03438 0
M  V30 6409 H 642.058 -1.46925 3.80627 0
M  V30 6410 H 640.733 -0.367122 4.14277 0
M  V30 6411 H 639.31 -1.93123 3.18995 0
M  V30 6412 N 641.495 -1.56914 -0.146875 0
M  V30 6413 C 642.911 -1.51582 -0.499518 0
M  V30 6414 C 643.111 -0.83535 -1.83369 0
M  V30 6415 O 642.167 -0.405932 -2.49216 0
M  V30 6416 C 643.48 -2.96349 -0.509711 0
M  V30 6417 C 645.028 -3.07288 -0.595217 0
M  V30 6418 C 645.503 -4.53562 -0.636071 0
M  V30 6419 N 646.994 -4.57906 -0.69829 0
M  V30 6420 C 647.729 -5.68462 -0.750886 0
M  V30 6421 N 647.225 -6.88588 -0.76282 0
M  V30 6422 N 649.018 -5.56496 -0.791777 0
M  V30 6423 H 641.169 -1.99547 0.727656 0
M  V30 6424 H 643.432 -0.910113 0.265327 0
M  V30 6425 H 643.138 -3.4939 0.402409 0
M  V30 6426 H 643.012 -3.52307 -1.34758 0
M  V30 6427 H 645.399 -2.54266 -1.49776 0
M  V30 6428 H 645.48 -2.54373 0.2698 0
M  V30 6429 H 645.124 -5.07222 0.262313 0
M  V30 6430 H 645.054 -5.04259 -1.51758 0
M  V30 6431 H 647.545 -3.71429 -0.696362 0
M  V30 6432 H 647.858 -7.68598 -0.804804 0
M  V30 6433 H 646.203 -6.91148 -0.730694 0
M  V30 6434 H 649.394 -4.61562 -0.779624 0
M  V30 6435 H 649.567 -6.42671 -0.829301 0
M  V30 6436 N 642.974 0.416227 -1.52004 0
M  V30 6437 C 644.22 1.16555 -1.6596 0
M  V30 6438 C 644.553 1.90347 -0.384906 0
M  V30 6439 O 643.828 1.84474 0.616405 0
M  V30 6440 C 644.111 2.1657 -2.87696 0
M  V30 6441 C 643.964 1.46722 -4.25197 0
M  V30 6442 C 645.283 3.17321 -3.04951 0
M  V30 6443 H 642.402 0.422369 -0.603965 0
M  V30 6444 H 645.044 0.452141 -1.84542 0
M  V30 6445 H 643.194 2.77411 -2.71985 0
M  V30 6446 H 644.866 0.89056 -4.52622 0
M  V30 6447 H 643.109 0.769263 -4.26925 0
M  V30 6448 H 643.78 2.19665 -5.0641 0
M  V30 6449 H 646.256 2.66552 -3.19514 0
M  V30 6450 H 645.132 3.84573 -3.91656 0
M  V30 6451 H 645.393 3.84643 -2.17951 0
M  V30 6452 N 644.452 1.42507 0.673017 0
M  V30 6453 C 645.729 1.33554 1.42908 0
M  V30 6454 C 646.109 -0.0262211 2.11084 0
M  V30 6455 O 645.457 -1.04181 2.03368 0
M  V30 6456 C 645.667 2.50498 2.43006 0
M  V30 6457 C 647.015 2.92694 3.07596 0
M  V30 6458 O 648.039 2.50401 2.53333 0
M  V30 6459 O 646.898 3.65899 4.05931 0
M  V30 6460 H 643.992 0.526785 0.637516 0
M  V30 6461 H 646.538 1.54518 0.701591 0
M  V30 6462 H 645.31 3.41272 1.9144 0
M  V30 6463 H 644.933 2.3153 3.23233 0
M  V30 6464 N 645.93 -0.909495 1.28709 0
M  V30 6465 C 646.86 -2.0291 1.15542 0
M  V30 6466 C 647.841 -1.7002 0.0521017 0
M  V30 6467 O 649.026 -1.92835 0.229849 0
M  V30 6468 C 646.156 -3.37458 0.820935 0
M  V30 6469 C 645.11 -3.84524 1.87949 0
M  V30 6470 C 644.436 -5.16086 1.39854 0
M  V30 6471 C 645.736 -4.05918 3.28676 0
M  V30 6472 H 647.43 -2.14183 2.09203 0
M  V30 6473 H 644.976 -1.02913 1.00722 0
M  V30 6474 H 646.929 -4.1528 0.715571 0
M  V30 6475 H 645.653 -3.26249 -0.151374 0
M  V30 6476 H 644.312 -3.08911 1.97408 0
M  V30 6477 H 643.96 -5.01284 0.41518 0
M  V30 6478 H 643.66 -5.48547 2.1064 0
M  V30 6479 H 645.184 -5.96459 1.30649 0
M  V30 6480 H 646.598 -4.74252 3.22115 0
M  V30 6481 H 644.995 -4.49717 3.97334 0
M  V30 6482 H 646.065 -3.10583 3.72379 0
M  V30 6483 N 647.408 -1.11026 -1.11852 0
M  V30 6484 C 648.655 -0.85646 -1.83497 0
M  V30 6485 C 648.983 0.617938 -1.84423 0
M  V30 6486 O 648.238 1.47194 -1.28966 0
M  V30 6487 C 648.537 -1.35777 -3.30604 0
M  V30 6488 C 648.203 -2.84465 -3.49843 0
M  V30 6489 C 646.865 -3.25068 -3.54802 0
M  V30 6490 C 649.217 -3.80251 -3.56453 0
M  V30 6491 C 646.545 -4.60194 -3.63921 0
M  V30 6492 C 648.897 -5.15188 -3.67102 0
M  V30 6493 C 647.561 -5.55356 -3.70319 0
M  V30 6494 H 646.831 -0.313401 -0.671462 0
M  V30 6495 H 649.478 -1.38792 -1.31943 0
M  V30 6496 H 647.783 -0.746455 -3.84624 0
M  V30 6497 H 649.48 -1.13779 -3.8452 0
M  V30 6498 H 646.07 -2.52054 -3.46651 0
M  V30 6499 H 650.254 -3.49986 -3.51886 0
M  V30 6500 H 645.51 -4.90728 -3.64686 0
M  V30 6501 H 649.684 -5.89248 -3.71159 0
M  V30 6502 H 647.311 -6.60054 -3.77138 0
M  V30 6503 N 648.886 1.2938 -0.899927 0
M  V30 6504 C 649.834 2.29675 -0.367698 0
M  V30 6505 C 650.828 1.60787 0.533282 0
M  V30 6506 O 652.034 1.75126 0.416058 0
M  V30 6507 H 648.409 0.745284 -0.100279 0
M  V30 6508 H 650.38 2.72008 -1.22696 0
M  V30 6509 C 649.129 3.45512 0.389483 0
M  V30 6510 H 648.452 3.98713 -0.294575 0
M  V30 6511 H 649.892 4.17725 0.726744 0
M  V30 6512 C 648.351 2.969 1.59223 0
M  V30 6513 O 648.881 2.98195 2.69152 0
M  V30 6514 N 647.087 2.52728 1.43447 0
M  V30 6515 H 646.634 2.51873 0.540148 0
M  V30 6516 H 646.592 2.20561 2.24054 0
M  V30 6517 N 650.364 0.662433 1.43002 0
M  V30 6518 C 651.612 0.179237 2.01304 0
M  V30 6519 C 651.933 -1.21428 1.52579 0
M  V30 6520 O 651.203 -1.81294 0.742252 0
M  V30 6521 H 649.783 0.0632725 0.744316 0
M  V30 6522 H 652.445 0.856169 1.75088 0
M  V30 6523 H 651.541 0.170957 3.11631 0
M  V30 6524 N 651.842 -1.52309 0.404946 0
M  V30 6525 C 652.772 -2.29805 -0.41376 0
M  V30 6526 C 653.753 -1.3384 -1.0498 0
M  V30 6527 O 654.938 -1.62745 -1.05961 0
M  V30 6528 C 652.068 -3.11639 -1.53292 0
M  V30 6529 C 651.022 -4.15616 -1.02211 0
M  V30 6530 C 650.348 -4.8577 -2.23455 0
M  V30 6531 C 651.648 -5.2224 -0.0790725 0
M  V30 6532 H 653.342 -2.98493 0.232878 0
M  V30 6533 H 650.888 -1.43552 0.113441 0
M  V30 6534 H 652.841 -3.64618 -2.11262 0
M  V30 6535 H 651.565 -2.40712 -2.20738 0
M  V30 6536 H 650.224 -3.63641 -0.46484 0
M  V30 6537 H 649.872 -4.11376 -2.89445 0
M  V30 6538 H 649.572 -5.56058 -1.89929 0
M  V30 6539 H 651.096 -5.4156 -2.82038 0
M  V30 6540 H 652.51 -5.70485 -0.567438 0
M  V30 6541 H 650.907 -5.99867 0.167167 0
M  V30 6542 H 651.977 -4.77078 0.867447 0
M  V30 6543 N 653.32 -0.135238 -1.57019 0
M  V30 6544 C 654.25 0.805235 -2.19176 0
M  V30 6545 C 655.231 1.2656 -1.13651 0
M  V30 6546 O 656.416 1.32528 -1.4195 0
M  V30 6547 C 653.546 2.04914 -2.80406 0
M  V30 6548 C 652.5 1.72598 -3.91655 0
M  V30 6549 C 651.826 3.04154 -4.39766 0
M  V30 6550 C 653.126 0.981709 -5.12991 0
M  V30 6551 H 654.82 0.287232 -2.98019 0
M  V30 6552 H 652.366 0.136714 -1.4335 0
M  V30 6553 H 654.319 2.71178 -3.22553 0
M  V30 6554 H 653.043 2.59067 -1.98877 0
M  V30 6555 H 651.702 1.08717 -3.50109 0
M  V30 6556 H 651.35 3.56274 -3.55075 0
M  V30 6557 H 651.05 2.83299 -5.14796 0
M  V30 6558 H 652.574 3.71509 -4.84576 0
M  V30 6559 H 653.988 1.5462 -5.52056 0
M  V30 6560 H 652.385 0.873533 -5.93708 0
M  V30 6561 H 653.455 -0.0286887 -4.84892 0
M  V30 6562 N 654.798 1.5699 0.138552 0
M  V30 6563 C 656.046 1.83446 0.848053 0
M  V30 6564 C 656.367 0.71744 1.81322 0
M  V30 6565 O 655.637 -0.260228 1.94164 0
M  V30 6566 H 654.217 0.676792 0.316166 0
M  V30 6567 H 656.879 1.94462 0.130538 0
M  V30 6568 H 655.975 2.78677 1.40518 0
M  V30 6569 N 656.276 -0.40816 1.52223 0
M  V30 6570 C 657.687 -0.986929 1.58482 0
M  V30 6571 C 658.038 -1.91521 0.425917 0
M  V30 6572 O 657.163 -2.11593 -0.453593 0
M  V30 6573 C 657.758 -1.7967 2.87235 0
M  V30 6574 C 656.317 -2.32549 2.9597 0
M  V30 6575 C 655.464 -1.12558 2.53428 0
M  V30 6576 H 658.415 -0.188362 1.57578 0
M  V30 6577 H 658.436 -2.65417 2.72642 0
M  V30 6578 H 657.948 -1.12082 3.71563 0
M  V30 6579 H 656.049 -3.03505 2.16137 0
M  V30 6580 H 656.162 -2.63348 4.00231 0
M  V30 6581 H 654.526 -1.47984 2.07299 0
M  V30 6582 H 655.309 -0.465351 3.40131 0
M  V30 6583 N 657.755 -1.42862 -0.66545 0
M  V30 6584 C 659.001 -1.44043 -1.42757 0
M  V30 6585 C 659.334 -0.0599629 -1.94107 0
M  V30 6586 O 658.609 0.917286 -1.71511 0
M  V30 6587 C 658.892 -2.47266 -2.61786 0
M  V30 6588 C 658.745 -3.94539 -2.16007 0
M  V30 6589 C 660.064 -2.47365 -3.64003 0
M  V30 6590 H 657.183 -0.524506 -0.517748 0
M  V30 6591 H 659.825 -1.74335 -0.755466 0
M  V30 6592 H 657.975 -2.21565 -3.19126 0
M  V30 6593 H 659.647 -4.31254 -1.63762 0
M  V30 6594 H 657.89 -4.07957 -1.47491 0
M  V30 6595 H 658.561 -4.62357 -3.01546 0
M  V30 6596 H 661.037 -2.70243 -3.16399 0
M  V30 6597 H 659.913 -3.21552 -4.44854 0
M  V30 6598 H 660.174 -1.50299 -4.15767 0
M  V30 6599 N 659.233 0.902656 -1.29189 0
M  V30 6600 C 660.165 2.01149 -1.09872 0
M  V30 6601 C 661.178 1.62732 -0.0471046 0
M  V30 6602 O 662.367 1.76107 -0.29132 0
M  V30 6603 C 659.467 3.32612 -0.649818 0
M  V30 6604 C 658.64 3.99574 -1.7793 0
M  V30 6605 C 657.699 5.09325 -1.32191 0
M  V30 6606 O 656.725 5.31919 -2.02611 0
M  V30 6607 N 657.927 5.80185 -0.191171 0
M  V30 6608 H 660.692 2.18276 -2.05368 0
M  V30 6609 H 658.253 1.07466 -1.2109 0
M  V30 6610 H 660.245 4.03375 -0.327199 0
M  V30 6611 H 658.815 3.11876 0.212597 0
M  V30 6612 H 658.035 3.22213 -2.27095 0
M  V30 6613 H 659.323 4.41056 -2.53668 0
M  V30 6614 H 658.721 5.64312 0.396016 0
M  V30 6615 H 657.278 6.5176 0.0721001 0
M  V30 6616 N 660.711 1.11618 1.11262 0
M  V30 6617 C 661.957 0.867463 1.83311 0
M  V30 6618 C 662.29 -0.605366 1.84524 0
M  V30 6619 O 661.565 -1.44704 1.29965 0
M  V30 6620 C 661.848 1.43207 3.30399 0
M  V30 6621 C 661.701 2.97265 3.3757 0
M  V30 6622 C 663.02 1.08454 4.26528 0
M  V30 6623 H 660.139 0.316578 0.665543 0
M  V30 6624 H 662.781 1.38137 1.30454 0
M  V30 6625 H 660.931 0.994982 3.75543 0
M  V30 6626 H 662.603 3.49591 3.00971 0
M  V30 6627 H 660.846 3.33237 2.77733 0
M  V30 6628 H 661.517 3.31859 4.41105 0
M  V30 6629 H 663.993 1.4619 3.89574 0
M  V30 6630 H 662.869 1.50633 5.27826 0
M  V30 6631 H 663.13 -0.00444568 4.421 0
M  V30 6632 N 662.189 -1.289 0.906776 0
M  V30 6633 C 663.417 -1.99401 0.551969 0
M  V30 6634 C 663.832 -1.67816 -0.865048 0
M  V30 6635 O 663.189 -0.927078 -1.57199 0
M  V30 6636 C 663.24 -3.53779 0.743152 0
M  V30 6637 O 662.961 -3.84248 2.1044 0
M  V30 6638 C 664.462 -4.41543 0.39424 0
M  V30 6639 H 661.682 -0.636926 0.211106 0
M  V30 6640 H 664.226 -1.64266 1.21807 0
M  V30 6641 H 662.381 -3.87201 0.124143 0
M  V30 6642 H 662.795 -4.78904 2.13895 0
M  V30 6643 H 664.269 -5.48957 0.578814 0
M  V30 6644 H 664.746 -4.34073 -0.669137 0
M  V30 6645 H 665.352 -4.13605 0.990491 0
M  V30 6646 N 663.667 -0.670007 -1.42649 0
M  V30 6647 C 664.63 0.00204659 -2.292 0
M  V30 6648 C 665.63 0.733817 -1.4308 0
M  V30 6649 O 666.82 0.57254 -1.64522 0
M  V30 6650 C 663.952 1.01359 -3.25483 0
M  V30 6651 H 665.145 -0.759696 -2.90118 0
M  V30 6652 H 662.698 -0.432105 -1.50208 0
M  V30 6653 H 663.433 1.80399 -2.69493 0
M  V30 6654 H 663.218 0.492323 -3.88997 0
M  V30 6655 H 664.708 1.4824 -3.90403 0
M  V30 6656 N 665.145 1.52092 -0.413018 0
M  V30 6657 C 666.075 2.30021 0.401567 0
M  V30 6658 C 667.056 1.34395 1.04269 0
M  V30 6659 O 668.241 1.63304 1.05097 0
M  V30 6660 C 665.371 3.12447 1.51638 0
M  V30 6661 C 664.325 4.16153 1.00005 0
M  V30 6662 C 663.651 4.86948 2.20875 0
M  V30 6663 C 664.951 5.22275 0.0513757 0
M  V30 6664 H 666.645 2.98365 -0.248704 0
M  V30 6665 H 664.191 1.4349 -0.121052 0
M  V30 6666 H 666.144 3.65733 2.09326 0
M  V30 6667 H 664.868 2.41879 2.19458 0
M  V30 6668 H 663.527 3.63882 0.445549 0
M  V30 6669 H 663.175 4.12905 2.8726 0
M  V30 6670 H 662.875 5.57057 1.86978 0
M  V30 6671 H 664.399 5.43048 2.79162 0
M  V30 6672 H 665.813 5.70778 0.537176 0
M  V30 6673 H 664.21 5.9977 -0.198977 0
M  V30 6674 H 665.28 4.76611 -0.892736 0
M  V30 6675 N 666.623 0.143563 1.56945 0
M  V30 6676 C 667.853 -0.514699 2.00086 0
M  V30 6677 C 668.261 -1.59184 1.0226 0
M  V30 6678 O 667.604 -1.83697 0.0110514 0
M  V30 6679 C 667.666 -1.17778 3.39659 0
M  V30 6680 C 667.33 -0.245657 4.56339 0
M  V30 6681 C 668.327 0.525343 5.17239 0
M  V30 6682 C 666.012 -0.149564 5.02077 0
M  V30 6683 C 668.006 1.37992 6.22284 0
M  V30 6684 C 665.693 0.708621 6.06978 0
M  V30 6685 C 666.691 1.47197 6.6695 0
M  V30 6686 O 666.379 2.31586 7.6982 0
M  V30 6687 H 666.111 -0.138789 0.661599 0
M  V30 6688 H 668.665 0.234098 2.04062 0
M  V30 6689 H 666.895 -1.97415 3.32512 0
M  V30 6690 H 668.584 -1.73542 3.6693 0
M  V30 6691 H 669.35 0.461118 4.82803 0
M  V30 6692 H 665.229 -0.733457 4.55128 0
M  V30 6693 H 668.773 1.97621 6.69023 0
M  V30 6694 H 664.67 0.77415 6.40841 0
M  V30 6695 H 665.438 2.24796 7.87025 0
M  V30 6696 N 668.101 -1.57061 -0.130224 0
M  V30 6697 C 669.347 -1.8453 -0.841216 0
M  V30 6698 C 669.68 -0.727666 -1.80052 0
M  V30 6699 O 668.955 0.267419 -1.92653 0
M  V30 6700 C 669.238 -3.22553 -1.60099 0
M  V30 6701 C 669.091 -4.44901 -0.662048 0
M  V30 6702 C 670.41 -3.58003 -2.55973 0
M  V30 6703 H 667.529 -0.671215 -0.304366 0
M  V30 6704 H 670.171 -1.89705 -0.105821 0
M  V30 6705 H 668.321 -3.18272 -2.22789 0
M  V30 6706 H 669.993 -4.61278 -0.0448559 0
M  V30 6707 H 668.236 -4.33791 0.0272253 0
M  V30 6708 H 668.907 -5.3812 -1.23006 0
M  V30 6709 H 671.383 -3.63002 -2.03393 0
M  V30 6710 H 670.259 -4.55576 -3.06172 0
M  V30 6711 H 670.52 -2.84833 -3.38116 0
M  V30 6712 N 669.579 0.400081 -1.52437 0
M  V30 6713 C 670.807 1.16768 -1.70801 0
M  V30 6714 C 671.222 1.84036 -0.421462 0
M  V30 6715 O 670.579 1.72242 0.603228 0
M  V30 6716 C 670.63 2.22403 -2.8499 0
M  V30 6717 O 670.351 1.57879 -4.08663 0
M  V30 6718 C 671.852 3.11974 -3.1494 0
M  V30 6719 H 669.072 0.350533 -0.57216 0
M  V30 6720 H 671.616 0.469534 -1.99037 0
M  V30 6721 H 669.771 2.87871 -2.59247 0
M  V30 6722 H 670.185 2.27982 -4.7236 0
M  V30 6723 H 671.659 3.82148 -3.9833 0
M  V30 6724 H 672.136 3.74858 -2.28863 0
M  V30 6725 H 672.742 2.52165 -3.42481 0
M  V30 6726 N 671.057 1.43213 0.657864 0
M  V30 6727 C 672.473 1.26511 0.972992 0
M  V30 6728 C 672.673 0.181477 2.00681 0
M  V30 6729 O 671.729 -0.441649 2.48608 0
M  V30 6730 C 673.042 2.62784 1.46168 0
M  V30 6731 C 674.59 2.70278 1.57857 0
M  V30 6732 C 675.065 4.06958 2.10117 0
M  V30 6733 N 676.556 4.08999 2.17426 0
M  V30 6734 C 677.291 5.11585 2.58975 0
M  V30 6735 N 676.787 6.24548 2.99853 0
M  V30 6736 N 678.58 4.9894 2.58873 0
M  V30 6737 H 670.731 2.12384 -0.0263129 0
M  V30 6738 H 672.994 0.946638 0.0507992 0
M  V30 6739 H 672.7 3.43022 0.776474 0
M  V30 6740 H 672.574 2.87863 2.43751 0
M  V30 6741 H 674.961 1.90376 2.25479 0
M  V30 6742 H 675.042 2.4897 0.587179 0
M  V30 6743 H 674.686 4.87325 1.43098 0
M  V30 6744 H 674.616 4.25628 3.10078 0
M  V30 6745 H 677.107 3.27457 1.88627 0
M  V30 6746 H 677.42 6.98661 3.30292 0
M  V30 6747 H 675.765 6.28027 2.97669 0
M  V30 6748 H 678.956 4.09757 2.26311 0
M  V30 6749 H 679.129 5.79019 2.90932 0
M  V30 6750 N 672.536 -0.895792 1.29666 0
M  V30 6751 C 673.466 -2.01673 1.17688 0
M  V30 6752 C 674.447 -1.69955 0.0701317 0
M  V30 6753 O 675.632 -1.9258 0.250289 0
M  V30 6754 C 672.762 -3.36568 0.856681 0
M  V30 6755 C 671.716 -3.82509 1.92017 0
M  V30 6756 C 671.042 -5.14574 1.4532 0
M  V30 6757 C 672.342 -4.02409 3.32963 0
M  V30 6758 H 674.036 -2.11953 2.11463 0
M  V30 6759 H 671.582 -1.01839 1.01807 0
M  V30 6760 H 673.535 -4.14498 0.759577 0
M  V30 6761 H 672.259 -3.26391 -0.116763 0
M  V30 6762 H 670.918 -3.068 2.00673 0
M  V30 6763 H 670.566 -5.00815 0.468325 0
M  V30 6764 H 670.266 -5.46283 2.16447 0
M  V30 6765 H 671.79 -5.9504 1.36968 0
M  V30 6766 H 673.204 -4.70808 3.27127 0
M  V30 6767 H 671.601 -4.45478 4.02082 0
M  V30 6768 H 672.671 -3.06616 3.75652 0
M  V30 6769 N 674.014 -1.12206 -1.10668 0
M  V30 6770 C 675.291 -0.787382 -1.79052 0
M  V30 6771 C 675.671 0.723267 -1.98323 0
M  V30 6772 O 675.019 1.6561 -1.57434 0
M  V30 6773 C 675.229 -1.55968 -3.1221 0
M  V30 6774 C 676.577 -1.74413 -3.87125 0
M  V30 6775 O 677.601 -1.5246 -3.21923 0
M  V30 6776 O 676.46 -2.10952 -5.04144 0
M  V30 6777 H 673.554 -0.286137 -0.775922 0
M  V30 6778 H 676.1 -1.22595 -1.1734 0
M  V30 6779 H 674.872 -2.58692 -2.93588 0
M  V30 6780 H 674.495 -1.1152 -3.8164 0
M  V30 6781 N 675.492 1.28418 -0.913599 0
M  V30 6782 C 676.44 2.29272 -0.392037 0
M  V30 6783 C 677.434 1.61344 0.516198 0
M  V30 6784 O 678.64 1.75557 0.39746 0
M  V30 6785 H 675.015 0.744178 -0.108178 0
M  V30 6786 H 676.986 2.70691 -1.25574 0
M  V30 6787 C 675.735 3.45905 0.352815 0
M  V30 6788 H 675.058 3.98378 -0.336848 0
M  V30 6789 H 676.498 4.18473 0.682398 0
M  V30 6790 C 674.957 2.98572 1.56065 0
M  V30 6791 O 675.487 3.01033 2.65974 0
M  V30 6792 N 673.693 2.54235 1.40759 0
M  V30 6793 H 673.24 2.52432 0.513403 0
M  V30 6794 H 673.198 2.22925 2.21702 0
M  V30 6795 N 676.97 0.677563 1.42291 0
M  V30 6796 C 678.216 0.201272 2.01799 0
M  V30 6797 C 678.549 -1.19004 1.53465 0
M  V30 6798 O 677.824 -1.79953 0.738039 0
M  V30 6799 C 678.107 0.238968 3.59306 0
M  V30 6800 C 677.96 1.66594 4.17812 0
M  V30 6801 C 679.279 -0.411287 4.38174 0
M  V30 6802 H 676.398 0.0746114 0.733214 0
M  V30 6803 H 679.04 0.862872 1.69276 0
M  V30 6804 H 677.19 -0.324368 3.87144 0
M  V30 6805 H 678.862 2.28173 4.00917 0
M  V30 6806 H 677.105 2.20576 3.73536 0
M  V30 6807 H 677.776 1.64398 5.26951 0
M  V30 6808 H 680.252 0.0682804 4.16044 0
M  V30 6809 H 679.128 -0.354286 5.47755 0
M  V30 6810 H 679.389 -1.4893 4.1626 0
M  V30 6811 N 678.448 -1.51871 0.421078 0
M  V30 6812 C 679.676 -2.06356 -0.14994 0
M  V30 6813 C 680.091 -1.29006 -1.37851 0
M  V30 6814 O 679.448 -0.345139 -1.79207 0
M  V30 6815 C 679.499 -3.58185 -0.488454 0
M  V30 6816 O 679.22 -4.32611 0.691341 0
M  V30 6817 C 680.721 -4.29129 -1.11191 0
M  V30 6818 H 677.941 -0.67083 -0.0151186 0
M  V30 6819 H 680.485 -1.95638 0.595476 0
M  V30 6820 H 678.64 -3.68871 -1.18376 0
M  V30 6821 H 679.054 -5.22927 0.405906 0
M  V30 6822 H 680.528 -5.36501 -1.29889 0
M  V30 6823 H 681.005 -3.86371 -2.0884 0
M  V30 6824 H 681.611 -4.22843 -0.456458 0
M  V30 6825 N 679.926 -0.151884 -1.56866 0
M  V30 6826 C 681.172 0.498742 -1.96572 0
M  V30 6827 C 681.505 1.64194 -1.03702 0
M  V30 6828 O 680.78 1.94334 -0.0803432 0
M  V30 6829 C 681.063 1.00027 -3.45929 0
M  V30 6830 C 680.916 -0.141767 -4.49577 0
M  V30 6831 C 682.235 1.88044 -3.97904 0
M  V30 6832 H 679.354 0.17982 -0.714726 0
M  V30 6833 H 681.996 -0.234097 -1.88552 0
M  V30 6834 H 680.146 1.62476 -3.52894 0
M  V30 6835 H 681.818 -0.778269 -4.54687 0
M  V30 6836 H 680.061 -0.80019 -4.26356 0
M  V30 6837 H 680.732 0.250947 -5.51429 0
M  V30 6838 H 683.208 1.35416 -3.93449 0
M  V30 6839 H 682.084 2.20043 -5.02864 0
M  V30 6840 H 682.345 2.81916 -3.40552 0
M  V30 6841 N 681.404 1.57128 0.121893 0
M  V30 6842 C 682.367 1.99197 1.13372 0
M  V30 6843 C 683.367 0.881728 1.3447 0
M  V30 6844 O 684.557 1.14783 1.31036 0
M  V30 6845 C 681.689 2.32963 2.4888 0
M  V30 6846 H 682.882 2.89788 0.772204 0
M  V30 6847 H 680.435 1.51952 0.366093 0
M  V30 6848 H 681.17 1.45243 2.89957 0
M  V30 6849 H 680.955 3.13934 2.34921 0
M  V30 6850 H 682.445 2.66261 3.21706 0
M  V30 6851 N 682.882 -0.391992 1.52647 0
M  V30 6852 C 683.832 -1.47815 1.73594 0
M  V30 6853 C 684.816 -1.49693 0.589979 0
M  V30 6854 O 686.008 -1.5538 0.847701 0
M  V30 6855 C 683.137 -2.85561 1.90551 0
M  V30 6856 C 682.223 -2.88264 3.1107 0
M  V30 6857 N 682.614 -2.60642 4.33474 0
M  V30 6858 C 680.912 -3.19432 3.11254 0
M  V30 6859 C 681.613 -2.70351 5.15058 0
M  V30 6860 N 680.589 -3.03956 4.50679 0
M  V30 6861 H 684.391 -1.2528 2.65861 0
M  V30 6862 H 681.905 -0.599907 1.50913 0
M  V30 6863 H 683.902 -3.63759 2.03678 0
M  V30 6864 H 682.562 -3.09081 0.994952 0
M  V30 6865 H 683.573 -2.34718 4.61658 0
M  V30 6866 H 680.25 -3.48436 2.29997 0
M  V30 6867 H 681.64 -2.52565 6.22624 0
M  V30 6868 N 684.36 -1.4356 -0.65026 0
M  V30 6869 C 685.293 -1.434 -1.77515 0
M  V30 6870 C 686.271 -0.295082 -1.599 0
M  V30 6871 O 687.455 -0.489128 -1.82043 0
M  V30 6872 C 684.582 -1.2484 -3.14853 0
M  V30 6873 C 683.628 -2.42046 -3.51163 0
M  V30 6874 S 684.461 -4.04595 -3.50803 0
M  V30 6875 C 685.617 -3.88424 -4.90793 0
M  V30 6876 H 685.85 -2.38586 -1.77381 0
M  V30 6877 H 683.383 -1.30627 -0.823169 0
M  V30 6878 H 685.341 -1.14819 -3.94115 0
M  V30 6879 H 684.002 -0.311977 -3.12547 0
M  V30 6880 H 683.195 -2.24873 -4.51052 0
M  V30 6881 H 682.797 -2.48708 -2.79321 0
M  V30 6882 H 685.089 -3.50932 -5.79528 0
M  V30 6883 H 686.032 -4.88076 -5.13018 0
M  V30 6884 H 686.44 -3.20829 -4.64467 0
M  V30 6885 N 685.838 0.888903 -1.30139 0
M  V30 6886 C 687.086 1.63713 -1.18501 0
M  V30 6887 C 687.407 1.9324 0.261399 0
M  V30 6888 O 686.677 1.56608 1.17689 0
M  V30 6889 H 685.257 0.606861 -0.435579 0
M  V30 6890 H 687.919 1.06525 -1.63213 0
M  V30 6891 H 687.015 2.58894 -1.743 0
M  V30 6892 N 687.317 1.12792 1.10072 0
M  V30 6893 C 688.545 0.908506 1.85886 0
M  V30 6894 C 688.96 -0.542408 1.80841 0
M  V30 6895 O 688.317 -1.37517 1.1998 0
M  V30 6896 C 688.368 1.37973 3.34134 0
M  V30 6897 O 688.089 2.77378 3.39106 0
M  V30 6898 C 689.59 1.1978 4.26811 0
M  V30 6899 H 686.81 0.3244 0.587372 0
M  V30 6900 H 689.354 1.49882 1.39125 0
M  V30 6901 H 687.509 0.832566 3.78348 0
M  V30 6902 H 687.923 2.98144 4.31521 0
M  V30 6903 H 689.397 1.57635 5.29014 0
M  V30 6904 H 689.874 0.138768 4.38981 0
M  V30 6905 H 690.48 1.73266 3.88406 0
M  V30 6906 N 688.795 -1.27931 0.920396 0
M  V30 6907 C 689.728 -2.2537 0.358285 0
M  V30 6908 C 690.706 -1.53328 -0.541242 0
M  V30 6909 O 691.89 -1.82196 -0.483399 0
M  V30 6910 C 689.017 -3.35178 -0.487193 0
M  V30 6911 C 688.063 -4.25079 0.347881 0
M  V30 6912 S 688.896 -5.05792 1.75883 0
M  V30 6913 C 690.052 -6.19089 0.920832 0
M  V30 6914 H 690.285 -2.72701 1.18413 0
M  V30 6915 H 687.818 -1.36474 0.722088 0
M  V30 6916 H 689.776 -3.98895 -0.96916 0
M  V30 6917 H 688.437 -2.865 -1.28749 0
M  V30 6918 H 687.63 -5.03113 -0.298912 0
M  V30 6919 H 687.232 -3.66119 0.763748 0
M  V30 6920 H 689.524 -6.77326 0.15349 0
M  V30 6921 H 690.467 -6.8803 1.67394 0
M  V30 6922 H 690.875 -5.62573 0.466069 0
M  V30 6923 N 690.273 -0.685099 -1.4193 0
M  V30 6924 C 691.55 -0.140152 -1.95097 0
M  V30 6925 C 691.93 1.34745 -1.62502 0
M  V30 6926 O 691.278 2.08872 -0.926534 0
M  V30 6927 C 691.488 -0.420268 -3.4646 0
M  V30 6928 C 692.836 -0.342338 -4.23218 0
M  V30 6929 O 693.86 -0.354592 -3.54431 0
M  V30 6930 O 692.719 -0.293404 -5.45712 0
M  V30 6931 H 689.813 -0.00885998 -0.826953 0
M  V30 6932 H 692.359 -0.760539 -1.51703 0
M  V30 6933 H 691.131 -1.45037 -3.63428 0
M  V30 6934 H 690.754 0.231616 -3.96925 0
M  V30 6935 N 691.751 1.51645 -0.429126 0
M  V30 6936 C 692.999 2.01616 0.139802 0
M  V30 6937 C 693.32 1.31568 1.43927 0
M  V30 6938 O 692.59 0.447688 1.90716 0
M  V30 6939 H 691.17 0.744998 0.054654 0
M  V30 6940 H 693.832 1.8638 -0.569952 0
M  V30 6941 H 692.928 3.10439 0.321609 0
M  V30 6942 N 693.229 0.160201 1.56784 0
M  V30 6943 C 694.645 -0.196089 1.58391 0
M  V30 6944 C 694.845 -1.63689 1.17508 0
M  V30 6945 O 693.901 -2.36613 0.881506 0
M  V30 6946 C 695.214 0.0746449 3.00607 0
M  V30 6947 C 696.762 0.0119762 3.12998 0
M  V30 6948 C 697.237 0.255551 4.57286 0
M  V30 6949 N 698.728 0.202938 4.62755 0
M  V30 6950 C 699.463 0.365731 5.72232 0
M  V30 6951 N 698.959 0.586972 6.90309 0
M  V30 6952 N 700.752 0.302411 5.61286 0
M  V30 6953 H 692.903 1.1008 1.81648 0
M  V30 6954 H 695.166 0.436779 0.841384 0
M  V30 6955 H 694.872 1.07231 3.34954 0
M  V30 6956 H 694.746 -0.638802 3.71751 0
M  V30 6957 H 697.133 -0.976254 2.78484 0
M  V30 6958 H 697.214 0.75796 2.44313 0
M  V30 6959 H 696.858 1.24094 4.92507 0
M  V30 6960 H 696.788 -0.510912 5.24116 0
M  V30 6961 H 699.279 0.0371328 3.77882 0
M  V30 6962 H 699.592 0.700941 7.69615 0
M  V30 6963 H 697.937 0.623453 6.92198 0
M  V30 6964 H 701.128 0.130238 4.67919 0
M  V30 6965 H 701.301 0.432712 6.46554 0
M  V30 6966 N 694.707 -1.5719 -0.113559 0
M  V30 6967 C 695.956 -1.84325 -0.818984 0
M  V30 6968 C 696.269 -0.746685 -1.80787 0
M  V30 6969 O 697.475 -0.904596 -2.55987 0
M  V30 6970 C 695.931 -3.26818 -1.50724 0
M  V30 6971 C 695.539 -4.44498 -0.559065 0
M  V30 6972 C 697.283 -3.63196 -2.19748 0
M  V30 6973 C 695.19 -5.7802 -1.25086 0
M  V30 6974 H 694.12 -0.687507 -0.309596 0
M  V30 6975 H 696.771 -1.8336 -0.0717621 0
M  V30 6976 H 695.153 -3.22269 -2.30128 0
M  V30 6977 H 696.327 -4.60356 0.202146 0
M  V30 6978 H 694.642 -4.16393 0.024495 0
M  V30 6979 H 697.239 -4.60226 -2.72206 0
M  V30 6980 H 697.582 -2.90899 -2.97798 0
M  V30 6981 H 698.115 -3.69553 -1.47226 0
M  V30 6982 H 694.854 -6.53501 -0.511539 0
M  V30 6983 H 694.374 -5.66038 -1.98395 0
M  V30 6984 H 696.053 -6.2196 -1.78253 0
M  V30 6985 N 696.185 0.383891 -1.52853 0
M  V30 6986 C 697.115 1.47559 -1.80965 0
M  V30 6987 C 698.096 1.5669 -0.661986 0
M  V30 6988 O 699.281 1.71556 -0.910072 0
M  V30 6989 C 696.411 2.85114 -1.98312 0
M  V30 6990 C 695.365 2.9082 -3.14019 0
M  V30 6991 C 694.691 4.30873 -3.16627 0
M  V30 6992 C 695.991 2.60001 -4.52986 0
M  V30 6993 H 697.685 1.24283 -2.72386 0
M  V30 6994 H 695.231 0.596445 -1.31067 0
M  V30 6995 H 697.184 3.61496 -2.16561 0
M  V30 6996 H 695.908 3.09738 -1.03585 0
M  V30 6997 H 694.567 2.16886 -2.9556 0
M  V30 6998 H 694.215 4.52545 -2.19573 0
M  V30 6999 H 693.915 4.3561 -3.94357 0
M  V30 7000 H 695.439 5.09154 -3.37038 0
M  V30 7001 H 696.853 3.261 -4.71521 0
M  V30 7002 H 695.25 2.76081 -5.32822 0
M  V30 7003 H 696.32 1.5532 -4.59351 0
M  V30 7004 N 697.663 1.43903 0.642637 0
M  V30 7005 C 698.595 1.45857 1.768 0
M  V30 7006 C 699.608 0.353358 1.58919 0
M  V30 7007 O 700.797 0.618426 1.67445 0
M  V30 7008 C 697.897 1.26583 3.14372 0
M  V30 7009 C 697.07 2.50139 3.58817 0
M  V30 7010 C 696.129 2.25933 4.75227 0
M  V30 7011 O 695.155 2.99351 4.84125 0
M  V30 7012 N 696.357 1.28263 5.66153 0
M  V30 7013 H 699.122 2.42869 1.75598 0
M  V30 7014 H 696.683 1.39194 0.826832 0
M  V30 7015 H 698.675 1.08255 3.89953 0
M  V30 7016 H 697.245 0.37978 3.10284 0
M  V30 7017 H 696.465 2.83821 2.73568 0
M  V30 7018 H 697.753 3.32344 3.8526 0
M  V30 7019 H 697.151 0.676041 5.61646 0
M  V30 7020 H 695.708 1.15916 6.4141 0
M  V30 7021 N 699.141 -0.881989 1.30609 0
M  V30 7022 C 700.387 -1.63647 1.19781 0
M  V30 7023 C 700.72 -1.92632 -0.246265 0
M  V30 7024 O 699.995 -1.54938 -1.17577 0
M  V30 7025 C 700.278 -2.97437 2.02985 0
M  V30 7026 C 700.131 -2.75406 3.55628 0
M  V30 7027 C 701.45 -3.98397 1.86997 0
M  V30 7028 H 698.569 -0.593841 0.436488 0
M  V30 7029 H 701.211 -1.02041 1.60273 0
M  V30 7030 H 699.361 -3.50018 1.68581 0
M  V30 7031 H 701.033 -2.2959 4.00107 0
M  V30 7032 H 699.276 -2.09856 3.79662 0
M  V30 7033 H 699.947 -3.70552 4.09139 0
M  V30 7034 H 702.423 -3.54986 2.17081 0
M  V30 7035 H 701.299 -4.89916 2.47536 0
M  V30 7036 H 701.56 -4.3424 0.829943 0
M  V30 7037 N 700.619 -1.13374 -1.09472 0
M  V30 7038 C 701.529 -0.824029 -2.19652 0
M  V30 7039 C 702.545 0.19118 -1.72947 0
M  V30 7040 O 703.721 0.0223464 -2.01388 0
M  V30 7041 C 700.786 -0.294009 -3.45451 0
M  V30 7042 C 699.847 -1.3704 -4.0684 0
M  V30 7043 C 699.08 -0.86558 -5.26634 0
M  V30 7044 O 699.303 0.29702 -5.69626 0
M  V30 7045 O 698.237 -1.63968 -5.79136 0
M  V30 7046 H 702.063 -1.74454 -2.48595 0
M  V30 7047 H 699.648 -0.911155 -1.18399 0
M  V30 7048 H 701.53 -0.00381039 -4.214 0
M  V30 7049 H 700.205 0.598921 -3.18111 0
M  V30 7050 H 699.112 -1.71391 -3.3253 0
M  V30 7051 H 700.445 -2.23746 -4.38405 0
M  V30 7052 N 702.098 1.27442 -0.927168 0
M  V30 7053 C 703.028 2.29256 -0.443188 0
M  V30 7054 C 704.009 1.62701 0.49624 0
M  V30 7055 O 705.194 1.90013 0.401105 0
M  V30 7056 C 702.324 3.45955 0.305366 0
M  V30 7057 C 701.278 4.24501 -0.546178 0
M  V30 7058 C 700.604 5.33671 0.331512 0
M  V30 7059 C 701.904 4.89921 -1.81037 0
M  V30 7060 H 703.598 2.69988 -1.29409 0
M  V30 7061 H 701.144 1.29792 -0.623705 0
M  V30 7062 H 703.097 4.1628 0.654885 0
M  V30 7063 H 701.821 3.04138 1.19029 0
M  V30 7064 H 700.48 3.55921 -0.878398 0
M  V30 7065 H 700.128 4.88096 1.21537 0
M  V30 7066 H 699.828 5.87131 -0.234746 0
M  V30 7067 H 701.352 6.0684 0.676614 0
M  V30 7068 H 702.766 5.52536 -1.52895 0
M  V30 7069 H 701.163 5.53436 -2.32009 0
M  V30 7070 H 702.233 4.13652 -2.53021 0
M  V30 7071 N 703.576 0.692616 1.41565 0
M  V30 7072 C 704.822 0.222664 2.01574 0
M  V30 7073 C 705.155 -1.1737 1.54719 0
M  V30 7074 O 704.43 -1.79161 0.757084 0
M  V30 7075 C 704.713 0.277064 3.59033 0
M  V30 7076 C 704.566 1.71016 4.16021 0
M  V30 7077 C 705.885 -0.36479 4.38586 0
M  V30 7078 H 703.004 0.0823839 0.732381 0
M  V30 7079 H 705.646 0.880778 1.68352 0
M  V30 7080 H 703.796 -0.283288 3.87466 0
M  V30 7081 H 705.468 2.32413 3.98475 0
M  V30 7082 H 703.711 2.24525 3.71175 0
M  V30 7083 H 704.382 1.69978 5.25178 0
M  V30 7084 H 706.858 0.112404 4.15948 0
M  V30 7085 H 705.734 -0.296169 5.481 0
M  V30 7086 H 705.995 -1.44506 4.17816 0
M  V30 7087 N 705.054 -1.51416 0.437162 0
M  V30 7088 C 706.47 -1.59349 0.0894459 0
M  V30 7089 C 706.67 -1.44809 -1.40116 0
M  V30 7090 O 705.726 -1.28924 -2.17106 0
M  V30 7091 C 707.039 -2.9446 0.609398 0
M  V30 7092 C 708.587 -3.07769 0.569824 0
M  V30 7093 C 709.062 -4.45404 1.06675 0
M  V30 7094 N 710.553 -4.51723 1.02473 0
M  V30 7095 C 711.288 -5.56544 1.3801 0
M  V30 7096 N 710.784 -6.68784 1.80831 0
M  V30 7097 N 712.577 -5.46901 1.29828 0
M  V30 7098 H 704.728 -1.59112 1.40703 0
M  V30 7099 H 706.991 -0.750031 0.579791 0
M  V30 7100 H 706.697 -3.1047 1.65231 0
M  V30 7101 H 706.571 -3.77184 0.0342236 0
M  V30 7102 H 708.958 -2.91428 -0.464107 0
M  V30 7103 H 709.039 -2.26885 1.1814 0
M  V30 7104 H 708.683 -4.62492 2.09914 0
M  V30 7105 H 708.613 -5.24827 0.431712 0
M  V30 7106 H 711.104 -3.71165 0.710258 0
M  V30 7107 H 711.417 -7.44787 2.06185 0
M  V30 7108 H 709.762 -6.69992 1.84757 0
M  V30 7109 H 712.953 -4.581 0.962397 0
M  V30 7110 H 713.126 -6.2848 1.57851 0
M  V30 7111 N 706.532 -0.168513 -1.56696 0
M  V30 7112 C 707.757 0.486688 -2.01609 0
M  V30 7113 C 708.182 1.56203 -1.04796 0
M  V30 7114 O 707.54 1.8128 -0.0270596 0
M  V30 7115 C 707.588 1.04451 -3.45141 0
M  V30 7116 O 706.692 2.15862 -3.51393 0
M  V30 7117 H 706.033 0.116831 -0.653641 0
M  V30 7118 H 708.563 -0.271579 -2.0279 0
M  V30 7119 H 708.573 1.36782 -3.84389 0
M  V30 7120 H 707.248 0.257155 -4.15104 0
M  V30 7121 H 705.825 1.84597 -3.24004 0
M  V30 7122 N 708.01 1.57248 0.105221 0
M  V30 7123 C 708.94 2.04374 1.12931 0
M  V30 7124 C 709.921 0.93074 1.42377 0
M  V30 7125 O 711.106 1.20136 1.52581 0
M  V30 7126 C 708.236 2.45967 2.45189 0
M  V30 7127 C 707.19 3.60838 2.30174 0
M  V30 7128 C 706.516 3.88374 3.67518 0
M  V30 7129 C 707.816 4.92084 1.75073 0
M  V30 7130 H 709.51 2.9018 0.737287 0
M  V30 7131 H 707.056 1.39601 0.353211 0
M  V30 7132 H 709.009 2.77542 3.17094 0
M  V30 7133 H 707.733 1.57148 2.86308 0
M  V30 7134 H 706.392 3.29493 1.60716 0
M  V30 7135 H 706.04 2.96739 4.06147 0
M  V30 7136 H 705.74 4.65703 3.58321 0
M  V30 7137 H 707.264 4.22415 4.40906 0
M  V30 7138 H 708.678 5.22106 2.36809 0
M  V30 7139 H 707.075 5.73507 1.76662 0
M  V30 7140 H 708.145 4.79684 0.709347 0
M  V30 7141 N 709.488 -0.375779 1.53054 0
M  V30 7142 C 710.436 -1.48015 1.79428 0
M  V30 7143 C 711.43 -1.55893 0.662854 0
M  V30 7144 O 712.636 -1.58901 0.845599 0
M  V30 7145 H 709.011 -0.492887 0.56795 0
M  V30 7146 H 710.982 -1.22971 2.71884 0
M  V30 7147 C 709.731 -2.84984 1.99197 0
M  V30 7148 H 709.054 -2.79677 2.85693 0
M  V30 7149 H 710.494 -3.61462 2.21633 0
M  V30 7150 C 708.953 -3.28025 0.768183 0
M  V30 7151 O 709.483 -4.01671 -0.0480482 0
M  V30 7152 N 707.689 -2.84454 0.594521 0
M  V30 7153 H 707.236 -2.24688 1.25988 0
M  V30 7154 H 707.194 -3.13609 -0.222916 0
M  V30 7155 N 710.966 -1.44241 -0.634997 0
M  V30 7156 C 712.196 -1.50078 -1.41987 0
M  V30 7157 C 712.604 -0.123072 -1.88799 0
M  V30 7158 O 711.947 0.880552 -1.6122 0
M  V30 7159 C 712.009 -2.40033 -2.67628 0
M  V30 7160 C 711.673 -3.87268 -2.42637 0
M  V30 7161 C 712.67 -4.77902 -2.04708 0
M  V30 7162 C 710.355 -4.31933 -2.56396 0
M  V30 7163 C 712.349 -6.11202 -1.80862 0
M  V30 7164 C 710.036 -5.65281 -2.32164 0
M  V30 7165 C 711.034 -6.54734 -1.94455 0
M  V30 7166 O 710.722 -7.85613 -1.7049 0
M  V30 7167 H 710.454 -0.51146 -0.442023 0
M  V30 7168 H 713.008 -1.89843 -0.784138 0
M  V30 7169 H 711.238 -1.95188 -3.33824 0
M  V30 7170 H 712.927 -2.36863 -3.29622 0
M  V30 7171 H 713.693 -4.44668 -1.93638 0
M  V30 7172 H 709.572 -3.62569 -2.84719 0
M  V30 7173 H 713.116 -6.80983 -1.51353 0
M  V30 7174 H 709.013 -5.98078 -2.42843 0
M  V30 7175 H 709.781 -7.97373 -1.84767 0
M  V30 7176 N 712.444 0.87505 -1.31075 0
M  V30 7177 C 713.374 1.99775 -1.20881 0
M  V30 7178 C 714.355 1.69822 -0.0971612 0
M  V30 7179 O 715.54 1.92158 -0.280895 0
M  V30 7180 C 712.67 3.35163 -0.910118 0
M  V30 7181 C 711.624 3.79406 -1.98078 0
M  V30 7182 C 710.95 5.12197 -1.53488 0
M  V30 7183 C 712.25 3.97061 -3.39323 0
M  V30 7184 H 713.944 2.08562 -2.14808 0
M  V30 7185 H 711.49 1.00207 -1.03415 0
M  V30 7186 H 713.443 4.13237 -0.825423 0
M  V30 7187 H 712.167 3.26536 0.064822 0
M  V30 7188 H 710.826 3.03568 -2.05528 0
M  V30 7189 H 710.474 5.00007 -0.547941 0
M  V30 7190 H 710.174 5.4277 -2.2511 0
M  V30 7191 H 711.698 5.92785 -1.46417 0
M  V30 7192 H 713.112 4.65545 -3.34576 0
M  V30 7193 H 711.509 4.39025 -4.09118 0
M  V30 7194 H 712.579 3.00601 -3.80483 0
M  V30 7195 N 713.922 1.13953 1.08869 0
M  V30 7196 C 714.852 0.844824 2.17681 0
M  V30 7197 C 715.833 -0.198213 1.68941 0
M  V30 7198 O 717.018 -0.0559073 1.9412 0
M  V30 7199 C 714.148 0.316325 3.45856 0
M  V30 7200 C 713.102 1.29426 4.07962 0
M  V30 7201 C 712.428 0.625275 5.31031 0
M  V30 7202 C 713.728 2.65484 4.49795 0
M  V30 7203 H 715.422 1.75471 2.42591 0
M  V30 7204 H 712.968 0.845116 1.16592 0
M  V30 7205 H 714.921 0.0977876 4.21287 0
M  V30 7206 H 713.645 -0.628972 3.20486 0
M  V30 7207 H 712.304 1.49889 3.34558 0
M  V30 7208 H 711.952 -0.325678 5.01945 0
M  V30 7209 H 711.652 1.27777 5.73539 0
M  V30 7210 H 713.176 0.416152 6.0918 0
M  V30 7211 H 714.59 2.48957 5.16424 0
M  V30 7212 H 712.987 3.26963 5.03205 0
M  V30 7213 H 714.057 3.22717 3.61914 0
M  V30 7214 N 715.4 -1.26948 0.933913 0
M  V30 7215 C 716.63 -1.97898 0.593279 0
M  V30 7216 C 717.038 -1.69806 -0.834412 0
M  V30 7217 O 716.381 -0.958704 -1.56699 0
M  V30 7218 C 716.443 -3.51657 0.746825 0
M  V30 7219 C 716.107 -4.03384 2.14779 0
M  V30 7220 C 717.104 -4.15682 3.12257 0
M  V30 7221 C 714.789 -4.37577 2.46641 0
M  V30 7222 C 716.783 -4.61455 4.39702 0
M  V30 7223 C 714.47 -4.8304 3.7432 0
M  V30 7224 C 715.468 -4.94939 4.70664 0
M  V30 7225 O 715.156 -5.39403 5.96071 0
M  V30 7226 H 714.888 -0.63814 0.223055 0
M  V30 7227 H 717.442 -1.62608 1.2549 0
M  V30 7228 H 715.672 -3.8669 0.0280889 0
M  V30 7229 H 717.361 -4.03821 0.410328 0
M  V30 7230 H 718.127 -3.89519 2.88964 0
M  V30 7231 H 714.006 -4.27554 1.72391 0
M  V30 7232 H 717.55 -4.70658 5.14905 0
M  V30 7233 H 713.447 -5.08646 3.97429 0
M  V30 7234 H 714.215 -5.57641 5.99148 0
M  V30 7235 N 716.879 -0.700114 -1.41195 0
M  V30 7236 C 718.125 -0.233351 -2.01453 0
M  V30 7237 C 718.458 1.16548 -1.55339 0
M  V30 7238 O 717.733 1.78756 -0.766575 0
M  V30 7239 C 718.016 -0.2961 -3.58881 0
M  V30 7240 C 717.869 -1.7322 -4.15108 0
M  V30 7241 C 719.188 0.341525 -4.38773 0
M  V30 7242 H 716.307 -0.0862667 -0.731934 0
M  V30 7243 H 718.949 -0.889693 -1.67882 0
M  V30 7244 H 717.099 0.262736 -3.87611 0
M  V30 7245 H 718.771 -2.34523 -3.97236 0
M  V30 7246 H 717.014 -2.2649 -3.69979 0
M  V30 7247 H 717.685 -1.7276 -5.24269 0
M  V30 7248 H 720.161 -0.134461 -4.15883 0
M  V30 7249 H 719.037 0.267098 -5.4825 0
M  V30 7250 H 719.298 1.42289 -4.18577 0
M  V30 7251 N 718.357 1.51182 -0.445186 0
M  V30 7252 C 719.582 2.07056 0.119445 0
M  V30 7253 C 720.007 1.30966 1.35016 0
M  V30 7254 O 719.365 0.349827 1.77893 0
M  V30 7255 C 719.413 3.58234 0.412428 0
M  V30 7256 O 718.517 3.84249 1.49754 0
M  V30 7257 H 717.858 0.663998 -0.00157797 0
M  V30 7258 H 720.388 1.94699 -0.628779 0
M  V30 7259 H 720.398 4.02617 0.660583 0
M  V30 7260 H 719.073 4.13038 -0.487049 0
M  V30 7261 H 717.65 3.51724 1.23873 0
M  V30 7262 N 719.835 0.176821 1.56605 0
M  V30 7263 C 720.783 -0.768159 2.1955 0
M  V30 7264 C 721.777 -1.23343 1.16116 0
M  V30 7265 O 722.983 -1.19844 1.34303 0
M  V30 7266 H 719.358 -0.266013 0.703378 0
M  V30 7267 H 721.329 -0.213374 2.97636 0
M  V30 7268 C 720.078 -1.98492 2.85475 0
M  V30 7269 H 719.401 -1.63595 3.64797 0
M  V30 7270 H 720.841 -2.62489 3.3298 0
M  V30 7271 C 719.3 -2.81207 1.85538 0
M  V30 7272 O 719.83 -3.7854 1.34427 0
M  V30 7273 N 718.036 -2.46331 1.54173 0
M  V30 7274 H 717.583 -1.67241 1.95929 0
M  V30 7275 H 717.541 -3.01961 0.875595 0
M  V30 7276 N 721.313 -1.57302 -0.09688 0
M  V30 7277 C 722.56 -1.85997 -0.800699 0
M  V30 7278 C 722.888 -0.765089 -1.7882 0
M  V30 7279 O 722.143 0.241492 -1.94204 0
M  V30 7280 C 722.442 -3.21272 -1.56586 0
M  V30 7281 C 722.108 -4.45104 -0.72064 0
M  V30 7282 C 720.77 -4.78723 -0.487632 0
M  V30 7283 C 723.122 -5.2103 -0.132948 0
M  V30 7284 C 720.45 -5.85697 0.34296 0
M  V30 7285 C 722.802 -6.28881 0.684957 0
M  V30 7286 C 721.466 -6.61017 0.928073 0
M  V30 7287 H 720.736 -0.680613 -0.292997 0
M  V30 7288 H 723.383 -1.91399 -0.0622474 0
M  V30 7289 H 721.688 -3.11547 -2.37583 0
M  V30 7290 H 723.385 -3.40702 -2.11478 0
M  V30 7291 H 719.975 -4.18777 -0.912359 0
M  V30 7292 H 724.159 -4.95392 -0.300132 0
M  V30 7293 H 719.415 -6.09008 0.540317 0
M  V30 7294 H 723.589 -6.86886 1.14721 0
M  V30 7295 H 721.216 -7.43738 1.57348 0
M  V30 7296 N 722.791 0.367657 -1.53252 0
M  V30 7297 C 724.016 1.13566 -1.73544 0
M  V30 7298 C 724.441 1.82329 -0.462344 0
M  V30 7299 O 723.799 1.71655 0.583472 0
M  V30 7300 C 723.847 2.14322 -2.89997 0
M  V30 7301 O 722.951 3.21359 -2.58461 0
M  V30 7302 H 722.292 0.329614 -0.576412 0
M  V30 7303 H 724.822 0.425417 -2.00128 0
M  V30 7304 H 724.832 2.57958 -3.16104 0
M  V30 7305 H 723.507 1.63664 -3.82344 0
M  V30 7306 H 722.084 2.8271 -2.43165 0
M  V30 7307 N 724.269 1.44576 0.627338 0
M  V30 7308 C 725.199 1.54562 1.75022 0
M  V30 7309 C 726.18 0.398378 1.65369 0
M  V30 7310 O 727.365 0.61899 1.84071 0
M  V30 7311 C 724.495 1.49309 3.13567 0
M  V30 7312 C 723.449 2.62549 3.38012 0
M  V30 7313 C 722.775 2.42348 4.76625 0
M  V30 7314 C 724.075 4.04678 3.30202 0
M  V30 7315 H 725.769 2.4855 1.66922 0
M  V30 7316 H 723.315 1.19624 0.801636 0
M  V30 7317 H 725.268 1.54895 3.919 0
M  V30 7318 H 723.992 0.518392 3.2246 0
M  V30 7319 H 722.651 2.56358 2.62061 0
M  V30 7320 H 722.299 1.43062 4.82226 0
M  V30 7321 H 721.999 3.18273 4.93939 0
M  V30 7322 H 723.523 2.49758 5.57183 0
M  V30 7323 H 724.937 4.12217 3.98435 0
M  V30 7324 H 723.334 4.80836 3.5905 0
M  V30 7325 H 724.404 4.2798 2.27949 0
M  V30 7326 N 725.747 -0.868086 1.31537 0
M  V30 7327 C 726.995 -1.61807 1.21091 0
M  V30 7328 C 727.316 -1.93631 -0.230623 0
M  V30 7329 O 726.586 -1.5846 -1.15183 0
M  V30 7330 H 725.166 -0.599854 0.445178 0
M  V30 7331 H 727.828 -1.03915 1.64887 0
M  V30 7332 H 726.924 -2.56088 1.78396 0
M  V30 7333 N 727.225 -1.14528 -1.08264 0
M  V30 7334 C 728.502 -0.825185 -1.77342 0
M  V30 7335 C 728.882 0.681037 -1.99813 0
M  V30 7336 O 728.23 1.62234 -1.60912 0
M  V30 7337 C 728.44 -1.62556 -3.08831 0
M  V30 7338 C 729.788 -1.82585 -3.83338 0
M  V30 7339 O 730.812 -1.59254 -3.18617 0
M  V30 7340 O 729.671 -2.21598 -4.99556 0
M  V30 7341 H 726.765 -0.302531 -0.769678 0
M  V30 7342 H 729.311 -1.25056 -1.14713 0
M  V30 7343 H 728.083 -2.64862 -2.88035 0
M  V30 7344 H 727.706 -1.1959 -3.79189 0
M  V30 7345 N 728.703 1.26451 -0.940633 0
M  V30 7346 C 729.928 1.98407 -0.60412 0
M  V30 7347 C 730.353 1.69584 0.81382 0
M  V30 7348 O 729.711 0.943553 1.54812 0
M  V30 7349 C 729.759 3.50387 -0.852136 0
M  V30 7350 O 728.863 4.1233 0.076013 0
M  V30 7351 H 728.204 0.622466 -0.231153 0
M  V30 7352 H 730.734 1.60932 -1.26342 0
M  V30 7353 H 730.744 4.00614 -0.772816 0
M  V30 7354 H 729.419 3.70696 -1.88566 0
M  V30 7355 H 727.996 3.7286 -0.0543187 0
M  V30 7356 N 730.181 0.707592 1.40822 0
M  V30 7357 C 731.429 0.243189 2.00632 0
M  V30 7358 C 731.75 -1.16512 1.56365 0
M  V30 7359 O 731.02 -1.78841 0.799553 0
M  V30 7360 H 729.6 0.0869203 0.741926 0
M  V30 7361 H 732.262 0.911438 1.72275 0
M  V30 7362 H 731.358 0.270014 3.1093 0
M  V30 7363 N 731.66 -1.50943 0.453197 0
M  V30 7364 C 732.592 -2.25922 -0.38623 0
M  V30 7365 C 733.605 -1.3055 -0.972652 0
M  V30 7366 O 734.794 -1.56191 -0.864097 0
M  V30 7367 C 731.894 -3.01176 -1.5539 0
M  V30 7368 C 731.067 -4.23768 -1.0835 0
M  V30 7369 C 730.126 -4.81466 -2.12313 0
M  V30 7370 O 729.152 -5.42875 -1.71101 0
M  V30 7371 N 730.354 -4.66889 -3.44956 0
M  V30 7372 H 733.119 -2.98601 0.256468 0
M  V30 7373 H 730.68 -1.59408 0.282965 0
M  V30 7374 H 732.672 -3.36659 -2.24594 0
M  V30 7375 H 731.242 -2.31409 -2.10163 0
M  V30 7376 H 730.462 -3.93597 -0.217961 0
M  V30 7377 H 731.75 -5.03289 -0.746857 0
M  V30 7378 H 731.148 -4.18011 -3.81161 0
M  V30 7379 H 729.705 -5.06691 -4.1001 0
M  V30 7380 N 733.138 -0.185124 -1.56509 0
M  V30 7381 C 734.549 0.329221 -1.83774 0
M  V30 7382 C 734.9 1.62093 -1.10545 0
M  V30 7383 O 734.025 2.13334 -0.36298 0
M  V30 7384 C 734.62 0.604099 -3.33371 0
M  V30 7385 C 733.179 1.06284 -3.61083 0
M  V30 7386 C 732.326 0.10608 -2.77097 0
M  V30 7387 H 735.277 -0.409116 -1.53336 0
M  V30 7388 H 735.298 1.45458 -3.51599 0
M  V30 7389 H 734.81 -0.336201 -3.86641 0
M  V30 7390 H 732.911 2.01777 -3.13236 0
M  V30 7391 H 733.024 0.962453 -4.69333 0
M  V30 7392 H 731.388 0.606082 -2.47384 0
M  V30 7393 H 732.171 -0.828486 -3.33153 0
M  V30 7394 N 734.616 1.57351 0.0885366 0
M  V30 7395 C 735.862 1.86696 0.791996 0
M  V30 7396 C 736.195 0.775148 1.78059 0
M  V30 7397 O 735.47 -0.216247 1.93294 0
M  V30 7398 C 735.753 3.26684 1.51491 0
M  V30 7399 C 735.606 4.465 0.543858 0
M  V30 7400 C 736.925 3.64664 2.46391 0
M  V30 7401 H 734.044 0.679049 0.286463 0
M  V30 7402 H 736.686 1.89919 0.0554866 0
M  V30 7403 H 734.836 3.24067 2.14273 0
M  V30 7404 H 736.508 4.61235 -0.0774597 0
M  V30 7405 H 734.751 4.33567 -0.142228 0
M  V30 7406 H 735.422 5.41192 1.08696 0
M  V30 7407 H 737.898 3.68267 1.93698 0
M  V30 7408 H 736.774 4.63534 2.93986 0
M  V30 7409 H 737.035 2.93698 3.30445 0
M  V30 7410 N 736.094 -0.359525 1.53444 0
M  V30 7411 C 737.026 -1.46098 1.76602 0
M  V30 7412 C 738.039 -1.49395 0.646912 0
M  V30 7413 O 739.228 -1.52765 0.923307 0
M  V30 7414 C 736.328 -2.84836 1.83635 0
M  V30 7415 C 735.501 -3.05164 3.13358 0
M  V30 7416 C 734.56 -4.24051 3.11556 0
M  V30 7417 O 733.586 -4.18935 3.85334 0
M  V30 7418 N 734.788 -5.31775 2.328 0
M  V30 7419 H 737.553 -1.2661 2.71643 0
M  V30 7420 H 735.114 -0.549294 1.52297 0
M  V30 7421 H 737.106 -3.62516 1.799 0
M  V30 7422 H 735.676 -2.97542 0.958509 0
M  V30 7423 H 734.896 -2.15091 3.30348 0
M  V30 7424 H 736.184 -3.15619 3.99076 0
M  V30 7425 H 735.582 -5.38796 1.7238 0
M  V30 7426 H 734.139 -6.0801 2.34877 0
M  V30 7427 N 737.572 -1.44907 -0.619662 0
M  V30 7428 C 738.988 -1.29046 -0.939107 0
M  V30 7429 C 739.188 -0.23462 -2.00129 0
M  V30 7430 O 738.244 0.37558 -2.49691 0
M  V30 7431 C 739.557 -2.66567 -1.39149 0
M  V30 7432 C 741.105 -2.74368 -1.50635 0
M  V30 7433 C 741.58 -4.12386 -1.99253 0
M  V30 7434 N 743.071 -4.1462 -2.06506 0
M  V30 7435 C 743.806 -5.18272 -2.4532 0
M  V30 7436 N 743.302 -6.32278 -2.83189 0
M  V30 7437 N 745.095 -5.05628 -2.45554 0
M  V30 7438 H 737.246 -2.12239 0.0826135 0
M  V30 7439 H 739.509 -0.947652 -0.0256829 0
M  V30 7440 H 739.215 -3.4496 -0.685254 0
M  V30 7441 H 739.089 -2.94224 -2.36034 0
M  V30 7442 H 741.476 -1.96287 -2.20353 0
M  V30 7443 H 741.557 -2.50439 -0.520963 0
M  V30 7444 H 741.201 -4.90947 -1.30127 0
M  V30 7445 H 741.131 -4.33699 -2.98684 0
M  V30 7446 H 743.622 -3.32343 -1.79878 0
M  V30 7447 H 743.935 -7.07172 -3.11652 0
M  V30 7448 H 742.28 -6.35699 -2.80913 0
M  V30 7449 H 745.471 -4.15613 -2.15367 0
M  V30 7450 H 745.644 -5.86529 -2.75478 0
M  V30 7451 N 739.05 0.861098 -1.31996 0
M  V30 7452 C 740.327 1.59788 -1.12814 0
M  V30 7453 C 740.707 2.08753 0.313882 0
M  V30 7454 O 740.055 1.87258 1.30946 0
M  V30 7455 C 740.265 2.74901 -2.15012 0
M  V30 7456 C 741.613 3.44643 -2.48004 0
M  V30 7457 O 742.637 2.85119 -2.13508 0
M  V30 7458 O 741.496 4.52044 -3.07113 0
M  V30 7459 H 738.59 0.703408 -0.434909 0
M  V30 7460 H 741.136 0.905788 -1.43505 0
M  V30 7461 H 739.908 2.36198 -3.11971 0
M  V30 7462 H 739.531 3.51792 -1.85279 0
M  V30 7463 N 740.528 1.15101 1.07655 0
M  V30 7464 C 741.774 0.925343 1.80458 0
M  V30 7465 C 742.107 -0.546354 1.86356 0
M  V30 7466 O 741.382 -1.40496 1.34503 0
M  V30 7467 C 741.665 1.53646 3.25676 0
M  V30 7468 C 741.518 3.07854 3.27942 0
M  V30 7469 C 742.837 1.21968 4.22861 0
M  V30 7470 H 739.956 0.337592 0.655134 0
M  V30 7471 H 742.598 1.42217 1.25993 0
M  V30 7472 H 740.748 1.11395 3.72187 0
M  V30 7473 H 742.42 3.58989 2.89697 0
M  V30 7474 H 740.663 3.41904 2.66991 0
M  V30 7475 H 741.334 3.45725 4.30324 0
M  V30 7476 H 743.81 1.5851 3.84726 0
M  V30 7477 H 742.686 1.67349 5.22767 0
M  V30 7478 H 742.947 0.136207 4.4189 0
M  V30 7479 N 742.006 -1.2595 0.947325 0
M  V30 7480 C 743.231 -1.98083 0.614633 0
M  V30 7481 C 743.656 -1.70013 -0.804815 0
M  V30 7482 O 743.014 -0.95175 -1.54309 0
M  V30 7483 C 743.062 -3.4993 0.870706 0
M  V30 7484 O 742.166 -4.12364 -0.0541451 0
M  V30 7485 H 741.507 -0.621232 0.234451 0
M  V30 7486 H 744.037 -1.60259 1.27193 0
M  V30 7487 H 744.047 -4.00198 0.794051 0
M  V30 7488 H 742.722 -3.69691 1.90529 0
M  V30 7489 H 741.299 -3.72826 0.0740917 0
M  V30 7490 N 743.484 -0.715051 -1.40445 0
M  V30 7491 C 744.9 -0.388555 -1.54798 0
M  V30 7492 C 745.1 1.10271 -1.68649 0
M  V30 7493 O 744.156 1.88875 -1.67578 0
M  V30 7494 C 745.469 -1.15414 -2.77669 0
M  V30 7495 C 747.017 -1.14039 -2.91486 0
M  V30 7496 C 747.492 -1.88812 -4.1727 0
M  V30 7497 N 748.983 -1.85878 -4.24268 0
M  V30 7498 C 749.718 -2.40558 -5.20499 0
M  V30 7499 N 749.214 -3.03791 -6.22642 0
M  V30 7500 N 751.007 -2.30703 -5.12574 0
M  V30 7501 H 743.158 -1.68201 -1.297 0
M  V30 7502 H 745.421 -0.710915 -0.627139 0
M  V30 7503 H 745.127 -2.20853 -2.7371 0
M  V30 7504 H 745.001 -0.745412 -3.69761 0
M  V30 7505 H 747.388 -0.0941996 -2.9495 0
M  V30 7506 H 747.469 -1.58834 -2.00513 0
M  V30 7507 H 747.113 -2.93422 -4.14568 0
M  V30 7508 H 747.043 -1.41438 -5.0725 0
M  V30 7509 H 749.534 -1.39794 -3.51093 0
M  V30 7510 H 749.847 -3.43032 -6.92495 0
M  V30 7511 H 748.192 -3.07875 -6.23087 0
M  V30 7512 H 751.383 -1.80961 -4.31707 0
M  V30 7513 H 751.556 -2.73618 -5.87398 0
M  V30 7514 N 744.962 1.50701 -0.461195 0
M  V30 7515 C 745.892 2.31182 0.328184 0
M  V30 7516 C 746.873 1.37644 0.999408 0
M  V30 7517 O 748.058 1.66565 0.99848 0
M  V30 7518 C 745.188 3.17113 1.41621 0
M  V30 7519 C 744.142 4.19124 0.867148 0
M  V30 7520 C 743.468 4.93728 2.05272 0
M  V30 7521 C 744.768 5.22174 -0.114808 0
M  V30 7522 H 746.462 2.97423 -0.343501 0
M  V30 7523 H 744.008 1.43033 -0.166641 0
M  V30 7524 H 745.961 3.72208 1.97584 0
M  V30 7525 H 744.685 2.48739 2.11652 0
M  V30 7526 H 743.344 3.65116 0.329557 0
M  V30 7527 H 742.992 4.21835 2.73978 0
M  V30 7528 H 742.692 5.62724 1.69161 0
M  V30 7529 H 744.216 5.51654 2.61744 0
M  V30 7530 H 745.63 5.72198 0.355316 0
M  V30 7531 H 744.027 5.98833 -0.389689 0
M  V30 7532 H 745.097 4.7353 -1.04391 0
M  V30 7533 N 746.441 0.193421 1.56409 0
M  V30 7534 C 747.689 -0.444908 1.97142 0
M  V30 7535 C 748.01 -1.62268 1.08139 0
M  V30 7536 O 747.28 -1.95307 0.152326 0
M  V30 7537 H 745.86 -0.16736 0.728011 0
M  V30 7538 H 748.522 0.279763 1.92882 0
M  V30 7539 H 747.618 -0.790159 3.01932 0
M  V30 7540 N 747.919 -1.57396 -0.0801906 0
M  V30 7541 C 749.196 -1.77883 -0.813451 0
M  V30 7542 C 749.576 -0.778879 -1.96206 0
M  V30 7543 O 748.924 0.189683 -2.27711 0
M  V30 7544 C 749.134 -3.24116 -1.2942 0
M  V30 7545 C 750.482 -3.87714 -1.73098 0
M  V30 7546 O 751.506 -3.27956 -1.39007 0
M  V30 7547 O 750.365 -4.92828 -2.36184 0
M  V30 7548 H 747.459 -0.729727 -0.389138 0
M  V30 7549 H 750.005 -1.69591 -0.0609166 0
M  V30 7550 H 748.777 -3.88443 -0.471947 0
M  V30 7551 H 748.4 -3.371 -2.1083 0
M  V30 7552 N 749.397 0.351382 -1.53633 0
M  V30 7553 C 750.347 1.4316 -1.77452 0
M  V30 7554 C 751.331 1.48076 -0.62946 0
M  V30 7555 O 752.523 1.53078 -0.888599 0
M  V30 7556 C 749.652 2.80409 -1.98055 0
M  V30 7557 C 748.738 2.79915 -3.18604 0
M  V30 7558 N 749.129 2.49057 -4.40232 0
M  V30 7559 C 747.427 3.11067 -3.19614 0
M  V30 7560 C 748.128 2.566 -5.22045 0
M  V30 7561 N 747.104 2.919 -4.5858 0
M  V30 7562 H 750.906 1.18188 -2.69089 0
M  V30 7563 H 748.42 0.559684 -1.52451 0
M  V30 7564 H 750.417 3.58231 -2.13251 0
M  V30 7565 H 749.077 3.06334 -1.07655 0
M  V30 7566 H 750.088 2.22395 -4.67719 0
M  V30 7567 H 746.765 3.42215 -2.39154 0
M  V30 7568 H 748.155 2.35968 -6.29101 0
M  V30 7569 N 750.875 1.45233 0.611969 0
M  V30 7570 C 751.805 1.5641 1.73373 0
M  V30 7571 C 752.786 0.415896 1.64937 0
M  V30 7572 O 753.971 0.638478 1.83404 0
M  V30 7573 C 751.101 1.52627 3.11965 0
M  V30 7574 C 750.055 2.66119 3.35208 0
M  V30 7575 C 749.381 2.4739 4.74028 0
M  V30 7576 C 750.681 4.08157 3.25891 0
M  V30 7577 H 752.375 2.50307 1.64277 0
M  V30 7578 H 749.921 1.20467 0.788904 0
M  V30 7579 H 751.874 1.59043 3.90235 0
M  V30 7580 H 750.598 0.552564 3.21892 0
M  V30 7581 H 749.257 2.59123 2.59327 0
M  V30 7582 H 748.905 1.48168 4.80682 0
M  V30 7583 H 748.605 3.23494 4.90536 0
M  V30 7584 H 750.129 2.55653 5.54503 0
M  V30 7585 H 751.543 4.1642 3.9404 0
M  V30 7586 H 749.94 4.84617 3.5393 0
M  V30 7587 H 751.01 4.30374 2.23397 0
M  V30 7588 N 752.353 -0.854086 1.3245 0
M  V30 7589 C 753.283 -1.97827 1.24044 0
M  V30 7590 C 754.264 -1.69646 0.124166 0
M  V30 7591 O 755.449 -1.91687 0.31143 0
M  V30 7592 C 752.579 -3.33673 0.963324 0
M  V30 7593 C 751.533 -3.76207 2.04089 0
M  V30 7594 C 750.859 -5.0969 1.61618 0
M  V30 7595 C 752.159 -3.91612 3.45597 0
M  V30 7596 H 753.853 -2.05118 2.18099 0
M  V30 7597 H 751.399 -0.985489 1.04996 0
M  V30 7598 H 753.352 -4.11871 0.891061 0
M  V30 7599 H 752.076 -3.26597 -0.0128649 0
M  V30 7600 H 750.735 -3.0026 2.10332 0
M  V30 7601 H 750.383 -4.99072 0.627418 0
M  V30 7602 H 750.083 -5.3912 2.33717 0
M  V30 7603 H 751.607 -5.90381 1.55829 0
M  V30 7604 H 753.021 -4.60163 3.4194 0
M  V30 7605 H 751.418 -4.3246 4.16051 0
M  V30 7606 H 752.488 -2.9451 3.85217 0
M  V30 7607 N 753.831 -1.1567 -1.07043 0
M  V30 7608 C 755.078 -0.933517 -1.79699 0
M  V30 7609 C 755.406 0.539162 -1.86878 0
M  V30 7610 O 754.661 1.41592 -1.35093 0
M  V30 7611 C 754.96 -1.49677 -3.24548 0
M  V30 7612 C 754.626 -2.99047 -3.37463 0
M  V30 7613 C 753.288 -3.39824 -3.40695 0
M  V30 7614 C 755.64 -3.95027 -3.40004 0
M  V30 7615 C 752.968 -4.75215 -3.44075 0
M  V30 7616 C 755.32 -5.30295 -3.44921 0
M  V30 7617 C 753.984 -5.70562 -3.46432 0
M  V30 7618 H 753.254 -0.341598 -0.657565 0
M  V30 7619 H 755.901 -1.44263 -1.25938 0
M  V30 7620 H 754.206 -0.908915 -3.81111 0
M  V30 7621 H 755.903 -1.29986 -3.79348 0
M  V30 7622 H 752.493 -2.6653 -3.35648 0
M  V30 7623 H 756.677 -3.64596 -3.36725 0
M  V30 7624 H 751.933 -5.05754 -3.43545 0
M  V30 7625 H 756.107 -6.0446 -3.45833 0
M  V30 7626 H 753.734 -6.75456 -3.48803 0
M  V30 7627 N 755.309 1.25446 -0.953992 0
M  V30 7628 C 756.272 2.24156 -0.478179 0
M  V30 7629 C 757.272 1.55278 0.417776 0
M  V30 7630 O 758.462 1.72866 0.215155 0
M  V30 7631 C 755.594 3.39495 0.309202 0
M  V30 7632 H 756.787 2.67764 -1.35064 0
M  V30 7633 H 754.34 1.37822 -0.737206 0
M  V30 7634 H 755.075 3.01307 1.19936 0
M  V30 7635 H 754.86 3.90679 -0.333562 0
M  V30 7636 H 756.35 4.12796 0.631594 0
M  V30 7637 N 756.787 0.722489 1.40064 0
M  V30 7638 C 758.012 0.273446 2.05589 0
M  V30 7639 C 758.437 -1.07875 1.54093 0
M  V30 7640 O 757.795 -1.68095 0.679252 0
M  V30 7641 C 757.843 0.271023 3.5958 0
M  V30 7642 O 756.947 -0.745499 4.05606 0
M  V30 7643 H 756.288 0.126856 0.65177 0
M  V30 7644 H 758.818 0.984906 1.79334 0
M  V30 7645 H 758.828 0.111084 4.07849 0
M  V30 7646 H 757.503 1.25776 3.96425 0
M  V30 7647 H 756.08 -0.552719 3.68781 0
M  V30 7648 N 758.265 -1.50454 0.469181 0
M  V30 7649 C 759.513 -2.01916 -0.0862982 0
M  V30 7650 C 759.834 -1.35337 -1.40388 0
M  V30 7651 O 759.104 -0.498096 -1.89462 0
M  V30 7652 H 757.684 -0.746185 -0.0348825 0
M  V30 7653 H 760.346 -1.84804 0.619167 0
M  V30 7654 H 759.442 -3.11182 -0.239189 0
M  V30 7655 N 759.743 -0.201713 -1.56304 0
M  V30 7656 C 761.02 0.483273 -1.89536 0
M  V30 7657 C 761.4 1.79176 -1.11621 0
M  V30 7658 O 760.748 2.27445 -0.219339 0
M  V30 7659 C 760.958 0.695604 -3.41998 0
M  V30 7660 C 762.306 1.012 -4.12364 0
M  V30 7661 O 763.33 0.783094 -3.47485 0
M  V30 7662 O 762.189 1.44534 -5.27041 0
M  V30 7663 H 759.283 0.252801 -0.787414 0
M  V30 7664 H 761.829 -0.24242 -1.6796 0
M  V30 7665 H 760.601 -0.228165 -3.90634 0
M  V30 7666 H 760.224 1.47351 -3.69288 0
M  V30 7667 N 761.222 1.57436 0.0718424 0
M  V30 7668 C 762.154 2.00412 1.1121 0
M  V30 7669 C 763.167 0.910074 1.34987 0
M  V30 7670 O 764.356 1.18796 1.33228 0
M  V30 7671 C 761.456 2.32786 2.46301 0
M  V30 7672 C 760.629 3.64036 2.4248 0
M  V30 7673 C 759.688 3.8408 3.59679 0
M  V30 7674 O 758.714 4.55667 3.4111 0
M  V30 7675 N 759.916 3.2643 4.80025 0
M  V30 7676 H 762.681 2.90264 0.746118 0
M  V30 7677 H 760.242 1.59791 0.260495 0
M  V30 7678 H 762.234 2.43368 3.23348 0
M  V30 7679 H 760.804 1.48824 2.74901 0
M  V30 7680 H 760.024 3.64208 1.50818 0
M  V30 7681 H 761.312 4.50217 2.37027 0
M  V30 7682 H 760.71 2.68325 4.98014 0
M  V30 7683 H 759.267 3.42461 5.54584 0
M  V30 7684 N 762.7 -0.34323 1.53817 0
M  V30 7685 C 763.946 -1.08504 1.71332 0
M  V30 7686 C 764.279 -1.88294 0.475285 0
M  V30 7687 O 763.554 -1.87205 -0.527688 0
M  V30 7688 C 763.837 -2.02597 2.97702 0
M  V30 7689 C 763.69 -1.26268 4.31713 0
M  V30 7690 C 765.009 -3.0241 3.19744 0
M  V30 7691 H 762.128 -0.393072 0.623429 0
M  V30 7692 H 764.77 -0.363579 1.86489 0
M  V30 7693 H 762.92 -2.64118 2.8491 0
M  V30 7694 H 764.592 -0.673594 4.56356 0
M  V30 7695 H 762.835 -0.564696 4.30109 0
M  V30 7696 H 763.506 -1.95253 5.16314 0
M  V30 7697 H 765.982 -2.51004 3.31868 0
M  V30 7698 H 764.858 -3.65449 4.09558 0
M  V30 7699 H 765.119 -3.73806 2.36054 0
M  V30 7700 N 764.178 -1.45556 -0.604258 0
M  V30 7701 C 765.425 -1.49746 -1.36317 0
M  V30 7702 C 765.753 -0.140516 -1.93992 0
M  V30 7703 O 765.008 0.861244 -1.7573 0
M  V30 7704 C 765.307 -2.52697 -2.52743 0
M  V30 7705 C 764.973 -3.97315 -2.13195 0
M  V30 7706 C 763.635 -4.36692 -2.02123 0
M  V30 7707 C 765.987 -4.88249 -1.8238 0
M  V30 7708 C 763.315 -5.64895 -1.58463 0
M  V30 7709 C 765.667 -6.16867 -1.40205 0
M  V30 7710 C 764.331 -6.55172 -1.27694 0
M  V30 7711 H 763.601 -0.54796 -0.49882 0
M  V30 7712 H 766.248 -1.7892 -0.682643 0
M  V30 7713 H 764.553 -2.17105 -3.26148 0
M  V30 7714 H 766.25 -2.53176 -3.10971 0
M  V30 7715 H 762.84 -3.66176 -2.22739 0
M  V30 7716 H 767.024 -4.58561 -1.89829 0
M  V30 7717 H 762.28 -5.93365 -1.47402 0
M  V30 7718 H 766.454 -6.86771 -1.15408 0
M  V30 7719 H 764.081 -7.54411 -0.936375 0
M  V30 7720 N 765.656 0.84705 -1.32902 0
M  V30 7721 C 766.588 1.96308 -1.18304 0
M  V30 7722 C 767.601 1.62386 -0.116082 0
M  V30 7723 O 768.79 1.74713 -0.365751 0
M  V30 7724 C 765.89 3.29556 -0.790305 0
M  V30 7725 C 765.063 3.91668 -1.94717 0
M  V30 7726 C 764.122 5.0326 -1.53674 0
M  V30 7727 O 763.148 5.22847 -2.24989 0
M  V30 7728 N 764.35 5.78852 -0.437075 0
M  V30 7729 H 767.115 2.09369 -2.14441 0
M  V30 7730 H 764.676 1.02233 -1.25539 0
M  V30 7731 H 766.668 4.01624 -0.49799 0
M  V30 7732 H 765.238 3.12497 0.0801286 0
M  V30 7733 H 764.458 3.12292 -2.40557 0
M  V30 7734 H 765.746 4.299 -2.72146 0
M  V30 7735 H 765.144 5.65484 0.156316 0
M  V30 7736 H 763.701 6.51479 -0.204399 0
M  V30 7737 N 767.134 1.16236 1.06428 0
M  V30 7738 C 768.38 0.944431 1.79467 0
M  V30 7739 C 768.713 -0.526558 1.86925 0
M  V30 7740 O 767.988 -1.39061 1.35986 0
M  V30 7741 C 768.271 1.57092 3.24028 0
M  V30 7742 C 768.124 3.11315 3.24658 0
M  V30 7743 C 769.443 1.26447 4.21544 0
M  V30 7744 H 766.562 0.344521 0.651517 0
M  V30 7745 H 769.204 1.43545 1.24478 0
M  V30 7746 H 767.354 1.15337 3.70985 0
M  V30 7747 H 769.026 3.62042 2.85873 0
M  V30 7748 H 767.269 3.44716 2.6335 0
M  V30 7749 H 767.94 3.50269 4.26633 0
M  V30 7750 H 770.416 1.62581 3.83023 0
M  V30 7751 H 769.292 1.72885 5.20963 0
M  V30 7752 H 769.553 0.183068 4.41721 0
M  V30 7753 N 768.612 -1.24939 0.960631 0
M  V30 7754 C 770.023 -1.74701 0.658529 0
M  V30 7755 C 770.374 -1.77967 -0.825959 0
M  V30 7756 O 769.499 -1.40444 -1.64634 0
M  V30 7757 C 770.094 -3.17263 1.18867 0
M  V30 7758 C 768.653 -3.64561 0.936614 0
M  V30 7759 C 767.8 -2.43423 1.32817 0
M  V30 7760 H 770.751 -1.10741 1.13676 0
M  V30 7761 H 770.772 -3.76481 0.551589 0
M  V30 7762 H 770.284 -3.14854 2.26912 0
M  V30 7763 H 768.385 -3.72378 -0.128608 0
M  V30 7764 H 768.498 -4.52392 1.57729 0
M  V30 7765 H 766.862 -2.43513 0.746548 0
M  V30 7766 H 767.645 -2.437 2.41796 0
M  V30 7767 N 770.09 -0.729906 -1.39679 0
M  V30 7768 C 771.339 -0.272534 -1.9985 0
M  V30 7769 C 771.652 1.14519 -1.58571 0
M  V30 7770 O 772.858 1.70182 -2.11543 0
M  V30 7771 C 771.314 -0.436322 -3.57245 0
M  V30 7772 C 770.922 -1.86161 -4.0749 0
M  V30 7773 C 772.666 -0.0404679 -4.24481 0
M  V30 7774 C 770.573 -1.97522 -5.5744 0
M  V30 7775 H 769.503 -0.0981428 -0.747585 0
M  V30 7776 H 772.154 -0.903056 -1.59741 0
M  V30 7777 H 770.536 0.263015 -3.95126 0
M  V30 7778 H 771.71 -2.59248 -3.80955 0
M  V30 7779 H 770.025 -2.21021 -3.529 0
M  V30 7780 H 772.622 -0.104437 -5.34598 0
M  V30 7781 H 772.965 1.00357 -4.04023 0
M  V30 7782 H 773.498 -0.690774 -3.91757 0
M  V30 7783 H 770.237 -3.00096 -5.82771 0
M  V30 7784 H 769.757 -1.28864 -5.85794 0
M  V30 7785 H 771.436 -1.754 -6.22771 0
M  V30 7786 N 771.568 1.50203 -0.477153 0
M  V30 7787 C 772.5 2.26508 0.350239 0
M  V30 7788 C 773.513 1.32081 0.95176 0
M  V30 7789 O 774.702 1.57546 0.839139 0
M  V30 7790 C 771.802 3.0361 1.50579 0
M  V30 7791 C 770.975 4.25438 1.01595 0
M  V30 7792 C 770.034 4.84783 2.04626 0
M  V30 7793 O 769.06 5.45528 1.62442 0
M  V30 7794 N 770.262 4.72318 3.37485 0
M  V30 7795 H 773.027 2.98155 -0.30394 0
M  V30 7796 H 770.588 1.58938 -0.308289 0
M  V30 7797 H 772.58 3.4019 2.1921 0
M  V30 7798 H 771.15 2.34724 2.06455 0
M  V30 7799 H 770.37 3.93894 0.155316 0
M  V30 7800 H 771.658 5.04413 0.666694 0
M  V30 7801 H 771.056 4.24022 3.74462 0
M  V30 7802 H 769.613 5.13149 4.01897 0
M  V30 7803 N 773.046 0.209999 1.56195 0
M  V30 7804 C 774.294 -0.423974 1.97603 0
M  V30 7805 C 774.615 -1.61112 1.09854 0
M  V30 7806 O 773.885 -1.95134 0.173032 0
M  V30 7807 H 772.465 -0.159629 0.729745 0
M  V30 7808 H 775.127 0.300205 1.92574 0
M  V30 7809 H 774.223 -0.75809 3.02753 0
M  V30 7810 N 774.524 -1.57472 -0.0634922 0
M  V30 7811 C 775.935 -1.76303 -0.614337 0
M  V30 7812 C 776.286 -0.836578 -1.77471 0
M  V30 7813 O 775.411 -0.0227184 -2.16388 0
M  V30 7814 C 776.006 -3.19709 -1.12122 0
M  V30 7815 C 774.565 -3.39856 -1.61786 0
M  V30 7816 C 773.712 -2.71975 -0.540845 0
M  V30 7817 H 776.663 -1.57864 0.162702 0
M  V30 7818 H 776.684 -3.24326 -1.98979 0
M  V30 7819 H 776.196 -3.87114 -0.276472 0
M  V30 7820 H 774.297 -2.77578 -2.48558 0
M  V30 7821 H 774.41 -4.48338 -1.68908 0
M  V30 7822 H 772.774 -2.34763 -0.987854 0
M  V30 7823 H 773.557 -3.4204 0.293856 0
M  V30 7824 N 776.003 0.335068 -1.53997 0
M  V30 7825 C 777.251 1.07223 -1.71312 0
M  V30 7826 C 777.572 1.88911 -0.483486 0
M  V30 7827 O 776.842 1.89344 0.50257 0
M  V30 7828 H 775.422 0.398846 -0.63161 0
M  V30 7829 H 778.084 0.374288 -1.91272 0
M  V30 7830 H 777.18 1.7448 -2.58772 0
M  V30 7831 N 777.481 1.45874 0.596531 0
M  V30 7832 C 778.721 1.52015 1.36641 0
M  V30 7833 C 779.085 0.16226 1.91313 0
M  V30 7834 O 780.286 0.0983889 2.6862 0
M  V30 7835 C 778.557 2.57776 2.4756 0
M  V30 7836 S 780.116 2.83223 3.35157 0
M  V30 7837 H 776.934 0.537251 0.465706 0
M  V30 7838 H 779.536 1.83024 0.687205 0
M  V30 7839 H 778.24 3.55091 2.05764 0
M  V30 7840 H 777.771 2.28455 3.20269 0
M  V30 7841 H 779.786 2.17442 4.4602 0
M  V30 7842 N 778.959 -0.83999 1.33349 0
M  V30 7843 C 780.375 -1.13049 1.12659 0
M  V30 7844 C 780.575 -2.01328 -0.0832613 0
M  V30 7845 O 779.631 -2.40669 -0.763856 0
M  V30 7846 C 780.944 -1.79366 2.41347 0
M  V30 7847 C 782.492 -1.91937 2.47243 0
M  V30 7848 C 782.967 -2.6167 3.75889 0
M  V30 7849 N 784.458 -2.69184 3.76954 0
M  V30 7850 C 785.193 -3.23827 4.73206 0
M  V30 7851 N 784.689 -3.79166 5.79832 0
M  V30 7852 N 786.482 -3.22068 4.60683 0
M  V30 7853 H 778.633 -0.252432 2.10895 0
M  V30 7854 H 780.896 -0.174501 0.931801 0
M  V30 7855 H 780.602 -1.2196 3.29877 0
M  V30 7856 H 780.476 -2.79396 2.53412 0
M  V30 7857 H 782.863 -2.48498 1.59163 0
M  V30 7858 H 782.944 -0.908604 2.39119 0
M  V30 7859 H 782.588 -2.05769 4.64351 0
M  V30 7860 H 782.518 -3.63217 3.81289 0
M  V30 7861 H 785.009 -2.2994 2.99893 0
M  V30 7862 H 785.322 -4.19061 6.49313 0
M  V30 7863 H 783.667 -3.77457 5.83568 0
M  V30 7864 H 786.858 -2.78092 3.7654 0
M  V30 7865 H 787.031 -3.64351 5.35866 0
M  V30 7866 N 780.437 -1.16799 -1.0581 0
M  V30 7867 C 781.387 -0.847231 -2.11674 0
M  V30 7868 C 782.371 0.175476 -1.5994 0
M  V30 7869 O 783.563 -0.0260602 -1.76981 0
M  V30 7870 C 780.692 -0.355446 -3.41455 0
M  V30 7871 C 779.778 -1.40922 -4.00002 0
M  V30 7872 N 780.169 -2.62096 -4.32596 0
M  V30 7873 C 778.467 -1.26562 -4.27666 0
M  V30 7874 C 779.168 -3.29759 -4.79201 0
M  V30 7875 N 778.144 -2.57138 -4.78938 0
M  V30 7876 H 781.946 -1.76862 -2.34727 0
M  V30 7877 H 779.46 -1.05577 -1.23399 0
M  V30 7878 H 781.457 -0.107231 -4.16762 0
M  V30 7879 H 780.117 0.559817 -3.19838 0
M  V30 7880 H 781.128 -2.99113 -4.22791 0
M  V30 7881 H 777.805 -0.411503 -4.15467 0
M  V30 7882 H 779.195 -4.33222 -5.13584 0
M  V30 7883 N 781.915 1.24427 -0.967243 0
M  V30 7884 C 783.162 1.92487 -0.62888 0
M  V30 7885 C 783.49 1.75623 0.835871 0
M  V30 7886 O 782.745 1.1027 1.61675 0
M  V30 7887 C 783.044 3.44568 -0.949096 0
M  V30 7888 C 782.71 3.816 -2.40192 0
M  V30 7889 C 781.372 3.9142 -2.799 0
M  V30 7890 C 783.724 3.99715 -3.34481 0
M  V30 7891 C 781.052 4.16771 -4.12939 0
M  V30 7892 C 783.404 4.26562 -4.67148 0
M  V30 7893 C 782.068 4.34601 -5.06634 0
M  V30 7894 H 781.338 0.704361 -0.230124 0
M  V30 7895 H 783.985 1.4772 -1.21864 0
M  V30 7896 H 782.29 3.90819 -0.277085 0
M  V30 7897 H 783.987 3.95436 -0.665692 0
M  V30 7898 H 780.577 3.74522 -2.08402 0
M  V30 7899 H 784.761 3.91531 -3.04987 0
M  V30 7900 H 780.017 4.21214 -4.43158 0
M  V30 7901 H 784.191 4.39523 -5.40178 0
M  V30 7902 H 781.818 4.53998 -6.09746 0
M  V30 7903 N 783.393 0.737304 1.3929 0
M  V30 7904 C 784.323 0.113988 2.33222 0
M  V30 7905 C 785.304 -0.721695 1.54031 0
M  V30 7906 O 786.489 -0.666206 1.82415 0
M  V30 7907 C 783.619 -0.792319 3.38141 0
M  V30 7908 C 782.573 -0.0606178 4.27957 0
M  V30 7909 C 781.899 -1.08409 5.23595 0
M  V30 7910 C 783.199 1.09817 5.10625 0
M  V30 7911 H 784.893 0.898611 2.85596 0
M  V30 7912 H 782.439 0.433571 1.37318 0
M  V30 7913 H 784.392 -1.23793 4.02807 0
M  V30 7914 H 783.116 -1.60908 2.84211 0
M  V30 7915 H 781.775 0.365393 3.64775 0
M  V30 7916 H 781.423 -1.89449 4.6596 0
M  V30 7917 H 781.123 -0.599269 5.84536 0
M  V30 7918 H 782.647 -1.52936 5.91137 0
M  V30 7919 H 784.061 0.730892 5.68622 0
M  V30 7920 H 782.458 1.51278 5.80719 0
M  V30 7921 H 783.528 1.91878 4.45321 0
M  V30 7922 N 784.871 -1.49948 0.485112 0
M  V30 7923 C 786.099 -2.06806 -0.0622824 0
M  V30 7924 C 786.514 -1.34736 -1.32256 0
M  V30 7925 O 785.871 -0.420836 -1.77582 0
M  V30 7926 C 785.922 -3.59934 -0.336096 0
M  V30 7927 O 785.643 -4.29289 0.874203 0
M  V30 7928 C 787.144 -4.33459 -0.928903 0
M  V30 7929 H 784.364 -0.670867 0.0133472 0
M  V30 7930 H 786.908 -1.92937 0.677917 0
M  V30 7931 H 785.063 -3.7356 -1.02625 0
M  V30 7932 H 785.477 -5.20735 0.627332 0
M  V30 7933 H 786.951 -5.41527 -1.07017 0
M  V30 7934 H 787.428 -3.94881 -1.92265 0
M  V30 7935 H 788.034 -4.24399 -0.276705 0
M  V30 7936 N 786.349 -0.21828 -1.56081 0
M  V30 7937 C 787.589 0.416193 -2.00118 0
M  V30 7938 C 787.953 1.5718 -1.10265 0
M  V30 7939 O 789.154 2.27206 -1.43635 0
M  V30 7940 C 787.425 0.842781 -3.47321 0
M  V30 7941 S 788.984 1.47182 -4.1338 0
M  V30 7942 H 785.802 0.132219 -0.698598 0
M  V30 7943 H 788.404 -0.326799 -1.92749 0
M  V30 7944 H 787.108 -0.00799925 -4.10399 0
M  V30 7945 H 786.639 1.61867 -3.58556 0
M  V30 7946 H 788.654 2.76087 -4.12299 0
M  V30 7947 N 787.827 1.57504 0.0551401 0
M  V30 7948 C 789.075 1.87684 0.74962 0
M  V30 7949 C 789.396 0.812547 1.77264 0
M  V30 7950 O 788.666 -0.15694 1.9527 0
M  V30 7951 H 787.246 0.6926 0.279846 0
M  V30 7952 H 789.908 1.94881 0.0272745 0
M  V30 7953 H 789.004 2.85734 1.25548 0
M  V30 7954 N 789.305 -0.326896 1.54172 0
M  V30 7955 C 790.721 -0.671034 1.44808 0
M  V30 7956 C 790.921 -1.91781 0.618258 0
M  V30 7957 O 789.977 -2.52235 0.115751 0
M  V30 7958 C 791.29 -0.848147 2.88491 0
M  V30 7959 C 792.838 -0.945702 2.98371 0
M  V30 7960 C 793.313 -1.15501 4.43197 0
M  V30 7961 N 794.804 -1.22183 4.46795 0
M  V30 7962 C 795.539 -1.4016 5.56006 0
M  V30 7963 N 795.035 -1.55202 6.75192 0
M  V30 7964 N 796.828 -1.42841 5.43648 0
M  V30 7965 H 788.979 0.49262 2.06608 0
M  V30 7966 H 791.242 0.158574 0.934643 0
M  V30 7967 H 790.948 -0.00329969 3.517 0
M  V30 7968 H 790.822 -1.74497 3.34411 0
M  V30 7969 H 793.209 -1.78106 2.35292 0
M  V30 7970 H 793.29 -0.0254215 2.55787 0
M  V30 7971 H 792.934 -0.324521 5.06862 0
M  V30 7972 H 792.864 -2.08911 4.83388 0
M  V30 7973 H 795.355 -1.12016 3.60917 0
M  V30 7974 H 795.668 -1.68601 7.54184 0
M  V30 7975 H 794.013 -1.52306 6.78106 0
M  V30 7976 H 797.204 -1.30683 4.49488 0
M  V30 7977 H 797.377 -1.56509 6.28816 0
M  V30 7978 N 790.784 -1.46188 -0.588786 0
M  V30 7979 C 792.024 -1.52738 -1.35833 0
M  V30 7980 C 792.388 -0.172403 -1.91224 0
M  V30 7981 O 793.589 -0.112633 -2.68564 0
M  V30 7982 C 791.86 -2.59085 -2.4619 0
M  V30 7983 S 793.419 -2.84997 -3.3365 0
M  V30 7984 H 790.237 -0.539713 -0.462851 0
M  V30 7985 H 792.839 -1.83386 -0.677489 0
M  V30 7986 H 791.543 -3.56177 -2.03878 0
M  V30 7987 H 791.074 -2.3015 -3.19053 0
M  V30 7988 H 793.089 -2.19804 -4.4486 0
M  V30 7989 N 792.262 0.832906 -1.33792 0
M  V30 7990 C 793.192 1.95828 -1.27176 0
M  V30 7991 C 794.173 1.69427 -0.15114 0
M  V30 7992 O 795.358 1.91167 -0.341886 0
M  V30 7993 C 792.488 3.32098 -1.01629 0
M  V30 7994 C 791.442 3.72912 -2.10049 0
M  V30 7995 C 790.768 5.07054 -1.69706 0
M  V30 7996 C 792.068 3.86064 -3.51783 0
M  V30 7997 H 793.762 2.01622 -2.21334 0
M  V30 7998 H 791.308 0.96866 -1.0655 0
M  V30 7999 H 793.261 4.10402 -0.956474 0
M  V30 8000 H 791.985 3.26577 -0.0390956 0
M  V30 8001 H 790.644 2.96876 -2.15082 0
M  V30 8002 H 790.292 4.9801 -0.706737 0
M  V30 8003 H 789.992 5.35333 -2.42264 0
M  V30 8004 H 791.516 5.87827 -1.65202 0
M  V30 8005 H 792.93 4.54665 -3.49218 0
M  V30 8006 H 791.327 4.25787 -4.22878 0
M  V30 8007 H 792.397 2.88344 -3.89854 0
M  V30 8008 N 793.74 1.17359 1.05189 0
M  V30 8009 C 795.156 0.920861 1.30355 0
M  V30 8010 C 795.356 -0.419993 1.97074 0
M  V30 8011 O 794.412 -1.15696 2.24434 0
M  V30 8012 C 795.725 2.07818 2.1733 0
M  V30 8013 C 797.273 2.1152 2.30712 0
M  V30 8014 C 797.748 3.26637 3.21048 0
M  V30 8015 N 799.239 3.26426 3.28634 0
M  V30 8016 C 799.974 4.12141 3.98657 0
M  V30 8017 N 799.47 5.07966 4.71107 0
M  V30 8018 N 801.263 4.00091 3.94821 0
M  V30 8019 H 793.414 2.03666 0.602821 0
M  V30 8020 H 795.677 0.889294 0.328421 0
M  V30 8021 H 795.383 3.04727 1.75597 0
M  V30 8022 H 795.257 2.02922 3.17966 0
M  V30 8023 H 797.644 1.15196 2.71687 0
M  V30 8024 H 797.725 2.20477 1.29706 0
M  V30 8025 H 797.369 4.23227 2.80788 0
M  V30 8026 H 797.299 3.14917 4.2206 0
M  V30 8027 H 799.79 2.57045 2.77013 0
M  V30 8028 H 800.103 5.69766 5.22099 0
M  V30 8029 H 798.448 5.11936 4.7005 0
M  V30 8030 H 801.639 3.24523 3.37346 0
M  V30 8031 H 801.812 4.6711 4.49123 0
M  V30 8032 N 795.218 -1.23913 0.973828 0
M  V30 8033 C 796.181 -2.23367 0.51378 0
M  V30 8034 C 797.181 -1.55923 -0.39302 0
M  V30 8035 O 798.371 -1.73187 -0.187626 0
M  V30 8036 C 795.503 -3.39944 -0.255152 0
M  V30 8037 H 796.696 -2.65581 1.39307 0
M  V30 8038 H 794.249 -1.36632 0.759039 0
M  V30 8039 H 794.984 -3.03177 -1.15127 0
M  V30 8040 H 794.769 -3.90098 0.395673 0
M  V30 8041 H 796.259 -4.13749 -0.565842 0
M  V30 8042 N 796.696 -0.74468 -1.38897 0
M  V30 8043 C 797.942 -0.306249 -2.01081 0
M  V30 8044 C 798.297 1.09724 -1.58046 0
M  V30 8045 O 797.59 1.73923 -0.803834 0
M  V30 8046 C 797.784 -0.357302 -3.55609 0
M  V30 8047 C 797.613 -1.76421 -4.13649 0
M  V30 8048 C 796.383 -2.3787 -4.4581 0
M  V30 8049 C 798.581 -2.71942 -4.36523 0
M  V30 8050 N 796.563 -3.70614 -4.89406 0
M  V30 8051 C 797.934 -3.89437 -4.8243 0
M  V30 8052 C 799.989 -2.69579 -4.18607 0
M  V30 8053 C 798.692 -5.04917 -5.123 0
M  V30 8054 C 800.718 -3.8421 -4.49596 0
M  V30 8055 C 800.08 -5.00442 -4.95719 0
M  V30 8056 H 796.179 -0.158531 -0.765762 0
M  V30 8057 H 798.763 -0.972726 -1.6866 0
M  V30 8058 H 796.934 0.278865 -3.87398 0
M  V30 8059 H 798.666 0.100599 -4.04575 0
M  V30 8060 H 795.421 -1.8971 -4.33943 0
M  V30 8061 H 795.845 -4.38791 -5.1555 0
M  V30 8062 H 800.487 -1.80905 -3.82143 0
M  V30 8063 H 798.205 -5.94213 -5.47665 0
M  V30 8064 H 801.791 -3.83691 -4.37347 0
M  V30 8065 H 800.671 -5.87671 -5.19242 0
M  V30 8066 N 798.174 1.49689 -0.493057 0
M  V30 8067 C 799.124 2.25901 0.308682 0
M  V30 8068 C 800.108 1.30408 0.94247 0
M  V30 8069 O 801.3 1.55179 0.851384 0
M  V30 8070 C 798.429 3.14463 1.37725 0
M  V30 8071 C 797.515 4.17414 0.7501 0
M  V30 8072 N 797.906 5.05599 -0.142597 0
M  V30 8073 C 796.204 4.34377 1.01159 0
M  V30 8074 C 796.905 5.7954 -0.500782 0
M  V30 8075 N 795.881 5.43446 0.129386 0
M  V30 8076 H 799.683 2.91451 -0.378652 0
M  V30 8077 H 797.197 1.59441 -0.308614 0
M  V30 8078 H 799.194 3.67687 1.965 0
M  V30 8079 H 797.854 2.50464 2.06635 0
M  V30 8080 H 798.865 5.15354 -0.512894 0
M  V30 8081 H 795.542 3.81588 1.69402 0
M  V30 8082 H 796.932 6.60534 -1.23063 0
M  V30 8083 N 799.652 0.226554 1.55963 0
M  V30 8084 C 800.899 -0.403789 1.98433 0
M  V30 8085 C 801.227 -1.59416 1.1143 0
M  V30 8086 O 800.482 -1.95042 0.160389 0
M  V30 8087 C 800.781 -0.87642 3.46488 0
M  V30 8088 C 800.447 0.203973 4.50438 0
M  V30 8089 C 799.109 0.500754 4.78587 0
M  V30 8090 C 801.461 0.934396 5.12756 0
M  V30 8091 C 798.789 1.53239 5.66334 0
M  V30 8092 C 801.141 1.9554 6.0162 0
M  V30 8093 C 799.805 2.25905 6.28111 0
M  V30 8094 H 799.075 -0.147757 0.726119 0
M  V30 8095 H 801.722 0.330121 1.88633 0
M  V30 8096 H 800.027 -1.68918 3.53517 0
M  V30 8097 H 801.724 -1.37407 3.76723 0
M  V30 8098 H 798.314 -0.0374917 4.28584 0
M  V30 8099 H 802.498 0.718355 4.91074 0
M  V30 8100 H 797.754 1.77321 5.85122 0
M  V30 8101 H 801.928 2.52642 6.48957 0
M  V30 8102 H 799.555 3.05985 6.959 0
M  V30 8103 N 801.13 -1.57531 -0.0467866 0
M  V30 8104 C 802.063 -2.00734 -1.08541 0
M  V30 8105 C 803.041 -0.888508 -1.36177 0
M  V30 8106 O 804.225 -1.1529 -1.49132 0
M  V30 8107 C 801.352 -2.36535 -2.42423 0
M  V30 8108 C 800.398 -3.58681 -2.3076 0
M  V30 8109 S 801.231 -5.08536 -1.67785 0
M  V30 8110 C 802.387 -5.47562 -3.03194 0
M  V30 8111 H 802.62 -2.88516 -0.717345 0
M  V30 8112 H 800.153 -1.5226 -0.256181 0
M  V30 8113 H 802.111 -2.57834 -3.19424 0
M  V30 8114 H 800.772 -1.49236 -2.76382 0
M  V30 8115 H 799.965 -3.81329 -3.29552 0
M  V30 8116 H 799.567 -3.37142 -1.61899 0
M  V30 8117 H 801.859 -5.47163 -3.99524 0
M  V30 8118 H 802.802 -6.48082 -2.85299 0
M  V30 8119 H 803.21 -4.75042 -3.04951 0
M  V30 8120 N 802.608 0.318715 -1.54344 0
M  V30 8121 C 803.856 1.054 -1.72439 0
M  V30 8122 C 804.177 1.88388 -0.503495 0
M  V30 8123 O 803.447 1.89866 0.48246 0
M  V30 8124 H 802.027 0.392124 -0.635805 0
M  V30 8125 H 804.689 0.35398 -1.91659 0
M  V30 8126 H 803.785 1.71726 -2.60608 0
M  V30 8127 N 804.086 1.46499 0.581025 0
M  V30 8128 C 805.326 1.53456 1.35021 0
M  V30 8129 C 805.69 0.182542 1.9113 0
M  V30 8130 O 806.891 0.126874 2.685 0
M  V30 8131 C 805.162 2.60387 2.44812 0
M  V30 8132 S 806.721 2.86762 3.32134 0
M  V30 8133 H 803.539 0.54216 0.459982 0
M  V30 8134 H 806.141 1.83742 0.667754 0
M  V30 8135 H 804.845 3.57253 2.01986 0
M  V30 8136 H 804.376 2.31839 3.17828 0
M  V30 8137 H 806.391 2.2216 4.43688 0
M  V30 8138 N 805.565 -0.825799 1.34232 0
M  V30 8139 C 806.813 -1.57873 1.26177 0
M  V30 8140 C 807.134 -1.94267 -0.168904 0
M  V30 8141 O 806.404 -1.62045 -1.10084 0
M  V30 8142 H 804.984 -0.585388 0.464037 0
M  V30 8143 H 807.646 -0.986163 1.6811 0
M  V30 8144 H 806.742 -2.50283 1.86453 0
M  V30 8145 N 807.043 -1.17915 -1.04565 0
M  V30 8146 C 808.289 -0.982872 -1.78076 0
M  V30 8147 C 808.644 0.482843 -1.86243 0
M  V30 8148 O 807.937 1.35383 -1.3558 0
M  V30 8149 C 808.131 -1.56528 -3.213 0
M  V30 8150 C 807.96 -3.0861 -3.27093 0
M  V30 8151 C 806.73 -3.77389 -3.36014 0
M  V30 8152 C 808.928 -4.06146 -3.15515 0
M  V30 8153 N 806.91 -5.1702 -3.31004 0
M  V30 8154 C 808.281 -5.32268 -3.17948 0
M  V30 8155 C 810.336 -3.97732 -2.99522 0
M  V30 8156 C 809.039 -6.50951 -3.06031 0
M  V30 8157 C 811.065 -5.16007 -2.88948 0
M  V30 8158 C 810.427 -6.41018 -2.9202 0
M  V30 8159 H 806.526 -0.413617 -0.66366 0
M  V30 8160 H 809.11 -1.49607 -1.24603 0
M  V30 8161 H 807.281 -1.07833 -3.73131 0
M  V30 8162 H 809.013 -1.30501 -3.83082 0
M  V30 8163 H 805.768 -3.28098 -3.41538 0
M  V30 8164 H 806.192 -5.90031 -3.31952 0
M  V30 8165 H 810.834 -3.01919 -2.95981 0
M  V30 8166 H 808.552 -7.46968 -3.08326 0
M  V30 8167 H 812.138 -5.11283 -2.77635 0
M  V30 8168 H 811.018 -7.30999 -2.83919 0
M  V30 8169 N 808.521 1.23394 -0.980386 0
M  V30 8170 C 809.761 1.93543 -0.657288 0
M  V30 8171 C 810.125 1.74791 0.794477 0
M  V30 8172 O 811.326 2.39089 1.2284 0
M  V30 8173 C 809.597 3.42025 -1.03701 0
M  V30 8174 S 811.156 4.30871 -0.830379 0
M  V30 8175 H 807.974 0.669012 -0.240717 0
M  V30 8176 H 810.576 1.49478 -1.26002 0
M  V30 8177 H 809.28 3.53183 -2.09022 0
M  V30 8178 H 808.811 3.91091 -0.425559 0
M  V30 8179 H 810.826 4.95377 0.285719 0
M  V30 8180 N 809.999 0.752036 1.385 0
M  V30 8181 C 811.247 0.306895 1.99756 0
M  V30 8182 C 811.568 -1.11478 1.59992 0
M  V30 8183 O 810.838 -1.76206 0.856045 0
M  V30 8184 H 809.418 0.11048 0.738785 0
M  V30 8185 H 812.08 0.965785 1.69289 0
M  V30 8186 H 811.176 0.368797 3.09913 0
M  V30 8187 N 811.477 -1.49425 0.500989 0
M  V30 8188 C 812.425 -2.30771 -0.291149 0
M  V30 8189 C 813.419 -1.3938 -0.962787 0
M  V30 8190 O 814.625 -1.56431 -0.890477 0
M  V30 8191 H 811 -0.743499 -0.11275 0
M  V30 8192 H 812.971 -2.95501 0.414917 0
M  V30 8193 C 811.72 -3.20725 -1.34279 0
M  V30 8194 H 811.043 -3.90975 -0.83538 0
M  V30 8195 H 812.483 -3.80583 -1.86903 0
M  V30 8196 C 810.942 -2.40334 -2.36095 0
M  V30 8197 O 811.472 -2.10749 -3.41976 0
M  V30 8198 N 809.678 -2.02359 -2.08565 0
M  V30 8199 H 809.225 -2.26619 -1.22482 0
M  V30 8200 H 809.183 -1.48878 -2.76916 0
M  V30 8201 N 812.955 -0.234822 -1.55841 0
M  V30 8202 C 813.888 0.710134 -2.16869 0
M  V30 8203 C 814.866 1.18155 -1.11706 0
M  V30 8204 O 816.05 1.26188 -1.40032 0
M  V30 8205 C 813.177 1.96368 -2.75966 0
M  V30 8206 C 812.223 1.63114 -3.94076 0
M  V30 8207 S 813.056 0.744307 -5.30302 0
M  V30 8208 C 814.212 2.00712 -5.92845 0
M  V30 8209 H 814.445 0.19146 -2.96683 0
M  V30 8210 H 811.978 -0.0193854 -1.54388 0
M  V30 8211 H 813.936 2.68338 -3.10653 0
M  V30 8212 H 812.597 2.45347 -1.96121 0
M  V30 8213 H 811.79 2.56285 -4.33975 0
M  V30 8214 H 811.392 0.991967 -3.60605 0
M  V30 8215 H 813.684 2.9557 -6.09627 0
M  V30 8216 H 814.627 1.65182 -6.88564 0
M  V30 8217 H 815.035 2.1537 -5.21801 0
M  V30 8218 N 814.433 1.57553 0.0384317 0
M  V30 8219 C 815.673 1.90687 0.736069 0
M  V30 8220 C 816.037 0.832381 1.73019 0
M  V30 8221 O 817.238 1.04777 2.47538 0
M  V30 8222 C 815.509 3.28994 1.39635 0
M  V30 8223 S 817.068 3.83944 2.12444 0
M  V30 8224 H 813.886 0.667799 0.244059 0
M  V30 8225 H 816.488 1.95498 -0.00901643 0
M  V30 8226 H 815.192 4.05067 0.659465 0
M  V30 8227 H 814.723 3.27463 2.18018 0
M  V30 8228 H 816.738 3.61916 3.39457 0
M  V30 8229 N 815.911 -0.310526 1.54511 0
M  V30 8230 C 817.159 -1.04484 1.72996 0
M  V30 8231 C 817.48 -1.88118 0.513479 0
M  V30 8232 O 816.75 -1.90119 -0.472384 0
M  V30 8233 H 815.33 -0.388747 0.637875 0
M  V30 8234 H 817.992 -0.343811 1.91844 0
M  V30 8235 H 817.088 -1.70341 2.61515 0
M  V30 8236 N 817.389 -1.46805 -0.573248 0
M  V30 8237 C 818.321 -1.54127 -1.6964 0
M  V30 8238 C 819.334 -0.428778 -1.57052 0
M  V30 8239 O 820.523 -0.697612 -1.64303 0
M  V30 8240 C 817.623 -1.41438 -3.07975 0
M  V30 8241 C 816.796 -2.66974 -3.46474 0
M  V30 8242 C 815.855 -2.48349 -4.63906 0
M  V30 8243 O 814.881 -3.22109 -4.69292 0
M  V30 8244 N 816.083 -1.55129 -5.59388 0
M  V30 8245 H 818.848 -2.50971 -1.6381 0
M  V30 8246 H 816.409 -1.42981 -0.759479 0
M  V30 8247 H 818.401 -1.26737 -3.84343 0
M  V30 8248 H 816.971 -0.527388 -3.08119 0
M  V30 8249 H 816.191 -2.9655 -2.59715 0
M  V30 8250 H 817.479 -3.50347 -3.68964 0
M  V30 8251 H 816.877 -0.94324 -5.57781 0
M  V30 8252 H 815.434 -1.46387 -6.35149 0
M  V30 8253 N 818.867 0.818669 -1.34668 0
M  V30 8254 C 819.799 1.93754 -1.22442 0
M  V30 8255 C 820.812 1.62103 -0.150501 0
M  V30 8256 O 822.001 1.73898 -0.402728 0
M  V30 8257 C 819.101 3.27806 -0.860031 0
M  V30 8258 C 818.274 3.8745 -2.02981 0
M  V30 8259 C 817.333 4.99887 -1.64314 0
M  V30 8260 O 816.359 5.17957 -2.36029 0
M  V30 8261 N 817.561 5.77795 -0.55976 0
M  V30 8262 H 820.326 2.04773 -2.18833 0
M  V30 8263 H 817.887 0.995472 -1.27679 0
M  V30 8264 H 819.879 4.00478 -0.583068 0
M  V30 8265 H 818.449 3.12597 0.0138253 0
M  V30 8266 H 817.669 3.07119 -2.47127 0
M  V30 8267 H 818.957 4.2403 -2.81204 0
M  V30 8268 H 818.355 5.65688 0.0363329 0
M  V30 8269 H 816.912 6.50899 -0.342541 0
M  V30 8270 N 820.346 1.18468 1.03938 0
M  V30 8271 C 821.293 0.912859 2.1198 0
M  V30 8272 C 822.263 -0.14824 1.65437 0
M  V30 8273 O 823.448 -0.008331 1.90798 0
M  V30 8274 C 820.588 0.446114 3.42204 0
M  V30 8275 C 819.701 1.57278 4.02353 0
M  V30 8276 C 818.836 1.05863 5.20544 0
M  V30 8277 C 817.875 2.1599 5.72726 0
M  V30 8278 N 817.012 1.65959 6.82204 0
M  V30 8279 H 821.852 1.83798 2.34569 0
M  V30 8280 H 819.389 0.916504 1.15059 0
M  V30 8281 H 821.347 0.15697 4.16905 0
M  V30 8282 H 819.977 -0.442025 3.19759 0
M  V30 8283 H 819.029 1.97737 3.24968 0
M  V30 8284 H 820.341 2.40289 4.37107 0
M  V30 8285 H 819.495 0.724087 6.02364 0
M  V30 8286 H 818.234 0.198116 4.87297 0
M  V30 8287 H 817.239 2.50287 4.89527 0
M  V30 8288 H 818.464 3.02479 6.08016 0
M  V30 8289 H 816.41 0.82199 6.5083 0
M  V30 8290 H 816.327 2.42567 7.16029 0
M  V30 8291 H 817.595 1.35436 7.67644 0
M  V30 8292 N 821.824 -1.22873 0.986916 0
M  V30 8293 C 822.734 -2.28277 0.540978 0
M  V30 8294 C 823.75 -1.69164 -0.407363 0
M  V30 8295 O 824.926 -1.99504 -0.275674 0
M  V30 8296 C 821.991 -3.46404 -0.143181 0
M  V30 8297 C 821.052 -4.20854 0.847375 0
M  V30 8298 C 820.285 -5.33341 0.19577 0
M  V30 8299 O 820.508 -5.61356 -1.0117 0
M  V30 8300 O 819.442 -5.95169 0.897623 0
M  V30 8301 H 823.268 -2.68578 1.41773 0
M  V30 8302 H 820.853 -1.28927 0.754867 0
M  V30 8303 H 822.735 -4.18096 -0.526676 0
M  V30 8304 H 821.41 -3.08041 -0.994593 0
M  V30 8305 H 820.317 -3.51459 1.28169 0
M  V30 8306 H 821.65 -4.63082 1.6678 0
M  V30 8307 N 823.302 -0.75937 -1.38099 0
M  V30 8308 C 824.542 -0.323116 -2.0183 0
M  V30 8309 C 824.906 1.07658 -1.58977 0
M  V30 8310 O 826.107 1.61227 -2.1508 0
M  V30 8311 C 824.378 -0.448234 -3.54578 0
M  V30 8312 S 825.937 -0.0954152 -4.38696 0
M  V30 8313 H 822.755 -0.125013 -0.699923 0
M  V30 8314 H 825.357 -0.991262 -1.68506 0
M  V30 8315 H 824.061 -1.46778 -3.83255 0
M  V30 8316 H 823.592 0.236895 -3.92686 0
M  V30 8317 H 825.607 1.11312 -4.83554 0
M  V30 8318 N 824.78 1.49157 -0.508906 0
M  V30 8319 C 826.191 1.86593 -0.0630975 0
M  V30 8320 C 826.542 1.42051 1.35337 0
M  V30 8321 O 825.667 0.801866 2.00995 0
M  V30 8322 C 826.262 3.38629 -0.107729 0
M  V30 8323 C 824.821 3.75336 0.282776 0
M  V30 8324 C 823.968 2.7317 -0.4768 0
M  V30 8325 H 826.919 1.41362 -0.72128 0
M  V30 8326 H 826.94 3.74271 0.685689 0
M  V30 8327 H 826.452 3.71017 -1.13876 0
M  V30 8328 H 824.553 3.48558 1.31675 0
M  V30 8329 H 824.666 4.79081 -0.0421728 0
M  V30 8330 H 823.03 2.54591 0.0743552 0
M  V30 8331 H 823.813 3.08403 -1.50807 0
M  V30 8332 N 826.258 0.243083 1.55714 0
M  V30 8333 C 827.506 -0.381964 1.98458 0
M  V30 8334 C 827.827 -1.58745 1.13247 0
M  V30 8335 O 827.097 -1.94723 0.214384 0
M  V30 8336 H 825.677 -0.144114 0.732967 0
M  V30 8337 H 828.339 0.340985 1.91894 0
M  V30 8338 H 827.435 -0.693702 3.04293 0
M  V30 8339 N 827.736 -1.57571 -0.0300757 0
M  V30 8340 C 828.961 -1.93879 -0.736601 0
M  V30 8341 C 829.386 -0.842998 -1.68152 0
M  V30 8342 O 828.744 0.20135 -1.80178 0
M  V30 8343 C 828.792 -3.29247 -1.47066 0
M  V30 8344 O 827.896 -3.21426 -2.58378 0
M  V30 8345 H 827.237 -0.633735 -0.198181 0
M  V30 8346 H 829.767 -2.04595 0.0141485 0
M  V30 8347 H 829.777 -3.64113 -1.84081 0
M  V30 8348 H 828.452 -4.08565 -0.77764 0
M  V30 8349 H 827.029 -2.98189 -2.23914 0
M  V30 8350 N 829.214 0.302327 -1.54673 0
M  V30 8351 C 830.46 1.03532 -1.75079 0
M  V30 8352 C 830.815 1.84972 -0.52943 0
M  V30 8353 O 830.108 1.85537 0.478169 0
M  V30 8354 C 830.302 1.97365 -2.97963 0
M  V30 8355 C 830.131 1.25154 -4.31934 0
M  V30 8356 C 828.901 0.979243 -4.95721 0
M  V30 8357 C 831.099 0.656653 -5.10091 0
M  V30 8358 N 829.081 0.227265 -6.13479 0
M  V30 8359 C 830.452 0.0373759 -6.19989 0
M  V30 8360 C 832.507 0.561571 -4.94723 0
M  V30 8361 C 831.21 -0.667782 -7.16194 0
M  V30 8362 C 833.236 -0.12993 -5.91257 0
M  V30 8363 C 832.598 -0.738063 -7.00523 0
M  V30 8364 H 828.697 0.361824 -0.693258 0
M  V30 8365 H 831.281 0.314091 -1.9215 0
M  V30 8366 H 829.452 2.66739 -2.8232 0
M  V30 8367 H 831.184 2.63806 -3.06902 0
M  V30 8368 H 827.939 1.27706 -4.56057 0
M  V30 8369 H 828.363 -0.135199 -6.76865 0
M  V30 8370 H 833.005 1.01744 -4.10375 0
M  V30 8371 H 830.723 -1.13542 -8.00084 0
M  V30 8372 H 834.309 -0.203423 -5.81444 0
M  V30 8373 H 833.189 -1.26463 -7.73936 0
M  V30 8374 N 830.692 1.47107 0.565454 0
M  V30 8375 C 831.624 1.55024 1.6882 0
M  V30 8376 C 832.637 0.4371 1.56822 0
M  V30 8377 O 833.826 0.706315 1.63931 0
M  V30 8378 C 830.926 1.43069 3.0722 0
M  V30 8379 C 830.099 2.68807 3.45053 0
M  V30 8380 C 829.158 2.50806 4.62583 0
M  V30 8381 O 828.184 3.24593 4.67577 0
M  V30 8382 N 829.386 1.58093 5.58558 0
M  V30 8383 H 832.151 2.51836 1.62477 0
M  V30 8384 H 829.712 1.43382 0.751885 0
M  V30 8385 H 831.704 1.28773 3.83666 0
M  V30 8386 H 830.274 0.543721 3.07835 0
M  V30 8387 H 829.494 2.97923 2.58138 0
M  V30 8388 H 830.782 3.52298 3.67101 0
M  V30 8389 H 830.18 0.972807 5.57273 0
M  V30 8390 H 828.737 1.49753 6.34364 0
M  V30 8391 N 832.17 -0.811516 1.35101 0
M  V30 8392 C 833.102 -1.93102 1.23468 0
M  V30 8393 C 834.115 -1.62021 0.159095 0
M  V30 8394 O 835.304 -1.73682 0.411945 0
M  V30 8395 C 832.404 -3.27345 0.877404 0
M  V30 8396 C 831.577 -3.86368 2.05033 0
M  V30 8397 C 830.636 -4.99009 1.66963 0
M  V30 8398 O 829.662 -5.16698 2.38772 0
M  V30 8399 N 830.864 -5.7749 0.590394 0
M  V30 8400 H 833.629 -2.0361 2.19916 0
M  V30 8401 H 831.19 -0.988687 1.28205 0
M  V30 8402 H 833.182 -4.00163 0.604298 0
M  V30 8403 H 831.752 -3.126 0.00275267 0
M  V30 8404 H 830.972 -3.05804 2.48752 0
M  V30 8405 H 832.26 -4.22533 2.83449 0
M  V30 8406 H 831.658 -5.657 -0.00633259 0
M  V30 8407 H 830.215 -6.50708 0.377055 0
M  V30 8408 N 833.648 -1.19017 -1.03309 0
M  V30 8409 C 834.925 -0.899659 -1.73682 0
M  V30 8410 C 835.305 0.595677 -2.02521 0
M  V30 8411 O 834.653 1.55263 -1.67648 0
M  V30 8412 C 834.863 -1.75508 -3.01659 0
M  V30 8413 C 836.211 -1.98679 -3.75249 0
M  V30 8414 O 837.235 -1.72624 -3.11576 0
M  V30 8415 O 836.094 -2.42587 -4.89708 0
M  V30 8416 H 833.188 -0.334903 -0.756154 0
M  V30 8417 H 835.734 -1.29809 -1.09305 0
M  V30 8418 H 834.506 -2.7684 -2.76542 0
M  V30 8419 H 834.129 -1.35565 -3.73775 0
M  V30 8420 N 835.127 1.22348 -0.993418 0
M  V30 8421 C 836.077 2.221 -0.515333 0
M  V30 8422 C 837.061 1.55409 0.416762 0
M  V30 8423 O 838.253 1.75317 0.243497 0
M  V30 8424 C 835.382 3.42888 0.168173 0
M  V30 8425 C 834.468 4.16786 -0.784257 0
M  V30 8426 N 834.859 4.67435 -1.93231 0
M  V30 8427 C 833.157 4.41942 -0.600243 0
M  V30 8428 C 833.858 5.23792 -2.53016 0
M  V30 8429 N 832.834 5.12483 -1.8128 0
M  V30 8430 H 836.636 2.58902 -1.39093 0
M  V30 8431 H 834.15 1.38024 -0.855747 0
M  V30 8432 H 836.147 4.13542 0.528069 0
M  V30 8433 H 834.807 3.07598 1.03989 0
M  V30 8434 H 835.818 4.63375 -2.31309 0
M  V30 8435 H 832.495 4.16891 0.225369 0
M  V30 8436 H 833.885 5.73515 -3.50043 0
M  V30 8437 N 836.605 0.766683 1.37694 0
M  V30 8438 C 837.845 0.333815 2.01656 0
M  V30 8439 C 838.209 -1.06813 1.59546 0
M  V30 8440 O 839.41 -1.60084 2.15932 0
M  V30 8441 C 837.681 0.467032 3.54335 0
M  V30 8442 S 839.24 0.118679 4.38639 0
M  V30 8443 H 836.058 0.128723 0.699251 0
M  V30 8444 H 838.66 1.00018 1.67978 0
M  V30 8445 H 837.364 1.48808 3.82471 0
M  V30 8446 H 836.895 -0.216066 3.92806 0
M  V30 8447 H 838.91 -1.08746 4.84137 0
M  V30 8448 N 838.083 -1.48885 0.516809 0
M  V30 8449 C 839.494 -1.86557 0.0729921 0
M  V30 8450 C 839.845 -1.42767 -1.34581 0
M  V30 8451 O 838.97 -0.812514 -2.00567 0
M  V30 8452 C 839.565 -3.38567 0.125686 0
M  V30 8453 C 838.124 -3.75481 -0.262867 0
M  V30 8454 C 837.271 -2.72913 0.491281 0
M  V30 8455 H 840.222 -1.40978 0.728767 0
M  V30 8456 H 840.243 -3.74629 -0.665831 0
M  V30 8457 H 839.755 -3.70408 1.15842 0
M  V30 8458 H 837.856 -3.49251 -1.29824 0
M  V30 8459 H 837.969 -4.79052 0.067579 0
M  V30 8460 H 836.333 -2.54627 -0.0608525 0
M  V30 8461 H 837.116 -3.07599 1.5244 0
M  V30 8462 N 839.561 -0.251338 -1.55583 0
M  V30 8463 C 840.972 0.25098 -1.85005 0
M  V30 8464 C 841.323 1.57259 -1.17321 0
M  V30 8465 O 840.448 2.11603 -0.453136 0
M  V30 8466 C 841.043 0.462161 -3.35633 0
M  V30 8467 C 839.602 0.908737 -3.65266 0
M  V30 8468 C 838.749 -0.0115418 -2.77298 0
M  V30 8469 H 841.7 -0.473782 -1.51463 0
M  V30 8470 H 841.721 1.30415 -3.57452 0
M  V30 8471 H 841.233 -0.499886 -3.84867 0
M  V30 8472 H 839.334 1.8831 -3.21512 0
M  V30 8473 H 839.447 0.762526 -4.72993 0
M  V30 8474 H 837.811 0.500612 -2.49732 0
M  V30 8475 H 838.594 -0.969042 -3.29339 0
M  V30 8476 N 841.039 1.57585 0.0217189 0
M  V30 8477 C 841.986 2.07036 1.02004 0
M  V30 8478 C 842.956 0.96106 1.35473 0
M  V30 8479 O 844.141 1.23211 1.45684 0
M  V30 8480 C 841.281 2.56056 2.31364 0
M  V30 8481 C 840.394 3.80805 2.03989 0
M  V30 8482 C 839.529 4.18409 3.27272 0
M  V30 8483 C 838.568 5.36055 2.95486 0
M  V30 8484 N 837.705 5.69056 4.11242 0
M  V30 8485 H 842.545 2.92073 0.591396 0
M  V30 8486 H 840.082 1.44403 0.280384 0
M  V30 8487 H 842.04 2.82548 3.06957 0
M  V30 8488 H 840.67 1.73925 2.71937 0
M  V30 8489 H 839.722 3.61354 1.1886 0
M  V30 8490 H 841.034 4.66512 1.76546 0
M  V30 8491 H 840.188 4.46068 4.11228 0
M  V30 8492 H 838.927 3.31369 3.57835 0
M  V30 8493 H 837.932 5.08142 2.09933 0
M  V30 8494 H 839.157 6.24755 2.66193 0
M  V30 8495 H 837.103 4.84974 4.41742 0
M  V30 8496 H 837.02 6.49288 3.87247 0
M  V30 8497 H 838.288 6.01295 4.96049 0
M  V30 8498 N 842.517 -0.29412 1.54831 0
M  V30 8499 C 843.447 -1.36757 1.89261 0
M  V30 8500 C 844.428 -1.52564 0.752214 0
M  V30 8501 O 845.613 -1.65958 1.00855 0
M  V30 8502 C 842.743 -2.73066 2.14597 0
M  V30 8503 C 841.697 -2.72017 3.3044 0
M  V30 8504 C 841.023 -4.11679 3.4121 0
M  V30 8505 C 842.323 -2.33149 4.67375 0
M  V30 8506 H 844.017 -1.08191 2.79169 0
M  V30 8507 H 841.563 -0.519014 1.34321 0
M  V30 8508 H 843.516 -3.48255 2.37269 0
M  V30 8509 H 842.24 -3.03172 1.21467 0
M  V30 8510 H 840.899 -1.99285 3.07703 0
M  V30 8511 H 840.547 -4.38973 2.45584 0
M  V30 8512 H 840.247 -4.11877 4.19084 0
M  V30 8513 H 841.771 -4.88637 3.6615 0
M  V30 8514 H 843.185 -2.98054 4.89731 0
M  V30 8515 H 841.582 -2.44546 5.48012 0
M  V30 8516 H 842.652 -1.28275 4.67626 0
M  V30 8517 N 843.995 -1.47404 -0.557645 0
M  V30 8518 C 845.223 -1.57622 -1.34026 0
M  V30 8519 C 845.638 -0.226256 -1.87439 0
M  V30 8520 O 844.995 0.78043 -1.64971 0
M  V30 8521 C 845.046 -2.60111 -2.51047 0
M  V30 8522 O 844.767 -3.89866 -1.99841 0
M  V30 8523 C 846.268 -2.80508 -3.43264 0
M  V30 8524 H 843.488 -0.532271 -0.40857 0
M  V30 8525 H 846.032 -1.93019 -0.675555 0
M  V30 8526 H 844.187 -2.27648 -3.13457 0
M  V30 8527 H 844.601 -4.45864 -2.76234 0
M  V30 8528 H 846.075 -3.56084 -4.21792 0
M  V30 8529 H 846.552 -1.88314 -3.9678 0
M  V30 8530 H 847.158 -3.14166 -2.86671 0
M  V30 8531 N 845.473 0.80434 -1.35529 0
M  V30 8532 C 846.383 1.94784 -1.30753 0
M  V30 8533 C 847.399 1.72703 -0.212071 0
M  V30 8534 O 848.575 1.96494 -0.441841 0
M  V30 8535 C 845.64 3.29406 -1.08133 0
M  V30 8536 C 844.701 3.64367 -2.27013 0
M  V30 8537 C 843.934 4.92566 -2.05463 0
M  V30 8538 O 844.157 5.61166 -1.02222 0
M  V30 8539 O 843.091 5.25838 -2.92879 0
M  V30 8540 H 846.917 2.01761 -2.26994 0
M  V30 8541 H 844.502 0.942448 -1.15924 0
M  V30 8542 H 846.384 4.09995 -0.973756 0
M  V30 8543 H 845.059 3.23355 -0.149444 0
M  V30 8544 H 843.966 2.84146 -2.43335 0
M  V30 8545 H 845.299 3.75125 -3.18656 0
M  V30 8546 N 846.951 1.19563 1.02676 0
M  V30 8547 C 848.198 0.999568 1.7611 0
M  V30 8548 C 848.526 -0.469432 1.8875 0
M  V30 8549 O 847.781 -1.36481 1.40255 0
M  V30 8550 C 848.08 1.61619 3.18769 0
M  V30 8551 C 847.746 3.11366 3.26132 0
M  V30 8552 C 846.408 3.52234 3.27848 0
M  V30 8553 C 848.76 4.07374 3.25109 0
M  V30 8554 C 846.088 4.87658 3.26201 0
M  V30 8555 C 848.44 5.42731 3.25002 0
M  V30 8556 C 847.104 5.83027 3.25017 0
M  V30 8557 H 846.374 0.365768 0.644434 0
M  V30 8558 H 849.021 1.48838 1.20497 0
M  V30 8559 H 847.326 1.04974 3.77476 0
M  V30 8560 H 849.023 1.43975 3.74262 0
M  V30 8561 H 845.613 2.78804 3.25525 0
M  V30 8562 H 849.797 3.76842 3.22961 0
M  V30 8563 H 845.053 5.18156 3.24537 0
M  V30 8564 H 849.227 6.16879 3.23161 0
M  V30 8565 H 846.854 6.87936 3.23494 0
M  V30 8566 N 848.429 -1.21819 0.999893 0
M  V30 8567 C 849.379 -2.21823 0.527104 0
M  V30 8568 C 850.363 -1.55628 -0.408515 0
M  V30 8569 O 851.555 -1.75444 -0.234196 0
M  V30 8570 C 848.684 -3.42972 -0.149986 0
M  V30 8571 C 847.77 -4.16364 0.806349 0
M  V30 8572 N 848.161 -4.66403 1.95708 0
M  V30 8573 C 846.459 -4.41618 0.623672 0
M  V30 8574 C 847.16 -5.22443 2.5579 0
M  V30 8575 N 846.136 -5.11514 1.83995 0
M  V30 8576 H 849.938 -2.58161 1.40464 0
M  V30 8577 H 847.452 -1.37569 0.863054 0
M  V30 8578 H 849.449 -4.13816 -0.50613 0
M  V30 8579 H 848.109 -3.08145 -1.02357 0
M  V30 8580 H 849.12 -4.62142 2.33763 0
M  V30 8581 H 845.797 -4.17005 -0.203257 0
M  V30 8582 H 847.187 -5.7165 3.5308 0
M  V30 8583 N 849.908 -0.773975 -1.37286 0
M  V30 8584 C 851.319 -0.404433 -1.82267 0
M  V30 8585 C 851.67 1.06971 -1.64474 0
M  V30 8586 O 850.795 1.82867 -1.15708 0
M  V30 8587 C 851.39 -0.727298 -3.30902 0
M  V30 8588 C 849.949 -0.410784 -3.74152 0
M  V30 8589 C 849.096 -0.969983 -2.59782 0
M  V30 8590 H 852.047 -0.968437 -1.25726 0
M  V30 8591 H 852.068 -0.0127575 -3.80498 0
M  V30 8592 H 851.58 -1.80026 -3.4382 0
M  V30 8593 H 849.681 0.65477 -3.66802 0
M  V30 8594 H 849.794 -0.920592 -4.70172 0
M  V30 8595 H 848.158 -0.394094 -2.51633 0
M  V30 8596 H 848.941 -2.04839 -2.75492 0
M  V30 8597 N 851.386 1.48609 -0.524698 0
M  V30 8598 C 852.336 2.26505 0.260696 0
M  V30 8599 C 853.32 1.32378 0.914597 0
M  V30 8600 O 854.512 1.5695 0.818277 0
M  V30 8601 C 851.641 3.17313 1.31024 0
M  V30 8602 C 850.727 4.18911 0.661391 0
M  V30 8603 N 851.118 5.05183 -0.24981 0
M  V30 8604 C 849.416 4.36425 0.91922 0
M  V30 8605 C 850.117 5.78348 -0.623598 0
M  V30 8606 N 849.093 5.43598 0.0140839 0
M  V30 8607 H 852.895 2.90582 -0.440388 0
M  V30 8608 H 850.409 1.5875 -0.342364 0
M  V30 8609 H 852.406 3.71772 1.88656 0
M  V30 8610 H 851.066 2.54791 2.01275 0
M  V30 8611 H 852.077 5.1415 -0.622093 0
M  V30 8612 H 848.754 3.85095 1.6127 0
M  V30 8613 H 850.144 6.57775 -1.37046 0
M  V30 8614 N 852.864 0.259585 1.55447 0
M  V30 8615 C 854.089 -0.368317 2.04103 0
M  V30 8616 C 854.514 -1.49827 1.13725 0
M  V30 8617 O 853.872 -1.80814 0.132705 0
M  V30 8618 C 853.92 -0.841506 3.50644 0
M  V30 8619 O 853.024 -1.95008 3.63381 0
M  V30 8620 H 852.365 -0.0785227 0.659341 0
M  V30 8621 H 854.895 0.389349 2.00861 0
M  V30 8622 H 854.905 -1.14138 3.9171 0
M  V30 8623 H 853.58 -0.0147001 4.15897 0
M  V30 8624 H 852.157 -1.65393 3.34215 0
M  V30 8625 N 854.342 -1.57594 -0.0133615 0
M  V30 8626 C 855.59 -1.89605 -0.699596 0
M  V30 8627 C 855.911 -0.85926 -1.75048 0
M  V30 8628 O 855.181 0.105112 -1.95618 0
M  V30 8629 H 853.761 -0.699776 -0.261385 0
M  V30 8630 H 856.423 -1.94885 0.0244044 0
M  V30 8631 H 855.519 -2.88962 -1.17928 0
M  V30 8632 N 855.82 0.285905 -1.54985 0
M  V30 8633 C 857.231 0.857869 -1.65824 0
M  V30 8634 C 857.582 1.87531 -0.576763 0
M  V30 8635 O 856.707 2.14528 0.284016 0
M  V30 8636 C 857.302 1.56277 -3.00604 0
M  V30 8637 C 855.861 2.08294 -3.13513 0
M  V30 8638 C 855.008 0.920633 -2.61571 0
M  V30 8639 H 857.959 0.0625463 -1.58577 0
M  V30 8640 H 857.98 2.42912 -2.92872 0
M  V30 8641 H 857.492 0.822017 -3.79295 0
M  V30 8642 H 855.593 2.8537 -2.39572 0
M  V30 8643 H 855.706 2.3071 -4.19892 0
M  V30 8644 H 854.07 1.31043 -2.18403 0
M  V30 8645 H 854.853 0.193594 -3.42754 0
M  V30 8646 N 857.298 1.47698 0.54982 0
M  V30 8647 C 858.228 1.63622 1.66583 0
M  V30 8648 C 859.209 0.485477 1.63025 0
M  V30 8649 O 860.394 0.715692 1.80531 0
M  V30 8650 C 857.524 1.65721 3.05211 0
M  V30 8651 C 856.478 2.80097 3.2362 0
M  V30 8652 C 855.804 2.67272 4.63109 0
M  V30 8653 C 857.104 4.21612 3.08286 0
M  V30 8654 H 858.798 2.57049 1.53512 0
M  V30 8655 H 856.344 1.23705 0.737099 0
M  V30 8656 H 858.297 1.75451 3.83138 0
M  V30 8657 H 857.021 0.688593 3.19258 0
M  V30 8658 H 855.68 2.69889 2.48104 0
M  V30 8659 H 855.328 1.68422 4.73965 0
M  V30 8660 H 855.028 3.44008 4.76374 0
M  V30 8661 H 856.552 2.78942 5.43161 0
M  V30 8662 H 857.966 4.32758 3.76024 0
M  V30 8663 H 856.363 4.99193 3.33057 0
M  V30 8664 H 857.433 4.39462 2.04942 0
M  V30 8665 N 858.776 -0.797141 1.35954 0
M  V30 8666 C 860.192 -1.09408 1.16198 0
M  V30 8667 C 860.392 -2.01491 -0.0191682 0
M  V30 8668 O 859.448 -2.42977 -0.686902 0
M  V30 8669 C 860.761 -1.71597 2.46931 0
M  V30 8670 C 862.309 -1.83974 2.53224 0
M  V30 8671 C 862.784 -2.49579 3.84024 0
M  V30 8672 N 864.275 -2.57055 3.85327 0
M  V30 8673 C 865.01 -3.08608 4.83268 0
M  V30 8674 N 864.506 -3.60527 5.91601 0
M  V30 8675 N 866.299 -3.07249 4.70696 0
M  V30 8676 H 858.45 -0.185209 2.11591 0
M  V30 8677 H 860.713 -0.144768 0.936881 0
M  V30 8678 H 860.419 -1.11404 3.3359 0
M  V30 8679 H 860.293 -2.71193 2.62172 0
M  V30 8680 H 862.68 -2.43308 1.66988 0
M  V30 8681 H 862.761 -0.83207 2.41889 0
M  V30 8682 H 862.405 -1.90892 4.70662 0
M  V30 8683 H 862.335 -3.50902 3.92651 0
M  V30 8684 H 864.826 -2.20283 3.07057 0
M  V30 8685 H 865.139 -3.98192 6.62317 0
M  V30 8686 H 863.484 -3.587 5.95281 0
M  V30 8687 H 866.675 -2.65972 3.85197 0
M  V30 8688 H 866.848 -3.47119 5.47186 0
M  V30 8689 N 860.254 -1.20106 -1.0204 0
M  V30 8690 C 861.502 -1.0069 -1.75231 0
M  V30 8691 C 861.823 0.462491 -1.89436 0
M  V30 8692 O 861.093 1.33455 -1.4341 0
M  V30 8693 H 859.673 -0.369576 -0.649171 0
M  V30 8694 H 862.335 -1.51149 -1.23044 0
M  V30 8695 H 861.431 -1.46205 -2.75736 0
M  V30 8696 N 861.732 1.21287 -1.00634 0
M  V30 8697 C 862.957 1.94925 -0.708441 0
M  V30 8698 C 863.382 1.73659 0.722783 0
M  V30 8699 O 862.74 1.02429 1.49593 0
M  V30 8700 C 862.788 3.45377 -1.03667 0
M  V30 8701 O 861.892 4.12153 -0.142661 0
M  V30 8702 H 861.233 0.609338 -0.263824 0
M  V30 8703 H 863.763 1.54008 -1.34695 0
M  V30 8704 H 863.773 3.95954 -0.984086 0
M  V30 8705 H 862.448 3.6018 -2.0795 0
M  V30 8706 H 861.025 3.72048 -0.251888 0
M  V30 8707 N 863.21 0.781244 1.36873 0
M  V30 8708 C 864.438 0.361566 2.03716 0
M  V30 8709 C 864.853 -1.01937 1.58916 0
M  V30 8710 O 864.21 -1.65237 0.774783 0
M  V30 8711 C 864.261 0.406391 3.59208 0
M  V30 8712 O 863.982 1.73286 4.02372 0
M  V30 8713 C 865.483 -0.0236894 4.43294 0
M  V30 8714 H 862.703 0.150133 0.653988 0
M  V30 8715 H 865.247 1.05781 1.75016 0
M  V30 8716 H 863.402 -0.241364 3.86647 0
M  V30 8717 H 863.816 1.67804 4.96933 0
M  V30 8718 H 865.29 0.0588205 5.51969 0
M  V30 8719 H 865.767 -1.07529 4.25833 0
M  V30 8720 H 866.373 0.59624 4.211 0
M  V30 8721 N 864.689 -1.48329 0.532571 0
M  V30 8722 C 866.105 -1.58458 0.190605 0
M  V30 8723 C 866.305 -1.53427 -1.30623 0
M  V30 8724 O 865.361 -1.4247 -2.08467 0
M  V30 8725 C 866.674 -2.89989 0.79543 0
M  V30 8726 C 868.222 -3.03523 0.7644 0
M  V30 8727 C 868.697 -4.37718 1.34785 0
M  V30 8728 N 870.188 -4.44292 1.30993 0
M  V30 8729 C 870.923 -5.4664 1.73124 0
M  V30 8730 N 870.419 -6.5593 2.22997 0
M  V30 8731 N 872.212 -5.37538 1.64346 0
M  V30 8732 H 864.363 -1.49842 1.50537 0
M  V30 8733 H 866.626 -0.71164 0.626316 0
M  V30 8734 H 866.332 -2.99333 1.84642 0
M  V30 8735 H 866.206 -3.76203 0.27403 0
M  V30 8736 H 868.593 -2.93789 -0.277831 0
M  V30 8737 H 868.674 -2.18912 1.3233 0
M  V30 8738 H 868.318 -4.48206 2.38902 0
M  V30 8739 H 868.248 -5.21019 0.764609 0
M  V30 8740 H 870.739 -3.65897 0.944868 0
M  V30 8741 H 871.052 -7.30167 2.53133 0
M  V30 8742 H 869.397 -6.56886 2.26992 0
M  V30 8743 H 872.588 -4.51052 1.25178 0
M  V30 8744 H 872.761 -6.17169 1.97501 0
M  V30 8745 N 866.167 -0.267825 -1.55308 0
M  V30 8746 C 867.097 0.616585 -2.25212 0
M  V30 8747 C 868.078 1.16472 -1.23969 0
M  V30 8748 O 869.263 1.20021 -1.52672 0
M  V30 8749 C 866.393 1.80412 -2.96764 0
M  V30 8750 C 865.347 1.38784 -4.04874 0
M  V30 8751 C 864.673 2.65789 -4.63961 0
M  V30 8752 C 865.973 0.543415 -5.19465 0
M  V30 8753 H 867.667 0.0336257 -2.99381 0
M  V30 8754 H 865.213 0.0147328 -1.43992 0
M  V30 8755 H 867.166 2.42866 -3.44375 0
M  V30 8756 H 865.89 2.4128 -2.20118 0
M  V30 8757 H 864.549 0.786541 -3.58063 0
M  V30 8758 H 864.197 3.24899 -3.83992 0
M  V30 8759 H 863.897 2.38651 -5.36954 0
M  V30 8760 H 865.421 3.29104 -5.14318 0
M  V30 8761 H 866.835 1.07277 -5.63174 0
M  V30 8762 H 865.232 0.367219 -5.98975 0
M  V30 8763 H 866.302 -0.439534 -4.82904 0
M  V30 8764 N 867.645 1.57599 0.00500368 0
M  V30 8765 C 868.873 1.94626 0.702016 0
M  V30 8766 C 869.288 0.86953 1.67585 0
M  V30 8767 O 868.645 -0.15199 1.81866 0
M  V30 8768 C 868.696 3.31658 1.43824 0
M  V30 8769 O 868.417 4.35197 0.503467 0
M  V30 8770 C 869.918 3.83114 2.23021 0
M  V30 8771 H 867.138 0.641785 0.195841 0
M  V30 8772 H 869.682 2.04451 -0.0446287 0
M  V30 8773 H 867.837 3.23156 2.13655 0
M  V30 8774 H 868.251 5.1444 1.02235 0
M  V30 8775 H 869.725 4.81438 2.7004 0
M  V30 8776 H 870.202 3.15559 3.05482 0
M  V30 8777 H 870.808 3.94775 1.58216 0
M  V30 8778 N 869.123 -0.277682 1.55134 0
M  V30 8779 C 870.053 -1.34742 1.90701 0
M  V30 8780 C 871.034 -1.51757 0.768354 0
M  V30 8781 O 872.219 -1.64879 1.02609 0
M  V30 8782 C 869.349 -2.70775 2.17481 0
M  V30 8783 C 868.303 -2.68497 3.33307 0
M  V30 8784 C 867.629 -4.08037 3.45557 0
M  V30 8785 C 868.929 -2.28178 4.69821 0
M  V30 8786 H 870.623 -1.05224 2.803 0
M  V30 8787 H 868.169 -0.504738 1.34864 0
M  V30 8788 H 870.122 -3.45719 2.40949 0
M  V30 8789 H 868.846 -3.01867 1.24676 0
M  V30 8790 H 867.505 -1.9601 3.09799 0
M  V30 8791 H 867.153 -4.36344 2.50226 0
M  V30 8792 H 866.853 -4.07409 4.23429 0
M  V30 8793 H 868.377 -4.84726 3.71312 0
M  V30 8794 H 869.791 -2.92843 4.92865 0
M  V30 8795 H 868.188 -2.3872 5.50575 0
M  V30 8796 H 869.258 -1.23308 4.6896 0
M  V30 8797 N 870.601 -1.47988 -0.541979 0
M  V30 8798 C 871.841 -1.56982 -1.30905 0
M  V30 8799 C 872.205 -0.233153 -1.90579 0
M  V30 8800 O 873.406 -0.198018 -2.6807 0
M  V30 8801 C 871.677 -2.66787 -2.37823 0
M  V30 8802 S 873.236 -2.95467 -3.24414 0
M  V30 8803 H 870.054 -0.554165 -0.445446 0
M  V30 8804 H 872.656 -1.85448 -0.618803 0
M  V30 8805 H 871.36 -3.62483 -1.92443 0
M  V30 8806 H 870.891 -2.40184 -3.11569 0
M  V30 8807 H 872.906 -2.33846 -4.37642 0
M  V30 8808 N 872.079 0.78992 -1.36375 0
M  V30 8809 C 873.327 1.54472 -1.30319 0
M  V30 8810 C 873.648 1.94647 0.117338 0
M  V30 8811 O 872.918 1.64906 1.05748 0
M  V30 8812 H 871.498 0.572879 -0.479394 0
M  V30 8813 H 874.16 0.941245 -1.70665 0
M  V30 8814 H 873.256 2.45252 -1.93024 0
M  V30 8815 N 873.557 1.20646 1.01402 0
M  V30 8816 C 874.782 1.04462 1.79172 0
M  V30 8817 C 875.207 -0.401588 1.83763 0
M  V30 8818 O 874.565 -1.28934 1.27459 0
M  V30 8819 C 874.613 1.63583 3.21361 0
M  V30 8820 O 873.717 0.875198 4.03006 0
M  V30 8821 H 873.058 0.368235 0.552539 0
M  V30 8822 H 875.588 1.59994 1.27526 0
M  V30 8823 H 875.598 1.67426 3.72065 0
M  V30 8824 H 874.273 2.68835 3.17334 0
M  V30 8825 H 872.85 0.911172 3.61597 0
M  V30 8826 N 875.035 -1.20752 1.01276 0
M  V30 8827 C 875.983 -2.25432 0.572989 0
M  V30 8828 C 876.977 -1.64935 -0.386354 0
M  V30 8829 O 878.183 -1.7816 -0.256696 0
M  V30 8830 H 874.558 -0.733229 0.166972 0
M  V30 8831 H 876.529 -2.59856 1.46687 0
M  V30 8832 C 875.278 -3.47615 -0.0768249 0
M  V30 8833 H 874.601 -3.94442 0.652354 0
M  V30 8834 H 876.041 -4.22572 -0.3477 0
M  V30 8835 C 874.5 -3.1003 -1.31845 0
M  V30 8836 O 875.03 -3.21216 -2.41211 0
M  V30 8837 N 873.236 -2.64616 -1.20111 0
M  V30 8838 H 872.783 -2.55714 -0.311184 0
M  V30 8839 H 872.741 -2.39838 -2.03286 0
M  V30 8840 N 876.513 -0.788492 -1.36457 0
M  V30 8841 C 877.76 -0.360461 -1.99266 0
M  V30 8842 C 878.088 1.0676 -1.62581 0
M  V30 8843 O 877.343 1.75205 -0.871884 0
M  V30 8844 C 877.642 -0.470255 -3.54293 0
M  V30 8845 C 877.308 -1.85899 -4.10795 0
M  V30 8846 C 875.97 -2.23896 -4.25939 0
M  V30 8847 C 878.322 -2.76836 -4.41601 0
M  V30 8848 C 875.65 -3.52235 -4.69199 0
M  V30 8849 C 878.002 -4.04602 -4.86292 0
M  V30 8850 C 876.666 -4.42623 -4.99641 0
M  V30 8851 H 875.936 -0.131902 -0.729166 0
M  V30 8852 H 878.583 -1.00577 -1.62962 0
M  V30 8853 H 876.888 0.258559 -3.90946 0
M  V30 8854 H 878.585 -0.120119 -4.0082 0
M  V30 8855 H 875.175 -1.55372 -3.99447 0
M  V30 8856 H 879.359 -2.48735 -4.2947 0
M  V30 8857 H 874.615 -3.81565 -4.77722 0
M  V30 8858 H 878.789 -4.75182 -5.09092 0
M  V30 8859 H 876.416 -5.42125 -5.32921 0
M  V30 8860 N 877.991 1.48044 -0.54043 0
M  V30 8861 C 879.221 2.06595 -0.0144943 0
M  V30 8862 C 879.629 1.39593 1.27713 0
M  V30 8863 O 878.972 0.480794 1.77297 0
M  V30 8864 C 879.034 3.5849 0.269316 0
M  V30 8865 C 878.698 4.47429 -0.930372 0
M  V30 8866 C 879.695 4.8657 -1.83155 0
M  V30 8867 C 877.38 4.89185 -1.14032 0
M  V30 8868 C 879.374 5.66246 -2.92649 0
M  V30 8869 C 877.061 5.6863 -2.23838 0
M  V30 8870 C 878.059 6.07069 -3.12979 0
M  V30 8871 O 877.747 6.84917 -4.20884 0
M  V30 8872 H 877.479 0.675086 -0.0351467 0
M  V30 8873 H 880.033 1.91275 -0.74853 0
M  V30 8874 H 878.263 3.71961 1.05745 0
M  V30 8875 H 879.952 3.99124 0.738595 0
M  V30 8876 H 880.718 4.54924 -1.68134 0
M  V30 8877 H 876.597 4.58742 -0.455717 0
M  V30 8878 H 880.141 5.96169 -3.62254 0
M  V30 8879 H 876.038 5.99688 -2.38839 0
M  V30 8880 H 876.806 7.03287 -4.18723 0
M  V30 8881 N 879.47 0.276058 1.55163 0
M  V30 8882 C 880.4 -0.604633 2.25536 0
M  V30 8883 C 881.381 -1.15813 1.24585 0
M  V30 8884 O 882.566 -1.1921 1.53306 0
M  V30 8885 C 879.696 -1.78836 2.97716 0
M  V30 8886 C 878.65 -1.36635 4.05604 0
M  V30 8887 C 877.976 -2.63325 4.65364 0
M  V30 8888 C 879.276 -0.515858 5.19746 0
M  V30 8889 H 880.97 -0.0177483 2.99395 0
M  V30 8890 H 878.516 -0.00709627 1.43998 0
M  V30 8891 H 880.469 -2.41036 3.45658 0
M  V30 8892 H 879.193 -2.40109 2.21394 0
M  V30 8893 H 877.852 -0.767541 3.58475 0
M  V30 8894 H 877.5 -3.22858 3.85709 0
M  V30 8895 H 877.2 -2.358 5.38212 0
M  V30 8896 H 878.724 -3.26372 5.16056 0
M  V30 8897 H 880.138 -1.04289 5.63735 0
M  V30 8898 H 878.535 -0.335449 5.99162 0
M  V30 8899 H 879.605 0.465137 4.82664 0
M  V30 8900 N 880.948 -1.576 0.00335426 0
M  V30 8901 C 881.898 -2.05116 -0.995562 0
M  V30 8902 C 882.882 -0.946535 -1.30113 0
M  V30 8903 O 884.074 -1.21028 -1.29156 0
M  V30 8904 C 881.203 -2.56077 -2.28648 0
M  V30 8905 C 880.289 -3.73422 -2.0104 0
M  V30 8906 N 880.68 -4.84986 -1.43603 0
M  V30 8907 C 878.978 -3.81416 -2.31166 0
M  V30 8908 C 879.679 -5.66399 -1.32542 0
M  V30 8909 N 878.655 -5.12505 -1.81218 0
M  V30 8910 H 882.457 -2.88783 -0.546025 0
M  V30 8911 H 879.971 -1.61135 -0.202265 0
M  V30 8912 H 881.968 -2.88395 -3.01055 0
M  V30 8913 H 880.628 -1.73829 -2.74251 0
M  V30 8914 H 881.639 -5.05768 -1.11439 0
M  V30 8915 H 878.316 -3.1003 -2.7962 0
M  V30 8916 H 879.706 -6.66066 -0.88348 0
M  V30 8917 N 882.426 0.269451 -1.5528 0
M  V30 8918 C 883.837 0.840233 -1.66724 0
M  V30 8919 C 884.188 1.86909 -0.596621 0
M  V30 8920 O 883.313 2.14817 0.261246 0
M  V30 8921 C 883.908 1.5308 -3.02245 0
M  V30 8922 C 882.467 2.04957 -3.15705 0
M  V30 8923 C 881.614 0.892838 -2.62533 0
M  V30 8924 H 884.565 0.0457236 -1.58634 0
M  V30 8925 H 884.586 2.39792 -2.95432 0
M  V30 8926 H 884.098 0.781741 -3.80145 0
M  V30 8927 H 882.199 2.82813 -2.42585 0
M  V30 8928 H 882.312 2.26244 -4.22316 0
M  V30 8929 H 880.676 1.28719 -2.19781 0
M  V30 8930 H 881.459 0.157229 -3.4294 0
M  V30 8931 N 883.904 1.48273 0.534124 0
M  V30 8932 C 885.129 1.59988 1.31979 0
M  V30 8933 C 885.554 0.258824 1.86311 0
M  V30 8934 O 884.912 -0.768885 1.64188 0
M  V30 8935 C 884.96 2.64642 2.44943 0
M  V30 8936 O 884.064 2.21515 3.47858 0
M  V30 8937 H 883.405 0.536625 0.391063 0
M  V30 8938 H 885.935 1.94229 0.643135 0
M  V30 8939 H 885.945 2.85786 2.91187 0
M  V30 8940 H 884.62 3.62004 2.04758 0
M  V30 8941 H 883.197 2.10567 3.0776 0
M  V30 8942 N 885.382 -0.782676 1.36792 0
M  V30 8943 C 886.63 -1.53778 1.31136 0
M  V30 8944 C 886.951 -1.94706 -0.107014 0
M  V30 8945 O 886.221 -1.65465 -1.04872 0
M  V30 8946 H 884.801 -0.570328 0.482426 0
M  V30 8947 H 887.463 -0.932181 1.71162 0
M  V30 8948 H 886.559 -2.44224 1.94321 0
M  V30 8949 N 886.86 -1.21182 -1.00761 0
M  V30 8950 C 887.79 -0.992773 -2.11344 0
M  V30 8951 C 888.771 0.0813618 -1.69905 0
M  V30 8952 O 889.956 -0.0779503 -1.94043 0
M  V30 8953 C 887.086 -0.553826 -3.42856 0
M  V30 8954 C 886.04 -1.57223 -3.98077 0
M  V30 8955 C 885.366 -0.989605 -5.25463 0
M  V30 8956 C 886.666 -2.95839 -4.30438 0
M  V30 8957 H 888.36 -1.91766 -2.29927 0
M  V30 8958 H 885.906 -0.923426 -1.10494 0
M  V30 8959 H 887.859 -0.387771 -4.19612 0
M  V30 8960 H 886.583 0.406702 -3.24058 0
M  V30 8961 H 885.242 -1.7258 -3.23437 0
M  V30 8962 H 884.89 -0.0208743 -5.02996 0
M  V30 8963 H 884.59 -1.66984 -5.63374 0
M  V30 8964 H 886.114 -0.834815 -6.04866 0
M  V30 8965 H 887.528 -2.8394 -4.98047 0
M  V30 8966 H 885.925 -3.60851 -4.79486 0
M  V30 8967 H 886.995 -3.46882 -3.38823 0
M  V30 8968 N 888.338 1.20213 -1.01915 0
M  V30 8969 C 889.584 1.89928 -0.711007 0
M  V30 8970 C 889.917 1.7881 0.75767 0
M  V30 8971 O 889.192 1.17399 1.55073 0
M  V30 8972 C 889.475 3.41225 -1.15053 0
M  V30 8973 C 889.328 3.61264 -2.67971 0
M  V30 8974 C 890.647 4.34108 -0.72377 0
M  V30 8975 H 887.766 0.689702 -0.259768 0
M  V30 8976 H 890.408 1.41557 -1.26734 0
M  V30 8977 H 888.558 3.82552 -0.677199 0
M  V30 8978 H 890.23 3.29173 -3.23176 0
M  V30 8979 H 888.473 3.04647 -3.08824 0
M  V30 8980 H 889.144 4.67331 -2.93779 0
M  V30 8981 H 891.62 4.00442 -1.13073 0
M  V30 8982 H 890.496 5.38581 -1.05931 0
M  V30 8983 H 890.757 4.40512 0.374424 0
M  V30 8984 N 889.816 0.795718 1.36037 0
M  V30 8985 C 891.227 0.433379 1.816 0
M  V30 8986 C 891.578 -1.04341 1.66155 0
M  V30 8987 O 890.703 -1.81004 1.18603 0
M  V30 8988 C 891.298 0.77985 3.29703 0
M  V30 8989 C 889.857 0.470256 3.73451 0
M  V30 8990 C 889.004 1.01119 2.58206 0
M  V30 8991 H 891.955 0.988317 1.24169 0
M  V30 8992 H 891.976 0.0732898 3.80429 0
M  V30 8993 H 891.488 1.85473 3.40913 0
M  V30 8994 H 889.589 -0.596332 3.67797 0
M  V30 8995 H 889.702 0.995276 4.68648 0
M  V30 8996 H 888.066 0.434077 2.50974 0
M  V30 8997 H 888.849 2.09196 2.72198 0
M  V30 8998 N 891.294 -1.47756 0.548274 0
M  V30 8999 C 892.204 -2.33678 -0.207773 0
M  V30 9000 C 893.22 -1.47636 -0.920843 0
M  V30 9001 O 894.396 -1.80583 -0.89173 0
M  V30 9002 C 891.461 -3.24147 -1.23003 0
M  V30 9003 C 890.522 -4.26073 -0.52535 0
M  V30 9004 C 889.755 -5.12219 -1.4989 0
M  V30 9005 O 889.978 -5.0066 -2.73305 0
M  V30 9006 O 888.912 -5.93051 -1.02828 0
M  V30 9007 H 892.738 -2.99609 0.496794 0
M  V30 9008 H 890.323 -1.4617 0.308982 0
M  V30 9009 H 892.205 -3.80055 -1.82034 0
M  V30 9010 H 890.88 -2.60855 -1.91668 0
M  V30 9011 H 889.787 -3.7395 0.105927 0
M  V30 9012 H 891.12 -4.92054 0.119686 0
M  V30 9013 N 892.772 -0.284283 -1.55015 0
M  V30 9014 C 894.02 0.329212 -1.99401 0
M  V30 9015 C 894.341 1.55687 -1.17416 0
M  V30 9016 O 893.611 1.94087 -0.265937 0
M  V30 9017 H 892.191 0.12463 -0.73653 0
M  V30 9018 H 894.853 -0.391743 -1.90922 0
M  V30 9019 H 893.949 0.61278 -3.06025 0
M  V30 9020 N 894.251 1.57596 -0.0117121 0
M  V30 9021 C 895.479 1.9536 0.681334 0
M  V30 9022 C 895.894 0.887255 1.66653 0
M  V30 9023 O 895.251 -0.132692 1.82017 0
M  V30 9024 C 895.302 3.33165 1.40298 0
M  V30 9025 O 895.023 4.35707 0.45728 0
M  V30 9026 C 896.524 3.85458 2.18946 0
M  V30 9027 H 893.744 0.643826 0.189023 0
M  V30 9028 H 896.288 2.04392 -0.066311 0
M  V30 9029 H 894.443 3.25404 2.10216 0
M  V30 9030 H 894.857 5.15495 0.96773 0
M  V30 9031 H 896.331 4.84275 2.64918 0
M  V30 9032 H 896.808 3.18781 3.02118 0
M  V30 9033 H 897.414 3.96431 1.5402 0
M  V30 9034 N 895.729 -0.261212 1.5542 0
M  V30 9035 C 896.679 -1.32571 1.85496 0
M  V30 9036 C 897.663 -1.44155 0.714722 0
M  V30 9037 O 898.855 -1.47637 0.976336 0
M  V30 9038 C 895.984 -2.68384 2.14067 0
M  V30 9039 C 895.07 -2.60864 3.34381 0
M  V30 9040 N 895.461 -2.22967 4.54004 0
M  V30 9041 C 893.759 -2.91904 3.37206 0
M  V30 9042 C 894.46 -2.25727 5.36118 0
M  V30 9043 N 893.436 -2.64667 4.74818 0
M  V30 9044 H 897.238 -1.02298 2.75522 0
M  V30 9045 H 894.752 -0.469849 1.55455 0
M  V30 9046 H 896.749 -3.45189 2.33774 0
M  V30 9047 H 895.409 -2.99536 1.25332 0
M  V30 9048 H 896.42 -1.94748 4.79889 0
M  V30 9049 H 893.097 -3.2769 2.587 0
M  V30 9050 H 894.487 -1.98889 6.41789 0
M  V30 9051 N 897.207 -1.48554 -0.526253 0
M  V30 9052 C 898.139 -1.59446 -1.6465 0
M  V30 9053 C 899.152 -0.478525 -1.55608 0
M  V30 9054 O 900.341 -0.74953 -1.62001 0
M  V30 9055 C 897.441 -1.51164 -3.03319 0
M  V30 9056 C 896.614 -2.77861 -3.37805 0
M  V30 9057 C 895.673 -2.62982 -4.5577 0
M  V30 9058 O 894.699 -3.36876 -4.58806 0
M  V30 9059 N 895.901 -1.72847 -5.5417 0
M  V30 9060 H 898.666 -2.56055 -1.55743 0
M  V30 9061 H 896.227 -1.45325 -0.713606 0
M  V30 9062 H 898.219 -1.389 -3.80117 0
M  V30 9063 H 896.789 -0.625147 -3.06285 0
M  V30 9064 H 896.009 -3.04663 -2.50149 0
M  V30 9065 H 897.297 -3.61908 -3.57632 0
M  V30 9066 H 896.695 -1.12022 -5.54498 0
M  V30 9067 H 895.252 -1.6652 -6.3017 0
M  V30 9068 N 898.685 0.775411 -1.37205 0
M  V30 9069 C 899.931 1.53611 -1.32407 0
M  V30 9070 C 900.264 1.9398 0.0924103 0
M  V30 9071 O 899.539 1.63791 1.04893 0
M  V30 9072 C 899.822 2.80367 -2.25979 0
M  V30 9073 C 899.675 2.46275 -3.76389 0
M  V30 9074 C 900.994 3.82277 -2.18064 0
M  V30 9075 H 898.113 0.557278 -0.482297 0
M  V30 9076 H 900.755 0.889826 -1.67875 0
M  V30 9077 H 898.905 3.35515 -1.95862 0
M  V30 9078 H 900.577 1.9707 -4.17087 0
M  V30 9079 H 898.82 1.79023 -3.95137 0
M  V30 9080 H 899.491 3.36868 -4.37291 0
M  V30 9081 H 901.967 3.36613 -2.44604 0
M  V30 9082 H 900.843 4.68696 -2.85684 0
M  V30 9083 H 901.104 4.26272 -1.17239 0
M  V30 9084 N 900.163 1.21714 1.00117 0
M  V30 9085 C 901.391 1.06278 1.77518 0
M  V30 9086 C 901.806 -0.387193 1.84787 0
M  V30 9087 O 901.163 -1.26854 1.31203 0
M  V30 9088 C 901.214 1.65795 3.21239 0
M  V30 9089 O 900.935 3.05119 3.14378 0
M  V30 9090 C 902.436 1.55521 4.15124 0
M  V30 9091 H 899.656 0.373013 0.557765 0
M  V30 9092 H 902.2 1.61133 1.25922 0
M  V30 9093 H 900.355 1.15022 3.69931 0
M  V30 9094 H 900.769 3.33643 4.04701 0
M  V30 9095 H 902.243 2.01902 5.13751 0
M  V30 9096 H 902.72 0.510307 4.36225 0
M  V30 9097 H 903.326 2.0556 3.72324 0
M  V30 9098 N 901.641 -1.19671 1.02551 0
M  V30 9099 C 902.887 -1.89548 0.721069 0
M  V30 9100 C 903.22 -1.79209 -0.748176 0
M  V30 9101 O 902.495 -1.1822 -1.54448 0
M  V30 9102 C 902.778 -3.4061 1.16861 0
M  V30 9103 C 902.631 -3.59838 2.69883 0
M  V30 9104 C 903.95 -4.33718 0.746782 0
M  V30 9105 H 901.069 -0.688315 0.263422 0
M  V30 9106 H 903.711 -1.40883 1.27483 0
M  V30 9107 H 901.861 -3.82188 0.697477 0
M  V30 9108 H 903.533 -3.27454 3.24917 0
M  V30 9109 H 901.776 -3.03005 3.10435 0
M  V30 9110 H 902.447 -4.65766 2.96253 0
M  V30 9111 H 904.923 -3.99837 1.15195 0
M  V30 9112 H 903.799 -5.38012 1.08786 0
M  V30 9113 H 904.06 -4.40704 -0.351057 0
M  V30 9114 N 903.119 -0.802921 -1.35613 0
M  V30 9115 C 904.367 -0.380822 -1.9848 0
M  V30 9116 C 904.688 1.05464 -1.6402 0
M  V30 9117 O 903.958 1.72908 -0.920854 0
M  V30 9118 H 902.538 -0.137824 -0.734176 0
M  V30 9119 H 905.2 -1.02795 -1.65587 0
M  V30 9120 H 904.296 -0.483565 -3.08331 0
M  V30 9121 N 904.597 1.47463 -0.556102 0
M  V30 9122 C 905.529 2.28046 0.22968 0
M  V30 9123 C 906.542 1.3694 0.880409 0
M  V30 9124 O 907.731 1.61773 0.754447 0
M  V30 9125 C 904.831 3.11165 1.34273 0
M  V30 9126 C 904.004 4.30225 0.789004 0
M  V30 9127 C 903.063 4.94948 1.78641 0
M  V30 9128 O 902.089 5.53372 1.33297 0
M  V30 9129 N 903.291 4.89543 3.11974 0
M  V30 9130 H 906.056 2.96125 -0.461558 0
M  V30 9131 H 903.617 1.5708 -0.392105 0
M  V30 9132 H 905.609 3.51331 2.00869 0
M  V30 9133 H 904.179 2.45337 1.93722 0
M  V30 9134 H 903.399 3.94163 -0.0536971 0
M  V30 9135 H 904.687 5.07238 0.398378 0
M  V30 9136 H 904.085 4.43275 3.51459 0
M  V30 9137 H 902.642 5.33732 3.74131 0
M  V30 9138 N 906.075 0.2925 1.54862 0
M  V30 9139 C 907.3 -0.32494 2.04839 0
M  V30 9140 C 907.725 -1.47381 1.16877 0
M  V30 9141 O 907.083 -1.80492 0.171028 0
M  V30 9142 C 907.131 -0.76694 3.5235 0
M  V30 9143 O 906.235 -1.87256 3.67436 0
M  V30 9144 H 905.576 -0.0645195 0.660858 0
M  V30 9145 H 908.106 0.431867 1.9999 0
M  V30 9146 H 908.116 -1.05804 3.94043 0
M  V30 9147 H 906.791 0.0735212 4.15835 0
M  V30 9148 H 905.368 -1.58266 3.37648 0
M  V30 9149 N 907.553 -1.57587 0.0200696 0
M  V30 9150 C 908.964 -1.79312 -0.520019 0
M  V30 9151 C 909.315 -0.929475 -1.72787 0
M  V30 9152 O 908.44 -0.137389 -2.15963 0
M  V30 9153 C 909.035 -3.25203 -0.950172 0
M  V30 9154 C 907.594 -3.47954 -1.43543 0
M  V30 9155 C 906.741 -2.74459 -0.395917 0
M  V30 9156 H 909.692 -1.56779 0.246153 0
M  V30 9157 H 909.713 -3.34418 -1.81508 0
M  V30 9158 H 909.225 -3.88035 -0.070883 0
M  V30 9159 H 907.326 -2.90363 -2.33495 0
M  V30 9160 H 907.439 -4.56661 -1.44905 0
M  V30 9161 H 905.803 -2.39669 -0.862022 0
M  V30 9162 H 906.586 -3.40001 0.47475 0
M  V30 9163 N 909.032 0.252966 -1.55557 0
M  V30 9164 C 910.272 0.989276 -1.78865 0
M  V30 9165 C 910.636 1.82755 -0.588615 0
M  V30 9166 O 911.837 2.59516 -0.700347 0
M  V30 9167 C 910.108 1.83203 -3.06874 0
M  V30 9168 S 911.667 2.62826 -3.5138 0
M  V30 9169 H 908.485 0.332863 -0.62827 0
M  V30 9170 H 911.087 0.257716 -1.93794 0
M  V30 9171 H 909.791 1.20579 -3.92287 0
M  V30 9172 H 909.322 2.60644 -2.94666 0
M  V30 9173 H 911.337 3.85648 -3.12234 0
M  V30 9174 N 910.51 1.48831 0.518367 0
M  V30 9175 C 911.926 1.35209 0.847979 0
M  V30 9176 C 912.126 0.371927 1.98038 0
M  V30 9177 O 911.182 -0.202681 2.51685 0
M  V30 9178 C 912.495 2.7552 1.20455 0
M  V30 9179 C 914.043 2.84094 1.31377 0
M  V30 9180 C 914.518 4.25132 1.70372 0
M  V30 9181 N 916.009 4.27861 1.77453 0
M  V30 9182 C 916.744 5.3394 2.09035 0
M  V30 9183 N 916.24 6.50285 2.3896 0
M  V30 9184 N 918.033 5.21343 2.10139 0
M  V30 9185 H 910.184 2.11166 -0.228624 0
M  V30 9186 H 912.447 0.94717 -0.0396599 0
M  V30 9187 H 912.153 3.48861 0.445991 0
M  V30 9188 H 912.027 3.09785 2.15204 0
M  V30 9189 H 914.414 2.11001 2.06307 0
M  V30 9190 H 914.495 2.53433 0.347203 0
M  V30 9191 H 914.139 4.98745 0.959975 0
M  V30 9192 H 914.069 4.53245 2.68098 0
M  V30 9193 H 916.56 3.43945 1.56557 0
M  V30 9194 H 916.873 7.26961 2.62196 0
M  V30 9195 H 915.218 6.5354 2.36454 0
M  V30 9196 H 918.409 4.29462 1.86225 0
M  V30 9197 H 918.582 6.04112 2.34419 0
M  V30 9198 N 911.988 -0.768124 1.37614 0
M  V30 9199 C 913.399 -1.34462 1.29525 0
M  V30 9200 C 913.75 -1.96121 -0.0555168 0
M  V30 9201 O 912.875 -1.94069 -0.957406 0
M  V30 9202 C 913.47 -2.44475 2.34558 0
M  V30 9203 C 912.029 -2.97883 2.30093 0
M  V30 9204 C 911.176 -1.71131 2.18196 0
M  V30 9205 H 914.127 -0.568103 1.48183 0
M  V30 9206 H 914.148 -3.24047 1.99434 0
M  V30 9207 H 913.66 -1.99568 3.32858 0
M  V30 9208 H 911.761 -3.47156 1.35328 0
M  V30 9209 H 911.874 -3.53251 3.23652 0
M  V30 9210 H 910.238 -1.94197 1.64802 0
M  V30 9211 H 911.021 -1.28323 3.18415 0
M  V30 9212 N 913.466 -1.22244 -0.994698 0
M  V30 9213 C 914.396 -1.01513 -2.10279 0
M  V30 9214 C 915.377 0.0633365 -1.69982 0
M  V30 9215 O 916.562 -0.0985268 -1.9395 0
M  V30 9216 C 913.692 -0.59016 -3.42249 0
M  V30 9217 C 912.646 -1.61436 -3.96387 0
M  V30 9218 C 911.972 -1.04528 -5.24383 0
M  V30 9219 C 913.272 -3.00388 -4.27276 0
M  V30 9220 H 914.966 -1.94194 -2.2788 0
M  V30 9221 H 912.512 -0.935094 -1.09508 0
M  V30 9222 H 914.465 -0.432254 -4.19177 0
M  V30 9223 H 913.189 0.372308 -3.24471 0
M  V30 9224 H 911.848 -1.76001 -3.21589 0
M  V30 9225 H 911.496 -0.0742225 -5.02945 0
M  V30 9226 H 911.196 -1.72949 -5.61571 0
M  V30 9227 H 912.72 -0.898922 -6.03947 0
M  V30 9228 H 914.134 -2.89207 -4.95007 0
M  V30 9229 H 912.531 -3.65916 -4.75631 0
M  V30 9230 H 913.601 -3.50456 -3.35125 0
M  V30 9231 N 914.944 1.19125 -1.03184 0
M  V30 9232 C 916.355 1.70564 -0.759264 0
M  V30 9233 C 916.706 1.8248 0.720794 0
M  V30 9234 O 915.831 1.49804 1.56166 0
M  V30 9235 C 916.426 3.09793 -1.37163 0
M  V30 9236 C 914.985 3.5848 -1.14757 0
M  V30 9237 C 914.132 2.35265 -1.46784 0
M  V30 9238 H 917.083 1.03925 -1.19939 0
M  V30 9239 H 917.104 3.72624 -0.77015 0
M  V30 9240 H 916.616 3.01088 -2.44882 0
M  V30 9241 H 914.717 3.72494 -0.0887182 0
M  V30 9242 H 914.83 4.42426 -1.83836 0
M  V30 9243 H 913.194 2.38747 -0.887254 0
M  V30 9244 H 913.977 2.29188 -2.55593 0
M  V30 9245 N 916.422 0.810101 1.35185 0
M  V30 9246 C 917.369 0.220927 2.2974 0
M  V30 9247 C 918.339 -0.647024 1.5298 0
M  V30 9248 O 919.524 -0.591367 1.81404 0
M  V30 9249 C 916.664 -0.62167 3.39454 0
M  V30 9250 C 915.777 0.267104 4.31173 0
M  V30 9251 C 914.912 -0.583833 5.27982 0
M  V30 9252 C 913.951 0.305123 6.11339 0
M  V30 9253 N 913.088 -0.505992 7.00274 0
M  V30 9254 H 917.928 1.03266 2.79536 0
M  V30 9255 H 915.465 0.520768 1.37573 0
M  V30 9256 H 917.423 -1.12539 4.01735 0
M  V30 9257 H 916.053 -1.39863 2.90926 0
M  V30 9258 H 915.105 0.88895 3.69867 0
M  V30 9259 H 916.417 0.951182 4.89647 0
M  V30 9260 H 915.571 -1.15254 5.95652 0
M  V30 9261 H 914.31 -1.30146 4.70014 0
M  V30 9262 H 913.315 0.886075 5.42613 0
M  V30 9263 H 914.54 1.02067 6.71386 0
M  V30 9264 H 912.486 -1.20753 6.4479 0
M  V30 9265 H 912.403 0.119966 7.55905 0
M  V30 9266 H 913.671 -1.05787 7.72288 0
M  V30 9267 N 917.9 -1.47166 0.563914 0
M  V30 9268 C 919.177 -1.95586 -0.0236172 0
M  V30 9269 C 919.557 -1.50655 -1.47872 0
M  V30 9270 O 918.905 -0.748479 -2.15894 0
M  V30 9271 C 919.115 -3.48762 0.128841 0
M  V30 9272 C 920.463 -4.24598 -0.0130544 0
M  V30 9273 O 921.487 -3.56155 0.0567242 0
M  V30 9274 O 920.346 -5.46253 -0.164332 0
M  V30 9275 H 917.44 -0.824793 -0.0603789 0
M  V30 9276 H 919.986 -1.57536 0.63091 0
M  V30 9277 H 918.758 -3.74291 1.14113 0
M  V30 9278 H 918.381 -3.93594 -0.56299 0
M  V30 9279 N 919.378 -0.300708 -1.54705 0
M  V30 9280 C 920.603 0.314073 -2.05008 0
M  V30 9281 C 921.028 1.46759 -1.17657 0
M  V30 9282 O 920.386 1.80398 -0.180598 0
M  V30 9283 C 920.434 0.748243 -3.52752 0
M  V30 9284 O 919.538 1.85305 -3.68424 0
M  V30 9285 H 918.879 0.0610139 -0.661191 0
M  V30 9286 H 921.409 -0.442467 -1.99758 0
M  V30 9287 H 921.419 1.03713 -3.94598 0
M  V30 9288 H 920.094 -0.095573 -4.1579 0
M  V30 9289 H 918.671 1.56473 -3.38483 0
M  V30 9290 N 920.856 1.57574 -0.0284266 0
M  V30 9291 C 922.081 1.96479 0.664137 0
M  V30 9292 C 922.506 0.904826 1.64908 0
M  V30 9293 O 921.864 -0.134339 1.80802 0
M  V30 9294 C 921.912 3.34479 1.34745 0
M  V30 9295 O 921.016 3.30794 2.46271 0
M  V30 9296 H 920.357 0.640654 0.174524 0
M  V30 9297 H 922.887 2.04402 -0.0900729 0
M  V30 9298 H 922.897 3.70694 1.7044 0
M  V30 9299 H 921.572 4.1117 0.625468 0
M  V30 9300 H 920.149 3.06294 2.12693 0
M  V30 9301 N 922.334 -0.244713 1.55689 0
M  V30 9302 C 923.281 -1.30301 1.905 0
M  V30 9303 C 924.251 -1.4772 0.759478 0
M  V30 9304 O 925.436 -1.61667 1.01333 0
M  V30 9305 C 922.576 -2.653 2.20703 0
M  V30 9306 C 921.689 -2.55872 3.48071 0
M  V30 9307 C 920.824 -3.83238 3.67834 0
M  V30 9308 C 919.863 -3.68436 4.88796 0
M  V30 9309 N 919 -4.877 5.05068 0
M  V30 9310 H 923.84 -0.999143 2.80751 0
M  V30 9311 H 921.377 -0.482099 1.38976 0
M  V30 9312 H 923.335 -3.43884 2.36219 0
M  V30 9313 H 921.965 -2.93831 1.33653 0
M  V30 9314 H 921.017 -1.68846 3.40874 0
M  V30 9315 H 922.329 -2.40845 4.36801 0
M  V30 9316 H 921.483 -4.70266 3.83321 0
M  V30 9317 H 920.222 -4.01165 2.77341 0
M  V30 9318 H 919.227 -2.79793 4.73282 0
M  V30 9319 H 920.452 -3.52003 5.8075 0
M  V30 9320 H 918.398 -5.05983 4.17513 0
M  V30 9321 H 918.315 -4.75312 5.8789 0
M  V30 9322 H 919.583 -5.76219 5.24969 0
M  V30 9323 N 923.813 -1.49104 -0.510467 0
M  V30 9324 C 924.743 -1.67981 -1.62187 0
M  V30 9325 C 925.724 -0.528529 -1.6168 0
M  V30 9326 O 926.909 -0.763305 -1.7857 0
M  V30 9327 C 924.039 -1.73755 -3.0071 0
M  V30 9328 C 922.993 -2.88579 -3.1608 0
M  V30 9329 C 922.319 -2.79457 -4.5586 0
M  V30 9330 C 923.619 -4.29638 -2.97 0
M  V30 9331 H 925.313 -2.61029 -1.46643 0
M  V30 9332 H 922.859 -1.25615 -0.704042 0
M  V30 9333 H 924.812 -1.85548 -3.78352 0
M  V30 9334 H 923.536 -0.772996 -3.17321 0
M  V30 9335 H 922.195 -2.76372 -2.40861 0
M  V30 9336 H 921.843 -1.80929 -4.69333 0
M  V30 9337 H 921.543 -3.56518 -4.67086 0
M  V30 9338 H 923.067 -2.93245 -5.35574 0
M  V30 9339 H 924.481 -4.42575 -3.64418 0
M  V30 9340 H 922.878 -5.07847 -3.19704 0
M  V30 9341 H 923.948 -4.44741 -1.93219 0
M  V30 9342 N 925.291 0.760815 -1.38019 0
M  V30 9343 C 926.707 1.06289 -1.19058 0
M  V30 9344 C 926.907 2.01471 -0.0342603 0
M  V30 9345 O 925.963 2.44713 0.62224 0
M  V30 9346 C 927.276 1.6499 -2.51394 0
M  V30 9347 C 928.824 1.77196 -2.58013 0
M  V30 9348 C 929.299 2.3931 -3.90506 0
M  V30 9349 N 930.79 2.46749 -3.92007 0
M  V30 9350 C 931.525 2.95687 -4.91281 0
M  V30 9351 N 931.021 3.44715 -6.00952 0
M  V30 9352 N 932.814 2.94661 -4.78677 0
M  V30 9353 H 924.965 0.129045 -2.12008 0
M  V30 9354 H 927.228 0.119878 -0.94039 0
M  V30 9355 H 926.934 1.0252 -3.36426 0
M  V30 9356 H 926.808 2.64146 -2.6927 0
M  V30 9357 H 929.195 2.38796 -1.7338 0
M  V30 9358 H 929.276 0.767645 -2.4401 0
M  V30 9359 H 928.92 1.78346 -4.75558 0
M  V30 9360 H 928.85 3.40369 -4.01817 0
M  V30 9361 H 931.341 2.12064 -3.12789 0
M  V30 9362 H 931.654 3.80492 -6.72641 0
M  V30 9363 H 929.999 3.42791 -6.04582 0
M  V30 9364 H 933.19 2.55665 -3.92113 0
M  V30 9365 H 933.363 3.32489 -5.56197 0
M  V30 9366 N 926.769 1.22769 0.988202 0
M  V30 9367 C 928.18 1.0512 1.54294 0
M  V30 9368 C 928.531 -0.383904 1.92407 0
M  V30 9369 O 927.656 -1.26955 1.75246 0
M  V30 9370 C 928.251 1.90198 2.80375 0
M  V30 9371 C 926.81 1.76831 3.32276 0
M  V30 9372 C 925.957 1.86377 2.05326 0
M  V30 9373 H 928.908 1.36546 0.808758 0
M  V30 9374 H 928.929 1.42216 3.52923 0
M  V30 9375 H 928.441 2.9464 2.52605 0
M  V30 9376 H 926.542 0.751412 3.64945 0
M  V30 9377 H 926.655 2.59771 4.02562 0
M  V30 9378 H 925.019 1.2987 2.19103 0
M  V30 9379 H 925.802 2.9236 1.79946 0
M  V30 9380 N 928.247 -1.18576 1.03814 0
M  V30 9381 C 929.493 -1.88773 0.741132 0
M  V30 9382 C 929.826 -1.79993 -0.729127 0
M  V30 9383 O 929.101 -1.19851 -1.53186 0
M  V30 9384 C 929.384 -3.39352 1.20468 0
M  V30 9385 C 929.237 -3.56955 2.73684 0
M  V30 9386 C 930.556 -4.32901 0.792741 0
M  V30 9387 H 927.675 -0.685482 0.270708 0
M  V30 9388 H 930.317 -1.39523 1.2897 0
M  V30 9389 H 928.467 -3.81427 0.737974 0
M  V30 9390 H 930.139 -3.2399 3.28372 0
M  V30 9391 H 928.382 -2.99696 3.13632 0
M  V30 9392 H 929.053 -4.62598 3.01176 0
M  V30 9393 H 931.529 -3.98592 1.1943 0
M  V30 9394 H 930.405 -5.36828 1.14486 0
M  V30 9395 H 930.666 -4.41052 -0.304295 0
M  V30 9396 N 929.725 -0.817259 -1.34754 0
M  V30 9397 C 931.136 -0.462215 -1.80888 0
M  V30 9398 C 931.487 1.01685 -1.67794 0
M  V30 9399 O 930.612 1.79094 -1.21468 0
M  V30 9400 C 931.207 -0.832204 -3.2842 0
M  V30 9401 C 929.766 -0.52961 -3.72655 0
M  V30 9402 C 928.913 -1.05214 -2.56564 0
M  V30 9403 H 931.864 -1.00795 -1.22581 0
M  V30 9404 H 931.885 -0.133804 -3.80265 0
M  V30 9405 H 931.397 -1.90873 -3.37919 0
M  V30 9406 H 929.498 0.537743 -3.68699 0
M  V30 9407 H 929.611 -1.06971 -4.67005 0
M  V30 9408 H 927.975 -0.473949 -2.50251 0
M  V30 9409 H 928.758 -2.135 -2.68836 0
M  V30 9410 N 931.203 1.46865 -0.571711 0
M  V30 9411 C 932.619 1.57897 -0.23255 0
M  V30 9412 C 932.819 1.56836 1.26509 0
M  V30 9413 O 931.875 1.47947 2.04617 0
M  V30 9414 C 933.188 2.87778 -0.872036 0
M  V30 9415 C 934.736 3.01389 -0.844605 0
M  V30 9416 C 935.211 4.33991 -1.46343 0
M  V30 9417 N 936.702 4.40662 -1.42727 0
M  V30 9418 C 937.437 5.41858 -1.87557 0
M  V30 9419 N 936.933 6.49787 -2.4031 0
M  V30 9420 N 938.726 5.32992 -1.7854 0
M  V30 9421 H 930.877 1.45798 -1.54457 0
M  V30 9422 H 933.14 0.694785 -0.644964 0
M  V30 9423 H 932.846 2.94332 -1.92513 0
M  V30 9424 H 932.72 3.75345 -0.373677 0
M  V30 9425 H 935.107 2.94423 0.19984 0
M  V30 9426 H 935.188 2.15327 -1.38087 0
M  V30 9427 H 934.832 4.41714 -2.50701 0
M  V30 9428 H 934.762 5.18809 -0.902479 0
M  V30 9429 H 937.253 3.63263 -1.04155 0
M  V30 9430 H 937.566 7.23199 -2.72403 0
M  V30 9431 H 935.911 6.50637 -2.44329 0
M  V30 9432 H 939.102 4.47575 -1.37093 0
M  V30 9433 H 939.275 6.11716 -2.13794 0
M  V30 9434 N 932.681 0.308908 1.54543 0
M  V30 9435 C 933.628 -0.563659 2.23811 0
M  V30 9436 C 934.598 -1.12332 1.22355 0
M  V30 9437 O 935.783 -1.16638 1.50997 0
M  V30 9438 C 932.923 -1.72585 2.98845 0
M  V30 9439 C 932.036 -1.19682 4.1509 0
M  V30 9440 C 931.171 -2.32351 4.77688 0
M  V30 9441 C 930.21 -1.76623 5.86064 0
M  V30 9442 N 929.347 -2.82896 6.42584 0
M  V30 9443 H 934.187 0.0336288 2.97981 0
M  V30 9444 H 931.724 0.0283666 1.47073 0
M  V30 9445 H 933.682 -2.40951 3.40586 0
M  V30 9446 H 932.312 -2.29464 2.27037 0
M  V30 9447 H 931.364 -0.405173 3.78236 0
M  V30 9448 H 932.676 -0.748923 4.93146 0
M  V30 9449 H 931.83 -3.0865 5.22322 0
M  V30 9450 H 930.569 -2.80472 3.98982 0
M  V30 9451 H 929.574 -0.988171 5.40847 0
M  V30 9452 H 930.799 -1.29398 6.66658 0
M  V30 9453 H 928.745 -3.30336 5.66758 0
M  V30 9454 H 928.662 -2.42626 7.16009 0
M  V30 9455 H 929.93 -3.59068 6.91875 0
M  V30 9456 N 934.159 -1.57557 0.0367827 0
M  V30 9457 C 935.436 -1.83427 -0.679261 0
M  V30 9458 C 935.816 -0.922274 -1.89888 0
M  V30 9459 O 935.164 0.02025 -2.28491 0
M  V30 9460 C 935.374 -3.32823 -1.05022 0
M  V30 9461 C 936.722 -3.99486 -1.43861 0
M  V30 9462 O 937.746 -3.37364 -1.14297 0
M  V30 9463 O 936.605 -5.0899 -1.98977 0
M  V30 9464 H 933.699 -0.756581 -0.333936 0
M  V30 9465 H 936.245 -1.69575 0.0650494 0
M  V30 9466 H 935.017 -3.90874 -0.182509 0
M  V30 9467 H 934.64 -3.5181 -1.85244 0
M  V30 9468 N 935.637 0.236453 -1.55816 0
M  V30 9469 C 936.884 0.963012 -1.78136 0
M  V30 9470 C 937.212 1.84918 -0.602952 0
M  V30 9471 O 936.467 1.91285 0.413325 0
M  V30 9472 C 936.766 1.84549 -3.06066 0
M  V30 9473 C 936.432 1.11381 -4.36927 0
M  V30 9474 C 935.094 0.911635 -4.72486 0
M  V30 9475 C 937.446 0.596 -5.17781 0
M  V30 9476 C 934.774 0.179515 -5.86425 0
M  V30 9477 C 937.126 -0.122702 -6.32481 0
M  V30 9478 C 935.79 -0.336263 -6.66652 0
M  V30 9479 H 935.06 0.352391 -0.651845 0
M  V30 9480 H 937.707 0.232295 -1.90086 0
M  V30 9481 H 936.012 2.6436 -2.89173 0
M  V30 9482 H 937.709 2.40953 -3.20535 0
M  V30 9483 H 934.299 1.28134 -4.08998 0
M  V30 9484 H 938.483 0.73971 -4.90757 0
M  V30 9485 H 933.739 0.00368224 -6.114 0
M  V30 9486 H 937.913 -0.531516 -6.94369 0
M  V30 9487 H 935.54 -0.905507 -7.54788 0
M  V30 9488 N 937.115 1.49373 0.502552 0
M  V30 9489 C 938.361 1.59016 1.25864 0
M  V30 9490 C 938.694 0.27532 1.92238 0
M  V30 9491 O 937.969 -0.720988 1.80643 0
M  V30 9492 C 938.252 2.74828 2.32683 0
M  V30 9493 C 938.105 4.16102 1.7082 0
M  V30 9494 C 939.424 2.86288 3.34256 0
M  V30 9495 H 936.543 0.578798 0.456248 0
M  V30 9496 H 939.185 1.81651 0.557032 0
M  V30 9497 H 937.335 2.5566 2.92524 0
M  V30 9498 H 939.007 4.46782 1.14818 0
M  V30 9499 H 937.25 4.21822 1.01238 0
M  V30 9500 H 937.921 4.93006 2.48292 0
M  V30 9501 H 940.397 3.03733 2.84404 0
M  V30 9502 H 939.273 3.69001 4.06362 0
M  V30 9503 H 939.534 1.95576 3.96488 0
M  V30 9504 N 938.594 -0.753485 1.38421 0
M  V30 9505 C 939.504 -1.89797 1.37892 0
M  V30 9506 C 940.52 -1.71797 0.276023 0
M  V30 9507 O 941.696 -1.94718 0.514464 0
M  V30 9508 C 938.761 -3.25166 1.20284 0
M  V30 9509 C 937.822 -3.55691 2.4038 0
M  V30 9510 C 937.055 -4.84601 2.23602 0
M  V30 9511 O 937.278 -5.56985 1.22979 0
M  V30 9512 O 936.212 -5.14605 3.12194 0
M  V30 9513 H 940.038 -1.93197 2.34326 0
M  V30 9514 H 937.623 -0.898775 1.19342 0
M  V30 9515 H 939.505 -4.06099 1.12525 0
M  V30 9516 H 938.18 -3.22577 0.269352 0
M  V30 9517 H 937.087 -2.74919 2.53714 0
M  V30 9518 H 938.42 -3.6304 3.32359 0
M  V30 9519 N 940.072 -1.23292 -0.981677 0
M  V30 9520 C 940.982 -1.02964 -2.10798 0
M  V30 9521 C 941.998 0.0254674 -1.73981 0
M  V30 9522 O 943.174 -0.169706 -2.00684 0
M  V30 9523 C 940.239 -0.621934 -3.41076 0
M  V30 9524 C 939.3 -1.75194 -3.91926 0
M  V30 9525 C 938.533 -1.36359 -5.15986 0
M  V30 9526 O 938.756 -0.247265 -5.69864 0
M  V30 9527 O 937.69 -2.18421 -5.60871 0
M  V30 9528 H 941.516 -1.97354 -2.30836 0
M  V30 9529 H 939.101 -1.01986 -1.09175 0
M  V30 9530 H 940.983 -0.405446 -4.19445 0
M  V30 9531 H 939.658 0.29299 -3.22371 0
M  V30 9532 H 938.565 -2.02305 -3.1468 0
M  V30 9533 H 939.898 -2.64513 -4.15083 0
M  V30 9534 N 941.55 1.18024 -1.04442 0
M  V30 9535 C 942.797 1.88098 -0.750022 0
M  V30 9536 C 943.125 1.80583 0.722489 0
M  V30 9537 O 942.38 1.20329 1.54335 0
M  V30 9538 C 942.679 3.37834 -1.16631 0
M  V30 9539 C 942.345 3.65553 -2.63974 0
M  V30 9540 C 941.007 3.72827 -3.04226 0
M  V30 9541 C 943.359 3.77634 -3.59224 0
M  V30 9542 C 940.687 3.89666 -4.38608 0
M  V30 9543 C 943.039 3.9599 -4.9333 0
M  V30 9544 C 941.703 4.01501 -5.33248 0
M  V30 9545 H 940.973 0.6883 -0.274452 0
M  V30 9546 H 943.62 1.39671 -1.31012 0
M  V30 9547 H 941.925 3.88266 -0.525071 0
M  V30 9548 H 943.622 3.90402 -0.915827 0
M  V30 9549 H 940.212 3.6051 -2.31798 0
M  V30 9550 H 944.396 3.71342 -3.2927 0
M  V30 9551 H 939.652 3.92178 -4.69048 0
M  V30 9552 H 943.826 4.0428 -5.67037 0
M  V30 9553 H 941.453 4.14301 -6.37384 0
M  V30 9554 N 943.028 0.824394 1.34319 0
M  V30 9555 C 943.938 0.24932 2.33271 0
M  V30 9556 C 944.954 -0.617066 1.62691 0
M  V30 9557 O 946.13 -0.524616 1.94447 0
M  V30 9558 C 943.195 -0.578094 3.41846 0
M  V30 9559 C 942.256 0.310866 4.28173 0
M  V30 9560 C 941.489 -0.477153 5.31563 0
M  V30 9561 O 941.712 -1.71028 5.44156 0
M  V30 9562 O 940.646 0.141287 6.01734 0
M  V30 9563 H 944.472 1.06837 2.84288 0
M  V30 9564 H 942.057 0.58657 1.37403 0
M  V30 9565 H 943.939 -1.04878 4.0814 0
M  V30 9566 H 942.614 -1.37444 2.93071 0
M  V30 9567 H 941.521 0.829081 3.64797 0
M  V30 9568 H 942.854 1.07161 4.80393 0
M  V30 9569 N 944.506 -1.46559 0.579492 0
M  V30 9570 C 945.746 -2.04292 0.0664837 0
M  V30 9571 C 946.11 -1.44161 -1.26814 0
M  V30 9572 O 947.311 -1.93074 -1.87018 0
M  V30 9573 C 945.582 -3.574 -0.00167254 0
M  V30 9574 S 947.141 -4.36408 -0.457572 0
M  V30 9575 H 943.959 -0.710092 0.035913 0
M  V30 9576 H 946.561 -1.79644 0.771263 0
M  V30 9577 H 945.265 -3.98683 0.973666 0
M  V30 9578 H 944.796 -3.8658 -0.729321 0
M  V30 9579 H 946.811 -4.65695 -1.71296 0
M  V30 9580 N 945.984 -0.3171 -1.54377 0
M  V30 9581 C 946.894 0.560867 -2.27797 0
M  V30 9582 C 947.91 1.13473 -1.31908 0
M  V30 9583 O 949.086 1.15608 -1.64914 0
M  V30 9584 C 946.151 1.70886 -3.0166 0
M  V30 9585 C 945.212 1.16745 -4.13121 0
M  V30 9586 C 944.445 2.26073 -4.83453 0
M  V30 9587 O 944.668 3.46292 -4.53252 0
M  V30 9588 O 943.602 1.91856 -5.70504 0
M  V30 9589 H 947.428 -0.035193 -3.0368 0
M  V30 9590 H 945.013 -0.0830062 -1.49169 0
M  V30 9591 H 946.895 2.37736 -3.47936 0
M  V30 9592 H 945.57 2.29122 -2.28658 0
M  V30 9593 H 944.477 0.464224 -3.71209 0
M  V30 9594 H 945.81 0.630307 -4.88147 0
M  V30 9595 N 947.462 1.57535 -0.0451378 0
M  V30 9596 C 948.392 2.14208 0.929372 0
M  V30 9597 C 949.373 1.06221 1.32858 0
M  V30 9598 O 950.558 1.34132 1.40436 0
M  V30 9599 C 947.688 2.68217 2.20629 0
M  V30 9600 C 946.642 3.81134 1.94734 0
M  V30 9601 C 945.968 4.21636 3.28828 0
M  V30 9602 C 947.268 5.06531 1.27374 0
M  V30 9603 H 948.962 2.95886 0.457348 0
M  V30 9604 H 946.508 1.42332 0.218544 0
M  V30 9605 H 948.461 3.06502 2.89196 0
M  V30 9606 H 947.185 1.83722 2.70026 0
M  V30 9607 H 945.844 3.43312 1.28579 0
M  V30 9608 H 945.492 3.34099 3.76014 0
M  V30 9609 H 945.192 4.97736 3.12302 0
M  V30 9610 H 946.716 4.62516 3.98637 0
M  V30 9611 H 948.13 5.423 1.85967 0
M  V30 9612 H 946.527 5.87735 1.21194 0
M  V30 9613 H 947.597 4.84261 0.248913 0
M  V30 9614 N 948.94 -0.228186 1.55939 0
M  V30 9615 C 949.85 -1.30386 1.9503 0
M  V30 9616 C 950.866 -1.51645 0.853218 0
M  V30 9617 O 952.042 -1.64904 1.15623 0
M  V30 9618 C 949.107 -2.63489 2.25332 0
M  V30 9619 C 948.168 -2.5059 3.48573 0
M  V30 9620 C 947.401 -3.77345 3.7742 0
M  V30 9621 O 947.624 -4.80067 3.08045 0
M  V30 9622 O 946.558 -3.74855 4.70922 0
M  V30 9623 H 950.384 -1.0022 2.86687 0
M  V30 9624 H 947.969 -0.430503 1.43063 0
M  V30 9625 H 949.851 -3.4211 2.46046 0
M  V30 9626 H 948.526 -2.93349 1.3685 0
M  V30 9627 H 947.433 -1.70191 3.33145 0
M  V30 9628 H 948.766 -2.2567 4.37417 0
M  V30 9629 N 950.418 -1.49637 -0.494624 0
M  V30 9630 C 951.829 -1.52573 -1.07603 0
M  V30 9631 C 952.18 -0.315591 -1.93645 0
M  V30 9632 O 951.305 0.573966 -2.08649 0
M  V30 9633 C 951.9 -2.7648 -1.95817 0
M  V30 9634 C 950.459 -2.82173 -2.49109 0
M  V30 9635 C 949.606 -2.4657 -1.2688 0
M  V30 9636 H 952.557 -1.56242 -0.278251 0
M  V30 9637 H 952.578 -2.57003 -2.80588 0
M  V30 9638 H 952.09 -3.64538 -1.33167 0
M  V30 9639 H 950.191 -1.9841 -3.15379 0
M  V30 9640 H 950.304 -3.84501 -2.85825 0
M  V30 9641 H 948.668 -1.98489 -1.59607 0
M  V30 9642 H 949.451 -3.3691 -0.659281 0
M  V30 9643 N 951.896 0.746133 -1.38819 0
M  V30 9644 C 952.826 1.87344 -1.39372 0
M  V30 9645 C 953.807 1.68123 -0.258583 0
M  V30 9646 O 954.992 1.88606 -0.462769 0
M  V30 9647 C 952.122 3.24962 -1.22543 0
M  V30 9648 C 951.076 3.58799 -2.33339 0
M  V30 9649 C 950.402 4.95235 -2.01609 0
M  V30 9650 C 951.702 3.62911 -3.75624 0
M  V30 9651 H 953.396 1.87138 -2.33709 0
M  V30 9652 H 950.942 0.898937 -1.12495 0
M  V30 9653 H 952.895 4.03488 -1.21554 0
M  V30 9654 H 951.619 3.25667 -0.246707 0
M  V30 9655 H 950.278 2.82596 -2.33527 0
M  V30 9656 H 949.926 4.92508 -1.02202 0
M  V30 9657 H 949.626 5.18843 -2.75819 0
M  V30 9658 H 951.15 5.76131 -2.02251 0
M  V30 9659 H 952.564 4.31535 -3.77426 0
M  V30 9660 H 950.961 3.98031 -4.491 0
M  V30 9661 H 952.031 2.62967 -4.07402 0
M  V30 9662 N 953.375 1.23811 0.975125 0
M  V30 9663 C 954.623 1.07124 1.71373 0
M  V30 9664 C 954.944 -0.391864 1.91022 0
M  V30 9665 O 954.214 -1.28041 1.48265 0
M  V30 9666 H 952.794 0.393415 0.635007 0
M  V30 9667 H 955.456 1.55612 1.17349 0
M  V30 9668 H 954.552 1.56338 2.7012 0
M  V30 9669 N 954.853 -1.17469 1.05066 0
M  V30 9670 C 956.081 -1.9162 0.780334 0
M  V30 9671 C 956.496 -1.76745 -0.663817 0
M  V30 9672 O 955.853 -1.10377 -1.45338 0
M  V30 9673 C 955.904 -3.42723 1.14992 0
M  V30 9674 O 955.625 -3.57139 2.53739 0
M  V30 9675 C 957.126 -4.33952 0.905549 0
M  V30 9676 H 954.346 -0.608022 0.283814 0
M  V30 9677 H 956.89 -1.4897 1.401 0
M  V30 9678 H 955.045 -3.83124 0.57403 0
M  V30 9679 H 955.459 -4.5075 2.68189 0
M  V30 9680 H 956.933 -5.38487 1.21391 0
M  V30 9681 H 957.41 -4.38911 -0.159295 0
M  V30 9682 H 958.016 -3.99263 1.46522 0
M  V30 9683 N 956.331 -0.831506 -1.3388 0
M  V30 9684 C 957.263 -0.216908 -2.28171 0
M  V30 9685 C 958.276 0.598141 -1.51414 0
M  V30 9686 O 959.465 0.426416 -1.73332 0
M  V30 9687 C 956.565 0.713831 -3.31297 0
M  V30 9688 C 955.738 -0.0602673 -4.37358 0
M  V30 9689 C 954.797 0.792696 -5.20195 0
M  V30 9690 O 953.823 0.234564 -5.68716 0
M  V30 9691 N 955.025 2.11119 -5.40748 0
M  V30 9692 H 957.79 -1.02704 -2.81553 0
M  V30 9693 H 955.351 -0.689272 -1.46495 0
M  V30 9694 H 957.343 1.28925 -3.83615 0
M  V30 9695 H 955.913 1.42469 -2.78247 0
M  V30 9696 H 955.133 -0.817041 -3.8564 0
M  V30 9697 H 956.421 -0.592822 -5.05335 0
M  V30 9698 H 955.819 2.58828 -5.03016 0
M  V30 9699 H 954.376 2.63527 -5.96151 0
M  V30 9700 N 957.809 1.4625 -0.587256 0
M  V30 9701 C 958.772 2.28812 0.133238 0
M  V30 9702 C 959.772 1.38645 0.814513 0
M  V30 9703 O 960.962 1.60975 0.665774 0
M  V30 9704 C 958.094 3.19147 1.19824 0
M  V30 9705 H 959.287 2.93991 -0.592386 0
M  V30 9706 H 956.84 1.52435 -0.345416 0
M  V30 9707 H 957.575 2.58725 1.95529 0
M  V30 9708 H 957.36 3.85541 0.71418 0
M  V30 9709 H 958.85 3.81278 1.70344 0
M  V30 9710 N 959.287 0.325282 1.54207 0
M  V30 9711 C 960.533 -0.277185 2.00897 0
M  V30 9712 C 960.866 -1.51651 1.21308 0
M  V30 9713 O 960.141 -1.92237 0.295825 0
M  V30 9714 C 960.424 -0.60961 3.54902 0
M  V30 9715 C 960.277 0.640542 4.45216 0
M  V30 9716 C 961.596 -1.42656 4.16338 0
M  V30 9717 H 958.715 -0.0992722 0.730284 0
M  V30 9718 H 961.357 0.442201 1.84783 0
M  V30 9719 H 959.507 -1.22249 3.68765 0
M  V30 9720 H 961.179 1.27878 4.43221 0
M  V30 9721 H 959.422 1.26908 4.14821 0
M  V30 9722 H 960.093 0.363459 5.50802 0
M  V30 9723 H 962.569 -0.908494 4.06061 0
M  V30 9724 H 961.445 -1.62792 5.24204 0
M  V30 9725 H 961.706 -2.42321 3.69774 0
M  V30 9726 N 960.765 -1.57509 0.0534917 0
M  V30 9727 C 962.013 -1.92402 -0.618548 0
M  V30 9728 C 962.334 -0.93273 -1.71246 0
M  V30 9729 O 961.604 0.0220495 -1.95888 0
M  V30 9730 H 960.184 -0.710233 -0.23147 0
M  V30 9731 H 962.846 -1.94606 0.10704 0
M  V30 9732 H 961.942 -2.93704 -1.05566 0
M  V30 9733 N 962.243 0.219913 -1.56058 0
M  V30 9734 C 963.654 0.786766 -1.69313 0
M  V30 9735 C 964.005 1.84916 -0.655782 0
M  V30 9736 O 963.13 2.1554 0.192772 0
M  V30 9737 C 963.725 1.43387 -3.06962 0
M  V30 9738 C 962.284 1.94809 -3.22066 0
M  V30 9739 C 961.431 0.808863 -2.65241 0
M  V30 9740 H 964.382 -0.00476777 -1.58699 0
M  V30 9741 H 964.403 2.30272 -3.02911 0
M  V30 9742 H 963.915 0.660405 -3.8244 0
M  V30 9743 H 962.016 2.74952 -2.5146 0
M  V30 9744 H 962.129 2.12694 -4.293 0
M  V30 9745 H 960.493 1.21661 -2.23765 0
M  V30 9746 H 961.276 0.0480458 -3.43266 0
M  V30 9747 N 963.721 1.49897 0.486681 0
M  V30 9748 C 964.949 1.63837 1.26353 0
M  V30 9749 C 965.364 0.315428 1.86146 0
M  V30 9750 O 964.721 -0.700831 1.68507 0
M  V30 9751 C 964.772 2.71792 2.38351 0
M  V30 9752 O 964.493 3.98956 1.81013 0
M  V30 9753 C 965.994 2.96566 3.2949 0
M  V30 9754 H 963.214 0.551158 0.382709 0
M  V30 9755 H 965.758 1.96023 0.582694 0
M  V30 9756 H 963.913 2.42344 3.02238 0
M  V30 9757 H 964.327 4.58536 2.54647 0
M  V30 9758 H 965.801 3.75803 4.04322 0
M  V30 9759 H 966.278 2.07031 3.87343 0
M  V30 9760 H 966.884 3.27485 2.71355 0
M  V30 9761 N 965.199 -0.738761 1.39212 0
M  V30 9762 C 966.147 -1.8741 1.3777 0
M  V30 9763 C 967.141 -1.67371 0.261375 0
M  V30 9764 O 968.347 -1.74759 0.431209 0
M  V30 9765 H 964.722 -0.616843 0.430126 0
M  V30 9766 H 966.693 -1.85742 2.33543 0
M  V30 9767 C 965.442 -3.25053 1.23433 0
M  V30 9768 H 964.765 -3.41066 2.086 0
M  V30 9769 H 966.205 -4.04696 1.2648 0
M  V30 9770 C 964.664 -3.36851 -0.0575624 0
M  V30 9771 O 965.194 -3.88293 -1.02915 0
M  V30 9772 N 963.4 -2.90355 -0.119364 0
M  V30 9773 H 962.947 -2.48681 0.671976 0
M  V30 9774 H 962.905 -2.98628 -0.983286 0
M  V30 9775 N 966.677 -1.24326 -0.968545 0
M  V30 9776 C 967.923 -1.08406 -1.71394 0
M  V30 9777 C 968.256 0.376353 -1.90518 0
M  V30 9778 O 967.531 1.27816 -1.46606 0
M  V30 9779 C 967.814 -1.82344 -3.1052 0
M  V30 9780 C 967.667 -3.3613 -2.98893 0
M  V30 9781 C 968.986 -1.59545 -4.10163 0
M  V30 9782 H 966.105 -0.395205 -0.622079 0
M  V30 9783 H 968.747 -1.52983 -1.12677 0
M  V30 9784 H 966.897 -1.44452 -3.60646 0
M  V30 9785 H 968.569 -3.83614 -2.56199 0
M  V30 9786 H 966.812 -3.64553 -2.35124 0
M  V30 9787 H 967.483 -3.83064 -3.97449 0
M  V30 9788 H 969.959 -1.92504 -3.68892 0
M  V30 9789 H 968.835 -2.13736 -5.05577 0
M  V30 9790 H 969.096 -0.533503 -4.38869 0
M  V30 9791 N 968.156 1.1691 -1.05688 0
M  V30 9792 C 969.381 1.91745 -0.790478 0
M  V30 9793 C 969.806 1.76568 0.648478 0
M  V30 9794 O 969.164 1.08682 1.45114 0
M  V30 9795 C 969.212 3.4067 -1.18222 0
M  V30 9796 O 968.316 4.11177 -0.317341 0
M  V30 9797 H 967.657 0.5976 -0.28943 0
M  V30 9798 H 970.187 1.48157 -1.41105 0
M  V30 9799 H 970.197 3.91424 -1.15114 0
M  V30 9800 H 968.872 3.51036 -2.2304 0
M  V30 9801 H 967.449 3.70645 -0.409459 0
M  V30 9802 N 969.634 0.838594 1.33437 0
M  V30 9803 C 970.564 0.286672 2.31734 0
M  V30 9804 C 971.545 -0.605451 1.5896 0
M  V30 9805 O 972.73 -0.529059 1.86854 0
M  V30 9806 C 969.86 -0.539311 3.43087 0
M  V30 9807 C 968.814 0.256997 4.27228 0
M  V30 9808 C 968.14 -0.692718 5.30194 0
M  V30 9809 C 969.44 1.47391 5.01072 0
M  V30 9810 H 971.134 1.10798 2.78144 0
M  V30 9811 H 968.68 0.534235 1.33723 0
M  V30 9812 H 970.633 -0.935724 4.1088 0
M  V30 9813 H 969.357 -1.39383 2.95364 0
M  V30 9814 H 968.016 0.634967 3.61059 0
M  V30 9815 H 967.664 -1.54363 4.78729 0
M  V30 9816 H 967.364 -0.164023 5.87371 0
M  V30 9817 H 968.888 -1.08665 6.00853 0
M  V30 9818 H 970.302 1.15067 5.61634 0
M  V30 9819 H 968.699 1.93937 5.67898 0
M  V30 9820 H 969.769 2.24382 4.29861 0
M  V30 9821 N 971.112 -1.45937 0.595003 0
M  V30 9822 C 972.34 -2.06698 0.091293 0
M  V30 9823 C 972.755 -1.44176 -1.21897 0
M  V30 9824 O 972.112 -0.551402 -1.73971 0
M  V30 9825 C 972.163 -3.61436 -0.0681801 0
M  V30 9826 O 971.884 -4.21622 1.19023 0
M  V30 9827 C 973.385 -4.39155 -0.604814 0
M  V30 9828 H 970.605 -0.668029 0.0630737 0
M  V30 9829 H 973.149 -1.87376 0.819165 0
M  V30 9830 H 971.304 -3.80143 -0.746324 0
M  V30 9831 H 971.718 -5.14647 1.01187 0
M  V30 9832 H 973.192 -5.47973 -0.665532 0
M  V30 9833 H 973.669 -4.08055 -1.62444 0
M  V30 9834 H 974.275 -4.25282 0.0388658 0
M  V30 9835 N 972.59 -0.333456 -1.54032 0
M  V30 9836 C 973.836 0.266527 -2.01041 0
M  V30 9837 C 974.169 1.51006 -1.2211 0
M  V30 9838 O 973.444 1.92078 -0.306016 0
M  V30 9839 C 973.727 0.59078 -3.55221 0
M  V30 9840 C 973.58 -0.664143 -4.4487 0
M  V30 9841 C 974.899 1.40447 -4.17088 0
M  V30 9842 H 972.018 0.0953979 -0.7308 0
M  V30 9843 H 974.66 -0.451995 -1.84545 0
M  V30 9844 H 972.81 1.20292 -3.69408 0
M  V30 9845 H 974.482 -1.30227 -4.42537 0
M  V30 9846 H 972.725 -1.29106 -4.14143 0
M  V30 9847 H 973.396 -0.392664 -5.50602 0
M  V30 9848 H 975.872 0.886946 -4.06537 0
M  V30 9849 H 974.748 1.6001 -5.2506 0
M  V30 9850 H 975.009 2.40357 -3.71054 0
M  V30 9851 N 974.068 1.57479 -0.061844 0
M  V30 9852 C 975.296 1.97429 0.618837 0
M  V30 9853 C 975.711 0.939826 1.63746 0
M  V30 9854 O 975.068 -0.0747173 1.82347 0
M  V30 9855 C 975.119 3.3746 1.29628 0
M  V30 9856 O 974.84 4.36941 0.318431 0
M  V30 9857 C 976.341 3.92228 2.06572 0
M  V30 9858 H 973.561 0.649513 0.168444 0
M  V30 9859 H 976.105 2.04078 -0.131303 0
M  V30 9860 H 974.26 3.31928 1.99757 0
M  V30 9861 H 974.674 5.18313 0.803239 0
M  V30 9862 H 976.148 4.92458 2.49377 0
M  V30 9863 H 976.625 3.28231 2.91824 0
M  V30 9864 H 977.231 4.01131 1.4133 0
M  V30 9865 N 975.546 -0.211634 1.56173 0
M  V30 9866 C 976.494 -1.28188 1.94089 0
M  V30 9867 C 977.488 -1.47999 0.824167 0
M  V30 9868 O 978.694 -1.49056 1.00907 0
M  V30 9869 H 975.069 -0.42999 0.616938 0
M  V30 9870 H 977.04 -0.934962 2.83374 0
M  V30 9871 C 975.789 -2.62294 2.28248 0
M  V30 9872 H 975.112 -2.4786 3.13696 0
M  V30 9873 H 976.552 -3.35967 2.58655 0
M  V30 9874 C 975.011 -3.18049 1.11113 0
M  V30 9875 O 975.541 -3.99923 0.377458 0
M  V30 9876 N 973.747 -2.76561 0.892321 0
M  V30 9877 H 973.294 -2.10088 1.49067 0
M  V30 9878 H 973.252 -3.14206 0.110344 0
M  V30 9879 N 977.024 -1.50153 -0.478725 0
M  V30 9880 C 977.957 -1.63089 -1.59616 0
M  V30 9881 C 978.935 -0.479211 -1.55378 0
M  V30 9882 O 980.119 -0.697715 -1.75112 0
M  V30 9883 C 977.246 -1.60643 -2.9818 0
M  V30 9884 C 976.292 -2.81279 -3.206 0
M  V30 9885 S 977.125 -4.42681 -3.0132 0
M  V30 9886 C 978.281 -4.42915 -4.42241 0
M  V30 9887 H 978.514 -2.57612 -1.48402 0
M  V30 9888 H 976.047 -1.39321 -0.665513 0
M  V30 9889 H 978.005 -1.59917 -3.7807 0
M  V30 9890 H 976.666 -0.673684 -3.0679 0
M  V30 9891 H 975.859 -2.7585 -4.21809 0
M  V30 9892 H 975.461 -2.79533 -2.4847 0
M  V30 9893 H 977.753 -4.16007 -5.34737 0
M  V30 9894 H 978.696 -5.44477 -4.52715 0
M  V30 9895 H 979.104 -3.72715 -4.23962 0
M  V30 9896 N 978.502 0.731368 -1.39602 0
M  V30 9897 C 979.913 1.30981 -1.33045 0
M  V30 9898 C 980.264 1.962 0.00349918 0
M  V30 9899 O 979.389 1.96539 0.905615 0
M  V30 9900 C 979.984 2.3817 -2.40958 0
M  V30 9901 C 978.543 2.91678 -2.3791 0
M  V30 9902 C 977.69 1.65286 -2.22656 0
M  V30 9903 H 980.641 0.528615 -1.49637 0
M  V30 9904 H 980.662 3.18645 -2.07955 0
M  V30 9905 H 980.174 1.90673 -3.38032 0
M  V30 9906 H 978.275 3.43446 -1.44485 0
M  V30 9907 H 978.388 3.44545 -3.32904 0
M  V30 9908 H 976.752 1.89759 -1.69893 0
M  V30 9909 H 977.535 1.19836 -3.21705 0
M  V30 9910 N 979.98 1.24838 0.961938 0
M  V30 9911 C 981.391 1.08369 1.5203 0
M  V30 9912 C 981.742 -0.343005 1.93178 0
M  V30 9913 O 980.867 -1.2321 1.779 0
M  V30 9914 C 981.462 1.96102 2.76278 0
M  V30 9915 C 980.021 1.8384 3.28451 0
M  V30 9916 C 979.168 1.9069 2.01327 0
M  V30 9917 H 982.119 1.38231 0.779613 0
M  V30 9918 H 982.14 1.4967 3.49827 0
M  V30 9919 H 981.652 2.99931 2.46298 0
M  V30 9920 H 979.753 0.828653 3.63269 0
M  V30 9921 H 979.866 2.68251 3.96961 0
M  V30 9922 H 978.23 1.34488 2.16299 0
M  V30 9923 H 979.013 2.96111 1.73705 0
M  V30 9924 N 981.458 -1.16348 1.06306 0
M  V30 9925 C 982.706 -1.86512 0.778311 0
M  V30 9926 C 983.027 -1.82107 -0.697273 0
M  V30 9927 O 982.297 -1.2547 -1.50446 0
M  V30 9928 H 980.877 -0.690529 0.284919 0
M  V30 9929 H 983.539 -1.41092 1.34458 0
M  V30 9930 H 982.635 -2.91947 1.10333 0
M  V30 9931 N 982.937 -0.845659 -1.3299 0
M  V30 9932 C 983.884 -0.281761 -2.29074 0
M  V30 9933 C 984.854 0.606237 -1.54641 0
M  V30 9934 O 986.039 0.543063 -1.82908 0
M  V30 9935 C 983.179 0.531451 -3.40983 0
M  V30 9936 C 982.292 -0.381328 -4.30314 0
M  V30 9937 C 981.427 0.443643 -5.29344 0
M  V30 9938 C 980.466 -0.467101 -6.10315 0
M  V30 9939 N 979.603 0.320148 -7.0137 0
M  V30 9940 H 984.443 -1.10641 -2.76699 0
M  V30 9941 H 981.98 -0.55706 -1.36144 0
M  V30 9942 H 983.938 1.01848 -4.04577 0
M  V30 9943 H 982.568 1.32101 -2.94532 0
M  V30 9944 H 981.62 -0.986701 -3.6738 0
M  V30 9945 H 982.932 -1.08067 -4.86953 0
M  V30 9946 H 982.086 0.994212 -5.98498 0
M  V30 9947 H 980.825 1.17639 -4.73299 0
M  V30 9948 H 979.83 -1.02963 -5.40073 0
M  V30 9949 H 981.055 -1.19832 -6.68444 0
M  V30 9950 H 979.001 1.03615 -6.47765 0
M  V30 9951 H 978.918 -0.320338 -7.55321 0
M  V30 9952 H 980.186 0.852735 -7.74822 0
M  V30 9953 N 984.415 1.45619 -0.602734 0
M  V30 9954 C 985.365 2.27568 0.140264 0
M  V30 9955 C 986.349 1.3704 0.84314 0
M  V30 9956 O 987.541 1.61067 0.733931 0
M  V30 9957 C 984.67 3.23812 1.14019 0
M  V30 9958 C 983.756 4.21828 0.438406 0
M  V30 9959 N 984.147 5.03148 -0.517245 0
M  V30 9960 C 982.445 4.40684 0.686588 0
M  V30 9961 C 983.146 5.74229 -0.929291 0
M  V30 9962 N 982.122 5.42909 -0.274086 0
M  V30 9963 H 985.924 2.87839 -0.5938 0
M  V30 9964 H 983.438 1.56712 -0.426033 0
M  V30 9965 H 985.435 3.8125 1.68684 0
M  V30 9966 H 984.095 2.65102 1.87486 0
M  V30 9967 H 985.106 5.1013 -0.893758 0
M  V30 9968 H 981.783 3.93102 1.4063 0
M  V30 9969 H 983.173 6.49586 -1.7172 0
M  V30 9970 N 985.893 0.34162 1.53853 0
M  V30 9971 C 987.14 -0.255484 2.00882 0
M  V30 9972 C 987.468 -1.50711 1.22949 0
M  V30 9973 O 986.723 -1.93315 0.304625 0
M  V30 9974 C 987.022 -0.616989 3.52034 0
M  V30 9975 C 986.688 0.537536 4.47684 0
M  V30 9976 C 985.35 0.854379 4.73554 0
M  V30 9977 C 987.702 1.31217 5.04412 0
M  V30 9978 C 985.03 1.94826 5.53407 0
M  V30 9979 C 987.382 2.39628 5.85458 0
M  V30 9980 C 986.046 2.71874 6.09623 0
M  V30 9981 H 985.316 -0.0934881 0.735079 0
M  V30 9982 H 987.963 0.469135 1.85665 0
M  V30 9983 H 986.268 -1.42229 3.65073 0
M  V30 9984 H 987.965 -1.09084 3.85878 0
M  V30 9985 H 984.555 0.280524 4.27681 0
M  V30 9986 H 988.739 1.08064 4.84392 0
M  V30 9987 H 983.995 2.20235 5.70356 0
M  V30 9988 H 988.169 3.00084 6.28429 0
M  V30 9989 H 985.796 3.56762 6.71286 0
M  V30 9990 N 987.371 -1.57444 0.0701946 0
M  V30 9991 C 988.787 -1.57009 -0.286431 0
M  V30 9992 C 988.987 -1.07946 -1.70147 0
M  V30 9993 O 988.043 -0.744622 -2.41271 0
M  V30 9994 C 989.356 -3.00542 -0.0975466 0
M  V30 9995 C 990.904 -3.12553 -0.167205 0
M  V30 9996 C 991.379 -4.58 -0.00662047 0
M  V30 9997 N 992.87 -4.63158 -0.0622778 0
M  V30 9998 C 993.605 -5.73388 0.0375831 0
M  V30 9999 N 993.101 -6.92537 0.190873 0
M  V30 10000 N 994.894 -5.62097 -0.0193672 0
M  V30 10001 H 987.045 -1.87651 0.995023 0
M  V30 10002 H 989.308 -0.865006 0.387902 0
M  V30 10003 H 989.014 -3.40543 0.878822 0
M  V30 10004 H 988.888 -3.67485 -0.850547 0
M  V30 10005 H 991.275 -2.72439 -1.13406 0
M  V30 10006 H 991.356 -2.48251 0.616871 0
M  V30 10007 H 991 -4.98803 0.956992 0
M  V30 10008 H 990.93 -5.20332 -0.810081 0
M  V30 10009 H 993.421 -3.77475 -0.179229 0
M  V30 10010 H 993.734 -7.72365 0.25926 0
M  V30 10011 H 992.079 -6.94632 0.226214 0
M  V30 10012 H 995.27 -4.67897 -0.137815 0
M  V30 10013 H 995.443 -6.4797 0.0619121 0
M  V30 10014 N 988.849 0.203349 -1.56283 0
M  V30 10015 C 990.095 0.926381 -1.80405 0
M  V30 10016 C 990.428 1.8325 -0.642883 0
M  V30 10017 O 989.703 1.91196 0.356998 0
M  V30 10018 C 989.986 1.74972 -3.14733 0
M  V30 10019 C 989.839 0.868866 -4.41328 0
M  V30 10020 C 991.158 2.72394 -3.45672 0
M  V30 10021 H 988.277 0.335346 -0.656286 0
M  V30 10022 H 990.919 0.1942 -1.89005 0
M  V30 10023 H 989.069 2.37394 -3.07533 0
M  V30 10024 H 990.741 0.259986 -4.60567 0
M  V30 10025 H 988.984 0.175161 -4.33446 0
M  V30 10026 H 989.655 1.47975 -5.31796 0
M  V30 10027 H 992.131 2.20105 -3.53119 0
M  V30 10028 H 991.007 3.27091 -4.40798 0
M  V30 10029 H 991.268 3.51035 -2.6875 0
M  V30 10030 N 990.327 1.50405 0.470755 0
M  V30 10031 C 991.604 1.51929 1.23195 0
M  V30 10032 C 991.984 0.264159 2.09441 0
M  V30 10033 O 991.332 -0.752395 2.15757 0
M  V30 10034 C 991.542 2.81521 2.06269 0
M  V30 10035 C 992.89 3.32195 2.64446 0
M  V30 10036 O 993.914 2.82845 2.16511 0
M  V30 10037 O 992.773 4.18221 3.51786 0
M  V30 10038 H 989.867 0.609411 0.559059 0
M  V30 10039 H 992.413 1.62695 0.482549 0
M  V30 10040 H 991.185 3.64346 1.42715 0
M  V30 10041 H 990.808 2.7376 2.88342 0
M  V30 10042 N 991.805 -0.723954 1.39988 0
M  V30 10043 C 993.053 -1.48078 1.3754 0
M  V30 10044 C 993.374 -1.94985 -0.0243358 0
M  V30 10045 O 992.644 -1.69764 -0.977602 0
M  V30 10046 H 991.224 -0.549354 0.506181 0
M  V30 10047 H 993.886 -0.858746 1.74962 0
M  V30 10048 H 992.982 -2.35763 2.04505 0
M  V30 10049 N 993.283 -1.25346 -0.955304 0
M  V30 10050 C 994.511 -1.12793 -1.73451 0
M  V30 10051 C 994.926 0.318344 -1.86097 0
M  V30 10052 O 994.283 1.21897 -1.35821 0
M  V30 10053 C 994.334 -1.77603 -3.14864 0
M  V30 10054 O 994.055 -3.16577 -3.02837 0
M  V30 10055 C 995.556 -1.70821 -4.09066 0
M  V30 10056 H 992.776 -0.393457 -0.543537 0
M  V30 10057 H 995.32 -1.65696 -1.19855 0
M  V30 10058 H 993.475 -1.28673 -3.65407 0
M  V30 10059 H 993.889 -3.48433 -3.92039 0
M  V30 10060 H 995.363 -2.2083 -5.05903 0
M  V30 10061 H 995.84 -0.671858 -4.34031 0
M  V30 10062 H 996.446 -2.19237 -3.64438 0
M  V30 10063 N 994.761 1.15782 -1.06922 0
M  V30 10064 C 995.986 1.90896 -0.810771 0
M  V30 10065 C 996.411 1.77246 0.629714 0
M  V30 10066 O 995.769 1.10215 1.43953 0
M  V30 10067 C 995.817 3.39397 -1.21829 0
M  V30 10068 O 994.921 4.10818 -0.360934 0
M  V30 10069 H 994.262 0.594497 -0.295752 0
M  V30 10070 H 996.792 1.46652 -1.42669 0
M  V30 10071 H 996.802 3.90181 -1.19259 0
M  V30 10072 H 995.477 3.4865 -2.2675 0
M  V30 10073 H 994.054 3.7019 -0.448748 0
M  V30 10074 N 996.239 0.8527 1.3254 0
M  V30 10075 C 997.485 0.455798 1.97612 0
M  V30 10076 C 997.818 -0.985616 1.6733 0
M  V30 10077 O 997.093 -1.69129 0.960493 0
M  V30 10078 C 997.376 0.69312 3.53366 0
M  V30 10079 C 997.229 2.18281 3.93285 0
M  V30 10080 C 998.548 0.148236 4.3985 0
M  V30 10081 H 995.667 0.167078 0.717812 0
M  V30 10082 H 998.309 1.07076 1.56954 0
M  V30 10083 H 996.459 0.169677 3.88129 0
M  V30 10084 H 998.131 2.77218 3.68711 0
M  V30 10085 H 996.374 2.66206 3.42515 0
M  V30 10086 H 997.045 2.29957 5.01821 0
M  V30 10087 H 999.521 0.595834 4.11812 0
M  V30 10088 H 998.397 0.343873 5.47822 0
M  V30 10089 H 998.658 -0.948872 4.31797 0
M  V30 10090 N 997.718 -1.45297 0.610449 0
M  V30 10091 C 998.648 -2.33311 -0.0939698 0
M  V30 10092 C 999.629 -1.46999 -0.85588 0
M  V30 10093 O 1000.81 -1.75764 -0.825865 0
M  V30 10094 C 997.944 -3.29751 -1.09003 0
M  V30 10095 C 996.898 -4.2572 -0.441146 0
M  V30 10096 C 996.224 -5.11873 -1.54566 0
M  V30 10097 C 997.524 -5.1837 0.639489 0
M  V30 10098 H 999.218 -2.92459 0.640941 0
M  V30 10099 H 996.764 -1.40631 0.309675 0
M  V30 10100 H 998.717 -3.90195 -1.59141 0
M  V30 10101 H 997.441 -2.68768 -1.85557 0
M  V30 10102 H 996.1 -3.66579 0.0393908 0
M  V30 10103 H 995.748 -4.47256 -2.30155 0
M  V30 10104 H 995.448 -5.76886 -1.11698 0
M  V30 10105 H 996.972 -5.75185 -2.04925 0
M  V30 10106 H 998.386 -5.7287 0.22207 0
M  V30 10107 H 996.783 -5.91876 0.990089 0
M  V30 10108 H 997.853 -4.60627 1.51495 0
M  V30 10109 N 999.196 -0.349774 -1.5367 0
M  V30 10110 C 1000.61 0.00191293 -1.596 0
M  V30 10111 C 1000.81 1.48175 -1.36552 0
M  V30 10112 O 999.868 2.24129 -1.16285 0
M  V30 10113 C 1001.18 -0.439848 -2.97466 0
M  V30 10114 C 1002.73 -0.392721 -3.10526 0
M  V30 10115 C 1003.2 -0.810047 -4.5078 0
M  V30 10116 N 1004.69 -0.764478 -4.56848 0
M  V30 10117 C 1005.43 -1.05927 -5.63531 0
M  V30 10118 N 1004.93 -1.42253 -6.78038 0
M  V30 10119 N 1006.72 -0.983098 -5.53436 0
M  V30 10120 H 998.87 -1.31364 -1.66905 0
M  V30 10121 H 1001.13 -0.535908 -0.781989 0
M  V30 10122 H 1000.84 -1.47189 -3.19419 0
M  V30 10123 H 1000.71 0.181735 -3.76762 0
M  V30 10124 H 1003.1 0.630161 -2.88293 0
M  V30 10125 H 1003.18 -1.04959 -2.33275 0
M  V30 10126 H 1002.82 -1.83097 -4.73749 0
M  V30 10127 H 1002.75 -0.130591 -5.26438 0
M  V30 10128 H 1005.25 -0.496637 -3.74622 0
M  V30 10129 H 1005.56 -1.63215 -7.55368 0
M  V30 10130 H 1003.9 -1.46104 -6.79469 0
M  V30 10131 H 1007.09 -0.698601 -4.62858 0
M  V30 10132 H 1007.27 -1.21618 -6.36485 0
M  V30 10133 N 1000.67 1.57404 -0.0785433 0
M  V30 10134 C 1001.92 1.93361 0.58786 0
M  V30 10135 C 1002.24 0.959856 1.6974 0
M  V30 10136 O 1001.51 0.0091173 1.95898 0
M  V30 10137 H 1000.09 0.713825 0.220141 0
M  V30 10138 H 1002.75 1.94411 -0.137986 0
M  V30 10139 H 1001.85 2.95346 1.00881 0
M  V30 10140 N 1002.15 -0.195058 1.56388 0
M  V30 10141 C 1003.4 -0.915444 1.80626 0
M  V30 10142 C 1003.73 -1.83255 0.651768 0
M  V30 10143 O 1002.98 -1.92314 -0.362464 0
M  V30 10144 C 1003.28 -1.7637 3.10851 0
M  V30 10145 C 1002.95 -0.997572 4.39726 0
M  V30 10146 C 1001.61 -0.786043 4.74737 0
M  V30 10147 C 1003.96 -0.45851 5.19179 0
M  V30 10148 C 1001.29 -0.023972 5.86695 0
M  V30 10149 C 1003.64 0.29035 6.31933 0
M  V30 10150 C 1002.3 0.512895 6.65527 0
M  V30 10151 H 1001.57 -0.334985 0.660959 0
M  V30 10152 H 1004.22 -0.181815 1.90635 0
M  V30 10153 H 1002.53 -2.566 2.9608 0
M  V30 10154 H 1004.22 -2.3237 3.26811 0
M  V30 10155 H 1000.81 -1.17245 4.12252 0
M  V30 10156 H 1005 -0.609334 4.92545 0
M  V30 10157 H 1000.25 0.158421 6.11195 0
M  V30 10158 H 1004.43 0.715429 6.92715 0
M  V30 10159 H 1002.05 1.10531 7.52122 0
M  V30 10160 N 1003.63 -1.50653 -0.462772 0
M  V30 10161 C 1004.85 -1.66103 -1.24196 0
M  V30 10162 C 1005.28 -0.347421 -1.84864 0
M  V30 10163 O 1004.64 0.689673 -1.6767 0
M  V30 10164 C 1004.69 -2.76027 -2.32037 0
M  V30 10165 O 1003.79 -2.37859 -3.36893 0
M  V30 10166 H 1003.13 -0.554672 -0.365014 0
M  V30 10167 H 1005.66 -1.97076 -0.549734 0
M  V30 10168 H 1005.67 -2.99354 -2.77221 0
M  V30 10169 H 1004.35 -3.71361 -1.87253 0
M  V30 10170 H 1002.92 -2.2501 -2.97363 0
M  V30 10171 N 1005.11 0.71652 -1.4037 0
M  V30 10172 C 1006.36 1.47638 -1.38597 0
M  V30 10173 C 1006.68 1.94496 0.0120141 0
M  V30 10174 O 1005.94 1.68437 0.996373 0
M  V30 10175 C 1006.24 2.71777 -2.32103 0
M  V30 10176 C 1005.9 2.43689 -3.79376 0
M  V30 10177 C 1004.57 2.35739 -4.195 0
M  V30 10178 C 1006.92 2.20099 -4.72447 0
M  V30 10179 C 1004.25 2.02265 -5.50732 0
M  V30 10180 C 1006.6 1.88138 -6.03976 0
M  V30 10181 C 1005.26 1.78669 -6.43143 0
M  V30 10182 H 1004.53 0.540246 -0.507163 0
M  V30 10183 H 1007.18 0.820822 -1.73017 0
M  V30 10184 H 1005.48 3.42166 -1.90865 0
M  V30 10185 H 1007.18 3.29864 -2.28015 0
M  V30 10186 H 1003.77 2.50763 -3.47585 0
M  V30 10187 H 1007.95 2.25198 -4.42266 0
M  V30 10188 H 1003.21 1.93471 -5.79982 0
M  V30 10189 H 1007.38 1.68898 -6.75608 0
M  V30 10190 H 1005.01 1.52498 -7.44747 0
M  V30 10191 N 1006.59 1.25851 0.948643 0
M  V30 10192 C 1007.52 1.0108 2.04593 0
M  V30 10193 C 1008.5 -0.0619691 1.62482 0
M  V30 10194 O 1009.68 0.0789196 1.88335 0
M  V30 10195 C 1006.81 0.529174 3.34541 0
M  V30 10196 C 1005.85 1.59337 3.95618 0
M  V30 10197 S 1006.69 3.18026 4.30836 0
M  V30 10198 C 1007.84 2.71613 5.63895 0
M  V30 10199 H 1008.08 1.93988 2.2529 0
M  V30 10200 H 1005.61 1.09448 1.08906 0
M  V30 10201 H 1007.57 0.25795 4.09689 0
M  V30 10202 H 1006.23 -0.37951 3.11799 0
M  V30 10203 H 1005.42 1.20722 4.89328 0
M  V30 10204 H 1005.02 1.81559 3.26975 0
M  V30 10205 H 1007.32 2.15612 6.42275 0
M  V30 10206 H 1008.26 3.63986 6.07387 0
M  V30 10207 H 1008.67 2.11417 5.23415 0
M  V30 10208 N 1008.06 -1.15214 1.07534 0
M  V30 10209 C 1008.97 -2.23636 0.708818 0
M  V30 10210 C 1009.99 -1.7172 -0.280759 0
M  V30 10211 O 1011.17 -2.01 -0.126927 0
M  V30 10212 C 1008.23 -3.46512 0.114167 0
M  V30 10213 C 1007.29 -4.13409 1.15722 0
M  V30 10214 C 1006.53 -5.30419 0.59085 0
M  V30 10215 O 1006.75 -5.67314 -0.592512 0
M  V30 10216 O 1005.68 -5.86871 1.33663 0
M  V30 10217 H 1009.51 -2.57322 1.61305 0
M  V30 10218 H 1007.09 -1.22972 0.848422 0
M  V30 10219 H 1008.98 -4.20851 -0.215091 0
M  V30 10220 H 1007.65 -3.1457 -0.763356 0
M  V30 10221 H 1006.56 -3.40984 1.53886 0
M  V30 10222 H 1007.89 -4.49435 2.00671 0
M  V30 10223 N 1009.54 -0.859717 -1.32086 0
M  V30 10224 C 1010.95 -0.519529 -1.79326 0
M  V30 10225 C 1011.3 0.96295 -1.70944 0
M  V30 10226 O 1010.43 1.75139 -1.27104 0
M  V30 10227 C 1011.02 -0.936267 -3.25606 0
M  V30 10228 C 1009.58 -0.647899 -3.70782 0
M  V30 10229 C 1008.73 -1.13323 -2.53087 0
M  V30 10230 H 1011.68 -1.04643 -1.19312 0
M  V30 10231 H 1011.7 -0.254714 -3.79646 0
M  V30 10232 H 1011.21 -2.01527 -3.31675 0
M  V30 10233 H 1009.32 0.420172 -3.70223 0
M  V30 10234 H 1009.43 -1.21774 -4.63366 0
M  V30 10235 H 1007.79 -0.553325 -2.48617 0
M  V30 10236 H 1008.58 -2.21945 -2.61907 0
M  V30 10237 N 1011.02 1.44971 -0.618145 0
M  V30 10238 C 1012.27 2.02458 -0.117656 0
M  V30 10239 C 1012.6 1.48413 1.25248 0
M  V30 10240 O 1011.87 0.662997 1.82851 0
M  V30 10241 C 1012.16 3.59987 -0.0901897 0
M  V30 10242 C 1012.01 4.24343 -1.49175 0
M  V30 10243 C 1013.33 4.36099 0.592121 0
M  V30 10244 H 1010.45 0.735672 -0.0442291 0
M  V30 10245 H 1013.09 1.727 -0.792138 0
M  V30 10246 H 1011.24 3.85471 0.484175 0
M  V30 10247 H 1012.91 4.10009 -2.114 0
M  V30 10248 H 1011.16 3.82337 -2.04941 0
M  V30 10249 H 1011.83 5.33298 -1.42468 0
M  V30 10250 H 1014.3 4.1597 0.103813 0
M  V30 10251 H 1013.18 5.45822 0.580481 0
M  V30 10252 H 1013.44 4.09746 1.66015 0
M  V30 10253 N 1012.5 0.357919 1.53482 0
M  V30 10254 C 1013.43 -0.484231 2.28424 0
M  V30 10255 C 1014.41 -1.09046 1.30548 0
M  V30 10256 O 1015.59 -1.10916 1.59409 0
M  V30 10257 C 1012.72 -1.62803 3.06778 0
M  V30 10258 C 1011.68 -1.14943 4.12277 0
M  V30 10259 C 1011 -2.38287 4.78669 0
M  V30 10260 C 1012.3 -0.239627 5.2175 0
M  V30 10261 H 1014 0.140979 2.99068 0
M  V30 10262 H 1011.54 0.069244 1.43833 0
M  V30 10263 H 1013.5 -2.22374 3.57949 0
M  V30 10264 H 1012.22 -2.28036 2.3381 0
M  V30 10265 H 1010.88 -0.576442 3.6204 0
M  V30 10266 H 1010.53 -3.01959 4.02281 0
M  V30 10267 H 1010.23 -2.06939 5.49955 0
M  V30 10268 H 1011.75 -2.98558 5.32631 0
M  V30 10269 H 1013.17 -0.742597 5.6847 0
M  V30 10270 H 1011.56 -0.0173747 6.00097 0
M  V30 10271 H 1012.63 0.720333 4.7952 0
M  V30 10272 N 1013.98 -1.5736 0.0868897 0
M  V30 10273 C 1015.23 -1.93229 -0.578387 0
M  V30 10274 C 1015.54 -0.970127 -1.69847 0
M  V30 10275 O 1016.74 -1.22222 -2.42434 0
M  V30 10276 C 1015.2 -3.43307 -1.0802 0
M  V30 10277 C 1014.81 -4.47999 0.00968135 0
M  V30 10278 C 1016.55 -3.88151 -1.71868 0
M  V30 10279 C 1014.46 -5.89223 -0.507029 0
M  V30 10280 H 1013.39 -0.721245 -0.219823 0
M  V30 10281 H 1016.04 -1.82787 0.161566 0
M  V30 10282 H 1014.42 -3.48873 -1.87359 0
M  V30 10283 H 1015.6 -4.54067 0.784865 0
M  V30 10284 H 1013.91 -4.12714 0.552845 0
M  V30 10285 H 1016.51 -4.91056 -2.11585 0
M  V30 10286 H 1016.85 -3.26347 -2.58464 0
M  V30 10287 H 1017.38 -3.85252 -0.991259 0
M  V30 10288 H 1014.12 -6.54708 0.322121 0
M  V30 10289 H 1013.64 -5.86643 -1.2494 0
M  V30 10290 H 1015.32 -6.39556 -0.978628 0
M  V30 10291 N 1015.45 0.186762 -1.56489 0
M  V30 10292 C 1016.42 1.21511 -1.94339 0
M  V30 10293 C 1017.42 1.38001 -0.82537 0
M  V30 10294 O 1018.61 1.3567 -1.09266 0
M  V30 10295 C 1015.74 2.583 -2.22472 0
M  V30 10296 H 1016.93 0.891371 -2.86347 0
M  V30 10297 H 1014.49 0.428612 -1.50308 0
M  V30 10298 H 1015.22 2.95715 -1.33129 0
M  V30 10299 H 1015.01 2.47701 -3.03951 0
M  V30 10300 H 1016.5 3.32441 -2.5273 0
M  V30 10301 N 1016.93 1.50896 0.454776 0
M  V30 10302 C 1018.18 1.6294 1.20741 0
M  V30 10303 C 1018.51 0.336339 1.91265 0
M  V30 10304 O 1017.79 -0.663153 1.82846 0
M  V30 10305 C 1018.07 2.82092 2.23822 0
M  V30 10306 C 1017.92 4.21326 1.57495 0
M  V30 10307 C 1019.24 2.96777 3.24979 0
M  V30 10308 H 1016.36 0.59302 0.437603 0
M  V30 10309 H 1019 1.83331 0.498959 0
M  V30 10310 H 1017.15 2.64837 2.84243 0
M  V30 10311 H 1018.82 4.50209 1.00546 0
M  V30 10312 H 1017.07 4.24829 0.877664 0
M  V30 10313 H 1017.74 5.00656 2.32482 0
M  V30 10314 H 1020.21 3.12627 2.74597 0
M  V30 10315 H 1019.09 3.81742 3.94416 0
M  V30 10316 H 1019.35 2.08091 3.90065 0
M  V30 10317 N 1018.41 -0.709066 1.40748 0
M  V30 10318 C 1019.34 -1.83412 1.37451 0
M  V30 10319 C 1020.36 -1.60394 0.27884 0
M  V30 10320 O 1021.54 -1.70147 0.539642 0
M  V30 10321 C 1018.64 -3.19935 1.1178 0
M  V30 10322 C 1017.82 -3.70095 2.33128 0
M  V30 10323 C 1016.88 -4.85249 2.03518 0
M  V30 10324 O 1015.9 -4.97563 2.76442 0
M  V30 10325 N 1017.1 -5.7152 1.01714 0
M  V30 10326 H 1019.87 -1.86736 2.34414 0
M  V30 10327 H 1017.43 -0.890863 1.35186 0
M  V30 10328 H 1019.42 -3.94578 0.899464 0
M  V30 10329 H 1017.99 -3.11718 0.234624 0
M  V30 10330 H 1017.21 -2.8651 2.70751 0
M  V30 10331 H 1018.5 -4.00344 3.1401 0
M  V30 10332 H 1017.9 -5.64188 0.413307 0
M  V30 10333 H 1016.46 -6.46119 0.858696 0
M  V30 10334 N 1019.89 -1.26353 -0.941956 0
M  V30 10335 C 1021.3 -1.10774 -1.50287 0
M  V30 10336 C 1021.65 0.312229 -1.937 0
M  V30 10337 O 1020.78 1.20364 -1.79838 0
M  V30 10338 C 1021.37 -2.00473 -2.73123 0
M  V30 10339 C 1019.93 -1.89042 -3.25485 0
M  V30 10340 C 1019.08 -1.93869 -1.98267 0
M  V30 10341 H 1022.03 -1.39454 -0.757523 0
M  V30 10342 H 1022.05 -1.55216 -3.47402 0
M  V30 10343 H 1021.56 -3.03812 -2.41495 0
M  V30 10344 H 1019.66 -0.886341 -3.61904 0
M  V30 10345 H 1019.78 -2.74533 -3.92643 0
M  V30 10346 H 1018.14 -1.37912 -2.14132 0
M  V30 10347 H 1018.92 -2.98837 -1.68972 0
M  V30 10348 N 1021.37 1.14642 -1.08144 0
M  V30 10349 C 1022.3 2.21775 -0.730609 0
M  V30 10350 C 1023.28 1.67683 0.285702 0
M  V30 10351 O 1024.46 1.93567 0.156667 0
M  V30 10352 C 1021.59 3.47033 -0.136242 0
M  V30 10353 C 1020.55 4.14134 -1.0806 0
M  V30 10354 C 1019.87 5.33563 -0.348585 0
M  V30 10355 C 1021.17 4.62978 -2.41761 0
M  V30 10356 H 1022.87 2.51378 -1.62633 0
M  V30 10357 H 1020.41 1.20825 -0.783411 0
M  V30 10358 H 1022.37 4.21226 0.121182 0
M  V30 10359 H 1021.09 3.16786 0.7946 0
M  V30 10360 H 1019.75 3.41892 -1.32308 0
M  V30 10361 H 1019.4 4.99575 0.585974 0
M  V30 10362 H 1019.1 5.79402 -0.978122 0
M  V30 10363 H 1020.62 6.10519 -0.0991508 0
M  V30 10364 H 1022.04 5.28659 -2.21795 0
M  V30 10365 H 1020.43 5.1951 -3.00383 0
M  V30 10366 H 1021.5 3.78189 -3.03482 0
M  V30 10367 N 1022.85 0.866709 1.31628 0
M  V30 10368 C 1024.09 0.476026 1.96825 0
M  V30 10369 C 1024.42 -0.970994 1.68529 0
M  V30 10370 O 1023.68 -1.69823 0.97255 0
M  V30 10371 C 1023.97 0.676018 3.50948 0
M  V30 10372 C 1023.64 2.09533 3.99258 0
M  V30 10373 C 1022.3 2.48349 4.1216 0
M  V30 10374 C 1024.65 3.02112 4.24709 0
M  V30 10375 C 1021.98 3.78991 4.47864 0
M  V30 10376 C 1024.33 4.32266 4.61875 0
M  V30 10377 C 1023 4.71 4.72985 0
M  V30 10378 H 1022.27 0.17419 0.720235 0
M  V30 10379 H 1024.92 1.09907 1.5682 0
M  V30 10380 H 1023.22 -0.0301867 3.91788 0
M  V30 10381 H 1024.92 0.353604 3.99438 0
M  V30 10382 H 1021.51 1.78396 3.89709 0
M  V30 10383 H 1025.69 2.73351 4.14238 0
M  V30 10384 H 1020.95 4.08769 4.54663 0
M  V30 10385 H 1025.12 5.04055 4.80522 0
M  V30 10386 H 1022.75 5.72273 5.00407 0
M  V30 10387 N 1024.32 -1.44642 0.625825 0
M  V30 10388 C 1025.57 -2.01695 0.127948 0
M  V30 10389 C 1025.89 -1.49439 -1.25271 0
M  V30 10390 O 1025.16 -0.695873 -1.83124 0
M  V30 10391 H 1023.74 -0.745685 0.0443096 0
M  V30 10392 H 1026.4 -1.7721 0.811332 0
M  V30 10393 H 1025.5 -3.11966 0.0915933 0
M  V30 10394 N 1025.8 -0.366053 -1.5329 0
M  V30 10395 C 1027.21 0.113056 -1.86357 0
M  V30 10396 C 1027.56 1.48123 -1.28662 0
M  V30 10397 O 1026.69 2.07658 -0.608849 0
M  V30 10398 C 1027.28 0.211923 -3.38137 0
M  V30 10399 C 1025.84 0.635289 -3.71 0
M  V30 10400 C 1024.99 -0.217203 -2.76448 0
M  V30 10401 H 1027.94 -0.584829 -1.47531 0
M  V30 10402 H 1027.96 1.0354 -3.66142 0
M  V30 10403 H 1027.47 -0.783994 -3.80099 0
M  V30 10404 H 1025.57 1.63942 -3.34595 0
M  V30 10405 H 1025.69 0.409571 -4.77346 0
M  V30 10406 H 1024.05 0.313988 -2.52757 0
M  V30 10407 H 1024.83 -1.21067 -3.21244 0
M  V30 10408 N 1027.28 1.57312 -0.0952337 0
M  V30 10409 C 1028.7 1.57445 0.261416 0
M  V30 10410 C 1028.9 1.10639 1.68408 0
M  V30 10411 O 1027.95 0.782912 2.40056 0
M  V30 10412 C 1029.26 3.00659 0.0497206 0
M  V30 10413 C 1030.81 3.1278 0.117459 0
M  V30 10414 C 1031.29 4.57952 -0.0662441 0
M  V30 10415 N 1032.78 4.63199 -0.0114146 0
M  V30 10416 C 1033.51 5.73255 -0.128799 0
M  V30 10417 N 1033.01 6.92146 -0.301026 0
M  V30 10418 N 1034.8 5.62056 -0.0700599 0
M  V30 10419 H 1026.95 1.86045 -1.02475 0
M  V30 10420 H 1029.22 0.858726 -0.401614 0
M  V30 10421 H 1028.92 3.39102 -0.932888 0
M  V30 10422 H 1028.8 3.68792 0.791975 0
M  V30 10423 H 1031.18 2.74209 1.09057 0
M  V30 10424 H 1031.26 2.47238 -0.656288 0
M  V30 10425 H 1030.91 4.97217 -1.03623 0
M  V30 10426 H 1030.84 5.21555 0.727198 0
M  V30 10427 H 1033.33 3.77712 0.119154 0
M  V30 10428 H 1033.64 7.71855 -0.382104 0
M  V30 10429 H 1031.99 6.94184 -0.336695 0
M  V30 10430 H 1035.18 4.68057 0.0633587 0
M  V30 10431 H 1035.35 6.4779 -0.164991 0
M  V30 10432 N 1028.76 -0.17846 1.56586 0
M  V30 10433 C 1029.72 -1.20479 1.94981 0
M  V30 10434 C 1030.72 -1.37561 0.832677 0
M  V30 10435 O 1031.91 -1.35089 1.09984 0
M  V30 10436 C 1029.04 -2.57117 2.23839 0
M  V30 10437 H 1030.24 -0.876173 2.86816 0
M  V30 10438 H 1027.79 -0.420635 1.50534 0
M  V30 10439 H 1028.52 -2.95005 1.34695 0
M  V30 10440 H 1028.31 -2.46086 3.05261 0
M  V30 10441 H 1029.8 -3.31096 2.5449 0
M  V30 10442 N 1030.24 -1.51135 -0.446768 0
M  V30 10443 C 1031.48 -1.63013 -1.19461 0
M  V30 10444 C 1031.8 -0.344067 -1.91941 0
M  V30 10445 O 1031.07 0.639666 -1.85162 0
M  V30 10446 H 1029.65 -0.600757 -0.443959 0
M  V30 10447 H 1032.32 -1.88024 -0.513137 0
M  V30 10448 H 1031.41 -2.45322 -1.92933 0
M  V30 10449 N 1031.71 0.701592 -1.41122 0
M  V30 10450 C 1032.96 1.45871 -1.39879 0
M  V30 10451 C 1033.28 1.94999 -0.00668769 0
M  V30 10452 O 1032.55 1.71298 0.95047 0
M  V30 10453 H 1031.13 0.541231 -0.514857 0
M  V30 10454 H 1033.79 0.830803 -1.76306 0
M  V30 10455 H 1032.89 2.32479 -2.0823 0
M  V30 10456 N 1033.19 1.2685 0.935242 0
M  V30 10457 C 1034.42 1.15538 1.71635 0
M  V30 10458 C 1034.83 -0.288698 1.8658 0
M  V30 10459 O 1034.19 -1.19721 1.37743 0
M  V30 10460 C 1034.24 1.8259 3.11999 0
M  V30 10461 O 1033.96 3.21355 2.97763 0
M  V30 10462 C 1035.46 1.77307 4.06297 0
M  V30 10463 H 1032.68 0.402055 0.537208 0
M  V30 10464 H 1035.23 1.67582 1.17203 0
M  V30 10465 H 1033.38 1.3447 3.63313 0
M  V30 10466 H 1033.8 3.54626 3.86446 0
M  V30 10467 H 1035.27 2.28851 5.02326 0
M  V30 10468 H 1035.75 0.740823 4.32907 0
M  V30 10469 H 1036.35 2.25007 3.60904 0
M  V30 10470 N 1034.67 -1.14067 1.0875 0
M  V30 10471 C 1035.91 -1.8684 0.828873 0
M  V30 10472 C 1036.27 -1.81235 -0.633879 0
M  V30 10473 O 1037.48 -2.49178 -1.00815 0
M  V30 10474 C 1035.75 -3.31299 1.34073 0
M  V30 10475 S 1037.31 -4.21645 1.21494 0
M  V30 10476 H 1034.12 -0.644622 0.299972 0
M  V30 10477 H 1036.73 -1.37526 1.38949 0
M  V30 10478 H 1035.43 -3.32929 2.39972 0
M  V30 10479 H 1034.96 -3.85672 0.775944 0
M  V30 10480 H 1036.98 -4.95937 0.161446 0
M  V30 10481 N 1036.15 -0.873678 -1.31166 0
M  V30 10482 C 1037.08 -0.348011 -2.30892 0
M  V30 10483 C 1038.06 0.563092 -1.60509 0
M  V30 10484 O 1039.24 0.479332 -1.88192 0
M  V30 10485 C 1036.37 0.448158 -3.44396 0
M  V30 10486 C 1035.33 -0.370179 -4.26396 0
M  V30 10487 C 1034.65 0.551903 -5.31844 0
M  V30 10488 C 1035.95 -1.60624 -4.96988 0
M  V30 10489 H 1037.65 -1.18134 -2.75109 0
M  V30 10490 H 1035.19 -0.569502 -1.3226 0
M  V30 10491 H 1037.15 0.826458 -4.13216 0
M  V30 10492 H 1035.87 1.31503 -2.98956 0
M  V30 10493 H 1034.53 -0.730472 -3.59249 0
M  V30 10494 H 1034.18 1.41616 -4.82653 0
M  V30 10495 H 1033.88 0.00823478 -5.87599 0
M  V30 10496 H 1035.4 0.926965 -6.03523 0
M  V30 10497 H 1036.82 -1.29917 -5.58386 0
M  V30 10498 H 1035.21 -2.08926 -5.62557 0
M  V30 10499 H 1036.28 -2.357 -4.23761 0
M  V30 10500 N 1037.63 1.44308 -0.633487 0
M  V30 10501 C 1038.85 2.06384 -0.146063 0
M  V30 10502 C 1039.27 1.47357 1.18031 0
M  V30 10503 O 1038.63 0.597334 1.72448 0
M  V30 10504 C 1038.68 3.61489 -0.0276722 0
M  V30 10505 O 1038.4 4.18318 -1.3016 0
M  V30 10506 C 1039.9 4.40604 0.488168 0
M  V30 10507 H 1037.12 0.666122 -0.0807632 0
M  V30 10508 H 1039.66 1.85139 -0.868557 0
M  V30 10509 H 1037.82 3.81988 0.645273 0
M  V30 10510 H 1038.23 5.11783 -1.14797 0
M  V30 10511 H 1039.71 5.49545 0.520013 0
M  V30 10512 H 1040.18 4.12218 1.51568 0
M  V30 10513 H 1040.79 4.2503 -0.151608 0
M  V30 10514 N 1039.1 0.374177 1.53094 0
M  V30 10515 C 1040.03 -0.459976 2.28925 0
M  V30 10516 C 1041.02 -1.07656 1.31698 0
M  V30 10517 O 1042.2 -1.09219 1.60577 0
M  V30 10518 C 1039.33 -1.5954 3.08487 0
M  V30 10519 C 1038.28 -1.10563 4.13473 0
M  V30 10520 C 1037.61 -2.33196 4.81169 0
M  V30 10521 C 1038.91 -0.184275 5.21975 0
M  V30 10522 H 1040.6 0.172692 2.98902 0
M  V30 10523 H 1038.15 0.0844956 1.43752 0
M  V30 10524 H 1040.1 -2.18565 3.60288 0
M  V30 10525 H 1038.83 -2.25543 2.36216 0
M  V30 10526 H 1037.49 -0.53801 3.62631 0
M  V30 10527 H 1037.13 -2.97675 4.05461 0
M  V30 10528 H 1036.83 -2.01094 5.52119 0
M  V30 10529 H 1038.36 -2.92892 5.35767 0
M  V30 10530 H 1039.77 -0.682262 5.69226 0
M  V30 10531 H 1038.17 0.0462746 6.00082 0
M  V30 10532 H 1039.24 0.771152 4.78729 0
M  V30 10533 N 1040.58 -1.57259 0.103575 0
M  V30 10534 C 1041.49 -2.18018 -0.866327 0
M  V30 10535 C 1042.51 -1.15198 -1.30404 0
M  V30 10536 O 1043.68 -1.47605 -1.37021 0
M  V30 10537 C 1040.75 -2.75533 -2.10434 0
M  V30 10538 C 1039.81 -3.93337 -1.72002 0
M  V30 10539 C 1039.04 -4.481 -2.89901 0
M  V30 10540 O 1039.27 -4.01784 -4.04877 0
M  V30 10541 O 1038.2 -5.39004 -2.67877 0
M  V30 10542 H 1042.03 -3.01322 -0.379338 0
M  V30 10543 H 1039.61 -1.48907 -0.121228 0
M  V30 10544 H 1041.49 -3.12259 -2.8297 0
M  V30 10545 H 1040.17 -1.9527 -2.58169 0
M  V30 10546 H 1039.08 -3.61408 -0.966193 0
M  V30 10547 H 1040.41 -4.74989 -1.29022 0
M  V30 10548 N 1042.06 0.170153 -1.56679 0
M  V30 10549 C 1043.31 0.884841 -1.817 0
M  V30 10550 C 1043.63 1.82731 -0.680763 0
M  V30 10551 O 1042.9 1.936 0.299294 0
M  V30 10552 H 1041.48 0.329738 -0.670285 0
M  V30 10553 H 1044.14 0.169691 -1.9416 0
M  V30 10554 H 1043.24 1.46104 -2.7579 0
M  V30 10555 N 1043.54 1.5137 0.438746 0
M  V30 10556 C 1044.47 1.68774 1.55074 0
M  V30 10557 C 1045.48 0.568436 1.52554 0
M  V30 10558 O 1046.67 0.842707 1.57355 0
M  V30 10559 C 1043.77 1.68592 2.9399 0
M  V30 10560 C 1042.95 2.97084 3.2103 0
M  V30 10561 C 1042 2.89108 4.39663 0
M  V30 10562 O 1041.03 3.63052 4.38385 0
M  V30 10563 N 1042.23 2.04863 5.4315 0
M  V30 10564 H 1045 2.647 1.40549 0
M  V30 10565 H 1042.56 1.49238 0.627663 0
M  V30 10566 H 1044.55 1.60826 3.71372 0
M  V30 10567 H 1043.12 0.802657 3.02119 0
M  V30 10568 H 1042.34 3.18729 2.3196 0
M  V30 10569 H 1043.63 3.82143 3.35923 0
M  V30 10570 H 1043.03 1.4416 5.47023 0
M  V30 10571 H 1041.58 2.02977 6.1939 0
M  V30 10572 N 1045.02 -0.694098 1.41492 0
M  V30 10573 C 1046.24 -1.48789 1.44488 0
M  V30 10574 C 1046.67 -1.88028 0.0521588 0
M  V30 10575 O 1046.02 -1.54727 -0.944952 0
M  V30 10576 C 1046.07 -2.72586 2.3607 0
M  V30 10577 O 1045.18 -3.70128 1.81876 0
M  V30 10578 H 1044.52 -0.447758 0.490315 0
M  V30 10579 H 1047.05 -0.853036 1.85969 0
M  V30 10580 H 1047.06 -3.20877 2.51995 0
M  V30 10581 H 1045.73 -2.43363 3.37264 0
M  V30 10582 H 1044.31 -3.29069 1.75408 0
M  V30 10583 N 1046.49 -1.27344 -0.928501 0
M  V30 10584 C 1047.42 -1.12517 -2.04602 0
M  V30 10585 C 1048.41 -0.0268563 -1.70079 0
M  V30 10586 O 1049.59 -0.201197 -1.93155 0
M  V30 10587 C 1046.72 -0.770749 -3.3864 0
M  V30 10588 C 1045.67 -1.8222 -3.87272 0
M  V30 10589 C 1045 -1.32178 -5.18105 0
M  V30 10590 C 1046.3 -3.22614 -4.10752 0
M  V30 10591 H 1047.99 -2.06 -2.17265 0
M  V30 10592 H 1045.54 -0.991827 -1.04397 0
M  V30 10593 H 1047.49 -0.653843 -4.16297 0
M  V30 10594 H 1046.22 0.19979 -3.25988 0
M  V30 10595 H 1044.88 -1.928 -3.11807 0
M  V30 10596 H 1044.52 -0.340719 -5.01845 0
M  V30 10597 H 1044.22 -2.02474 -5.51614 0
M  V30 10598 H 1045.75 -1.2178 -5.98333 0
M  V30 10599 H 1047.16 -3.1504 -4.78981 0
M  V30 10600 H 1045.56 -3.90614 -4.55566 0
M  V30 10601 H 1046.63 -3.67727 -3.16077 0
M  V30 10602 N 1047.97 1.13488 -1.09353 0
M  V30 10603 C 1049.2 1.89133 -0.85108 0
M  V30 10604 C 1049.62 1.78542 0.591976 0
M  V30 10605 O 1048.98 1.13243 1.41583 0
M  V30 10606 C 1049.03 3.36736 -1.29001 0
M  V30 10607 O 1048.13 4.09959 -0.447993 0
M  V30 10608 H 1047.47 0.58809 -0.308296 0
M  V30 10609 H 1050 1.43593 -1.45747 0
M  V30 10610 H 1050.01 3.87564 -1.27508 0
M  V30 10611 H 1048.69 3.43762 -2.34095 0
M  V30 10612 H 1047.27 3.69155 -0.52717 0
M  V30 10613 N 1049.45 0.880621 1.30701 0
M  V30 10614 C 1050.7 0.497611 1.966 0
M  V30 10615 C 1051.03 -0.949901 1.69383 0
M  V30 10616 O 1050.31 -1.67054 0.996152 0
M  V30 10617 C 1050.59 0.767919 3.51817 0
M  V30 10618 C 1050.44 2.26574 3.88567 0
M  V30 10619 C 1051.76 0.241502 4.39437 0
M  V30 10620 H 1048.88 0.182267 0.714106 0
M  V30 10621 H 1051.52 1.10382 1.54648 0
M  V30 10622 H 1049.67 0.251967 3.87682 0
M  V30 10623 H 1051.34 2.84977 3.62748 0
M  V30 10624 H 1049.59 2.73411 3.36792 0
M  V30 10625 H 1050.26 2.40549 4.9683 0
M  V30 10626 H 1052.73 0.683051 4.10455 0
M  V30 10627 H 1051.61 0.459997 5.46969 0
M  V30 10628 H 1051.87 -0.857068 4.33713 0
M  V30 10629 N 1050.93 -1.4397 0.641131 0
M  V30 10630 C 1052.18 -2.01548 0.149333 0
M  V30 10631 C 1052.5 -1.50759 -1.23679 0
M  V30 10632 O 1051.77 -0.715257 -1.82376 0
M  V30 10633 H 1050.35 -0.745173 0.0522161 0
M  V30 10634 H 1053.01 -1.7634 0.830082 0
M  V30 10635 H 1052.11 -3.11851 0.124676 0
M  V30 10636 N 1052.41 -0.382291 -1.52893 0
M  V30 10637 C 1053.64 0.202408 -2.05908 0
M  V30 10638 C 1054.05 1.4109 -1.25456 0
M  V30 10639 O 1053.41 1.80027 -0.29942 0
M  V30 10640 C 1053.46 0.579452 -3.56826 0
M  V30 10641 O 1053.18 -0.58102 -4.3423 0
M  V30 10642 C 1054.68 1.22076 -4.2616 0
M  V30 10643 H 1051.9 0.0321859 -0.670228 0
M  V30 10644 H 1054.44 -0.545494 -1.9709 0
M  V30 10645 H 1052.6 1.27726 -3.65739 0
M  V30 10646 H 1053.01 -0.272693 -5.23791 0
M  V30 10647 H 1054.49 1.435 -5.33021 0
M  V30 10648 H 1054.96 2.18605 -3.80931 0
M  V30 10649 H 1055.57 0.563922 -4.21545 0
M  V30 10650 N 1053.89 1.57202 -0.111913 0
M  V30 10651 C 1055.11 1.99723 0.559054 0
M  V30 10652 C 1055.54 0.990968 1.59879 0
M  V30 10653 O 1054.89 -0.038311 1.8126 0
M  V30 10654 C 1054.94 3.41151 1.16826 0
M  V30 10655 O 1054.05 3.43383 2.2839 0
M  V30 10656 H 1053.39 0.649004 0.140319 0
M  V30 10657 H 1055.92 2.03637 -0.198295 0
M  V30 10658 H 1055.93 3.79208 1.50551 0
M  V30 10659 H 1054.6 4.13907 0.406637 0
M  V30 10660 H 1053.18 3.17138 1.96158 0
M  V30 10661 N 1055.36 -0.161842 1.56767 0
M  V30 10662 C 1056.78 -0.51396 1.51098 0
M  V30 10663 C 1056.98 -1.84158 0.817815 0
M  V30 10664 O 1056.04 -2.49592 0.382133 0
M  V30 10665 C 1057.35 -0.537966 2.95849 0
M  V30 10666 C 1058.9 -0.624512 3.06706 0
M  V30 10667 C 1059.37 -0.679322 4.52934 0
M  V30 10668 N 1060.86 -0.741953 4.57219 0
M  V30 10669 C 1061.6 -0.805096 5.6772 0
M  V30 10670 N 1061.09 -0.828492 6.87828 0
M  V30 10671 N 1062.89 -0.844843 5.55715 0
M  V30 10672 H 1055.04 0.708581 2.00232 0
M  V30 10673 H 1057.3 0.25663 0.912603 0
M  V30 10674 H 1057.01 0.369052 3.49758 0
M  V30 10675 H 1056.88 -1.38113 3.51005 0
M  V30 10676 H 1059.27 -1.52195 2.52825 0
M  V30 10677 H 1059.35 0.245515 2.54619 0
M  V30 10678 H 1058.99 0.213901 5.07449 0
M  V30 10679 H 1058.92 -1.56563 5.02788 0
M  V30 10680 H 1061.41 -0.731772 3.70747 0
M  V30 10681 H 1061.73 -0.878109 7.67795 0
M  V30 10682 H 1060.07 -0.796612 6.9042 0
M  V30 10683 H 1063.26 -0.823632 4.60797 0
M  V30 10684 H 1063.44 -0.890588 6.41851 0
M  V30 10685 N 1056.84 -1.516 -0.430713 0
M  V30 10686 C 1057.8 -1.72794 -1.50582 0
M  V30 10687 C 1058.8 -0.597903 -1.49271 0
M  V30 10688 O 1059.99 -0.865535 -1.51176 0
M  V30 10689 C 1057.13 -1.79049 -2.90093 0
M  V30 10690 H 1058.32 -2.68751 -1.33091 0
M  V30 10691 H 1055.87 -1.4169 -0.659822 0
M  V30 10692 H 1056.61 -0.849309 -3.12981 0
M  V30 10693 H 1056.39 -2.61181 -2.92449 0
M  V30 10694 H 1057.88 -1.97262 -3.68072 0
M  V30 10695 N 1058.32 0.686584 -1.41858 0
M  V30 10696 C 1059.57 1.44879 -1.41908 0
M  V30 10697 C 1059.9 1.94175 -0.0311408 0
M  V30 10698 O 1059.17 1.70131 0.942646 0
M  V30 10699 C 1059.46 2.65428 -2.43352 0
M  V30 10700 C 1059.31 2.2184 -3.91289 0
M  V30 10701 C 1060.63 3.67635 -2.41934 0
M  V30 10702 H 1057.75 0.525477 -0.516762 0
M  V30 10703 H 1060.39 0.781263 -1.73194 0
M  V30 10704 H 1058.54 3.2238 -2.16803 0
M  V30 10705 H 1060.21 1.70146 -4.28775 0
M  V30 10706 H 1058.45 1.53531 -4.05722 0
M  V30 10707 H 1059.13 3.08376 -4.5783 0
M  V30 10708 H 1061.6 3.20376 -2.65516 0
M  V30 10709 H 1060.48 4.49579 -3.14913 0
M  V30 10710 H 1060.74 4.17953 -1.44111 0
M  V30 10711 N 1059.8 1.27835 0.921735 0
M  V30 10712 C 1060.73 1.136 2.04003 0
M  V30 10713 C 1061.71 0.0358756 1.70062 0
M  V30 10714 O 1062.89 0.211438 1.93046 0
M  V30 10715 C 1060.02 0.788697 3.38226 0
M  V30 10716 C 1058.98 1.84272 3.863 0
M  V30 10717 C 1058.3 1.34923 5.17397 0
M  V30 10718 C 1059.6 3.24788 4.09035 0
M  V30 10719 H 1061.3 2.07149 2.1617 0
M  V30 10720 H 1058.84 0.997349 1.0387 0
M  V30 10721 H 1060.8 0.675911 4.15944 0
M  V30 10722 H 1059.52 -0.182499 3.2609 0
M  V30 10723 H 1058.18 1.94451 3.1078 0
M  V30 10724 H 1057.83 0.367328 5.01657 0
M  V30 10725 H 1057.53 2.05397 5.50532 0
M  V30 10726 H 1059.05 1.24951 5.97678 0
M  V30 10727 H 1060.47 3.17575 4.77304 0
M  V30 10728 H 1058.86 3.93025 4.53488 0
M  V30 10729 H 1059.93 3.69398 3.14122 0
M  V30 10730 N 1061.28 -1.12907 1.09954 0
M  V30 10731 C 1062.52 -1.84579 0.840155 0
M  V30 10732 C 1062.85 -1.83605 -0.632692 0
M  V30 10733 O 1062.13 -1.27803 -1.46617 0
M  V30 10734 C 1062.41 -3.32489 1.38286 0
M  V30 10735 C 1062.27 -3.41946 2.92221 0
M  V30 10736 C 1063.58 -4.28091 1.0211 0
M  V30 10737 H 1060.7 -0.670169 0.306663 0
M  V30 10738 H 1063.35 -1.3249 1.36185 0
M  V30 10739 H 1061.5 -3.76978 0.939123 0
M  V30 10740 H 1063.17 -3.06128 3.45085 0
M  V30 10741 H 1061.41 -2.8265 3.29077 0
M  V30 10742 H 1062.08 -4.45983 3.25274 0
M  V30 10743 H 1064.56 -3.91701 1.4039 0
M  V30 10744 H 1063.43 -5.30005 1.42781 0
M  V30 10745 H 1063.69 -4.42044 -0.0700753 0
M  V30 10746 N 1062.75 -0.88754 -1.30232 0
M  V30 10747 C 1063.7 -0.345765 -2.30016 0
M  V30 10748 C 1064.7 0.5486 -1.60271 0
M  V30 10749 O 1065.9 0.43275 -1.74721 0
M  V30 10750 H 1062.28 -0.0931623 -0.746207 0
M  V30 10751 H 1064.25 -1.20095 -2.73166 0
M  V30 10752 C 1063 0.422435 -3.45124 0
M  V30 10753 H 1062.32 -0.256516 -3.98976 0
M  V30 10754 H 1063.76 0.766572 -4.17013 0
M  V30 10755 C 1062.22 1.62049 -2.95367 0
M  V30 10756 O 1062.75 2.71985 -2.95613 0
M  V30 10757 N 1060.95 1.45852 -2.51347 0
M  V30 10758 H 1060.5 0.564158 -2.51346 0
M  V30 10759 H 1060.46 2.26148 -2.18413 0
M  V30 10760 N 1064.23 1.43628 -0.648757 0
M  V30 10761 C 1065.48 2.01465 -0.16002 0
M  V30 10762 C 1065.8 1.51413 1.22878 0
M  V30 10763 O 1065.07 0.724919 1.81994 0
M  V30 10764 H 1063.65 0.744885 -0.0561672 0
M  V30 10765 H 1066.31 1.75897 -0.839422 0
M  V30 10766 H 1065.41 3.1178 -0.141213 0
M  V30 10767 N 1065.71 0.390394 1.52688 0
M  V30 10768 C 1066.94 -0.191485 2.06012 0
M  V30 10769 C 1067.35 -1.40422 1.26202 0
M  V30 10770 O 1066.71 -1.79866 0.308963 0
M  V30 10771 C 1066.76 -0.560521 3.57128 0
M  V30 10772 O 1066.48 0.60404 4.33916 0
M  V30 10773 C 1067.98 -1.19814 4.26801 0
M  V30 10774 H 1065.2 -0.0286311 0.670389 0
M  V30 10775 H 1067.75 0.555939 1.96798 0
M  V30 10776 H 1065.9 -1.25784 3.66411 0
M  V30 10777 H 1066.32 0.300467 5.23639 0
M  V30 10778 H 1067.79 -1.40672 5.33775 0
M  V30 10779 H 1068.27 -2.16582 3.82085 0
M  V30 10780 H 1068.87 -0.541558 4.21838 0
M  V30 10781 N 1067.19 -1.57141 0.120249 0
M  V30 10782 C 1068.1 -2.18925 -0.843155 0
M  V30 10783 C 1069.11 -1.16575 -1.29175 0
M  V30 10784 O 1070.29 -1.4905 -1.35448 0
M  V30 10785 C 1067.36 -2.7775 -2.075 0
M  V30 10786 C 1066.42 -3.95139 -1.6782 0
M  V30 10787 C 1065.65 -4.51149 -2.85132 0
M  V30 10788 O 1065.87 -4.06056 -4.00593 0
M  V30 10789 O 1064.81 -5.41815 -2.62145 0
M  V30 10790 H 1068.63 -3.01707 -0.347357 0
M  V30 10791 H 1066.22 -1.49028 -0.105427 0
M  V30 10792 H 1068.1 -3.15243 -2.79643 0
M  V30 10793 H 1066.77 -1.97998 -2.56083 0
M  V30 10794 H 1065.68 -3.62412 -0.927807 0
M  V30 10795 H 1067.01 -4.7633 -1.23977 0
M  V30 10796 N 1068.67 0.153526 -1.5685 0
M  V30 10797 C 1069.91 0.873522 -1.84794 0
M  V30 10798 C 1070.27 1.78642 -0.703648 0
M  V30 10799 O 1071.47 2.54537 -0.863972 0
M  V30 10800 C 1069.74 1.63316 -3.17904 0
M  V30 10801 S 1071.3 2.39948 -3.67383 0
M  V30 10802 H 1068.12 0.292233 -0.648167 0
M  V30 10803 H 1070.72 0.133949 -1.95041 0
M  V30 10804 H 1069.43 0.95387 -3.99161 0
M  V30 10805 H 1068.96 2.41377 -3.10646 0
M  V30 10806 H 1070.97 3.65011 -3.36127 0
M  V30 10807 N 1070.14 1.51827 0.422667 0
M  V30 10808 C 1071.07 1.77152 1.52117 0
M  V30 10809 C 1072.06 0.621895 1.58324 0
M  V30 10810 O 1073.24 0.866118 1.73816 0
M  V30 10811 C 1070.37 1.90991 2.90068 0
M  V30 10812 C 1069.32 3.06516 2.98717 0
M  V30 10813 C 1068.65 3.05559 4.38791 0
M  V30 10814 C 1069.95 4.46223 2.71445 0
M  V30 10815 H 1071.64 2.69135 1.31175 0
M  V30 10816 H 1069.19 1.29507 0.629607 0
M  V30 10817 H 1071.14 2.07291 3.6689 0
M  V30 10818 H 1069.87 0.956688 3.12274 0
M  V30 10819 H 1068.53 2.89945 2.24338 0
M  V30 10820 H 1068.17 2.07985 4.57986 0
M  V30 10821 H 1067.87 3.83144 4.45505 0
M  V30 10822 H 1069.4 3.23971 5.17566 0
M  V30 10823 H 1070.81 4.63069 3.37994 0
M  V30 10824 H 1069.21 5.25623 2.89552 0
M  V30 10825 H 1070.28 4.5525 1.6696 0
M  V30 10826 N 1071.62 -0.679052 1.4222 0
M  V30 10827 C 1072.55 -1.80481 1.48152 0
M  V30 10828 C 1073.53 -1.66698 0.338502 0
M  V30 10829 O 1074.72 -1.86183 0.552228 0
M  V30 10830 C 1071.85 -3.18746 1.37908 0
M  V30 10831 C 1070.8 -3.47258 2.50192 0
M  V30 10832 C 1070.13 -4.85052 2.25008 0
M  V30 10833 C 1071.43 -3.44576 3.92511 0
M  V30 10834 H 1073.12 -1.75774 2.42371 0
M  V30 10835 H 1070.67 -0.844241 1.16656 0
M  V30 10836 H 1072.62 -3.97229 1.40666 0
M  V30 10837 H 1071.35 -3.24119 0.401806 0
M  V30 10838 H 1070 -2.71133 2.46744 0
M  V30 10839 H 1069.65 -4.8707 1.25584 0
M  V30 10840 H 1069.35 -5.05092 3.00259 0
M  V30 10841 H 1070.88 -5.65825 2.29508 0
M  V30 10842 H 1072.29 -4.13036 3.97585 0
M  V30 10843 H 1070.69 -3.76151 4.67579 0
M  V30 10844 H 1071.76 -2.4323 4.19484 0
M  V30 10845 N 1073.1 -1.28322 -0.914942 0
M  V30 10846 C 1074.06 -1.12169 -1.99877 0
M  V30 10847 C 1075.06 -0.0617252 -1.60681 0
M  V30 10848 O 1076.25 -0.307405 -1.71466 0
M  V30 10849 C 1073.39 -0.711959 -3.33383 0
M  V30 10850 H 1074.58 -2.08425 -2.15636 0
M  V30 10851 H 1072.13 -1.11291 -1.09745 0
M  V30 10852 H 1072.87 0.251418 -3.23324 0
M  V30 10853 H 1072.65 -1.47764 -3.63192 0
M  V30 10854 H 1074.14 -0.621558 -4.12948 0
M  V30 10855 N 1074.58 1.12322 -1.10551 0
M  V30 10856 C 1075.99 1.35858 -0.837543 0
M  V30 10857 C 1076.19 1.94062 0.54241 0
M  V30 10858 O 1075.25 2.1676 1.29505 0
M  V30 10859 C 1076.56 2.299 -1.9382 0
M  V30 10860 C 1078.11 2.43488 -1.96679 0
M  V30 10861 C 1078.59 3.40846 -3.05922 0
M  V30 10862 N 1080.08 3.48404 -3.05236 0
M  V30 10863 C 1080.81 4.2365 -3.86405 0
M  V30 10864 N 1080.31 5.01951 -4.77512 0
M  V30 10865 N 1082.1 4.19068 -3.74618 0
M  V30 10866 H 1074.25 0.729002 -1.99498 0
M  V30 10867 H 1076.52 0.38339 -0.867016 0
M  V30 10868 H 1076.22 1.94309 -2.9315 0
M  V30 10869 H 1076.1 3.30033 -1.82641 0
M  V30 10870 H 1078.48 2.78359 -0.979813 0
M  V30 10871 H 1078.56 1.43239 -2.11934 0
M  V30 10872 H 1078.21 3.06704 -4.04839 0
M  V30 10873 H 1078.14 4.40927 -2.87907 0
M  V30 10874 H 1080.63 2.92545 -2.39219 0
M  V30 10875 H 1080.94 5.56707 -5.36002 0
M  V30 10876 H 1079.29 5.01143 -4.8154 0
M  V30 10877 H 1082.48 3.5698 -3.02792 0
M  V30 10878 H 1082.65 4.77455 -4.38111 0
M  V30 10879 N 1076.06 0.894434 1.2976 0
M  V30 10880 C 1077.3 0.518435 1.96061 0
M  V30 10881 C 1077.64 -0.931882 1.70381 0
M  V30 10882 O 1076.91 -1.65988 1.01381 0
M  V30 10883 C 1077.19 0.80519 3.50982 0
M  V30 10884 C 1077.05 2.30683 3.86142 0
M  V30 10885 C 1078.37 0.288096 4.39156 0
M  V30 10886 H 1075.48 0.18983 0.712133 0
M  V30 10887 H 1078.13 1.12016 1.53468 0
M  V30 10888 H 1076.28 0.293071 3.87393 0
M  V30 10889 H 1077.95 2.88808 3.59705 0
M  V30 10890 H 1076.19 2.76968 3.33873 0
M  V30 10891 H 1076.86 2.45805 4.94251 0
M  V30 10892 H 1079.34 0.726547 4.09708 0
M  V30 10893 H 1078.21 0.517985 5.4645 0
M  V30 10894 H 1078.48 -0.811018 4.34597 0
M  V30 10895 N 1077.53 -1.43282 0.656365 0
M  V30 10896 C 1078.76 -2.06641 0.177245 0
M  V30 10897 C 1079.18 -1.48893 -1.14946 0
M  V30 10898 O 1078.54 -0.600099 -1.7108 0
M  V30 10899 C 1078.59 -3.60453 0.10299 0
M  V30 10900 O 1077.69 -4.01687 -0.933895 0
M  V30 10901 H 1077.04 -0.656978 0.096314 0
M  V30 10902 H 1079.57 -1.83733 0.900178 0
M  V30 10903 H 1079.58 -4.07923 -0.079291 0
M  V30 10904 H 1078.25 -4.01861 1.07147 0
M  V30 10905 H 1076.83 -3.65801 -0.724148 0
M  V30 10906 N 1079.01 -0.398486 -1.52479 0
M  V30 10907 C 1079.92 0.439328 -2.3045 0
M  V30 10908 C 1080.94 1.06322 -1.37738 0
M  V30 10909 O 1082.12 1.06704 -1.7081 0
M  V30 10910 C 1079.18 1.54655 -3.10294 0
M  V30 10911 C 1078.24 0.946824 -4.18729 0
M  V30 10912 C 1077.47 2.00129 -4.94757 0
M  V30 10913 O 1077.7 3.2178 -4.70971 0
M  V30 10914 O 1076.63 1.61345 -5.79872 0
M  V30 10915 H 1080.46 -0.196118 -3.03066 0
M  V30 10916 H 1078.04 -0.161961 -1.4852 0
M  V30 10917 H 1079.92 2.18958 -3.60049 0
M  V30 10918 H 1078.6 2.1668 -2.40482 0
M  V30 10919 H 1077.51 0.266802 -3.73147 0
M  V30 10920 H 1078.84 0.370664 -4.90802 0
M  V30 10921 N 1080.49 1.57075 -0.12858 0
M  V30 10922 C 1081.74 1.95134 0.526046 0
M  V30 10923 C 1082.06 1.01337 1.66601 0
M  V30 10924 O 1081.33 0.0714361 1.9577 0
M  V30 10925 H 1079.91 0.720468 0.19732 0
M  V30 10926 H 1082.57 1.93874 -0.199767 0
M  V30 10927 H 1081.67 2.98406 0.914332 0
M  V30 10928 N 1081.97 -0.145205 1.5693 0
M  V30 10929 C 1082.9 -1.20438 1.95006 0
M  V30 10930 C 1083.91 -1.39085 0.846114 0
M  V30 10931 O 1085.1 -1.38625 1.12452 0
M  V30 10932 C 1082.2 -2.56892 2.21043 0
M  V30 10933 C 1081.38 -2.59197 3.52329 0
M  V30 10934 C 1080.44 -3.77204 3.66884 0
M  V30 10935 O 1079.46 -3.61995 4.39259 0
M  V30 10936 N 1080.66 -4.9473 3.03682 0
M  V30 10937 H 1083.43 -0.880709 2.86467 0
M  V30 10938 H 1080.99 -0.334751 1.58401 0
M  V30 10939 H 1082.98 -3.34349 2.2802 0
M  V30 10940 H 1081.55 -2.81544 1.35838 0
M  V30 10941 H 1080.77 -1.67644 3.56776 0
M  V30 10942 H 1082.06 -2.57771 4.3867 0
M  V30 10943 H 1081.46 -5.09989 2.44801 0
M  V30 10944 H 1080.01 -5.69956 3.16218 0
M  V30 10945 N 1083.45 -1.52049 -0.414609 0
M  V30 10946 C 1084.38 -1.77956 -1.51175 0
M  V30 10947 C 1085.36 -0.630282 -1.57992 0
M  V30 10948 O 1086.54 -0.875324 -1.73354 0
M  V30 10949 C 1083.67 -1.92527 -2.89051 0
M  V30 10950 C 1082.63 -3.08096 -2.97087 0
M  V30 10951 C 1081.95 -3.07882 -4.37164 0
M  V30 10952 C 1083.25 -4.47656 -2.69075 0
M  V30 10953 H 1084.95 -2.69827 -1.29746 0
M  V30 10954 H 1082.49 -1.29839 -0.62273 0
M  V30 10955 H 1084.45 -2.09234 -3.65786 0
M  V30 10956 H 1083.17 -0.973235 -3.11762 0
M  V30 10957 H 1081.83 -2.91131 -2.22797 0
M  V30 10958 H 1081.48 -2.10411 -4.56877 0
M  V30 10959 H 1081.18 -3.85501 -4.43467 0
M  V30 10960 H 1082.7 -3.26712 -5.15841 0
M  V30 10961 H 1084.12 -4.64855 -3.35534 0
M  V30 10962 H 1082.51 -5.27151 -2.8676 0
M  V30 10963 H 1083.58 -4.56129 -1.64544 0
M  V30 10964 N 1084.93 0.6715 -1.42579 0
M  V30 10965 C 1085.86 1.79693 -1.49107 0
M  V30 10966 C 1086.84 1.66516 -0.347338 0
M  V30 10967 O 1088.02 1.85887 -0.562094 0
M  V30 10968 C 1085.15 3.1801 -1.39596 0
M  V30 10969 C 1084.11 3.45926 -2.5203 0
M  V30 10970 C 1083.43 4.83852 -2.27577 0
M  V30 10971 C 1084.73 3.4249 -3.94333 0
M  V30 10972 H 1086.43 1.74486 -2.433 0
M  V30 10973 H 1083.97 0.838042 -1.17102 0
M  V30 10974 H 1085.92 3.96478 -1.42771 0
M  V30 10975 H 1084.65 3.23901 -0.418989 0
M  V30 10976 H 1083.31 2.6982 -2.48178 0
M  V30 10977 H 1082.96 4.86398 -1.28165 0
M  V30 10978 H 1082.66 5.03493 -3.02934 0
M  V30 10979 H 1084.18 5.646 -2.32506 0
M  V30 10980 H 1085.59 4.10922 -3.9977 0
M  V30 10981 H 1083.99 3.73666 -4.69568 0
M  V30 10982 H 1085.06 2.41002 -4.20768 0
M  V30 10983 N 1086.4 1.28806 0.908124 0
M  V30 10984 C 1087.64 1.17546 1.67219 0
M  V30 10985 C 1088.01 -0.270396 1.90086 0
M  V30 10986 O 1089.21 -0.505808 2.63998 0
M  V30 10987 C 1087.48 1.95774 2.99011 0
M  V30 10988 S 1089.04 2.00953 3.90081 0
M  V30 10989 H 1085.86 0.419283 0.574215 0
M  V30 10990 H 1088.46 1.6298 1.07971 0
M  V30 10991 H 1087.16 2.99978 2.80074 0
M  V30 10992 H 1086.69 1.50911 3.63303 0
M  V30 10993 H 1088.71 1.1201 4.83392 0
M  V30 10994 N 1087.88 -1.11734 1.11145 0
M  V30 10995 C 1088.84 -2.15868 0.770303 0
M  V30 10996 C 1089.84 -1.59438 -0.208842 0
M  V30 10997 O 1091.03 -1.74193 0.0152516 0
M  V30 10998 C 1088.17 -3.40603 0.142303 0
M  V30 10999 H 1089.36 -2.4756 1.69276 0
M  V30 11000 H 1086.91 -1.26867 0.912929 0
M  V30 11001 H 1087.65 -3.14517 -0.790526 0
M  V30 11002 H 1087.43 -3.8284 0.847087 0
M  V30 11003 H 1088.92 -4.17523 -0.0803608 0
M  V30 11004 N 1089.36 -0.901303 -1.29284 0
M  V30 11005 C 1090.59 -0.543511 -1.99634 0
M  V30 11006 C 1091 0.872154 -1.67448 0
M  V30 11007 O 1090.36 1.57591 -0.920406 0
M  V30 11008 C 1090.41 -0.728148 -3.54091 0
M  V30 11009 O 1090.13 -2.08809 -3.85137 0
M  V30 11010 C 1091.63 -0.375519 -4.41707 0
M  V30 11011 H 1088.85 -0.208405 -0.637815 0
M  V30 11012 H 1091.4 -1.21109 -1.64781 0
M  V30 11013 H 1089.55 -0.107728 -3.8725 0
M  V30 11014 H 1089.97 -2.11863 -4.79807 0
M  V30 11015 H 1091.44 -0.555538 -5.49197 0
M  V30 11016 H 1091.92 0.687532 -4.33785 0
M  V30 11017 H 1092.52 -0.972949 -4.14021 0
M  V30 11018 N 1090.84 1.42931 -0.663954 0
M  V30 11019 C 1092.25 1.84877 -0.260283 0
M  V30 11020 C 1092.6 1.5558 1.19538 0
M  V30 11021 O 1091.72 1.01015 1.91377 0
M  V30 11022 C 1092.32 3.35585 -0.465618 0
M  V30 11023 C 1090.88 3.76221 -0.116169 0
M  V30 11024 C 1090.03 2.66587 -0.763317 0
M  V30 11025 H 1092.98 1.32932 -0.866882 0
M  V30 11026 H 1093 3.79427 0.285608 0
M  V30 11027 H 1092.51 3.56877 -1.52515 0
M  V30 11028 H 1090.61 3.60539 0.940342 0
M  V30 11029 H 1090.72 4.75943 -0.549123 0
M  V30 11030 H 1089.09 2.53948 -0.19559 0
M  V30 11031 H 1089.87 2.90704 -1.82609 0
M  V30 11032 N 1092.32 0.406567 1.52266 0
M  V30 11033 C 1093.73 -0.063607 1.86592 0
M  V30 11034 C 1094.08 -1.4466 1.32544 0
M  V30 11035 O 1093.2 -2.05971 0.663692 0
M  V30 11036 C 1093.8 -0.122198 3.3858 0
M  V30 11037 C 1092.36 -0.536701 3.72554 0
M  V30 11038 C 1091.5 0.290422 2.75775 0
M  V30 11039 H 1094.45 0.623738 1.45929 0
M  V30 11040 H 1094.48 -0.937964 3.68758 0
M  V30 11041 H 1093.99 0.884495 3.77887 0
M  V30 11042 H 1092.09 -1.55013 3.38824 0
M  V30 11043 H 1092.2 -0.282867 4.78264 0
M  V30 11044 H 1090.57 -0.246864 2.53501 0
M  V30 11045 H 1091.35 1.29541 3.17921 0
M  V30 11046 N 1093.79 -1.57004 0.136909 0
M  V30 11047 C 1095.04 -1.9541 -0.51569 0
M  V30 11048 C 1095.36 -1.02219 -1.66061 0
M  V30 11049 O 1094.63 -0.0818172 -1.95729 0
M  V30 11050 H 1093.21 -0.721504 -0.193497 0
M  V30 11051 H 1095.88 -1.93765 0.210046 0
M  V30 11052 H 1094.97 -2.98887 -0.898494 0
M  V30 11053 N 1095.27 0.136881 -1.57004 0
M  V30 11054 C 1096.24 1.15267 -1.98106 0
M  V30 11055 C 1097.24 1.35305 -0.868856 0
M  V30 11056 O 1098.43 1.32126 -1.13527 0
M  V30 11057 C 1095.56 2.51092 -2.30577 0
M  V30 11058 H 1096.75 0.799821 -2.89038 0
M  V30 11059 H 1094.3 0.380576 -1.51596 0
M  V30 11060 H 1095.04 2.9133 -1.42469 0
M  V30 11061 H 1094.82 2.37906 -3.11678 0
M  V30 11062 H 1096.31 3.24232 -2.63179 0
M  V30 11063 N 1096.75 1.52266 0.40654 0
M  V30 11064 C 1097.98 1.70304 1.17491 0
M  V30 11065 C 1098.39 0.413656 1.84213 0
M  V30 11066 O 1097.75 -0.610524 1.71985 0
M  V30 11067 C 1097.8 2.84045 2.23609 0
M  V30 11068 O 1097.52 4.0799 1.5961 0
M  V30 11069 C 1099.02 3.13614 3.13306 0
M  V30 11070 H 1096.24 0.570669 0.352955 0
M  V30 11071 H 1098.79 1.98836 0.477967 0
M  V30 11072 H 1096.94 2.58025 2.88967 0
M  V30 11073 H 1097.36 4.7139 2.29983 0
M  V30 11074 H 1098.83 3.96707 3.83833 0
M  V30 11075 H 1099.31 2.27272 3.75824 0
M  V30 11076 H 1099.91 3.41409 2.53614 0
M  V30 11077 N 1098.23 -0.663929 1.42933 0
M  V30 11078 C 1099.47 -1.42603 1.44195 0
M  V30 11079 C 1099.81 -1.94101 0.0620284 0
M  V30 11080 O 1099.08 -1.71609 -0.91546 0
M  V30 11081 C 1099.37 -2.61522 2.47544 0
M  V30 11082 C 1099.22 -2.15587 3.94769 0
M  V30 11083 C 1100.54 -3.6374 2.47753 0
M  V30 11084 H 1097.66 -0.517189 0.525056 0
M  V30 11085 H 1100.3 -0.75361 1.74415 0
M  V30 11086 H 1098.45 -3.1889 2.21904 0
M  V30 11087 H 1100.12 -1.63303 4.31428 0
M  V30 11088 H 1098.36 -1.47057 4.08114 0
M  V30 11089 H 1099.03 -3.01053 4.62678 0
M  V30 11090 H 1101.51 -3.16111 2.70579 0
M  V30 11091 H 1100.39 -4.44512 3.22025 0
M  V30 11092 H 1100.65 -4.15607 1.50742 0
M  V30 11093 N 1099.71 -1.29285 -0.901281 0
M  V30 11094 C 1100.67 -1.14283 -1.98676 0
M  V30 11095 C 1101.67 -0.0787641 -1.60607 0
M  V30 11096 O 1102.86 -0.325574 -1.71131 0
M  V30 11097 C 1099.99 -0.747279 -3.32609 0
M  V30 11098 H 1101.18 -2.10701 -2.13413 0
M  V30 11099 H 1098.74 -1.12449 -1.08558 0
M  V30 11100 H 1099.47 0.217111 -3.23572 0
M  V30 11101 H 1099.26 -1.51608 -3.61604 0
M  V30 11102 H 1100.75 -0.665322 -4.12266 0
M  V30 11103 N 1101.18 1.11143 -1.11736 0
M  V30 11104 C 1102.41 1.87285 -0.891007 0
M  V30 11105 C 1102.83 1.79758 0.553971 0
M  V30 11106 O 1102.19 1.16221 1.39149 0
M  V30 11107 C 1102.24 3.33924 -1.36114 0
M  V30 11108 O 1101.34 4.08917 -0.534851 0
M  V30 11109 H 1100.69 0.581418 -0.320701 0
M  V30 11110 H 1103.22 1.40469 -1.4876 0
M  V30 11111 H 1103.23 3.84772 -1.35701 0
M  V30 11112 H 1101.9 3.38719 -2.41334 0
M  V30 11113 H 1100.48 3.67954 -0.605355 0
M  V30 11114 N 1102.66 0.908147 1.28804 0
M  V30 11115 C 1103.91 0.539201 1.95501 0
M  V30 11116 C 1104.24 -0.913759 1.7136 0
M  V30 11117 O 1103.52 -1.64904 1.03136 0
M  V30 11118 C 1103.8 0.842372 3.50109 0
M  V30 11119 C 1103.65 2.34765 3.83673 0
M  V30 11120 C 1104.97 0.334658 4.38826 0
M  V30 11121 H 1102.09 0.197373 0.71008 0
M  V30 11122 H 1104.73 1.13637 1.52272 0
M  V30 11123 H 1102.88 0.334143 3.8706 0
M  V30 11124 H 1104.55 2.92607 3.56621 0
M  V30 11125 H 1102.8 2.80494 3.30916 0
M  V30 11126 H 1103.47 2.51034 4.91616 0
M  V30 11127 H 1105.94 0.769961 4.08914 0
M  V30 11128 H 1104.82 0.575914 5.4587 0
M  V30 11129 H 1105.08 -0.764878 4.35433 0
M  V30 11130 N 1104.14 -1.42577 0.671525 0
M  V30 11131 C 1105.55 -1.84736 0.270084 0
M  V30 11132 C 1105.9 -1.56212 -1.18711 0
M  V30 11133 O 1105.03 -1.02028 -1.90838 0
M  V30 11134 C 1105.62 -3.35334 0.483409 0
M  V30 11135 C 1104.18 -3.76154 0.136119 0
M  V30 11136 C 1103.33 -2.66179 0.777444 0
M  V30 11137 H 1106.28 -1.3247 0.873919 0
M  V30 11138 H 1106.3 -3.79573 -0.265483 0
M  V30 11139 H 1105.81 -3.56063 1.54405 0
M  V30 11140 H 1103.91 -3.61033 -0.921209 0
M  V30 11141 H 1104.03 -4.75645 0.574356 0
M  V30 11142 H 1102.39 -2.53841 0.209055 0
M  V30 11143 H 1103.17 -2.89732 1.84148 0
M  V30 11144 N 1105.62 -0.414636 -1.52048 0
M  V30 11145 C 1106.55 0.399119 -2.30064 0
M  V30 11146 C 1107.53 1.04126 -1.34506 0
M  V30 11147 O 1108.71 1.04923 -1.63416 0
M  V30 11148 C 1105.84 1.51305 -3.12608 0
M  V30 11149 C 1104.8 0.995621 -4.16259 0
M  V30 11150 C 1104.12 2.20357 -4.87183 0
M  V30 11151 C 1105.42 0.0458178 -5.2228 0
M  V30 11152 H 1107.12 -0.251879 -2.98339 0
M  V30 11153 H 1104.66 -0.122579 -1.43477 0
M  V30 11154 H 1106.62 2.08936 -3.65956 0
M  V30 11155 H 1105.34 2.19201 -2.42113 0
M  V30 11156 H 1104 0.441676 -3.6393 0
M  V30 11157 H 1103.65 2.8682 -4.13211 0
M  V30 11158 H 1103.35 1.86385 -5.57256 0
M  V30 11159 H 1104.87 2.78584 -5.43345 0
M  V30 11160 H 1106.29 0.531102 -5.70835 0
M  V30 11161 H 1104.68 -0.20536 -5.99749 0
M  V30 11162 H 1105.75 -0.897807 -4.76516 0
M  V30 11163 N 1107.1 1.56929 -0.145233 0
M  V30 11164 C 1108.32 2.00864 0.516564 0
M  V30 11165 C 1108.75 1.02466 1.57741 0
M  V30 11166 O 1108.1 0.000145439 1.813 0
M  V30 11167 C 1108.15 3.43552 1.09563 0
M  V30 11168 O 1107.26 3.4815 2.21055 0
M  V30 11169 H 1106.6 0.651835 0.126521 0
M  V30 11170 H 1109.13 2.0317 -0.241445 0
M  V30 11171 H 1109.14 3.82316 1.42473 0
M  V30 11172 H 1107.81 4.14677 0.318749 0
M  V30 11173 H 1106.39 3.21228 1.89387 0
M  V30 11174 N 1108.58 -0.128553 1.57075 0
M  V30 11175 C 1109.51 -1.15953 2.02675 0
M  V30 11176 C 1110.49 -1.43743 0.909501 0
M  V30 11177 O 1111.67 -1.54348 1.17857 0
M  V30 11178 C 1108.8 -2.48813 2.423 0
M  V30 11179 C 1107.76 -2.35506 3.57381 0
M  V30 11180 C 1107.08 -3.73243 3.82875 0
M  V30 11181 C 1108.38 -1.82359 4.89431 0
M  V30 11182 H 1110.08 -0.780283 2.89054 0
M  V30 11183 H 1107.62 -0.373896 1.39061 0
M  V30 11184 H 1109.57 -3.21179 2.72804 0
M  V30 11185 H 1108.3 -2.88609 1.52881 0
M  V30 11186 H 1106.96 -1.6559 3.27071 0
M  V30 11187 H 1106.61 -4.10507 2.90677 0
M  V30 11188 H 1106.31 -3.65195 4.60333 0
M  V30 11189 H 1107.83 -4.47128 4.15823 0
M  V30 11190 H 1109.24 -2.44533 5.18533 0
M  V30 11191 H 1107.64 -1.85156 5.70822 0
M  V30 11192 H 1108.71 -0.780478 4.78578 0
M  V30 11193 N 1110.05 -1.5248 -0.398459 0
M  V30 11194 C 1110.99 -1.72826 -1.50545 0
M  V30 11195 C 1112 -0.608683 -1.50993 0
M  V30 11196 O 1113.19 -0.88413 -1.55066 0
M  V30 11197 C 1110.29 -1.76327 -2.89417 0
M  V30 11198 C 1109.46 -3.05491 -3.1304 0
M  V30 11199 C 1108.52 -3.00663 -4.31843 0
M  V30 11200 O 1107.55 -3.74548 -4.28605 0
M  V30 11201 N 1108.75 -2.19191 -5.37527 0
M  V30 11202 H 1111.51 -2.68333 -1.33482 0
M  V30 11203 H 1109.07 -1.5085 -0.587875 0
M  V30 11204 H 1111.07 -1.70616 -3.66977 0
M  V30 11205 H 1109.64 -0.882476 -2.99885 0
M  V30 11206 H 1108.86 -3.24767 -2.23428 0
M  V30 11207 H 1110.14 -3.90915 -3.25673 0
M  V30 11208 H 1109.54 -1.58613 -5.43009 0
M  V30 11209 H 1108.1 -2.19328 -6.1379 0
M  V30 11210 N 1111.53 0.65634 -1.43283 0
M  V30 11211 C 1112.78 1.41837 -1.44949 0
M  V30 11212 C 1113.11 1.94065 -0.0723212 0
M  V30 11213 O 1112.39 1.72092 0.906346 0
M  V30 11214 C 1112.67 2.60206 -2.48927 0
M  V30 11215 C 1112.52 2.1349 -3.95907 0
M  V30 11216 C 1113.84 3.62421 -2.49678 0
M  V30 11217 H 1110.96 0.514398 -0.527792 0
M  V30 11218 H 1113.6 0.74435 -1.74813 0
M  V30 11219 H 1111.75 3.17708 -2.23592 0
M  V30 11220 H 1113.42 1.61012 -4.32288 0
M  V30 11221 H 1111.67 1.4489 -4.08888 0
M  V30 11222 H 1112.34 2.98596 -4.64268 0
M  V30 11223 H 1114.81 3.14671 -2.72252 0
M  V30 11224 H 1113.69 4.42798 -3.24378 0
M  V30 11225 H 1113.95 4.14802 -1.52944 0
M  V30 11226 N 1113.01 1.29761 0.894412 0
M  V30 11227 C 1114.26 1.17806 1.64214 0
M  V30 11228 C 1114.58 -0.269588 1.93127 0
M  V30 11229 O 1113.85 -1.18352 1.56107 0
M  V30 11230 H 1112.43 0.433002 0.608702 0
M  V30 11231 H 1115.09 1.6276 1.07216 0
M  V30 11232 H 1114.19 1.73201 2.5963 0
M  V30 11233 N 1114.49 -1.10549 1.12324 0
M  V30 11234 C 1115.74 -1.82124 0.876083 0
M  V30 11235 C 1116.06 -1.85547 -0.599761 0
M  V30 11236 O 1115.33 -1.33269 -1.43584 0
M  V30 11237 H 1113.91 -0.674455 0.321122 0
M  V30 11238 H 1116.57 -1.33766 1.41748 0
M  V30 11239 H 1115.66 -2.85688 1.25653 0
M  V30 11240 N 1115.97 -0.914965 -1.28321 0
M  V30 11241 C 1116.93 -0.409024 -2.25521 0
M  V30 11242 C 1117.93 0.465327 -1.5392 0
M  V30 11243 O 1119.12 0.26821 -1.72123 0
M  V30 11244 C 1116.25 0.413452 -3.38383 0
M  V30 11245 H 1117.44 -1.26767 -2.71791 0
M  V30 11246 H 1115 -0.694477 -1.40024 0
M  V30 11247 H 1115.73 1.29145 -2.97476 0
M  V30 11248 H 1115.52 -0.213268 -3.9152 0
M  V30 11249 H 1117.01 0.758232 -4.10659 0
M  V30 11250 N 1117.44 1.42219 -0.679077 0
M  V30 11251 C 1118.38 2.29172 0.035583 0
M  V30 11252 C 1119.39 1.43909 0.761183 0
M  V30 11253 O 1120.58 1.67584 0.61463 0
M  V30 11254 C 1117.68 3.21426 1.07419 0
M  V30 11255 C 1116.85 4.35364 0.421547 0
M  V30 11256 C 1115.91 5.08307 1.36051 0
M  V30 11257 O 1114.94 5.62678 0.859186 0
M  V30 11258 N 1116.14 5.14222 2.69362 0
M  V30 11259 H 1118.9 2.91147 -0.710865 0
M  V30 11260 H 1116.46 1.53192 -0.523821 0
M  V30 11261 H 1118.46 3.67091 1.70371 0
M  V30 11262 H 1117.03 2.60873 1.72233 0
M  V30 11263 H 1116.25 3.9229 -0.387559 0
M  V30 11264 H 1117.53 5.08789 -0.0329421 0
M  V30 11265 H 1116.93 4.71467 3.12627 0
M  V30 11266 H 1115.49 5.63519 3.27551 0
M  V30 11267 N 1118.92 0.422693 1.51826 0
M  V30 11268 C 1120.17 -0.148861 2.02253 0
M  V30 11269 C 1120.5 -1.43629 1.30707 0
M  V30 11270 O 1119.78 -1.89967 0.417482 0
M  V30 11271 C 1120.06 -0.382672 3.58061 0
M  V30 11272 C 1119.91 0.922386 4.40241 0
M  V30 11273 C 1121.23 -1.1589 4.24567 0
M  V30 11274 H 1118.35 -0.0526279 0.735119 0
M  V30 11275 H 1120.99 0.558821 1.81596 0
M  V30 11276 H 1119.14 -0.985495 3.75793 0
M  V30 11277 H 1120.81 1.55806 4.34191 0
M  V30 11278 H 1119.06 1.53032 4.05911 0
M  V30 11279 H 1119.73 0.713012 5.47376 0
M  V30 11280 H 1122.2 -0.648415 4.11017 0
M  V30 11281 H 1121.08 -1.29125 5.33496 0
M  V30 11282 H 1121.34 -2.18315 3.84436 0
M  V30 11283 N 1120.4 -1.5685 0.153553 0
M  V30 11284 C 1121.81 -1.83074 -0.36618 0
M  V30 11285 C 1122.16 -1.07257 -1.64288 0
M  V30 11286 O 1121.29 -0.319925 -2.14022 0
M  V30 11287 C 1121.88 -3.32086 -0.671142 0
M  V30 11288 C 1120.44 -3.58868 -1.13537 0
M  V30 11289 C 1119.59 -2.76827 -0.161887 0
M  V30 11290 H 1122.54 -1.54129 0.378139 0
M  V30 11291 H 1122.56 -3.48598 -1.52512 0
M  V30 11292 H 1122.07 -3.8724 0.258234 0
M  V30 11293 H 1120.17 -3.09107 -2.08047 0
M  V30 11294 H 1120.29 -4.67299 -1.05682 0
M  V30 11295 H 1118.65 -2.46112 -0.6558 0
M  V30 11296 H 1119.43 -3.34755 0.761195 0
M  V30 11297 N 1121.88 0.120221 -1.57141 0
M  V30 11298 C 1123.13 0.826586 -1.84423 0
M  V30 11299 C 1123.45 1.80473 -0.738553 0
M  V30 11300 O 1122.72 1.94454 0.23755 0
M  V30 11301 H 1121.3 0.308246 -0.680436 0
M  V30 11302 H 1123.96 0.107835 -1.94601 0
M  V30 11303 H 1123.05 1.37256 -2.80298 0
M  V30 11304 N 1123.36 1.52689 0.390367 0
M  V30 11305 C 1124.58 1.71839 1.16129 0
M  V30 11306 C 1125.01 0.435226 1.82996 0
M  V30 11307 O 1124.36 -0.60889 1.70769 0
M  V30 11308 C 1124.41 2.86784 2.18603 0
M  V30 11309 O 1123.52 2.53662 3.25161 0
M  V30 11310 H 1122.86 0.571455 0.338135 0
M  V30 11311 H 1125.39 1.99475 0.45508 0
M  V30 11312 H 1125.4 3.12239 2.62622 0
M  V30 11313 H 1124.07 3.79872 1.69322 0
M  V30 11314 H 1122.65 2.38942 2.86289 0
M  V30 11315 N 1124.83 -0.648732 1.43629 0
M  V30 11316 C 1126.08 -1.40898 1.46695 0
M  V30 11317 C 1126.44 -1.92183 0.0914565 0
M  V30 11318 O 1125.73 -1.69642 -0.890623 0
M  V30 11319 C 1125.92 -2.60394 2.44806 0
M  V30 11320 C 1125.75 -2.20805 3.91759 0
M  V30 11321 C 1124.52 -2.08918 4.60088 0
M  V30 11322 C 1126.72 -1.80811 4.81469 0
M  V30 11323 N 1124.7 -1.62707 5.91946 0
M  V30 11324 C 1126.07 -1.45715 6.02633 0
M  V30 11325 C 1128.13 -1.68034 4.68689 0
M  V30 11326 C 1126.83 -0.991224 7.12438 0
M  V30 11327 C 1128.86 -1.22846 5.78501 0
M  V30 11328 C 1128.22 -0.886902 6.98794 0
M  V30 11329 H 1124.32 -0.511063 0.591894 0
M  V30 11330 H 1126.9 -0.746064 1.79839 0
M  V30 11331 H 1125.07 -3.24338 2.13681 0
M  V30 11332 H 1126.8 -3.27115 2.38281 0
M  V30 11333 H 1123.56 -2.28818 4.14656 0
M  V30 11334 H 1123.98 -1.41951 6.61951 0
M  V30 11335 H 1128.63 -1.93078 3.76139 0
M  V30 11336 H 1126.34 -0.728271 8.04812 0
M  V30 11337 H 1129.93 -1.13443 5.70633 0
M  V30 11338 H 1128.81 -0.542577 7.82321 0
M  V30 11339 N 1126.31 -1.30234 -0.887518 0
M  V30 11340 C 1127.54 -1.21829 -1.67229 0
M  V30 11341 C 1127.96 0.219251 -1.87523 0
M  V30 11342 O 1127.31 1.14526 -1.42091 0
M  V30 11343 C 1127.36 -1.94044 -3.05007 0
M  V30 11344 O 1127.08 -3.32185 -2.85631 0
M  V30 11345 C 1128.59 -1.92265 -3.99436 0
M  V30 11346 H 1125.81 -0.421716 -0.521916 0
M  V30 11347 H 1128.35 -1.71816 -1.10903 0
M  V30 11348 H 1126.5 -1.47861 -3.58072 0
M  V30 11349 H 1126.92 -3.68724 -3.73018 0
M  V30 11350 H 1128.39 -2.47336 -4.93486 0
M  V30 11351 H 1128.87 -0.900984 -4.29859 0
M  V30 11352 H 1129.48 -2.38247 -3.52305 0
M  V30 11353 N 1127.79 1.09952 -1.12909 0
M  V30 11354 C 1129.04 1.82016 -0.887482 0
M  V30 11355 C 1129.37 1.85445 0.586546 0
M  V30 11356 O 1128.62 1.31446 1.44984 0
M  V30 11357 C 1128.92 3.28252 -1.41369 0
M  V30 11358 C 1128.59 3.44965 -2.90362 0
M  V30 11359 C 1127.25 3.49233 -3.31043 0
M  V30 11360 C 1129.6 3.49947 -3.86247 0
M  V30 11361 C 1126.93 3.56057 -4.66305 0
M  V30 11362 C 1129.28 3.58305 -5.21345 0
M  V30 11363 C 1127.94 3.6084 -5.61561 0
M  V30 11364 H 1127.21 0.666046 -0.324753 0
M  V30 11365 H 1129.86 1.29568 -1.41012 0
M  V30 11366 H 1128.17 3.83301 -0.81163 0
M  V30 11367 H 1129.86 3.82533 -1.20289 0
M  V30 11368 H 1126.45 3.42323 -2.57901 0
M  V30 11369 H 1130.64 3.45895 -3.55908 0
M  V30 11370 H 1125.89 3.56305 -4.96847 0
M  V30 11371 H 1130.07 3.61104 -5.95463 0
M  V30 11372 H 1127.69 3.6588 -6.6636 0
M  V30 11373 N 1129.27 0.921757 1.27833 0
M  V30 11374 C 1130.2 0.373575 2.26135 0
M  V30 11375 C 1131.21 -0.492414 1.55174 0
M  V30 11376 O 1132.4 -0.305998 1.75858 0
M  V30 11377 C 1129.5 -0.483911 3.35427 0
M  V30 11378 C 1128.68 0.361411 4.35904 0
M  V30 11379 C 1127.73 -0.432461 5.2442 0
M  V30 11380 O 1126.76 0.15777 5.68981 0
M  V30 11381 N 1127.96 -1.73367 5.54007 0
M  V30 11382 H 1130.73 1.21856 2.73809 0
M  V30 11383 H 1128.29 0.788552 1.41398 0
M  V30 11384 H 1130.28 -1.02193 3.91585 0
M  V30 11385 H 1128.85 -1.22963 2.874 0
M  V30 11386 H 1128.07 1.08076 3.79095 0
M  V30 11387 H 1129.36 0.939528 5.0005 0
M  V30 11388 H 1128.76 -2.23561 5.19651 0
M  V30 11389 H 1127.31 -2.21834 6.12889 0
M  V30 11390 N 1130.75 -1.41857 0.686609 0
M  V30 11391 C 1131.98 -2.05401 0.222238 0
M  V30 11392 C 1132.38 -1.51731 -1.13023 0
M  V30 11393 O 1131.73 -0.656701 -1.71561 0
M  V30 11394 C 1131.79 -3.59381 0.0926608 0
M  V30 11395 C 1131.45 -4.35801 1.37573 0
M  V30 11396 C 1132.45 -4.65678 2.31171 0
M  V30 11397 C 1130.14 -4.75233 1.62661 0
M  V30 11398 C 1132.13 -5.33936 3.48125 0
M  V30 11399 C 1129.82 -5.43229 2.79902 0
M  V30 11400 C 1130.81 -5.72507 3.72458 0
M  V30 11401 O 1130.5 -6.39106 4.87646 0
M  V30 11402 H 1130.23 -0.668126 0.102876 0
M  V30 11403 H 1132.79 -1.82775 0.93714 0
M  V30 11404 H 1131.02 -3.80711 -0.67793 0
M  V30 11405 H 1132.71 -4.04529 -0.333364 0
M  V30 11406 H 1133.47 -4.35704 2.13042 0
M  V30 11407 H 1129.35 -4.51831 0.914862 0
M  V30 11408 H 1132.9 -5.56706 4.20386 0
M  V30 11409 H 1128.79 -5.72621 2.97951 0
M  V30 11410 H 1129.56 -6.576 4.87344 0
M  V30 11411 N 1132.22 -0.430739 -1.51599 0
M  V30 11412 C 1133.64 -0.0826902 -1.59386 0
M  V30 11413 C 1133.84 1.40729 -1.44214 0
M  V30 11414 O 1132.9 2.1765 -1.28002 0
M  V30 11415 C 1134.21 -0.59691 -2.94716 0
M  V30 11416 C 1135.76 -0.556772 -3.08008 0
M  V30 11417 C 1136.23 -1.04786 -4.45852 0
M  V30 11418 N 1137.72 -1.00557 -4.52153 0
M  V30 11419 C 1138.46 -1.35649 -5.57124 0
M  V30 11420 N 1137.95 -1.77994 -6.69545 0
M  V30 11421 N 1139.75 -1.27508 -5.47447 0
M  V30 11422 H 1131.9 -1.40027 -1.59707 0
M  V30 11423 H 1134.16 -0.576606 -0.752482 0
M  V30 11424 H 1133.87 -1.63914 -3.11167 0
M  V30 11425 H 1133.74 -0.0182342 -3.77196 0
M  V30 11426 H 1136.13 0.476457 -2.91228 0
M  V30 11427 H 1136.21 -1.17177 -2.27383 0
M  V30 11428 H 1135.85 -2.07952 -4.63377 0
M  V30 11429 H 1135.78 -0.409461 -5.25006 0
M  V30 11430 H 1138.27 -0.694518 -3.71463 0
M  V30 11431 H 1138.59 -2.03026 -7.45654 0
M  V30 11432 H 1136.93 -1.81916 -6.70769 0
M  V30 11433 H 1140.12 -0.942969 -4.58504 0
M  V30 11434 H 1140.3 -1.55185 -6.29143 0
M  V30 11435 N 1133.7 1.56767 -0.161869 0
M  V30 11436 C 1134.61 2.21083 0.784814 0
M  V30 11437 C 1135.63 1.19959 1.26039 0
M  V30 11438 O 1136.8 1.52588 1.31449 0
M  V30 11439 C 1133.87 2.83153 2.00063 0
M  V30 11440 C 1132.93 3.9945 1.57285 0
M  V30 11441 C 1132.16 4.5855 2.7307 0
M  V30 11442 O 1132.39 4.16534 3.89686 0
M  V30 11443 O 1131.32 5.48575 2.47688 0
M  V30 11444 H 1135.15 3.02522 0.267243 0
M  V30 11445 H 1132.73 1.49255 0.0658783 0
M  V30 11446 H 1134.61 3.22546 2.71186 0
M  V30 11447 H 1133.29 2.04718 2.50744 0
M  V30 11448 H 1132.2 3.64745 0.831393 0
M  V30 11449 H 1133.53 4.7945 1.11304 0
M  V30 11450 N 1135.18 -0.111886 1.57202 0
M  V30 11451 C 1136.46 -0.849125 1.76208 0
M  V30 11452 C 1136.84 -1.97735 0.73919 0
M  V30 11453 O 1136.19 -2.27283 -0.235523 0
M  V30 11454 C 1136.4 -1.35924 3.21443 0
M  V30 11455 C 1137.74 -1.80874 3.84148 0
M  V30 11456 O 1138.77 -1.45587 3.25089 0
M  V30 11457 O 1137.63 -2.46065 4.87969 0
M  V30 11458 H 1134.72 -0.403761 0.721738 0
M  V30 11459 H 1137.27 -0.0950726 1.69433 0
M  V30 11460 H 1136.04 -0.550113 3.87414 0
M  V30 11461 H 1135.66 -2.17579 3.32784 0
M  V30 11462 N 1136.66 -1.52894 -0.382264 0
M  V30 11463 C 1138.07 -1.60135 -0.959887 0
M  V30 11464 C 1138.42 -0.458363 -1.90771 0
M  V30 11465 O 1137.55 0.417614 -2.12332 0
M  V30 11466 C 1138.14 -2.90243 -1.74769 0
M  V30 11467 C 1136.7 -2.99874 -2.27491 0
M  V30 11468 C 1135.85 -2.55302 -1.0824 0
M  V30 11469 H 1138.8 -1.57875 -0.161589 0
M  V30 11470 H 1138.82 -2.77108 -2.60751 0
M  V30 11471 H 1138.33 -3.73412 -1.0576 0
M  V30 11472 H 1136.43 -2.21258 -2.99793 0
M  V30 11473 H 1136.54 -4.04643 -2.56516 0
M  V30 11474 H 1134.91 -2.09781 -1.44444 0
M  V30 11475 H 1135.69 -3.40872 -0.407553 0
M  V30 11476 N 1138.14 0.641106 -1.43971 0
M  V30 11477 C 1139.38 1.40291 -1.46445 0
M  V30 11478 C 1139.72 1.93978 -0.0929004 0
M  V30 11479 O 1138.99 1.73043 0.888043 0
M  V30 11480 C 1139.27 2.57551 -2.51673 0
M  V30 11481 C 1139.13 2.09279 -3.98149 0
M  V30 11482 C 1140.45 3.59752 -2.53508 0
M  V30 11483 H 1137.57 0.508771 -0.533218 0
M  V30 11484 H 1140.21 0.725767 -1.75592 0
M  V30 11485 H 1138.36 3.15319 -2.2695 0
M  V30 11486 H 1140.03 1.56418 -4.33971 0
M  V30 11487 H 1138.27 1.40545 -4.10402 0
M  V30 11488 H 1138.94 2.93655 -4.67409 0
M  V30 11489 H 1141.42 3.11766 -2.75574 0
M  V30 11490 H 1140.3 4.39332 -3.29057 0
M  V30 11491 H 1140.56 4.13156 -1.57335 0
M  V30 11492 N 1139.62 1.30703 0.880598 0
M  V30 11493 C 1140.86 1.19955 1.63519 0
M  V30 11494 C 1141.19 -0.244214 1.92658 0
M  V30 11495 O 1140.47 -1.17412 1.55063 0
M  V30 11496 C 1140.75 2.03302 2.97221 0
M  V30 11497 C 1140.61 3.55921 2.75028 0
M  V30 11498 C 1141.92 1.87421 3.98198 0
M  V30 11499 H 1139.04 0.43712 0.593376 0
M  V30 11500 H 1141.69 1.60382 1.01871 0
M  V30 11501 H 1139.84 1.68953 3.49839 0
M  V30 11502 H 1141.51 4.00352 2.29164 0
M  V30 11503 H 1139.75 3.79885 2.09452 0
M  V30 11504 H 1140.42 4.09533 3.70117 0
M  V30 11505 H 1142.9 2.17459 3.54755 0
M  V30 11506 H 1141.77 2.48057 4.89652 0
M  V30 11507 H 1142.03 0.834563 4.34151 0
M  V30 11508 N 1141.09 -1.09351 1.1349 0
M  V30 11509 C 1142.02 -2.18037 0.835588 0
M  V30 11510 C 1143 -1.68856 -0.205373 0
M  V30 11511 O 1144.19 -1.94094 -0.0641357 0
M  V30 11512 C 1141.32 -3.45987 0.301661 0
M  V30 11513 C 1140.27 -4.08507 1.27696 0
M  V30 11514 C 1139.6 -5.31292 0.602758 0
M  V30 11515 C 1140.9 -4.50916 2.63575 0
M  V30 11516 H 1142.59 -2.43332 1.74441 0
M  V30 11517 H 1140.14 -1.1695 0.840166 0
M  V30 11518 H 1142.09 -4.21324 0.079928 0
M  V30 11519 H 1140.82 -3.20217 -0.642552 0
M  V30 11520 H 1139.48 -3.3519 1.4847 0
M  V30 11521 H 1139.12 -5.01802 -0.346953 0
M  V30 11522 H 1138.82 -5.74075 1.25345 0
M  V30 11523 H 1140.35 -6.09351 0.390325 0
M  V30 11524 H 1141.76 -5.17474 2.46765 0
M  V30 11525 H 1140.16 -5.04586 3.24827 0
M  V30 11526 H 1141.23 -3.63279 3.2118 0
M  V30 11527 N 1142.57 -0.928524 -1.27343 0
M  V30 11528 C 1143.8 -0.58516 -1.98974 0
M  V30 11529 C 1144.22 0.829964 -1.68799 0
M  V30 11530 O 1143.58 1.55705 -0.928738 0
M  V30 11531 C 1143.63 -0.818662 -3.51184 0
M  V30 11532 O 1142.73 0.115355 -4.12239 0
M  V30 11533 H 1142.07 -0.225203 -0.624644 0
M  V30 11534 H 1144.6 -1.248 -1.6213 0
M  V30 11535 H 1144.61 -0.734554 -4.01333 0
M  V30 11536 H 1143.29 -1.8502 -3.72479 0
M  V30 11537 H 1141.86 -0.0187371 -3.72895 0
M  V30 11538 N 1144.05 1.41491 -0.694123 0
M  V30 11539 C 1145.3 2.00479 -0.221585 0
M  V30 11540 C 1145.61 1.55605 1.18518 0
M  V30 11541 O 1146.82 2.07143 1.7551 0
M  V30 11542 C 1145.27 3.5824 -0.345264 0
M  V30 11543 C 1144.88 4.12096 -1.7573 0
M  V30 11544 C 1146.63 4.24446 0.0675731 0
M  V30 11545 C 1144.53 5.62286 -1.83271 0
M  V30 11546 H 1143.46 0.749841 -0.0790854 0
M  V30 11547 H 1146.11 1.61987 -0.86211 0
M  V30 11548 H 1144.5 3.94328 0.363487 0
M  V30 11549 H 1145.67 3.8743 -2.49469 0
M  V30 11550 H 1143.98 3.58411 -2.11969 0
M  V30 11551 H 1146.58 5.34691 0.0316485 0
M  V30 11552 H 1146.92 4.01338 1.10606 0
M  V30 11553 H 1147.46 3.93388 -0.59085 0
M  V30 11554 H 1144.2 5.9022 -2.85168 0
M  V30 11555 H 1143.72 5.88883 -1.13914 0
M  V30 11556 H 1145.4 6.27033 -1.59494 0
M  V30 11557 N 1145.53 0.438773 1.51369 0
M  V30 11558 C 1146.75 -0.128221 2.07003 0
M  V30 11559 C 1147.18 -1.3557 1.30393 0
M  V30 11560 O 1146.54 -1.7804 0.342283 0
M  V30 11561 C 1146.58 -0.42761 3.58056 0
M  V30 11562 O 1145.69 -1.51382 3.83611 0
M  V30 11563 H 1145.03 -0.00123679 0.663999 0
M  V30 11564 H 1147.56 0.62052 1.94963 0
M  V30 11565 H 1147.57 -0.677645 4.02333 0
M  V30 11566 H 1146.24 0.469535 4.13241 0
M  V30 11567 H 1144.82 -1.25363 3.51196 0
M  V30 11568 N 1147.01 -1.56678 0.170181 0
M  V30 11569 C 1148.42 -1.83452 -0.346742 0
M  V30 11570 C 1148.77 -1.08993 -1.63141 0
M  V30 11571 O 1147.89 -0.342607 -2.13671 0
M  V30 11572 C 1148.49 -3.32779 -0.635882 0
M  V30 11573 C 1147.05 -3.60052 -1.09725 0
M  V30 11574 C 1146.19 -2.76983 -0.132516 0
M  V30 11575 H 1149.14 -1.53719 0.394465 0
M  V30 11576 H 1149.17 -3.50195 -1.48806 0
M  V30 11577 H 1148.68 -3.86944 0.299291 0
M  V30 11578 H 1146.78 -3.11297 -2.04756 0
M  V30 11579 H 1146.89 -4.68393 -1.00719 0
M  V30 11580 H 1145.26 -2.46794 -0.62966 0
M  V30 11581 H 1146.04 -3.33929 0.796658 0
M  V30 11582 N 1148.48 0.103547 -1.57259 0
M  V30 11583 C 1149.43 1.14513 -2.02459 0
M  V30 11584 C 1150.43 1.4197 -0.924163 0
M  V30 11585 O 1151.63 1.41751 -1.10936 0
M  V30 11586 H 1148.01 0.386469 -0.645094 0
M  V30 11587 H 1149.98 0.737531 -2.89142 0
M  V30 11588 C 1148.73 2.45948 -2.45775 0
M  V30 11589 H 1148.05 2.25662 -3.30026 0
M  V30 11590 H 1149.49 3.17351 -2.81184 0
M  V30 11591 C 1147.95 3.09639 -1.32759 0
M  V30 11592 O 1148.48 3.96372 -0.652059 0
M  V30 11593 N 1146.68 2.69757 -1.08072 0
M  V30 11594 H 1146.23 1.9932 -1.63185 0
M  V30 11595 H 1146.19 3.127 -0.326532 0
M  V30 11596 N 1149.96 1.53094 0.37415 0
M  V30 11597 C 1151.2 1.70558 1.12647 0
M  V30 11598 C 1151.57 0.443515 1.86807 0
M  V30 11599 O 1152.77 0.49472 2.64208 0
M  V30 11600 C 1151.04 2.91565 2.06699 0
M  V30 11601 S 1152.6 3.29692 2.89567 0
M  V30 11602 H 1149.41 0.600238 0.381097 0
M  V30 11603 H 1152.02 1.91177 0.408865 0
M  V30 11604 H 1150.72 3.81625 1.50965 0
M  V30 11605 H 1150.25 2.73323 2.82945 0
M  V30 11606 H 1152.27 2.81036 4.08942 0
M  V30 11607 N 1151.44 -0.633461 1.44309 0
M  V30 11608 C 1152.69 -1.39031 1.46679 0
M  V30 11609 C 1153.01 -1.94745 0.0997165 0
M  V30 11610 O 1152.28 -1.75637 -0.867659 0
M  V30 11611 H 1150.86 -0.516051 0.540093 0
M  V30 11612 H 1153.52 -0.745739 1.80069 0
M  V30 11613 H 1152.62 -2.2228 2.19085 0
M  V30 11614 N 1152.92 -1.31168 -0.873655 0
M  V30 11615 C 1154.15 -1.23416 -1.65686 0
M  V30 11616 C 1154.56 0.203534 -1.88102 0
M  V30 11617 O 1153.9 1.14476 -1.4367 0
M  V30 11618 C 1153.96 -1.90418 -3.04929 0
M  V30 11619 C 1153.63 -3.39757 -3.05637 0
M  V30 11620 C 1154.62 -4.35565 -2.83865 0
M  V30 11621 C 1152.31 -3.81389 -3.26875 0
M  V30 11622 C 1154.3 -5.70979 -2.83304 0
M  V30 11623 C 1151.99 -5.16918 -3.25943 0
M  V30 11624 C 1152.99 -6.11524 -3.04184 0
M  V30 11625 O 1152.67 -7.44575 -3.0309 0
M  V30 11626 H 1152.41 -0.4278 -0.523415 0
M  V30 11627 H 1154.96 -1.73525 -1.09902 0
M  V30 11628 H 1153.19 -1.34854 -3.62424 0
M  V30 11629 H 1154.88 -1.76631 -3.65453 0
M  V30 11630 H 1155.65 -4.0473 -2.67243 0
M  V30 11631 H 1151.52 -3.08187 -3.42844 0
M  V30 11632 H 1155.07 -6.44796 -2.66239 0
M  V30 11633 H 1150.97 -5.47389 -3.42104 0
M  V30 11634 H 1151.73 -7.53703 -3.19177 0
M  V30 11635 N 1154.4 1.08748 -1.14068 0
M  V30 11636 C 1155.65 1.8044 -0.901352 0
M  V30 11637 C 1155.96 1.86995 0.573791 0
M  V30 11638 O 1157.16 2.55065 0.930275 0
M  V30 11639 C 1155.62 3.24185 -1.56308 0
M  V30 11640 C 1155.23 3.25875 -3.07424 0
M  V30 11641 C 1156.97 4.00584 -1.40473 0
M  V30 11642 C 1154.88 4.64186 -3.66449 0
M  V30 11643 H 1153.81 0.676201 -0.333569 0
M  V30 11644 H 1156.46 1.22169 -1.3692 0
M  V30 11645 H 1154.84 3.82561 -1.0229 0
M  V30 11646 H 1156.02 2.77225 -3.6808 0
M  V30 11647 H 1154.33 2.62969 -3.22856 0
M  V30 11648 H 1156.93 5.02781 -1.81976 0
M  V30 11649 H 1157.27 4.14823 -0.350408 0
M  V30 11650 H 1157.8 3.48668 -1.91508 0
M  V30 11651 H 1154.54 4.5515 -4.71719 0
M  V30 11652 H 1154.06 5.13132 -3.10574 0
M  V30 11653 H 1155.74 5.33161 -3.66536 0
M  V30 11654 N 1155.87 0.935264 1.26849 0
M  V30 11655 C 1156.82 0.430895 2.28574 0
M  V30 11656 C 1157.82 -0.488739 1.62196 0
M  V30 11657 O 1159.02 -0.367605 1.76206 0
M  V30 11658 H 1155.4 0.120793 0.742235 0
M  V30 11659 H 1157.37 1.3015 2.68521 0
M  V30 11660 C 1156.12 -0.294053 3.46454 0
M  V30 11661 H 1155.44 0.404416 3.97749 0
M  V30 11662 H 1156.88 -0.611272 4.19571 0
M  V30 11663 C 1155.34 -1.50975 3.01178 0
M  V30 11664 O 1155.87 -2.60826 3.05504 0
M  V30 11665 N 1154.08 -1.36423 2.56587 0
M  V30 11666 H 1153.62 -0.470483 2.53267 0
M  V30 11667 H 1153.58 -2.17886 2.26656 0
M  V30 11668 N 1157.35 -1.41121 0.701616 0
M  V30 11669 C 1158.58 -2.05973 0.242896 0
M  V30 11670 C 1159 -1.52474 -1.10151 0
M  V30 11671 O 1158.36 -0.654224 -1.69085 0
M  V30 11672 C 1158.41 -3.59943 0.217614 0
M  V30 11673 O 1157.51 -4.04454 -0.805629 0
M  V30 11674 H 1156.85 -0.653581 0.117166 0
M  V30 11675 H 1159.38 -1.80777 0.958175 0
M  V30 11676 H 1159.39 -4.07969 0.0505267 0
M  V30 11677 H 1158.07 -3.98249 1.19877 0
M  V30 11678 H 1156.65 -3.6792 -0.607404 0
M  V30 11679 N 1158.83 -0.446794 -1.51134 0
M  V30 11680 C 1159.78 0.378002 -2.24845 0
M  V30 11681 C 1160.76 0.982126 -1.27448 0
M  V30 11682 O 1161.96 0.8987 -1.52487 0
M  V30 11683 C 1159.09 1.4733 -3.10079 0
M  V30 11684 C 1158.17 0.878102 -4.1491 0
M  V30 11685 N 1158.56 0.0129452 -5.05798 0
M  V30 11686 C 1156.86 1.14468 -4.3106 0
M  V30 11687 C 1157.56 -0.322333 -5.80806 0
M  V30 11688 N 1156.54 0.296438 -5.42791 0
M  V30 11689 H 1160.34 -0.28885 -2.92477 0
M  V30 11690 H 1157.85 -0.259439 -1.60314 0
M  V30 11691 H 1159.85 2.07713 -3.6147 0
M  V30 11692 H 1158.51 2.14239 -2.43992 0
M  V30 11693 H 1159.52 -0.354177 -5.16688 0
M  V30 11694 H 1156.2 1.81056 -3.76198 0
M  V30 11695 H 1157.59 -1.02693 -6.64006 0
M  V30 11696 N 1160.31 1.56586 -0.178487 0
M  V30 11697 C 1161.56 1.96273 0.464745 0
M  V30 11698 C 1161.87 1.0675 1.63902 0
M  V30 11699 O 1163.08 1.36148 2.34896 0
M  V30 11700 C 1161.53 3.49021 0.878207 0
M  V30 11701 C 1161.14 4.4718 -0.270861 0
M  V30 11702 C 1162.88 3.97512 1.48946 0
M  V30 11703 C 1160.79 5.91176 0.162632 0
M  V30 11704 H 1159.72 0.732834 0.177398 0
M  V30 11705 H 1162.37 1.81534 -0.267861 0
M  V30 11706 H 1160.75 3.59203 1.667 0
M  V30 11707 H 1161.93 4.48718 -1.04826 0
M  V30 11708 H 1160.24 4.08788 -0.792529 0
M  V30 11709 H 1162.84 5.02556 1.82595 0
M  V30 11710 H 1163.18 3.40861 2.38997 0
M  V30 11711 H 1163.72 3.90376 0.76496 0
M  V30 11712 H 1160.46 6.51716 -0.703286 0
M  V30 11713 H 1159.98 5.9293 0.905243 0
M  V30 11714 H 1161.65 6.44174 0.604084 0
M  V30 11715 N 1161.79 -0.095206 1.57312 0
M  V30 11716 C 1163.01 -0.81227 1.90289 0
M  V30 11717 C 1163.43 -1.72287 0.772178 0
M  V30 11718 O 1162.79 -1.80698 -0.255841 0
M  V30 11719 C 1162.84 -1.62572 3.22882 0
M  V30 11720 O 1162.56 -0.75175 4.31602 0
M  V30 11721 C 1164.06 -2.44585 3.6972 0
M  V30 11722 H 1161.28 -0.232256 0.629522 0
M  V30 11723 H 1163.82 -0.0724733 2.04372 0
M  V30 11724 H 1161.98 -2.31803 3.10397 0
M  V30 11725 H 1162.39 -1.31514 5.07744 0
M  V30 11726 H 1163.87 -2.97155 4.65191 0
M  V30 11727 H 1164.34 -3.23044 2.97555 0
M  V30 11728 H 1164.95 -1.80554 3.85072 0
M  V30 11729 N 1163.26 -1.53291 -0.366026 0
M  V30 11730 C 1164.51 -1.68671 -1.10602 0
M  V30 11731 C 1164.83 -0.444793 -1.90476 0
M  V30 11732 O 1166.03 -0.479135 -2.67239 0
M  V30 11733 C 1164.49 -2.98174 -2.01545 0
M  V30 11734 C 1164.1 -4.29626 -1.26986 0
M  V30 11735 C 1165.84 -3.22921 -2.7554 0
M  V30 11736 C 1163.75 -5.50218 -2.16828 0
M  V30 11737 H 1162.68 -0.628456 -0.416604 0
M  V30 11738 H 1165.33 -1.79791 -0.367058 0
M  V30 11739 H 1163.71 -2.80855 -2.79171 0
M  V30 11740 H 1164.88 -4.57574 -0.544269 0
M  V30 11741 H 1163.2 -4.11318 -0.648558 0
M  V30 11742 H 1165.8 -4.10202 -3.42985 0
M  V30 11743 H 1166.14 -2.38964 -3.40884 0
M  V30 11744 H 1166.67 -3.40912 -2.04997 0
M  V30 11745 H 1163.41 -6.36651 -1.56063 0
M  V30 11746 H 1162.93 -5.26549 -2.87238 0
M  V30 11747 H 1164.61 -5.84991 -2.76396 0
M  V30 11748 N 1164.74 0.6258 -1.44643 0
M  V30 11749 C 1165.98 1.39676 -1.49232 0
M  V30 11750 C 1166.35 1.91601 -0.123682 0
M  V30 11751 O 1167.55 2.68764 -0.0442486 0
M  V30 11752 C 1165.82 2.52704 -2.52736 0
M  V30 11753 S 1167.38 3.40795 -2.76413 0
M  V30 11754 H 1164.2 0.476436 -0.527759 0
M  V30 11755 H 1166.8 0.72394 -1.81602 0
M  V30 11756 H 1165.5 2.12876 -3.50873 0
M  V30 11757 H 1165.03 3.24806 -2.21956 0
M  V30 11758 H 1167.05 4.5031 -2.08412 0
M  V30 11759 N 1166.22 1.31629 0.866686 0
M  V30 11760 C 1167.47 1.21263 1.61678 0
M  V30 11761 C 1167.79 -0.228562 1.93656 0
M  V30 11762 O 1167.06 -1.15014 1.58583 0
M  V30 11763 H 1165.64 0.445817 0.59938 0
M  V30 11764 H 1168.3 1.64998 1.03739 0
M  V30 11765 H 1167.4 1.78669 2.55898 0
M  V30 11766 N 1167.7 -1.08142 1.14644 0
M  V30 11767 C 1168.63 -2.15022 0.793614 0
M  V30 11768 C 1169.64 -1.61679 -0.190729 0
M  V30 11769 O 1170.83 -1.78472 0.0313696 0
M  V30 11770 C 1167.93 -3.38532 0.157785 0
M  V30 11771 C 1167.11 -4.21252 1.17753 0
M  V30 11772 C 1166.17 -5.23158 0.564968 0
M  V30 11773 O 1165.19 -5.5578 1.22869 0
M  V30 11774 N 1166.39 -5.7677 -0.657022 0
M  V30 11775 H 1169.16 -2.45893 1.71338 0
M  V30 11776 H 1166.72 -1.23976 1.04122 0
M  V30 11777 H 1168.71 -4.03834 -0.264586 0
M  V30 11778 H 1167.28 -3.05441 -0.665168 0
M  V30 11779 H 1166.5 -3.51888 1.77675 0
M  V30 11780 H 1167.79 -4.73335 1.86632 0
M  V30 11781 H 1167.19 -5.52503 -1.21478 0
M  V30 11782 H 1165.74 -6.4374 -1.02186 0
M  V30 11783 N 1169.18 -0.941978 -1.26351 0
M  V30 11784 C 1170.13 -0.423053 -2.24041 0
M  V30 11785 C 1171.11 0.480668 -1.53553 0
M  V30 11786 O 1172.3 0.315783 -1.7416 0
M  V30 11787 C 1169.43 0.309814 -3.41899 0
M  V30 11788 C 1168.52 -0.611245 -4.19672 0
M  V30 11789 N 1168.91 -1.73738 -4.75025 0
M  V30 11790 C 1167.21 -0.416985 -4.44046 0
M  V30 11791 C 1167.91 -2.31141 -5.33806 0
M  V30 11792 N 1166.88 -1.59934 -5.1954 0
M  V30 11793 H 1170.69 -1.28268 -2.64433 0
M  V30 11794 H 1168.2 -0.797941 -1.41445 0
M  V30 11795 H 1170.2 0.698618 -4.11005 0
M  V30 11796 H 1168.86 1.1662 -3.03035 0
M  V30 11797 H 1169.87 -2.1195 -4.72544 0
M  V30 11798 H 1166.55 0.397561 -4.15603 0
M  V30 11799 H 1167.94 -3.26029 -5.87499 0
M  V30 11800 N 1170.66 1.40747 -0.709091 0
M  V30 11801 C 1171.59 2.33404 -0.0669763 0
M  V30 11802 C 1172.57 1.52546 0.752582 0
M  V30 11803 O 1173.75 1.81036 0.702823 0
M  V30 11804 C 1170.88 3.36476 0.860285 0
M  V30 11805 C 1169.84 4.27748 0.146828 0
M  V30 11806 C 1169.16 5.21304 1.18937 0
M  V30 11807 C 1170.46 5.12734 -0.995064 0
M  V30 11808 H 1172.16 2.87349 -0.840888 0
M  V30 11809 H 1169.7 1.38163 -0.405817 0
M  V30 11810 H 1171.65 4.00231 1.31883 0
M  V30 11811 H 1170.38 2.80912 1.66602 0
M  V30 11812 H 1169.04 3.65437 -0.291826 0
M  V30 11813 H 1168.69 4.62048 1.98798 0
M  V30 11814 H 1168.39 5.8321 0.716917 0
M  V30 11815 H 1169.91 5.87936 1.64815 0
M  V30 11816 H 1171.32 5.69979 -0.61618 0
M  V30 11817 H 1169.72 5.83649 -1.39547 0
M  V30 11818 H 1170.79 4.49097 -1.82867 0
M  V30 11819 N 1172.13 0.454803 1.50895 0
M  V30 11820 C 1173.36 -0.103936 2.06639 0
M  V30 11821 C 1173.78 -1.34943 1.32044 0
M  V30 11822 O 1173.13 -1.78393 0.384972 0
M  V30 11823 C 1173.18 -0.408546 3.59184 0
M  V30 11824 O 1172.91 0.787535 4.30963 0
M  V30 11825 C 1174.41 -1.01605 4.31499 0
M  V30 11826 H 1171.63 -0.000171839 0.671 0
M  V30 11827 H 1174.17 0.638907 1.94263 0
M  V30 11828 H 1172.33 -1.1013 3.71416 0
M  V30 11829 H 1172.74 0.52229 5.21893 0
M  V30 11830 H 1174.21 -1.17906 5.39261 0
M  V30 11831 H 1174.69 -2.00182 3.90927 0
M  V30 11832 H 1175.3 -0.362155 4.23755 0
M  V30 11833 N 1173.61 -1.56489 0.186789 0
M  V30 11834 C 1174.84 -2.02163 -0.463126 0
M  V30 11835 C 1175.26 -1.06612 -1.54969 0
M  V30 11836 O 1174.62 -0.0482139 -1.81236 0
M  V30 11837 C 1174.67 -3.46337 -1.00416 0
M  V30 11838 O 1173.77 -3.53889 -2.11747 0
M  V30 11839 H 1173.11 -0.65496 -0.109194 0
M  V30 11840 H 1175.64 -2.02459 0.295227 0
M  V30 11841 H 1175.65 -3.85959 -1.32287 0
M  V30 11842 H 1174.33 -4.15376 -0.208693 0
M  V30 11843 H 1172.9 -3.26136 -1.80803 0
M  V30 11844 N 1175.09 0.086862 -1.5736 0
M  V30 11845 C 1176.05 1.08906 -2.01673 0
M  V30 11846 C 1177.05 1.32473 -0.911463 0
M  V30 11847 O 1178.24 1.28447 -1.17673 0
M  V30 11848 C 1175.37 2.43629 -2.38449 0
M  V30 11849 H 1176.57 0.707461 -2.91436 0
M  V30 11850 H 1174.12 0.332154 -1.5273 0
M  V30 11851 H 1174.86 2.8665 -1.51665 0
M  V30 11852 H 1174.64 2.2787 -3.19089 0
M  V30 11853 H 1176.13 3.15695 -2.73361 0
M  V30 11854 N 1176.57 1.53483 0.357892 0
M  V30 11855 C 1177.81 1.71233 1.09776 0
M  V30 11856 C 1178.17 0.462401 1.86761 0
M  V30 11857 O 1177.46 -0.544746 1.83693 0
M  V30 11858 C 1177.66 2.90654 2.07978 0
M  V30 11859 C 1177.48 4.27141 1.40644 0
M  V30 11860 C 1176.25 4.91868 1.15732 0
M  V30 11861 C 1178.45 5.07392 0.840118 0
M  V30 11862 N 1176.43 6.12261 0.448282 0
M  V30 11863 C 1177.81 6.19451 0.260863 0
M  V30 11864 C 1179.86 4.92377 0.739558 0
M  V30 11865 C 1178.56 7.18135 -0.409153 0
M  V30 11866 C 1180.59 5.91341 0.0833084 0
M  V30 11867 C 1179.95 7.02728 -0.485038 0
M  V30 11868 H 1176.05 0.679764 0.386582 0
M  V30 11869 H 1178.63 1.90893 0.383158 0
M  V30 11870 H 1176.81 2.7252 2.76744 0
M  V30 11871 H 1178.54 2.97192 2.74698 0
M  V30 11872 H 1175.29 4.51157 1.44064 0
M  V30 11873 H 1175.72 6.76912 0.108905 0
M  V30 11874 H 1180.36 4.06441 1.16472 0
M  V30 11875 H 1178.08 8.03657 -0.846247 0
M  V30 11876 H 1181.66 5.818 0.00632482 0
M  V30 11877 H 1180.54 7.77992 -0.984802 0
M  V30 11878 N 1178.05 -0.61812 1.44973 0
M  V30 11879 C 1179 -1.72346 1.49268 0
M  V30 11880 C 1179.98 -1.56889 0.357042 0
M  V30 11881 O 1181.17 -1.66404 0.603212 0
M  V30 11882 C 1178.3 -3.11073 1.4522 0
M  V30 11883 C 1177.39 -3.31953 2.63947 0
M  V30 11884 N 1177.78 -3.23141 3.89119 0
M  V30 11885 C 1176.08 -3.62791 2.59419 0
M  V30 11886 C 1176.78 -3.45066 4.683 0
M  V30 11887 N 1175.75 -3.68558 3.99582 0
M  V30 11888 H 1179.55 -1.6401 2.43881 0
M  V30 11889 H 1177.07 -0.821029 1.40117 0
M  V30 11890 H 1179.07 -3.90356 1.46381 0
M  V30 11891 H 1177.73 -3.20565 0.516555 0
M  V30 11892 H 1178.74 -3.01773 4.20896 0
M  V30 11893 H 1175.41 -3.79185 1.74713 0
M  V30 11894 H 1176.8 -3.43735 5.77318 0
M  V30 11895 N 1179.52 -1.32087 -0.859693 0
M  V30 11896 C 1180.45 -1.23204 -1.98351 0
M  V30 11897 C 1181.43 -0.116974 -1.69697 0
M  V30 11898 O 1182.62 -0.303301 -1.91817 0
M  V30 11899 C 1179.75 -0.949171 -3.34078 0
M  V30 11900 C 1178.7 -2.02493 -3.77069 0
M  V30 11901 C 1178.03 -1.59455 -5.1037 0
M  V30 11902 C 1179.33 -3.43934 -3.93074 0
M  V30 11903 H 1181.02 -2.17227 -2.0604 0
M  V30 11904 H 1178.57 -1.04577 -0.989931 0
M  V30 11905 H 1180.52 -0.873594 -4.12245 0
M  V30 11906 H 1179.25 0.0267095 -3.26589 0
M  V30 11907 H 1177.91 -2.09057 -3.01149 0
M  V30 11908 H 1177.55 -0.606256 -4.99333 0
M  V30 11909 H 1177.25 -2.31429 -5.40106 0
M  V30 11910 H 1178.78 -1.53325 -5.91036 0
M  V30 11911 H 1180.19 -3.39986 -4.61608 0
M  V30 11912 H 1178.59 -4.14214 -4.3422 0
M  V30 11913 H 1179.66 -3.83965 -2.9614 0
M  V30 11914 N 1181 1.07532 -1.15215 0
M  V30 11915 C 1182.25 1.8036 -0.927263 0
M  V30 11916 C 1182.58 1.86414 0.544371 0
M  V30 11917 O 1181.86 1.34653 1.40353 0
M  V30 11918 C 1182.14 3.25512 -1.53992 0
M  V30 11919 C 1181.99 3.27614 -3.08203 0
M  V30 11920 C 1183.31 4.22731 -1.22418 0
M  V30 11921 H 1180.43 0.654775 -0.338289 0
M  V30 11922 H 1183.07 1.25842 -1.42351 0
M  V30 11923 H 1181.22 3.72068 -1.11791 0
M  V30 11924 H 1182.89 2.89315 -3.59297 0
M  V30 11925 H 1181.14 2.66627 -3.42188 0
M  V30 11926 H 1181.81 4.29956 -3.46182 0
M  V30 11927 H 1184.28 3.84557 -1.58919 0
M  V30 11928 H 1183.16 5.22589 -1.67906 0
M  V30 11929 H 1183.42 4.41875 -0.14091 0
M  V30 11930 N 1182.48 0.948665 1.2585 0
M  V30 11931 C 1183.41 0.482036 2.2847 0
M  V30 11932 C 1184.39 -0.468553 1.63519 0
M  V30 11933 O 1185.58 -0.368796 1.90666 0
M  V30 11934 C 1182.71 -0.246603 3.46423 0
M  V30 11935 C 1181.66 0.61815 4.23513 0
M  V30 11936 C 1180.99 -0.240884 5.34157 0
M  V30 11937 C 1182.29 1.89327 4.86778 0
M  V30 11938 H 1183.98 1.33973 2.67753 0
M  V30 11939 H 1181.53 0.645645 1.28715 0
M  V30 11940 H 1183.48 -0.584135 4.17332 0
M  V30 11941 H 1182.2 -1.13849 3.06114 0
M  V30 11942 H 1180.86 0.938682 3.54379 0
M  V30 11943 H 1180.51 -1.13235 4.90089 0
M  V30 11944 H 1180.21 0.334367 5.86648 0
M  V30 11945 H 1181.73 -0.573517 6.07901 0
M  V30 11946 H 1183.15 1.62252 5.49861 0
M  V30 11947 H 1181.55 2.41369 5.49419 0
M  V30 11948 H 1182.62 2.60006 4.09298 0
M  V30 11949 N 1183.96 -1.40369 0.716545 0
M  V30 11950 C 1185.18 -2.05704 0.264729 0
M  V30 11951 C 1185.61 -1.53634 -1.08527 0
M  V30 11952 O 1184.97 -0.67212 -1.68381 0
M  V30 11953 C 1185.01 -3.59692 0.255778 0
M  V30 11954 O 1184.12 -4.05286 -0.762686 0
M  V30 11955 H 1183.46 -0.652301 0.124092 0
M  V30 11956 H 1185.99 -1.7975 0.977295 0
M  V30 11957 H 1186 -4.07892 0.0937944 0
M  V30 11958 H 1184.67 -3.96955 1.24095 0
M  V30 11959 H 1183.25 -3.68543 -0.568347 0
M  V30 11960 N 1185.44 -0.462799 -1.50652 0
M  V30 11961 C 1186.68 0.0950445 -2.02277 0
M  V30 11962 C 1187.01 1.40465 -1.34536 0
M  V30 11963 O 1186.27 1.90283 -0.457279 0
M  V30 11964 C 1186.57 0.335294 -3.55824 0
M  V30 11965 C 1186.23 -0.891589 -4.41997 0
M  V30 11966 C 1184.89 -1.22799 -4.65268 0
M  V30 11967 C 1187.25 -1.70885 -4.9239 0
M  V30 11968 C 1184.57 -2.38186 -5.36175 0
M  V30 11969 C 1186.93 -2.85394 -5.64564 0
M  V30 11970 C 1185.59 -3.19458 -5.86091 0
M  V30 11971 H 1184.86 0.0347793 -0.740183 0
M  V30 11972 H 1187.51 -0.61519 -1.8135 0
M  V30 11973 H 1185.81 1.12769 -3.7522 0
M  V30 11974 H 1187.51 0.780752 -3.93326 0
M  V30 11975 H 1184.1 -0.619495 -4.24099 0
M  V30 11976 H 1188.28 -1.46215 -4.74273 0
M  V30 11977 H 1183.54 -2.64862 -5.51052 0
M  V30 11978 H 1187.71 -3.49073 -6.02595 0
M  V30 11979 H 1185.34 -4.08978 -6.40813 0
M  V30 11980 N 1186.91 1.56388 -0.195085 0
M  V30 11981 C 1187.86 2.15705 0.738595 0
M  V30 11982 C 1188.85 1.09782 1.1763 0
M  V30 11983 O 1190.04 1.35844 1.1347 0
M  V30 11984 C 1187.17 2.81994 1.95791 0
M  V30 11985 C 1186.26 3.95108 1.54111 0
M  V30 11986 N 1186.65 4.98856 0.835261 0
M  V30 11987 C 1184.94 4.06709 1.8304 0
M  V30 11988 C 1185.65 5.78317 0.626417 0
M  V30 11989 N 1184.62 5.30746 1.17513 0
M  V30 11990 H 1188.42 2.93281 0.190597 0
M  V30 11991 H 1185.94 1.62399 0.00470391 0
M  V30 11992 H 1187.93 3.22883 2.63728 0
M  V30 11993 H 1186.59 2.05906 2.51063 0
M  V30 11994 H 1187.61 5.1557 0.490732 0
M  V30 11995 H 1184.28 3.41749 2.39821 0
M  V30 11996 H 1185.67 6.71867 0.0664935 0
M  V30 11997 N 1188.39 -0.0785156 1.57404 0
M  V30 11998 C 1189.67 -0.811557 1.77969 0
M  V30 11999 C 1190.05 -1.96123 0.780966 0
M  V30 12000 O 1189.4 -2.27731 -0.18726 0
M  V30 12001 C 1189.61 -1.29075 3.24254 0
M  V30 12002 C 1190.96 -1.72685 3.87898 0
M  V30 12003 O 1191.98 -1.38658 3.28104 0
M  V30 12004 O 1190.84 -2.3566 4.93079 0
M  V30 12005 H 1187.93 -0.388361 0.73014 0
M  V30 12006 H 1190.48 -0.0591118 1.69597 0
M  V30 12007 H 1189.25 -0.467813 3.88494 0
M  V30 12008 H 1188.87 -2.10472 3.37324 0
M  V30 12009 N 1189.87 -1.5367 -0.349747 0
M  V30 12010 C 1191.12 -1.70281 -1.08853 0
M  V30 12011 C 1191.44 -0.465438 -1.89364 0
M  V30 12012 O 1190.71 0.520615 -1.88856 0
M  V30 12013 H 1189.29 -0.627775 -0.404854 0
M  V30 12014 H 1191.95 -1.90906 -0.392523 0
M  V30 12015 H 1191.05 -2.57096 -1.76941 0
M  V30 12016 N 1191.35 0.610423 -1.45298 0
M  V30 12017 C 1192.28 1.73207 -1.56594 0
M  V30 12018 C 1193.26 1.64893 -0.417651 0
M  V30 12019 O 1194.44 1.83336 -0.64043 0
M  V30 12020 C 1191.57 3.11803 -1.52959 0
M  V30 12021 C 1190.53 3.34925 -2.66475 0
M  V30 12022 C 1189.85 4.73764 -2.47894 0
M  V30 12023 C 1191.15 3.25456 -4.08504 0
M  V30 12024 H 1192.85 1.6401 -2.50482 0
M  V30 12025 H 1190.39 0.787621 -1.20551 0
M  V30 12026 H 1192.35 3.90065 -1.59458 0
M  V30 12027 H 1191.07 3.21833 -0.55599 0
M  V30 12028 H 1189.73 2.59051 -2.59399 0
M  V30 12029 H 1189.38 4.80524 -1.4868 0
M  V30 12030 H 1189.08 4.90191 -3.24016 0
M  V30 12031 H 1190.6 5.54231 -2.56243 0
M  V30 12032 H 1192.02 3.93597 -4.16839 0
M  V30 12033 H 1190.41 3.53414 -4.84994 0
M  V30 12034 H 1191.48 2.22939 -4.30612 0
M  V30 12035 N 1192.83 1.32541 0.852676 0
M  V30 12036 C 1194.24 1.11575 1.14119 0
M  V30 12037 C 1194.44 -0.102469 2.01239 0
M  V30 12038 O 1193.5 -0.786786 2.39929 0
M  V30 12039 C 1194.81 2.39624 1.81661 0
M  V30 12040 C 1196.36 2.454 1.94288 0
M  V30 12041 C 1196.83 3.73375 2.65245 0
M  V30 12042 N 1198.33 3.74368 2.72769 0
M  V30 12043 C 1199.06 4.70094 3.28328 0
M  V30 12044 N 1198.56 5.76187 3.84682 0
M  V30 12045 N 1200.35 4.57588 3.26449 0
M  V30 12046 H 1192.5 2.10644 0.272544 0
M  V30 12047 H 1194.76 0.930094 0.183385 0
M  V30 12048 H 1194.47 3.28698 1.25102 0
M  V30 12049 H 1194.34 2.50734 2.81802 0
M  V30 12050 H 1196.73 1.56784 2.50005 0
M  V30 12051 H 1196.81 2.38241 0.931379 0
M  V30 12052 H 1196.46 4.62366 2.10191 0
M  V30 12053 H 1196.39 3.77806 3.66838 0
M  V30 12054 H 1198.88 2.97685 2.32791 0
M  V30 12055 H 1199.19 6.45285 4.25238 0
M  V30 12056 H 1197.53 5.79939 3.83008 0
M  V30 12057 H 1200.73 3.7387 2.81672 0
M  V30 12058 H 1200.9 5.32365 3.69448 0
M  V30 12059 N 1194.3 -1.0692 1.15784 0
M  V30 12060 C 1195.27 -2.12407 0.861167 0
M  V30 12061 C 1196.27 -1.6018 -0.141031 0
M  V30 12062 O 1197.46 -1.73972 0.0891192 0
M  V30 12063 C 1194.59 -3.39693 0.286636 0
M  V30 12064 H 1195.78 -2.40157 1.79623 0
M  V30 12065 H 1193.34 -1.22881 0.965916 0
M  V30 12066 H 1194.07 -3.17587 -0.656417 0
M  V30 12067 H 1193.86 -3.78903 1.0087 0
M  V30 12068 H 1195.35 -4.17488 0.0967971 0
M  V30 12069 N 1195.78 -0.955326 -1.25345 0
M  V30 12070 C 1197.03 -0.611388 -1.93365 0
M  V30 12071 C 1197.36 0.84953 -1.74633 0
M  V30 12072 O 1196.64 1.60962 -1.09185 0
M  V30 12073 C 1196.92 -0.971732 -3.46741 0
M  V30 12074 C 1196.77 -2.48843 -3.74696 0
M  V30 12075 C 1198.09 -0.497295 -4.37281 0
M  V30 12076 H 1195.21 -0.223591 -0.702265 0
M  V30 12077 H 1197.85 -1.1921 -1.47949 0
M  V30 12078 H 1196 -0.477568 -3.85554 0
M  V30 12079 H 1197.67 -3.05641 -3.45516 0
M  V30 12080 H 1195.92 -2.92582 -3.20278 0
M  V30 12081 H 1196.59 -2.69107 -4.8196 0
M  V30 12082 H 1199.06 -0.921196 -4.05775 0
M  V30 12083 H 1197.94 -0.778113 -5.43357 0
M  V30 12084 H 1198.2 0.602743 -4.37972 0
M  V30 12085 N 1197.26 1.39987 -0.723979 0
M  V30 12086 C 1198.17 2.3447 -0.0780936 0
M  V30 12087 C 1199.19 1.57744 0.734368 0
M  V30 12088 O 1200.36 1.90091 0.665385 0
M  V30 12089 C 1197.43 3.36705 0.826492 0
M  V30 12090 C 1196.49 4.293 0.00303036 0
M  V30 12091 C 1195.72 5.26651 0.864535 0
M  V30 12092 O 1195.95 5.30194 2.10357 0
M  V30 12093 O 1194.88 6.01157 0.299057 0
M  V30 12094 H 1198.71 2.91338 -0.857646 0
M  V30 12095 H 1196.29 1.41324 -0.484536 0
M  V30 12096 H 1198.17 3.9938 1.34439 0
M  V30 12097 H 1196.85 2.82237 1.58505 0
M  V30 12098 H 1195.75 3.69883 -0.560136 0
M  V30 12099 H 1197.09 4.86942 -0.717494 0
M  V30 12100 N 1198.74 0.470782 1.50404 0
M  V30 12101 C 1199.96 -0.084284 2.07229 0
M  V30 12102 C 1200.39 -1.32774 1.33239 0
M  V30 12103 O 1199.75 -1.77274 0.379971 0
M  V30 12104 C 1199.8 -0.351565 3.58882 0
M  V30 12105 O 1198.9 -1.43211 3.86736 0
M  V30 12106 H 1198.24 0.0128479 0.663876 0
M  V30 12107 H 1200.77 0.661735 1.93603 0
M  V30 12108 H 1200.78 -0.592151 4.0368 0
M  V30 12109 H 1199.46 0.557084 4.12152 0
M  V30 12110 H 1198.03 -1.17886 3.53776 0
M  V30 12111 N 1200.22 -1.56282 0.203376 0
M  V30 12112 C 1201.63 -1.58871 -0.152335 0
M  V30 12113 C 1201.83 -1.21978 -1.60386 0
M  V30 12114 O 1200.89 -0.946422 -2.34092 0
M  V30 12115 C 1202.2 -3.00287 0.157515 0
M  V30 12116 C 1203.75 -3.12846 0.098287 0
M  V30 12117 C 1204.23 -4.56408 0.38156 0
M  V30 12118 N 1205.72 -4.6202 0.330475 0
M  V30 12119 C 1206.45 -5.71006 0.523397 0
M  V30 12120 N 1205.95 -6.88428 0.777115 0
M  V30 12121 N 1207.74 -5.60238 0.457082 0
M  V30 12122 H 1199.89 -1.78543 1.15048 0
M  V30 12123 H 1202.15 -0.829019 0.459816 0
M  V30 12124 H 1201.86 -3.3187 1.16427 0
M  V30 12125 H 1201.73 -3.73372 -0.536041 0
M  V30 12126 H 1204.12 -2.8107 -0.899085 0
M  V30 12127 H 1204.2 -2.42129 0.825045 0
M  V30 12128 H 1203.85 -4.88897 1.37629 0
M  V30 12129 H 1203.78 -5.25325 -0.366182 0
M  V30 12130 H 1206.27 -3.77636 0.141327 0
M  V30 12131 H 1206.58 -7.67389 0.912911 0
M  V30 12132 H 1204.93 -6.90215 0.814104 0
M  V30 12133 H 1208.12 -4.67382 0.259226 0
M  V30 12134 H 1208.29 -6.45114 0.610848 0
M  V30 12135 N 1201.7 0.070167 -1.57444 0
M  V30 12136 C 1202.94 0.774338 -1.89165 0
M  V30 12137 C 1203.3 1.7466 -0.797353 0
M  V30 12138 O 1204.5 2.49599 -0.997682 0
M  V30 12139 C 1202.77 1.46235 -3.26114 0
M  V30 12140 S 1204.33 2.20136 -3.79586 0
M  V30 12141 H 1201.15 0.257464 -0.662747 0
M  V30 12142 H 1203.75 0.0303734 -1.95476 0
M  V30 12143 H 1202.45 0.740942 -4.03656 0
M  V30 12144 H 1201.99 2.24571 -3.23004 0
M  V30 12145 H 1204 3.4668 -3.55003 0
M  V30 12146 N 1203.17 1.53854 0.341593 0
M  V30 12147 C 1204.08 1.84975 1.44297 0
M  V30 12148 C 1205.1 0.740057 1.57477 0
M  V30 12149 O 1206.28 1.03256 1.72917 0
M  V30 12150 C 1203.34 2.05464 2.79259 0
M  V30 12151 C 1202.4 3.29318 2.75405 0
M  V30 12152 C 1201.63 3.4882 4.03931 0
M  V30 12153 O 1201.86 2.7212 5.01305 0
M  V30 12154 O 1200.79 4.42253 4.08284 0
M  V30 12155 H 1204.62 2.78592 1.20913 0
M  V30 12156 H 1202.2 1.39532 0.533953 0
M  V30 12157 H 1204.08 2.20374 3.59184 0
M  V30 12158 H 1202.76 1.15035 3.0257 0
M  V30 12159 H 1201.67 3.1981 1.94094 0
M  V30 12160 H 1203 4.19746 2.57049 0
M  V30 12161 N 1204.65 -0.602709 1.4562 0
M  V30 12162 C 1206.07 -0.923983 1.30133 0
M  V30 12163 C 1206.27 -1.99842 0.25796 0
M  V30 12164 O 1205.32 -2.50112 -0.346414 0
M  V30 12165 C 1206.64 -1.36029 2.68173 0
M  V30 12166 C 1208.18 -1.47423 2.76108 0
M  V30 12167 C 1208.66 -1.94427 4.14683 0
M  V30 12168 N 1210.15 -2.01653 4.17002 0
M  V30 12169 C 1210.89 -2.39255 5.211 0
M  V30 12170 N 1210.38 -2.75791 6.3554 0
M  V30 12171 N 1212.17 -2.39636 5.08459 0
M  V30 12172 H 1204.33 0.107377 2.12128 0
M  V30 12173 H 1206.59 -0.0146216 0.947887 0
M  V30 12174 H 1206.29 -0.644949 3.45736 0
M  V30 12175 H 1206.17 -2.32584 2.96959 0
M  V30 12176 H 1208.56 -2.18047 1.98845 0
M  V30 12177 H 1208.64 -0.4917 2.5103 0
M  V30 12178 H 1208.28 -1.24389 4.92433 0
M  V30 12179 H 1208.21 -2.93603 4.37156 0
M  V30 12180 H 1210.7 -1.75988 3.3442 0
M  V30 12181 H 1211.01 -3.03378 7.10761 0
M  V30 12182 H 1209.36 -2.73475 6.38934 0
M  V30 12183 H 1212.55 -2.10502 4.18098 0
M  V30 12184 H 1212.72 -2.68614 5.89704 0
M  V30 12185 N 1206.13 -1.32992 -0.845635 0
M  V30 12186 C 1207.06 -1.18513 -1.96182 0
M  V30 12187 C 1208.07 -0.11781 -1.62373 0
M  V30 12188 O 1209.26 -0.36761 -1.74674 0
M  V30 12189 C 1206.36 -0.793812 -3.29472 0
M  V30 12190 C 1205.54 -1.95134 -3.91461 0
M  V30 12191 C 1204.6 -1.54209 -5.03096 0
M  V30 12192 O 1203.62 -2.25545 -5.22607 0
M  V30 12193 N 1204.82 -0.443235 -5.78805 0
M  V30 12194 H 1207.59 -2.14663 -2.09141 0
M  V30 12195 H 1205.15 -1.25648 -1.02099 0
M  V30 12196 H 1207.14 -0.502263 -4.01571 0
M  V30 12197 H 1205.71 0.0768031 -3.12506 0
M  V30 12198 H 1204.93 -2.40889 -3.12035 0
M  V30 12199 H 1206.22 -2.72604 -4.2961 0
M  V30 12200 H 1205.62 0.150298 -5.655 0
M  V30 12201 H 1204.17 -0.211331 -6.51457 0
M  V30 12202 N 1207.61 1.06304 -1.1635 0
M  V30 12203 C 1208.54 2.15745 -0.893103 0
M  V30 12204 C 1209.52 1.69341 0.160531 0
M  V30 12205 O 1210.7 1.94196 0.0126526 0
M  V30 12206 C 1207.83 3.45066 -0.393287 0
M  V30 12207 C 1206.79 4.04978 -1.38482 0
M  V30 12208 C 1206.11 5.29507 -0.743409 0
M  V30 12209 C 1207.41 4.4377 -2.75438 0
M  V30 12210 H 1209.11 2.38622 -1.80831 0
M  V30 12211 H 1206.65 1.14681 -0.870878 0
M  V30 12212 H 1208.61 4.20964 -0.191607 0
M  V30 12213 H 1207.33 3.21808 0.557426 0
M  V30 12214 H 1205.99 3.31136 -1.57304 0
M  V30 12215 H 1205.64 5.02545 0.213787 0
M  V30 12216 H 1205.34 5.7055 -1.40521 0
M  V30 12217 H 1206.86 6.08102 -0.551746 0
M  V30 12218 H 1208.28 5.1075 -2.60398 0
M  V30 12219 H 1206.67 4.95797 -3.38091 0
M  V30 12220 H 1207.74 3.54636 -3.30699 0
M  V30 12221 N 1209.09 0.96196 1.24836 0
M  V30 12222 C 1210.5 0.660388 1.7463 0
M  V30 12223 C 1210.85 -0.824064 1.78055 0
M  V30 12224 O 1209.97 -1.64485 1.40619 0
M  V30 12225 C 1210.57 1.19205 3.17137 0
M  V30 12226 C 1209.13 0.940493 3.64461 0
M  V30 12227 C 1208.27 1.33076 2.43282 0
M  V30 12228 H 1211.22 1.13794 1.1062 0
M  V30 12229 H 1211.25 0.555595 3.76422 0
M  V30 12230 H 1210.76 2.27247 3.14612 0
M  V30 12231 H 1208.86 -0.124645 3.72391 0
M  V30 12232 H 1208.97 1.5821 4.52224 0
M  V30 12233 H 1207.34 0.749139 2.43434 0
M  V30 12234 H 1208.12 2.42055 2.43442 0
M  V30 12235 N 1210.56 -1.39601 0.731392 0
M  V30 12236 C 1211.47 -2.34425 0.090527 0
M  V30 12237 C 1212.49 -1.58131 -0.725992 0
M  V30 12238 O 1213.67 -1.90441 -0.655294 0
M  V30 12239 C 1210.73 -3.37138 -0.808624 0
M  V30 12240 C 1209.79 -4.29295 0.0197365 0
M  V30 12241 C 1209.02 -5.27102 -0.836593 0
M  V30 12242 O 1209.25 -5.31302 -2.07543 0
M  V30 12243 O 1208.18 -6.01307 -0.267172 0
M  V30 12244 H 1212.01 -2.9088 0.873084 0
M  V30 12245 H 1209.59 -1.41066 0.492024 0
M  V30 12246 H 1211.47 -4.00087 -1.32319 0
M  V30 12247 H 1210.15 -2.83074 -1.57006 0
M  V30 12248 H 1209.06 -3.69581 0.579744 0
M  V30 12249 H 1210.39 -4.86555 0.743308 0
M  V30 12250 N 1212.04 -0.478751 -1.50152 0
M  V30 12251 C 1212.97 0.347829 -2.26545 0
M  V30 12252 C 1213.99 0.950354 -1.32182 0
M  V30 12253 O 1215.18 0.837462 -1.57635 0
M  V30 12254 C 1212.28 1.50255 -3.0377 0
M  V30 12255 C 1211.45 1.01142 -4.25546 0
M  V30 12256 C 1210.51 2.0411 -4.85 0
M  V30 12257 O 1209.53 1.61862 -5.45701 0
M  V30 12258 N 1210.74 3.36982 -4.72677 0
M  V30 12259 H 1213.5 -0.307113 -2.98122 0
M  V30 12260 H 1211.06 -0.309981 -1.58905 0
M  V30 12261 H 1213.05 2.18848 -3.40423 0
M  V30 12262 H 1211.62 2.06205 -2.34943 0
M  V30 12263 H 1210.84 0.151124 -3.9391 0
M  V30 12264 H 1212.13 0.661326 -5.04484 0
M  V30 12265 H 1211.53 3.74011 -4.2442 0
M  V30 12266 H 1210.09 4.0135 -5.13577 0
M  V30 12267 N 1213.52 1.56172 -0.211661 0
M  V30 12268 C 1214.45 2.17107 0.734657 0
M  V30 12269 C 1215.47 1.1374 1.16478 0
M  V30 12270 O 1216.65 1.40763 1.09764 0
M  V30 12271 C 1213.75 2.73182 2.00561 0
M  V30 12272 C 1212.93 4.0162 1.73264 0
M  V30 12273 C 1211.99 4.42357 2.84968 0
M  V30 12274 O 1211.01 5.09453 2.53863 0
M  V30 12275 N 1212.21 4.07223 4.13702 0
M  V30 12276 H 1214.98 2.98939 0.213475 0
M  V30 12277 H 1212.54 1.61872 -0.0302898 0
M  V30 12278 H 1214.53 2.97411 2.74461 0
M  V30 12279 H 1213.1 1.9571 2.43754 0
M  V30 12280 H 1212.32 3.85351 0.830575 0
M  V30 12281 H 1213.61 4.85426 1.52445 0
M  V30 12282 H 1213.01 3.53286 4.4182 0
M  V30 12283 H 1211.57 4.36366 4.84178 0
M  V30 12284 N 1215 -0.0618163 1.57479 0
M  V30 12285 C 1215.93 -1.07252 2.07411 0
M  V30 12286 C 1216.91 -1.39756 0.969649 0
M  V30 12287 O 1218.09 -1.4921 1.24298 0
M  V30 12288 C 1215.22 -2.38313 2.52635 0
M  V30 12289 C 1214.18 -2.20136 3.67048 0
M  V30 12290 C 1213.5 -3.56668 3.98361 0
M  V30 12291 C 1214.8 -1.61437 4.96725 0
M  V30 12292 H 1216.5 -0.656983 2.92103 0
M  V30 12293 H 1214.04 -0.314579 1.40522 0
M  V30 12294 H 1216 -3.09319 2.86181 0
M  V30 12295 H 1214.72 -2.81865 1.64984 0
M  V30 12296 H 1213.38 -1.51569 3.338 0
M  V30 12297 H 1213.03 -3.97809 3.07826 0
M  V30 12298 H 1212.73 -3.45342 4.75408 0
M  V30 12299 H 1214.25 -4.2909 4.34413 0
M  V30 12300 H 1215.67 -2.2232 5.28438 0
M  V30 12301 H 1214.06 -1.60779 5.78161 0
M  V30 12302 H 1215.13 -0.576795 4.81457 0
M  V30 12303 N 1216.48 -1.54033 -0.333429 0
M  V30 12304 C 1217.72 -1.73485 -1.08085 0
M  V30 12305 C 1218.08 -0.492888 -1.85566 0
M  V30 12306 O 1219.28 -0.564596 -2.62804 0
M  V30 12307 C 1217.55 -2.96943 -1.98896 0
M  V30 12308 S 1219.11 -3.37253 -2.80724 0
M  V30 12309 H 1215.93 -0.610131 -0.365049 0
M  V30 12310 H 1218.53 -1.92194 -0.358034 0
M  V30 12311 H 1217.24 -3.85494 -1.40794 0
M  V30 12312 H 1216.77 -2.80729 -2.75599 0
M  V30 12313 H 1218.78 -2.9178 -4.01347 0
M  V30 12314 N 1217.95 0.594978 -1.45938 0
M  V30 12315 C 1219.37 0.917069 -1.30622 0
M  V30 12316 C 1219.57 1.99702 -0.268554 0
M  V30 12317 O 1218.63 2.50293 0.333146 0
M  V30 12318 C 1219.94 1.34604 -2.68891 0
M  V30 12319 C 1221.49 1.45957 -2.76886 0
M  V30 12320 C 1221.96 1.92225 -4.15708 0
M  V30 12321 N 1223.45 1.99439 -4.18065 0
M  V30 12322 C 1224.19 2.36488 -5.22361 0
M  V30 12323 N 1223.68 2.72416 -6.36994 0
M  V30 12324 N 1225.48 2.36936 -5.09723 0
M  V30 12325 H 1217.63 -0.118625 -2.12068 0
M  V30 12326 H 1219.89 0.00959453 -0.947951 0
M  V30 12327 H 1219.6 0.626605 -3.46073 0
M  V30 12328 H 1219.47 2.31006 -2.98188 0
M  V30 12329 H 1221.86 2.16989 -1.99999 0
M  V30 12330 H 1221.94 0.47838 -2.51287 0
M  V30 12331 H 1221.58 1.21775 -4.93085 0
M  V30 12332 H 1221.51 2.9128 -4.38707 0
M  V30 12333 H 1224 1.74212 -3.35349 0
M  V30 12334 H 1224.32 2.99604 -7.1236 0
M  V30 12335 H 1222.66 2.70083 -6.40375 0
M  V30 12336 H 1225.85 2.08282 -4.19209 0
M  V30 12337 H 1226.03 2.65483 -5.9112 0
M  V30 12338 N 1219.43 1.33438 0.838571 0
M  V30 12339 C 1220.36 1.26344 1.96365 0
M  V30 12340 C 1221.34 0.143956 1.6949 0
M  V30 12341 O 1222.53 0.333779 1.9131 0
M  V30 12342 C 1219.66 1.0022 3.32526 0
M  V30 12343 C 1218.61 2.08466 3.73799 0
M  V30 12344 C 1217.94 1.67555 5.07769 0
M  V30 12345 C 1219.24 3.50144 3.87552 0
M  V30 12346 H 1220.93 2.20478 2.02558 0
M  V30 12347 H 1218.48 1.06139 0.973168 0
M  V30 12348 H 1220.43 0.939068 4.10803 0
M  V30 12349 H 1219.16 0.0252514 3.2659 0
M  V30 12350 H 1217.81 2.13822 2.97785 0
M  V30 12351 H 1217.46 0.685619 4.98305 0
M  V30 12352 H 1217.16 2.39993 5.36356 0
M  V30 12353 H 1218.69 1.62708 5.88522 0
M  V30 12354 H 1220.1 3.47287 4.56141 0
M  V30 12355 H 1218.5 4.21069 4.27575 0
M  V30 12356 H 1219.57 3.88628 2.89994 0
M  V30 12357 N 1220.91 -1.05686 1.16912 0
M  V30 12358 C 1222.32 -1.60059 0.961153 0
M  V30 12359 C 1222.67 -1.89894 -0.493409 0
M  V30 12360 O 1221.8 -1.67692 -1.36778 0
M  V30 12361 C 1222.39 -2.90803 1.73837 0
M  V30 12362 C 1220.95 -3.41854 1.57522 0
M  V30 12363 C 1220.1 -2.15658 1.74319 0
M  V30 12364 H 1223.05 -0.885592 1.31693 0
M  V30 12365 H 1223.07 -3.60485 1.21781 0
M  V30 12366 H 1222.58 -2.69056 2.79697 0
M  V30 12367 H 1220.68 -3.68647 0.541284 0
M  V30 12368 H 1220.8 -4.16771 2.36302 0
M  V30 12369 H 1219.16 -2.26177 1.17115 0
M  V30 12370 H 1219.94 -1.96386 2.8158 0
M  V30 12371 N 1222.39 -0.968567 -1.24324 0
M  V30 12372 C 1223.3 -0.50703 -2.29055 0
M  V30 12373 C 1224.31 0.432431 -1.68541 0
M  V30 12374 O 1225.49 0.30526 -1.99073 0
M  V30 12375 C 1222.56 0.194589 -3.46153 0
M  V30 12376 C 1221.62 -0.784805 -4.22066 0
M  V30 12377 C 1220.85 -0.116574 -5.33573 0
M  V30 12378 O 1221.07 1.09492 -5.59792 0
M  V30 12379 O 1220.01 -0.809171 -5.96436 0
M  V30 12380 H 1223.83 -1.3777 -2.70653 0
M  V30 12381 H 1221.42 -0.735645 -1.30033 0
M  V30 12382 H 1223.3 0.588684 -4.17268 0
M  V30 12383 H 1221.97 1.04021 -3.06531 0
M  V30 12384 H 1220.88 -1.22938 -3.53323 0
M  V30 12385 H 1222.21 -1.59887 -4.65507 0
M  V30 12386 N 1223.87 1.39211 -0.738786 0
M  V30 12387 C 1225.1 2.04435 -0.298318 0
M  V30 12388 C 1225.5 1.55822 1.07314 0
M  V30 12389 O 1224.85 0.719922 1.69005 0
M  V30 12390 C 1224.91 3.58789 -0.225979 0
M  V30 12391 C 1224.57 4.30395 -1.53653 0
M  V30 12392 C 1225.57 4.56777 -2.48295 0
M  V30 12393 C 1223.26 4.68869 -1.80187 0
M  V30 12394 C 1225.25 5.20648 -3.67702 0
M  V30 12395 C 1222.94 5.32467 -2.99871 0
M  V30 12396 C 1223.93 5.58289 -3.93449 0
M  V30 12397 O 1223.62 6.20567 -5.1103 0
M  V30 12398 H 1223.35 0.663848 -0.127603 0
M  V30 12399 H 1225.91 1.79171 -1.00433 0
M  V30 12400 H 1224.14 3.82965 0.536164 0
M  V30 12401 H 1225.83 4.05487 0.182996 0
M  V30 12402 H 1226.59 4.27497 -2.29066 0
M  V30 12403 H 1222.47 4.48124 -1.08193 0
M  V30 12404 H 1226.02 5.4072 -4.40759 0
M  V30 12405 H 1221.91 5.61169 -3.18998 0
M  V30 12406 H 1222.68 6.39059 -5.11415 0
M  V30 12407 N 1225.34 0.486708 1.49896 0
M  V30 12408 C 1226.59 -0.0629451 2.02702 0
M  V30 12409 C 1226.92 -1.37956 1.36681 0
M  V30 12410 O 1226.2 -1.88025 0.497678 0
M  V30 12411 C 1226.48 -0.230461 3.59362 0
M  V30 12412 C 1226.33 1.10828 4.35933 0
M  V30 12413 C 1227.65 -0.977785 4.29101 0
M  V30 12414 H 1224.77 -0.0214017 0.736689 0
M  V30 12415 H 1227.41 0.635339 1.79063 0
M  V30 12416 H 1225.56 -0.825222 3.79634 0
M  V30 12417 H 1227.24 1.74082 4.27192 0
M  V30 12418 H 1225.48 1.7011 3.99055 0
M  V30 12419 H 1226.15 0.944532 5.43859 0
M  V30 12420 H 1228.63 -0.473505 4.13397 0
M  V30 12421 H 1227.5 -1.06382 5.38492 0
M  V30 12422 H 1227.76 -2.01813 3.9335 0
M  V30 12423 N 1226.82 -1.56058 0.219941 0
M  V30 12424 C 1228.07 -1.98554 -0.412808 0
M  V30 12425 C 1228.4 -1.10742 -1.5953 0
M  V30 12426 O 1227.68 -0.164757 -1.93801 0
M  V30 12427 C 1227.96 -3.4995 -0.848923 0
M  V30 12428 C 1227.81 -4.48535 0.337094 0
M  V30 12429 C 1229.13 -4.05703 -1.70567 0
M  V30 12430 H 1226.25 -0.721869 -0.148576 0
M  V30 12431 H 1228.89 -1.87356 0.315852 0
M  V30 12432 H 1227.04 -3.59624 -1.46979 0
M  V30 12433 H 1228.72 -4.50874 0.975216 0
M  V30 12434 H 1226.96 -4.22474 0.984798 0
M  V30 12435 H 1227.63 -5.51999 -0.0109665 0
M  V30 12436 H 1230.11 -3.98964 -1.18182 0
M  V30 12437 H 1228.98 -5.11955 -1.97972 0
M  V30 12438 H 1229.24 -3.52487 -2.66844 0
M  V30 12439 N 1228.3 0.053464 -1.57509 0
M  V30 12440 C 1229.72 0.408651 -1.5428 0
M  V30 12441 C 1229.92 1.78086 -0.942735 0
M  V30 12442 O 1228.97 2.46366 -0.553163 0
M  V30 12443 C 1230.29 0.332884 -2.98852 0
M  V30 12444 C 1231.83 0.411745 -3.1028 0
M  V30 12445 C 1232.31 0.365691 -4.56538 0
M  V30 12446 N 1233.8 0.425222 -4.61244 0
M  V30 12447 C 1234.54 0.412093 -5.71917 0
M  V30 12448 N 1234.03 0.352693 -6.91902 0
M  V30 12449 N 1235.82 0.460016 -5.60214 0
M  V30 12450 H 1227.98 -0.844834 -1.94875 0
M  V30 12451 H 1230.24 -0.318888 -0.892757 0
M  V30 12452 H 1229.94 -0.609116 -3.46385 0
M  V30 12453 H 1229.82 1.13605 -3.59686 0
M  V30 12454 H 1232.21 1.34417 -2.62709 0
M  V30 12455 H 1232.29 -0.420333 -2.52323 0
M  V30 12456 H 1231.93 -0.562963 -5.0477 0
M  V30 12457 H 1231.86 1.21555 -5.12379 0
M  V30 12458 H 1234.35 0.474634 -3.74908 0
M  V30 12459 H 1234.66 0.347105 -7.7202 0
M  V30 12460 H 1233.01 0.319104 -6.94267 0
M  V30 12461 H 1236.2 0.504242 -4.65376 0
M  V30 12462 H 1236.37 0.446315 -6.46461 0
M  V30 12463 N 1229.78 1.54207 0.325255 0
M  V30 12464 C 1231.06 1.6298 1.08153 0
M  V30 12465 C 1231.44 0.462583 2.05969 0
M  V30 12466 O 1230.78 -0.543323 2.21947 0
M  V30 12467 C 1230.99 2.999 1.78497 0
M  V30 12468 C 1232.34 3.55888 2.3158 0
M  V30 12469 O 1233.37 3.02194 1.88566 0
M  V30 12470 O 1232.23 4.49847 3.10322 0
M  V30 12471 H 1229.32 0.659923 0.498429 0
M  V30 12472 H 1231.87 1.66553 0.325282 0
M  V30 12473 H 1230.64 3.7629 1.07338 0
M  V30 12474 H 1230.26 2.99997 2.60936 0
M  V30 12475 N 1231.26 -0.58723 1.46251 0
M  V30 12476 C 1232.67 -1.16933 1.45546 0
M  V30 12477 C 1233.02 -1.9524 0.193879 0
M  V30 12478 O 1232.14 -2.04652 -0.70332 0
M  V30 12479 C 1232.74 -2.12723 2.63693 0
M  V30 12480 C 1231.3 -2.66267 2.66043 0
M  V30 12481 C 1230.45 -1.42051 2.38153 0
M  V30 12482 H 1233.4 -0.375411 1.54196 0
M  V30 12483 H 1233.42 -2.96111 2.38953 0
M  V30 12484 H 1232.93 -1.55703 3.55497 0
M  V30 12485 H 1231.03 -3.2717 1.783 0
M  V30 12486 H 1231.14 -3.0931 3.65874 0
M  V30 12487 H 1229.51 -1.71707 1.88119 0
M  V30 12488 H 1230.29 -0.868675 3.32128 0
M  V30 12489 N 1232.74 -1.33881 -0.831482 0
M  V30 12490 C 1233.67 -1.20587 -1.94914 0
M  V30 12491 C 1234.68 -0.135026 -1.62239 0
M  V30 12492 O 1235.87 -0.386116 -1.74274 0
M  V30 12493 C 1232.97 -0.828712 -3.28612 0
M  V30 12494 C 1232.14 -1.99275 -3.89369 0
M  V30 12495 C 1231.2 -1.59537 -5.01432 0
M  V30 12496 O 1230.23 -2.31076 -5.20185 0
M  V30 12497 N 1231.43 -0.5046 -5.78303 0
M  V30 12498 H 1234.19 -2.16869 -2.06852 0
M  V30 12499 H 1231.76 -1.26723 -1.00761 0
M  V30 12500 H 1233.75 -0.544827 -4.01016 0
M  V30 12501 H 1232.32 0.0436534 -3.1257 0
M  V30 12502 H 1231.54 -2.44185 -3.09463 0
M  V30 12503 H 1232.83 -2.77145 -4.26694 0
M  V30 12504 H 1232.22 0.0903105 -5.65628 0
M  V30 12505 H 1230.78 -0.280415 -6.51197 0
M  V30 12506 N 1234.21 1.05064 -1.1747 0
M  V30 12507 C 1235.46 1.77737 -0.961979 0
M  V30 12508 C 1235.78 1.88198 0.510551 0
M  V30 12509 O 1235.05 1.39968 1.37062 0
M  V30 12510 H 1233.63 0.658366 -0.352935 0
M  V30 12511 H 1236.29 1.26851 -1.47969 0
M  V30 12512 H 1235.39 2.79368 -1.39141 0
M  V30 12513 N 1235.69 0.975146 1.23809 0
M  V30 12514 C 1236.94 0.651686 1.92677 0
M  V30 12515 C 1237.29 -0.805298 1.74736 0
M  V30 12516 O 1236.59 -1.5727 1.09438 0
M  V30 12517 C 1236.78 0.971016 3.43956 0
M  V30 12518 C 1236.61 2.45749 3.76613 0
M  V30 12519 C 1235.38 3.11859 3.97583 0
M  V30 12520 C 1237.58 3.43793 3.82506 0
M  V30 12521 N 1235.56 4.50166 4.17401 0
M  V30 12522 C 1236.93 4.67487 4.07254 0
M  V30 12523 C 1238.98 3.38347 3.65274 0
M  V30 12524 C 1237.69 5.86404 4.16561 0
M  V30 12525 C 1239.71 4.56623 3.75831 0
M  V30 12526 C 1239.08 5.7911 4.01012 0
M  V30 12527 H 1235.17 0.289441 0.726463 0
M  V30 12528 H 1237.76 1.25153 1.49147 0
M  V30 12529 H 1235.93 0.399915 3.86336 0
M  V30 12530 H 1237.66 0.605367 4.00147 0
M  V30 12531 H 1234.42 2.62369 3.94283 0
M  V30 12532 H 1234.84 5.21854 4.31274 0
M  V30 12533 H 1239.48 2.44679 3.44807 0
M  V30 12534 H 1237.2 6.80493 4.35838 0
M  V30 12535 H 1240.79 4.53979 3.6386 0
M  V30 12536 H 1239.67 6.69103 4.08988 0
M  V30 12537 N 1237.17 -1.38817 0.746158 0
M  V30 12538 C 1238.42 -2.00577 0.299458 0
M  V30 12539 C 1238.75 -1.59087 -1.11378 0
M  V30 12540 O 1238.02 -0.824932 -1.7614 0
M  V30 12541 C 1238.31 -3.57713 0.413932 0
M  V30 12542 C 1238.16 -4.09189 1.86774 0
M  V30 12543 C 1239.48 -4.39659 -0.197082 0
M  V30 12544 H 1236.6 -0.728702 0.110285 0
M  V30 12545 H 1239.24 -1.64866 0.944408 0
M  V30 12546 H 1237.39 -3.88265 -0.135155 0
M  V30 12547 H 1239.06 -3.89311 2.47456 0
M  V30 12548 H 1237.3 -3.62333 2.38532 0
M  V30 12549 H 1237.98 -5.18305 1.89904 0
M  V30 12550 H 1240.45 -4.15216 0.271121 0
M  V30 12551 H 1239.33 -5.48832 -0.0867011 0
M  V30 12552 H 1239.59 -4.23028 -1.2845 0
M  V30 12553 N 1238.65 -0.49465 -1.49636 0
M  V30 12554 C 1239.61 0.276064 -2.27531 0
M  V30 12555 C 1240.61 0.899619 -1.3328 0
M  V30 12556 O 1241.8 0.765136 -1.56497 0
M  V30 12557 C 1238.93 1.39547 -3.1103 0
M  V30 12558 H 1240.13 -0.407381 -2.9712 0
M  V30 12559 H 1237.68 -0.249416 -1.54297 0
M  V30 12560 H 1238.41 2.11326 -2.45992 0
M  V30 12561 H 1238.2 0.953877 -3.8032 0
M  V30 12562 H 1239.69 1.93853 -3.69879 0
M  V30 12563 N 1240.13 1.55939 -0.228214 0
M  V30 12564 C 1241.37 1.98084 0.400884 0
M  V30 12565 C 1241.69 1.11727 1.59819 0
M  V30 12566 O 1240.96 0.195794 1.94919 0
M  V30 12567 H 1239.54 0.731558 0.151102 0
M  V30 12568 H 1242.21 1.92211 -0.322659 0
M  V30 12569 H 1241.3 3.03617 0.722706 0
M  V30 12570 N 1241.6 -0.0451101 1.57535 0
M  V30 12571 C 1242.55 -1.0692 2.06569 0
M  V30 12572 C 1243.55 -1.38443 0.976218 0
M  V30 12573 O 1244.75 -1.37536 1.1612 0
M  V30 12574 H 1241.13 -0.36226 0.658993 0
M  V30 12575 H 1243.1 -0.629709 2.9168 0
M  V30 12576 C 1241.85 -2.36656 2.54733 0
M  V30 12577 H 1241.17 -2.13257 3.38174 0
M  V30 12578 H 1242.61 -3.06696 2.92769 0
M  V30 12579 C 1241.07 -3.04499 1.4416 0
M  V30 12580 O 1241.6 -3.93679 0.798721 0
M  V30 12581 N 1239.81 -2.6556 1.18009 0
M  V30 12582 H 1239.35 -1.93126 1.7047 0
M  V30 12583 H 1239.31 -3.11272 0.442363 0
M  V30 12584 N 1243.08 -1.54377 -0.317073 0
M  V30 12585 C 1244.01 -1.8721 -1.39552 0
M  V30 12586 C 1244.99 -0.729483 -1.53664 0
M  V30 12587 O 1246.18 -0.983799 -1.67437 0
M  V30 12588 C 1243.31 -2.1052 -2.76222 0
M  V30 12589 C 1242.26 -3.26366 -2.76892 0
M  V30 12590 C 1241.59 -3.35061 -4.16699 0
M  V30 12591 C 1242.89 -4.63862 -2.40061 0
M  V30 12592 H 1244.58 -2.77532 -1.12323 0
M  V30 12593 H 1242.13 -1.33536 -0.538897 0
M  V30 12594 H 1244.08 -2.32073 -3.51739 0
M  V30 12595 H 1242.81 -1.16953 -3.04942 0
M  V30 12596 H 1241.46 -3.0471 -2.03831 0
M  V30 12597 H 1241.11 -2.39041 -4.4257 0
M  V30 12598 H 1240.81 -4.12923 -4.18053 0
M  V30 12599 H 1242.34 -3.58856 -4.94019 0
M  V30 12600 H 1243.75 -4.85252 -3.05292 0
M  V30 12601 H 1242.15 -5.44321 -2.52655 0
M  V30 12602 H 1243.22 -4.6567 -1.35202 0
M  V30 12603 N 1244.56 0.579466 -1.4656 0
M  V30 12604 C 1245.79 1.36837 -1.55854 0
M  V30 12605 C 1246.21 1.87019 -0.20141 0
M  V30 12606 O 1245.57 1.61746 0.81901 0
M  V30 12607 C 1245.62 2.52965 -2.56985 0
M  V30 12608 O 1244.72 3.54505 -2.10713 0
M  V30 12609 H 1244.06 0.407379 -0.524345 0
M  V30 12610 H 1246.59 0.702558 -1.9216 0
M  V30 12611 H 1246.6 2.99838 -2.76697 0
M  V30 12612 H 1245.28 2.15793 -3.55536 0
M  V30 12613 H 1243.85 3.14089 -2.01003 0
M  V30 12614 N 1246.04 1.3432 0.824371 0
M  V30 12615 C 1247 1.25672 1.91675 0
M  V30 12616 C 1248 0.172269 1.59875 0
M  V30 12617 O 1249.19 0.424794 1.68941 0
M  V30 12618 C 1246.32 0.939928 3.27686 0
M  V30 12619 H 1247.52 2.22785 2.00766 0
M  V30 12620 H 1245.07 1.18587 1.01817 0
M  V30 12621 H 1245.8 -0.0280898 3.24288 0
M  V30 12622 H 1245.59 1.72432 3.5215 0
M  V30 12623 H 1247.08 0.904553 4.07686 0
M  V30 12624 N 1247.52 -1.0444 1.18026 0
M  V30 12625 C 1248.93 -1.29766 0.929143 0
M  V30 12626 C 1249.13 -1.97338 -0.407436 0
M  V30 12627 O 1248.19 -2.25166 -1.14265 0
M  V30 12628 C 1249.5 -2.16002 2.09197 0
M  V30 12629 C 1251.05 -2.29361 2.12985 0
M  V30 12630 C 1251.52 -3.18962 3.28675 0
M  V30 12631 N 1253.02 -3.26549 3.28512 0
M  V30 12632 C 1253.75 -3.96025 4.14671 0
M  V30 12633 N 1253.25 -4.67863 5.10956 0
M  V30 12634 N 1255.04 -3.92266 4.02597 0
M  V30 12635 H 1247.19 -0.58984 2.04046 0
M  V30 12636 H 1249.45 -0.322752 0.891367 0
M  V30 12637 H 1249.16 -1.73653 3.05839 0
M  V30 12638 H 1249.03 -3.16667 2.04943 0
M  V30 12639 H 1251.42 -2.70948 1.16924 0
M  V30 12640 H 1251.5 -1.28299 2.21298 0
M  V30 12641 H 1251.15 -2.78087 4.25006 0
M  V30 12642 H 1251.08 -4.20047 3.17598 0
M  V30 12643 H 1253.57 -2.75371 2.58804 0
M  V30 12644 H 1253.88 -5.1846 5.73079 0
M  V30 12645 H 1252.22 -4.6678 5.14919 0
M  V30 12646 H 1255.42 -3.35273 3.26665 0
M  V30 12647 H 1255.59 -4.4614 4.69961 0
M  V30 12648 N 1248.99 -0.981699 -1.2329 0
M  V30 12649 C 1250.24 -0.650015 -1.91361 0
M  V30 12650 C 1250.56 0.819184 -1.76959 0
M  V30 12651 O 1249.83 1.5861 -1.14977 0
M  V30 12652 H 1248.41 -0.237427 -0.708264 0
M  V30 12653 H 1251.08 -1.24579 -1.49887 0
M  V30 12654 H 1250.17 -0.902772 -2.98758 0
M  V30 12655 N 1250.47 1.3842 -0.753509 0
M  V30 12656 C 1251.75 1.94181 -0.235142 0
M  V30 12657 C 1252.13 1.68881 1.26659 0
M  V30 12658 O 1251.48 1.02731 2.04104 0
M  V30 12659 C 1251.69 3.43998 -0.588751 0
M  V30 12660 C 1253.04 4.21044 -0.548352 0
M  V30 12661 O 1254.06 3.52279 -0.52704 0
M  V30 12662 O 1252.92 5.43631 -0.559221 0
M  V30 12663 H 1250.01 0.825536 -0.0491834 0
M  V30 12664 H 1252.56 1.47813 -0.833626 0
M  V30 12665 H 1251.33 3.55921 -1.6259 0
M  V30 12666 H 1250.95 3.97582 0.0377429 0
M  V30 12667 N 1251.95 0.502579 1.49372 0
M  V30 12668 C 1253.2 -0.0412993 2.02058 0
M  V30 12669 C 1253.52 -1.37338 1.38431 0
M  V30 12670 O 1252.79 -1.88305 0.540175 0
M  V30 12671 H 1251.37 -0.0182522 0.746777 0
M  V30 12672 H 1254.03 0.660179 1.83378 0
M  V30 12673 H 1253.13 -0.169812 3.11638 0
M  V30 12674 N 1253.43 -1.55816 0.23648 0
M  V30 12675 C 1254.39 -2.1967 -0.654041 0
M  V30 12676 C 1255.39 -1.1629 -1.11056 0
M  V30 12677 O 1256.58 -1.41435 -1.01695 0
M  V30 12678 C 1253.71 -2.83196 -1.89771 0
M  V30 12679 H 1254.91 -2.99743 -0.0970911 0
M  V30 12680 H 1252.46 -1.56295 -0.013098 0
M  V30 12681 H 1253.19 -2.07033 -2.49616 0
M  V30 12682 H 1252.98 -3.58915 -1.57868 0
M  V30 12683 H 1254.47 -3.32095 -2.53184 0
M  V30 12684 N 1254.91 0.036755 -1.57557 0
M  V30 12685 C 1255.87 1.02435 -2.05036 0
M  V30 12686 C 1256.87 1.29506 -0.953146 0
M  V30 12687 O 1258.06 1.24638 -1.217 0
M  V30 12688 C 1255.19 2.3592 -2.46079 0
M  V30 12689 H 1256.38 0.614384 -2.93539 0
M  V30 12690 H 1253.94 0.283396 -1.53709 0
M  V30 12691 H 1254.67 2.8168 -1.60708 0
M  V30 12692 H 1254.46 2.17603 -3.26177 0
M  V30 12693 H 1255.95 3.06839 -2.83266 0
M  V30 12694 N 1256.39 1.54543 0.308881 0
M  V30 12695 C 1257.63 1.73107 1.043 0
M  V30 12696 C 1257.95 0.515481 1.88063 0
M  V30 12697 O 1257.22 -0.47036 1.90169 0
M  V30 12698 H 1255.8 0.638289 0.388068 0
M  V30 12699 H 1258.47 1.9188 0.341769 0
M  V30 12700 H 1257.56 2.61697 1.70063 0
M  V30 12701 N 1257.86 -0.571685 1.46866 0
M  V30 12702 C 1259.11 -1.32948 1.52745 0
M  V30 12703 C 1259.44 -1.93631 0.183694 0
M  V30 12704 O 1258.69 -1.77605 -0.821886 0
M  V30 12705 C 1258.99 -2.47051 2.58264 0
M  V30 12706 C 1258.66 -2.04291 4.01965 0
M  V30 12707 C 1257.32 -1.92345 4.41086 0
M  V30 12708 C 1259.67 -1.71458 4.9219 0
M  V30 12709 C 1257 -1.4584 5.68285 0
M  V30 12710 C 1259.35 -1.26429 6.19837 0
M  V30 12711 C 1258.02 -1.13068 6.57854 0
M  V30 12712 H 1257.29 -0.48649 0.558935 0
M  V30 12713 H 1259.93 -0.642618 1.80396 0
M  V30 12714 H 1258.24 -3.21231 2.24316 0
M  V30 12715 H 1259.94 -3.05254 2.6004 0
M  V30 12716 H 1256.53 -2.14527 3.71047 0
M  V30 12717 H 1260.71 -1.79567 4.62676 0
M  V30 12718 H 1255.97 -1.34148 5.96502 0
M  V30 12719 H 1260.14 -1.00081 6.89171 0
M  V30 12720 H 1257.77 -0.768094 7.5631 0
M  V30 12721 N 1259.34 -1.34755 -0.817236 0
M  V30 12722 C 1260.57 -1.30522 -1.60536 0
M  V30 12723 C 1260.98 0.119541 -1.88421 0
M  V30 12724 O 1260.34 1.06833 -1.47962 0
M  V30 12725 C 1260.39 -2.09939 -2.94292 0
M  V30 12726 O 1260.11 -3.46858 -2.67621 0
M  V30 12727 C 1261.61 -2.13168 -3.88683 0
M  V30 12728 H 1258.83 -0.448789 -0.498828 0
M  V30 12729 H 1261.38 -1.77453 -1.01639 0
M  V30 12730 H 1259.53 -1.66634 -3.49731 0
M  V30 12731 H 1259.95 -3.87979 -3.52949 0
M  V30 12732 H 1261.42 -2.73147 -4.79682 0
M  V30 12733 H 1261.9 -1.12758 -4.24479 0
M  V30 12734 H 1262.5 -2.56587 -3.39181 0
M  V30 12735 N 1260.82 1.03812 -1.18578 0
M  V30 12736 C 1261.75 2.13802 -0.938665 0
M  V30 12737 C 1262.73 1.69643 0.124575 0
M  V30 12738 O 1263.92 1.94179 -0.0285421 0
M  V30 12739 C 1261.05 3.44154 -0.466392 0
M  V30 12740 C 1260 4.01949 -1.47041 0
M  V30 12741 C 1259.33 5.27811 -0.855558 0
M  V30 12742 C 1260.63 4.37827 -2.84789 0
M  V30 12743 H 1262.32 2.34732 -1.85852 0
M  V30 12744 H 1259.87 1.12808 -0.895007 0
M  V30 12745 H 1261.82 4.20463 -0.280856 0
M  V30 12746 H 1260.54 3.22918 0.489041 0
M  V30 12747 H 1259.2 3.27725 -1.64293 0
M  V30 12748 H 1258.85 5.02886 0.107142 0
M  V30 12749 H 1258.55 5.67441 -1.52592 0
M  V30 12750 H 1260.07 6.06795 -0.680609 0
M  V30 12751 H 1261.49 5.05112 -2.71173 0
M  V30 12752 H 1259.88 4.88514 -3.48532 0
M  V30 12753 H 1260.95 3.47541 -3.38147 0
M  V30 12754 N 1262.3 0.988223 1.22768 0
M  V30 12755 C 1263.71 0.697281 1.7319 0
M  V30 12756 C 1264.06 -0.786111 1.79763 0
M  V30 12757 O 1263.18 -1.61465 1.44077 0
M  V30 12758 C 1263.78 1.25905 3.14537 0
M  V30 12759 C 1262.34 1.01759 3.62384 0
M  V30 12760 C 1261.49 1.38207 2.40404 0
M  V30 12761 H 1264.44 1.16114 1.08181 0
M  V30 12762 H 1264.46 0.635315 3.75159 0
M  V30 12763 H 1263.97 2.33869 3.09721 0
M  V30 12764 H 1262.07 -0.045627 3.72572 0
M  V30 12765 H 1262.18 1.67767 4.48766 0
M  V30 12766 H 1260.55 0.800607 2.4179 0
M  V30 12767 H 1261.33 2.47165 2.38253 0
M  V30 12768 N 1263.78 -1.38018 0.760839 0
M  V30 12769 C 1265.02 -1.99557 0.319609 0
M  V30 12770 C 1265.34 -1.60699 -1.10457 0
M  V30 12771 O 1264.61 -0.867248 -1.75658 0
M  V30 12772 H 1263.19 -0.738066 0.115182 0
M  V30 12773 H 1265.86 -1.6867 0.976544 0
M  V30 12774 H 1264.95 -3.09672 0.388523 0
M  V30 12775 N 1265.25 -0.510493 -1.49103 0
M  V30 12776 C 1266.5 0.0306436 -2.02477 0
M  V30 12777 C 1266.83 1.36113 -1.38937 0
M  V30 12778 O 1266.08 1.88731 -0.517584 0
M  V30 12779 C 1266.38 0.221921 -3.5671 0
M  V30 12780 C 1266.05 -1.03176 -4.38937 0
M  V30 12781 C 1264.71 -1.37539 -4.61125 0
M  V30 12782 C 1267.06 -1.86464 -4.86704 0
M  V30 12783 C 1264.39 -2.55124 -5.28326 0
M  V30 12784 C 1266.74 -3.03211 -5.55199 0
M  V30 12785 C 1265.41 -3.37943 -5.75631 0
M  V30 12786 H 1264.68 0.0112133 -0.740915 0
M  V30 12787 H 1267.32 -0.672574 -1.79301 0
M  V30 12788 H 1265.63 1.00775 -3.78618 0
M  V30 12789 H 1267.33 0.655223 -3.95611 0
M  V30 12790 H 1263.92 -0.754105 -4.21914 0
M  V30 12791 H 1268.1 -1.61229 -4.69381 0
M  V30 12792 H 1263.36 -2.8226 -5.42346 0
M  V30 12793 H 1267.53 -3.68068 -5.91185 0
M  V30 12794 H 1265.16 -4.29158 -6.27477 0
M  V30 12795 N 1266.73 1.55688 -0.24474 0
M  V30 12796 C 1268.15 1.59219 0.110159 0
M  V30 12797 C 1268.35 1.26187 1.57096 0
M  V30 12798 O 1267.4 1.00815 2.31501 0
M  V30 12799 C 1268.72 2.99764 -0.237075 0
M  V30 12800 C 1270.26 3.12475 -0.181198 0
M  V30 12801 C 1270.74 4.55236 -0.502435 0
M  V30 12802 N 1272.23 4.60981 -0.452855 0
M  V30 12803 C 1272.97 5.69418 -0.674605 0
M  V30 12804 N 1272.46 6.86125 -0.959366 0
M  V30 12805 N 1274.25 5.5883 -0.605459 0
M  V30 12806 H 1266.41 1.7543 -1.19741 0
M  V30 12807 H 1268.67 0.816537 -0.481634 0
M  V30 12808 H 1268.37 3.28666 -1.25185 0
M  V30 12809 H 1268.25 3.74662 0.436859 0
M  V30 12810 H 1270.64 2.83355 0.824248 0
M  V30 12811 H 1270.72 2.39857 -0.888952 0
M  V30 12812 H 1270.36 4.85077 -1.50543 0
M  V30 12813 H 1270.29 5.26111 0.226773 0
M  V30 12814 H 1272.78 3.77128 -0.241401 0
M  V30 12815 H 1273.09 7.64699 -1.11605 0
M  V30 12816 H 1271.44 6.87814 -0.996816 0
M  V30 12817 H 1274.63 4.6653 -0.383053 0
M  V30 12818 H 1274.8 6.43268 -0.781673 0
M  V30 12819 N 1268.21 -0.0283989 1.57574 0
M  V30 12820 C 1269.46 -0.719077 1.89303 0
M  V30 12821 C 1269.78 -1.75325 0.84211 0
M  V30 12822 O 1269.04 -1.95071 -0.15683 0
M  V30 12823 C 1269.34 -1.4247 3.27776 0
M  V30 12824 C 1269 -0.526442 4.47816 0
M  V30 12825 C 1267.67 -0.279038 4.8039 0
M  V30 12826 C 1270.02 0.0937038 5.21116 0
M  V30 12827 C 1267.35 0.597277 5.83652 0
M  V30 12828 C 1269.7 0.957725 6.25308 0
M  V30 12829 C 1268.36 1.21458 6.56357 0
M  V30 12830 H 1267.63 -0.263129 0.692708 0
M  V30 12831 H 1270.28 0.0210252 1.91488 0
M  V30 12832 H 1268.58 -2.23813 3.21582 0
M  V30 12833 H 1270.28 -1.96466 3.49574 0
M  V30 12834 H 1266.87 -0.729426 4.22347 0
M  V30 12835 H 1271.06 -0.084469 4.96228 0
M  V30 12836 H 1266.31 0.804582 6.06083 0
M  V30 12837 H 1270.49 1.44476 6.81249 0
M  V30 12838 H 1268.11 1.89534 7.36193 0
M  V30 12839 N 1269.69 -1.54705 -0.300681 0
M  V30 12840 C 1270.62 -1.88679 -1.37559 0
M  V30 12841 C 1271.6 -0.74574 -1.52881 0
M  V30 12842 O 1272.78 -1.0015 -1.66384 0
M  V30 12843 C 1269.91 -2.13438 -2.73974 0
M  V30 12844 C 1268.87 -3.29284 -2.73415 0
M  V30 12845 C 1268.19 -3.39462 -4.13122 0
M  V30 12846 C 1269.49 -4.66382 -2.35128 0
M  V30 12847 H 1271.19 -2.78707 -1.09373 0
M  V30 12848 H 1268.73 -1.341 -0.524704 0
M  V30 12849 H 1270.69 -2.35791 -3.49257 0
M  V30 12850 H 1269.41 -1.20181 -3.03684 0
M  V30 12851 H 1268.07 -3.06855 -2.00588 0
M  V30 12852 H 1267.72 -2.43721 -4.4001 0
M  V30 12853 H 1267.42 -4.17334 -4.1365 0
M  V30 12854 H 1268.94 -3.64075 -4.90185 0
M  V30 12855 H 1270.36 -4.88463 -3.00128 0
M  V30 12856 H 1268.75 -5.4697 -2.46867 0
M  V30 12857 H 1269.82 -4.67078 -1.30256 0
M  V30 12858 N 1271.17 0.563888 -1.47167 0
M  V30 12859 C 1272.58 1.14603 -1.47388 0
M  V30 12860 C 1272.93 1.94907 -0.224916 0
M  V30 12861 O 1272.05 2.05745 0.670672 0
M  V30 12862 C 1272.65 2.08501 -2.67044 0
M  V30 12863 C 1271.21 2.62 -2.70246 0
M  V30 12864 C 1270.35 1.38244 -2.40383 0
M  V30 12865 H 1273.31 0.350833 -1.54774 0
M  V30 12866 H 1273.33 2.92272 -2.43634 0
M  V30 12867 H 1272.84 1.50027 -3.57929 0
M  V30 12868 H 1270.94 3.24292 -1.83482 0
M  V30 12869 H 1271.05 3.0345 -3.70749 0
M  V30 12870 H 1269.42 1.68692 -1.90827 0
M  V30 12871 H 1270.2 0.815726 -3.33468 0
M  V30 12872 N 1272.64 1.35187 0.810078 0
M  V30 12873 C 1274.06 1.25329 1.38381 0
M  V30 12874 C 1274.41 -0.115799 1.95858 0
M  V30 12875 O 1273.53 -1.01663 1.91033 0
M  V30 12876 C 1274.13 2.2693 2.51572 0
M  V30 12877 C 1272.69 2.20824 3.04818 0
M  V30 12878 C 1271.83 2.1283 1.7776 0
M  V30 12879 H 1274.78 1.46366 0.613402 0
M  V30 12880 H 1274.8 1.89375 3.30026 0
M  V30 12881 H 1274.32 3.26563 2.09709 0
M  V30 12882 H 1272.42 1.24589 3.51153 0
M  V30 12883 H 1272.53 3.12637 3.63036 0
M  V30 12884 H 1270.89 1.58752 1.99173 0
M  V30 12885 H 1271.68 3.14318 1.38054 0
M  V30 12886 N 1274.12 -1.03182 1.19127 0
M  V30 12887 C 1275.53 -1.57984 0.994888 0
M  V30 12888 C 1275.88 -1.90898 -0.453019 0
M  V30 12889 O 1275.01 -1.70556 -1.33191 0
M  V30 12890 C 1275.6 -2.8705 1.79966 0
M  V30 12891 C 1274.16 -3.38435 1.64737 0
M  V30 12892 C 1273.31 -2.11912 1.78854 0
M  V30 12893 H 1276.26 -0.857458 1.33542 0
M  V30 12894 H 1276.28 -3.57821 1.294 0
M  V30 12895 H 1275.79 -2.63062 2.85341 0
M  V30 12896 H 1273.9 -3.67416 0.619358 0
M  V30 12897 H 1274.01 -4.11665 2.45089 0
M  V30 12898 H 1272.37 -2.23642 1.21886 0
M  V30 12899 H 1273.16 -1.90369 2.85682 0
M  V30 12900 N 1275.6 -0.99472 -1.22242 0
M  V30 12901 C 1276.55 -0.517696 -2.22045 0
M  V30 12902 C 1277.53 0.415108 -1.55453 0
M  V30 12903 O 1278.73 0.241632 -1.75343 0
M  V30 12904 C 1275.86 0.164524 -3.42906 0
M  V30 12905 C 1274.94 -0.788692 -4.16702 0
M  V30 12906 N 1275.33 -1.93729 -4.67229 0
M  V30 12907 C 1273.63 -0.604946 -4.41878 0
M  V30 12908 C 1274.33 -2.53573 -5.23522 0
M  V30 12909 N 1273.31 -1.81825 -5.12289 0
M  V30 12910 H 1277.11 -1.39368 -2.58754 0
M  V30 12911 H 1274.62 -0.857215 -1.37933 0
M  V30 12912 H 1276.62 0.523668 -4.13598 0
M  V30 12913 H 1275.28 1.03662 -3.07708 0
M  V30 12914 H 1276.29 -2.31802 -4.63129 0
M  V30 12915 H 1272.97 0.220932 -4.16915 0
M  V30 12916 H 1274.36 -3.50653 -5.73142 0
M  V30 12917 N 1277.08 1.37613 -0.768148 0
M  V30 12918 C 1278.49 1.82437 -0.396703 0
M  V30 12919 C 1278.84 1.64019 1.07668 0
M  V30 12920 O 1277.97 1.14932 1.83356 0
M  V30 12921 C 1278.56 3.31207 -0.713265 0
M  V30 12922 C 1277.12 3.74323 -0.39492 0
M  V30 12923 C 1276.27 2.60191 -0.958962 0
M  V30 12924 H 1279.22 1.26135 -0.963099 0
M  V30 12925 H 1279.24 3.805 0.00337228 0
M  V30 12926 H 1278.75 3.4458 -1.78567 0
M  V30 12927 H 1276.85 3.66521 0.670313 0
M  V30 12928 H 1276.96 4.70558 -0.900653 0
M  V30 12929 H 1275.33 2.51797 -0.383423 0
M  V30 12930 H 1276.11 2.76358 -2.03669 0
M  V30 12931 N 1278.56 0.518393 1.4883 0
M  V30 12932 C 1279.97 0.0749773 1.86549 0
M  V30 12933 C 1280.32 -1.34429 1.4291 0
M  V30 12934 O 1279.44 -2.00481 0.814648 0
M  V30 12935 C 1280.04 0.129289 3.38553 0
M  V30 12936 C 1278.6 -0.258871 3.75509 0
M  V30 12937 C 1277.74 0.494185 2.72861 0
M  V30 12938 H 1280.7 0.730266 1.409 0
M  V30 12939 H 1280.72 -0.661844 3.747 0
M  V30 12940 H 1280.23 1.16237 3.70285 0
M  V30 12941 H 1278.33 -1.29453 3.49389 0
M  V30 12942 H 1278.44 0.0726769 4.79045 0
M  V30 12943 H 1276.81 -0.0581428 2.54634 0
M  V30 12944 H 1277.59 1.52767 3.07436 0
M  V30 12945 N 1280.03 -1.55556 0.252993 0
M  V30 12946 C 1281.26 -2.03945 -0.376965 0
M  V30 12947 C 1281.68 -1.13089 -1.50308 0
M  V30 12948 O 1281.04 -0.125039 -1.80868 0
M  V30 12949 C 1281.09 -3.50284 -0.856363 0
M  V30 12950 O 1280.19 -3.62551 -1.96546 0
M  V30 12951 H 1279.54 -0.659002 -0.081317 0
M  V30 12952 H 1282.07 -2.01024 0.380831 0
M  V30 12953 H 1282.08 -3.91222 -1.15798 0
M  V30 12954 H 1280.75 -4.15887 -0.0323302 0
M  V30 12955 H 1279.33 -3.33511 -1.66808 0
M  V30 12956 N 1281.51 0.0200419 -1.57587 0
M  V30 12957 C 1282.48 1.00255 -2.06111 0
M  V30 12958 C 1283.48 1.28488 -0.966829 0
M  V30 12959 O 1284.67 1.2334 -1.23015 0
M  V30 12960 C 1281.8 2.33296 -2.48567 0
M  V30 12961 H 1282.99 0.583216 -2.94174 0
M  V30 12962 H 1280.54 0.267077 -1.54001 0
M  V30 12963 H 1281.28 2.79959 -1.63687 0
M  V30 12964 H 1281.06 2.14131 -3.28467 0
M  V30 12965 H 1282.55 3.03817 -2.86505 0
M  V30 12966 N 1282.99 1.54862 0.292472 0
M  V30 12967 C 1283.94 1.87168 1.38097 0
M  V30 12968 C 1284.93 0.746176 1.52081 0
M  V30 12969 O 1286.14 0.930281 1.54097 0
M  V30 12970 H 1282.51 0.593769 0.461456 0
M  V30 12971 H 1284.48 2.78135 1.0809 0
M  V30 12972 C 1283.23 2.14315 2.73796 0
M  V30 12973 H 1282.56 3.00398 2.63821 0
M  V30 12974 H 1284 2.40853 3.48949 0
M  V30 12975 C 1282.46 0.944424 3.23392 0
M  V30 12976 O 1282.99 0.169208 4.01343 0
M  V30 12977 N 1281.19 0.747456 2.80823 0
M  V30 12978 H 1280.74 1.37953 2.17547 0
M  V30 12979 H 1280.7 -0.0530199 3.14355 0
M  V30 12980 N 1284.47 -0.556076 1.47464 0
M  V30 12981 C 1285.4 -1.67275 1.62915 0
M  V30 12982 C 1286.38 -1.63229 0.478562 0
M  V30 12983 O 1287.56 -1.80833 0.708032 0
M  V30 12984 C 1284.69 -3.05911 1.64426 0
M  V30 12985 C 1283.65 -3.24804 2.78722 0
M  V30 12986 C 1282.97 -4.64238 2.65307 0
M  V30 12987 C 1284.27 -3.10071 4.20302 0
M  V30 12988 H 1285.97 -1.54601 2.56396 0
M  V30 12989 H 1283.51 -0.742337 1.23391 0
M  V30 12990 H 1285.47 -3.83878 1.73826 0
M  V30 12991 H 1284.19 -3.19547 0.675053 0
M  V30 12992 H 1282.85 -2.49246 2.68835 0
M  V30 12993 H 1282.5 -4.74675 1.66412 0
M  V30 12994 H 1282.2 -4.77828 3.41986 0
M  V30 12995 H 1283.72 -5.44339 2.76637 0
M  V30 12996 H 1285.14 -3.77855 4.3116 0
M  V30 12997 H 1283.53 -3.3517 4.97776 0
M  V30 12998 H 1284.6 -2.06803 4.38589 0
M  V30 12999 N 1285.95 -1.35615 -0.802897 0
M  V30 13000 C 1287.19 -1.29285 -1.56247 0
M  V30 13001 C 1287.53 0.131474 -1.93754 0
M  V30 13002 O 1286.8 1.08172 -1.61645 0
M  V30 13003 C 1287.08 -2.20285 -2.84863 0
M  V30 13004 C 1286.94 -3.71351 -2.53808 0
M  V30 13005 C 1288.26 -2.10318 -3.86593 0
M  V30 13006 H 1285.38 -0.470972 -0.566882 0
M  V30 13007 H 1288.02 -1.66048 -0.923469 0
M  V30 13008 H 1286.17 -1.89063 -3.39393 0
M  V30 13009 H 1287.84 -4.13031 -2.05433 0
M  V30 13010 H 1286.08 -3.9145 -1.86947 0
M  V30 13011 H 1286.75 -4.30416 -3.4561 0
M  V30 13012 H 1289.23 -2.37772 -3.41473 0
M  V30 13013 H 1288.11 -2.76183 -4.74357 0
M  V30 13014 H 1288.37 -1.08627 -4.28547 0
M  V30 13015 N 1287.43 1.02549 -1.19673 0
M  V30 13016 C 1288.84 1.57454 -1.00325 0
M  V30 13017 C 1289.19 1.91136 0.442889 0
M  V30 13018 O 1288.31 1.7126 1.32284 0
M  V30 13019 C 1288.91 2.86091 -1.81486 0
M  V30 13020 C 1287.47 3.37557 -1.6653 0
M  V30 13021 C 1286.61 2.1096 -1.79975 0
M  V30 13022 H 1289.56 0.850364 -1.33994 0
M  V30 13023 H 1289.59 3.5713 -1.31296 0
M  V30 13024 H 1289.1 2.61546 -2.86733 0
M  V30 13025 H 1287.2 3.67083 -0.638834 0
M  V30 13026 H 1287.31 4.1036 -2.47269 0
M  V30 13027 H 1285.68 2.22993 -1.23071 0
M  V30 13028 H 1286.46 1.88852 -2.86688 0
M  V30 13029 N 1288.9 1.00119 1.21713 0
M  V30 13030 C 1289.83 0.578504 2.2622 0
M  V30 13031 C 1290.81 -0.398777 1.6536 0
M  V30 13032 O 1292 -0.287596 1.92059 0
M  V30 13033 C 1289.13 -0.0994508 3.47158 0
M  V30 13034 C 1288.08 0.79722 4.2051 0
M  V30 13035 C 1287.41 -0.0141125 5.34698 0
M  V30 13036 C 1288.71 2.09802 4.7831 0
M  V30 13037 H 1290.4 1.45208 2.6183 0
M  V30 13038 H 1287.95 0.699656 1.2586 0
M  V30 13039 H 1289.9 -0.406605 4.19434 0
M  V30 13040 H 1288.63 -1.00763 3.10667 0
M  V30 13041 H 1287.29 1.08814 3.50079 0
M  V30 13042 H 1286.93 -0.923468 4.9445 0
M  V30 13043 H 1286.63 0.582883 5.84702 0
M  V30 13044 H 1288.16 -0.31517 6.09786 0
M  V30 13045 H 1289.57 1.85427 5.42485 0
M  V30 13046 H 1287.97 2.64455 5.38687 0
M  V30 13047 H 1289.04 2.77132 3.97902 0
M  V30 13048 N 1290.38 -1.37203 0.775435 0
M  V30 13049 C 1291.33 -2.30228 0.162388 0
M  V30 13050 C 1292.3 -1.51284 -0.685747 0
M  V30 13051 O 1293.48 -1.7984 -0.637342 0
M  V30 13052 C 1290.62 -3.37762 -0.707858 0
M  V30 13053 C 1289.74 -4.31714 0.157287 0
M  V30 13054 C 1288.87 -5.26325 -0.718012 0
M  V30 13055 C 1287.91 -6.11918 0.149442 0
M  V30 13056 N 1287.05 -6.9876 -0.684043 0
M  V30 13057 H 1291.89 -2.82073 0.961184 0
M  V30 13058 H 1289.42 -1.38854 0.485587 0
M  V30 13059 H 1291.38 -3.98741 -1.22726 0
M  V30 13060 H 1290.01 -2.87273 -1.47222 0
M  V30 13061 H 1289.06 -3.7201 0.794533 0
M  V30 13062 H 1290.38 -4.91909 0.826262 0
M  V30 13063 H 1289.53 -5.92526 -1.30376 0
M  V30 13064 H 1288.27 -4.6655 -1.42066 0
M  V30 13065 H 1287.27 -5.44692 0.747697 0
M  V30 13066 H 1288.5 -6.73766 0.849476 0
M  V30 13067 H 1286.45 -6.41508 -1.37124 0
M  V30 13068 H 1286.36 -7.55965 -0.0724464 0
M  V30 13069 H 1287.63 -7.69346 -1.25407 0
M  V30 13070 N 1291.86 -0.526279 -1.48553 0
M  V30 13071 C 1293.27 -0.0848694 -1.86507 0
M  V30 13072 C 1293.62 1.3367 -1.43621 0
M  V30 13073 O 1292.75 2.00046 -0.825268 0
M  V30 13074 C 1293.34 -0.147241 -3.3848 0
M  V30 13075 C 1291.9 0.238954 -3.75641 0
M  V30 13076 C 1291.05 -0.508648 -2.72595 0
M  V30 13077 H 1294 -0.737728 -1.40511 0
M  V30 13078 H 1294.02 0.641964 -3.75045 0
M  V30 13079 H 1293.53 -1.18199 -3.69663 0
M  V30 13080 H 1291.63 1.27598 -3.50071 0
M  V30 13081 H 1291.75 -0.0980808 -4.79 0
M  V30 13082 H 1290.11 0.0446382 -2.54661 0
M  V30 13083 H 1290.89 -1.54395 -3.06622 0
M  V30 13084 N 1293.34 1.5542 -0.261239 0
M  V30 13085 C 1294.25 2.25627 0.642625 0
M  V30 13086 C 1295.26 1.27732 1.18155 0
M  V30 13087 O 1296.44 1.60639 1.21479 0
M  V30 13088 C 1293.5 2.95303 1.8165 0
M  V30 13089 C 1292.57 4.08644 1.31563 0
M  V30 13090 C 1291.8 4.74988 2.43355 0
M  V30 13091 O 1292.02 4.40474 3.62407 0
M  V30 13092 O 1290.96 5.63217 2.12299 0
M  V30 13093 H 1294.78 3.03609 0.0743091 0
M  V30 13094 H 1292.37 1.49372 -0.0291754 0
M  V30 13095 H 1294.25 3.3914 2.50125 0
M  V30 13096 H 1292.92 2.2025 2.37217 0
M  V30 13097 H 1291.83 3.69294 0.597746 0
M  V30 13098 H 1293.16 4.85558 0.805878 0
M  V30 13099 N 1294.82 -0.0116844 1.57596 0
M  V30 13100 C 1295.73 -1.02342 2.111 0
M  V30 13101 C 1296.74 -1.38478 1.05355 0
M  V30 13102 O 1297.92 -1.47447 1.37191 0
M  V30 13103 C 1294.98 -2.30016 2.5941 0
M  V30 13104 C 1294.04 -2.003 3.79708 0
M  V30 13105 C 1293.28 -3.21888 4.25704 0
M  V30 13106 O 1293.5 -4.33171 3.71106 0
M  V30 13107 O 1292.43 -3.0657 5.17975 0
M  V30 13108 H 1296.26 -0.598637 2.97742 0
M  V30 13109 H 1293.84 -0.229779 1.47622 0
M  V30 13110 H 1295.73 -3.05044 2.90733 0
M  V30 13111 H 1294.4 -2.71755 1.75871 0
M  V30 13112 H 1293.31 -1.22785 3.53376 0
M  V30 13113 H 1294.64 -1.63406 4.64284 0
M  V30 13114 N 1296.29 -1.55015 -0.284256 0
M  V30 13115 C 1297.24 -1.83508 -1.3531 0
M  V30 13116 C 1298.23 -0.693244 -1.452 0
M  V30 13117 O 1299.42 -0.954312 -1.4907 0
M  V30 13118 C 1296.55 -2.10059 -2.71533 0
M  V30 13119 C 1295.63 -3.30472 -2.65799 0
M  V30 13120 N 1296.03 -4.50644 -2.29682 0
M  V30 13121 C 1294.32 -3.32836 -2.96878 0
M  V30 13122 C 1295.02 -5.32708 -2.33661 0
M  V30 13123 N 1294 -4.70837 -2.71687 0
M  V30 13124 H 1297.8 -2.73973 -1.06377 0
M  V30 13125 H 1295.32 -1.5474 -0.492875 0
M  V30 13126 H 1297.31 -2.28624 -3.48621 0
M  V30 13127 H 1295.97 -1.20872 -3.01364 0
M  V30 13128 H 1296.98 -4.76945 -2.0185 0
M  V30 13129 H 1293.66 -2.53807 -3.31494 0
M  V30 13130 H 1295.05 -6.38766 -2.08394 0
M  V30 13131 N 1297.77 0.548248 -1.47757 0
M  V30 13132 C 1298.73 1.63666 -1.60456 0
M  V30 13133 C 1299.73 1.53499 -0.479028 0
M  V30 13134 O 1300.92 1.57497 -0.744342 0
M  V30 13135 C 1298.06 3.03239 -1.55754 0
M  V30 13136 H 1299.25 1.53752 -2.57488 0
M  V30 13137 H 1296.8 0.768881 -1.36081 0
M  V30 13138 H 1297.54 3.18677 -0.601303 0
M  V30 13139 H 1297.32 3.12027 -2.37448 0
M  V30 13140 H 1298.81 3.82406 -1.67797 0
M  V30 13141 N 1299.25 1.36039 0.795694 0
M  V30 13142 C 1300.5 1.29251 1.54845 0
M  V30 13143 C 1300.81 -0.127926 1.95181 0
M  V30 13144 O 1302.02 -0.318141 2.6963 0
M  V30 13145 C 1300.47 2.26736 2.79497 0
M  V30 13146 C 1300.08 3.74183 2.46355 0
M  V30 13147 C 1301.83 2.28913 3.5749 0
M  V30 13148 C 1299.73 4.63462 3.67365 0
M  V30 13149 H 1298.66 0.48027 0.581255 0
M  V30 13150 H 1301.31 1.61366 0.873693 0
M  V30 13151 H 1299.7 1.87608 3.4874 0
M  V30 13152 H 1300.87 4.22011 1.8505 0
M  V30 13153 H 1299.18 3.7472 1.81586 0
M  V30 13154 H 1301.78 2.92828 4.47388 0
M  V30 13155 H 1302.12 1.2959 3.95616 0
M  V30 13156 H 1302.66 2.66627 2.9522 0
M  V30 13157 H 1299.4 5.63824 3.34339 0
M  V30 13158 H 1298.92 4.20354 4.27858 0
M  V30 13159 H 1300.6 4.79424 4.34467 0
M  V30 13160 N 1300.73 -1.01913 1.20215 0
M  V30 13161 C 1301.68 -2.104 0.948708 0
M  V30 13162 C 1302.65 -1.65665 -0.120139 0
M  V30 13163 O 1303.83 -1.90785 0.0240547 0
M  V30 13164 C 1300.97 -3.41398 0.504132 0
M  V30 13165 C 1300.08 -3.99625 1.64085 0
M  V30 13166 C 1299.22 -5.18673 1.14683 0
M  V30 13167 C 1298.26 -5.68977 2.2568 0
M  V30 13168 N 1297.39 -6.79289 1.77514 0
M  V30 13169 H 1302.23 -2.31415 1.87753 0
M  V30 13170 H 1299.77 -1.13487 0.935901 0
M  V30 13171 H 1301.73 -4.16578 0.22771 0
M  V30 13172 H 1300.36 -3.20463 -0.387689 0
M  V30 13173 H 1299.41 -3.21565 2.03225 0
M  V30 13174 H 1300.72 -4.32965 2.47674 0
M  V30 13175 H 1299.88 -6.01048 0.826223 0
M  V30 13176 H 1298.62 -4.86891 0.280797 0
M  V30 13177 H 1297.62 -4.85208 2.5856 0
M  V30 13178 H 1298.85 -6.02794 3.12755 0
M  V30 13179 H 1296.79 -6.49341 0.932338 0
M  V30 13180 H 1296.71 -7.11808 2.54686 0
M  V30 13181 H 1297.98 -7.65235 1.48446 0
M  V30 13182 N 1302.21 -1.00763 -1.2118 0
M  V30 13183 C 1303.45 -0.691826 -1.90316 0
M  V30 13184 C 1303.78 0.777678 -1.78276 0
M  V30 13185 O 1303.04 1.57962 -1.15526 0
M  V30 13186 C 1303.34 -1.06187 -3.41261 0
M  V30 13187 C 1303 -2.52608 -3.73497 0
M  V30 13188 C 1301.66 -2.92617 -3.82006 0
M  V30 13189 C 1304.02 -3.47442 -3.88502 0
M  V30 13190 C 1301.34 -4.26419 -4.02969 0
M  V30 13191 C 1303.7 -4.8092 -4.10973 0
M  V30 13192 C 1302.36 -5.20649 -4.17709 0
M  V30 13193 H 1301.63 -0.253157 -0.696414 0
M  V30 13194 H 1304.28 -1.26655 -1.43634 0
M  V30 13195 H 1302.58 -0.405428 -3.89697 0
M  V30 13196 H 1304.28 -0.795343 -3.93033 0
M  V30 13197 H 1300.87 -2.20603 -3.67468 0
M  V30 13198 H 1305.05 -3.17695 -3.81292 0
M  V30 13199 H 1300.31 -4.56767 -4.06416 0
M  V30 13200 H 1304.48 -5.54337 -4.21525 0
M  V30 13201 H 1302.11 -6.24343 -4.33705 0
M  V30 13202 N 1303.68 1.3679 -0.7827 0
M  V30 13203 C 1304.59 2.33928 -0.17747 0
M  V30 13204 C 1305.61 1.60716 0.666802 0
M  V30 13205 O 1306.79 1.92742 0.584162 0
M  V30 13206 C 1303.85 3.39907 0.68294 0
M  V30 13207 C 1302.91 4.28926 -0.179053 0
M  V30 13208 C 1302.15 5.29844 0.640386 0
M  V30 13209 O 1302.37 5.38639 1.87681 0
M  V30 13210 O 1301.3 6.01884 0.0438164 0
M  V30 13211 H 1305.13 2.87439 -0.980441 0
M  V30 13212 H 1302.71 1.39142 -0.54404 0
M  V30 13213 H 1304.6 4.04722 1.17379 0
M  V30 13214 H 1303.27 2.88706 1.46391 0
M  V30 13215 H 1302.18 3.67174 -0.716512 0
M  V30 13216 H 1303.51 4.83461 -0.923377 0
M  V30 13217 N 1305.16 0.53415 1.48272 0
M  V30 13218 C 1306.39 0.00573642 2.06599 0
M  V30 13219 C 1306.8 -1.28303 1.3905 0
M  V30 13220 O 1306.14 -1.77499 0.473274 0
M  V30 13221 C 1306.21 -0.28451 3.58372 0
M  V30 13222 C 1305.87 0.911397 4.4782 0
M  V30 13223 C 1306.87 1.81091 4.87342 0
M  V30 13224 C 1304.55 1.11957 4.89664 0
M  V30 13225 C 1306.55 2.90246 5.67482 0
M  V30 13226 C 1304.23 2.21426 5.69573 0
M  V30 13227 C 1305.23 3.10403 6.08391 0
M  V30 13228 O 1304.92 4.17977 6.86695 0
M  V30 13229 H 1304.65 0.0322847 0.675229 0
M  V30 13230 H 1307.2 0.740415 1.91591 0
M  V30 13231 H 1305.43 -1.07321 3.71509 0
M  V30 13232 H 1307.12 -0.755508 3.98807 0
M  V30 13233 H 1307.89 1.66204 4.55633 0
M  V30 13234 H 1303.77 0.436266 4.58931 0
M  V30 13235 H 1307.31 3.59724 5.97699 0
M  V30 13236 H 1303.21 2.36295 6.00695 0
M  V30 13237 H 1303.98 4.15738 7.05056 0
M  V30 13238 N 1306.64 -1.55279 0.269478 0
M  V30 13239 C 1307.89 -1.98649 -0.349522 0
M  V30 13240 C 1308.2 -1.16125 -1.57399 0
M  V30 13241 O 1309.41 -1.49612 -2.26558 0
M  V30 13242 C 1307.86 -3.53547 -0.673224 0
M  V30 13243 C 1307.47 -4.44841 0.531119 0
M  V30 13244 C 1309.22 -4.05519 -1.25516 0
M  V30 13245 C 1307.12 -5.91119 0.182317 0
M  V30 13246 H 1306.05 -0.74193 -0.13437 0
M  V30 13247 H 1308.7 -1.79664 0.373246 0
M  V30 13248 H 1307.09 -3.68311 -1.45474 0
M  V30 13249 H 1308.26 -4.41843 1.3081 0
M  V30 13250 H 1306.58 -4.03472 1.02952 0
M  V30 13251 H 1309.17 -5.12347 -1.52984 0
M  V30 13252 H 1309.52 -3.54215 -2.18718 0
M  V30 13253 H 1310.05 -3.94172 -0.536059 0
M  V30 13254 H 1306.79 -6.46507 1.08206 0
M  V30 13255 H 1306.31 -5.97199 -0.558008 0
M  V30 13256 H 1307.99 -6.466 -0.227484 0
M  V30 13257 N 1308.12 0.00332656 -1.576 0
M  V30 13258 C 1309.37 0.687508 -1.90047 0
M  V30 13259 C 1309.69 1.74497 -0.870388 0
M  V30 13260 O 1308.96 1.95681 0.0926544 0
M  V30 13261 H 1307.54 0.256924 -0.701426 0
M  V30 13262 H 1310.2 -0.0368129 -1.94865 0
M  V30 13263 H 1309.3 1.16086 -2.89707 0
M  V30 13264 N 1309.6 1.55164 0.276031 0
M  V30 13265 C 1310.53 1.90844 1.34539 0
M  V30 13266 C 1311.51 0.769968 1.51676 0
M  V30 13267 O 1312.69 1.02785 1.64769 0
M  V30 13268 C 1309.82 2.17769 2.70543 0
M  V30 13269 C 1308.78 3.33592 2.68142 0
M  V30 13270 C 1308.1 3.45991 4.07669 0
M  V30 13271 C 1309.4 4.70064 2.27678 0
M  V30 13272 H 1311.1 2.80412 1.04926 0
M  V30 13273 H 1308.64 1.34918 0.503303 0
M  V30 13274 H 1310.6 2.41317 3.45462 0
M  V30 13275 H 1309.32 1.24997 3.01734 0
M  V30 13276 H 1307.98 3.10007 1.95681 0
M  V30 13277 H 1307.63 2.50691 4.36077 0
M  V30 13278 H 1307.33 4.23862 4.06958 0
M  V30 13279 H 1308.85 3.71828 4.84331 0
M  V30 13280 H 1310.26 4.93176 2.92319 0
M  V30 13281 H 1308.66 5.50829 2.38134 0
M  V30 13282 H 1309.73 4.69091 1.22808 0
M  V30 13283 N 1311.07 -0.540404 1.48045 0
M  V30 13284 C 1312.32 -1.29422 1.55224 0
M  V30 13285 C 1312.64 -1.93716 0.223365 0
M  V30 13286 O 1311.91 -1.808 -0.754204 0
M  V30 13287 H 1310.49 -0.480658 0.571819 0
M  V30 13288 H 1313.16 -0.629712 1.84447 0
M  V30 13289 H 1312.25 -2.07897 2.32777 0
M  V30 13290 N 1312.55 -1.36459 -0.788468 0
M  V30 13291 C 1313.52 -1.3071 -1.88275 0
M  V30 13292 C 1314.52 -0.214596 -1.59362 0
M  V30 13293 O 1315.71 -0.469437 -1.67756 0
M  V30 13294 C 1312.84 -1.02648 -3.25079 0
M  V30 13295 H 1314.03 -2.28029 -1.94788 0
M  V30 13296 H 1311.58 -1.21245 -0.986375 0
M  V30 13297 H 1312.32 -0.0578992 -3.24248 0
M  V30 13298 H 1312.1 -1.81708 -3.47454 0
M  V30 13299 H 1313.59 -1.01233 -4.05144 0
M  V30 13300 N 1314.03 1.01274 -1.20754 0
M  V30 13301 C 1315.28 1.75191 -1.02156 0
M  V30 13302 C 1315.61 1.89038 0.444791 0
M  V30 13303 O 1314.88 1.41903 1.33018 0
M  V30 13304 C 1315.17 3.16892 -1.71031 0
M  V30 13305 C 1315.02 3.10816 -3.25136 0
M  V30 13306 C 1316.34 4.15648 -1.44654 0
M  V30 13307 H 1313.46 0.635922 -0.372521 0
M  V30 13308 H 1316.1 1.18119 -1.48822 0
M  V30 13309 H 1314.25 3.6562 -1.31357 0
M  V30 13310 H 1315.92 2.69863 -3.74128 0
M  V30 13311 H 1314.17 2.48113 -3.5584 0
M  V30 13312 H 1314.84 4.11001 -3.68487 0
M  V30 13313 H 1317.31 3.75592 -1.7908 0
M  V30 13314 H 1316.19 5.12954 -1.95371 0
M  V30 13315 H 1316.45 4.40507 -0.37494 0
M  V30 13316 N 1315.51 1.01404 1.20644 0
M  V30 13317 C 1316.47 0.586941 2.21557 0
M  V30 13318 C 1317.47 -0.341543 1.57131 0
M  V30 13319 O 1318.66 -0.130585 1.7371 0
M  V30 13320 C 1315.79 -0.143248 3.40599 0
M  V30 13321 H 1316.99 1.47964 2.60858 0
M  V30 13322 H 1314.54 0.803551 1.34063 0
M  V30 13323 H 1315.28 -1.05097 3.06798 0
M  V30 13324 H 1315.06 0.523716 3.88587 0
M  V30 13325 H 1316.55 -0.429504 4.15385 0
M  V30 13326 N 1316.99 -1.36373 0.789944 0
M  V30 13327 C 1318.26 -1.9349 0.286543 0
M  V30 13328 C 1318.64 -1.7218 -1.22136 0
M  V30 13329 O 1317.99 -1.08106 -2.01309 0
M  V30 13330 C 1318.2 -3.42316 0.679749 0
M  V30 13331 C 1319.55 -4.19442 0.659791 0
M  V30 13332 O 1320.57 -3.50758 0.620256 0
M  V30 13333 O 1319.43 -5.41957 0.703159 0
M  V30 13334 H 1316.53 -0.823942 0.0710537 0
M  V30 13335 H 1319.07 -1.45551 0.872523 0
M  V30 13336 H 1317.85 -3.51485 1.7197 0
M  V30 13337 H 1317.47 -3.97542 0.0676823 0
M  V30 13338 N 1318.47 -0.542005 -1.47987 0
M  V30 13339 C 1319.71 -0.0144711 -2.04395 0
M  V30 13340 C 1320.07 1.30441 -1.40887 0
M  V30 13341 O 1321.27 1.91872 -1.88252 0
M  V30 13342 C 1319.54 0.0926282 -3.5728 0
M  V30 13343 S 1321.1 0.568487 -4.35102 0
M  V30 13344 H 1317.92 -0.0178299 -0.710776 0
M  V30 13345 H 1320.52 -0.725294 -1.81548 0
M  V30 13346 H 1319.22 -0.871888 -4.01032 0
M  V30 13347 H 1318.76 0.827468 -3.84599 0
M  V30 13348 H 1320.77 1.83092 -4.61185 0
M  V30 13349 N 1319.94 1.55134 -0.277709 0
M  V30 13350 C 1321.19 1.99949 0.338831 0
M  V30 13351 C 1321.52 1.16587 1.5531 0
M  V30 13352 O 1320.8 0.236572 1.93056 0
M  V30 13353 C 1321.08 3.5286 0.718457 0
M  V30 13354 C 1320.93 4.46975 -0.503332 0
M  V30 13355 C 1322.25 4.11754 1.55392 0
M  V30 13356 H 1319.37 0.726885 0.121682 0
M  V30 13357 H 1322.01 1.86055 -0.385171 0
M  V30 13358 H 1320.16 3.64831 1.33531 0
M  V30 13359 H 1321.84 4.46944 -1.14188 0
M  V30 13360 H 1320.08 4.18528 -1.14092 0
M  V30 13361 H 1320.75 5.51659 -0.193912 0
M  V30 13362 H 1323.23 4.03075 1.03293 0
M  V30 13363 H 1322.1 5.1895 1.78835 0
M  V30 13364 H 1322.36 3.62147 2.53578 0
M  V30 13365 N 1321.42 0.00503138 1.57599 0
M  V30 13366 C 1322.67 -0.67742 1.90409 0
M  V30 13367 C 1322.99 -1.74033 0.87963 0
M  V30 13368 O 1322.26 -1.95727 -0.0822757 0
M  V30 13369 H 1320.84 -0.2532 0.702779 0
M  V30 13370 H 1323.5 0.0471466 1.94843 0
M  V30 13371 H 1322.6 -1.14548 2.90319 0
M  V30 13372 N 1322.9 -1.55308 -0.267798 0
M  V30 13373 C 1324.15 -1.75364 -0.996515 0
M  V30 13374 C 1324.46 -0.565028 -1.87261 0
M  V30 13375 O 1325.67 -0.648119 -2.63651 0
M  V30 13376 C 1324.12 -3.10388 -1.82175 0
M  V30 13377 C 1323.73 -4.36832 -0.994062 0
M  V30 13378 C 1325.48 -3.39791 -2.54445 0
M  V30 13379 C 1323.38 -5.62893 -1.81398 0
M  V30 13380 H 1322.31 -0.653679 -0.375793 0
M  V30 13381 H 1324.96 -1.81762 -0.251975 0
M  V30 13382 H 1323.35 -2.98041 -2.60744 0
M  V30 13383 H 1324.52 -4.6011 -0.252167 0
M  V30 13384 H 1322.83 -4.1461 -0.385662 0
M  V30 13385 H 1325.43 -4.31184 -3.16203 0
M  V30 13386 H 1325.77 -2.60159 -3.24997 0
M  V30 13387 H 1326.31 -3.53259 -1.82902 0
M  V30 13388 H 1323.05 -6.45287 -1.15258 0
M  V30 13389 H 1322.57 -5.43751 -2.5317 0
M  V30 13390 H 1324.25 -6.01384 -2.38634 0
M  V30 13391 N 1324.38 0.532545 -1.4833 0
M  V30 13392 C 1325.33 1.65832 -1.63103 0
M  V30 13393 C 1326.32 1.61929 -0.497538 0
M  V30 13394 O 1327.53 1.66817 -0.676176 0
M  V30 13395 H 1323.9 0.549152 -0.513748 0
M  V30 13396 H 1325.87 1.50515 -2.57658 0
M  V30 13397 C 1324.62 3.04113 -1.68555 0
M  V30 13398 H 1323.94 3.07809 -2.55135 0
M  V30 13399 H 1325.38 3.82506 -1.82936 0
M  V30 13400 C 1323.84 3.34225 -0.423711 0
M  V30 13401 O 1324.37 3.99005 0.464523 0
M  V30 13402 N 1322.58 2.89087 -0.296192 0
M  V30 13403 H 1322.13 2.36547 -1.01997 0
M  V30 13404 H 1322.08 3.09604 0.547082 0
M  V30 13405 N 1325.86 1.36875 0.78122 0
M  V30 13406 C 1327.1 1.31754 1.54171 0
M  V30 13407 C 1327.43 -0.100632 1.93939 0
M  V30 13408 O 1326.71 -1.05587 1.63345 0
M  V30 13409 C 1326.99 2.24789 2.81322 0
M  V30 13410 C 1326.85 3.75342 2.47868 0
M  V30 13411 C 1328.16 2.16442 3.83198 0
M  V30 13412 H 1325.28 0.479931 0.559317 0
M  V30 13413 H 1327.93 1.67497 0.896935 0
M  V30 13414 H 1326.08 1.94438 3.36342 0
M  V30 13415 H 1327.75 4.16247 1.98836 0
M  V30 13416 H 1325.99 3.94375 1.80696 0
M  V30 13417 H 1326.66 4.3586 3.38719 0
M  V30 13418 H 1329.14 2.43175 3.37647 0
M  V30 13419 H 1328.01 2.83695 4.69903 0
M  V30 13420 H 1328.27 1.15431 4.26765 0
M  V30 13421 N 1327.33 -1.00632 1.21289 0
M  V30 13422 C 1328.56 -1.77967 1.05524 0
M  V30 13423 C 1328.98 -1.84621 -0.395023 0
M  V30 13424 O 1328.33 -1.30664 -1.27409 0
M  V30 13425 C 1328.38 -3.21939 1.64432 0
M  V30 13426 O 1328.11 -3.15669 3.03784 0
M  V30 13427 C 1329.61 -4.1578 1.5376 0
M  V30 13428 H 1326.83 -0.559341 0.370646 0
M  V30 13429 H 1329.37 -1.26604 1.60598 0
M  V30 13430 H 1327.53 -3.70415 1.13453 0
M  V30 13431 H 1327.94 -4.06112 3.31924 0
M  V30 13432 H 1329.41 -5.14602 1.99722 0
M  V30 13433 H 1329.89 -4.36438 0.491811 0
M  V30 13434 H 1330.5 -3.73192 2.0398 0
M  V30 13435 N 1328.81 -1.02043 -1.20104 0
M  V30 13436 C 1330.06 -0.713027 -1.89852 0
M  V30 13437 C 1330.39 0.755767 -1.7889 0
M  V30 13438 O 1329.67 1.54948 -1.17564 0
M  V30 13439 C 1329.95 -1.15417 -3.41103 0
M  V30 13440 C 1329.8 -2.68355 -3.60979 0
M  V30 13441 C 1331.12 -0.728389 -4.34031 0
M  V30 13442 H 1328.24 -0.260502 -0.689426 0
M  V30 13443 H 1330.88 -1.26885 -1.41422 0
M  V30 13444 H 1329.03 -0.68127 -3.8248 0
M  V30 13445 H 1330.7 -3.23526 -3.28829 0
M  V30 13446 H 1328.95 -3.09148 -3.04319 0
M  V30 13447 H 1329.62 -2.94276 -4.67018 0
M  V30 13448 H 1332.09 -1.13499 -4.00321 0
M  V30 13449 H 1330.97 -1.06504 -5.38468 0
M  V30 13450 H 1331.23 0.369736 -4.40551 0
M  V30 13451 N 1330.29 1.35952 -0.797165 0
M  V30 13452 C 1331.54 1.98639 -0.372405 0
M  V30 13453 C 1331.86 1.63571 1.06158 0
M  V30 13454 O 1331.13 0.913516 1.73297 0
M  V30 13455 H 1329.71 0.734753 -0.13471 0
M  V30 13456 H 1332.37 1.66022 -1.02092 0
M  V30 13457 H 1331.47 3.08533 -0.47049 0
M  V30 13458 N 1331.77 0.549846 1.47697 0
M  V30 13459 C 1333.02 0.0230048 2.02087 0
M  V30 13460 C 1333.34 -1.32865 1.4273 0
M  V30 13461 O 1332.61 -1.86492 0.59981 0
M  V30 13462 H 1331.19 0.00551514 0.74698 0
M  V30 13463 H 1333.85 0.718185 1.81185 0
M  V30 13464 H 1332.95 -0.0705813 3.1202 0
M  V30 13465 N 1333.25 -1.54984 0.285932 0
M  V30 13466 C 1334.16 -2.26621 -0.606648 0
M  V30 13467 C 1335.17 -1.29595 -1.16108 0
M  V30 13468 O 1336.35 -1.62551 -1.18908 0
M  V30 13469 C 1333.41 -2.98156 -1.76929 0
M  V30 13470 C 1332.47 -4.10685 -1.25045 0
M  V30 13471 C 1331.71 -4.788 -2.35768 0
M  V30 13472 O 1331.93 -4.46183 -3.55354 0
M  V30 13473 O 1330.86 -5.66523 -2.03312 0
M  V30 13474 H 1334.69 -3.03689 -0.0259981 0
M  V30 13475 H 1332.28 -1.49306 0.0529355 0
M  V30 13476 H 1334.16 -3.43076 -2.44697 0
M  V30 13477 H 1332.83 -2.23996 -2.33683 0
M  V30 13478 H 1331.74 -3.70198 -0.538919 0
M  V30 13479 H 1333.07 -4.86778 -0.728528 0
M  V30 13480 N 1334.72 -0.0133892 -1.57594 0
M  V30 13481 C 1335.95 0.682855 -1.95836 0
M  V30 13482 C 1336.37 1.65763 -0.889049 0
M  V30 13483 O 1335.73 1.80665 0.151585 0
M  V30 13484 C 1335.78 1.37931 -3.33178 0
M  V30 13485 O 1334.88 2.49416 -3.28429 0
M  V30 13486 H 1334.23 0.180629 -0.638959 0
M  V30 13487 H 1336.76 -0.0705644 -2.04478 0
M  V30 13488 H 1336.77 1.73969 -3.69051 0
M  V30 13489 H 1335.44 0.664675 -4.10554 0
M  V30 13490 H 1334.02 2.15606 -3.04251 0
M  V30 13491 N 1336.2 1.55448 0.259558 0
M  V30 13492 C 1337.44 1.78444 0.996849 0
M  V30 13493 C 1337.81 0.580862 1.83003 0
M  V30 13494 O 1339.01 0.68934 2.59811 0
M  V30 13495 C 1337.28 3.06094 1.84502 0
M  V30 13496 S 1338.84 3.50263 2.64313 0
M  V30 13497 H 1335.66 0.626854 0.335523 0
M  V30 13498 H 1338.26 1.93683 0.265929 0
M  V30 13499 H 1336.96 3.91772 1.22241 0
M  V30 13500 H 1336.49 2.93558 2.61891 0
M  V30 13501 H 1338.51 3.10596 3.86968 0
M  V30 13502 N 1337.68 -0.524672 1.4861 0
M  V30 13503 C 1338.61 -1.64481 1.59621 0
M  V30 13504 C 1339.63 -1.55557 0.480181 0
M  V30 13505 O 1340.81 -1.61921 0.751254 0
M  V30 13506 C 1337.91 -3.03158 1.51487 0
M  V30 13507 C 1337.09 -3.37509 2.78221 0
M  V30 13508 C 1336.15 -4.5549 2.63467 0
M  V30 13509 O 1335.17 -4.58448 3.37364 0
M  V30 13510 N 1336.37 -5.53986 1.73437 0
M  V30 13511 H 1339.14 -1.5547 2.56221 0
M  V30 13512 H 1336.7 -0.712059 1.45401 0
M  V30 13513 H 1338.69 -3.79969 1.39305 0
M  V30 13514 H 1337.26 -3.06219 0.628406 0
M  V30 13515 H 1336.48 -2.49824 3.04929 0
M  V30 13516 H 1337.77 -3.57246 3.62288 0
M  V30 13517 H 1337.17 -5.54378 1.12612 0
M  V30 13518 H 1335.73 -6.29993 1.6719 0
M  V30 13519 N 1339.16 -1.37287 -0.77395 0
M  V30 13520 C 1340.11 -1.29389 -1.8773 0
M  V30 13521 C 1341.09 -0.182167 -1.59865 0
M  V30 13522 O 1342.28 -0.416367 -1.72033 0
M  V30 13523 C 1339.41 -1.10094 -3.25168 0
M  V30 13524 C 1338.5 -2.25801 -3.58991 0
M  V30 13525 N 1338.89 -3.51182 -3.64012 0
M  V30 13526 C 1337.19 -2.17907 -3.89144 0
M  V30 13527 C 1337.89 -4.27468 -3.9452 0
M  V30 13528 N 1336.87 -3.56583 -4.10304 0
M  V30 13529 H 1340.67 -2.24344 -1.8986 0
M  V30 13530 H 1338.18 -1.30228 -0.970282 0
M  V30 13531 H 1340.18 -1.02521 -4.04098 0
M  V30 13532 H 1338.84 -0.160535 -3.24303 0
M  V30 13533 H 1339.85 -3.85118 -3.46272 0
M  V30 13534 H 1336.53 -1.3191 -3.96113 0
M  V30 13535 H 1337.92 -5.3597 -4.05198 0
M  V30 13536 N 1340.64 0.999871 -1.21821 0
M  V30 13537 C 1341.55 2.12303 -0.99823 0
M  V30 13538 C 1342.56 1.73924 0.0512923 0
M  V30 13539 O 1343.74 2.00914 -0.139895 0
M  V30 13540 C 1340.8 3.41962 -0.571232 0
M  V30 13541 C 1339.86 3.94483 -1.69356 0
M  V30 13542 C 1339.1 5.17954 -1.28685 0
M  V30 13543 O 1339.32 5.70168 -0.162641 0
M  V30 13544 O 1338.25 5.64051 -2.10071 0
M  V30 13545 H 1342.08 2.3374 -1.93905 0
M  V30 13546 H 1339.67 1.10677 -1.00354 0
M  V30 13547 H 1341.55 4.20001 -0.343134 0
M  V30 13548 H 1340.22 3.21901 0.340814 0
M  V30 13549 H 1339.13 3.17648 -1.97612 0
M  V30 13550 H 1340.46 4.18964 -2.58322 0
M  V30 13551 N 1342.11 1.02678 1.19562 0
M  V30 13552 C 1343.36 0.722016 1.89191 0
M  V30 13553 C 1343.69 -0.749217 1.79491 0
M  V30 13554 O 1342.94 -1.56105 1.18025 0
M  V30 13555 C 1343.24 1.11603 3.39529 0
M  V30 13556 C 1342.91 2.58518 3.69431 0
M  V30 13557 C 1341.57 2.98658 3.77302 0
M  V30 13558 C 1343.92 3.53579 3.82925 0
M  V30 13559 C 1341.25 4.32776 3.96134 0
M  V30 13560 C 1343.6 4.87398 4.0327 0
M  V30 13561 C 1342.27 5.27229 4.09373 0
M  V30 13562 H 1341.54 0.264204 0.692298 0
M  V30 13563 H 1344.18 1.28924 1.41601 0
M  V30 13564 H 1342.49 0.467374 3.89002 0
M  V30 13565 H 1344.19 0.857771 3.91718 0
M  V30 13566 H 1340.78 2.26421 3.63911 0
M  V30 13567 H 1344.96 3.23721 3.76189 0
M  V30 13568 H 1340.22 4.63175 3.99098 0
M  V30 13569 H 1344.39 5.60973 4.12653 0
M  V30 13570 H 1342.02 6.31164 4.23718 0
M  V30 13571 N 1343.59 -1.35528 0.804364 0
M  V30 13572 C 1345.01 -1.51962 0.487831 0
M  V30 13573 C 1345.21 -1.75426 -0.991353 0
M  V30 13574 O 1344.26 -1.7944 -1.77644 0
M  V30 13575 C 1345.58 -2.69626 1.33126 0
M  V30 13576 C 1347.13 -2.83502 1.32648 0
M  V30 13577 C 1347.6 -4.04188 2.15397 0
M  V30 13578 N 1349.09 -4.11362 2.12922 0
M  V30 13579 C 1349.83 -5.03856 2.73709 0
M  V30 13580 N 1349.32 -6.01696 3.43415 0
M  V30 13581 N 1351.12 -4.96585 2.63363 0
M  V30 13582 H 1343.27 -1.18553 1.76235 0
M  V30 13583 H 1345.53 -0.57986 0.749977 0
M  V30 13584 H 1345.24 -2.58857 2.38088 0
M  V30 13585 H 1345.11 -3.64168 0.982934 0
M  V30 13586 H 1347.5 -2.93723 0.284712 0
M  V30 13587 H 1347.58 -1.89824 1.71466 0
M  V30 13588 H 1347.22 -3.94728 3.19613 0
M  V30 13589 H 1347.15 -4.97044 1.7394 0
M  V30 13590 H 1349.64 -3.41319 1.62203 0
M  V30 13591 H 1349.96 -6.68866 3.8709 0
M  V30 13592 H 1348.3 -6.01877 3.47519 0
M  V30 13593 H 1351.49 -4.19103 2.08496 0
M  V30 13594 H 1351.66 -5.68478 3.11026 0
M  V30 13595 N 1345.07 -0.557671 -1.47404 0
M  V30 13596 C 1346.32 -0.0337216 -2.02072 0
M  V30 13597 C 1346.64 1.32106 -1.43433 0
M  V30 13598 O 1345.91 1.86171 -0.609692 0
M  V30 13599 H 1344.49 -0.00947648 -0.74694 0
M  V30 13600 H 1347.15 -0.727784 -1.80802 0
M  V30 13601 H 1346.25 0.0540331 -3.12053 0
M  V30 13602 N 1346.55 1.54831 -0.294147 0
M  V30 13603 C 1347.83 1.92071 0.369902 0
M  V30 13604 C 1348.21 1.22061 1.72233 0
M  V30 13605 O 1347.55 0.353975 2.25742 0
M  V30 13606 C 1347.76 3.45524 0.49135 0
M  V30 13607 C 1349.11 4.17644 0.765411 0
M  V30 13608 O 1350.14 3.51521 0.575428 0
M  V30 13609 O 1349 5.34692 1.12992 0
M  V30 13610 H 1346.09 0.801033 0.20561 0
M  V30 13611 H 1348.64 1.66224 -0.341702 0
M  V30 13612 H 1347.41 3.88591 -0.459663 0
M  V30 13613 H 1347.03 3.77384 1.25169 0
M  V30 13614 N 1348.03 0.0217466 1.57585 0
M  V30 13615 C 1348.96 -0.997112 2.05263 0
M  V30 13616 C 1349.94 -1.32186 0.946873 0
M  V30 13617 O 1351.12 -1.43979 1.21665 0
M  V30 13618 C 1348.25 -2.3191 2.46851 0
M  V30 13619 C 1347.3 -2.14948 3.68375 0
M  V30 13620 S 1348.13 -1.45517 5.15349 0
M  V30 13621 C 1349.28 -2.79101 5.60226 0
M  V30 13622 H 1349.52 -0.591229 2.91362 0
M  V30 13623 H 1347.05 -0.189741 1.5323 0
M  V30 13624 H 1349.01 -3.07913 2.71477 0
M  V30 13625 H 1347.67 -2.69633 1.61112 0
M  V30 13626 H 1346.86 -3.12661 3.95296 0
M  V30 13627 H 1346.46 -1.47088 3.43862 0
M  V30 13628 H 1348.76 -3.75357 5.64015 0
M  V30 13629 H 1349.7 -2.56853 6.59873 0
M  V30 13630 H 1350.11 -2.84009 4.87851 0
M  V30 13631 N 1349.51 -1.55583 -0.251311 0
M  V30 13632 C 1350.75 -1.77471 -0.981418 0
M  V30 13633 C 1351.08 -0.586228 -1.85141 0
M  V30 13634 O 1350.36 0.415623 -1.90007 0
M  V30 13635 C 1350.64 -3.09204 -1.84567 0
M  V30 13636 C 1350.5 -4.38448 -1.00417 0
M  V30 13637 C 1351.81 -3.37133 -2.82895 0
M  V30 13638 H 1348.93 -0.645664 -0.355369 0
M  V30 13639 H 1351.58 -1.88318 -0.252228 0
M  V30 13640 H 1349.73 -3.00087 -2.46738 0
M  V30 13641 H 1351.4 -4.5955 -0.40149 0
M  V30 13642 H 1349.64 -4.32703 -0.308365 0
M  V30 13643 H 1350.31 -5.26995 -1.64258 0
M  V30 13644 H 1352.79 -3.46183 -2.3086 0
M  V30 13645 H 1351.66 -4.30531 -3.40491 0
M  V30 13646 H 1351.92 -2.57829 -3.59133 0
M  V30 13647 N 1350.98 0.516783 -1.48886 0
M  V30 13648 C 1352.23 1.27375 -1.57808 0
M  V30 13649 C 1352.56 1.92492 -0.256963 0
M  V30 13650 O 1351.84 1.79947 0.738193 0
M  V30 13651 C 1352.12 2.35295 -2.72595 0
M  V30 13652 C 1351.97 1.74783 -4.14453 0
M  V30 13653 C 1353.29 3.36973 -2.83085 0
M  V30 13654 H 1350.41 0.46175 -0.574418 0
M  V30 13655 H 1353.05 0.57434 -1.81111 0
M  V30 13656 H 1351.2 2.94951 -2.52857 0
M  V30 13657 H 1352.88 1.19076 -4.45666 0
M  V30 13658 H 1351.12 1.05258 -4.20836 0
M  V30 13659 H 1351.79 2.52985 -4.90615 0
M  V30 13660 H 1354.27 2.87289 -3.01005 0
M  V30 13661 H 1353.14 4.09864 -3.65106 0
M  V30 13662 H 1353.4 3.98336 -1.91784 0
M  V30 13663 N 1352.46 1.37696 0.766659 0
M  V30 13664 C 1353.7 1.34588 1.53836 0
M  V30 13665 C 1354.07 -0.0676384 1.91881 0
M  V30 13666 O 1355.27 -0.223479 2.67869 0
M  V30 13667 C 1353.54 2.26329 2.76604 0
M  V30 13668 S 1355.1 2.4112 3.66615 0
M  V30 13669 H 1351.91 0.477717 0.5266 0
M  V30 13670 H 1354.52 1.73495 0.901099 0
M  V30 13671 H 1353.22 3.27943 2.46742 0
M  V30 13672 H 1352.75 1.88525 3.45285 0
M  V30 13673 H 1354.77 1.62556 4.68818 0
M  V30 13674 N 1353.94 -0.993397 1.22349 0
M  V30 13675 C 1355.35 -1.54739 1.04465 0
M  V30 13676 C 1355.7 -1.92243 -0.392057 0
M  V30 13677 O 1354.83 -1.74707 -1.27697 0
M  V30 13678 C 1355.42 -2.81179 1.89007 0
M  V30 13679 C 1353.98 -3.33023 1.75421 0
M  V30 13680 C 1353.13 -2.06114 1.85505 0
M  V30 13681 H 1356.08 -0.814539 1.36202 0
M  V30 13682 H 1356.1 -3.53523 1.40718 0
M  V30 13683 H 1355.61 -2.53851 2.93566 0
M  V30 13684 H 1353.71 -3.6526 0.735935 0
M  V30 13685 H 1353.83 -4.03659 2.58062 0
M  V30 13686 H 1352.19 -2.19651 1.2894 0
M  V30 13687 H 1352.97 -1.81184 2.91594 0
M  V30 13688 N 1355.42 -1.03311 -1.19015 0
M  V30 13689 C 1356.35 -0.638279 -2.24607 0
M  V30 13690 C 1357.33 0.354795 -1.66359 0
M  V30 13691 O 1358.51 0.236574 -1.92754 0
M  V30 13692 C 1355.64 0.00737316 -3.47299 0
M  V30 13693 C 1354.6 -0.908431 -4.18248 0
M  V30 13694 C 1353.92 -0.127658 -5.34548 0
M  V30 13695 C 1355.22 -2.2241 -4.72579 0
M  V30 13696 H 1356.92 -1.52099 -2.57888 0
M  V30 13697 H 1354.46 -0.732779 -1.23961 0
M  V30 13698 H 1356.42 0.295256 -4.20364 0
M  V30 13699 H 1355.14 0.924912 -3.1323 0
M  V30 13700 H 1353.8 -1.18058 -3.47071 0
M  V30 13701 H 1353.45 0.792048 -4.96725 0
M  V30 13702 H 1353.15 -0.737702 -5.82951 0
M  V30 13703 H 1354.67 0.153385 -6.10407 0
M  V30 13704 H 1356.09 -1.99745 -5.37378 0
M  V30 13705 H 1354.48 -2.78644 -5.31486 0
M  V30 13706 H 1355.55 -2.87584 -3.90415 0
M  V30 13707 N 1356.9 1.35099 -0.81154 0
M  V30 13708 C 1358.31 1.81082 -0.454543 0
M  V30 13709 C 1358.66 1.67361 1.02395 0
M  V30 13710 O 1357.78 1.20707 1.79607 0
M  V30 13711 C 1358.38 3.2877 -0.818274 0
M  V30 13712 C 1356.94 3.72877 -0.513808 0
M  V30 13713 C 1356.08 2.57008 -1.04125 0
M  V30 13714 H 1359.03 1.23007 -1.00274 0
M  V30 13715 H 1359.06 3.80318 -0.117683 0
M  V30 13716 H 1358.57 3.38725 -1.89439 0
M  V30 13717 H 1356.67 3.68468 0.553368 0
M  V30 13718 H 1356.78 4.67455 -1.0499 0
M  V30 13719 H 1355.15 2.5045 -0.463337 0
M  V30 13720 H 1355.93 2.69738 -2.12358 0
M  V30 13721 N 1358.37 0.56548 1.47106 0
M  V30 13722 C 1359.78 0.134289 1.86216 0
M  V30 13723 C 1360.14 -1.29815 1.47114 0
M  V30 13724 O 1359.26 -1.97787 0.878017 0
M  V30 13725 C 1359.86 0.236931 3.37971 0
M  V30 13726 C 1358.41 -0.139275 3.76142 0
M  V30 13727 C 1357.56 0.580743 2.71151 0
M  V30 13728 H 1360.51 0.774723 1.38505 0
M  V30 13729 H 1360.53 -0.542301 3.76616 0
M  V30 13730 H 1360.05 1.27958 3.66399 0
M  V30 13731 H 1358.15 -1.18272 3.53331 0
M  V30 13732 H 1358.26 0.225045 4.78571 0
M  V30 13733 H 1356.62 0.0228963 2.5469 0
M  V30 13734 H 1357.41 1.62471 3.0242 0
M  V30 13735 N 1359.85 -1.54672 0.302354 0
M  V30 13736 C 1361.08 -2.05041 -0.311891 0
M  V30 13737 C 1361.5 -1.17814 -1.46634 0
M  V30 13738 O 1360.86 -0.182517 -1.80379 0
M  V30 13739 C 1360.91 -3.52831 -0.744489 0
M  V30 13740 O 1360.01 -3.68621 -1.84913 0
M  V30 13741 H 1359.35 -0.661255 -0.0603102 0
M  V30 13742 H 1361.88 -1.99711 0.444593 0
M  V30 13743 H 1361.89 -3.94708 -1.03293 0
M  V30 13744 H 1360.57 -4.1578 0.0999976 0
M  V30 13745 H 1359.15 -3.38649 -1.56113 0
M  V30 13746 N 1361.33 -0.0301034 -1.57571 0
M  V30 13747 C 1362.26 0.94977 -2.13311 0
M  V30 13748 C 1363.24 1.33865 -1.04948 0
M  V30 13749 O 1364.43 1.4171 -1.32786 0
M  V30 13750 C 1361.56 2.23178 -2.66099 0
M  V30 13751 C 1360.51 1.98362 -3.79258 0
M  V30 13752 C 1359.84 3.32836 -4.18479 0
M  V30 13753 C 1361.14 1.32201 -5.05292 0
M  V30 13754 H 1362.83 0.485562 -2.95436 0
M  V30 13755 H 1360.38 0.232116 -1.42117 0
M  V30 13756 H 1362.33 2.92108 -3.03728 0
M  V30 13757 H 1361.05 2.71766 -1.81137 0
M  V30 13758 H 1359.71 1.31849 -3.42069 0
M  V30 13759 H 1359.36 3.79185 -3.30496 0
M  V30 13760 H 1359.06 3.17037 -4.94733 0
M  V30 13761 H 1360.58 4.03032 -4.58691 0
M  V30 13762 H 1362 1.91133 -5.40501 0
M  V30 13763 H 1360.4 1.26797 -5.86551 0
M  V30 13764 H 1361.47 0.29511 -4.84001 0
M  V30 13765 N 1362.81 1.55714 0.243056 0
M  V30 13766 C 1363.74 1.87093 1.32396 0
M  V30 13767 C 1364.75 0.757482 1.44104 0
M  V30 13768 O 1365.94 1.03563 1.45386 0
M  V30 13769 C 1363.04 2.04546 2.70212 0
M  V30 13770 C 1362.22 3.3543 2.80723 0
M  V30 13771 C 1361.27 3.42578 3.99408 0
M  V30 13772 O 1360.3 4.15762 3.88755 0
M  V30 13773 N 1361.5 2.7215 5.12752 0
M  V30 13774 H 1364.27 2.80399 1.05813 0
M  V30 13775 H 1361.83 1.55998 0.433151 0
M  V30 13776 H 1363.82 2.06665 3.47954 0
M  V30 13777 H 1362.39 1.17966 2.89487 0
M  V30 13778 H 1361.61 3.45594 1.89626 0
M  V30 13779 H 1362.9 4.21692 2.84698 0
M  V30 13780 H 1362.3 2.1243 5.24299 0
M  V30 13781 H 1360.85 2.79957 5.88615 0
M  V30 13782 N 1364.29 -0.50888 1.49158 0
M  V30 13783 C 1365.22 -1.62008 1.68154 0
M  V30 13784 C 1366.2 -1.61624 0.53025 0
M  V30 13785 O 1367.38 -1.78489 0.765205 0
M  V30 13786 C 1364.51 -3.00525 1.74075 0
M  V30 13787 C 1363.47 -3.15773 2.88915 0
M  V30 13788 C 1362.79 -4.55562 2.79942 0
M  V30 13789 C 1364.09 -2.96542 4.29953 0
M  V30 13790 H 1365.79 -1.46365 2.61185 0
M  V30 13791 H 1363.33 -0.702705 1.2569 0
M  V30 13792 H 1365.29 -3.78154 1.8595 0
M  V30 13793 H 1364.01 -3.17238 0.776373 0
M  V30 13794 H 1362.67 -2.40567 2.76628 0
M  V30 13795 H 1362.32 -4.6914 1.81429 0
M  V30 13796 H 1362.02 -4.66706 3.57015 0
M  V30 13797 H 1363.54 -5.35262 2.93814 0
M  V30 13798 H 1364.95 -3.63947 4.42963 0
M  V30 13799 H 1363.35 -3.19164 5.08187 0
M  V30 13800 H 1364.42 -1.92745 4.44946 0
M  V30 13801 N 1365.76 -1.381 -0.759346 0
M  V30 13802 C 1367.01 -1.33727 -1.5153 0
M  V30 13803 C 1367.33 0.0739504 -1.9486 0
M  V30 13804 O 1366.6 1.02049 -1.67221 0
M  V30 13805 H 1365.18 -0.492037 -0.562058 0
M  V30 13806 H 1367.85 -1.72719 -0.902995 0
M  V30 13807 H 1366.94 -1.98439 -2.40891 0
M  V30 13808 N 1367.24 0.986894 -1.22875 0
M  V30 13809 C 1368.17 2.08035 -0.961971 0
M  V30 13810 C 1369.19 1.62683 0.0616475 0
M  V30 13811 O 1370.38 1.77659 -0.173094 0
M  V30 13812 C 1367.48 3.36208 -0.426302 0
M  V30 13813 C 1366.65 4.10562 -1.50856 0
M  V30 13814 C 1365.71 5.17014 -0.97891 0
M  V30 13815 O 1364.73 5.44259 -1.66645 0
M  V30 13816 N 1365.94 5.80167 0.196613 0
M  V30 13817 H 1368.7 2.315 -1.90336 0
M  V30 13818 H 1366.26 1.1531 -1.13645 0
M  V30 13819 H 1368.25 4.0466 -0.0571577 0
M  V30 13820 H 1366.82 3.09761 0.420345 0
M  V30 13821 H 1366.04 3.36656 -2.05076 0
M  V30 13822 H 1367.33 4.57007 -2.23655 0
M  V30 13823 H 1366.73 5.60409 0.771892 0
M  V30 13824 H 1365.29 6.49825 0.507083 0
M  V30 13825 N 1368.72 1.0394 1.18466 0
M  V30 13826 C 1370 0.65632 1.8426 0
M  V30 13827 C 1370.38 -0.864288 1.92596 0
M  V30 13828 O 1369.73 -1.76524 1.45092 0
M  V30 13829 C 1369.94 1.33067 3.22636 0
M  V30 13830 C 1371.28 1.46065 3.98686 0
M  V30 13831 O 1372.31 1.28867 3.32072 0
M  V30 13832 O 1371.17 1.74078 5.18034 0
M  V30 13833 H 1368.26 0.229484 0.794523 0
M  V30 13834 H 1370.81 1.13821 1.25868 0
M  V30 13835 H 1369.58 2.36866 3.11465 0
M  V30 13836 H 1369.2 0.837313 3.88683 0
M  V30 13837 N 1370.2 -1.34667 0.818693 0
M  V30 13838 C 1371.45 -1.98022 0.40396 0
M  V30 13839 C 1371.77 -1.65239 -1.03542 0
M  V30 13840 O 1371.04 -0.94097 -1.71821 0
M  V30 13841 H 1369.62 -0.732517 0.146382 0
M  V30 13842 H 1372.28 -1.64377 1.0472 0
M  V30 13843 H 1371.38 -3.07746 0.519516 0
M  V30 13844 N 1371.68 -0.573274 -1.46804 0
M  V30 13845 C 1372.64 0.155066 -2.28675 0
M  V30 13846 C 1373.64 0.827706 -1.37861 0
M  V30 13847 O 1374.83 0.681105 -1.60333 0
M  V30 13848 C 1371.96 1.22864 -3.1799 0
M  V30 13849 H 1373.15 -0.564305 -2.94543 0
M  V30 13850 H 1370.71 -0.330855 -1.52758 0
M  V30 13851 H 1371.44 1.97989 -2.56848 0
M  V30 13852 H 1371.23 0.750936 -3.84842 0
M  V30 13853 H 1372.72 1.73974 -3.79635 0
M  V30 13854 N 1373.15 1.5451 -0.310553 0
M  V30 13855 C 1374.57 1.85829 0.180166 0
M  V30 13856 C 1374.92 1.23239 1.52665 0
M  V30 13857 O 1374.04 0.53359 2.09718 0
M  V30 13858 C 1374.64 3.37153 0.333687 0
M  V30 13859 C 1373.2 3.68469 0.768625 0
M  V30 13860 C 1372.34 2.77051 -0.117399 0
M  V30 13861 H 1375.29 1.49544 -0.531262 0
M  V30 13862 H 1375.31 3.62171 1.16673 0
M  V30 13863 H 1374.83 3.82678 -0.646455 0
M  V30 13864 H 1372.93 3.28467 1.75898 0
M  V30 13865 H 1373.04 4.75559 0.581392 0
M  V30 13866 H 1371.4 2.51461 0.404905 0
M  V30 13867 H 1372.19 3.254 -1.09407 0
M  V30 13868 N 1374.63 0.0384594 1.57553 0
M  V30 13869 C 1375.56 -0.938444 2.13812 0
M  V30 13870 C 1376.54 -1.33307 1.05657 0
M  V30 13871 O 1377.73 -1.41003 1.33535 0
M  V30 13872 C 1374.86 -2.21764 2.67279 0
M  V30 13873 C 1373.81 -1.96347 3.80305 0
M  V30 13874 C 1373.14 -3.30612 4.20238 0
M  V30 13875 C 1374.44 -1.2952 5.05986 0
M  V30 13876 H 1376.13 -0.469887 2.9569 0
M  V30 13877 H 1373.68 -0.224576 1.42238 0
M  V30 13878 H 1375.63 -2.90493 3.05273 0
M  V30 13879 H 1374.36 -2.70802 1.82576 0
M  V30 13880 H 1373.02 -1.30033 3.42764 0
M  V30 13881 H 1372.66 -3.77427 3.32502 0
M  V30 13882 H 1372.36 -3.14409 4.96408 0
M  V30 13883 H 1373.89 -4.00594 4.60822 0
M  V30 13884 H 1375.3 -1.88264 5.41507 0
M  V30 13885 H 1373.7 -1.23685 5.87216 0
M  V30 13886 H 1374.77 -0.269439 4.84151 0
M  V30 13887 N 1376.11 -1.55841 -0.234795 0
M  V30 13888 C 1377.04 -1.87793 -1.31402 0
M  V30 13889 C 1378.06 -0.765113 -1.43701 0
M  V30 13890 O 1379.25 -1.04332 -1.44834 0
M  V30 13891 C 1376.35 -2.05976 -2.69123 0
M  V30 13892 C 1375.52 -3.36914 -2.7894 0
M  V30 13893 C 1374.58 -3.44691 -3.97586 0
M  V30 13894 O 1373.6 -4.17818 -3.86545 0
M  V30 13895 N 1374.81 -2.74866 -5.11301 0
M  V30 13896 H 1377.57 -2.80957 -1.04324 0
M  V30 13897 H 1375.13 -1.56226 -0.424872 0
M  V30 13898 H 1377.12 -2.08507 -3.46853 0
M  V30 13899 H 1375.69 -1.195 -2.88857 0
M  V30 13900 H 1374.91 -3.46595 -1.87791 0
M  V30 13901 H 1376.2 -4.23196 -2.82458 0
M  V30 13902 H 1375.6 -2.15208 -5.23165 0
M  V30 13903 H 1374.16 -2.83075 -5.87122 0
M  V30 13904 N 1377.59 0.500963 -1.49426 0
M  V30 13905 C 1378.84 1.25694 -1.5915 0
M  V30 13906 C 1379.17 1.92209 -0.277365 0
M  V30 13907 O 1378.44 1.8072 0.719065 0
M  V30 13908 C 1378.73 2.32391 -2.75076 0
M  V30 13909 C 1378.58 1.70377 -4.16283 0
M  V30 13910 C 1379.9 3.33952 -2.86643 0
M  V30 13911 H 1377.02 0.455631 -0.579283 0
M  V30 13912 H 1379.66 0.555099 -1.8171 0
M  V30 13913 H 1377.81 2.92252 -2.55971 0
M  V30 13914 H 1379.48 1.14343 -4.46904 0
M  V30 13915 H 1377.72 1.00789 -4.21929 0
M  V30 13916 H 1378.4 2.47767 -4.9327 0
M  V30 13917 H 1380.87 2.84081 -3.04035 0
M  V30 13918 H 1379.75 4.05969 -3.69433 0
M  V30 13919 H 1380.01 3.96279 -1.95998 0
M  V30 13920 N 1379.07 1.38501 0.752011 0
M  V30 13921 C 1380.31 1.36212 1.52399 0
M  V30 13922 C 1380.67 -0.0472831 1.91942 0
M  V30 13923 O 1381.87 -0.195055 2.68091 0
M  V30 13924 C 1380.14 2.2925 2.74188 0
M  V30 13925 S 1381.7 2.44995 3.64037 0
M  V30 13926 H 1378.52 0.483276 0.521503 0
M  V30 13927 H 1381.12 1.74441 0.882647 0
M  V30 13928 H 1379.83 3.30541 2.4325 0
M  V30 13929 H 1379.36 1.92176 3.43266 0
M  V30 13930 H 1381.37 1.67519 4.67067 0
M  V30 13931 N 1380.55 -0.980364 1.23396 0
M  V30 13932 C 1381.79 -1.72421 1.06765 0
M  V30 13933 C 1382.12 -1.90151 -0.394515 0
M  V30 13934 O 1381.4 -1.4538 -1.29209 0
M  V30 13935 C 1381.68 -3.12246 1.79372 0
M  V30 13936 C 1381.54 -3.02087 3.33262 0
M  V30 13937 C 1382.85 -4.11667 1.55624 0
M  V30 13938 H 1379.97 -0.625822 0.389251 0
M  V30 13939 H 1382.62 -1.14132 1.51901 0
M  V30 13940 H 1380.77 -3.62008 1.41004 0
M  V30 13941 H 1382.44 -2.59848 3.81152 0
M  V30 13942 H 1380.68 -2.38592 3.62293 0
M  V30 13943 H 1381.35 -4.01087 3.79254 0
M  V30 13944 H 1383.83 -3.70712 1.88975 0
M  V30 13945 H 1382.7 -5.07593 2.08902 0
M  V30 13946 H 1382.96 -4.39358 0.491601 0
M  V30 13947 N 1382.02 -1.04567 -1.17913 0
M  V30 13948 C 1383.3 -0.666082 -1.8391 0
M  V30 13949 C 1383.68 0.854062 -1.93052 0
M  V30 13950 O 1383.03 1.75752 -1.46026 0
M  V30 13951 C 1383.24 -1.34776 -3.21926 0
M  V30 13952 C 1384.59 -1.48177 -3.97905 0
M  V30 13953 O 1385.61 -1.30627 -3.31384 0
M  V30 13954 O 1384.47 -1.76822 -5.17104 0
M  V30 13955 H 1381.56 -0.233694 -0.793294 0
M  V30 13956 H 1384.11 -1.14487 -1.25263 0
M  V30 13957 H 1382.88 -2.38514 -3.10204 0
M  V30 13958 H 1382.5 -0.857914 -3.88234 0
M  V30 13959 N 1383.5 1.34231 -0.825823 0
M  V30 13960 C 1384.75 1.97805 -0.414456 0
M  V30 13961 C 1385.07 1.65786 1.02664 0
M  V30 13962 O 1384.34 0.950069 1.7132 0
M  V30 13963 H 1382.92 0.73173 -0.150265 0
M  V30 13964 H 1385.58 1.63819 -1.05591 0
M  V30 13965 H 1384.68 3.07466 -0.535829 0
M  V30 13966 N 1384.98 0.581051 1.46498 0
M  V30 13967 C 1385.89 -0.155669 2.34083 0
M  V30 13968 C 1386.91 -0.887728 1.49651 0
M  V30 13969 O 1388.08 -0.851284 1.82524 0
M  V30 13970 C 1385.15 -1.15752 3.26806 0
M  V30 13971 C 1384.21 -0.43031 4.27138 0
M  V30 13972 C 1383.44 -1.38443 5.15431 0
M  V30 13973 O 1383.66 -2.62084 5.06624 0
M  V30 13974 O 1382.6 -0.89592 5.95195 0
M  V30 13975 H 1386.42 0.56341 2.98428 0
M  V30 13976 H 1384.01 0.341466 1.45445 0
M  V30 13977 H 1385.89 -1.73523 3.84015 0
M  V30 13978 H 1384.57 -1.85809 2.65059 0
M  V30 13979 H 1383.47 0.1892 3.73621 0
M  V30 13980 H 1384.81 0.229263 4.91666 0
M  V30 13981 N 1386.46 -1.54343 0.318742 0
M  V30 13982 C 1387.7 -2.0239 -0.285929 0
M  V30 13983 C 1388.06 -1.20197 -1.49722 0
M  V30 13984 O 1389.26 -1.58025 -2.17443 0
M  V30 13985 C 1387.53 -3.52044 -0.616446 0
M  V30 13986 S 1389.09 -4.22031 -1.20146 0
M  V30 13987 H 1385.91 -0.705685 -0.0867722 0
M  V30 13988 H 1388.51 -1.90233 0.450744 0
M  V30 13989 H 1387.22 -4.09489 0.273339 0
M  V30 13990 H 1386.75 -3.68272 -1.38344 0
M  V30 13991 H 1388.76 -4.29287 -2.48851 0
M  V30 13992 N 1387.94 -0.0468143 -1.5753 0
M  V30 13993 C 1388.89 0.938619 -2.07783 0
M  V30 13994 C 1389.87 1.27454 -0.982057 0
M  V30 13995 O 1391.06 1.25769 -1.24544 0
M  V30 13996 C 1388.19 2.21499 -2.62285 0
M  V30 13997 C 1387.28 1.90665 -3.78824 0
M  V30 13998 N 1387.67 1.30174 -4.88762 0
M  V30 13999 C 1385.97 2.20559 -3.87646 0
M  V30 14000 C 1386.67 1.16872 -5.69838 0
M  V30 14001 N 1385.64 1.67016 -5.17307 0
M  V30 14002 H 1389.44 0.466179 -2.90179 0
M  V30 14003 H 1386.96 0.157752 -1.61632 0
M  V30 14004 H 1388.96 2.92987 -2.96588 0
M  V30 14005 H 1387.62 2.69353 -1.81326 0
M  V30 14006 H 1388.63 0.974495 -5.08649 0
M  V30 14007 H 1385.3 2.70964 -3.17623 0
M  V30 14008 H 1386.69 0.699463 -6.68249 0
M  V30 14009 N 1389.41 1.55964 0.226527 0
M  V30 14010 C 1390.66 1.77944 0.94967 0
M  V30 14011 C 1390.98 0.614478 1.85697 0
M  V30 14012 O 1392.18 0.717793 2.6184 0
M  V30 14013 C 1390.64 3.15108 1.73881 0
M  V30 14014 C 1390.25 4.39314 0.877894 0
M  V30 14015 C 1391.99 3.46418 2.45347 0
M  V30 14016 C 1389.9 5.67505 1.6641 0
M  V30 14017 H 1388.83 0.663412 0.35833 0
M  V30 14018 H 1391.48 1.82366 0.203695 0
M  V30 14019 H 1389.86 3.04849 2.52751 0
M  V30 14020 H 1391.03 4.60616 0.130089 0
M  V30 14021 H 1389.35 4.15487 0.2756 0
M  V30 14022 H 1391.95 4.39416 3.0466 0
M  V30 14023 H 1392.29 2.68685 3.17985 0
M  V30 14024 H 1392.82 3.57984 1.73471 0
M  V30 14025 H 1389.56 6.48116 0.981089 0
M  V30 14026 H 1389.08 5.50272 2.38665 0
M  V30 14027 H 1390.76 6.075 2.22605 0
M  V30 14028 N 1390.89 -0.493031 1.4969 0
M  V30 14029 C 1391.82 -1.60215 1.69863 0
M  V30 14030 C 1392.8 -1.61053 0.547362 0
M  V30 14031 O 1393.99 -1.77667 0.784093 0
M  V30 14032 C 1391.12 -2.98662 1.77252 0
M  V30 14033 C 1390.07 -3.1269 2.92248 0
M  V30 14034 C 1389.4 -4.52567 2.84758 0
M  V30 14035 C 1390.7 -2.91965 4.33074 0
M  V30 14036 H 1392.39 -1.43587 2.62723 0
M  V30 14037 H 1389.94 -0.689334 1.26429 0
M  V30 14038 H 1391.89 -3.7616 1.89951 0
M  V30 14039 H 1390.62 -3.16397 0.809976 0
M  V30 14040 H 1389.27 -2.37619 2.79164 0
M  V30 14041 H 1388.92 -4.6719 1.86394 0
M  V30 14042 H 1388.62 -4.62893 3.61944 0
M  V30 14043 H 1390.15 -5.32116 2.99475 0
M  V30 14044 H 1391.56 -3.59228 4.46798 0
M  V30 14045 H 1389.96 -3.13756 5.11544 0
M  V30 14046 H 1391.03 -1.88015 4.46966 0
M  V30 14047 N 1392.37 -1.38898 -0.744656 0
M  V30 14048 C 1393.62 -1.35327 -1.50104 0
M  V30 14049 C 1393.94 0.0532788 -1.94927 0
M  V30 14050 O 1393.21 1.0027 -1.68294 0
M  V30 14051 H 1391.79 -0.49797 -0.556808 0
M  V30 14052 H 1394.45 -1.73667 -0.884625 0
M  V30 14053 H 1393.55 -2.00983 -2.38773 0
M  V30 14054 N 1393.85 0.973806 -1.23914 0
M  V30 14055 C 1395.26 1.24128 -1.00322 0
M  V30 14056 C 1395.46 1.99378 0.29169 0
M  V30 14057 O 1394.52 2.31445 1.00943 0
M  V30 14058 C 1395.83 2.03438 -2.21435 0
M  V30 14059 C 1397.38 2.16553 -2.25995 0
M  V30 14060 C 1397.86 2.99257 -3.46712 0
M  V30 14061 N 1399.35 3.0684 -3.46992 0
M  V30 14062 C 1400.08 3.71174 -4.37055 0
M  V30 14063 N 1399.58 4.37277 -5.37364 0
M  V30 14064 N 1401.37 3.68126 -4.24782 0
M  V30 14065 H 1393.52 0.469872 -2.07138 0
M  V30 14066 H 1395.79 0.270234 -0.908668 0
M  V30 14067 H 1395.49 1.55527 -3.15443 0
M  V30 14068 H 1395.37 3.0418 -2.23057 0
M  V30 14069 H 1397.75 2.6367 -1.32522 0
M  V30 14070 H 1397.83 1.15179 -2.28402 0
M  V30 14071 H 1397.48 2.52835 -4.40496 0
M  V30 14072 H 1397.41 4.00815 -3.41547 0
M  V30 14073 H 1399.9 2.59813 -2.74419 0
M  V30 14074 H 1400.21 4.84166 -6.02331 0
M  V30 14075 H 1398.56 4.35965 -5.41257 0
M  V30 14076 H 1401.75 3.15657 -3.45656 0
M  V30 14077 H 1401.92 4.17981 -4.95173 0
M  V30 14078 N 1395.33 1.05191 1.17357 0
M  V30 14079 C 1396.57 0.763113 1.87895 0
M  V30 14080 C 1396.91 -0.708071 1.80831 0
M  V30 14081 O 1396.18 -1.51777 1.21631 0
M  V30 14082 C 1396.46 1.2442 3.37923 0
M  V30 14083 C 1396.32 2.77832 3.53737 0
M  V30 14084 C 1397.64 0.843209 4.31947 0
M  V30 14085 H 1394.75 0.27869 0.682276 0
M  V30 14086 H 1397.4 1.3059 1.38008 0
M  V30 14087 H 1395.55 0.782438 3.80539 0
M  V30 14088 H 1397.22 3.32131 3.20135 0
M  V30 14089 H 1395.46 3.17108 2.96015 0
M  V30 14090 H 1396.13 3.06555 4.59052 0
M  V30 14091 H 1398.61 1.24073 3.97171 0
M  V30 14092 H 1397.48 1.20743 5.35455 0
M  V30 14093 H 1397.75 -0.252802 4.41377 0
M  V30 14094 N 1396.8 -1.33791 0.83293 0
M  V30 14095 C 1398.05 -1.98266 0.426412 0
M  V30 14096 C 1398.38 -1.65848 -1.01035 0
M  V30 14097 O 1397.66 -0.93528 -1.70537 0
M  V30 14098 C 1397.94 -3.54356 0.640586 0
M  V30 14099 C 1397.79 -3.96482 2.12419 0
M  V30 14100 C 1399.11 -4.40022 0.0829237 0
M  V30 14101 H 1396.23 -0.720213 0.156404 0
M  V30 14102 H 1398.87 -1.58527 1.04735 0
M  V30 14103 H 1397.02 -3.88338 0.11204 0
M  V30 14104 H 1398.7 -3.72786 2.71714 0
M  V30 14105 H 1396.94 -3.46429 2.61092 0
M  V30 14106 H 1397.61 -5.05179 2.22482 0
M  V30 14107 H 1400.09 -4.12651 0.534634 0
M  V30 14108 H 1398.96 -5.48272 0.262511 0
M  V30 14109 H 1399.22 -4.30341 -1.01287 0
M  V30 14110 N 1398.28 -0.588812 -1.46187 0
M  V30 14111 C 1399.7 -0.250962 -1.57615 0
M  V30 14112 C 1399.9 1.2467 -1.58302 0
M  V30 14113 O 1398.95 2.02876 -1.50325 0
M  V30 14114 C 1400.27 -0.905561 -2.8674 0
M  V30 14115 C 1401.82 -0.879721 -3.00383 0
M  V30 14116 C 1402.29 -1.51398 -4.32253 0
M  V30 14117 N 1403.78 -1.4786 -4.38967 0
M  V30 14118 C 1404.52 -1.93868 -5.39632 0
M  V30 14119 N 1404.01 -2.47876 -6.46938 0
M  V30 14120 N 1405.81 -1.84748 -5.30872 0
M  V30 14121 H 1397.96 -1.56148 -1.43985 0
M  V30 14122 H 1400.22 -0.653028 -0.68721 0
M  V30 14123 H 1399.93 -1.95935 -2.92066 0
M  V30 14124 H 1399.8 -0.417456 -3.74883 0
M  V30 14125 H 1402.19 0.165466 -2.94636 0
M  V30 14126 H 1402.27 -1.40591 -2.137 0
M  V30 14127 H 1401.91 -2.55839 -4.38758 0
M  V30 14128 H 1401.84 -0.962965 -5.17721 0
M  V30 14129 H 1404.33 -1.08387 -3.62023 0
M  V30 14130 H 1404.65 -2.80824 -7.1997 0
M  V30 14131 H 1402.99 -2.51905 -6.47741 0
M  V30 14132 H 1406.18 -1.42307 -4.45944 0
M  V30 14133 H 1406.35 -2.20919 -6.09179 0
M  V30 14134 N 1399.76 1.54172 -0.326923 0
M  V30 14135 C 1401.17 1.86009 0.160446 0
M  V30 14136 C 1401.52 1.24851 1.51349 0
M  V30 14137 O 1400.65 0.555804 2.09141 0
M  V30 14138 C 1401.24 3.37488 0.297909 0
M  V30 14139 C 1399.8 3.69263 0.7295 0
M  V30 14140 C 1398.95 2.76911 -0.146778 0
M  V30 14141 H 1401.9 1.48972 -0.547093 0
M  V30 14142 H 1401.92 3.63388 1.12825 0
M  V30 14143 H 1401.43 3.81971 -0.687007 0
M  V30 14144 H 1399.53 3.30314 1.72404 0
M  V30 14145 H 1399.65 4.76149 0.53092 0
M  V30 14146 H 1398.01 2.51876 0.378212 0
M  V30 14147 H 1398.79 3.24221 -1.12852 0
M  V30 14148 N 1401.24 0.0551678 1.57503 0
M  V30 14149 C 1402.49 -0.6165 1.92467 0
M  V30 14150 C 1402.81 -1.71147 0.934552 0
M  V30 14151 O 1402.08 -1.9589 -0.0199649 0
M  V30 14152 H 1400.66 -0.230714 0.710479 0
M  V30 14153 H 1403.32 0.109111 1.94594 0
M  V30 14154 H 1402.42 -1.05254 2.93816 0
M  V30 14155 N 1402.72 -1.56081 -0.218252 0
M  V30 14156 C 1404.13 -1.69397 -0.784964 0
M  V30 14157 C 1404.48 -0.65775 -1.84846 0
M  V30 14158 O 1403.6 0.190478 -2.1556 0
M  V30 14159 C 1404.2 -3.07114 -1.4306 0
M  V30 14160 C 1402.76 -3.22273 -1.94466 0
M  V30 14161 C 1401.9 -2.65327 -0.80604 0
M  V30 14162 H 1404.86 -1.58699 0.0064566 0
M  V30 14163 H 1404.88 -3.03156 -2.2995 0
M  V30 14164 H 1404.39 -3.8251 -0.656335 0
M  V30 14165 H 1402.49 -2.51752 -2.74684 0
M  V30 14166 H 1402.6 -4.29526 -2.12237 0
M  V30 14167 H 1400.97 -2.23894 -1.21423 0
M  V30 14168 H 1401.75 -3.43271 -0.0443928 0
M  V30 14169 N 1404.2 0.485086 -1.49949 0
M  V30 14170 C 1405.47 1.24639 -1.50747 0
M  V30 14171 C 1405.85 2.09683 -0.244162 0
M  V30 14172 O 1405.2 2.1503 0.772949 0
M  V30 14173 C 1405.41 2.08946 -2.7954 0
M  V30 14174 C 1406.76 2.67604 -3.29656 0
M  V30 14175 O 1407.78 2.192 -2.80766 0
M  V30 14176 O 1406.64 3.55761 -4.14845 0
M  V30 14177 H 1403.74 0.564849 -0.604049 0
M  V30 14178 H 1406.28 0.498052 -1.62227 0
M  V30 14179 H 1405.05 1.46185 -3.62968 0
M  V30 14180 H 1404.68 2.90941 -2.70997 0
M  V30 14181 N 1405.67 1.39291 0.737279 0
M  V30 14182 C 1406.92 1.36121 1.49384 0
M  V30 14183 C 1407.24 -0.0429406 1.94953 0
M  V30 14184 O 1406.51 -0.993756 1.68823 0
M  V30 14185 H 1405.09 0.500916 0.554159 0
M  V30 14186 H 1407.75 1.74134 0.875402 0
M  V30 14187 H 1406.85 2.02246 2.37704 0
M  V30 14188 N 1407.15 -0.967221 1.24429 0
M  V30 14189 C 1408.4 -1.71279 1.08588 0
M  V30 14190 C 1408.73 -1.90558 -0.374325 0
M  V30 14191 O 1408.01 -1.46742 -1.27659 0
M  V30 14192 C 1408.29 -3.10326 1.82674 0
M  V30 14193 C 1408.14 -2.98535 3.36447 0
M  V30 14194 C 1409.46 -4.09993 1.59981 0
M  V30 14195 H 1406.58 -0.621658 0.395867 0
M  V30 14196 H 1409.22 -1.12514 1.53103 0
M  V30 14197 H 1407.37 -3.60492 1.44836 0
M  V30 14198 H 1409.04 -2.55791 3.83886 0
M  V30 14199 H 1407.29 -2.34736 3.64803 0
M  V30 14200 H 1407.96 -3.97041 3.83487 0
M  V30 14201 H 1410.43 -3.68687 1.92897 0
M  V30 14202 H 1409.31 -5.05349 2.14274 0
M  V30 14203 H 1409.57 -4.38812 0.538173 0
M  V30 14204 N 1408.63 -1.05812 -1.16797 0
M  V30 14205 C 1410.04 -0.79707 -1.6883 0
M  V30 14206 C 1410.39 0.679967 -1.8404 0
M  V30 14207 O 1409.52 1.5279 -1.53245 0
M  V30 14208 C 1410.11 -1.44029 -3.06661 0
M  V30 14209 C 1408.67 -1.22714 -3.55835 0
M  V30 14210 C 1407.82 -1.51988 -2.31937 0
M  V30 14211 H 1410.77 -1.22224 -1.01227 0
M  V30 14212 H 1410.79 -0.852962 -3.70816 0
M  V30 14213 H 1410.3 -2.51529 -2.95559 0
M  V30 14214 H 1408.4 -0.171671 -3.72204 0
M  V30 14215 H 1408.52 -1.93646 -4.38221 0
M  V30 14216 H 1406.88 -0.940215 -2.36711 0
M  V30 14217 H 1407.66 -2.60635 -2.23438 0
M  V30 14218 N 1410.11 1.33347 -0.840014 0
M  V30 14219 C 1411.04 2.28029 -0.231432 0
M  V30 14220 C 1412.05 1.51792 0.588488 0
M  V30 14221 O 1413.24 1.736 0.415371 0
M  V30 14222 C 1410.34 3.31745 0.692721 0
M  V30 14223 C 1409.51 4.37311 -0.0881144 0
M  V30 14224 C 1408.57 5.20689 0.759557 0
M  V30 14225 O 1407.6 5.68854 0.198347 0
M  V30 14226 N 1408.8 5.42082 2.07672 0
M  V30 14227 H 1411.57 2.80893 -1.04495 0
M  V30 14228 H 1409.13 1.46053 -0.698586 0
M  V30 14229 H 1411.12 3.84428 1.2648 0
M  V30 14230 H 1409.69 2.79148 1.40695 0
M  V30 14231 H 1408.91 3.85112 -0.841579 0
M  V30 14232 H 1410.2 5.04947 -0.624986 0
M  V30 14233 H 1409.6 5.04654 2.55619 0
M  V30 14234 H 1408.15 5.97817 2.59726 0
M  V30 14235 N 1411.59 0.596556 1.45873 0
M  V30 14236 C 1412.81 0.0916466 2.07197 0
M  V30 14237 C 1413.24 -1.21004 1.44012 0
M  V30 14238 O 1412.59 -1.73415 0.528844 0
M  V30 14239 C 1412.64 -0.0461457 3.6057 0
M  V30 14240 O 1411.75 -1.09919 3.97481 0
M  V30 14241 H 1411.09 0.0690655 0.660398 0
M  V30 14242 H 1413.62 0.823434 1.87299 0
M  V30 14243 H 1413.63 -0.2479 4.07246 0
M  V30 14244 H 1412.3 0.904381 4.05948 0
M  V30 14245 H 1410.88 -0.874788 3.62494 0
M  V30 14246 N 1413.06 -1.53996 0.335095 0
M  V30 14247 C 1414.29 -2.05188 -0.26563 0
M  V30 14248 C 1414.71 -1.21058 -1.44881 0
M  V30 14249 O 1414.06 -0.243919 -1.80863 0
M  V30 14250 C 1414.11 -3.54875 -0.688904 0
M  V30 14251 O 1413.84 -4.35811 0.447217 0
M  V30 14252 C 1415.34 -4.22204 -1.35123 0
M  V30 14253 H 1412.56 -0.668921 -0.0527806 0
M  V30 14254 H 1415.1 -1.98675 0.48463 0
M  V30 14255 H 1413.26 -3.61638 -1.38912 0
M  V30 14256 H 1413.67 -5.24381 0.111495 0
M  V30 14257 H 1415.14 -5.28356 -1.59823 0
M  V30 14258 H 1415.62 -3.74029 -2.30216 0
M  V30 14259 H 1416.23 -4.19611 -0.693283 0
M  V30 14260 N 1414.54 -0.0635198 -1.57472 0
M  V30 14261 C 1415.47 0.90431 -2.15278 0
M  V30 14262 C 1416.45 1.31609 -1.07764 0
M  V30 14263 O 1417.64 1.38861 -1.35762 0
M  V30 14264 C 1414.77 2.17483 -2.70774 0
M  V30 14265 C 1413.72 1.90272 -3.8338 0
M  V30 14266 C 1413.05 3.23885 -4.25444 0
M  V30 14267 C 1414.35 1.21454 -5.07983 0
M  V30 14268 H 1416.04 0.422786 -2.964 0
M  V30 14269 H 1413.59 0.201918 -1.42577 0
M  V30 14270 H 1415.54 2.856 -3.09856 0
M  V30 14271 H 1414.26 2.67863 -1.86861 0
M  V30 14272 H 1412.92 1.24564 -3.44789 0
M  V30 14273 H 1412.57 3.72089 -3.38465 0
M  V30 14274 H 1412.27 3.06472 -5.01347 0
M  V30 14275 H 1413.8 3.93212 -4.67137 0
M  V30 14276 H 1415.21 1.79625 -5.44433 0
M  V30 14277 H 1413.61 1.14327 -5.89109 0
M  V30 14278 H 1414.68 0.19238 -4.84518 0
M  V30 14279 N 1416.02 1.56195 0.209972 0
M  V30 14280 C 1416.95 1.96378 1.26324 0
M  V30 14281 C 1417.93 0.833606 1.48273 0
M  V30 14282 O 1419.12 1.0968 1.60262 0
M  V30 14283 C 1416.25 2.29048 2.61064 0
M  V30 14284 C 1415.2 3.44665 2.53752 0
M  V30 14285 C 1414.53 3.6297 3.92628 0
M  V30 14286 C 1415.83 4.79297 2.07536 0
M  V30 14287 H 1417.52 2.8461 0.929379 0
M  V30 14288 H 1415.07 1.36931 0.445627 0
M  V30 14289 H 1417.02 2.55752 3.34916 0
M  V30 14290 H 1415.74 1.37682 2.96161 0
M  V30 14291 H 1414.4 3.18028 1.82356 0
M  V30 14292 H 1414.05 2.68961 4.25052 0
M  V30 14293 H 1413.75 4.40741 3.88614 0
M  V30 14294 H 1415.27 3.92035 4.68125 0
M  V30 14295 H 1416.69 5.05131 2.71138 0
M  V30 14296 H 1415.08 5.60433 2.14557 0
M  V30 14297 H 1416.15 4.73877 1.02802 0
M  V30 14298 N 1417.5 -0.477127 1.50204 0
M  V30 14299 C 1418.75 -1.22722 1.60573 0
M  V30 14300 C 1419.07 -1.92595 0.305326 0
M  V30 14301 O 1418.34 -1.83836 -0.676842 0
M  V30 14302 H 1416.92 -0.455973 0.591691 0
M  V30 14303 H 1419.58 -0.550915 1.86952 0
M  V30 14304 H 1418.67 -1.97837 2.41385 0
M  V30 14305 N 1418.98 -1.3968 -0.729882 0
M  V30 14306 C 1420.23 -1.36492 -1.48502 0
M  V30 14307 C 1420.54 0.0346572 -1.95569 0
M  V30 14308 O 1421.74 0.189135 -2.7084 0
M  V30 14309 C 1420.2 -2.39813 -2.68361 0
M  V30 14310 C 1419.81 -3.85511 -2.28222 0
M  V30 14311 C 1421.55 -2.45709 -3.46161 0
M  V30 14312 C 1419.46 -4.80462 -3.44834 0
M  V30 14313 H 1418.39 -0.507455 -0.557679 0
M  V30 14314 H 1421.04 -1.6535 -0.795708 0
M  V30 14315 H 1419.42 -2.04033 -3.39392 0
M  V30 14316 H 1420.6 -4.30359 -1.64704 0
M  V30 14317 H 1418.91 -3.82957 -1.63501 0
M  V30 14318 H 1421.51 -3.1384 -4.32907 0
M  V30 14319 H 1421.85 -1.48318 -3.88983 0
M  V30 14320 H 1422.38 -2.80409 -2.82163 0
M  V30 14321 H 1419.12 -5.79134 -3.07057 0
M  V30 14322 H 1418.64 -4.40289 -4.07315 0
M  V30 14323 H 1420.32 -4.99607 -4.11098 0
M  V30 14324 N 1420.45 0.960609 -1.2494 0
M  V30 14325 C 1421.38 2.074 -1.07274 0
M  V30 14326 C 1422.37 1.70092 0.0164365 0
M  V30 14327 O 1423.55 1.93604 -0.151975 0
M  V30 14328 C 1420.68 3.40491 -0.684317 0
M  V30 14329 C 1419.63 3.91784 -1.72306 0
M  V30 14330 C 1418.96 5.21301 -1.18949 0
M  V30 14331 C 1420.26 4.18829 -3.12056 0
M  V30 14332 H 1421.95 2.22438 -2.00404 0
M  V30 14333 H 1419.5 1.06888 -0.964937 0
M  V30 14334 H 1421.45 4.17826 -0.547686 0
M  V30 14335 H 1420.18 3.25374 0.282687 0
M  V30 14336 H 1418.84 3.16613 -1.84802 0
M  V30 14337 H 1418.48 5.02549 -0.212892 0
M  V30 14338 H 1418.18 5.56588 -1.8837 0
M  V30 14339 H 1419.71 6.01238 -1.06513 0
M  V30 14340 H 1421.12 4.86844 -3.02748 0
M  V30 14341 H 1419.52 4.6536 -3.78894 0
M  V30 14342 H 1420.59 3.25333 -3.59564 0
M  V30 14343 N 1421.93 1.0643 1.16234 0
M  V30 14344 C 1422.86 0.697605 2.22836 0
M  V30 14345 C 1423.84 -0.310563 1.67241 0
M  V30 14346 O 1425.03 -0.185385 1.93313 0
M  V30 14347 C 1422.16 0.0847097 3.47197 0
M  V30 14348 C 1421.11 1.019 4.15693 0
M  V30 14349 C 1420.44 0.269339 5.34021 0
M  V30 14350 C 1421.74 2.34861 4.66516 0
M  V30 14351 H 1423.43 1.58883 2.53765 0
M  V30 14352 H 1420.98 0.765388 1.21975 0
M  V30 14353 H 1422.93 -0.1837 4.20999 0
M  V30 14354 H 1421.66 -0.84154 3.15572 0
M  V30 14355 H 1420.31 1.27218 3.43818 0
M  V30 14356 H 1419.96 -0.660072 4.9865 0
M  V30 14357 H 1419.66 0.892001 5.8079 0
M  V30 14358 H 1421.19 0.00850775 6.10599 0
M  V30 14359 H 1422.6 2.13922 5.31893 0
M  V30 14360 H 1421 2.92637 5.23912 0
M  V30 14361 H 1422.07 2.97834 3.82653 0
M  V30 14362 N 1423.41 -1.329 0.847073 0
M  V30 14363 C 1424.82 -1.79813 0.502394 0
M  V30 14364 C 1425.17 -1.70017 -0.979218 0
M  V30 14365 O 1424.3 -1.25427 -1.76344 0
M  V30 14366 C 1424.89 -3.26485 0.905154 0
M  V30 14367 C 1423.45 -3.71383 0.612489 0
M  V30 14368 C 1422.6 -2.54157 1.10903 0
M  V30 14369 H 1425.55 -1.20306 1.035 0
M  V30 14370 H 1425.57 -3.79872 0.218476 0
M  V30 14371 H 1425.08 -3.33583 1.98353 0
M  V30 14372 H 1423.18 -3.69806 -0.45548 0
M  V30 14373 H 1423.3 -4.64507 1.17347 0
M  V30 14374 H 1421.66 -2.49134 0.529576 0
M  V30 14375 H 1422.44 -2.64013 2.19435 0
M  V30 14376 N 1424.89 -0.604284 -1.45555 0
M  V30 14377 C 1425.82 0.103859 -2.33269 0
M  V30 14378 C 1426.8 0.862104 -1.46635 0
M  V30 14379 O 1427.98 0.833308 -1.75413 0
M  V30 14380 C 1425.11 1.104 -3.29286 0
M  V30 14381 C 1424.07 0.459189 -4.2553 0
M  V30 14382 C 1423.39 1.56734 -5.11213 0
M  V30 14383 C 1424.69 -0.617509 -5.18637 0
M  V30 14384 H 1426.39 -0.628538 -2.92728 0
M  V30 14385 H 1423.93 -0.303711 -1.40761 0
M  V30 14386 H 1425.89 1.60794 -3.89517 0
M  V30 14387 H 1424.61 1.86695 -2.67979 0
M  V30 14388 H 1423.27 -0.0238508 -3.66592 0
M  V30 14389 H 1422.92 2.32049 -4.46276 0
M  V30 14390 H 1422.62 1.14142 -5.76407 0
M  V30 14391 H 1424.14 2.07361 -5.74312 0
M  V30 14392 H 1425.56 -0.197784 -5.72959 0
M  V30 14393 H 1423.95 -0.96499 -5.9229 0
M  V30 14394 H 1425.02 -1.49541 -4.61265 0
M  V30 14395 N 1426.37 1.53816 -0.343257 0
M  V30 14396 C 1427.3 2.27951 0.506005 0
M  V30 14397 C 1428.28 1.29502 1.10287 0
M  V30 14398 O 1429.46 1.58344 1.12432 0
M  V30 14399 C 1426.59 3.0521 1.65723 0
M  V30 14400 C 1425.55 4.11161 1.18871 0
M  V30 14401 C 1424.87 4.76373 2.42843 0
M  V30 14402 C 1426.17 5.21498 0.289403 0
M  V30 14403 H 1427.87 2.99189 -0.112435 0
M  V30 14404 H 1425.41 1.43893 -0.055516 0
M  V30 14405 H 1427.37 3.55811 2.2578 0
M  V30 14406 H 1426.09 2.31624 2.30256 0
M  V30 14407 H 1424.75 3.61473 0.610962 0
M  V30 14408 H 1424.4 3.99381 3.05784 0
M  V30 14409 H 1424.1 5.47955 2.12177 0
M  V30 14410 H 1425.62 5.29758 3.03627 0
M  V30 14411 H 1427.03 5.67736 0.796808 0
M  V30 14412 H 1425.43 6.00054 0.0746366 0
M  V30 14413 H 1426.5 4.80185 -0.674543 0
M  V30 14414 N 1427.84 0.0718701 1.57436 0
M  V30 14415 C 1428.77 -0.89288 2.15754 0
M  V30 14416 C 1429.76 -1.31036 1.0846 0
M  V30 14417 O 1430.94 -1.38139 1.36496 0
M  V30 14418 C 1428.07 -2.16044 2.71923 0
M  V30 14419 C 1427.02 -1.88236 3.84384 0
M  V30 14420 C 1426.35 -3.21624 4.27156 0
M  V30 14421 C 1427.65 -1.18758 5.0862 0
M  V30 14422 H 1429.34 -0.407061 2.9662 0
M  V30 14423 H 1426.89 -0.194354 1.42682 0
M  V30 14424 H 1428.84 -2.83952 3.11366 0
M  V30 14425 H 1427.57 -2.66868 1.88279 0
M  V30 14426 H 1426.23 -1.22734 3.45445 0
M  V30 14427 H 1425.87 -3.70289 3.40433 0
M  V30 14428 H 1425.57 -3.03809 5.02965 0
M  V30 14429 H 1427.1 -3.90729 4.69215 0
M  V30 14430 H 1428.51 -1.76735 5.45378 0
M  V30 14431 H 1426.91 -1.11201 5.89707 0
M  V30 14432 H 1427.98 -0.166682 4.84613 0
M  V30 14433 N 1429.32 -1.56304 -0.201686 0
M  V30 14434 C 1430.25 -1.97046 -1.25281 0
M  V30 14435 C 1431.23 -0.841458 -1.47829 0
M  V30 14436 O 1432.42 -1.10529 -1.59678 0
M  V30 14437 C 1429.55 -2.30429 -2.59845 0
M  V30 14438 C 1428.5 -3.46006 -2.5192 0
M  V30 14439 C 1427.83 -3.65047 -3.90697 0
M  V30 14440 C 1429.13 -4.80391 -2.04992 0
M  V30 14441 H 1430.82 -2.85099 -0.914272 0
M  V30 14442 H 1428.37 -1.37166 -0.438359 0
M  V30 14443 H 1430.32 -2.57525 -3.33555 0
M  V30 14444 H 1429.05 -1.39251 -2.95426 0
M  V30 14445 H 1427.7 -3.18991 -1.80667 0
M  V30 14446 H 1427.35 -2.71211 -4.2362 0
M  V30 14447 H 1427.05 -4.42796 -3.86271 0
M  V30 14448 H 1428.58 -3.94512 -4.66039 0
M  V30 14449 H 1429.99 -5.06561 -2.68456 0
M  V30 14450 H 1428.39 -5.61563 -2.11582 0
M  V30 14451 H 1429.46 -4.74416 -1.00288 0
M  V30 14452 N 1430.8 0.469154 -1.50455 0
M  V30 14453 C 1432.05 1.2229 -1.6178 0
M  V30 14454 C 1432.38 1.91577 -0.318073 0
M  V30 14455 O 1431.65 1.82205 0.68057 0
M  V30 14456 C 1431.94 2.26504 -2.79943 0
M  V30 14457 C 1431.79 1.61509 -4.19804 0
M  V30 14458 C 1433.11 3.27796 -2.93662 0
M  V30 14459 H 1430.23 0.443241 -0.588817 0
M  V30 14460 H 1432.87 0.516431 -1.82847 0
M  V30 14461 H 1431.02 2.86757 -2.62112 0
M  V30 14462 H 1432.69 1.04838 -4.49229 0
M  V30 14463 H 1430.94 0.918162 -4.23972 0
M  V30 14464 H 1431.61 2.37248 -4.98415 0
M  V30 14465 H 1434.08 2.77568 -3.09992 0
M  V30 14466 H 1432.96 3.98041 -3.77961 0
M  V30 14467 H 1433.22 3.92033 -2.04359 0
M  V30 14468 N 1432.28 1.40065 0.722464 0
M  V30 14469 C 1433.24 1.39544 1.81825 0
M  V30 14470 C 1434.24 0.290385 1.58156 0
M  V30 14471 O 1435.43 0.54894 1.65325 0
M  V30 14472 C 1432.56 1.18041 3.19811 0
M  V30 14473 H 1433.76 2.37063 1.83687 0
M  V30 14474 H 1431.31 1.25813 0.927404 0
M  V30 14475 H 1432.04 0.212536 3.23603 0
M  V30 14476 H 1431.83 1.98079 3.38389 0
M  V30 14477 H 1433.32 1.20447 3.99853 0
M  V30 14478 N 1433.76 -0.95397 1.25448 0
M  V30 14479 C 1434.72 -2.03231 1.0597 0
M  V30 14480 C 1435.72 -1.60795 0.0122855 0
M  V30 14481 O 1436.91 -1.7233 0.254533 0
M  V30 14482 C 1434.04 -3.35414 0.609105 0
M  V30 14483 H 1435.24 -2.21943 2.01696 0
M  V30 14484 H 1432.79 -1.13115 1.07864 0
M  V30 14485 H 1433.52 -3.22398 -0.350723 0
M  V30 14486 H 1433.31 -3.67564 1.36526 0
M  V30 14487 H 1434.8 -4.14664 0.49428 0
M  V30 14488 N 1435.24 -1.07045 -1.15668 0
M  V30 14489 C 1436.17 -0.709413 -2.22463 0
M  V30 14490 C 1437.15 0.30169 -1.67403 0
M  V30 14491 O 1438.33 0.175131 -1.93409 0
M  V30 14492 C 1435.46 -0.103121 -3.47147 0
M  V30 14493 C 1434.42 -1.04103 -4.15146 0
M  V30 14494 C 1433.74 -0.297656 -5.33871 0
M  V30 14495 C 1435.04 -2.37332 -4.65264 0
M  V30 14496 H 1436.74 -1.60227 -2.52918 0
M  V30 14497 H 1434.28 -0.771846 -1.21567 0
M  V30 14498 H 1436.23 0.161371 -4.21091 0
M  V30 14499 H 1434.96 0.824792 -3.16014 0
M  V30 14500 H 1433.62 -1.2904 -3.43139 0
M  V30 14501 H 1433.27 0.633618 -4.98993 0
M  V30 14502 H 1432.97 -0.922789 -5.80309 0
M  V30 14503 H 1434.49 -0.0408892 -6.10586 0
M  V30 14504 H 1435.9 -2.1674 -5.30751 0
M  V30 14505 H 1434.3 -2.95412 -5.22352 0
M  V30 14506 H 1435.37 -2.99859 -3.81068 0
M  V30 14507 N 1436.71 1.32449 -0.85411 0
M  V30 14508 C 1437.68 2.27183 -0.303377 0
M  V30 14509 C 1438.68 1.51582 0.536622 0
M  V30 14510 O 1439.87 1.70684 0.348211 0
M  V30 14511 C 1437 3.36086 0.570852 0
M  V30 14512 H 1438.19 2.77408 -1.1395 0
M  V30 14513 H 1435.74 1.43111 -0.628402 0
M  V30 14514 H 1436.48 2.91128 1.42881 0
M  V30 14515 H 1436.26 3.92088 -0.030399 0
M  V30 14516 H 1437.75 4.06675 0.948972 0
M  V30 14517 N 1438.19 0.611994 1.45232 0
M  V30 14518 C 1439.42 0.115409 2.06578 0
M  V30 14519 C 1439.83 -1.20206 1.45588 0
M  V30 14520 O 1439.19 -1.73315 0.571668 0
M  V30 14521 C 1439.24 -0.0259943 3.61491 0
M  V30 14522 O 1438.96 1.23936 4.20204 0
M  V30 14523 C 1440.46 -0.553522 4.39831 0
M  V30 14524 H 1437.68 0.0708656 0.667247 0
M  V30 14525 H 1440.23 0.840977 1.86408 0
M  V30 14526 H 1438.38 -0.701909 3.80988 0
M  V30 14527 H 1438.8 1.07187 5.13431 0
M  V30 14528 H 1440.27 -0.601536 5.48713 0
M  V30 14529 H 1440.75 -1.57671 4.09923 0
M  V30 14530 H 1441.35 0.0884954 4.25208 0
M  V30 14531 N 1439.67 -1.53632 0.351409 0
M  V30 14532 C 1440.63 -2.23916 -0.489293 0
M  V30 14533 C 1441.63 -1.24207 -1.02124 0
M  V30 14534 O 1442.82 -1.48589 -0.909235 0
M  V30 14535 C 1439.95 -2.96492 -1.68242 0
M  V30 14536 H 1441.15 -2.99637 0.125518 0
M  V30 14537 H 1438.7 -1.55961 0.102874 0
M  V30 14538 H 1439.44 -2.24978 -2.33571 0
M  V30 14539 H 1439.22 -3.69637 -1.3081 0
M  V30 14540 H 1440.71 -3.49961 -2.27853 0
M  V30 14541 N 1441.15 -0.0802183 -1.57396 0
M  V30 14542 C 1442.08 0.881426 -2.16225 0
M  V30 14543 C 1443.06 1.30459 -1.09154 0
M  V30 14544 O 1444.24 1.37413 -1.37227 0
M  V30 14545 C 1441.37 2.14599 -2.73065 0
M  V30 14546 C 1440.33 1.86195 -3.85377 0
M  V30 14547 C 1439.65 3.19354 -4.28856 0
M  V30 14548 C 1440.95 1.16059 -5.09242 0
M  V30 14549 H 1442.65 0.391325 -2.96832 0
M  V30 14550 H 1440.19 0.186785 -1.42783 0
M  V30 14551 H 1442.15 2.82297 -3.12868 0
M  V30 14552 H 1440.87 2.65866 -1.89691 0
M  V30 14553 H 1439.53 1.209 -3.46091 0
M  V30 14554 H 1439.18 3.68479 -3.42392 0
M  V30 14555 H 1438.88 3.01137 -5.04569 0
M  V30 14556 H 1440.4 3.88235 -4.71281 0
M  V30 14557 H 1441.82 1.7384 -5.46308 0
M  V30 14558 H 1440.21 1.08072 -5.90288 0
M  V30 14559 H 1441.28 0.14098 -4.84695 0
M  V30 14560 N 1442.63 1.56409 0.193394 0
M  V30 14561 C 1443.87 1.80991 0.914875 0
M  V30 14562 C 1444.2 0.654538 1.82837 0
M  V30 14563 O 1443.48 -0.344816 1.91419 0
M  V30 14564 C 1443.76 3.15841 1.72964 0
M  V30 14565 C 1443.62 4.41873 0.840748 0
M  V30 14566 C 1444.93 3.474 2.70188 0
M  V30 14567 H 1442.05 0.658408 0.331161 0
M  V30 14568 H 1444.7 1.89125 0.182161 0
M  V30 14569 H 1442.85 3.09038 2.35431 0
M  V30 14570 H 1444.52 4.60723 0.230654 0
M  V30 14571 H 1442.76 4.33549 0.147558 0
M  V30 14572 H 1443.43 5.32728 1.44586 0
M  V30 14573 H 1445.91 3.54513 2.17852 0
M  V30 14574 H 1444.78 4.42872 3.24278 0
M  V30 14575 H 1445.04 2.7098 3.49317 0
M  V30 14576 N 1444.1 -0.461169 1.50702 0
M  V30 14577 C 1445.35 -1.21251 1.62186 0
M  V30 14578 C 1445.68 -1.91735 0.326818 0
M  V30 14579 O 1444.93 -1.83212 -0.687879 0
M  V30 14580 C 1445.23 -2.27213 2.75879 0
M  V30 14581 C 1444.9 -1.73912 4.16011 0
M  V30 14582 C 1443.56 -1.59097 4.54138 0
M  V30 14583 C 1445.91 -1.34477 5.03553 0
M  V30 14584 C 1443.24 -1.03285 5.77537 0
M  V30 14585 C 1445.59 -0.801027 6.27508 0
M  V30 14586 C 1444.26 -0.639586 6.64429 0
M  V30 14587 H 1443.53 -0.443689 0.593482 0
M  V30 14588 H 1446.17 -0.507035 1.84666 0
M  V30 14589 H 1444.48 -3.03707 2.47526 0
M  V30 14590 H 1446.18 -2.85124 2.81967 0
M  V30 14591 H 1442.77 -1.86413 3.85938 0
M  V30 14592 H 1446.95 -1.44753 4.74721 0
M  V30 14593 H 1442.21 -0.895316 6.04809 0
M  V30 14594 H 1446.38 -0.486842 6.94696 0
M  V30 14595 H 1444.01 -0.204966 7.59924 0
M  V30 14596 N 1445.58 -1.40446 -0.715026 0
M  V30 14597 C 1446.81 -1.42263 -1.50917 0
M  V30 14598 C 1447.23 -0.0242402 -1.88084 0
M  V30 14599 O 1446.59 0.967817 -1.53307 0
M  V30 14600 C 1446.64 -2.31998 -2.7606 0
M  V30 14601 O 1445.74 -1.76361 -3.72787 0
M  V30 14602 H 1445.08 -0.483614 -0.454988 0
M  V30 14603 H 1447.61 -1.84682 -0.880549 0
M  V30 14604 H 1447.62 -2.47204 -3.24583 0
M  V30 14605 H 1446.3 -3.33614 -2.48343 0
M  V30 14606 H 1444.87 -1.70504 -3.31636 0
M  V30 14607 N 1447.06 0.947303 -1.25952 0
M  V30 14608 C 1448.29 1.72479 -1.1373 0
M  V30 14609 C 1448.7 1.86629 0.310871 0
M  V30 14610 O 1448.04 1.36882 1.22512 0
M  V30 14611 C 1448.1 3.15328 -1.72651 0
M  V30 14612 C 1447.77 3.24584 -3.21705 0
M  V30 14613 C 1448.76 3.08331 -4.18602 0
M  V30 14614 C 1446.45 3.4817 -3.62054 0
M  V30 14615 C 1448.44 3.15523 -5.53827 0
M  V30 14616 C 1446.13 3.54997 -4.97413 0
M  V30 14617 C 1447.13 3.38689 -5.93109 0
M  V30 14618 O 1446.82 3.45212 -7.26005 0
M  V30 14619 H 1446.55 0.547044 -0.397138 0
M  V30 14620 H 1449.1 1.19654 -1.66949 0
M  V30 14621 H 1447.33 3.69549 -1.13887 0
M  V30 14622 H 1449.02 3.74965 -1.55423 0
M  V30 14623 H 1449.79 2.89971 -3.88769 0
M  V30 14624 H 1445.67 3.59922 -2.88057 0
M  V30 14625 H 1449.21 3.02711 -6.285 0
M  V30 14626 H 1445.11 3.72876 -5.26909 0
M  V30 14627 H 1445.87 3.61796 -7.34198 0
M  V30 14628 N 1448.54 1.07657 1.15099 0
M  V30 14629 C 1449.78 0.812636 1.86461 0
M  V30 14630 C 1450.14 -0.654311 1.80932 0
M  V30 14631 O 1449.43 -1.47429 1.22373 0
M  V30 14632 C 1449.63 1.25903 3.3449 0
M  V30 14633 C 1449.46 2.76783 3.54431 0
M  V30 14634 C 1448.23 3.44432 3.69722 0
M  V30 14635 C 1450.42 3.74974 3.51993 0
M  V30 14636 N 1448.41 4.83922 3.77747 0
M  V30 14637 C 1449.78 5.0032 3.66169 0
M  V30 14638 C 1451.83 3.68087 3.35285 0
M  V30 14639 C 1450.53 6.19598 3.65364 0
M  V30 14640 C 1452.56 4.86832 3.3578 0
M  V30 14641 C 1451.92 6.11013 3.50489 0
M  V30 14642 H 1448.02 0.349967 0.699319 0
M  V30 14643 H 1450.61 1.37343 1.38003 0
M  V30 14644 H 1448.78 0.725898 3.81556 0
M  V30 14645 H 1450.51 0.942315 3.93577 0
M  V30 14646 H 1447.26 2.94841 3.70629 0
M  V30 14647 H 1447.69 5.56527 3.85495 0
M  V30 14648 H 1452.33 2.73021 3.2283 0
M  V30 14649 H 1450.05 7.14982 3.76597 0
M  V30 14650 H 1453.63 4.83183 3.24076 0
M  V30 14651 H 1452.51 7.01358 3.50809 0
M  V30 14652 N 1450.02 -1.31994 0.861122 0
M  V30 14653 C 1451.26 -1.97712 0.477669 0
M  V30 14654 C 1451.62 -1.66878 -0.957573 0
M  V30 14655 O 1450.91 -0.950114 -1.66383 0
M  V30 14656 C 1451.1 -3.51232 0.661135 0
M  V30 14657 C 1450.93 -3.96985 2.11266 0
M  V30 14658 C 1449.7 -4.23753 2.75247 0
M  V30 14659 C 1451.9 -4.11577 3.08397 0
M  V30 14660 N 1449.88 -4.55798 4.11243 0
M  V30 14661 C 1451.25 -4.47233 4.29398 0
M  V30 14662 C 1453.31 -3.9393 3.04506 0
M  V30 14663 C 1452.01 -4.67083 5.47015 0
M  V30 14664 C 1454.04 -4.14968 4.21373 0
M  V30 14665 C 1453.4 -4.50947 5.41134 0
M  V30 14666 H 1449.5 -0.749334 0.223657 0
M  V30 14667 H 1452.08 -1.59691 1.11387 0
M  V30 14668 H 1450.25 -3.88362 0.0545925 0
M  V30 14669 H 1451.99 -4.03946 0.246941 0
M  V30 14670 H 1448.74 -4.16064 2.26248 0
M  V30 14671 H 1449.17 -4.75995 4.81412 0
M  V30 14672 H 1453.81 -3.6521 2.1303 0
M  V30 14673 H 1451.53 -4.94655 6.39016 0
M  V30 14674 H 1455.11 -4.02809 4.19805 0
M  V30 14675 H 1453.99 -4.66898 6.3006 0
M  V30 14676 N 1451.49 -0.619688 -1.44906 0
M  V30 14677 C 1452.91 -0.284338 -1.57047 0
M  V30 14678 C 1453.11 1.21284 -1.60911 0
M  V30 14679 O 1452.17 1.99642 -1.54594 0
M  V30 14680 C 1453.48 -0.966179 -2.84755 0
M  V30 14681 C 1455.03 -0.943239 -2.98449 0
M  V30 14682 C 1455.5 -1.60532 -4.28945 0
M  V30 14683 N 1456.99 -1.57138 -4.35732 0
M  V30 14684 C 1457.73 -2.05271 -5.35399 0
M  V30 14685 N 1457.22 -2.61543 -6.41535 0
M  V30 14686 N 1459.02 -1.95967 -5.26833 0
M  V30 14687 H 1451.17 -1.59167 -1.40641 0
M  V30 14688 H 1453.43 -0.667458 -0.673204 0
M  V30 14689 H 1453.14 -2.02086 -2.87844 0
M  V30 14690 H 1453.01 -0.49688 -3.73913 0
M  V30 14691 H 1455.4 0.102932 -2.9492 0
M  V30 14692 H 1455.48 -1.45092 -2.1067 0
M  V30 14693 H 1455.12 -2.65088 -4.33233 0
M  V30 14694 H 1455.05 -1.07256 -5.15561 0
M  V30 14695 H 1457.54 -1.16042 -3.59643 0
M  V30 14696 H 1457.86 -2.96033 -7.13852 0
M  V30 14697 H 1456.2 -2.65588 -6.42252 0
M  V30 14698 H 1459.39 -1.51734 -4.42825 0
M  V30 14699 H 1459.57 -2.33791 -6.04356 0
M  V30 14700 N 1452.97 1.53444 -0.359552 0
M  V30 14701 C 1454.39 1.59598 -0.00824946 0
M  V30 14702 C 1454.59 1.37492 1.47303 0
M  V30 14703 O 1453.64 1.1771 2.23385 0
M  V30 14704 C 1454.96 2.9718 -0.45878 0
M  V30 14705 C 1456.51 3.1027 -0.412485 0
M  V30 14706 C 1456.98 4.50255 -0.838733 0
M  V30 14707 N 1458.47 4.56352 -0.793552 0
M  V30 14708 C 1459.21 5.62845 -1.09513 0
M  V30 14709 N 1458.7 6.77119 -1.46567 0
M  V30 14710 N 1460.5 5.52799 -1.01832 0
M  V30 14711 H 1452.65 1.66065 -1.32424 0
M  V30 14712 H 1454.91 0.778561 -0.540876 0
M  V30 14713 H 1454.62 3.18475 -1.4922 0
M  V30 14714 H 1454.49 3.7687 0.157741 0
M  V30 14715 H 1456.88 2.88689 0.611791 0
M  V30 14716 H 1456.96 2.32602 -1.06442 0
M  V30 14717 H 1456.6 4.72573 -1.8611 0
M  V30 14718 H 1456.53 5.26344 -0.164109 0
M  V30 14719 H 1459.02 3.74299 -0.52048 0
M  V30 14720 H 1459.34 7.54313 -1.68021 0
M  V30 14721 H 1457.68 6.78525 -1.50427 0
M  V30 14722 H 1460.87 4.62403 -0.728059 0
M  V30 14723 H 1461.04 6.35698 -1.25668 0
M  V30 14724 N 1454.45 0.0885642 1.57351 0
M  V30 14725 C 1455.4 -0.872723 2.13664 0
M  V30 14726 C 1456.37 -1.28418 1.05347 0
M  V30 14727 O 1457.55 -1.36709 1.33099 0
M  V30 14728 C 1454.69 -2.12886 2.71613 0
M  V30 14729 C 1453.81 -1.76852 3.94141 0
M  V30 14730 C 1452.94 -2.97203 4.40277 0
M  V30 14731 C 1451.98 -2.57265 5.55411 0
M  V30 14732 N 1451.12 -3.70429 5.96428 0
M  V30 14733 H 1455.96 -0.385644 2.95494 0
M  V30 14734 H 1453.49 -0.178688 1.46011 0
M  V30 14735 H 1455.45 -2.86441 3.03327 0
M  V30 14736 H 1454.08 -2.59105 1.92521 0
M  V30 14737 H 1453.13 -0.932921 3.68783 0
M  V30 14738 H 1454.45 -1.43481 4.77718 0
M  V30 14739 H 1453.6 -3.79019 4.7374 0
M  V30 14740 H 1452.34 -3.3378 3.55587 0
M  V30 14741 H 1451.34 -1.73875 5.21582 0
M  V30 14742 H 1452.57 -2.21839 6.41844 0
M  V30 14743 H 1450.51 -4.06737 5.14686 0
M  V30 14744 H 1450.43 -3.40881 6.74786 0
M  V30 14745 H 1451.7 -4.52774 6.3452 0
M  V30 14746 N 1455.93 -1.56509 -0.185096 0
M  V30 14747 C 1456.86 -1.91878 -1.25361 0
M  V30 14748 C 1457.87 -0.810443 -1.41194 0
M  V30 14749 O 1459.06 -1.08887 -1.41442 0
M  V30 14750 C 1456.16 -2.14433 -2.62434 0
M  V30 14751 C 1455.34 -3.45618 -2.6808 0
M  V30 14752 C 1454.39 -3.57165 -3.86419 0
M  V30 14753 O 1453.42 -4.29904 -3.73056 0
M  V30 14754 N 1454.62 -2.90993 -5.02298 0
M  V30 14755 H 1457.39 -2.84133 -0.953328 0
M  V30 14756 H 1454.95 -1.57498 -0.374955 0
M  V30 14757 H 1456.94 -2.19437 -3.40044 0
M  V30 14758 H 1455.51 -1.28629 -2.84909 0
M  V30 14759 H 1454.73 -3.52394 -1.76669 0
M  V30 14760 H 1456.02 -4.31968 -2.68851 0
M  V30 14761 H 1455.42 -2.31743 -5.16054 0
M  V30 14762 H 1453.97 -3.01611 -5.77819 0
M  V30 14763 N 1457.41 0.45317 -1.50944 0
M  V30 14764 C 1458.34 1.55655 -1.74051 0
M  V30 14765 C 1459.32 1.59545 -0.58987 0
M  V30 14766 O 1460.5 1.75526 -0.830922 0
M  V30 14767 C 1457.63 2.93857 -1.85109 0
M  V30 14768 C 1456.59 3.04832 -3.00435 0
M  V30 14769 C 1455.91 4.44858 -2.96657 0
M  V30 14770 C 1457.21 2.80381 -4.40663 0
M  V30 14771 H 1458.91 1.36571 -2.66437 0
M  V30 14772 H 1456.45 0.655572 -1.28212 0
M  V30 14773 H 1458.41 3.70992 -1.99857 0
M  V30 14774 H 1457.13 3.14138 -0.893579 0
M  V30 14775 H 1455.79 2.30134 -2.85366 0
M  V30 14776 H 1455.44 4.62083 -1.98716 0
M  V30 14777 H 1455.14 4.53134 -3.7409 0
M  V30 14778 H 1456.66 5.23989 -3.13478 0
M  V30 14779 H 1458.07 3.47255 -4.56165 0
M  V30 14780 H 1456.47 3.00083 -5.19683 0
M  V30 14781 H 1457.54 1.76099 -4.51793 0
M  V30 14782 N 1458.88 1.40823 0.707568 0
M  V30 14783 C 1460.13 1.39741 1.4697 0
M  V30 14784 C 1460.46 0.00231194 1.942 0
M  V30 14785 O 1459.74 -0.967798 1.68713 0
M  V30 14786 C 1460.02 2.39385 2.69011 0
M  V30 14787 C 1459.87 3.87953 2.27624 0
M  V30 14788 C 1461.19 2.3645 3.71186 0
M  V30 14789 H 1458.31 0.508904 0.533091 0
M  V30 14790 H 1460.95 1.72015 0.806888 0
M  V30 14791 H 1459.1 2.11993 3.25563 0
M  V30 14792 H 1460.78 4.26202 1.76492 0
M  V30 14793 H 1459.02 4.03399 1.59537 0
M  V30 14794 H 1459.69 4.53201 3.15139 0
M  V30 14795 H 1462.17 2.60731 3.24282 0
M  V30 14796 H 1461.04 3.08204 4.54204 0
M  V30 14797 H 1461.3 1.3789 4.20046 0
M  V30 14798 N 1460.36 -0.94061 1.26453 0
M  V30 14799 C 1461.29 -2.05667 1.10559 0
M  V30 14800 C 1462.27 -1.70097 0.0106258 0
M  V30 14801 O 1463.46 -1.93338 0.182756 0
M  V30 14802 C 1460.59 -3.3936 0.7384 0
M  V30 14803 C 1459.54 -3.88993 1.78517 0
M  V30 14804 C 1458.87 -5.19343 1.27228 0
M  V30 14805 C 1460.17 -4.13812 3.1868 0
M  V30 14806 H 1461.86 -2.19221 2.03918 0
M  V30 14807 H 1459.41 -1.05339 0.98182 0
M  V30 14808 H 1461.36 -4.16902 0.61409 0
M  V30 14809 H 1460.09 -3.25783 -0.230887 0
M  V30 14810 H 1458.74 -3.13633 1.89816 0
M  V30 14811 H 1458.39 -5.02147 0.292816 0
M  V30 14812 H 1458.09 -5.53521 1.97201 0
M  V30 14813 H 1459.62 -5.99468 1.16065 0
M  V30 14814 H 1461.03 -4.81966 3.10455 0
M  V30 14815 H 1459.43 -4.59273 3.86249 0
M  V30 14816 H 1460.5 -3.19571 3.64695 0
M  V30 14817 N 1461.84 -1.08266 -1.14527 0
M  V30 14818 C 1463.25 -0.832702 -1.67102 0
M  V30 14819 C 1463.6 0.640776 -1.85441 0
M  V30 14820 O 1462.73 1.49505 -1.56452 0
M  V30 14821 C 1463.32 -1.50502 -3.03537 0
M  V30 14822 C 1461.88 -1.30234 -3.53152 0
M  V30 14823 C 1461.03 -1.56873 -2.28661 0
M  V30 14824 H 1463.98 -1.24344 -0.986118 0
M  V30 14825 H 1464 -0.931426 -3.68924 0
M  V30 14826 H 1463.51 -2.57741 -2.90157 0
M  V30 14827 H 1461.61 -0.250582 -3.71756 0
M  V30 14828 H 1461.73 -2.02898 -4.34015 0
M  V30 14829 H 1460.09 -0.990214 -2.34663 0
M  V30 14830 H 1460.87 -2.65316 -2.17859 0
M  V30 14831 N 1463.32 1.31536 -0.86811 0
M  V30 14832 C 1464.73 1.78991 -0.530937 0
M  V30 14833 C 1465.08 1.71553 0.952046 0
M  V30 14834 O 1464.21 1.28216 1.74326 0
M  V30 14835 C 1464.8 3.25004 -0.956981 0
M  V30 14836 C 1463.36 3.70362 -0.671495 0
M  V30 14837 C 1462.51 2.52361 -1.14932 0
M  V30 14838 H 1465.46 1.18644 -1.05401 0
M  V30 14839 H 1465.48 3.79477 -0.278883 0
M  V30 14840 H 1464.99 3.30385 -2.03635 0
M  V30 14841 H 1463.09 3.70483 0.39659 0
M  V30 14842 H 1463.21 4.62581 -1.24722 0
M  V30 14843 H 1461.57 2.4826 -0.569144 0
M  V30 14844 H 1462.35 2.60489 -2.23608 0
M  V30 14845 N 1464.8 0.627364 1.44575 0
M  V30 14846 C 1465.75 -0.0920488 2.32418 0
M  V30 14847 C 1466.74 -0.839633 1.47128 0
M  V30 14848 O 1467.95 -0.752958 1.63495 0
M  V30 14849 H 1464.32 -0.0485336 0.750432 0
M  V30 14850 H 1466.29 0.666959 2.90851 0
M  V30 14851 C 1465.04 -1.06262 3.31064 0
M  V30 14852 H 1464.36 -0.4968 3.96701 0
M  V30 14853 H 1465.8 -1.53556 3.95217 0
M  V30 14854 C 1464.26 -2.14601 2.59707 0
M  V30 14855 O 1464.79 -3.2263 2.39317 0
M  V30 14856 N 1463 -1.90431 2.19509 0
M  V30 14857 H 1462.55 -1.02584 2.36293 0
M  V30 14858 H 1462.5 -2.6312 1.72091 0
M  V30 14859 N 1466.28 -1.53251 0.367684 0
M  V30 14860 C 1467.21 -2.28728 -0.469676 0
M  V30 14861 C 1468.19 -1.3124 -1.08213 0
M  V30 14862 O 1469.37 -1.60112 -1.09898 0
M  V30 14863 C 1466.5 -3.07808 -1.60846 0
M  V30 14864 C 1465.46 -4.13 -1.12315 0
M  V30 14865 C 1464.78 -4.80176 -2.35234 0
M  V30 14866 C 1466.08 -5.21892 -0.2064 0
M  V30 14867 H 1467.78 -2.98972 0.160019 0
M  V30 14868 H 1465.32 -1.43786 0.0784011 0
M  V30 14869 H 1467.27 -3.59358 -2.20091 0
M  V30 14870 H 1466 -2.35258 -2.26542 0
M  V30 14871 H 1464.66 -3.62399 -0.553378 0
M  V30 14872 H 1464.31 -4.04196 -2.99391 0
M  V30 14873 H 1464.01 -5.51261 -2.03433 0
M  V30 14874 H 1465.53 -5.34521 -2.9516 0
M  V30 14875 H 1466.94 -5.68932 -0.706386 0
M  V30 14876 H 1465.34 -6.00096 0.0208362 0
M  V30 14877 H 1466.41 -4.79051 0.750851 0
M  V30 14878 N 1467.75 -0.0969077 -1.57302 0
M  V30 14879 C 1468.7 0.878876 -2.15357 0
M  V30 14880 C 1469.7 1.29091 -1.0969 0
M  V30 14881 O 1470.9 1.26523 -1.28031 0
M  V30 14882 H 1467.28 0.301458 -0.688932 0
M  V30 14883 H 1469.25 0.364542 -2.96165 0
M  V30 14884 C 1468 2.12761 -2.75006 0
M  V30 14885 H 1467.32 1.81944 -3.56 0
M  V30 14886 H 1468.76 2.79092 -3.19193 0
M  V30 14887 C 1467.22 2.90283 -1.70989 0
M  V30 14888 O 1467.75 3.84889 -1.14992 0
M  V30 14889 N 1465.95 2.53857 -1.41439 0
M  V30 14890 H 1465.5 1.76993 -1.87166 0
M  V30 14891 H 1465.46 3.06025 -0.720816 0
M  V30 14892 N 1469.23 1.56605 0.176793 0
M  V30 14893 C 1470.51 1.72546 0.921261 0
M  V30 14894 C 1470.89 0.656794 2.00623 0
M  V30 14895 O 1470.24 -0.329303 2.26115 0
M  V30 14896 C 1470.45 3.15548 1.491 0
M  V30 14897 C 1471.79 3.7634 1.96604 0
M  V30 14898 O 1472.82 3.18791 1.58905 0
M  V30 14899 O 1471.68 4.77377 2.66033 0
M  V30 14900 H 1468.77 0.704425 0.43326 0
M  V30 14901 H 1471.32 1.68895 0.165052 0
M  V30 14902 H 1470.09 3.84808 0.709839 0
M  V30 14903 H 1469.71 3.23502 2.31154 0
M  V30 14904 N 1470.71 -0.445159 1.51182 0
M  V30 14905 C 1471.64 -1.5473 1.74874 0
M  V30 14906 C 1472.62 -1.5923 0.598323 0
M  V30 14907 O 1473.81 -1.75083 0.840219 0
M  V30 14908 C 1470.94 -2.92872 1.86664 0
M  V30 14909 C 1469.89 -3.03235 3.02048 0
M  V30 14910 C 1469.22 -4.43279 2.99012 0
M  V30 14911 C 1470.52 -2.7804 4.42144 0
M  V30 14912 H 1472.21 -1.35156 2.67158 0
M  V30 14913 H 1469.76 -0.648763 1.28558 0
M  V30 14914 H 1471.71 -3.69927 2.01822 0
M  V30 14915 H 1470.43 -3.1366 0.910225 0
M  V30 14916 H 1469.09 -2.28617 2.86583 0
M  V30 14917 H 1468.74 -4.61023 2.01163 0
M  V30 14918 H 1468.44 -4.51144 3.76488 0
M  V30 14919 H 1469.96 -5.22319 3.16252 0
M  V30 14920 H 1471.38 -3.44831 4.58 0
M  V30 14921 H 1469.77 -2.97323 5.21267 0
M  V30 14922 H 1470.84 -1.737 4.52721 0
M  V30 14923 N 1472.19 -1.41197 -0.700089 0
M  V30 14924 C 1473.15 -1.42419 -1.79582 0
M  V30 14925 C 1474.15 -0.31551 -1.57674 0
M  V30 14926 O 1475.34 -0.575173 -1.64431 0
M  V30 14927 C 1472.47 -1.23114 -3.17893 0
M  V30 14928 H 1473.67 -2.39956 -1.79892 0
M  V30 14929 H 1471.22 -1.27273 -0.907271 0
M  V30 14930 H 1471.95 -0.263992 -3.23224 0
M  V30 14931 H 1471.74 -2.03437 -3.35195 0
M  V30 14932 H 1473.23 -1.26793 -3.97886 0
M  V30 14933 N 1473.67 0.933891 -1.2695 0
M  V30 14934 C 1474.89 1.72042 -1.15828 0
M  V30 14935 C 1475.32 1.85975 0.28193 0
M  V30 14936 O 1474.67 1.35528 1.20423 0
M  V30 14937 C 1474.72 3.10112 -1.84019 0
M  V30 14938 O 1473.83 3.96504 -1.13394 0
M  V30 14939 H 1473.17 0.527573 -0.40319 0
M  V30 14940 H 1475.7 1.16914 -1.67905 0
M  V30 14941 H 1475.71 3.60461 -1.91133 0
M  V30 14942 H 1474.38 2.99287 -2.8879 0
M  V30 14943 H 1472.96 3.54948 -1.14307 0
M  V30 14944 N 1475.14 1.08871 1.13951 0
M  V30 14945 C 1476.07 0.744715 2.21306 0
M  V30 14946 C 1477.05 -0.275019 1.67862 0
M  V30 14947 O 1478.24 -0.144339 1.93663 0
M  V30 14948 C 1475.37 0.158336 3.46939 0
M  V30 14949 C 1474.32 1.10695 4.13438 0
M  V30 14950 C 1473.65 0.382552 5.3333 0
M  V30 14951 C 1474.95 2.44704 4.61429 0
M  V30 14952 H 1476.64 1.6423 2.50337 0
M  V30 14953 H 1474.19 0.791088 1.20324 0
M  V30 14954 H 1476.14 -0.0943587 4.21294 0
M  V30 14955 H 1474.87 -0.774413 3.17286 0
M  V30 14956 H 1473.53 1.34482 3.41043 0
M  V30 14957 H 1473.17 -0.554153 4.99938 0
M  V30 14958 H 1472.87 1.01499 5.78767 0
M  V30 14959 H 1474.4 0.138023 6.10444 0
M  V30 14960 H 1475.81 2.25156 5.27236 0
M  V30 14961 H 1474.21 3.03684 5.17586 0
M  V30 14962 H 1475.28 3.05883 3.76249 0
M  V30 14963 N 1476.62 -1.31073 0.875073 0
M  V30 14964 C 1477.9 -1.91276 0.409015 0
M  V30 14965 C 1478.28 -1.79599 -1.10939 0
M  V30 14966 O 1477.63 -1.2069 -1.94026 0
M  V30 14967 C 1477.84 -3.373 0.896074 0
M  V30 14968 C 1479.18 -4.14397 0.925205 0
M  V30 14969 O 1480.21 -3.46104 0.842069 0
M  V30 14970 O 1479.07 -5.36389 1.0464 0
M  V30 14971 H 1476.16 -0.817755 0.12331 0
M  V30 14972 H 1478.71 -1.39708 0.963322 0
M  V30 14973 H 1477.48 -3.39837 1.93975 0
M  V30 14974 H 1477.1 -3.96307 0.320367 0
M  V30 14975 N 1478.1 -0.635022 -1.4424 0
M  V30 14976 C 1479.03 0.106038 -2.28955 0
M  V30 14977 C 1480.05 0.805076 -1.415 0
M  V30 14978 O 1481.23 0.665872 -1.65615 0
M  V30 14979 C 1478.33 1.17252 -3.1797 0
M  V30 14980 C 1477.51 0.555225 -4.33862 0
M  V30 14981 C 1476.57 1.51618 -5.03883 0
M  V30 14982 O 1475.59 1.03181 -5.5977 0
M  V30 14983 N 1476.79 2.85048 -5.05696 0
M  V30 14984 H 1479.56 -0.620999 -2.93196 0
M  V30 14985 H 1477.12 -0.476466 -1.5473 0
M  V30 14986 H 1479.11 1.81578 -3.61679 0
M  V30 14987 H 1477.68 1.80174 -2.55453 0
M  V30 14988 H 1476.9 -0.266745 -3.93296 0
M  V30 14989 H 1478.19 0.123529 -5.0865 0
M  V30 14990 H 1477.59 3.26977 -4.6163 0
M  V30 14991 H 1476.15 3.44724 -5.5318 0
M  V30 14992 N 1479.58 1.53054 -0.375806 0
M  V30 14993 C 1480.81 2.0582 0.211135 0
M  V30 14994 C 1481.22 1.24856 1.4162 0
M  V30 14995 O 1480.58 0.291786 1.80152 0
M  V30 14996 C 1480.63 3.56577 0.594573 0
M  V30 14997 O 1480.35 4.34472 -0.562607 0
M  V30 14998 C 1481.85 4.25639 1.23882 0
M  V30 14999 H 1479.07 0.670085 0.0350268 0
M  V30 15000 H 1481.62 1.9732 -0.537135 0
M  V30 15001 H 1479.77 3.65194 1.29275 0
M  V30 15002 H 1480.18 5.23902 -0.250487 0
M  V30 15003 H 1481.66 5.32408 1.45759 0
M  V30 15004 H 1482.14 3.80001 2.20218 0
M  V30 15005 H 1482.74 4.21302 0.581786 0
M  V30 15006 N 1481.06 0.105248 1.57248 0
M  V30 15007 C 1482.02 -0.835589 2.13426 0
M  V30 15008 C 1483.02 -1.20398 1.06587 0
M  V30 15009 O 1484.21 -1.13175 1.32428 0
M  V30 15010 C 1481.34 -2.12806 2.6632 0
M  V30 15011 H 1482.53 -0.347606 2.97879 0
M  V30 15012 H 1480.09 -0.143855 1.55637 0
M  V30 15013 H 1480.82 -2.66066 1.85416 0
M  V30 15014 H 1480.61 -1.87352 3.44444 0
M  V30 15015 H 1482.1 -2.80089 3.09741 0
M  V30 15016 N 1482.53 -1.56697 -0.168486 0
M  V30 15017 C 1483.78 -1.81794 -0.882907 0
M  V30 15018 C 1484.1 -0.682707 -1.82658 0
M  V30 15019 O 1483.37 0.297234 -1.93632 0
M  V30 15020 H 1481.95 -0.670636 -0.329024 0
M  V30 15021 H 1484.62 -1.94178 -0.167625 0
M  V30 15022 H 1483.71 -2.75945 -1.45811 0
M  V30 15023 N 1484.01 0.437135 -1.51416 0
M  V30 15024 C 1484.98 1.51313 -1.72154 0
M  V30 15025 C 1485.98 1.49523 -0.59157 0
M  V30 15026 O 1487.17 1.51541 -0.859118 0
M  V30 15027 C 1484.3 2.9085 -1.77818 0
M  V30 15028 H 1485.49 1.34229 -2.68184 0
M  V30 15029 H 1483.04 0.665822 -1.41409 0
M  V30 15030 H 1483.78 3.13338 -0.836033 0
M  V30 15031 H 1483.56 2.93554 -2.59939 0
M  V30 15032 H 1485.05 3.68905 -1.957 0
M  V30 15033 N 1485.49 1.41566 0.692592 0
M  V30 15034 C 1486.72 1.44445 1.48132 0
M  V30 15035 C 1487.13 0.0505867 1.88732 0
M  V30 15036 O 1486.49 -0.930779 1.5698 0
M  V30 15037 C 1486.54 2.35582 2.74196 0
M  V30 15038 O 1486.26 3.69545 2.35305 0
M  V30 15039 C 1487.76 2.47296 3.67912 0
M  V30 15040 H 1484.98 0.491877 0.456396 0
M  V30 15041 H 1487.53 1.85884 0.852499 0
M  V30 15042 H 1485.68 1.97445 3.33308 0
M  V30 15043 H 1486.1 4.1818 3.16584 0
M  V30 15044 H 1487.57 3.15225 4.53141 0
M  V30 15045 H 1488.05 1.50517 4.12603 0
M  V30 15046 H 1488.65 2.86082 3.14702 0
M  V30 15047 N 1486.97 -0.927146 1.27443 0
M  V30 15048 C 1488.38 -1.48984 1.1252 0
M  V30 15049 C 1488.73 -1.94051 -0.289602 0
M  V30 15050 O 1487.86 -1.8123 -1.18257 0
M  V30 15051 C 1488.45 -2.70765 2.03646 0
M  V30 15052 C 1487.01 -3.23256 1.92827 0
M  V30 15053 C 1486.16 -1.95991 1.9617 0
M  V30 15054 H 1489.11 -0.741196 1.40328 0
M  V30 15055 H 1489.13 -3.45567 1.5926 0
M  V30 15056 H 1488.64 -2.37933 3.0661 0
M  V30 15057 H 1486.74 -3.60845 0.928516 0
M  V30 15058 H 1486.85 -3.89413 2.79096 0
M  V30 15059 H 1485.22 -2.12508 1.40402 0
M  V30 15060 H 1486 -1.65473 3.00788 0
M  V30 15061 N 1488.45 -1.09474 -1.13372 0
M  V30 15062 C 1489.38 -0.756441 -2.20908 0
M  V30 15063 C 1490.36 0.266113 -1.68006 0
M  V30 15064 O 1491.54 0.134067 -1.93737 0
M  V30 15065 C 1488.67 -0.176733 -3.4685 0
M  V30 15066 C 1487.63 -1.12886 -4.12845 0
M  V30 15067 C 1486.95 -0.410831 -5.33119 0
M  V30 15068 C 1488.25 -2.47148 -4.60125 0
M  V30 15069 H 1489.95 -1.65555 -2.49463 0
M  V30 15070 H 1487.49 -0.797458 -1.19902 0
M  V30 15071 H 1489.45 0.0720151 -4.21338 0
M  V30 15072 H 1488.17 0.757576 -3.17692 0
M  V30 15073 H 1486.83 -1.36289 -3.40325 0
M  V30 15074 H 1486.48 0.527632 -5.00225 0
M  V30 15075 H 1486.18 -1.04567 -5.78221 0
M  V30 15076 H 1487.7 -0.170394 -6.10362 0
M  V30 15077 H 1489.11 -2.27949 -5.26034 0
M  V30 15078 H 1487.51 -3.06425 -5.15969 0
M  V30 15079 H 1488.58 -3.07874 -3.74622 0
M  V30 15080 N 1489.92 1.30607 -0.882012 0
M  V30 15081 C 1491.34 1.78418 -0.549892 0
M  V30 15082 C 1491.69 1.72553 0.933797 0
M  V30 15083 O 1490.81 1.30058 1.72956 0
M  V30 15084 C 1491.41 3.2397 -0.991398 0
M  V30 15085 C 1489.97 3.69629 -0.710739 0
M  V30 15086 C 1489.11 2.51127 -1.17602 0
M  V30 15087 H 1492.06 1.17519 -1.06653 0
M  V30 15088 H 1492.08 3.79159 -0.319115 0
M  V30 15089 H 1491.6 3.28207 -2.07128 0
M  V30 15090 H 1489.7 3.70883 0.357273 0
M  V30 15091 H 1489.81 4.61232 -1.29621 0
M  V30 15092 H 1488.17 2.47642 -0.595444 0
M  V30 15093 H 1488.96 2.58103 -2.26358 0
M  V30 15094 N 1491.4 0.642663 1.43901 0
M  V30 15095 C 1492.65 0.149167 2.01148 0
M  V30 15096 C 1492.96 -1.2405 1.51231 0
M  V30 15097 O 1494.17 -1.82864 2.00681 0
M  V30 15098 C 1492.63 0.215891 3.59252 0
M  V30 15099 C 1492.23 1.60759 4.18163 0
M  V30 15100 C 1493.98 -0.220546 4.23927 0
M  V30 15101 C 1491.89 1.62881 5.68528 0
M  V30 15102 H 1490.82 0.0520015 0.752205 0
M  V30 15103 H 1493.47 0.803152 1.6499 0
M  V30 15104 H 1491.85 -0.505409 3.92762 0
M  V30 15105 H 1493.02 2.3534 3.96171 0
M  V30 15106 H 1491.34 1.9891 3.65819 0
M  V30 15107 H 1493.93 -0.224389 5.34229 0
M  V30 15108 H 1494.28 -1.25003 3.97089 0
M  V30 15109 H 1494.81 0.448646 3.95262 0
M  V30 15110 H 1491.55 2.63704 6.00117 0
M  V30 15111 H 1491.07 0.926104 5.92607 0
M  V30 15112 H 1492.75 1.36785 6.32375 0
M  V30 15113 N 1492.88 -1.52852 0.383918 0
M  V30 15114 C 1493.81 -2.29213 -0.44539 0
M  V30 15115 C 1494.79 -1.3238 -1.06815 0
M  V30 15116 O 1495.98 -1.61269 -1.08194 0
M  V30 15117 C 1493.11 -3.09497 -1.57573 0
M  V30 15118 C 1492.06 -4.14168 -1.07928 0
M  V30 15119 C 1491.39 -4.82644 -2.30128 0
M  V30 15120 C 1492.69 -5.22082 -0.151035 0
M  V30 15121 H 1494.38 -2.98786 0.19172 0
M  V30 15122 H 1491.93 -1.43695 0.0936471 0
M  V30 15123 H 1493.88 -3.61672 -2.16267 0
M  V30 15124 H 1492.6 -2.37647 -2.24034 0
M  V30 15125 H 1491.26 -3.62966 -0.514909 0
M  V30 15126 H 1490.91 -4.07348 -2.95087 0
M  V30 15127 H 1490.61 -5.53388 -1.97574 0
M  V30 15128 H 1492.14 -5.37621 -2.89475 0
M  V30 15129 H 1493.55 -5.69649 -0.646003 0
M  V30 15130 H 1491.95 -6.00041 0.0844833 0
M  V30 15131 H 1493.02 -4.78228 0.801618 0
M  V30 15132 N 1494.36 -0.113586 -1.5719 0
M  V30 15133 C 1495.59 0.552789 -1.99067 0
M  V30 15134 C 1496 1.61106 -0.992038 0
M  V30 15135 O 1495.34 1.83684 0.0240065 0
M  V30 15136 C 1495.4 1.24239 -3.3735 0
M  V30 15137 C 1495.07 0.332699 -4.55787 0
M  V30 15138 C 1496.06 -0.42654 -5.18147 0
M  V30 15139 C 1493.75 0.245351 -5.017 0
M  V30 15140 C 1495.74 -1.26091 -6.24804 0
M  V30 15141 C 1493.43 -0.592659 -6.08219 0
M  V30 15142 C 1494.43 -1.34443 -6.69637 0
M  V30 15143 O 1494.12 -2.16853 -7.74099 0
M  V30 15144 H 1493.85 0.15139 -0.65883 0
M  V30 15145 H 1496.4 -0.195113 -2.04471 0
M  V30 15146 H 1494.63 2.03725 -3.28684 0
M  V30 15147 H 1496.32 1.80513 -3.63552 0
M  V30 15148 H 1497.09 -0.368898 -4.83595 0
M  V30 15149 H 1492.97 0.820178 -4.53645 0
M  V30 15150 H 1496.51 -1.84818 -6.72672 0
M  V30 15151 H 1492.41 -0.651714 -6.42202 0
M  V30 15152 H 1493.17 -2.09736 -7.91172 0
M  V30 15153 N 1495.84 1.56784 0.160173 0
M  V30 15154 C 1497.06 1.87129 0.894283 0
M  V30 15155 C 1497.49 0.701172 1.74543 0
M  V30 15156 O 1496.85 -0.349542 1.77899 0
M  V30 15157 C 1496.89 3.15969 1.73769 0
M  V30 15158 O 1496 2.98977 2.84054 0
M  V30 15159 H 1495.34 0.615192 0.249869 0
M  V30 15160 H 1497.87 2.04012 0.154956 0
M  V30 15161 H 1497.88 3.47657 2.13538 0
M  V30 15162 H 1496.55 4.00742 1.11258 0
M  V30 15163 H 1495.13 2.78668 2.47788 0
M  V30 15164 N 1497.32 -0.429099 1.51646 0
M  V30 15165 C 1498.56 -1.17551 1.64396 0
M  V30 15166 C 1498.88 -1.91526 0.366444 0
M  V30 15167 O 1498.15 -1.85896 -0.618013 0
M  V30 15168 H 1496.73 -0.436918 0.605898 0
M  V30 15169 H 1499.4 -0.491159 1.8861 0
M  V30 15170 H 1498.49 -1.90057 2.47557 0
M  V30 15171 N 1498.79 -1.41931 -0.685074 0
M  V30 15172 C 1500.02 -1.45432 -1.47866 0
M  V30 15173 C 1500.44 -0.0641302 -1.87991 0
M  V30 15174 O 1499.8 0.935081 -1.55325 0
M  V30 15175 C 1499.85 -2.37801 -2.71077 0
M  V30 15176 O 1498.95 -1.84229 -3.68963 0
M  V30 15177 H 1498.29 -0.493156 -0.444627 0
M  V30 15178 H 1500.82 -1.86508 -0.841177 0
M  V30 15179 H 1500.83 -2.54033 -3.19266 0
M  V30 15180 H 1499.51 -3.38807 -2.41211 0
M  V30 15181 H 1498.09 -1.775 -3.27945 0
M  V30 15182 N 1500.27 0.920374 -1.27933 0
M  V30 15183 C 1501.55 1.64765 -1.05413 0
M  V30 15184 C 1501.93 2.07106 0.408717 0
M  V30 15185 O 1501.28 1.81094 1.39346 0
M  V30 15186 C 1501.49 2.84417 -2.02257 0
M  V30 15187 C 1502.83 3.5559 -2.32036 0
M  V30 15188 O 1503.86 2.94555 -2.00289 0
M  V30 15189 O 1502.72 4.65574 -2.86187 0
M  V30 15190 H 1499.81 0.722503 -0.402391 0
M  V30 15191 H 1502.36 0.970263 -1.39226 0
M  V30 15192 H 1501.13 2.50174 -3.0088 0
M  V30 15193 H 1500.75 3.59872 -1.6905 0
M  V30 15194 N 1501.75 1.10074 1.1279 0
M  V30 15195 C 1502.98 0.861655 1.87774 0
M  V30 15196 C 1503.39 -0.591184 1.79727 0
M  V30 15197 O 1502.73 -1.4191 1.1665 0
M  V30 15198 C 1502.79 1.22668 3.37924 0
M  V30 15199 C 1502.46 2.68579 3.69749 0
M  V30 15200 C 1503.45 3.66821 3.68427 0
M  V30 15201 C 1501.14 3.04869 3.99199 0
M  V30 15202 C 1503.13 4.99377 3.96108 0
M  V30 15203 C 1500.82 4.37615 4.2654 0
M  V30 15204 C 1501.82 5.34678 4.24981 0
M  V30 15205 O 1501.51 6.65034 4.51647 0
M  V30 15206 H 1501.24 0.309289 0.601096 0
M  V30 15207 H 1503.79 1.46802 1.43661 0
M  V30 15208 H 1502.02 0.563393 3.82574 0
M  V30 15209 H 1503.71 0.965675 3.94246 0
M  V30 15210 H 1504.48 3.40128 3.45742 0
M  V30 15211 H 1500.36 2.29947 3.99557 0
M  V30 15212 H 1503.9 5.7513 3.94806 0
M  V30 15213 H 1499.8 4.64047 4.48698 0
M  V30 15214 H 1500.56 6.70608 4.69283 0
M  V30 15215 N 1503.23 -1.30138 0.888926 0
M  V30 15216 C 1504.64 -1.48552 0.583486 0
M  V30 15217 C 1504.84 -1.81376 -0.877781 0
M  V30 15218 O 1503.9 -1.90374 -1.65873 0
M  V30 15219 C 1505.21 -2.60613 1.50004 0
M  V30 15220 C 1506.76 -2.74493 1.50409 0
M  V30 15221 C 1507.24 -3.89672 2.40666 0
M  V30 15222 N 1508.73 -3.96988 2.38652 0
M  V30 15223 C 1509.46 -4.85429 3.05199 0
M  V30 15224 N 1508.96 -5.78638 3.80985 0
M  V30 15225 N 1510.75 -4.78831 2.9441 0
M  V30 15226 H 1502.9 -1.07105 1.83418 0
M  V30 15227 H 1505.16 -0.530991 0.785336 0
M  V30 15228 H 1504.87 -2.43191 2.54069 0
M  V30 15229 H 1504.74 -3.5718 1.21254 0
M  V30 15230 H 1507.13 -2.91318 0.470933 0
M  V30 15231 H 1507.21 -1.78535 1.83191 0
M  V30 15232 H 1506.86 -3.73603 3.44069 0
M  V30 15233 H 1506.79 -4.84975 2.05198 0
M  V30 15234 H 1509.28 -3.30313 1.83581 0
M  V30 15235 H 1509.59 -6.42894 4.28844 0
M  V30 15236 H 1507.94 -5.78558 3.85092 0
M  V30 15237 H 1511.13 -4.04995 2.34727 0
M  V30 15238 H 1511.3 -5.47547 3.46549 0
M  V30 15239 N 1504.71 -0.650285 -1.43559 0
M  V30 15240 C 1505.93 -0.168483 -2.06715 0
M  V30 15241 C 1506.36 1.15576 -1.48404 0
M  V30 15242 O 1505.71 1.71333 -0.592842 0
M  V30 15243 C 1505.76 -0.0877095 -3.60493 0
M  V30 15244 O 1504.87 0.950915 -4.01287 0
M  V30 15245 H 1504.21 -0.0935281 -0.65738 0
M  V30 15246 H 1506.74 -0.892381 -1.84113 0
M  V30 15247 H 1506.75 0.0965825 -4.07886 0
M  V30 15248 H 1505.42 -1.05442 -4.02312 0
M  V30 15249 H 1504 0.739648 -3.65491 0
M  V30 15250 N 1506.18 1.52647 -0.392018 0
M  V30 15251 C 1507.43 2.01215 0.188926 0
M  V30 15252 C 1507.75 1.28019 1.47092 0
M  V30 15253 O 1507.02 0.401048 1.91751 0
M  V30 15254 H 1505.6 0.743444 0.0728049 0
M  V30 15255 H 1508.26 1.87715 -0.524332 0
M  V30 15256 H 1507.36 3.09562 0.397216 0
M  V30 15257 N 1507.66 0.121921 1.57128 0
M  V30 15258 C 1508.59 -0.823788 2.18486 0
M  V30 15259 C 1509.57 -1.27519 1.12574 0
M  V30 15260 O 1510.76 -1.33727 1.40822 0
M  V30 15261 C 1507.89 -2.07284 2.78659 0
M  V30 15262 C 1506.84 -1.75912 3.90178 0
M  V30 15263 C 1506.17 -3.07871 4.37172 0
M  V30 15264 C 1507.47 -1.02517 5.1214 0
M  V30 15265 H 1509.16 -0.312488 2.97765 0
M  V30 15266 H 1506.71 -0.148862 1.43228 0
M  V30 15267 H 1508.66 -2.73903 3.20242 0
M  V30 15268 H 1507.39 -2.60743 1.96673 0
M  V30 15269 H 1506.04 -1.11681 3.49174 0
M  V30 15270 H 1505.69 -3.59271 3.52041 0
M  V30 15271 H 1505.39 -2.87653 5.12376 0
M  V30 15272 H 1506.92 -3.75604 4.81409 0
M  V30 15273 H 1508.33 -1.59295 5.50725 0
M  V30 15274 H 1506.73 -0.923836 5.92946 0
M  V30 15275 H 1507.8 -0.0124219 4.84898 0
M  V30 15276 N 1509.14 -1.56867 -0.151857 0
M  V30 15277 C 1510.1 -1.96997 -1.17152 0
M  V30 15278 C 1511.1 -0.855905 -1.36128 0
M  V30 15279 O 1512.29 -1.12261 -1.33203 0
M  V30 15280 C 1509.43 -2.28171 -2.5328 0
M  V30 15281 H 1510.62 -2.88261 -0.827365 0
M  V30 15282 H 1508.17 -1.51226 -0.395024 0
M  V30 15283 H 1508.91 -1.39683 -2.92676 0
M  V30 15284 H 1508.69 -3.09394 -2.40869 0
M  V30 15285 H 1510.18 -2.60073 -3.26729 0
M  V30 15286 N 1510.62 0.421051 -1.51871 0
M  V30 15287 C 1511.55 1.51928 -1.77313 0
M  V30 15288 C 1512.53 1.58258 -0.623579 0
M  V30 15289 O 1513.71 1.73724 -0.867967 0
M  V30 15290 C 1510.84 2.89865 -1.913 0
M  V30 15291 C 1509.8 2.98391 -3.06834 0
M  V30 15292 C 1509.12 4.38466 -3.06026 0
M  V30 15293 C 1510.42 2.7097 -4.46511 0
M  V30 15294 H 1512.12 1.30889 -2.69274 0
M  V30 15295 H 1509.66 0.628229 -1.29573 0
M  V30 15296 H 1511.62 3.66669 -2.07682 0
M  V30 15297 H 1510.34 3.12172 -0.960011 0
M  V30 15298 H 1509 2.24029 -2.90184 0
M  V30 15299 H 1508.65 4.57764 -2.08472 0
M  V30 15300 H 1508.35 4.45097 -3.83618 0
M  V30 15301 H 1509.87 5.17221 -3.24522 0
M  V30 15302 H 1511.29 3.37501 -4.63428 0
M  V30 15303 H 1509.68 2.88992 -5.25931 0
M  V30 15304 H 1510.75 1.66476 -4.55427 0
M  V30 15305 N 1512.1 1.42293 0.677538 0
M  V30 15306 C 1513.51 1.37948 1.25806 0
M  V30 15307 C 1513.86 0.071408 1.9607 0
M  V30 15308 O 1512.98 -0.829921 1.99853 0
M  V30 15309 C 1513.58 2.49875 2.28797 0
M  V30 15310 C 1512.14 2.48872 2.82382 0
M  V30 15311 C 1511.28 2.28804 1.56665 0
M  V30 15312 H 1514.24 1.51546 0.471102 0
M  V30 15313 H 1514.26 2.19969 3.10474 0
M  V30 15314 H 1513.77 3.45065 1.77629 0
M  V30 15315 H 1511.87 1.57492 3.37679 0
M  V30 15316 H 1511.98 3.45816 3.31585 0
M  V30 15317 H 1510.35 1.77014 1.83135 0
M  V30 15318 H 1511.13 3.26046 1.07467 0
M  V30 15319 N 1513.57 -0.913576 1.28419 0
M  V30 15320 C 1514.54 -1.99757 1.12382 0
M  V30 15321 C 1515.54 -1.60675 0.063435 0
M  V30 15322 O 1516.73 -1.71433 0.30923 0
M  V30 15323 C 1513.86 -3.33307 0.715506 0
M  V30 15324 H 1515.05 -2.15414 2.08655 0
M  V30 15325 H 1512.61 -1.09626 1.11408 0
M  V30 15326 H 1513.34 -3.23351 -0.247977 0
M  V30 15327 H 1513.13 -3.63034 1.4815 0
M  V30 15328 H 1514.62 -4.12882 0.625953 0
M  V30 15329 N 1515.05 -1.1067 -1.12204 0
M  V30 15330 C 1516.3 -0.845439 -1.83126 0
M  V30 15331 C 1516.61 0.631022 -1.85142 0
M  V30 15332 O 1517.82 1.00827 -2.52084 0
M  V30 15333 C 1516.28 -1.46265 -3.28838 0
M  V30 15334 C 1515.88 -2.97258 -3.35174 0
M  V30 15335 C 1517.63 -1.28088 -4.04714 0
M  V30 15336 C 1515.54 -3.52002 -4.75235 0
M  V30 15337 H 1514.47 -0.312617 -0.686139 0
M  V30 15338 H 1517.12 -1.33098 -1.26321 0
M  V30 15339 H 1515.5 -0.904781 -3.85525 0
M  V30 15340 H 1516.67 -3.59381 -2.88413 0
M  V30 15341 H 1514.99 -3.14617 -2.72773 0
M  V30 15342 H 1517.58 -1.6643 -5.08139 0
M  V30 15343 H 1517.93 -0.222682 -4.15704 0
M  V30 15344 H 1518.46 -1.80696 -3.54392 0
M  V30 15345 H 1515.2 -4.57499 -4.69441 0
M  V30 15346 H 1514.72 -2.94648 -5.22439 0
M  V30 15347 H 1516.4 -3.49967 -5.4418 0
M  V30 15348 N 1516.53 1.29665 -0.895815 0
M  V30 15349 C 1517.81 1.90601 -0.439394 0
M  V30 15350 C 1518.19 1.81341 1.08068 0
M  V30 15351 O 1517.54 1.23761 1.92082 0
M  V30 15352 C 1517.75 3.35832 -0.949622 0
M  V30 15353 C 1519.09 4.12873 -0.991015 0
M  V30 15354 O 1520.12 3.4472 -0.897025 0
M  V30 15355 O 1518.98 5.34656 -1.1316 0
M  V30 15356 H 1516.07 0.81569 -0.136304 0
M  V30 15357 H 1518.62 1.38157 -0.985426 0
M  V30 15358 H 1517.39 3.36708 -1.99357 0
M  V30 15359 H 1517.01 3.95747 -0.383376 0
M  V30 15360 N 1518.01 0.657889 1.43212 0
M  V30 15361 C 1519.26 0.172845 2.0136 0
M  V30 15362 C 1519.58 -1.21911 1.52193 0
M  V30 15363 O 1518.85 -1.81529 0.736492 0
M  V30 15364 H 1517.43 0.0609091 0.744513 0
M  V30 15365 H 1520.09 0.850605 1.75359 0
M  V30 15366 H 1519.19 0.161062 3.11684 0
M  V30 15367 N 1519.49 -1.52437 0.400108 0
M  V30 15368 C 1520.42 -2.29672 -0.421054 0
M  V30 15369 C 1521.4 -1.33506 -1.05405 0
M  V30 15370 O 1522.58 -1.62408 -1.06477 0
M  V30 15371 C 1519.71 -3.1115 -1.54281 0
M  V30 15372 C 1518.67 -4.1529 -1.0353 0
M  V30 15373 C 1517.99 -4.85058 -2.24996 0
M  V30 15374 C 1519.29 -5.22212 -0.0956529 0
M  V30 15375 H 1520.99 -2.98565 0.2234 0
M  V30 15376 H 1518.53 -1.43588 0.108883 0
M  V30 15377 H 1520.49 -3.63945 -2.12419 0
M  V30 15378 H 1519.21 -2.4001 -2.21501 0
M  V30 15379 H 1517.87 -3.63492 -0.476383 0
M  V30 15380 H 1517.52 -4.10455 -2.9075 0
M  V30 15381 H 1517.22 -5.55452 -1.91694 0
M  V30 15382 H 1518.74 -5.40661 -2.83756 0
M  V30 15383 H 1520.15 -5.70302 -0.585548 0
M  V30 15384 H 1518.55 -5.99917 0.148121 0
M  V30 15385 H 1519.62 -4.77351 0.852296 0
M  V30 15386 N 1520.96 -0.130252 -1.57061 0
M  V30 15387 C 1522.24 0.569171 -1.87136 0
M  V30 15388 C 1522.62 1.84078 -1.03337 0
M  V30 15389 O 1521.97 2.28208 -0.11543 0
M  V30 15390 C 1522.18 0.850782 -3.38471 0
M  V30 15391 C 1523.53 1.19892 -4.07322 0
M  V30 15392 O 1524.55 0.940682 -3.43554 0
M  V30 15393 O 1523.41 1.6841 -5.19904 0
M  V30 15394 H 1520.5 0.288433 -0.775071 0
M  V30 15395 H 1523.05 -0.165603 -1.6889 0
M  V30 15396 H 1521.82 -0.0498562 -3.91268 0
M  V30 15397 H 1521.45 1.64032 -3.62187 0
M  V30 15398 N 1522.44 1.56945 0.143535 0
M  V30 15399 C 1523.67 1.88067 0.874385 0
M  V30 15400 C 1524.09 0.719645 1.73789 0
M  V30 15401 O 1523.45 -0.330654 1.78259 0
M  V30 15402 C 1523.5 3.17795 1.70408 0
M  V30 15403 O 1522.6 3.01973 2.80867 0
M  V30 15404 H 1521.94 0.617808 0.24333 0
M  V30 15405 H 1524.47 2.04165 0.133309 0
M  V30 15406 H 1524.48 3.49903 2.09838 0
M  V30 15407 H 1523.16 4.019 1.07001 0
M  V30 15408 H 1521.74 2.8128 2.44818 0
M  V30 15409 N 1523.92 -0.412991 1.52093 0
M  V30 15410 C 1525.15 -1.18212 1.69805 0
M  V30 15411 C 1525.56 -1.84386 0.405844 0
M  V30 15412 O 1524.92 -1.71725 -0.617809 0
M  V30 15413 C 1524.97 -2.24811 2.83094 0
M  V30 15414 O 1524.69 -1.61338 4.0731 0
M  V30 15415 C 1526.19 -3.14633 3.12283 0
M  V30 15416 H 1523.41 -0.355371 0.569168 0
M  V30 15417 H 1525.96 -0.486392 1.98632 0
M  V30 15418 H 1524.11 -2.90058 2.56797 0
M  V30 15419 H 1524.53 -2.31979 4.7041 0
M  V30 15420 H 1526 -3.85511 3.95076 0
M  V30 15421 H 1526.48 -3.76785 2.25677 0
M  V30 15422 H 1527.08 -2.55059 3.40331 0
M  V30 15423 N 1525.4 -1.4265 -0.669982 0
M  V30 15424 C 1526.63 -1.46784 -1.45816 0
M  V30 15425 C 1527.04 -0.080606 -1.88628 0
M  V30 15426 O 1526.4 0.905687 -1.58441 0
M  V30 15427 C 1526.45 -2.39915 -2.70413 0
M  V30 15428 O 1526.17 -3.73241 -2.29396 0
M  V30 15429 C 1527.67 -2.53118 -3.63931 0
M  V30 15430 H 1524.89 -0.499076 -0.448513 0
M  V30 15431 H 1527.44 -1.87216 -0.822819 0
M  V30 15432 H 1525.59 -2.02722 -3.30125 0
M  V30 15433 H 1526.01 -4.23164 -3.09891 0
M  V30 15434 H 1527.48 -3.22395 -4.48069 0
M  V30 15435 H 1527.96 -1.57062 -4.10156 0
M  V30 15436 H 1528.56 -2.91052 -3.10111 0
M  V30 15437 N 1526.88 0.906753 -1.28902 0
M  V30 15438 C 1528.12 1.67094 -1.17724 0
M  V30 15439 C 1528.48 1.90115 0.268373 0
M  V30 15440 O 1529.68 2.64052 0.502998 0
M  V30 15441 C 1527.95 2.98802 -1.96092 0
M  V30 15442 S 1529.51 3.89867 -2.01368 0
M  V30 15443 H 1526.33 0.573768 -0.419894 0
M  V30 15444 H 1528.93 1.07797 -1.63095 0
M  V30 15445 H 1527.64 2.79755 -3.00276 0
M  V30 15446 H 1527.17 3.63143 -1.51298 0
M  V30 15447 H 1529.18 4.83273 -1.12525 0
M  V30 15448 N 1528.36 1.11264 1.11616 0
M  V30 15449 C 1529.6 0.861639 1.83585 0
M  V30 15450 C 1529.93 -0.611221 1.8433 0
M  V30 15451 O 1529.21 -1.45116 1.29505 0
M  V30 15452 C 1529.49 1.42157 3.30852 0
M  V30 15453 C 1529.35 2.96192 3.38512 0
M  V30 15454 C 1530.66 1.07099 4.2687 0
M  V30 15455 H 1527.78 0.314464 0.666545 0
M  V30 15456 H 1530.43 1.37722 1.30892 0
M  V30 15457 H 1528.58 0.983054 3.75857 0
M  V30 15458 H 1530.25 3.48634 3.0208 0
M  V30 15459 H 1528.49 3.32353 2.7879 0
M  V30 15460 H 1529.16 3.30457 4.42156 0
M  V30 15461 H 1531.64 1.44952 3.90036 0
M  V30 15462 H 1530.51 1.48957 5.28302 0
M  V30 15463 H 1530.77 -0.018482 4.42096 0
M  V30 15464 N 1529.83 -1.29188 0.902679 0
M  V30 15465 C 1530.78 -2.25236 0.353959 0
M  V30 15466 C 1531.77 -1.52002 -0.527659 0
M  V30 15467 O 1532.96 -1.73107 -0.369189 0
M  V30 15468 C 1530.09 -3.40785 -0.414803 0
M  V30 15469 C 1529.17 -4.21353 0.481904 0
M  V30 15470 N 1529.57 -4.80143 1.59048 0
M  V30 15471 C 1527.86 -4.45119 0.280241 0
M  V30 15472 C 1528.56 -5.40661 2.14616 0
M  V30 15473 N 1527.54 -5.24213 1.43882 0
M  V30 15474 H 1531.34 -2.68252 1.20076 0
M  V30 15475 H 1528.86 -1.43832 0.754069 0
M  V30 15476 H 1530.85 -4.08662 -0.824674 0
M  V30 15477 H 1529.51 -2.99305 -1.25883 0
M  V30 15478 H 1530.52 -4.78838 1.97319 0
M  V30 15479 H 1527.2 -4.14184 -0.525174 0
M  V30 15480 H 1528.59 -5.97246 3.07809 0
M  V30 15481 N 1531.31 -0.665475 -1.42861 0
M  V30 15482 C 1532.56 -0.183521 -2.01265 0
M  V30 15483 C 1532.88 1.21103 -1.52837 0
M  V30 15484 O 1532.15 1.81135 -0.746109 0
M  V30 15485 H 1530.73 -0.0648565 -0.744179 0
M  V30 15486 H 1533.39 -0.859893 -1.74905 0
M  V30 15487 H 1532.49 -0.177589 -3.11594 0
M  V30 15488 N 1532.79 1.52222 -0.408187 0
M  V30 15489 C 1533.75 2.25578 0.405851 0
M  V30 15490 C 1534.75 1.27912 0.974434 0
M  V30 15491 O 1535.94 1.51861 0.853461 0
M  V30 15492 C 1533.07 3.02532 1.57122 0
M  V30 15493 H 1534.27 2.98965 -0.23664 0
M  V30 15494 H 1531.82 1.55472 -0.160687 0
M  V30 15495 H 1532.56 2.33492 2.2506 0
M  V30 15496 H 1532.34 3.74237 1.17001 0
M  V30 15497 H 1533.83 3.58177 2.14707 0
M  V30 15498 N 1534.27 0.138579 1.5699 0
M  V30 15499 C 1535.49 -0.525074 2.00643 0
M  V30 15500 C 1535.92 -1.58174 1.01796 0
M  V30 15501 O 1535.28 -1.81298 -0.00754003 0
M  V30 15502 C 1535.32 -1.11019 3.43085 0
M  V30 15503 O 1534.43 -2.22529 3.4721 0
M  V30 15504 H 1533.77 -0.129283 0.651292 0
M  V30 15505 H 1536.3 0.23283 2.03271 0
M  V30 15506 H 1536.31 -1.44093 3.81708 0
M  V30 15507 H 1534.98 -0.336325 4.14538 0
M  V30 15508 H 1533.56 -1.90747 3.20422 0
M  V30 15509 N 1535.75 -1.57019 -0.13521 0
M  V30 15510 C 1536.99 -1.8399 -0.845818 0
M  V30 15511 C 1537.32 -0.721255 -1.80633 0
M  V30 15512 O 1536.58 0.288778 -1.93558 0
M  V30 15513 C 1536.87 -3.17358 -1.64373 0
M  V30 15514 C 1536.54 -4.43214 -0.828967 0
M  V30 15515 C 1535.2 -4.77391 -0.604226 0
M  V30 15516 C 1537.55 -5.20551 -0.259965 0
M  V30 15517 C 1534.88 -5.86359 0.200033 0
M  V30 15518 C 1537.23 -6.30364 0.531397 0
M  V30 15519 C 1535.9 -6.63083 0.766605 0
M  V30 15520 H 1535.17 -0.673266 -0.309507 0
M  V30 15521 H 1537.82 -1.9119 -0.108903 0
M  V30 15522 H 1536.12 -3.05661 -2.4511 0
M  V30 15523 H 1537.82 -3.35444 -2.19724 0
M  V30 15524 H 1534.41 -4.16427 -1.01421 0
M  V30 15525 H 1538.59 -4.94512 -0.420847 0
M  V30 15526 H 1533.85 -6.10144 0.391646 0
M  V30 15527 H 1538.02 -6.89479 0.979371 0
M  V30 15528 H 1535.65 -7.47354 1.39164 0
M  V30 15529 N 1537.22 0.404919 -1.52309 0
M  V30 15530 C 1538.45 1.17764 -1.70723 0
M  V30 15531 C 1538.87 1.83403 -0.417744 0
M  V30 15532 O 1538.23 1.70181 0.625157 0
M  V30 15533 C 1538.28 2.2133 -2.84685 0
M  V30 15534 O 1537.38 3.27566 -2.50548 0
M  V30 15535 H 1536.73 0.343572 -0.568203 0
M  V30 15536 H 1539.26 0.474093 -1.99031 0
M  V30 15537 H 1539.27 2.6559 -3.09719 0
M  V30 15538 H 1537.94 1.72939 -3.78239 0
M  V30 15539 H 1536.52 2.88556 -2.36199 0
M  V30 15540 N 1538.7 1.43003 0.662408 0
M  V30 15541 C 1539.98 1.34613 1.41911 0
M  V30 15542 C 1540.36 -0.0105336 2.11097 0
M  V30 15543 O 1539.71 -1.02667 2.04137 0
M  V30 15544 C 1539.92 2.52297 2.41137 0
M  V30 15545 C 1541.27 2.94972 3.05412 0
M  V30 15546 O 1542.29 2.52277 2.51465 0
M  V30 15547 O 1541.15 3.68906 4.03201 0
M  V30 15548 H 1538.24 0.531508 0.633583 0
M  V30 15549 H 1540.79 1.55035 0.690088 0
M  V30 15550 H 1539.56 3.42685 1.88898 0
M  V30 15551 H 1539.18 2.33926 3.21503 0
M  V30 15552 N 1540.18 -0.899904 1.29381 0
M  V30 15553 C 1541.41 -1.68911 1.20349 0
M  V30 15554 C 1541.83 -1.86657 -0.232523 0
M  V30 15555 O 1541.19 -1.38674 -1.16787 0
M  V30 15556 C 1541.24 -3.05124 1.92177 0
M  V30 15557 O 1540.34 -3.93358 1.23867 0
M  V30 15558 H 1539.68 -0.516698 0.417036 0
M  V30 15559 H 1542.21 -1.12422 1.70946 0
M  V30 15560 H 1542.22 -3.55267 2.00623 0
M  V30 15561 H 1540.9 -2.91525 2.96624 0
M  V30 15562 H 1539.47 -3.51793 1.23677 0
M  V30 15563 N 1541.66 -1.11854 -1.11024 0
M  V30 15564 C 1542.57 -0.79368 -2.20767 0
M  V30 15565 C 1543.58 0.214996 -1.72667 0
M  V30 15566 O 1544.76 0.0500976 -2.01338 0
M  V30 15567 C 1541.83 -0.246375 -3.45823 0
M  V30 15568 C 1540.89 -1.31421 -4.0869 0
M  V30 15569 C 1540.12 -0.792922 -5.27777 0
M  V30 15570 O 1540.34 0.375492 -5.69163 0
M  V30 15571 O 1539.28 -1.55971 -5.8134 0
M  V30 15572 H 1543.1 -1.71011 -2.50976 0
M  V30 15573 H 1540.69 -0.894752 -1.19643 0
M  V30 15574 H 1542.57 0.0542632 -4.21365 0
M  V30 15575 H 1541.24 0.642703 -3.17255 0
M  V30 15576 H 1540.15 -1.66792 -3.3486 0
M  V30 15577 H 1541.48 -2.17683 -4.41446 0
M  V30 15578 N 1543.14 1.28707 -0.909517 0
M  V30 15579 C 1544.41 1.90124 -0.459585 0
M  V30 15580 C 1544.79 1.82477 1.06139 0
M  V30 15581 O 1544.14 1.25792 1.90758 0
M  V30 15582 C 1544.35 3.34806 -0.985188 0
M  V30 15583 C 1545.7 4.11799 -1.03475 0
M  V30 15584 O 1546.72 3.43749 -0.933536 0
M  V30 15585 O 1545.58 5.33426 -1.18825 0
M  V30 15586 H 1542.68 0.814199 -0.144948 0
M  V30 15587 H 1545.22 1.37104 -1.00002 0
M  V30 15588 H 1543.99 3.34575 -2.02917 0
M  V30 15589 H 1543.62 3.95318 -0.425329 0
M  V30 15590 N 1544.61 0.673042 1.42506 0
M  V30 15591 C 1545.52 -0.00648572 2.34599 0
M  V30 15592 C 1546.54 -0.790758 1.54994 0
M  V30 15593 O 1547.72 -0.733482 1.87569 0
M  V30 15594 C 1544.78 -0.94734 3.33506 0
M  V30 15595 C 1543.84 -0.157795 4.2901 0
M  V30 15596 C 1543.08 -1.05384 5.23192 0
M  V30 15597 O 1543.3 -2.29334 5.22266 0
M  V30 15598 O 1542.23 -0.515584 5.99688 0
M  V30 15599 H 1546.06 0.752059 2.94241 0
M  V30 15600 H 1543.64 0.433272 1.42979 0
M  V30 15601 H 1545.53 -1.4875 3.94273 0
M  V30 15602 H 1544.2 -1.68577 2.7634 0
M  V30 15603 H 1543.11 0.426426 3.71662 0
M  V30 15604 H 1544.44 0.54148 4.89212 0
M  V30 15605 N 1546.09 -1.52004 0.416254 0
M  V30 15606 C 1547.32 -2.0679 -0.158937 0
M  V30 15607 C 1547.74 -1.28366 -1.37491 0
M  V30 15608 O 1547.1 -0.315815 -1.78528 0
M  V30 15609 C 1547.15 -3.57381 -0.480717 0
M  V30 15610 O 1546.25 -3.81321 -1.5706 0
M  V30 15611 H 1545.59 -0.663907 -0.0110938 0
M  V30 15612 H 1548.12 -1.95863 0.591509 0
M  V30 15613 H 1548.13 -4.01283 -0.737297 0
M  V30 15614 H 1546.81 -4.13893 0.408137 0
M  V30 15615 H 1545.39 -3.49296 -1.30563 0
M  V30 15616 N 1547.57 -0.146903 -1.56914 0
M  V30 15617 C 1548.81 0.506985 -1.98013 0
M  V30 15618 C 1549.17 1.62043 -1.02985 0
M  V30 15619 O 1550.38 2.33517 -1.33128 0
M  V30 15620 C 1548.65 1.00023 -3.43118 0
M  V30 15621 S 1550.21 1.65873 -4.06241 0
M  V30 15622 H 1547.02 0.163927 -0.691845 0
M  V30 15623 H 1549.63 -0.238594 -1.94039 0
M  V30 15624 H 1548.33 0.179091 -4.10009 0
M  V30 15625 H 1547.86 1.78043 -3.50805 0
M  V30 15626 H 1549.88 2.94595 -3.99285 0
M  V30 15627 N 1549.05 1.57088 0.126881 0
M  V30 15628 C 1550.29 1.84709 0.837287 0
M  V30 15629 C 1550.63 0.731496 1.79897 0
M  V30 15630 O 1549.9 -0.263319 1.92709 0
M  V30 15631 C 1550.19 3.22893 1.59412 0
M  V30 15632 C 1550.04 4.45041 0.652578 0
M  V30 15633 C 1551.36 3.58547 2.5521 0
M  V30 15634 H 1548.48 0.671862 0.302937 0
M  V30 15635 H 1551.12 1.89727 0.101783 0
M  V30 15636 H 1549.27 3.18746 2.22112 0
M  V30 15637 H 1550.94 4.61287 0.0350382 0
M  V30 15638 H 1549.18 4.33785 -0.0364578 0
M  V30 15639 H 1549.85 5.38381 1.21861 0
M  V30 15640 H 1552.33 3.63434 2.0262 0
M  V30 15641 H 1551.21 4.56227 3.05202 0
M  V30 15642 H 1551.47 2.85552 3.37509 0
M  V30 15643 N 1550.53 -0.396836 1.52522 0
M  V30 15644 C 1551.94 -0.975124 1.59211 0
M  V30 15645 C 1552.29 -1.91199 0.440138 0
M  V30 15646 O 1551.41 -2.11924 -0.437856 0
M  V30 15647 C 1552.01 -1.77531 2.88562 0
M  V30 15648 C 1550.57 -2.30343 2.9769 0
M  V30 15649 C 1549.71 -1.10671 2.54258 0
M  V30 15650 H 1552.67 -0.176646 1.57714 0
M  V30 15651 H 1552.69 -2.63384 2.74607 0
M  V30 15652 H 1552.2 -1.09318 3.72386 0
M  V30 15653 H 1550.3 -3.01891 2.18387 0
M  V30 15654 H 1550.41 -2.60366 4.02177 0
M  V30 15655 H 1548.78 -1.46439 2.08393 0
M  V30 15656 H 1549.56 -0.440061 3.40468 0
M  V30 15657 N 1552.01 -1.43353 -0.654814 0
M  V30 15658 C 1552.94 -1.51194 -1.7794 0
M  V30 15659 C 1553.92 -0.366747 -1.66099 0
M  V30 15660 O 1555.1 -0.58375 -1.85219 0
M  V30 15661 C 1552.23 -1.43298 -3.16359 0
M  V30 15662 C 1551.19 -2.5605 -3.42961 0
M  V30 15663 C 1550.51 -2.33208 -4.81163 0
M  V30 15664 C 1551.81 -3.98303 -3.37864 0
M  V30 15665 H 1553.51 -2.4532 -1.71635 0
M  V30 15666 H 1551.05 -1.18072 -0.824319 0
M  V30 15667 H 1553 -1.47388 -3.94784 0
M  V30 15668 H 1551.73 -0.456761 -3.2339 0
M  V30 15669 H 1550.39 -2.5131 -2.66906 0
M  V30 15670 H 1550.04 -1.33833 -4.84869 0
M  V30 15671 H 1549.74 -3.08789 -4.99923 0
M  V30 15672 H 1551.26 -2.39079 -5.61848 0
M  V30 15673 H 1552.67 -4.04538 -4.06229 0
M  V30 15674 H 1551.07 -4.73897 -3.6816 0
M  V30 15675 H 1552.14 -4.23552 -2.36075 0
M  V30 15676 N 1553.48 0.89303 -1.29857 0
M  V30 15677 C 1554.41 2.01422 -1.18117 0
M  V30 15678 C 1555.39 1.6994 -0.0737487 0
M  V30 15679 O 1556.58 1.92527 -0.254387 0
M  V30 15680 C 1553.71 3.36385 -0.863842 0
M  V30 15681 C 1552.66 3.821 -1.92831 0
M  V30 15682 C 1551.99 5.14263 -1.46415 0
M  V30 15683 C 1553.29 4.01699 -3.33819 0
M  V30 15684 H 1554.98 2.11502 -2.11913 0
M  V30 15685 H 1552.53 1.01622 -1.02024 0
M  V30 15686 H 1554.48 4.14335 -0.768397 0
M  V30 15687 H 1553.21 3.26415 0.109816 0
M  V30 15688 H 1551.87 3.06372 -2.01325 0
M  V30 15689 H 1551.51 5.00714 -0.478983 0
M  V30 15690 H 1551.21 5.45821 -2.17609 0
M  V30 15691 H 1552.74 5.94747 -1.38234 0
M  V30 15692 H 1554.15 4.70111 -3.28129 0
M  V30 15693 H 1552.55 4.44621 -4.03029 0
M  V30 15694 H 1553.62 3.05816 -3.76304 0
M  V30 15695 N 1554.96 1.12442 1.10429 0
M  V30 15696 C 1556.38 0.860481 1.34417 0
M  V30 15697 C 1556.58 -0.509394 1.94955 0
M  V30 15698 O 1555.63 -1.25807 2.18927 0
M  V30 15699 C 1556.95 1.97694 2.26578 0
M  V30 15700 C 1558.49 2.00783 2.40115 0
M  V30 15701 C 1558.97 3.11663 3.35604 0
M  V30 15702 N 1560.46 3.11106 3.43173 0
M  V30 15703 C 1561.2 3.9354 4.1703 0
M  V30 15704 N 1560.69 4.85963 4.93773 0
M  V30 15705 N 1562.48 3.81677 4.12649 0
M  V30 15706 H 1554.64 2.00706 0.695036 0
M  V30 15707 H 1556.9 0.873398 0.368619 0
M  V30 15708 H 1556.6 2.96405 1.89306 0
M  V30 15709 H 1556.48 1.88217 3.26886 0
M  V30 15710 H 1558.87 1.02692 2.76656 0
M  V30 15711 H 1558.95 2.14335 1.39621 0
M  V30 15712 H 1558.59 4.09987 2.99789 0
M  V30 15713 H 1558.52 2.9535 4.35977 0
M  V30 15714 H 1561.01 2.4415 2.88442 0
M  V30 15715 H 1561.32 5.45373 5.47529 0
M  V30 15716 H 1559.67 4.89976 4.92898 0
M  V30 15717 H 1562.86 3.08808 3.51789 0
M  V30 15718 H 1563.03 4.46151 4.6995 0
M  V30 15719 N 1556.44 -1.28223 0.91633 0
M  V30 15720 C 1557.39 -2.27215 0.40521 0
M  V30 15721 C 1558.36 -1.57693 -0.521734 0
M  V30 15722 O 1559.54 -1.85577 -0.443369 0
M  V30 15723 C 1556.68 -3.43358 -0.346303 0
M  V30 15724 C 1555.79 -4.27622 0.613443 0
M  V30 15725 C 1554.93 -5.30969 -0.156775 0
M  V30 15726 C 1553.97 -6.06897 0.796418 0
M  V30 15727 N 1553.11 -7.02075 0.0595539 0
M  V30 15728 H 1557.95 -2.70312 1.2544 0
M  V30 15729 H 1555.48 -1.32933 0.629859 0
M  V30 15730 H 1557.44 -4.09492 -0.798231 0
M  V30 15731 H 1556.07 -3.01244 -1.15982 0
M  V30 15732 H 1555.12 -3.61508 1.1839 0
M  V30 15733 H 1556.43 -4.80397 1.34239 0
M  V30 15734 H 1555.59 -6.02999 -0.669146 0
M  V30 15735 H 1554.33 -4.78968 -0.918755 0
M  V30 15736 H 1553.33 -5.33716 1.32014 0
M  V30 15737 H 1554.56 -6.60987 1.558 0
M  V30 15738 H 1552.5 -6.5242 -0.684388 0
M  V30 15739 H 1552.42 -7.52484 0.728275 0
M  V30 15740 H 1553.69 -7.78299 -0.432538 0
M  V30 15741 N 1557.92 -0.68059 -1.42147 0
M  V30 15742 C 1558.83 -0.00595573 -2.34599 0
M  V30 15743 C 1559.84 0.782528 -1.55411 0
M  V30 15744 O 1561.02 0.723524 -1.87955 0
M  V30 15745 C 1558.08 0.92964 -3.34004 0
M  V30 15746 C 1557.15 0.135041 -4.29088 0
M  V30 15747 C 1556.38 1.02607 -5.23744 0
M  V30 15748 O 1556.6 2.26562 -5.23475 0
M  V30 15749 O 1555.54 0.483774 -5.99953 0
M  V30 15750 H 1559.36 -0.767652 -2.93838 0
M  V30 15751 H 1556.95 -0.440849 -1.42748 0
M  V30 15752 H 1558.83 1.46657 -3.95057 0
M  V30 15753 H 1557.5 1.67109 -2.7723 0
M  V30 15754 H 1556.41 -0.44613 -3.7143 0
M  V30 15755 H 1557.74 -0.567417 -4.88918 0
M  V30 15756 N 1559.4 1.51781 -0.424309 0
M  V30 15757 C 1560.62 2.06871 0.147968 0
M  V30 15758 C 1561.05 1.29093 1.36808 0
M  V30 15759 O 1560.4 0.325279 1.78358 0
M  V30 15760 C 1560.45 3.57631 0.461757 0
M  V30 15761 O 1559.56 3.82149 1.55035 0
M  V30 15762 H 1558.9 0.663957 0.00757275 0
M  V30 15763 H 1561.43 1.95547 -0.601888 0
M  V30 15764 H 1561.44 4.01668 0.716005 0
M  V30 15765 H 1560.11 4.1367 -0.430081 0
M  V30 15766 H 1558.69 3.49984 1.28709 0
M  V30 15767 N 1560.87 0.155222 1.56834 0
M  V30 15768 C 1562.12 -0.493831 1.95561 0
M  V30 15769 C 1562.44 -1.65468 1.04305 0
M  V30 15770 O 1563.64 -2.36891 1.32646 0
M  V30 15771 C 1562.1 -0.929923 3.47679 0
M  V30 15772 C 1561.71 0.204447 4.47533 0
M  V30 15773 C 1563.45 -1.5483 3.95257 0
M  V30 15774 C 1561.36 -0.250375 5.9087 0
M  V30 15775 H 1560.29 -0.188258 0.73012 0
M  V30 15776 H 1562.94 0.240883 1.81912 0
M  V30 15777 H 1561.32 -1.72014 3.56689 0
M  V30 15778 H 1562.49 0.981535 4.50225 0
M  V30 15779 H 1560.81 0.731756 4.0992 0
M  V30 15780 H 1563.41 -1.90036 4.9979 0
M  V30 15781 H 1563.75 -2.44031 3.37275 0
M  V30 15782 H 1564.28 -0.822828 3.89197 0
M  V30 15783 H 1561.02 0.606461 6.52689 0
M  V30 15784 H 1560.54 -0.993164 5.9152 0
M  V30 15785 H 1562.22 -0.699645 6.43206 0
M  V30 15786 N 1562.35 -1.57153 -0.118549 0
M  V30 15787 C 1563.28 -1.97022 -1.1711 0
M  V30 15788 C 1564.3 -0.869599 -1.37629 0
M  V30 15789 O 1565.49 -1.14788 -1.36696 0
M  V30 15790 C 1562.59 -2.25371 -2.53103 0
M  V30 15791 C 1561.76 -3.56677 -2.5318 0
M  V30 15792 C 1560.82 -3.73233 -3.70922 0
M  V30 15793 O 1559.84 -4.4534 -3.54487 0
M  V30 15794 N 1561.05 -3.12036 -4.89504 0
M  V30 15795 H 1563.81 -2.87921 -0.831959 0
M  V30 15796 H 1561.37 -1.58947 -0.307817 0
M  V30 15797 H 1563.36 -2.33662 -3.3043 0
M  V30 15798 H 1561.93 -1.40597 -2.79197 0
M  V30 15799 H 1561.15 -3.5957 -1.61564 0
M  V30 15800 H 1562.44 -4.42982 -2.50288 0
M  V30 15801 H 1561.84 -2.53422 -5.05761 0
M  V30 15802 H 1560.4 -3.25846 -5.64506 0
M  V30 15803 N 1563.83 0.388742 -1.5273 0
M  V30 15804 C 1564.76 1.48133 -1.80496 0
M  V30 15805 C 1565.74 1.56899 -0.657008 0
M  V30 15806 O 1566.93 1.71844 -0.904621 0
M  V30 15807 C 1564.06 2.85742 -1.97405 0
M  V30 15808 C 1563.01 2.91815 -3.13094 0
M  V30 15809 C 1562.34 4.31876 -3.15258 0
M  V30 15810 C 1563.64 2.61438 -4.52159 0
M  V30 15811 H 1565.33 1.25147 -2.7199 0
M  V30 15812 H 1562.88 0.600603 -1.30877 0
M  V30 15813 H 1564.83 3.62182 -2.15412 0
M  V30 15814 H 1563.55 3.10065 -1.02601 0
M  V30 15815 H 1562.21 2.17824 -2.9487 0
M  V30 15816 H 1561.86 4.53239 -2.18135 0
M  V30 15817 H 1561.56 4.3686 -3.92972 0
M  V30 15818 H 1563.08 5.10221 -3.3542 0
M  V30 15819 H 1564.5 3.27596 -4.70483 0
M  V30 15820 H 1562.89 2.77771 -5.31943 0
M  V30 15821 H 1563.96 1.56778 -4.58856 0
M  V30 15822 N 1565.31 1.43698 0.647203 0
M  V30 15823 C 1566.72 1.27231 0.963563 0
M  V30 15824 C 1566.92 0.196385 2.00541 0
M  V30 15825 O 1565.98 -0.423162 2.48929 0
M  V30 15826 C 1567.29 2.63863 1.44211 0
M  V30 15827 C 1568.84 2.71444 1.55844 0
M  V30 15828 C 1569.32 4.08508 2.07087 0
M  V30 15829 N 1570.81 4.10603 2.14381 0
M  V30 15830 C 1571.54 5.13496 2.55166 0
M  V30 15831 N 1571.04 6.26759 2.95203 0
M  V30 15832 N 1572.83 5.0085 2.55158 0
M  V30 15833 H 1564.98 2.12358 -0.0420956 0
M  V30 15834 H 1567.24 0.946989 0.0437628 0
M  V30 15835 H 1566.95 3.43589 0.75096 0
M  V30 15836 H 1566.82 2.89666 2.41605 0
M  V30 15837 H 1569.21 1.92046 2.24058 0
M  V30 15838 H 1569.29 2.49399 0.56866 0
M  V30 15839 H 1568.94 4.88375 1.39472 0
M  V30 15840 H 1568.87 4.2792 3.06907 0
M  V30 15841 H 1571.36 3.2885 1.86188 0
M  V30 15842 H 1571.67 7.01096 3.25091 0
M  V30 15843 H 1570.02 6.30222 2.92993 0
M  V30 15844 H 1573.21 4.11428 2.2326 0
M  V30 15845 H 1573.38 5.81165 2.86621 0
M  V30 15846 N 1566.79 -0.886131 1.30328 0
M  V30 15847 C 1568.06 -1.61912 1.09744 0
M  V30 15848 C 1568.44 -2.08116 -0.353663 0
M  V30 15849 O 1567.79 -1.84725 -1.34495 0
M  V30 15850 C 1568 -2.78954 2.09727 0
M  V30 15851 C 1569.35 -3.49313 2.41382 0
M  V30 15852 O 1570.37 -2.89141 2.08028 0
M  V30 15853 O 1569.23 -4.57823 2.98431 0
M  V30 15854 H 1566.33 -0.71158 0.421406 0
M  V30 15855 H 1568.87 -0.933009 1.4175 0
M  V30 15856 H 1567.64 -2.42109 3.07407 0
M  V30 15857 H 1567.27 -3.55263 1.78532 0
M  V30 15858 N 1568.26 -1.13026 -1.09832 0
M  V30 15859 C 1569.19 -0.826338 -2.18389 0
M  V30 15860 C 1570.18 0.212529 -1.68767 0
M  V30 15861 O 1571.36 0.072363 -1.94065 0
M  V30 15862 C 1568.49 -0.286991 -3.46112 0
M  V30 15863 C 1567.44 -1.25963 -4.09044 0
M  V30 15864 C 1566.77 -0.580231 -5.31542 0
M  V30 15865 C 1568.07 -2.61661 -4.5203 0
M  V30 15866 H 1569.76 -1.73408 -2.4407 0
M  V30 15867 H 1567.31 -0.835201 -1.17305 0
M  V30 15868 H 1569.26 -0.062067 -4.21354 0
M  V30 15869 H 1567.99 0.656121 -3.19942 0
M  V30 15870 H 1566.65 -1.47047 -3.35816 0
M  V30 15871 H 1566.29 0.368222 -5.0165 0
M  V30 15872 H 1565.99 -1.2291 -5.74601 0
M  V30 15873 H 1567.52 -0.36449 -6.09511 0
M  V30 15874 H 1568.93 -2.44569 -5.18516 0
M  V30 15875 H 1567.33 -3.22685 -5.05959 0
M  V30 15876 H 1568.4 -3.19637 -3.64637 0
M  V30 15877 N 1569.74 1.27735 -0.923117 0
M  V30 15878 C 1571.02 1.89626 -0.479724 0
M  V30 15879 C 1571.4 1.83592 1.04197 0
M  V30 15880 O 1570.75 1.27808 1.89413 0
M  V30 15881 C 1570.96 3.33742 -1.02064 0
M  V30 15882 C 1572.31 4.10678 -1.07837 0
M  V30 15883 O 1573.33 3.4274 -0.969943 0
M  V30 15884 O 1572.19 5.32135 -1.24476 0
M  V30 15885 H 1569.28 0.812615 -0.153575 0
M  V30 15886 H 1571.83 1.36036 -1.01451 0
M  V30 15887 H 1570.6 3.32404 -2.06454 0
M  V30 15888 H 1570.22 3.94845 -0.467234 0
M  V30 15889 N 1571.22 0.688118 1.41784 0
M  V30 15890 C 1572.45 0.223231 2.06195 0
M  V30 15891 C 1572.87 -1.11601 1.51416 0
M  V30 15892 O 1572.23 -1.69701 0.638059 0
M  V30 15893 C 1572.28 0.183257 3.60134 0
M  V30 15894 O 1571.38 -0.844186 4.03667 0
M  V30 15895 H 1570.72 0.110925 0.654669 0
M  V30 15896 H 1573.25 0.940882 1.81683 0
M  V30 15897 H 1573.26 0.0115951 4.07998 0
M  V30 15898 H 1571.94 1.16072 3.99375 0
M  V30 15899 H 1570.51 -0.642484 3.67323 0
M  V30 15900 N 1572.7 -1.51554 0.432352 0
M  V30 15901 C 1573.66 -2.26195 -0.369912 0
M  V30 15902 C 1574.66 -1.29446 -0.953961 0
M  V30 15903 O 1575.85 -1.53199 -0.829193 0
M  V30 15904 C 1572.98 -3.04993 -1.52289 0
M  V30 15905 H 1574.18 -2.98551 0.284173 0
M  V30 15906 H 1571.73 -1.55197 0.1854 0
M  V30 15907 H 1572.46 -2.37043 -2.21317 0
M  V30 15908 H 1572.25 -3.76051 -1.11032 0
M  V30 15909 H 1573.74 -3.61547 -2.08982 0
M  V30 15910 N 1574.18 -0.163538 -1.56749 0
M  V30 15911 C 1575.11 0.765571 -2.20593 0
M  V30 15912 C 1576.09 1.24489 -1.15916 0
M  V30 15913 O 1577.27 1.29946 -1.44318 0
M  V30 15914 C 1574.4 1.99823 -2.84057 0
M  V30 15915 C 1573.36 1.65506 -3.94705 0
M  V30 15916 C 1572.68 2.96172 -4.45181 0
M  V30 15917 C 1573.98 0.88902 -5.14678 0
M  V30 15918 H 1575.68 0.233431 -2.98489 0
M  V30 15919 H 1573.22 0.110836 -1.43573 0
M  V30 15920 H 1575.18 2.65316 -3.27392 0
M  V30 15921 H 1573.9 2.55437 -2.03517 0
M  V30 15922 H 1572.56 1.02384 -3.52013 0
M  V30 15923 H 1572.21 3.49811 -3.61443 0
M  V30 15924 H 1571.91 2.73968 -5.19823 0
M  V30 15925 H 1573.43 3.62708 -4.91198 0
M  V30 15926 H 1574.84 1.44637 -5.54755 0
M  V30 15927 H 1573.24 0.766302 -5.95187 0
M  V30 15928 H 1574.31 -0.116145 -4.84761 0
M  V30 15929 N 1575.65 1.57214 0.110213 0
M  V30 15930 C 1576.58 2.04015 1.13579 0
M  V30 15931 C 1577.57 0.926215 1.42672 0
M  V30 15932 O 1578.75 1.19651 1.52962 0
M  V30 15933 C 1575.88 2.45187 2.45969 0
M  V30 15934 C 1574.83 3.60105 2.31319 0
M  V30 15935 C 1574.16 3.87205 3.68749 0
M  V30 15936 C 1575.46 4.91526 1.76635 0
M  V30 15937 H 1577.15 2.89944 0.746496 0
M  V30 15938 H 1574.7 1.39488 0.357642 0
M  V30 15939 H 1576.65 2.76534 3.17973 0
M  V30 15940 H 1575.38 1.56238 2.86805 0
M  V30 15941 H 1574.04 3.28981 1.61762 0
M  V30 15942 H 1573.68 2.95448 4.07087 0
M  V30 15943 H 1573.38 4.64563 3.59798 0
M  V30 15944 H 1574.91 4.21013 4.42245 0
M  V30 15945 H 1576.32 5.21351 2.38465 0
M  V30 15946 H 1574.72 5.72944 1.78482 0
M  V30 15947 H 1575.79 4.79456 0.724573 0
M  V30 15948 N 1577.13 -0.380637 1.52934 0
M  V30 15949 C 1578.1 -1.44819 1.77652 0
M  V30 15950 C 1579.1 -1.47224 0.646657 0
M  V30 15951 O 1580.29 -1.48248 0.91477 0
M  V30 15952 C 1577.42 -2.8405 1.8849 0
M  V30 15953 H 1578.61 -1.24183 2.72981 0
M  V30 15954 H 1576.16 -0.61288 1.43783 0
M  V30 15955 H 1576.9 -3.1002 0.951751 0
M  V30 15956 H 1576.68 -2.83704 2.70655 0
M  V30 15957 H 1578.17 -3.61388 2.09257 0
M  V30 15958 N 1578.61 -1.44039 -0.639573 0
M  V30 15959 C 1579.52 -1.52728 -1.78077 0
M  V30 15960 C 1580.54 -0.413467 -1.69016 0
M  V30 15961 O 1581.71 -0.669592 -1.89943 0
M  V30 15962 C 1578.78 -1.46078 -3.14424 0
M  V30 15963 C 1577.84 -2.68242 -3.35179 0
M  V30 15964 C 1577.07 -2.61899 -4.65021 0
M  V30 15965 O 1577.29 -1.67431 -5.45273 0
M  V30 15966 O 1576.23 -3.52619 -4.87795 0
M  V30 15967 H 1580.05 -2.49122 -1.737 0
M  V30 15968 H 1577.64 -1.26191 -0.799755 0
M  V30 15969 H 1579.52 -1.44861 -3.95719 0
M  V30 15970 H 1578.2 -0.528236 -3.19361 0
M  V30 15971 H 1577.1 -2.75028 -2.53595 0
M  V30 15972 H 1578.44 -3.60514 -3.35098 0
M  V30 15973 N 1580.09 0.879207 -1.30796 0
M  V30 15974 C 1581.33 1.63392 -1.20129 0
M  V30 15975 C 1581.67 1.92684 0.242164 0
M  V30 15976 O 1580.94 1.55188 1.17247 0
M  V30 15977 C 1581.23 2.97005 -2.03618 0
M  V30 15978 C 1581.08 2.74649 -3.56214 0
M  V30 15979 C 1582.4 3.97998 -1.87845 0
M  V30 15980 H 1579.52 0.592911 -0.437751 0
M  V30 15981 H 1582.16 1.017 -1.6049 0
M  V30 15982 H 1580.31 3.49659 -1.69326 0
M  V30 15983 H 1581.98 2.28738 -4.00595 0
M  V30 15984 H 1580.22 2.09048 -3.80107 0
M  V30 15985 H 1580.89 3.69681 -4.09927 0
M  V30 15986 H 1583.37 3.54523 -2.17836 0
M  V30 15987 H 1582.25 4.89388 -2.48578 0
M  V30 15988 H 1582.51 4.34062 -0.839183 0
M  V30 15989 N 1581.57 1.13606 1.09231 0
M  V30 15990 C 1582.51 0.815279 2.15921 0
M  V30 15991 C 1583.48 -0.223501 1.64589 0
M  V30 15992 O 1584.67 -0.0952982 1.90562 0
M  V30 15993 C 1581.81 0.289655 3.43882 0
M  V30 15994 C 1580.92 1.38773 4.09104 0
M  V30 15995 C 1580.06 0.820238 5.24829 0
M  V30 15996 C 1579.1 1.89658 5.81976 0
M  V30 15997 N 1578.23 1.34688 6.8906 0
M  V30 15998 H 1583.07 1.72914 2.42703 0
M  V30 15999 H 1580.61 0.863101 1.19117 0
M  V30 16000 H 1582.57 -0.0332398 4.17187 0
M  V30 16001 H 1581.2 -0.587329 3.17412 0
M  V30 16002 H 1580.25 1.82718 3.33644 0
M  V30 16003 H 1581.56 2.20114 4.47606 0
M  V30 16004 H 1580.72 0.448745 6.05038 0
M  V30 16005 H 1579.46 -0.0242261 4.87694 0
M  V30 16006 H 1578.46 2.27712 5.00427 0
M  V30 16007 H 1579.69 2.74448 6.21172 0
M  V30 16008 H 1577.63 0.524453 6.539 0
M  V30 16009 H 1577.55 2.09675 7.26342 0
M  V30 16010 H 1578.82 1.00302 7.7302 0
M  V30 16011 N 1583.05 -1.27244 0.929878 0
M  V30 16012 C 1584.32 -1.89369 0.489774 0
M  V30 16013 C 1584.7 -1.84142 -1.03222 0
M  V30 16014 O 1584.05 -1.2881 -1.88733 0
M  V30 16015 C 1584.26 -3.33196 1.03833 0
M  V30 16016 C 1585.61 -4.101 1.10013 0
M  V30 16017 O 1586.63 -3.42221 0.988106 0
M  V30 16018 O 1585.49 -5.31468 1.27296 0
M  V30 16019 H 1582.59 -0.811789 0.157882 0
M  V30 16020 H 1585.13 -1.35496 1.02171 0
M  V30 16021 H 1583.9 -3.31304 2.08214 0
M  V30 16022 H 1583.53 -3.94592 0.488167 0
M  V30 16023 N 1584.52 -0.695628 -1.41417 0
M  V30 16024 C 1585.77 -0.226954 -2.01526 0
M  V30 16025 C 1586.1 1.1704 -1.54968 0
M  V30 16026 O 1585.38 1.78999 -0.760895 0
M  V30 16027 C 1585.66 -0.284704 -3.58973 0
M  V30 16028 C 1585.51 -1.71901 -4.15656 0
M  V30 16029 C 1586.83 0.355454 -4.38662 0
M  V30 16030 H 1583.95 -0.0839425 -0.732204 0
M  V30 16031 H 1586.59 -0.884359 -1.68164 0
M  V30 16032 H 1584.74 0.275041 -3.87525 0
M  V30 16033 H 1586.42 -2.3326 -3.97979 0
M  V30 16034 H 1584.66 -2.25314 -3.70696 0
M  V30 16035 H 1585.33 -1.71095 -5.24815 0
M  V30 16036 H 1587.81 -0.121256 -4.15923 0
M  V30 16037 H 1586.68 0.284503 -5.48162 0
M  V30 16038 H 1586.94 1.43617 -4.18123 0
M  V30 16039 N 1586 1.51322 -0.440383 0
M  V30 16040 C 1586.93 2.30708 0.360013 0
M  V30 16041 C 1587.91 1.36254 1.01828 0
M  V30 16042 O 1589.1 1.65174 1.02134 0
M  V30 16043 C 1586.23 3.15132 1.45977 0
M  V30 16044 C 1585.18 4.17889 0.924825 0
M  V30 16045 C 1584.51 4.90853 2.12056 0
M  V30 16046 C 1585.81 5.22282 -0.0428362 0
M  V30 16047 H 1587.5 2.97868 -0.30248 0
M  V30 16048 H 1585.05 1.43249 -0.146914 0
M  V30 16049 H 1587 3.69449 2.02695 0
M  V30 16050 H 1585.72 2.45798 2.1506 0
M  V30 16051 H 1584.38 3.64627 0.379842 0
M  V30 16052 H 1584.03 4.1802 2.79765 0
M  V30 16053 H 1583.73 5.60339 1.769 0
M  V30 16054 H 1585.26 5.47995 2.69322 0
M  V30 16055 H 1586.67 5.71654 0.434137 0
M  V30 16056 H 1585.07 5.99314 -0.307126 0
M  V30 16057 H 1586.14 4.74923 -0.978557 0
M  V30 16058 N 1587.48 0.171848 1.5666 0
M  V30 16059 C 1588.73 -0.473061 1.96074 0
M  V30 16060 C 1589.04 -1.64353 1.06054 0
M  V30 16061 O 1590.25 -2.35471 1.35151 0
M  V30 16062 C 1588.7 -0.892995 3.48645 0
M  V30 16063 C 1588.31 0.251902 4.47291 0
M  V30 16064 C 1590.06 -1.50629 3.96877 0
M  V30 16065 C 1587.96 -0.187691 5.91102 0
M  V30 16066 H 1586.89 -0.180503 0.732075 0
M  V30 16067 H 1589.54 0.260164 1.81646 0
M  V30 16068 H 1587.93 -1.68221 3.58494 0
M  V30 16069 H 1589.1 1.02923 4.49159 0
M  V30 16070 H 1587.41 0.775193 4.09121 0
M  V30 16071 H 1590.01 -1.84724 5.01778 0
M  V30 16072 H 1590.35 -2.4044 3.39844 0
M  V30 16073 H 1590.89 -0.781502 3.90048 0
M  V30 16074 H 1587.63 0.675653 6.52009 0
M  V30 16075 H 1587.15 -0.93037 5.9254 0
M  V30 16076 H 1588.83 -0.631385 6.43912 0
M  V30 16077 N 1588.96 -1.5727 -0.101874 0
M  V30 16078 C 1590.37 -1.74753 -0.657147 0
M  V30 16079 C 1590.72 -0.793052 -1.79458 0
M  V30 16080 O 1589.84 0.0300559 -2.16379 0
M  V30 16081 C 1590.44 -3.1688 -1.19885 0
M  V30 16082 C 1589 -3.3581 -1.70025 0
M  V30 16083 C 1588.15 -2.70575 -0.607007 0
M  V30 16084 H 1591.1 -1.58214 0.124158 0
M  V30 16085 H 1591.12 -3.19378 -2.06829 0
M  V30 16086 H 1590.63 -3.86325 -0.37079 0
M  V30 16087 H 1588.73 -2.71434 -2.55253 0
M  V30 16088 H 1588.84 -4.44086 -1.79791 0
M  V30 16089 H 1587.21 -2.32284 -1.04481 0
M  V30 16090 H 1587.99 -3.42655 0.21036 0
M  V30 16091 N 1590.44 0.372521 -1.53134 0
M  V30 16092 C 1591.39 1.45592 -1.75462 0
M  V30 16093 C 1592.37 1.4893 -0.608994 0
M  V30 16094 O 1593.56 1.54288 -0.867419 0
M  V30 16095 C 1590.69 2.83111 -1.94172 0
M  V30 16096 C 1589.78 2.84279 -3.14716 0
M  V30 16097 N 1590.17 2.551 -4.36758 0
M  V30 16098 C 1588.47 3.15443 -3.15297 0
M  V30 16099 C 1589.17 2.6377 -5.18459 0
M  V30 16100 N 1588.14 2.98192 -4.54513 0
M  V30 16101 H 1591.94 1.21885 -2.67435 0
M  V30 16102 H 1589.46 0.58064 -1.51665 0
M  V30 16103 H 1591.46 3.61136 -2.08294 0
M  V30 16104 H 1590.12 3.07788 -1.03423 0
M  V30 16105 H 1591.13 2.2882 -4.64609 0
M  V30 16106 H 1587.8 3.45479 -2.34416 0
M  V30 16107 H 1589.19 2.44616 -6.2579 0
M  V30 16108 N 1591.91 1.44376 0.631925 0
M  V30 16109 C 1592.82 1.5367 1.77264 0
M  V30 16110 C 1593.84 0.422425 1.68794 0
M  V30 16111 O 1595.02 0.679656 1.89585 0
M  V30 16112 C 1592.08 1.47743 3.13644 0
M  V30 16113 C 1591.14 2.70015 3.33752 0
M  V30 16114 C 1590.37 2.64362 4.63626 0
M  V30 16115 O 1590.6 1.7032 5.44378 0
M  V30 16116 O 1589.53 3.55201 4.85918 0
M  V30 16117 H 1593.36 2.5004 1.72376 0
M  V30 16118 H 1590.94 1.26614 0.793052 0
M  V30 16119 H 1592.82 1.46958 3.94945 0
M  V30 16120 H 1591.5 0.545165 3.19076 0
M  V30 16121 H 1590.41 2.76369 2.52133 0
M  V30 16122 H 1591.74 3.62286 3.33181 0
M  V30 16123 N 1593.39 -0.872258 1.31261 0
M  V30 16124 C 1594.81 -1.15763 1.09868 0
M  V30 16125 C 1595.01 -2.01065 -0.132331 0
M  V30 16126 O 1594.06 -2.38735 -0.822317 0
M  V30 16127 C 1595.38 -1.85199 2.36901 0
M  V30 16128 C 1596.92 -1.9791 2.42489 0
M  V30 16129 C 1597.4 -2.70759 3.69396 0
M  V30 16130 N 1598.89 -2.78296 3.70278 0
M  V30 16131 C 1599.63 -3.3527 4.65168 0
M  V30 16132 N 1599.12 -3.93193 5.70413 0
M  V30 16133 N 1600.91 -3.33206 4.52692 0
M  V30 16134 H 1593.07 -0.303784 2.10216 0
M  V30 16135 H 1595.33 -0.197172 0.927269 0
M  V30 16136 H 1595.03 -1.29968 3.26804 0
M  V30 16137 H 1594.91 -2.85493 2.46523 0
M  V30 16138 H 1597.3 -2.52305 1.53056 0
M  V30 16139 H 1597.38 -0.966644 2.36833 0
M  V30 16140 H 1597.02 -2.17031 4.59195 0
M  V30 16141 H 1596.95 -3.72407 3.72318 0
M  V30 16142 H 1599.44 -2.37185 2.94197 0
M  V30 16143 H 1599.75 -4.34771 6.38901 0
M  V30 16144 H 1598.1 -3.91575 5.7419 0
M  V30 16145 H 1601.29 -2.87191 3.69647 0
M  V30 16146 H 1601.46 -3.7731 5.26822 0
M  V30 16147 N 1594.87 -1.14184 -1.08627 0
M  V30 16148 C 1596.12 -0.91001 -1.81236 0
M  V30 16149 C 1596.45 0.562134 -1.85886 0
M  V30 16150 O 1595.72 1.41631 -1.33307 0
M  V30 16151 C 1596.01 -1.50879 -3.26967 0
M  V30 16152 C 1595.86 -3.05063 -3.3054 0
M  V30 16153 C 1597.18 -1.18379 -4.2388 0
M  V30 16154 H 1594.3 -0.332025 -0.657973 0
M  V30 16155 H 1596.94 -1.41144 -1.27194 0
M  V30 16156 H 1595.09 -1.08236 -3.73118 0
M  V30 16157 H 1596.76 -3.5652 -2.9273 0
M  V30 16158 H 1595 -3.39628 -2.6988 0
M  V30 16159 H 1595.68 -3.42064 -4.33239 0
M  V30 16160 H 1598.15 -1.55242 -3.86056 0
M  V30 16161 H 1597.03 -1.62911 -5.24167 0
M  V30 16162 H 1597.29 -0.0987385 -4.4199 0
M  V30 16163 N 1596.35 1.26749 -0.936613 0
M  V30 16164 C 1597.59 1.94251 -0.582616 0
M  V30 16165 C 1597.93 1.73352 0.875361 0
M  V30 16166 O 1597.2 1.06784 1.62565 0
M  V30 16167 C 1597.49 3.48145 -0.920151 0
M  V30 16168 C 1597.34 3.78349 -2.43253 0
M  V30 16169 C 1598.66 4.37971 -0.432326 0
M  V30 16170 H 1595.78 0.705507 -0.213141 0
M  V30 16171 H 1598.42 1.49703 -1.17001 0
M  V30 16172 H 1596.57 3.8622 -0.420279 0
M  V30 16173 H 1598.24 3.50015 -3.00478 0
M  V30 16174 H 1596.48 3.24586 -2.87795 0
M  V30 16175 H 1597.15 4.85902 -2.61922 0
M  V30 16176 H 1599.63 4.07098 -0.860857 0
M  V30 16177 H 1598.51 5.44452 -0.697366 0
M  V30 16178 H 1598.77 4.37029 0.667694 0
M  V30 16179 N 1597.83 0.703118 1.41046 0
M  V30 16180 C 1599.05 0.246552 2.05426 0
M  V30 16181 C 1599.47 -1.10704 1.52938 0
M  V30 16182 O 1598.83 -1.69329 0.680733 0
M  V30 16183 C 1598.88 0.203953 3.60924 0
M  V30 16184 O 1598.6 1.50408 4.11472 0
M  V30 16185 C 1600.1 -0.272686 4.42461 0
M  V30 16186 H 1597.32 0.113157 0.66139 0
M  V30 16187 H 1599.86 0.957823 1.80682 0
M  V30 16188 H 1598.02 -0.458194 3.84681 0
M  V30 16189 H 1598.43 1.39622 5.05575 0
M  V30 16190 H 1599.91 -0.251357 5.51427 0
M  V30 16191 H 1600.38 -1.31282 4.1912 0
M  V30 16192 H 1600.99 0.358733 4.23784 0
M  V30 16193 N 1599.3 -1.51086 0.448402 0
M  V30 16194 C 1600.25 -2.24885 -0.375609 0
M  V30 16195 C 1601.24 -1.27553 -0.980769 0
M  V30 16196 O 1602.43 -1.52583 -0.897076 0
M  V30 16197 C 1599.56 -3.10235 -1.47 0
M  V30 16198 C 1598.65 -4.15003 -0.873686 0
M  V30 16199 N 1599.04 -5.05799 -0.00756268 0
M  V30 16200 C 1597.33 -4.31182 -1.14009 0
M  V30 16201 C 1598.04 -5.80772 0.328514 0
M  V30 16202 N 1597.01 -5.42822 -0.290661 0
M  V30 16203 H 1600.81 -2.92446 0.291962 0
M  V30 16204 H 1598.33 -1.60287 0.261145 0
M  V30 16205 H 1600.32 -3.61691 -2.07328 0
M  V30 16206 H 1598.98 -2.44219 -2.13979 0
M  V30 16207 H 1600 -5.1665 0.359676 0
M  V30 16208 H 1596.67 -3.7639 -1.80656 0
M  V30 16209 H 1598.06 -6.63896 1.03399 0
M  V30 16210 N 1600.78 -0.180154 -1.56567 0
M  V30 16211 C 1602.01 0.471692 -2.01965 0
M  V30 16212 C 1602.43 1.5542 -1.05954 0
M  V30 16213 O 1601.79 1.81255 -0.0405307 0
M  V30 16214 C 1601.84 1.01883 -3.45908 0
M  V30 16215 O 1600.94 2.13245 -3.52988 0
M  V30 16216 H 1600.28 0.11197 -0.654491 0
M  V30 16217 H 1602.81 -0.286642 -2.02582 0
M  V30 16218 H 1602.82 1.33922 -3.85395 0
M  V30 16219 H 1601.5 0.226299 -4.15284 0
M  V30 16220 H 1600.08 1.82184 -3.25367 0
M  V30 16221 N 1602.26 1.57322 0.0935319 0
M  V30 16222 C 1603.54 1.77187 0.828503 0
M  V30 16223 C 1603.92 0.762216 1.96859 0
M  V30 16224 O 1603.27 -0.208982 2.27542 0
M  V30 16225 C 1603.48 3.23007 1.32163 0
M  V30 16226 C 1604.82 3.86233 1.76379 0
M  V30 16227 O 1605.85 3.26766 1.41783 0
M  V30 16228 O 1604.71 4.90808 2.40354 0
M  V30 16229 H 1601.8 0.726401 0.395311 0
M  V30 16230 H 1604.35 1.69533 0.0752924 0
M  V30 16231 H 1603.12 3.88029 0.504863 0
M  V30 16232 H 1602.74 3.353 2.13681 0
M  V30 16233 N 1603.74 -0.364395 1.53329 0
M  V30 16234 C 1605.15 -0.706147 1.43128 0
M  V30 16235 C 1605.35 -1.93231 0.571307 0
M  V30 16236 O 1604.41 -2.52442 0.0542079 0
M  V30 16237 C 1605.72 -0.918245 2.86337 0
M  V30 16238 C 1607.27 -1.01818 2.95976 0
M  V30 16239 C 1607.75 -1.26274 4.40249 0
M  V30 16240 N 1609.24 -1.33042 4.43683 0
M  V30 16241 C 1609.97 -1.53677 5.52423 0
M  V30 16242 N 1609.47 -1.7162 6.71207 0
M  V30 16243 N 1611.26 -1.56056 5.40003 0
M  V30 16244 H 1603.41 0.442091 2.07748 0
M  V30 16245 H 1605.68 0.135735 0.938232 0
M  V30 16246 H 1605.38 -0.0890628 3.51587 0
M  V30 16247 H 1605.26 -1.826 3.30056 0
M  V30 16248 H 1607.64 -1.83791 2.30879 0
M  V30 16249 H 1607.72 -0.0877892 2.55649 0
M  V30 16250 H 1607.37 -0.448026 5.0592 0
M  V30 16251 H 1607.3 -2.20637 4.78149 0
M  V30 16252 H 1609.79 -1.20784 3.58078 0
M  V30 16253 H 1610.1 -1.86942 7.49848 0
M  V30 16254 H 1608.45 -1.68797 6.7419 0
M  V30 16255 H 1611.64 -1.41605 4.46168 0
M  V30 16256 H 1611.81 -1.71796 6.24812 0
M  V30 16257 N 1605.22 -1.44709 -0.62426 0
M  V30 16258 C 1606.46 -1.48072 -1.38573 0
M  V30 16259 C 1606.8 -0.115532 -1.93856 0
M  V30 16260 O 1606.07 0.867787 -1.74068 0
M  V30 16261 C 1606.35 -2.54662 -2.54596 0
M  V30 16262 C 1606.21 -4.00564 -2.04618 0
M  V30 16263 C 1607.53 -2.57689 -3.56769 0
M  V30 16264 H 1604.64 -0.539119 -0.502513 0
M  V30 16265 H 1607.29 -1.76427 -0.705225 0
M  V30 16266 H 1605.44 -2.30614 -3.12649 0
M  V30 16267 H 1607.11 -4.35767 -1.51343 0
M  V30 16268 H 1605.35 -4.12014 -1.35746 0
M  V30 16269 H 1606.02 -4.70804 -2.8818 0
M  V30 16270 H 1608.5 -2.79194 -3.08529 0
M  V30 16271 H 1607.37 -3.34161 -4.35462 0
M  V30 16272 H 1607.64 -1.62146 -4.11292 0
M  V30 16273 N 1606.69 0.865285 -1.31722 0
M  V30 16274 C 1607.94 1.6135 -1.21033 0
M  V30 16275 C 1608.26 1.94253 0.229141 0
M  V30 16276 O 1609.46 2.67613 0.457771 0
M  V30 16277 C 1607.92 2.90898 -2.11912 0
M  V30 16278 C 1607.53 2.6546 -3.60881 0
M  V30 16279 C 1609.27 3.68898 -2.10035 0
M  V30 16280 C 1607.18 3.90943 -4.43754 0
M  V30 16281 H 1606.11 0.605418 -0.449428 0
M  V30 16282 H 1608.76 0.956335 -1.56609 0
M  V30 16283 H 1607.14 3.58014 -1.69239 0
M  V30 16284 H 1608.31 2.06721 -4.11829 0
M  V30 16285 H 1606.63 2.00806 -3.64782 0
M  V30 16286 H 1609.23 4.61995 -2.69193 0
M  V30 16287 H 1609.57 4.01813 -1.08865 0
M  V30 16288 H 1610.1 3.08671 -2.50932 0
M  V30 16289 H 1606.84 3.63176 -5.45696 0
M  V30 16290 H 1606.36 4.49116 -3.97561 0
M  V30 16291 H 1608.04 4.58784 -4.56208 0
M  V30 16292 N 1608.17 1.14759 1.0802 0
M  V30 16293 C 1609.42 0.916435 1.80127 0
M  V30 16294 C 1609.74 -0.558281 1.86837 0
M  V30 16295 O 1609.01 -1.40579 1.36434 0
M  V30 16296 H 1607.59 0.336066 0.667135 0
M  V30 16297 H 1610.25 1.44693 1.30576 0
M  V30 16298 H 1609.35 1.31986 2.82818 0
M  V30 16299 N 1609.65 -1.26251 0.943322 0
M  V30 16300 C 1610.6 -2.26304 0.453315 0
M  V30 16301 C 1611.57 -1.58764 -0.488168 0
M  V30 16302 O 1612.75 -1.86476 -0.403906 0
M  V30 16303 C 1609.89 -3.44015 -0.273393 0
M  V30 16304 C 1609.01 -4.26225 0.70401 0
M  V30 16305 C 1608.14 -5.31182 -0.0441134 0
M  V30 16306 C 1607.18 -6.05071 0.924971 0
M  V30 16307 N 1606.32 -7.0179 0.208461 0
M  V30 16308 H 1611.16 -2.67591 1.31146 0
M  V30 16309 H 1608.69 -1.31567 0.657914 0
M  V30 16310 H 1610.65 -4.11094 -0.711192 0
M  V30 16311 H 1609.28 -3.03636 -1.09566 0
M  V30 16312 H 1608.33 -3.58915 1.26032 0
M  V30 16313 H 1609.65 -4.77442 1.44398 0
M  V30 16314 H 1608.8 -6.04282 -0.541091 0
M  V30 16315 H 1607.54 -4.80809 -0.816952 0
M  V30 16316 H 1606.54 -5.30795 1.43305 0
M  V30 16317 H 1607.77 -6.57533 1.69785 0
M  V30 16318 H 1605.71 -6.53725 -0.545846 0
M  V30 16319 H 1605.63 -7.5077 0.887725 0
M  V30 16320 H 1606.9 -7.79041 -0.267352 0
M  V30 16321 N 1611.13 -0.710588 -1.40671 0
M  V30 16322 C 1612.38 -0.247459 -2.00579 0
M  V30 16323 C 1612.7 1.16179 -1.56612 0
M  V30 16324 O 1611.97 1.7867 -0.803358 0
M  V30 16325 H 1610.55 -0.0884992 -0.741739 0
M  V30 16326 H 1613.21 -0.915103 -1.72081 0
M  V30 16327 H 1612.31 -0.276631 -3.10872 0
M  V30 16328 N 1612.61 1.50847 -0.456408 0
M  V30 16329 C 1613.56 2.25081 0.363678 0
M  V30 16330 C 1614.54 1.28071 0.973991 0
M  V30 16331 O 1615.73 1.53056 0.888972 0
M  V30 16332 C 1612.86 3.11011 1.45352 0
M  V30 16333 C 1611.95 4.15461 0.851665 0
M  V30 16334 N 1612.34 5.05796 -0.0192612 0
M  V30 16335 C 1610.64 4.31781 1.11721 0
M  V30 16336 C 1611.34 5.80589 -0.359309 0
M  V30 16337 N 1610.31 5.42969 0.26187 0
M  V30 16338 H 1614.12 2.92287 -0.307467 0
M  V30 16339 H 1611.63 1.60146 -0.269642 0
M  V30 16340 H 1613.63 3.62786 2.05407 0
M  V30 16341 H 1612.29 2.45351 2.12681 0
M  V30 16342 H 1613.3 5.16452 -0.38707 0
M  V30 16343 H 1609.98 3.77343 1.78657 0
M  V30 16344 H 1611.37 6.63339 -1.06919 0
M  V30 16345 N 1614.09 0.188454 1.56469 0
M  V30 16346 C 1615.33 -0.452058 1.9739 0
M  V30 16347 C 1615.66 -1.62086 1.0751 0
M  V30 16348 O 1614.92 -1.95375 0.11278 0
M  V30 16349 C 1615.21 -0.960652 3.44247 0
M  V30 16350 C 1614.88 0.0940708 4.50802 0
M  V30 16351 C 1613.54 0.383899 4.79666 0
M  V30 16352 C 1615.89 0.80908 5.14882 0
M  V30 16353 C 1613.22 1.39383 5.69903 0
M  V30 16354 C 1615.57 1.80811 6.0621 0
M  V30 16355 C 1614.24 2.10521 6.33433 0
M  V30 16356 H 1613.51 -0.16542 0.7223 0
M  V30 16357 H 1616.16 0.284024 1.89382 0
M  V30 16358 H 1614.46 -1.77488 3.49292 0
M  V30 16359 H 1616.16 -1.46553 3.7326 0
M  V30 16360 H 1612.75 -0.141993 4.28365 0
M  V30 16361 H 1616.93 0.598391 4.92679 0
M  V30 16362 H 1612.19 1.63 5.89272 0
M  V30 16363 H 1616.36 2.36742 6.54925 0
M  V30 16364 H 1613.99 2.88924 7.03155 0
M  V30 16365 N 1615.56 -1.5737 -0.0851874 0
M  V30 16366 C 1616.81 -1.86219 -0.7853 0
M  V30 16367 C 1617.13 -0.77857 -1.78783 0
M  V30 16368 O 1616.4 0.194176 -1.94935 0
M  V30 16369 H 1614.98 -0.687134 -0.293013 0
M  V30 16370 H 1617.64 -1.94793 -0.0644597 0
M  V30 16371 H 1616.74 -2.83286 -1.30978 0
M  V30 16372 N 1617.04 0.356258 -1.53521 0
M  V30 16373 C 1618.29 1.09953 -1.70406 0
M  V30 16374 C 1618.62 1.8869 -0.459304 0
M  V30 16375 O 1617.9 1.86751 0.54354 0
M  V30 16376 C 1618.18 2.05114 -2.95973 0
M  V30 16377 C 1618.03 1.29924 -4.30627 0
M  V30 16378 C 1619.35 3.0511 -3.17168 0
M  V30 16379 H 1616.47 0.398343 -0.620074 0
M  V30 16380 H 1619.11 0.379376 -1.86174 0
M  V30 16381 H 1617.26 2.66524 -2.82661 0
M  V30 16382 H 1618.93 0.71226 -4.55768 0
M  V30 16383 H 1617.18 0.601141 -4.29615 0
M  V30 16384 H 1617.85 1.99624 -5.1464 0
M  V30 16385 H 1620.32 2.53809 -3.29728 0
M  V30 16386 H 1619.2 3.68908 -4.06445 0
M  V30 16387 H 1619.46 3.75794 -2.32876 0
M  V30 16388 N 1618.52 1.45038 0.616577 0
M  V30 16389 C 1619.77 1.48805 1.37786 0
M  V30 16390 C 1620.1 0.125811 1.93792 0
M  V30 16391 O 1619.37 -0.858544 1.74526 0
M  V30 16392 C 1619.66 2.56008 2.53242 0
M  V30 16393 C 1619.51 4.01643 2.02491 0
M  V30 16394 C 1620.83 2.59578 3.55398 0
M  V30 16395 H 1617.95 0.541776 0.499647 0
M  V30 16396 H 1620.59 1.76799 0.695859 0
M  V30 16397 H 1618.74 2.32269 3.11422 0
M  V30 16398 H 1620.41 4.36564 1.4903 0
M  V30 16399 H 1618.65 4.12728 1.33559 0
M  V30 16400 H 1619.33 4.72326 2.85679 0
M  V30 16401 H 1621.8 2.80826 3.07044 0
M  V30 16402 H 1620.68 3.36466 4.33684 0
M  V30 16403 H 1620.94 1.64325 4.10426 0
M  V30 16404 N 1620 -0.858287 1.32179 0
M  V30 16405 C 1621.23 -1.64235 1.25341 0
M  V30 16406 C 1621.64 -1.88327 -0.181568 0
M  V30 16407 O 1620.98 -1.44996 -1.12791 0
M  V30 16408 C 1621.04 -3.02686 1.93963 0
M  V30 16409 C 1620.7 -3.01651 3.43301 0
M  V30 16410 C 1621.7 -2.78762 4.38848 0
M  V30 16411 C 1619.39 -3.22402 3.85178 0
M  V30 16412 C 1621.38 -2.76621 5.74247 0
M  V30 16413 C 1619.07 -3.19888 5.20687 0
M  V30 16414 C 1620.07 -2.97026 6.15032 0
M  V30 16415 O 1619.75 -2.94379 7.48061 0
M  V30 16416 H 1619.49 -0.518387 0.433879 0
M  V30 16417 H 1622.04 -1.07869 1.74795 0
M  V30 16418 H 1620.27 -3.60826 1.39074 0
M  V30 16419 H 1621.96 -3.63367 1.80884 0
M  V30 16420 H 1622.72 -2.62501 4.07821 0
M  V30 16421 H 1618.6 -3.39223 3.12167 0
M  V30 16422 H 1622.15 -2.58696 6.4786 0
M  V30 16423 H 1618.04 -3.35693 5.51344 0
M  V30 16424 H 1618.81 -3.10359 7.57377 0
M  V30 16425 N 1621.48 -1.1533 -1.07409 0
M  V30 16426 C 1622.43 -0.81798 -2.12822 0
M  V30 16427 C 1623.41 0.1975 -1.59683 0
M  V30 16428 O 1624.6 -0.00166798 -1.77 0
M  V30 16429 C 1621.73 -0.308356 -3.41912 0
M  V30 16430 C 1620.82 -1.35396 -4.01906 0
M  V30 16431 N 1621.21 -2.5611 -4.36167 0
M  V30 16432 C 1619.51 -1.20656 -4.29369 0
M  V30 16433 C 1620.21 -3.23124 -4.837 0
M  V30 16434 N 1619.18 -2.50513 -4.82436 0
M  V30 16435 H 1622.98 -1.73611 -2.37143 0
M  V30 16436 H 1620.5 -1.03867 -1.24842 0
M  V30 16437 H 1622.5 -0.0497865 -4.1687 0
M  V30 16438 H 1621.16 0.60384 -3.19036 0
M  V30 16439 H 1622.17 -2.93258 -4.26873 0
M  V30 16440 H 1618.84 -0.354208 -4.15995 0
M  V30 16441 H 1620.23 -4.26103 -5.19505 0
M  V30 16442 N 1622.95 1.25748 -0.950004 0
M  V30 16443 C 1624.2 1.92954 -0.601104 0
M  V30 16444 C 1624.52 1.74817 0.863953 0
M  V30 16445 O 1623.79 1.10904 1.61484 0
M  V30 16446 H 1622.37 0.714077 -0.219325 0
M  V30 16447 H 1625.03 1.53009 -1.20724 0
M  V30 16448 H 1624.13 3.00959 -0.826447 0
M  V30 16449 N 1624.43 0.718038 1.40292 0
M  V30 16450 C 1625.34 0.0681535 2.34501 0
M  V30 16451 C 1626.36 -0.741048 1.57431 0
M  V30 16452 O 1627.53 -0.673437 1.89807 0
M  V30 16453 C 1624.6 -0.840758 3.36351 0
M  V30 16454 C 1623.66 -0.0212287 4.29295 0
M  V30 16455 C 1622.89 -0.886852 5.2628 0
M  V30 16456 O 1623.12 -2.12603 5.29298 0
M  V30 16457 O 1622.05 -0.324537 6.01024 0
M  V30 16458 H 1625.88 0.845288 2.91699 0
M  V30 16459 H 1623.46 0.478541 1.41529 0
M  V30 16460 H 1625.34 -1.36131 3.98806 0
M  V30 16461 H 1624.02 -1.597 2.81563 0
M  V30 16462 H 1622.92 0.544451 3.70117 0
M  V30 16463 H 1624.26 0.696846 4.87242 0
M  V30 16464 N 1625.91 -1.50602 0.464402 0
M  V30 16465 C 1627.14 -2.06401 -0.0906449 0
M  V30 16466 C 1627.55 -1.32913 -1.3465 0
M  V30 16467 O 1626.89 -0.389959 -1.79513 0
M  V30 16468 C 1626.95 -3.56655 -0.451375 0
M  V30 16469 C 1626.62 -4.51584 0.701504 0
M  V30 16470 C 1627.61 -4.95259 1.5816 0
M  V30 16471 C 1625.3 -4.94354 0.88993 0
M  V30 16472 C 1627.29 -5.80404 2.63458 0
M  V30 16473 C 1624.98 -5.79283 1.94615 0
M  V30 16474 C 1625.98 -6.22208 2.81684 0
M  V30 16475 O 1625.67 -7.05446 3.85489 0
M  V30 16476 H 1625.4 -0.676 0.000751268 0
M  V30 16477 H 1627.95 -1.94836 0.650235 0
M  V30 16478 H 1626.18 -3.66098 -1.24535 0
M  V30 16479 H 1627.87 -3.94848 -0.940722 0
M  V30 16480 H 1628.64 -4.6289 1.44768 0
M  V30 16481 H 1624.52 -4.60467 0.221708 0
M  V30 16482 H 1628.06 -6.13829 3.3145 0
M  V30 16483 H 1623.96 -6.11064 2.08016 0
M  V30 16484 H 1624.73 -7.23682 3.82396 0
M  V30 16485 N 1627.39 -0.19675 -1.56367 0
M  V30 16486 C 1628.64 0.441807 -1.96802 0
M  V30 16487 C 1628.95 1.62645 -1.08656 0
M  V30 16488 O 1630.16 2.33291 -1.3888 0
M  V30 16489 C 1628.61 0.837415 -3.50022 0
M  V30 16490 C 1628.22 -0.323031 -4.46834 0
M  V30 16491 C 1629.96 1.44296 -3.99223 0
M  V30 16492 C 1627.87 0.0936285 -5.91326 0
M  V30 16493 H 1626.8 0.168834 -0.734854 0
M  V30 16494 H 1629.45 -0.289029 -1.81209 0
M  V30 16495 H 1627.83 1.62497 -3.61124 0
M  V30 16496 H 1629.01 -1.10056 -4.47464 0
M  V30 16497 H 1627.32 -0.840182 -4.07836 0
M  V30 16498 H 1629.92 1.76718 -5.04653 0
M  V30 16499 H 1630.26 2.35003 -3.43627 0
M  V30 16500 H 1630.8 0.71935 -3.91242 0
M  V30 16501 H 1627.54 -0.779297 -6.50851 0
M  V30 16502 H 1627.06 0.835984 -5.93946 0
M  V30 16503 H 1628.73 0.528864 -6.44835 0
M  V30 16504 N 1628.87 1.57413 0.0768405 0
M  V30 16505 C 1630.14 1.78056 0.809663 0
M  V30 16506 C 1630.52 0.783053 1.9604 0
M  V30 16507 O 1629.87 -0.184836 2.27751 0
M  V30 16508 C 1630.08 3.24391 1.2873 0
M  V30 16509 C 1631.43 3.88082 1.72272 0
M  V30 16510 O 1632.45 3.28251 1.38309 0
M  V30 16511 O 1631.31 4.93329 2.35135 0
M  V30 16512 H 1628.41 0.730553 0.387584 0
M  V30 16513 H 1630.95 1.69603 0.057307 0
M  V30 16514 H 1629.72 3.88543 0.463678 0
M  V30 16515 H 1629.35 3.37548 2.10112 0
M  V30 16516 N 1630.34 -0.348112 1.53707 0
M  V30 16517 C 1631.28 -1.44781 1.77682 0
M  V30 16518 C 1632.29 -1.4891 0.657997 0
M  V30 16519 O 1633.48 -1.52075 0.934635 0
M  V30 16520 C 1630.58 -2.83463 1.85747 0
M  V30 16521 C 1629.75 -3.02827 3.15618 0
M  V30 16522 C 1628.81 -4.21724 3.14698 0
M  V30 16523 O 1627.84 -4.16059 3.88437 0
M  V30 16524 N 1629.04 -5.3003 2.36746 0
M  V30 16525 H 1631.8 -1.24587 2.72577 0
M  V30 16526 H 1629.36 -0.537961 1.52701 0
M  V30 16527 H 1631.36 -3.6117 1.82589 0
M  V30 16528 H 1629.93 -2.96822 0.980595 0
M  V30 16529 H 1629.15 -2.1263 3.31937 0
M  V30 16530 H 1630.43 -3.12645 4.01411 0
M  V30 16531 H 1629.83 -5.375 1.7638 0
M  V30 16532 H 1628.39 -6.06247 2.39389 0
M  V30 16533 N 1631.82 -1.45363 -0.608876 0
M  V30 16534 C 1632.79 -1.53551 -1.70161 0
M  V30 16535 C 1633.79 -0.415146 -1.55349 0
M  V30 16536 O 1634.98 -0.67858 -1.6044 0
M  V30 16537 C 1632.11 -1.43081 -3.0942 0
M  V30 16538 H 1633.3 -2.5091 -1.64268 0
M  V30 16539 H 1630.85 -1.32785 -0.824493 0
M  V30 16540 H 1631.59 -0.469016 -3.20891 0
M  V30 16541 H 1631.37 -2.24343 -3.21579 0
M  V30 16542 H 1632.86 -1.51841 -3.89017 0
M  V30 16543 N 1633.3 0.851265 -1.32632 0
M  V30 16544 C 1634.23 1.96682 -1.17681 0
M  V30 16545 C 1635.25 1.62422 -0.110926 0
M  V30 16546 O 1636.43 1.74828 -0.360202 0
M  V30 16547 C 1633.53 3.29806 -0.779838 0
M  V30 16548 C 1632.71 3.92284 -1.93473 0
M  V30 16549 C 1631.77 5.03745 -1.52075 0
M  V30 16550 O 1630.79 5.23558 -2.23328 0
M  V30 16551 N 1631.99 5.78988 -0.418695 0
M  V30 16552 H 1634.76 2.10049 -2.13775 0
M  V30 16553 H 1632.32 1.02631 -1.25214 0
M  V30 16554 H 1634.31 4.0178 -0.485236 0
M  V30 16555 H 1632.88 3.1247 0.0900498 0
M  V30 16556 H 1632.1 3.13054 -2.39564 0
M  V30 16557 H 1633.39 4.30762 -2.7078 0
M  V30 16558 H 1632.79 5.65432 0.174269 0
M  V30 16559 H 1631.35 6.51541 -0.183714 0
M  V30 16560 N 1634.78 1.15898 1.06796 0
M  V30 16561 C 1635.73 0.856808 2.16244 0
M  V30 16562 C 1636.72 -0.172075 1.68524 0
M  V30 16563 O 1637.93 -0.0265569 1.7998 0
M  V30 16564 H 1634.3 0.259445 0.705827 0
M  V30 16565 H 1636.27 1.7874 2.38945 0
M  V30 16566 C 1635.02 0.368721 3.45739 0
M  V30 16567 H 1634.34 1.15184 3.82848 0
M  V30 16568 H 1635.78 0.196012 4.23547 0
M  V30 16569 C 1634.24 -0.910802 3.24355 0
M  V30 16570 O 1634.77 -1.98115 3.49447 0
M  V30 16571 N 1632.98 -0.852545 2.77813 0
M  V30 16572 H 1632.53 0.0186646 2.57593 0
M  V30 16573 H 1632.48 -1.70917 2.63884 0
M  V30 16574 N 1636.26 -1.25243 0.956659 0
M  V30 16575 C 1637.67 -1.4525 0.661409 0
M  V30 16576 C 1637.87 -1.85774 -0.780404 0
M  V30 16577 O 1636.93 -1.98899 -1.55549 0
M  V30 16578 C 1638.24 -2.52296 1.63607 0
M  V30 16579 C 1639.79 -2.66134 1.64748 0
M  V30 16580 C 1640.26 -3.76366 2.60983 0
M  V30 16581 N 1641.76 -3.8378 2.5936 0
M  V30 16582 C 1642.49 -4.68569 3.30501 0
M  V30 16583 N 1641.99 -5.5763 4.11122 0
M  V30 16584 N 1643.78 -4.62551 3.19378 0
M  V30 16585 H 1635.93 -0.972321 1.88838 0
M  V30 16586 H 1638.19 -0.488615 0.812379 0
M  V30 16587 H 1637.9 -2.29382 2.66603 0
M  V30 16588 H 1637.77 -3.5025 1.40017 0
M  V30 16589 H 1640.16 -2.88412 0.624692 0
M  V30 16590 H 1640.24 -1.68573 1.92397 0
M  V30 16591 H 1639.89 -3.54839 3.63389 0
M  V30 16592 H 1639.82 -4.73417 2.30617 0
M  V30 16593 H 1642.31 -3.20117 2.00832 0
M  V30 16594 H 1642.62 -6.19258 4.62319 0
M  V30 16595 H 1640.96 -5.57331 4.15219 0
M  V30 16596 H 1644.16 -3.91983 2.55865 0
M  V30 16597 H 1644.33 -5.28407 3.75086 0
M  V30 16598 N 1637.73 -0.725468 -1.3991 0
M  V30 16599 C 1638.98 -0.266188 -1.99936 0
M  V30 16600 C 1639.3 1.15022 -1.58207 0
M  V30 16601 O 1640.5 1.70853 -2.11001 0
M  V30 16602 C 1638.96 -0.424978 -3.57382 0
M  V30 16603 C 1638.57 -1.84866 -4.08079 0
M  V30 16604 C 1640.31 -0.0269907 -4.24491 0
M  V30 16605 C 1638.22 -1.95751 -5.58064 0
M  V30 16606 H 1637.15 -0.0957688 -0.747893 0
M  V30 16607 H 1639.8 -0.89798 -1.60027 0
M  V30 16608 H 1638.18 0.275558 -3.9504 0
M  V30 16609 H 1639.35 -2.58037 -3.81776 0
M  V30 16610 H 1637.67 -2.199 -3.536 0
M  V30 16611 H 1640.27 -0.0874638 -5.34628 0
M  V30 16612 H 1640.61 1.01639 -4.03702 0
M  V30 16613 H 1641.14 -0.678332 -3.91974 0
M  V30 16614 H 1637.88 -2.98244 -5.83721 0
M  V30 16615 H 1637.4 -1.27004 -5.862 0
M  V30 16616 H 1639.08 -1.73422 -6.23325 0
M  V30 16617 N 1639.21 1.50354 -0.472382 0
M  V30 16618 C 1640.14 2.26396 0.357429 0
M  V30 16619 C 1641.16 1.31778 0.955949 0
M  V30 16620 O 1642.35 1.57279 0.844136 0
M  V30 16621 C 1639.45 3.03131 1.51542 0
M  V30 16622 C 1638.62 4.25113 1.02945 0
M  V30 16623 C 1637.68 4.84131 2.06164 0
M  V30 16624 O 1636.7 5.4501 1.64174 0
M  V30 16625 N 1637.91 4.71244 3.38983 0
M  V30 16626 H 1640.67 2.9825 -0.294473 0
M  V30 16627 H 1638.23 1.59035 -0.303242 0
M  V30 16628 H 1640.22 3.39492 2.20289 0
M  V30 16629 H 1638.79 2.34067 2.07199 0
M  V30 16630 H 1638.01 3.93843 0.167821 0
M  V30 16631 H 1639.3 5.04199 0.682705 0
M  V30 16632 H 1638.7 4.22831 3.75807 0
M  V30 16633 H 1637.26 5.11871 4.03524 0
M  V30 16634 N 1640.69 0.205039 1.56261 0
M  V30 16635 C 1641.93 -0.433144 1.99758 0
M  V30 16636 C 1642.3 -1.58109 1.08929 0
M  V30 16637 O 1643.5 -2.28415 1.41703 0
M  V30 16638 C 1641.77 -0.872197 3.46594 0
M  V30 16639 S 1643.33 -1.50682 4.12117 0
M  V30 16640 H 1640.14 -0.138137 0.697452 0
M  V30 16641 H 1642.75 0.310446 1.93019 0
M  V30 16642 H 1641.45 -0.0267951 4.10391 0
M  V30 16643 H 1640.98 -1.64901 3.57171 0
M  V30 16644 H 1643 -2.79573 4.09943 0
M  V30 16645 N 1642.17 -1.57451 -0.0684915 0
M  V30 16646 C 1643.13 -2.0293 -1.06545 0
M  V30 16647 C 1644.13 -0.926861 -1.314 0
M  V30 16648 O 1645.32 -1.19164 -1.27065 0
M  V30 16649 C 1642.45 -2.41276 -2.4083 0
M  V30 16650 H 1643.65 -2.92242 -0.673401 0
M  V30 16651 H 1641.2 -1.53107 -0.314307 0
M  V30 16652 H 1641.94 -1.55 -2.8486 0
M  V30 16653 H 1641.72 -3.21727 -2.2413 0
M  V30 16654 H 1643.21 -2.77026 -3.12484 0
M  V30 16655 N 1643.65 0.339955 -1.5389 0
M  V30 16656 C 1644.9 1.07723 -1.70524 0
M  V30 16657 C 1645.21 1.89693 -0.477058 0
M  V30 16658 O 1646.42 2.66387 -0.524424 0
M  V30 16659 C 1644.87 1.96455 -3.01551 0
M  V30 16660 C 1644.48 1.19675 -4.3172 0
M  V30 16661 C 1646.22 2.70019 -3.27552 0
M  V30 16662 C 1644.13 2.07458 -5.53819 0
M  V30 16663 H 1643.06 0.405877 -0.635437 0
M  V30 16664 H 1645.71 0.336489 -1.80388 0
M  V30 16665 H 1644.09 2.74364 -2.85553 0
M  V30 16666 H 1645.27 0.466526 -4.58432 0
M  V30 16667 H 1643.58 0.578651 -4.1236 0
M  V30 16668 H 1646.18 3.35973 -4.15964 0
M  V30 16669 H 1646.52 3.36779 -2.44716 0
M  V30 16670 H 1647.06 1.99182 -3.44342 0
M  V30 16671 H 1643.79 1.45234 -6.39208 0
M  V30 16672 H 1643.31 2.7826 -5.31349 0
M  V30 16673 H 1644.99 2.66428 -5.89598 0
M  V30 16674 N 1645.13 1.45684 0.601159 0
M  V30 16675 C 1646.07 1.54846 1.71147 0
M  V30 16676 C 1647.04 0.393914 1.61361 0
M  V30 16677 O 1648.23 0.608222 1.80846 0
M  V30 16678 C 1645.37 1.52723 3.09467 0
M  V30 16679 C 1644.48 2.78776 3.30012 0
M  V30 16680 C 1643.62 2.68281 4.58474 0
M  V30 16681 C 1642.65 3.89358 4.72299 0
M  V30 16682 N 1641.79 3.77359 5.92068 0
M  V30 16683 H 1646.63 2.49696 1.62653 0
M  V30 16684 H 1644.17 1.23894 0.793006 0
M  V30 16685 H 1646.13 1.49479 3.89502 0
M  V30 16686 H 1644.76 0.614189 3.16903 0
M  V30 16687 H 1643.81 2.9208 2.43708 0
M  V30 16688 H 1645.12 3.68563 3.36099 0
M  V30 16689 H 1644.27 2.63039 5.46713 0
M  V30 16690 H 1643.01 1.76103 4.54795 0
M  V30 16691 H 1642.02 3.94952 3.82482 0
M  V30 16692 H 1643.24 4.82609 4.77771 0
M  V30 16693 H 1641.19 2.87955 5.89422 0
M  V30 16694 H 1641.11 4.60786 5.99343 0
M  V30 16695 H 1642.37 3.76061 6.82787 0
M  V30 16696 N 1646.6 -0.84422 1.33082 0
M  V30 16697 C 1647.83 -1.63654 1.27405 0
M  V30 16698 C 1648.25 -1.87476 -0.153146 0
M  V30 16699 O 1647.61 -1.43502 -1.10801 0
M  V30 16700 C 1647.66 -2.96698 2.04945 0
M  V30 16701 O 1646.76 -3.87751 1.40439 0
M  V30 16702 H 1646.1 -0.498545 0.438576 0
M  V30 16703 H 1648.63 -1.0507 1.7556 0
M  V30 16704 H 1648.64 -3.46438 2.1551 0
M  V30 16705 H 1647.32 -2.78682 3.08722 0
M  V30 16706 H 1645.9 -3.46231 1.38487 0
M  V30 16707 N 1648.08 -1.16463 -1.0618 0
M  V30 16708 C 1649.01 -0.895399 -2.1565 0
M  V30 16709 C 1649.99 0.158729 -1.69358 0
M  V30 16710 O 1651.18 0.010586 -1.94197 0
M  V30 16711 C 1648.31 -0.396959 -3.45024 0
M  V30 16712 C 1647.26 -1.38913 -4.0483 0
M  V30 16713 C 1646.59 -0.749043 -5.29427 0
M  V30 16714 C 1647.89 -2.7591 -4.43476 0
M  V30 16715 H 1649.58 -1.81085 -2.38429 0
M  V30 16716 H 1647.13 -0.872098 -1.14588 0
M  V30 16717 H 1649.08 -0.196086 -4.20944 0
M  V30 16718 H 1647.8 0.554002 -3.21867 0
M  V30 16719 H 1646.46 -1.57657 -3.30968 0
M  V30 16720 H 1646.11 0.208439 -5.02568 0
M  V30 16721 H 1645.81 -1.41128 -5.704 0
M  V30 16722 H 1647.34 -0.558217 -6.08043 0
M  V30 16723 H 1648.75 -2.60942 -5.10473 0
M  V30 16724 H 1647.15 -3.38618 -4.95437 0
M  V30 16725 H 1648.22 -3.31076 -3.54284 0
M  V30 16726 N 1649.56 1.24734 -0.963288 0
M  V30 16727 C 1650.78 1.97285 -0.639808 0
M  V30 16728 C 1651.21 1.71024 0.783099 0
M  V30 16729 O 1650.57 0.971324 1.53085 0
M  V30 16730 C 1650.62 3.48793 -0.915197 0
M  V30 16731 O 1649.72 4.124 0.00162805 0
M  V30 16732 H 1649.06 0.618196 -0.242343 0
M  V30 16733 H 1651.59 1.58627 -1.29224 0
M  V30 16734 H 1651.6 3.99155 -0.84495 0
M  V30 16735 H 1650.28 3.67235 -1.95221 0
M  V30 16736 H 1648.85 3.72702 -0.121563 0
M  V30 16737 N 1651.04 0.732878 1.39523 0
M  V30 16738 C 1652.45 0.408236 1.54291 0
M  V30 16739 C 1652.65 -1.08114 1.7004 0
M  V30 16740 O 1651.71 -1.86726 1.6997 0
M  V30 16741 C 1653.02 1.1894 2.76177 0
M  V30 16742 C 1654.57 1.17742 2.9001 0
M  V30 16743 C 1655.05 1.94111 4.14831 0
M  V30 16744 N 1656.54 1.91266 4.21867 0
M  V30 16745 C 1657.27 2.47167 5.17394 0
M  V30 16746 N 1656.77 3.11696 6.18723 0
M  V30 16747 N 1658.56 2.37212 5.09595 0
M  V30 16748 H 1650.71 1.69839 1.27548 0
M  V30 16749 H 1652.97 0.718844 0.618035 0
M  V30 16750 H 1652.68 2.24321 2.70875 0
M  V30 16751 H 1652.55 0.792439 3.68782 0
M  V30 16752 H 1654.94 0.131752 2.94806 0
M  V30 16753 H 1655.02 1.61374 1.98474 0
M  V30 16754 H 1654.67 2.98677 4.10797 0
M  V30 16755 H 1654.6 1.47886 5.05408 0
M  V30 16756 H 1657.09 1.44254 3.49284 0
M  V30 16757 H 1657.4 3.51823 6.8807 0
M  V30 16758 H 1655.75 3.15785 6.19116 0
M  V30 16759 H 1658.94 1.86444 4.29367 0
M  V30 16760 H 1659.11 2.81076 5.83866 0
M  V30 16761 N 1652.52 -1.50101 0.480349 0
M  V30 16762 C 1653.76 -2.01567 -0.073165 0
M  V30 16763 C 1654.08 -1.36657 -1.39944 0
M  V30 16764 O 1655.28 -1.79332 -2.03844 0
M  V30 16765 C 1653.74 -3.59445 -0.180889 0
M  V30 16766 C 1653.35 -4.33318 1.1375 0
M  V30 16767 C 1655.09 -4.18923 -0.685868 0
M  V30 16768 C 1653 -5.83003 0.99307 0
M  V30 16769 H 1651.93 -0.753358 -0.0311179 0
M  V30 16770 H 1654.58 -1.72829 0.616648 0
M  V30 16771 H 1652.96 -3.84811 -0.934693 0
M  V30 16772 H 1654.14 -4.1967 1.90299 0
M  V30 16773 H 1652.45 -3.85492 1.57431 0
M  V30 16774 H 1655.05 -5.28512 -0.811109 0
M  V30 16775 H 1655.39 -3.80916 -1.67955 0
M  V30 16776 H 1655.92 -3.97799 0.0108117 0
M  V30 16777 H 1652.66 -6.25499 1.9604 0
M  V30 16778 H 1652.18 -5.992 0.268128 0
M  V30 16779 H 1653.86 -6.4359 0.663417 0
M  V30 16780 N 1653.99 -0.213323 -1.5615 0
M  V30 16781 C 1655.22 0.425688 -2.02473 0
M  V30 16782 C 1655.64 1.53926 -1.09326 0
M  V30 16783 O 1654.99 1.82218 -0.101364 0
M  V30 16784 C 1655.04 0.965021 -3.48381 0
M  V30 16785 O 1654.77 -0.104145 -4.37976 0
M  V30 16786 C 1656.27 1.6781 -4.10311 0
M  V30 16787 H 1653.49 0.105064 -0.662724 0
M  V30 16788 H 1656.03 -0.327369 -2.01863 0
M  V30 16789 H 1654.19 1.66838 -3.49634 0
M  V30 16790 H 1654.6 0.299985 -5.23641 0
M  V30 16791 H 1656.07 2.00757 -5.14199 0
M  V30 16792 H 1656.55 2.58833 -3.54827 0
M  V30 16793 H 1657.16 1.02014 -4.12884 0
M  V30 16794 N 1655.47 1.57485 0.0601405 0
M  V30 16795 C 1656.38 2.07853 1.08785 0
M  V30 16796 C 1657.4 1.01047 1.41653 0
M  V30 16797 O 1658.57 1.32592 1.51596 0
M  V30 16798 C 1655.64 2.52214 2.37885 0
M  V30 16799 C 1654.7 3.73369 2.11882 0
M  V30 16800 C 1653.93 4.15604 3.34827 0
M  V30 16801 O 1654.16 3.5761 4.44377 0
M  V30 16802 O 1653.09 5.08303 3.22353 0
M  V30 16803 H 1656.92 2.9576 0.689912 0
M  V30 16804 H 1654.5 1.46846 0.275065 0
M  V30 16805 H 1656.38 2.81216 3.1384 0
M  V30 16806 H 1655.06 1.67432 2.77035 0
M  V30 16807 H 1653.97 3.49433 1.33594 0
M  V30 16808 H 1655.3 4.59039 1.77606 0
M  V30 16809 N 1656.95 -0.331789 1.54068 0
M  V30 16810 C 1657.88 -1.43156 1.77713 0
M  V30 16811 C 1658.86 -1.50036 0.626723 0
M  V30 16812 O 1660.05 -1.67573 0.863228 0
M  V30 16813 C 1657.17 -2.81311 1.88632 0
M  V30 16814 C 1656.22 -2.92 3.10867 0
M  V30 16815 S 1657.05 -2.57255 4.69659 0
M  V30 16816 C 1658.21 -3.97497 4.83474 0
M  V30 16817 H 1658.44 -1.22884 2.70715 0
M  V30 16818 H 1655.97 -0.528148 1.45086 0
M  V30 16819 H 1657.93 -3.60898 1.95608 0
M  V30 16820 H 1656.59 -2.9887 0.966212 0
M  V30 16821 H 1655.79 -3.93261 3.15217 0
M  V30 16822 H 1655.39 -2.20374 3.02177 0
M  V30 16823 H 1657.68 -4.92156 4.65605 0
M  V30 16824 H 1658.62 -3.98135 5.85572 0
M  V30 16825 H 1659.03 -3.86069 4.11838 0
M  V30 16826 N 1658.43 -1.46001 -0.593424 0
M  V30 16827 C 1659.36 -1.51774 -1.71748 0
M  V30 16828 C 1660.37 -0.407093 -1.57628 0
M  V30 16829 O 1661.56 -0.674903 -1.65249 0
M  V30 16830 C 1658.66 -1.3718 -3.09895 0
M  V30 16831 C 1657.84 -2.62173 -3.5012 0
M  V30 16832 C 1656.89 -2.41933 -4.67285 0
M  V30 16833 O 1655.92 -3.15611 -4.73686 0
M  V30 16834 N 1657.12 -1.47405 -5.61473 0
M  V30 16835 H 1659.89 -2.48689 -1.67253 0
M  V30 16836 H 1657.45 -1.41921 -0.779111 0
M  V30 16837 H 1659.44 -1.21428 -3.86054 0
M  V30 16838 H 1658.01 -0.484876 -3.08817 0
M  V30 16839 H 1657.23 -2.92943 -2.63777 0
M  V30 16840 H 1658.52 -3.45229 -3.73758 0
M  V30 16841 H 1657.92 -0.866282 -5.59028 0
M  V30 16842 H 1656.47 -1.3762 -6.37106 0
M  V30 16843 N 1659.91 0.83715 -1.33527 0
M  V30 16844 C 1660.84 1.95423 -1.1976 0
M  V30 16845 C 1661.85 1.62295 -0.128147 0
M  V30 16846 O 1663.04 1.74436 -0.378725 0
M  V30 16847 C 1660.14 3.2896 -0.814775 0
M  V30 16848 C 1659.31 3.9021 -1.97623 0
M  V30 16849 C 1658.37 5.02104 -1.5741 0
M  V30 16850 O 1657.4 5.2116 -2.28868 0
M  V30 16851 N 1658.6 5.78511 -0.480081 0
M  V30 16852 H 1661.37 2.0777 -2.15991 0
M  V30 16853 H 1658.93 1.01297 -1.26295 0
M  V30 16854 H 1660.92 4.01243 -0.527823 0
M  V30 16855 H 1659.49 3.12548 0.0569031 0
M  V30 16856 H 1658.71 3.10495 -2.42871 0
M  V30 16857 H 1660 4.27865 -2.75334 0
M  V30 16858 H 1659.39 5.65585 0.114287 0
M  V30 16859 H 1657.95 6.5131 -0.252808 0
M  V30 16860 N 1661.38 1.17024 1.05561 0
M  V30 16861 C 1662.63 0.957742 1.7876 0
M  V30 16862 C 1662.96 -0.512652 1.87311 0
M  V30 16863 O 1662.24 -1.38047 1.37016 0
M  V30 16864 C 1662.52 1.59495 3.22852 0
M  V30 16865 C 1662.37 3.13719 3.22336 0
M  V30 16866 C 1663.69 1.29576 4.20593 0
M  V30 16867 H 1660.81 0.349354 0.648938 0
M  V30 16868 H 1663.45 1.44467 1.23408 0
M  V30 16869 H 1661.6 1.18091 3.70117 0
M  V30 16870 H 1663.28 3.64156 2.83175 0
M  V30 16871 H 1661.52 3.46664 2.60781 0
M  V30 16872 H 1662.19 3.5343 4.24018 0
M  V30 16873 H 1664.67 1.65423 3.81804 0
M  V30 16874 H 1663.54 1.76751 5.19663 0
M  V30 16875 H 1663.8 0.21589 4.41573 0
M  V30 16876 N 1662.86 -1.24221 0.969889 0
M  V30 16877 C 1663.77 -2.29001 0.509467 0
M  V30 16878 C 1664.79 -1.68587 -0.430637 0
M  V30 16879 O 1665.96 -1.99106 -0.303142 0
M  V30 16880 C 1663.03 -3.46174 -0.190906 0
M  V30 16881 C 1662.09 -4.21982 0.789296 0
M  V30 16882 C 1661.32 -5.3356 0.122252 0
M  V30 16883 O 1661.55 -5.59909 -1.08896 0
M  V30 16884 O 1660.48 -5.9635 0.815517 0
M  V30 16885 H 1664.31 -2.70506 1.38058 0
M  V30 16886 H 1661.89 -1.29955 0.737028 0
M  V30 16887 H 1663.77 -4.1733 -0.584244 0
M  V30 16888 H 1662.45 -3.06642 -1.03695 0
M  V30 16889 H 1661.36 -3.53192 1.23313 0
M  V30 16890 H 1662.69 -4.65337 1.60382 0
M  V30 16891 N 1664.34 -0.740267 -1.39132 0
M  V30 16892 C 1665.3 -0.112183 -2.28925 0
M  V30 16893 C 1666.3 0.661598 -1.46559 0
M  V30 16894 O 1667.49 0.489835 -1.67171 0
M  V30 16895 C 1664.63 0.850121 -3.3013 0
M  V30 16896 H 1665.82 -0.903339 -2.85972 0
M  V30 16897 H 1663.37 -0.506427 -1.47868 0
M  V30 16898 H 1664.11 1.66744 -2.78149 0
M  V30 16899 H 1663.89 0.297847 -3.90967 0
M  V30 16900 H 1665.38 1.28599 -3.97306 0
M  V30 16901 N 1665.82 1.49844 -0.488302 0
M  V30 16902 C 1667.07 2.02409 0.0606981 0
M  V30 16903 C 1667.39 1.36901 1.38161 0
M  V30 16904 O 1666.65 0.48951 1.89479 0
M  V30 16905 C 1666.95 3.56342 0.274851 0
M  V30 16906 C 1666.61 4.4042 -0.966481 0
M  V30 16907 C 1665.28 4.63116 -1.30678 0
M  V30 16908 C 1667.63 4.89418 -1.79218 0
M  V30 16909 C 1664.96 5.32055 -2.47253 0
M  V30 16910 C 1667.31 5.59639 -2.94935 0
M  V30 16911 C 1665.97 5.80584 -3.2936 0
M  V30 16912 H 1665.24 0.740667 0.022211 0
M  V30 16913 H 1667.89 1.80279 -0.645882 0
M  V30 16914 H 1666.19 3.7708 1.06384 0
M  V30 16915 H 1667.89 3.94594 0.71388 0
M  V30 16916 H 1664.48 4.22987 -0.691388 0
M  V30 16917 H 1668.66 4.71723 -1.54244 0
M  V30 16918 H 1663.92 5.46477 -2.74177 0
M  V30 16919 H 1668.09 5.96583 -3.59251 0
M  V30 16920 H 1665.72 6.33779 -4.19795 0
M  V30 16921 N 1667.3 0.221601 1.56034 0
M  V30 16922 C 1668.23 -0.683171 2.23282 0
M  V30 16923 C 1669.21 -1.20101 1.20456 0
M  V30 16924 O 1670.39 -1.245 1.49041 0
M  V30 16925 C 1667.52 -1.89143 2.91277 0
M  V30 16926 C 1666.48 -1.50742 4.00576 0
M  V30 16927 C 1665.8 -2.79446 4.55867 0
M  V30 16928 C 1667.1 -0.697388 5.17623 0
M  V30 16929 H 1668.8 -0.122488 2.99149 0
M  V30 16930 H 1666.34 -0.0574732 1.43885 0
M  V30 16931 H 1668.3 -2.52982 3.37013 0
M  V30 16932 H 1667.02 -2.47708 2.12858 0
M  V30 16933 H 1665.68 -0.892492 3.5557 0
M  V30 16934 H 1665.33 -3.36155 3.74177 0
M  V30 16935 H 1665.03 -2.54486 5.29633 0
M  V30 16936 H 1666.55 -3.44228 5.04321 0
M  V30 16937 H 1667.96 -1.23948 5.59741 0
M  V30 16938 H 1666.36 -0.544875 5.97621 0
M  V30 16939 H 1667.43 0.295981 4.83996 0
M  V30 16940 N 1668.77 -1.57515 -0.0517878 0
M  V30 16941 C 1670.19 -1.54323 -0.407009 0
M  V30 16942 C 1670.39 -0.944629 -1.77986 0
M  V30 16943 O 1669.45 -0.555785 -2.46307 0
M  V30 16944 C 1670.76 -2.98887 -0.329703 0
M  V30 16945 C 1672.31 -3.10324 -0.408443 0
M  V30 16946 C 1672.78 -4.56576 -0.360833 0
M  V30 16947 N 1674.27 -4.61289 -0.420313 0
M  V30 16948 C 1675.01 -5.71961 -0.406007 0
M  V30 16949 N 1674.5 -6.91939 -0.34533 0
M  V30 16950 N 1676.3 -5.60263 -0.454054 0
M  V30 16951 H 1668.45 -1.94785 0.846907 0
M  V30 16952 H 1670.71 -0.892417 0.319838 0
M  V30 16953 H 1670.42 -3.4632 0.612802 0
M  V30 16954 H 1670.29 -3.59806 -1.13222 0
M  V30 16955 H 1672.68 -2.62852 -1.34138 0
M  V30 16956 H 1672.76 -2.52278 0.423018 0
M  V30 16957 H 1672.4 -5.0471 0.568335 0
M  V30 16958 H 1672.33 -5.12508 -1.2101 0
M  V30 16959 H 1674.82 -3.74958 -0.470644 0
M  V30 16960 H 1675.14 -7.72057 -0.338889 0
M  V30 16961 H 1673.48 -6.94301 -0.311715 0
M  V30 16962 H 1676.67 -4.6543 -0.499289 0
M  V30 16963 H 1676.85 -6.46508 -0.439435 0
M  V30 16964 N 1670.25 0.323614 -1.54242 0
M  V30 16965 C 1671.16 1.42128 -1.86646 0
M  V30 16966 C 1672.18 1.56603 -0.758385 0
M  V30 16967 O 1673.36 1.717 -1.05267 0
M  V30 16968 C 1670.42 2.76842 -2.08709 0
M  V30 16969 C 1669.48 2.71543 -3.3251 0
M  V30 16970 C 1668.71 3.99833 -3.5351 0
M  V30 16971 O 1668.94 4.98095 -2.77952 0
M  V30 16972 O 1667.87 4.03095 -4.46988 0
M  V30 16973 H 1671.7 1.17653 -2.79985 0
M  V30 16974 H 1669.28 0.517632 -1.40146 0
M  V30 16975 H 1671.16 3.56588 -2.24551 0
M  V30 16976 H 1669.84 3.01207 -1.18558 0
M  V30 16977 H 1668.75 1.90348 -3.22053 0
M  V30 16978 H 1670.08 2.52133 -4.22717 0
M  V30 16979 N 1671.73 1.46313 0.585673 0
M  V30 16980 C 1672.98 1.51171 1.34134 0
M  V30 16981 C 1673.3 0.163691 1.94312 0
M  V30 16982 O 1672.57 -0.809444 1.78395 0
M  V30 16983 H 1671.15 0.556768 0.498014 0
M  V30 16984 H 1673.81 1.82423 0.686133 0
M  V30 16985 H 1672.91 2.26274 2.14957 0
M  V30 16986 N 1673.21 -0.830057 1.33969 0
M  V30 16987 C 1674.14 -1.95557 1.27592 0
M  V30 16988 C 1675.12 -1.69395 0.154745 0
M  V30 16989 O 1676.31 -1.91094 0.345954 0
M  V30 16990 C 1673.44 -3.31881 1.02335 0
M  V30 16991 C 1672.39 -3.72464 2.10842 0
M  V30 16992 C 1671.72 -5.06692 1.70785 0
M  V30 16993 C 1673.02 -3.85315 3.52604 0
M  V30 16994 H 1674.71 -2.0115 2.21763 0
M  V30 16995 H 1672.26 -0.96639 1.06756 0
M  V30 16996 H 1674.21 -4.10197 0.965206 0
M  V30 16997 H 1672.93 -3.26568 0.0460462 0
M  V30 16998 H 1671.59 -2.96417 2.15714 0
M  V30 16999 H 1671.24 -4.97859 0.717334 0
M  V30 17000 H 1670.94 -5.34817 2.43403 0
M  V30 17001 H 1672.46 -5.87474 1.66452 0
M  V30 17002 H 1673.88 -4.5392 3.50185 0
M  V30 17003 H 1672.27 -4.24886 4.23783 0
M  V30 17004 H 1673.34 -2.87514 3.90466 0
M  V30 17005 N 1674.69 -1.17582 -1.04939 0
M  V30 17006 C 1675.62 -0.918221 -2.14688 0
M  V30 17007 C 1676.6 0.140757 -1.69517 0
M  V30 17008 O 1677.78 -0.0100118 -1.94197 0
M  V30 17009 C 1674.91 -0.433531 -3.44584 0
M  V30 17010 C 1673.87 -1.43199 -4.03334 0
M  V30 17011 C 1673.19 -0.805154 -5.28603 0
M  V30 17012 C 1674.49 -2.80598 -4.40525 0
M  V30 17013 H 1676.19 -1.83604 -2.36495 0
M  V30 17014 H 1673.73 -0.884202 -1.13657 0
M  V30 17015 H 1675.69 -0.240722 -4.20712 0
M  V30 17016 H 1674.41 0.519832 -3.22437 0
M  V30 17017 H 1673.07 -1.61158 -3.29277 0
M  V30 17018 H 1672.72 0.155124 -5.02761 0
M  V30 17019 H 1672.42 -1.4717 -5.68871 0
M  V30 17020 H 1673.94 -0.622677 -6.07417 0
M  V30 17021 H 1675.36 -2.66341 -5.07676 0
M  V30 17022 H 1673.75 -3.43854 -4.91817 0
M  V30 17023 H 1674.82 -3.34815 -3.50752 0
M  V30 17024 N 1676.17 1.23705 -0.976463 0
M  V30 17025 C 1677.1 2.2355 -0.458309 0
M  V30 17026 C 1678.08 1.55586 0.472414 0
M  V30 17027 O 1679.26 1.84169 0.40177 0
M  V30 17028 C 1676.39 3.37015 0.337422 0
M  V30 17029 C 1675.43 4.23108 -0.536865 0
M  V30 17030 S 1676.27 4.97456 -1.98236 0
M  V30 17031 C 1677.42 6.14374 -1.19566 0
M  V30 17032 H 1677.66 2.67156 -1.30442 0
M  V30 17033 H 1675.19 1.33123 -0.782157 0
M  V30 17034 H 1677.15 4.02816 0.790531 0
M  V30 17035 H 1675.81 2.91951 1.15861 0
M  V30 17036 H 1675 5.03945 0.07453 0
M  V30 17037 H 1674.6 3.62354 -0.926058 0
M  V30 17038 H 1676.89 6.7597 -0.455017 0
M  V30 17039 H 1677.84 6.79891 -1.97872 0
M  V30 17040 H 1678.25 5.59939 -0.716175 0
M  V30 17041 N 1677.64 0.747635 1.38738 0
M  V30 17042 C 1679.06 0.424577 1.53849 0
M  V30 17043 C 1679.26 -1.06304 1.71177 0
M  V30 17044 O 1678.32 -1.84912 1.71941 0
M  V30 17045 C 1679.63 1.21863 2.749 0
M  V30 17046 C 1681.18 1.20811 2.88745 0
M  V30 17047 C 1681.65 1.985 4.12749 0
M  V30 17048 N 1683.14 1.9573 4.19814 0
M  V30 17049 C 1683.88 2.52641 5.14743 0
M  V30 17050 N 1683.37 3.18241 6.15382 0
M  V30 17051 N 1685.17 2.42604 5.0705 0
M  V30 17052 H 1677.32 1.71182 1.25739 0
M  V30 17053 H 1679.58 0.725358 0.610376 0
M  V30 17054 H 1679.29 2.27181 2.6848 0
M  V30 17055 H 1679.16 0.831509 3.67921 0
M  V30 17056 H 1681.55 0.163013 2.94649 0
M  V30 17057 H 1681.63 1.6347 1.96752 0
M  V30 17058 H 1681.27 3.03017 4.07606 0
M  V30 17059 H 1681.2 1.53239 5.03811 0
M  V30 17060 H 1683.69 1.4795 3.47734 0
M  V30 17061 H 1684.01 3.59101 6.843 0
M  V30 17062 H 1682.35 3.22334 6.15732 0
M  V30 17063 H 1685.54 1.90987 4.27366 0
M  V30 17064 H 1685.72 2.87253 5.80852 0
M  V30 17065 N 1679.12 -1.49583 0.496242 0
M  V30 17066 C 1680.37 -2.02038 -0.0498643 0
M  V30 17067 C 1680.69 -1.37848 -1.37924 0
M  V30 17068 O 1679.96 -0.532188 -1.88533 0
M  V30 17069 H 1678.54 -0.746693 -0.0214177 0
M  V30 17070 H 1681.2 -1.83657 0.652399 0
M  V30 17071 H 1680.3 -3.11563 -0.183021 0
M  V30 17072 N 1680.6 -0.229873 -1.55915 0
M  V30 17073 C 1681.53 0.671321 -2.23642 0
M  V30 17074 C 1682.51 1.19461 -1.21091 0
M  V30 17075 O 1683.7 1.23708 -1.49699 0
M  V30 17076 C 1680.83 1.87595 -2.92276 0
M  V30 17077 C 1679.78 1.48616 -4.01369 0
M  V30 17078 C 1679.11 2.77024 -4.57342 0
M  V30 17079 C 1680.41 0.669928 -5.17986 0
M  V30 17080 H 1682.1 0.106622 -2.9921 0
M  V30 17081 H 1679.65 0.0498418 -1.43914 0
M  V30 17082 H 1681.6 2.51191 -3.3835 0
M  V30 17083 H 1680.32 2.46576 -2.14168 0
M  V30 17084 H 1678.98 0.873623 -3.56038 0
M  V30 17085 H 1678.63 3.34166 -3.75955 0
M  V30 17086 H 1678.33 2.51674 -5.30975 0
M  V30 17087 H 1679.85 3.41548 -5.0614 0
M  V30 17088 H 1681.27 1.20978 -5.6039 0
M  V30 17089 H 1679.66 0.513174 -5.97902 0
M  V30 17090 H 1680.73 -0.321644 -4.83832 0
M  V30 17091 N 1682.08 1.5754 0.0434337 0
M  V30 17092 C 1683.03 2.06683 1.067 0
M  V30 17093 C 1684.02 0.977691 1.38339 0
M  V30 17094 O 1685.23 1.16266 1.37412 0
M  V30 17095 H 1681.6 0.659378 0.361559 0
M  V30 17096 H 1683.57 2.91747 0.626605 0
M  V30 17097 C 1682.32 2.54985 2.36385 0
M  V30 17098 H 1681.64 3.384 2.12897 0
M  V30 17099 H 1683.08 2.93095 3.06384 0
M  V30 17100 C 1681.54 1.44484 3.04345 0
M  V30 17101 O 1682.07 0.80291 3.93594 0
M  V30 17102 N 1680.28 1.18292 2.65434 0
M  V30 17103 H 1679.83 1.70676 1.92944 0
M  V30 17104 H 1679.78 0.445676 3.11225 0
M  V30 17105 N 1683.56 -0.31543 1.54411 0
M  V30 17106 C 1684.51 -1.3898 1.80745 0
M  V30 17107 C 1685.49 -1.46567 0.663849 0
M  V30 17108 O 1686.68 -1.50963 0.924084 0
M  V30 17109 C 1683.81 -2.7571 2.04546 0
M  V30 17110 C 1682.9 -2.72403 3.2505 0
M  V30 17111 N 1683.29 -2.38715 4.45925 0
M  V30 17112 C 1681.59 -3.03523 3.26787 0
M  V30 17113 C 1682.29 -2.44346 5.27892 0
M  V30 17114 N 1681.26 -2.81118 4.65268 0
M  V30 17115 H 1685.06 -1.11875 2.71774 0
M  V30 17116 H 1682.58 -0.523951 1.53716 0
M  V30 17117 H 1684.58 -3.53156 2.21554 0
M  V30 17118 H 1683.24 -3.03738 1.14775 0
M  V30 17119 H 1684.25 -2.11419 4.72782 0
M  V30 17120 H 1680.92 -3.3654 2.47076 0
M  V30 17121 H 1682.31 -2.21221 6.34437 0
M  V30 17122 N 1685.03 -1.46622 -0.577906 0
M  V30 17123 C 1686.45 -1.46287 -1.16004 0
M  V30 17124 C 1686.8 -0.206307 -1.95112 0
M  V30 17125 O 1685.92 0.690275 -2.05096 0
M  V30 17126 C 1686.52 -2.65042 -2.1104 0
M  V30 17127 C 1685.08 -2.67733 -2.64567 0
M  V30 17128 C 1684.22 -2.39053 -1.40531 0
M  V30 17129 H 1687.17 -1.54432 -0.365585 0
M  V30 17130 H 1687.19 -2.40834 -2.94583 0
M  V30 17131 H 1686.71 -3.56481 -1.53436 0
M  V30 17132 H 1684.81 -1.80379 -3.26028 0
M  V30 17133 H 1684.92 -3.67836 -3.06974 0
M  V30 17134 H 1683.28 -1.89209 -1.70506 0
M  V30 17135 H 1684.07 -3.32674 -0.847509 0
M  V30 17136 N 1686.51 0.822941 -1.34408 0
M  V30 17137 C 1687.46 1.95524 -1.25988 0
M  V30 17138 C 1688.45 1.68662 -0.157994 0
M  V30 17139 O 1689.66 1.77079 -0.322966 0
M  V30 17140 H 1686.04 0.642117 -0.391394 0
M  V30 17141 H 1688.01 1.99747 -2.21683 0
M  V30 17142 C 1686.76 3.32026 -1.03218 0
M  V30 17143 H 1686.08 3.53244 -1.87239 0
M  V30 17144 H 1687.52 4.11706 -1.01363 0
M  V30 17145 C 1685.98 3.3586 0.264523 0
M  V30 17146 O 1686.51 3.81232 1.26589 0
M  V30 17147 N 1684.71 2.89072 0.297626 0
M  V30 17148 H 1684.26 2.52341 -0.517836 0
M  V30 17149 H 1684.22 2.92019 1.165 0
M  V30 17150 N 1687.99 1.18137 1.04314 0
M  V30 17151 C 1689.24 0.976648 1.77734 0
M  V30 17152 C 1689.57 -0.492756 1.87844 0
M  V30 17153 O 1688.84 -1.36586 1.38472 0
M  V30 17154 C 1689.13 1.62911 3.21142 0
M  V30 17155 C 1688.98 3.1712 3.1899 0
M  V30 17156 C 1690.3 1.34029 4.19195 0
M  V30 17157 H 1687.42 0.356217 0.645197 0
M  V30 17158 H 1690.06 1.45767 1.21868 0
M  V30 17159 H 1688.21 1.22009 3.68844 0
M  V30 17160 H 1689.88 3.67139 2.79296 0
M  V30 17161 H 1688.13 3.4941 2.57089 0
M  V30 17162 H 1688.8 3.57907 4.20245 0
M  V30 17163 H 1691.27 1.69463 3.80028 0
M  V30 17164 H 1690.15 1.82253 5.1776 0
M  V30 17165 H 1690.41 0.262712 4.41319 0
M  V30 17166 N 1689.47 -1.23186 0.98301 0
M  V30 17167 C 1690.4 -2.27054 0.544858 0
M  V30 17168 C 1691.38 -1.64749 -0.423281 0
M  V30 17169 O 1692.56 -1.91611 -0.316075 0
M  V30 17170 C 1689.69 -3.46972 -0.150976 0
M  V30 17171 C 1688.65 -4.21647 0.734707 0
M  V30 17172 C 1687.97 -5.34618 -0.0934874 0
M  V30 17173 C 1689.27 -4.81372 2.02679 0
M  V30 17174 H 1690.97 -2.63957 1.41305 0
M  V30 17175 H 1688.51 -1.26885 0.680895 0
M  V30 17176 H 1690.47 -4.18784 -0.468825 0
M  V30 17177 H 1689.19 -3.09137 -1.05364 0
M  V30 17178 H 1687.85 -3.51655 1.03605 0
M  V30 17179 H 1687.5 -4.93025 -0.996768 0
M  V30 17180 H 1687.2 -5.85503 0.496019 0
M  V30 17181 H 1688.72 -6.09251 -0.405658 0
M  V30 17182 H 1690.14 -5.45178 1.77353 0
M  V30 17183 H 1688.53 -5.42554 2.56429 0
M  V30 17184 H 1689.6 -4.01972 2.71194 0
M  V30 17185 N 1690.95 -0.754982 -1.38339 0
M  V30 17186 C 1691.91 -0.136457 -2.28793 0
M  V30 17187 C 1692.91 0.646016 -1.47252 0
M  V30 17188 O 1694.1 0.472077 -1.67681 0
M  V30 17189 C 1691.23 0.815058 -3.31013 0
M  V30 17190 H 1692.42 -0.933619 -2.84997 0
M  V30 17191 H 1689.98 -0.522082 -1.47323 0
M  V30 17192 H 1690.71 1.63785 -2.79902 0
M  V30 17193 H 1690.5 0.256363 -3.91261 0
M  V30 17194 H 1691.99 1.24378 -3.98648 0
M  V30 17195 N 1692.42 1.49318 -0.504168 0
M  V30 17196 C 1693.35 2.32027 0.261837 0
M  V30 17197 C 1694.34 1.4045 0.959575 0
M  V30 17198 O 1695.52 1.69357 0.950365 0
M  V30 17199 C 1692.65 3.21039 1.3248 0
M  V30 17200 C 1691.6 4.21435 0.746752 0
M  V30 17201 C 1690.93 4.99405 1.91047 0
M  V30 17202 C 1692.23 5.21631 -0.264315 0
M  V30 17203 H 1693.92 2.96317 -0.428544 0
M  V30 17204 H 1691.47 1.42497 -0.207539 0
M  V30 17205 H 1693.42 3.77714 1.86843 0
M  V30 17206 H 1692.15 2.54699 2.04441 0
M  V30 17207 H 1690.81 3.6591 0.22485 0
M  V30 17208 H 1690.45 4.29509 2.61784 0
M  V30 17209 H 1690.15 5.67338 1.52975 0
M  V30 17210 H 1691.68 5.58924 2.45837 0
M  V30 17211 H 1693.09 5.72981 0.191288 0
M  V30 17212 H 1691.49 5.97472 -0.561039 0
M  V30 17213 H 1692.56 4.70346 -1.17911 0
M  V30 17214 N 1693.9 0.238138 1.5579 0
M  V30 17215 C 1695.15 -0.389474 1.97904 0
M  V30 17216 C 1695.46 -1.59707 1.1293 0
M  V30 17217 O 1696.67 -2.29526 1.45017 0
M  V30 17218 C 1695.13 -0.744319 3.52119 0
M  V30 17219 C 1694.73 0.441387 4.4582 0
M  V30 17220 C 1696.48 -1.33661 4.02908 0
M  V30 17221 C 1694.39 0.063184 5.91366 0
M  V30 17222 H 1693.32 -0.149291 0.739072 0
M  V30 17223 H 1695.97 0.336972 1.80379 0
M  V30 17224 H 1694.35 -1.52865 3.65306 0
M  V30 17225 H 1695.52 1.21881 4.44389 0
M  V30 17226 H 1693.84 0.948017 4.05465 0
M  V30 17227 H 1696.43 -1.63276 5.09161 0
M  V30 17228 H 1696.78 -2.2581 3.49737 0
M  V30 17229 H 1697.31 -0.615366 3.93012 0
M  V30 17230 H 1694.05 0.951584 6.48556 0
M  V30 17231 H 1693.57 -0.678216 5.95953 0
M  V30 17232 H 1695.25 -0.357712 6.4601 0
M  V30 17233 N 1695.38 -1.57561 -0.0350783 0
M  V30 17234 C 1696.63 -1.88623 -0.725659 0
M  V30 17235 C 1696.95 -0.835055 -1.76215 0
M  V30 17236 O 1696.22 0.13206 -1.95454 0
M  V30 17237 H 1694.8 -0.696108 -0.271004 0
M  V30 17238 H 1697.46 -1.949 -0.00245508 0
M  V30 17239 H 1696.56 -2.8731 -1.21899 0
M  V30 17240 N 1696.86 0.307236 -1.54576 0
M  V30 17241 C 1698.11 1.04082 -1.72771 0
M  V30 17242 C 1698.42 1.88639 -0.517188 0
M  V30 17243 O 1699.63 2.65215 -0.580811 0
M  V30 17244 C 1698.08 1.90015 -3.05651 0
M  V30 17245 C 1697.69 1.10491 -4.34161 0
M  V30 17246 C 1699.43 2.6301 -3.33205 0
M  V30 17247 C 1697.34 1.95664 -5.58094 0
M  V30 17248 H 1696.27 0.392307 -0.643903 0
M  V30 17249 H 1698.92 0.29815 -1.81062 0
M  V30 17250 H 1697.3 2.68245 -2.91309 0
M  V30 17251 H 1698.48 0.369181 -4.59319 0
M  V30 17252 H 1696.79 0.491053 -4.13494 0
M  V30 17253 H 1699.39 3.27074 -4.22997 0
M  V30 17254 H 1699.73 3.31512 -2.51804 0
M  V30 17255 H 1700.27 1.91833 -3.4849 0
M  V30 17256 H 1697.01 1.31643 -6.42145 0
M  V30 17257 H 1696.53 2.66927 -5.37131 0
M  V30 17258 H 1698.2 2.53861 -5.95116 0
M  V30 17259 N 1698.34 1.46926 0.570122 0
M  V30 17260 C 1699.27 1.52969 1.69339 0
M  V30 17261 C 1700.25 0.382791 1.5803 0
M  V30 17262 O 1701.43 0.58875 1.7907 0
M  V30 17263 C 1698.56 1.42009 3.07492 0
M  V30 17264 C 1697.6 2.61039 3.37285 0
M  V30 17265 S 1698.44 4.23321 3.27963 0
M  V30 17266 C 1699.59 4.14892 4.68631 0
M  V30 17267 H 1699.83 2.48003 1.63957 0
M  V30 17268 H 1697.36 1.34966 0.749898 0
M  V30 17269 H 1699.32 1.36374 3.87185 0
M  V30 17270 H 1697.98 0.48382 3.10351 0
M  V30 17271 H 1697.17 2.49399 4.37968 0
M  V30 17272 H 1696.77 2.6373 2.65184 0
M  V30 17273 H 1699.07 3.82349 5.59299 0
M  V30 17274 H 1700.01 5.15618 4.85329 0
M  V30 17275 H 1700.42 3.45948 4.46072 0
M  V30 17276 N 1699.82 -0.815801 1.34842 0
M  V30 17277 C 1700.75 -1.94193 1.29659 0
M  V30 17278 C 1701.73 -1.69221 0.172703 0
M  V30 17279 O 1702.91 -1.90716 0.366203 0
M  V30 17280 C 1700.04 -3.30777 1.0585 0
M  V30 17281 C 1699 -3.70207 2.1478 0
M  V30 17282 C 1698.32 -5.04852 1.76149 0
M  V30 17283 C 1699.62 -3.81553 3.56671 0
M  V30 17284 H 1701.32 -1.98787 2.23884 0
M  V30 17285 H 1698.86 -0.955013 1.07775 0
M  V30 17286 H 1700.81 -4.0915 1.00866 0
M  V30 17287 H 1699.54 -3.265 0.0806804 0
M  V30 17288 H 1698.2 -2.94113 2.18845 0
M  V30 17289 H 1697.85 -4.9707 0.770099 0
M  V30 17290 H 1697.55 -5.32205 2.49062 0
M  V30 17291 H 1699.07 -5.85676 1.72674 0
M  V30 17292 H 1700.48 -4.50181 3.54979 0
M  V30 17293 H 1698.88 -4.20367 4.28266 0
M  V30 17294 H 1699.95 -2.83356 3.93494 0
M  V30 17295 N 1701.29 -1.18689 -1.03686 0
M  V30 17296 C 1702.7 -0.988182 -1.58404 0
M  V30 17297 C 1703.06 0.461107 -1.90705 0
M  V30 17298 O 1702.18 1.33912 -1.6999 0
M  V30 17299 C 1702.78 -1.78748 -2.8781 0
M  V30 17300 C 1701.33 -1.63301 -3.39131 0
M  V30 17301 C 1700.48 -1.77954 -2.12668 0
M  V30 17302 H 1703.43 -1.33177 -0.863112 0
M  V30 17303 H 1703.45 -1.27882 -3.58366 0
M  V30 17304 H 1702.97 -2.84224 -2.6427 0
M  V30 17305 H 1701.07 -0.603777 -3.67676 0
M  V30 17306 H 1701.18 -2.43342 -4.127 0
M  V30 17307 H 1699.54 -1.20937 -2.24157 0
M  V30 17308 H 1700.33 -2.84873 -1.91579 0
M  V30 17309 N 1702.77 1.22662 -0.989529 0
M  V30 17310 C 1704.18 1.73116 -0.699124 0
M  V30 17311 C 1704.53 1.79847 0.784197 0
M  V30 17312 O 1703.66 1.44248 1.61311 0
M  V30 17313 C 1704.25 3.14403 -1.2624 0
M  V30 17314 C 1702.81 3.62275 -1.02144 0
M  V30 17315 C 1701.96 2.40257 -1.38463 0
M  V30 17316 H 1704.91 1.08057 -1.1623 0
M  V30 17317 H 1704.93 3.75091 -0.639307 0
M  V30 17318 H 1704.44 3.09472 -2.34198 0
M  V30 17319 H 1702.54 3.72577 0.0416622 0
M  V30 17320 H 1702.66 4.48587 -1.68245 0
M  V30 17321 H 1701.02 2.41705 -0.803179 0
M  V30 17322 H 1701.8 2.3799 -2.47418 0
M  V30 17323 N 1704.25 0.762308 1.37937 0
M  V30 17324 C 1705.16 0.142724 2.34165 0
M  V30 17325 C 1706.18 -0.690588 1.59709 0
M  V30 17326 O 1707.35 -0.61271 1.91854 0
M  V30 17327 C 1704.42 -0.733325 3.38856 0
M  V30 17328 C 1703.48 0.115359 4.29145 0
M  V30 17329 C 1702.71 -0.718972 5.28835 0
M  V30 17330 O 1702.93 -1.95656 5.35794 0
M  V30 17331 O 1701.87 -0.133162 6.01753 0
M  V30 17332 H 1705.69 0.937662 2.88863 0
M  V30 17333 H 1703.28 0.523325 1.39935 0
M  V30 17334 H 1705.16 -1.23374 4.02935 0
M  V30 17335 H 1703.84 -1.50661 2.86501 0
M  V30 17336 H 1702.74 0.661926 3.68197 0
M  V30 17337 H 1704.08 0.851505 4.84779 0
M  V30 17338 N 1705.73 -1.49049 0.51208 0
M  V30 17339 C 1706.98 -2.0208 -0.0284326 0
M  V30 17340 C 1707.3 -1.39303 -1.36454 0
M  V30 17341 O 1706.57 -0.552155 -1.87958 0
M  V30 17342 H 1705.15 -0.746878 -0.0134968 0
M  V30 17343 H 1707.81 -1.82954 0.671842 0
M  V30 17344 H 1706.9 -3.11739 -0.149966 0
M  V30 17345 N 1707.21 -0.246397 -1.55662 0
M  V30 17346 C 1708.14 0.647563 -2.24341 0
M  V30 17347 C 1709.12 1.1817 -1.22352 0
M  V30 17348 O 1710.3 1.22114 -1.51003 0
M  V30 17349 C 1707.43 1.84485 -2.94249 0
M  V30 17350 C 1706.39 1.4435 -4.02923 0
M  V30 17351 C 1705.71 2.72158 -4.60255 0
M  V30 17352 C 1707.01 0.614951 -5.18667 0
M  V30 17353 H 1708.71 0.0748803 -2.99306 0
M  V30 17354 H 1706.25 0.034575 -1.43958 0
M  V30 17355 H 1708.2 2.47588 -3.40995 0
M  V30 17356 H 1706.93 2.4429 -2.16772 0
M  V30 17357 H 1705.59 0.835811 -3.56945 0
M  V30 17358 H 1705.24 3.3016 -3.79478 0
M  V30 17359 H 1704.94 2.46028 -5.33614 0
M  V30 17360 H 1706.46 3.36161 -5.09734 0
M  V30 17361 H 1707.87 1.15028 -5.61642 0
M  V30 17362 H 1706.27 0.449729 -5.98412 0
M  V30 17363 H 1707.34 -0.372943 -4.83464 0
M  V30 17364 N 1708.68 1.57577 0.026722 0
M  V30 17365 C 1710.09 1.77689 0.573022 0
M  V30 17366 C 1710.45 0.877771 1.7547 0
M  V30 17367 O 1709.57 0.0732156 2.16276 0
M  V30 17368 C 1710.17 3.22239 1.0463 0
M  V30 17369 C 1708.72 3.4354 1.5381 0
M  V30 17370 C 1707.87 2.73163 0.47722 0
M  V30 17371 H 1710.82 1.57441 -0.199502 0
M  V30 17372 H 1710.84 3.28882 1.91355 0
M  V30 17373 H 1710.36 3.87654 0.186047 0
M  V30 17374 H 1708.46 2.83304 2.42012 0
M  V30 17375 H 1708.57 4.52158 1.58398 0
M  V30 17376 H 1706.93 2.37004 0.932793 0
M  V30 17377 H 1707.72 3.41261 -0.373605 0
M  V30 17378 N 1710.16 -0.299034 1.54737 0
M  V30 17379 C 1711.11 -1.37055 1.82208 0
M  V30 17380 C 1712.1 -1.45855 0.679357 0
M  V30 17381 O 1713.29 -1.49974 0.940044 0
M  V30 17382 C 1710.42 -2.73525 2.07459 0
M  V30 17383 C 1709.5 -2.6894 3.27921 0
M  V30 17384 N 1709.89 -2.33972 4.48432 0
M  V30 17385 C 1708.19 -3.0004 3.29988 0
M  V30 17386 C 1708.89 -2.38734 5.30454 0
M  V30 17387 N 1707.87 -2.76167 4.68223 0
M  V30 17388 H 1711.67 -1.08986 2.72945 0
M  V30 17389 H 1709.18 -0.507618 1.54263 0
M  V30 17390 H 1711.18 -3.50787 2.25287 0
M  V30 17391 H 1709.84 -3.02503 1.1799 0
M  V30 17392 H 1710.85 -2.06392 4.74998 0
M  V30 17393 H 1707.53 -3.33901 2.50632 0
M  V30 17394 H 1708.92 -2.1448 6.36748 0
M  V30 17395 N 1711.64 -1.47227 -0.562322 0
M  V30 17396 C 1712.89 -1.53816 -1.32168 0
M  V30 17397 C 1713.22 -0.197649 -1.93192 0
M  V30 17398 O 1712.49 0.793178 -1.77592 0
M  V30 17399 C 1712.78 -2.65231 -2.43566 0
M  V30 17400 C 1712.63 -4.08882 -1.87445 0
M  V30 17401 C 1713.95 -2.72589 -3.45519 0
M  V30 17402 H 1711.07 -0.559947 -0.479195 0
M  V30 17403 H 1713.71 -1.7926 -0.629762 0
M  V30 17404 H 1711.86 -2.43667 -3.02587 0
M  V30 17405 H 1713.53 -4.41794 -1.32725 0
M  V30 17406 H 1711.77 -4.17401 -1.18149 0
M  V30 17407 H 1712.45 -4.82603 -2.67952 0
M  V30 17408 H 1714.92 -2.92028 -2.9641 0
M  V30 17409 H 1713.8 -3.5233 -4.20898 0
M  V30 17410 H 1714.06 -1.79444 -4.04045 0
M  V30 17411 N 1713.12 0.808639 -1.35273 0
M  V30 17412 C 1714.05 1.93502 -1.30687 0
M  V30 17413 C 1715.03 1.69127 -0.181675 0
M  V30 17414 O 1716.21 1.90519 -0.376312 0
M  V30 17415 C 1713.34 3.30211 -1.07602 0
M  V30 17416 C 1712.3 3.69063 -2.16741 0
M  V30 17417 C 1711.62 5.03911 -1.78824 0
M  V30 17418 C 1712.92 3.79656 -3.5869 0
M  V30 17419 H 1714.62 1.97597 -2.24935 0
M  V30 17420 H 1712.16 0.949284 -1.0828 0
M  V30 17421 H 1714.12 4.0861 -1.03034 0
M  V30 17422 H 1712.84 3.26453 -0.0979944 0
M  V30 17423 H 1711.5 2.92948 -2.20402 0
M  V30 17424 H 1711.15 4.96655 -0.796449 0
M  V30 17425 H 1710.85 5.30877 -2.51881 0
M  V30 17426 H 1712.37 5.84752 -1.75777 0
M  V30 17427 H 1713.79 4.48292 -3.57362 0
M  V30 17428 H 1712.18 4.1809 -4.30489 0
M  V30 17429 H 1713.25 2.81265 -3.94991 0
M  V30 17430 N 1714.6 1.19237 1.03055 0
M  V30 17431 C 1715.53 0.95226 2.132 0
M  V30 17432 C 1716.51 -0.113771 1.69719 0
M  V30 17433 O 1717.69 0.0409057 1.94157 0
M  V30 17434 C 1714.82 0.488296 3.4385 0
M  V30 17435 C 1713.78 1.49597 4.01005 0
M  V30 17436 C 1713.1 0.889148 5.27255 0
M  V30 17437 C 1714.4 2.87571 4.36005 0
M  V30 17438 H 1716.1 1.87343 2.33544 0
M  V30 17439 H 1713.64 0.902172 1.12236 0
M  V30 17440 H 1715.6 0.307623 4.20276 0
M  V30 17441 H 1714.32 -0.468469 3.23223 0
M  V30 17442 H 1712.98 1.66376 3.26672 0
M  V30 17443 H 1712.63 -0.0751191 5.02944 0
M  V30 17444 H 1712.33 1.56202 5.66458 0
M  V30 17445 H 1713.85 0.719233 6.06349 0
M  V30 17446 H 1715.26 2.74384 5.03375 0
M  V30 17447 H 1713.66 3.51635 4.86285 0
M  V30 17448 H 1714.73 3.40353 3.45381 0
M  V30 17449 N 1716.07 -1.22136 0.99602 0
M  V30 17450 C 1717.49 -1.72743 0.708295 0
M  V30 17451 C 1717.84 -1.8026 -0.774649 0
M  V30 17452 O 1716.96 -1.45102 -1.60544 0
M  V30 17453 C 1717.56 -3.13729 1.27905 0
M  V30 17454 C 1716.12 -3.61729 1.04064 0
M  V30 17455 C 1715.26 -2.39519 1.39735 0
M  V30 17456 H 1718.21 -1.07439 1.16801 0
M  V30 17457 H 1718.23 -3.74746 0.65919 0
M  V30 17458 H 1717.75 -3.08225 2.35836 0
M  V30 17459 H 1715.85 -3.72594 -0.0219029 0
M  V30 17460 H 1715.96 -4.47689 1.70621 0
M  V30 17461 H 1714.32 -2.41275 0.815986 0
M  V30 17462 H 1715.11 -2.36675 2.48677 0
M  V30 17463 N 1717.55 -0.769612 -1.37531 0
M  V30 17464 C 1718.78 -0.343783 -2.0372 0
M  V30 17465 C 1719.19 1.03816 -1.58173 0
M  V30 17466 O 1718.53 1.6736 -0.75739 0
M  V30 17467 C 1718.6 -0.305844 -3.58197 0
M  V30 17468 C 1718.26 -1.63202 -4.26866 0
M  V30 17469 C 1719.26 -2.58408 -4.51133 0
M  V30 17470 C 1716.94 -1.90587 -4.64739 0
M  V30 17471 C 1718.94 -3.79208 -5.12328 0
M  V30 17472 C 1716.62 -3.11657 -5.25655 0
M  V30 17473 C 1717.62 -4.05788 -5.49386 0
M  V30 17474 O 1717.31 -5.24727 -6.09029 0
M  V30 17475 H 1717.04 -0.142358 -0.66084 0
M  V30 17476 H 1719.59 -1.04399 -1.7689 0
M  V30 17477 H 1717.82 0.450724 -3.84064 0
M  V30 17478 H 1719.51 0.0926269 -4.05794 0
M  V30 17479 H 1720.28 -2.38532 -4.22288 0
M  V30 17480 H 1716.16 -1.18148 -4.45603 0
M  V30 17481 H 1719.7 -4.52694 -5.30767 0
M  V30 17482 H 1715.6 -3.3142 -5.53924 0
M  V30 17483 H 1716.37 -5.25523 -6.27509 0
M  V30 17484 N 1719.03 1.48775 -0.519977 0
M  V30 17485 C 1719.96 2.26281 0.295295 0
M  V30 17486 C 1720.94 1.31694 0.953695 0
M  V30 17487 O 1722.13 1.61019 0.980063 0
M  V30 17488 C 1719.25 3.07617 1.41738 0
M  V30 17489 C 1718.3 4.17503 0.871411 0
M  V30 17490 S 1719.13 5.34903 -0.252845 0
M  V30 17491 C 1720.29 6.19797 0.871949 0
M  V30 17492 H 1720.52 2.95082 -0.362498 0
M  V30 17493 H 1718.05 1.51346 -0.305587 0
M  V30 17494 H 1720.01 3.55058 2.0602 0
M  V30 17495 H 1718.67 2.38249 2.04685 0
M  V30 17496 H 1717.87 4.74 1.71288 0
M  V30 17497 H 1717.47 3.7275 0.305463 0
M  V30 17498 H 1719.76 6.53892 1.7729 0
M  V30 17499 H 1720.7 7.07258 0.345174 0
M  V30 17500 H 1721.11 5.52707 1.14784 0
M  V30 17501 N 1720.51 0.254649 1.55529 0
M  V30 17502 C 1721.75 -0.369374 2.01035 0
M  V30 17503 C 1722.11 -1.54564 1.13904 0
M  V30 17504 O 1723.31 -2.23792 1.48899 0
M  V30 17505 C 1721.58 -0.761489 3.49194 0
M  V30 17506 S 1723.14 -1.37494 4.16702 0
M  V30 17507 H 1719.96 -0.115878 0.701494 0
M  V30 17508 H 1722.56 0.371696 1.91934 0
M  V30 17509 H 1721.27 0.103781 4.10269 0
M  V30 17510 H 1720.8 -1.53454 3.62237 0
M  V30 17511 H 1722.81 -2.66389 4.1863 0
M  V30 17512 N 1721.99 -1.57589 -0.0183649 0
M  V30 17513 C 1722.94 -2.03724 -1.02373 0
M  V30 17514 C 1723.92 -0.928514 -1.31406 0
M  V30 17515 O 1725.11 -1.19237 -1.30811 0
M  V30 17516 C 1722.24 -2.52901 -2.32155 0
M  V30 17517 C 1721.33 -3.70616 -2.06167 0
M  V30 17518 N 1721.72 -4.82961 -1.50273 0
M  V30 17519 C 1720.02 -3.78195 -2.364 0
M  V30 17520 C 1720.72 -5.64518 -1.40335 0
M  V30 17521 N 1719.69 -5.09959 -1.88263 0
M  V30 17522 H 1723.5 -2.88003 -0.58577 0
M  V30 17523 H 1721.01 -1.60841 -0.224452 0
M  V30 17524 H 1723.01 -2.84219 -3.05 0
M  V30 17525 H 1721.67 -1.70033 -2.76621 0
M  V30 17526 H 1722.68 -5.04185 -1.18399 0
M  V30 17527 H 1719.35 -3.06147 -2.83866 0
M  V30 17528 H 1720.74 -6.64785 -0.975187 0
M  V30 17529 N 1723.46 0.290824 -1.54893 0
M  V30 17530 C 1724.71 1.02272 -1.74312 0
M  V30 17531 C 1725.03 1.87449 -0.537393 0
M  V30 17532 O 1724.3 1.90705 0.448135 0
M  V30 17533 H 1722.88 0.380592 -0.642774 0
M  V30 17534 H 1725.55 0.319353 -1.92266 0
M  V30 17535 H 1724.64 1.66997 -2.63663 0
M  V30 17536 N 1724.94 1.47523 0.554506 0
M  V30 17537 C 1726.22 1.44768 1.31535 0
M  V30 17538 C 1726.6 0.146082 2.10594 0
M  V30 17539 O 1725.95 -0.872415 2.1119 0
M  V30 17540 C 1726.16 2.69489 2.21758 0
M  V30 17541 C 1727.51 3.16814 2.82691 0
M  V30 17542 O 1728.53 2.70235 2.32059 0
M  V30 17543 O 1727.39 3.97798 3.74725 0
M  V30 17544 H 1724.48 0.577042 0.592412 0
M  V30 17545 H 1727.03 1.59727 0.573186 0
M  V30 17546 H 1725.8 3.55753 1.62958 0
M  V30 17547 H 1725.42 2.5713 3.03266 0
M  V30 17548 N 1726.42 -0.801453 1.357 0
M  V30 17549 C 1727.35 -1.92807 1.31711 0
M  V30 17550 C 1728.33 -1.69028 0.190642 0
M  V30 17551 O 1729.52 -1.90317 0.38641 0
M  V30 17552 C 1726.65 -3.29635 1.09352 0
M  V30 17553 C 1725.6 -3.67908 2.18695 0
M  V30 17554 C 1724.93 -5.02955 1.81494 0
M  V30 17555 C 1726.23 -3.77749 3.60698 0
M  V30 17556 H 1727.92 -1.96401 2.2598 0
M  V30 17557 H 1725.47 -0.943528 1.08782 0
M  V30 17558 H 1727.42 -4.08058 1.052 0
M  V30 17559 H 1726.14 -3.26396 0.115306 0
M  V30 17560 H 1724.8 -2.91775 2.21952 0
M  V30 17561 H 1724.45 -4.96225 0.822776 0
M  V30 17562 H 1724.15 -5.29533 2.54692 0
M  V30 17563 H 1725.67 -5.83811 1.78876 0
M  V30 17564 H 1727.09 -4.4639 3.59734 0
M  V30 17565 H 1725.49 -4.15801 4.327 0
M  V30 17566 H 1726.56 -2.79167 3.96477 0
M  V30 17567 N 1727.9 -1.19782 -1.02421 0
M  V30 17568 C 1728.83 -0.963553 -2.12692 0
M  V30 17569 C 1729.81 0.104769 -1.69777 0
M  V30 17570 O 1730.99 -0.0512017 -1.94132 0
M  V30 17571 C 1728.12 -0.506525 -3.43586 0
M  V30 17572 C 1727.08 -1.51722 -4.00206 0
M  V30 17573 C 1726.4 -0.917097 -5.26776 0
M  V30 17574 C 1727.7 -2.89879 -4.34474 0
M  V30 17575 H 1729.4 -1.88579 -2.32547 0
M  V30 17576 H 1726.94 -0.908111 -1.11756 0
M  V30 17577 H 1728.9 -0.329907 -4.20107 0
M  V30 17578 H 1727.62 0.451322 -3.23467 0
M  V30 17579 H 1726.28 -1.68106 -3.25785 0
M  V30 17580 H 1725.93 0.0484457 -5.02977 0
M  V30 17581 H 1725.63 -1.59204 -5.65622 0
M  V30 17582 H 1727.15 -0.751379 -6.05959 0
M  V30 17583 H 1728.57 -2.7705 -5.01913 0
M  V30 17584 H 1726.96 -3.54209 -4.84413 0
M  V30 17585 H 1728.03 -3.42179 -3.43571 0
M  V30 17586 N 1729.38 1.21606 -1.00248 0
M  V30 17587 C 1730.31 2.23246 -0.519009 0
M  V30 17588 C 1731.32 1.58034 0.391051 0
M  V30 17589 O 1732.51 1.77468 0.191652 0
M  V30 17590 C 1729.61 3.37854 0.266017 0
M  V30 17591 C 1728.78 4.32655 -0.642503 0
M  V30 17592 C 1727.84 5.26119 0.0924758 0
M  V30 17593 O 1726.87 5.66771 -0.525333 0
M  V30 17594 N 1728.07 5.64058 1.37183 0
M  V30 17595 H 1730.84 2.65357 -1.39305 0
M  V30 17596 H 1728.4 1.36004 -0.878327 0
M  V30 17597 H 1730.39 3.97373 0.766598 0
M  V30 17598 H 1728.96 2.94749 1.04123 0
M  V30 17599 H 1728.18 3.71314 -1.32361 0
M  V30 17600 H 1729.47 4.92929 -1.26089 0
M  V30 17601 H 1728.87 5.33018 1.89493 0
M  V30 17602 H 1727.42 6.2595 1.81741 0
M  V30 17603 N 1730.86 0.776895 1.37121 0
M  V30 17604 C 1732.1 0.343555 1.99564 0
M  V30 17605 C 1732.43 -1.08134 1.6167 0
M  V30 17606 O 1731.69 -1.75938 0.856998 0
M  V30 17607 C 1731.98 0.440201 3.54679 0
M  V30 17608 C 1731.65 1.82409 4.12356 0
M  V30 17609 C 1730.31 2.20277 4.27822 0
M  V30 17610 C 1732.66 2.73082 4.43932 0
M  V30 17611 C 1729.99 3.48244 4.72168 0
M  V30 17612 C 1732.34 4.00465 4.89705 0
M  V30 17613 C 1731.01 4.38371 5.03376 0
M  V30 17614 H 1730.28 0.125716 0.730258 0
M  V30 17615 H 1732.93 0.991921 1.63808 0
M  V30 17616 H 1731.23 -0.291695 3.90713 0
M  V30 17617 H 1732.93 0.0861328 4.00907 0
M  V30 17618 H 1729.52 1.5198 4.0075 0
M  V30 17619 H 1733.7 2.45085 4.31564 0
M  V30 17620 H 1728.96 3.77501 4.80939 0
M  V30 17621 H 1733.13 4.70849 5.13103 0
M  V30 17622 H 1730.76 5.37587 5.37498 0
M  V30 17623 N 1732.33 -1.48497 0.527859 0
M  V30 17624 C 1733.58 -2.01698 -0.00900086 0
M  V30 17625 C 1733.9 -1.4104 -1.35525 0
M  V30 17626 O 1735.1 -1.85726 -1.98035 0
M  V30 17627 C 1733.56 -3.59839 -0.0664428 0
M  V30 17628 C 1733.17 -4.2948 1.27479 0
M  V30 17629 C 1734.91 -4.20893 -0.552244 0
M  V30 17630 C 1732.82 -5.79548 1.17805 0
M  V30 17631 H 1731.75 -0.753966 -0.00713463 0
M  V30 17632 H 1734.4 -1.70779 0.67132 0
M  V30 17633 H 1732.78 -3.8759 -0.811795 0
M  V30 17634 H 1733.95 -4.13403 2.03554 0
M  V30 17635 H 1732.27 -3.80289 1.69616 0
M  V30 17636 H 1734.87 -5.30825 -0.642556 0
M  V30 17637 H 1735.21 -3.86066 -1.55752 0
M  V30 17638 H 1735.74 -3.97563 0.137363 0
M  V30 17639 H 1732.48 -6.18945 2.15841 0
M  V30 17640 H 1732 -5.98044 0.458624 0
M  V30 17641 H 1733.68 -6.41153 0.867834 0
M  V30 17642 N 1733.81 -0.262893 -1.55392 0
M  V30 17643 C 1735.23 0.09157 -1.59337 0
M  V30 17644 C 1735.43 1.55612 -1.28012 0
M  V30 17645 O 1734.48 2.30308 -1.0351 0
M  V30 17646 C 1735.8 -0.272043 -2.99467 0
M  V30 17647 C 1737.34 -0.217653 -3.12242 0
M  V30 17648 C 1737.82 -0.555528 -4.54618 0
M  V30 17649 N 1739.31 -0.506623 -4.60421 0
M  V30 17650 C 1740.05 -0.741013 -5.68592 0
M  V30 17651 N 1739.54 -1.03937 -6.84959 0
M  V30 17652 N 1741.33 -0.670636 -5.58085 0
M  V30 17653 H 1733.49 -1.2178 -1.74021 0
M  V30 17654 H 1735.75 -0.491131 -0.81086 0
M  V30 17655 H 1735.45 -1.29012 -3.27183 0
M  V30 17656 H 1735.33 0.393105 -3.75146 0
M  V30 17657 H 1737.72 0.791123 -2.84298 0
M  V30 17658 H 1737.8 -0.916884 -2.38803 0
M  V30 17659 H 1737.44 -1.56193 -4.83287 0
M  V30 17660 H 1737.37 0.165358 -5.2634 0
M  V30 17661 H 1739.86 -0.285397 -3.76821 0
M  V30 17662 H 1740.17 -1.20522 -7.63344 0
M  V30 17663 H 1738.52 -1.07702 -6.86604 0
M  V30 17664 H 1741.71 -0.437473 -4.66051 0
M  V30 17665 H 1741.88 -0.856692 -6.42312 0
M  V30 17666 N 1735.29 1.57597 0.0100073 0
M  V30 17667 C 1736.51 1.94801 0.711852 0
M  V30 17668 C 1736.94 0.864343 1.67065 0
M  V30 17669 O 1736.3 -0.178388 1.8042 0
M  V30 17670 C 1736.35 3.31094 1.42862 0
M  V30 17671 O 1735.45 3.2469 2.54264 0
M  V30 17672 H 1734.79 0.636207 0.190095 0
M  V30 17673 H 1737.32 2.04561 -0.0402016 0
M  V30 17674 H 1737.33 3.66428 1.79429 0
M  V30 17675 H 1736.01 4.09522 0.725549 0
M  V30 17676 H 1734.58 3.01017 2.20099 0
M  V30 17677 N 1736.77 -0.282606 1.55045 0
M  V30 17678 C 1738.18 -0.854338 1.66006 0
M  V30 17679 C 1738.53 -1.87408 0.580753 0
M  V30 17680 O 1737.65 -2.14588 -0.279449 0
M  V30 17681 C 1738.25 -1.55637 3.00936 0
M  V30 17682 C 1736.81 -2.07626 3.13956 0
M  V30 17683 C 1735.96 -0.915064 2.61767 0
M  V30 17684 H 1738.91 -0.0591711 1.5859 0
M  V30 17685 H 1738.93 -2.42289 2.93388 0
M  V30 17686 H 1738.44 -0.813942 3.79469 0
M  V30 17687 H 1736.54 -2.84859 2.40179 0
M  V30 17688 H 1736.65 -2.29816 4.20382 0
M  V30 17689 H 1735.02 -1.30577 2.18682 0
M  V30 17690 H 1735.8 -0.186298 3.42794 0
M  V30 17691 N 1738.25 -1.47815 -0.546675 0
M  V30 17692 C 1739.18 -1.57161 -1.66832 0
M  V30 17693 C 1740.19 -0.457035 -1.56253 0
M  V30 17694 O 1741.38 -0.727134 -1.63018 0
M  V30 17695 C 1738.48 -1.4697 -3.05374 0
M  V30 17696 C 1737.65 -2.7318 -3.41602 0
M  V30 17697 C 1736.71 -2.56676 -4.59351 0
M  V30 17698 O 1735.74 -3.30521 -4.63405 0
M  V30 17699 N 1736.94 -1.65194 -5.56499 0
M  V30 17700 H 1739.7 -2.53885 -1.59257 0
M  V30 17701 H 1737.27 -1.44328 -0.733565 0
M  V30 17702 H 1739.26 -1.33649 -3.81995 0
M  V30 17703 H 1737.83 -0.582878 -3.07118 0
M  V30 17704 H 1737.05 -3.01186 -2.54323 0
M  V30 17705 H 1738.34 -3.56945 -3.62585 0
M  V30 17706 H 1737.73 -1.04369 -5.55989 0
M  V30 17707 H 1736.29 -1.57819 -6.32405 0
M  V30 17708 N 1739.72 0.794246 -1.36123 0
M  V30 17709 C 1741.14 1.0916 -1.16431 0
M  V30 17710 C 1741.34 2.01495 0.0148797 0
M  V30 17711 O 1740.4 2.43123 0.681729 0
M  V30 17712 C 1741.71 1.71071 -2.47295 0
M  V30 17713 C 1743.26 1.83435 -2.53615 0
M  V30 17714 C 1743.73 2.48761 -3.84554 0
M  V30 17715 N 1745.22 2.56235 -3.85873 0
M  V30 17716 C 1745.96 3.07579 -4.83924 0
M  V30 17717 N 1745.45 3.59267 -5.92367 0
M  V30 17718 N 1747.25 3.06246 -4.71349 0
M  V30 17719 H 1739.4 0.180705 -2.1163 0
M  V30 17720 H 1741.66 0.142774 -0.937187 0
M  V30 17721 H 1741.37 1.10693 -3.33826 0
M  V30 17722 H 1741.24 2.70634 -2.62749 0
M  V30 17723 H 1743.63 2.42953 -1.67505 0
M  V30 17724 H 1743.71 0.82692 -2.42065 0
M  V30 17725 H 1743.35 1.8989 -4.71067 0
M  V30 17726 H 1743.28 3.50066 -3.93397 0
M  V30 17727 H 1745.77 2.19629 -3.07525 0
M  V30 17728 H 1746.09 3.96781 -6.63163 0
M  V30 17729 H 1744.43 3.57432 -5.96043 0
M  V30 17730 H 1747.62 2.65151 -3.85762 0
M  V30 17731 H 1747.8 3.45953 -5.47924 0
M  V30 17732 N 1741.2 1.20323 1.01785 0
M  V30 17733 C 1742.15 0.947754 2.12416 0
M  V30 17734 C 1743.14 -0.100443 1.69102 0
M  V30 17735 O 1744.35 0.0498028 1.79931 0
M  V30 17736 H 1740.72 0.289148 0.694188 0
M  V30 17737 H 1742.7 1.88714 2.31149 0
M  V30 17738 C 1741.44 0.51503 3.43864 0
M  V30 17739 H 1740.77 1.31318 3.77618 0
M  V30 17740 H 1742.21 0.375476 4.22334 0
M  V30 17741 C 1740.67 -0.772413 3.27926 0
M  V30 17742 O 1741.2 -1.83115 3.57536 0
M  V30 17743 N 1739.4 -0.733948 2.81179 0
M  V30 17744 H 1738.95 0.127902 2.57282 0
M  V30 17745 H 1738.91 -1.59571 2.70896 0
M  V30 17746 N 1742.68 -1.21073 1.00892 0
M  V30 17747 C 1744.09 -1.71982 0.726576 0
M  V30 17748 C 1744.44 -1.81071 -0.755486 0
M  V30 17749 O 1743.57 -1.46797 -1.58996 0
M  V30 17750 C 1744.16 -3.12354 1.31226 0
M  V30 17751 C 1742.72 -3.60605 1.07895 0
M  V30 17752 C 1741.87 -2.38024 1.42267 0
M  V30 17753 H 1744.82 -1.06195 1.17934 0
M  V30 17754 H 1744.84 -3.74026 0.6989 0
M  V30 17755 H 1744.35 -3.05707 2.39092 0
M  V30 17756 H 1742.45 -3.72596 0.0176168 0
M  V30 17757 H 1742.57 -4.45854 1.7536 0
M  V30 17758 H 1740.93 -2.40396 0.841531 0
M  V30 17759 H 1741.71 -2.34024 2.51173 0
M  V30 17760 N 1744.16 -0.784156 -1.36707 0
M  V30 17761 C 1745.39 -0.365901 -2.03639 0
M  V30 17762 C 1745.8 1.01599 -1.59132 0
M  V30 17763 O 1745.16 1.65072 -0.778298 0
M  V30 17764 C 1745.21 -0.414035 -3.59121 0
M  V30 17765 O 1744.93 -1.74142 -4.02003 0
M  V30 17766 C 1746.43 0.0142546 -4.43298 0
M  V30 17767 H 1743.65 -0.151525 -0.653667 0
M  V30 17768 H 1746.2 -1.06154 -1.7479 0
M  V30 17769 H 1744.35 0.233134 -3.86698 0
M  V30 17770 H 1744.76 -1.68861 -4.96575 0
M  V30 17771 H 1746.24 -0.0705681 -5.51955 0
M  V30 17772 H 1746.72 1.06623 -4.26061 0
M  V30 17773 H 1747.32 -0.605201 -4.20972 0
M  V30 17774 N 1745.64 1.48215 -0.535727 0
M  V30 17775 C 1746.88 2.028 -0.00373305 0
M  V30 17776 C 1747.22 1.41143 1.33388 0
M  V30 17777 O 1746.49 0.559227 1.86287 0
M  V30 17778 C 1746.77 3.59925 0.112186 0
M  V30 17779 C 1746.63 4.32053 -1.251 0
M  V30 17780 C 1747.95 4.32083 0.836177 0
M  V30 17781 H 1745.06 0.736995 -0.00283063 0
M  V30 17782 H 1747.71 1.76877 -0.693868 0
M  V30 17783 H 1745.86 3.82142 0.69996 0
M  V30 17784 H 1747.53 4.21238 -1.88033 0
M  V30 17785 H 1745.77 3.93246 -1.83139 0
M  V30 17786 H 1746.44 5.4046 -1.12283 0
M  V30 17787 H 1748.92 4.1473 0.337333 0
M  V30 17788 H 1747.79 5.41699 0.886196 0
M  V30 17789 H 1748.06 3.99772 1.88771 0
M  V30 17790 N 1747.11 0.27113 1.5525 0
M  V30 17791 C 1748.06 -0.618069 2.2237 0
M  V30 17792 C 1749.03 -1.15282 1.19579 0
M  V30 17793 O 1750.22 -1.20285 1.48108 0
M  V30 17794 C 1747.36 -1.79821 2.94548 0
M  V30 17795 C 1746.47 -1.29769 4.12049 0
M  V30 17796 C 1745.6 -2.43931 4.7188 0
M  V30 17797 C 1744.64 -1.90862 5.81582 0
M  V30 17798 N 1743.78 -2.98482 6.35494 0
M  V30 17799 H 1748.62 -0.0390456 2.97974 0
M  V30 17800 H 1746.16 -0.00750636 1.47098 0
M  V30 17801 H 1748.12 -2.49184 3.34609 0
M  V30 17802 H 1746.75 -2.34933 2.21374 0
M  V30 17803 H 1745.8 -0.497288 3.77136 0
M  V30 17804 H 1747.11 -0.868957 4.91173 0
M  V30 17805 H 1746.26 -3.21295 5.1464 0
M  V30 17806 H 1745 -2.90118 3.92024 0
M  V30 17807 H 1744.01 -1.11977 5.38276 0
M  V30 17808 H 1745.23 -1.45616 6.63304 0
M  V30 17809 H 1743.18 -3.44058 5.58534 0
M  V30 17810 H 1743.1 -2.60014 7.09879 0
M  V30 17811 H 1744.36 -3.75833 6.82913 0
M  V30 17812 N 1748.59 -1.576 -0.00164943 0
M  V30 17813 C 1749.87 -1.81716 -0.723788 0
M  V30 17814 C 1750.25 -0.875694 -1.9208 0
M  V30 17815 O 1749.6 0.0759629 -2.28374 0
M  V30 17816 C 1749.81 -3.30164 -1.13106 0
M  V30 17817 C 1751.16 -3.95859 -1.5356 0
M  V30 17818 O 1752.18 -3.34477 -1.2249 0
M  V30 17819 O 1751.04 -5.03986 -2.1133 0
M  V30 17820 H 1748.13 -0.748213 -0.352287 0
M  V30 17821 H 1750.68 -1.69683 0.0236782 0
M  V30 17822 H 1749.45 -3.90313 -0.277771 0
M  V30 17823 H 1749.07 -3.47188 -1.93768 0
M  V30 17824 N 1750.07 0.274379 -1.55193 0
M  V30 17825 C 1751 1.34336 -1.90987 0
M  V30 17826 C 1751.98 1.51594 -0.771582 0
M  V30 17827 O 1753.17 1.6466 -1.0296 0
M  V30 17828 C 1750.3 2.70312 -2.18057 0
M  V30 17829 C 1749.25 2.67787 -3.33878 0
M  V30 17830 C 1748.58 4.07301 -3.46425 0
M  V30 17831 C 1749.88 2.27178 -4.70306 0
M  V30 17832 H 1751.57 1.04627 -2.80524 0
M  V30 17833 H 1749.12 0.501867 -1.34971 0
M  V30 17834 H 1751.07 3.45205 -2.41685 0
M  V30 17835 H 1749.79 3.01601 -1.25318 0
M  V30 17836 H 1748.45 1.95351 -3.10216 0
M  V30 17837 H 1748.1 4.3581 -2.51155 0
M  V30 17838 H 1747.8 4.06507 -4.24295 0
M  V30 17839 H 1749.32 4.83935 -3.72343 0
M  V30 17840 H 1750.74 2.91794 -4.93487 0
M  V30 17841 H 1749.14 2.37548 -5.51082 0
M  V30 17842 H 1750.21 1.22309 -4.69221 0
M  V30 17843 N 1751.55 1.48103 0.538828 0
M  V30 17844 C 1752.8 1.54925 1.29156 0
M  V30 17845 C 1753.11 0.224177 1.94311 0
M  V30 17846 O 1754.32 0.170559 2.70964 0
M  V30 17847 C 1752.77 2.73184 2.34304 0
M  V30 17848 C 1752.38 4.12297 1.75257 0
M  V30 17849 C 1754.12 2.89313 3.10642 0
M  V30 17850 C 1752.03 5.2183 2.78294 0
M  V30 17851 H 1750.96 0.576723 0.485702 0
M  V30 17852 H 1753.61 1.74418 0.570142 0
M  V30 17853 H 1751.99 2.47107 3.09441 0
M  V30 17854 H 1753.17 4.48355 1.06368 0
M  V30 17855 H 1751.48 4.0121 1.11442 0
M  V30 17856 H 1754.08 3.68313 3.87621 0
M  V30 17857 H 1754.42 1.98438 3.65962 0
M  V30 17858 H 1754.96 3.15248 2.42618 0
M  V30 17859 H 1751.7 6.14642 2.27805 0
M  V30 17860 H 1751.22 4.90269 3.45537 0
M  V30 17861 H 1752.89 5.49567 3.41446 0
M  V30 17862 N 1753.03 -0.787016 1.36542 0
M  V30 17863 C 1754.25 -1.58103 1.34231 0
M  V30 17864 C 1754.68 -1.87956 -0.0734932 0
M  V30 17865 O 1754.03 -1.48073 -1.04615 0
M  V30 17866 C 1754.08 -2.87739 2.17345 0
M  V30 17867 O 1753.19 -3.81445 1.56759 0
M  V30 17868 H 1752.53 -0.479495 0.459326 0
M  V30 17869 H 1755.06 -0.975294 1.79859 0
M  V30 17870 H 1755.07 -3.36986 2.3001 0
M  V30 17871 H 1753.74 -2.65338 3.20264 0
M  V30 17872 H 1752.32 -3.40046 1.53047 0
M  V30 17873 N 1754.5 -1.20861 -1.01145 0
M  V30 17874 C 1755.75 -1.02191 -1.74823 0
M  V30 17875 C 1756.08 0.445357 -1.89333 0
M  V30 17876 O 1755.33 1.34684 -1.41982 0
M  V30 17877 C 1755.63 -1.65666 -3.16685 0
M  V30 17878 C 1755.3 -3.15494 -3.2214 0
M  V30 17879 C 1753.96 -3.56381 -3.23336 0
M  V30 17880 C 1756.31 -4.11481 -3.19895 0
M  V30 17881 C 1753.64 -4.91772 -3.19964 0
M  V30 17882 C 1755.99 -5.46826 -3.18064 0
M  V30 17883 C 1754.66 -5.87118 -3.17566 0
M  V30 17884 H 1753.93 -0.373945 -0.639724 0
M  V30 17885 H 1756.57 -1.50361 -1.18592 0
M  V30 17886 H 1754.88 -1.09772 -3.76108 0
M  V30 17887 H 1756.58 -1.4873 -3.72398 0
M  V30 17888 H 1753.17 -2.82926 -3.21948 0
M  V30 17889 H 1757.35 -3.80924 -3.18136 0
M  V30 17890 H 1752.61 -5.22247 -3.17913 0
M  V30 17891 H 1756.78 -6.20945 -3.15279 0
M  V30 17892 H 1754.41 -6.92 -3.14707 0
M  V30 17893 N 1755.98 1.20536 -1.01532 0
M  V30 17894 C 1757.23 1.89496 -0.70254 0
M  V30 17895 C 1757.55 1.7915 0.770072 0
M  V30 17896 O 1756.82 1.19308 1.55379 0
M  V30 17897 H 1755.4 0.701447 -0.256868 0
M  V30 17898 H 1758.06 1.46394 -1.28665 0
M  V30 17899 H 1757.16 2.96155 -0.984817 0
M  V30 17900 N 1757.46 0.791395 1.36289 0
M  V30 17901 C 1758.39 0.205419 2.32595 0
M  V30 17902 C 1759.37 -0.660696 1.56744 0
M  V30 17903 O 1760.56 -0.594111 1.84889 0
M  V30 17904 C 1757.69 -0.659018 3.4099 0
M  V30 17905 C 1756.64 0.107364 4.27865 0
M  V30 17906 C 1755.97 -0.877795 5.27446 0
M  V30 17907 C 1757.27 1.29769 5.05922 0
M  V30 17908 H 1758.96 1.00999 2.8185 0
M  V30 17909 H 1756.51 0.487122 1.35511 0
M  V30 17910 H 1758.46 -1.07891 4.07354 0
M  V30 17911 H 1757.18 -1.49632 2.90307 0
M  V30 17912 H 1755.84 0.508253 3.6306 0
M  V30 17913 H 1755.49 -1.71018 4.73035 0
M  V30 17914 H 1755.19 -0.369429 5.86438 0
M  V30 17915 H 1756.71 -1.29621 5.96683 0
M  V30 17916 H 1758.13 0.953463 5.65316 0
M  V30 17917 H 1756.53 1.73949 5.74336 0
M  V30 17918 H 1757.6 2.09205 4.37449 0
M  V30 17919 N 1758.94 -1.47929 0.54358 0
M  V30 17920 C 1759.87 -2.27843 -0.249005 0
M  V30 17921 C 1760.88 -1.36189 -0.891987 0
M  V30 17922 O 1762.07 -1.61127 -0.768135 0
M  V30 17923 C 1759.17 -3.10016 -1.36906 0
M  V30 17924 C 1758.35 -4.29541 -0.82545 0
M  V30 17925 C 1757.41 -4.93416 -1.82831 0
M  V30 17926 O 1756.43 -5.52222 -1.37984 0
M  V30 17927 N 1757.63 -4.86881 -3.16113 0
M  V30 17928 H 1760.4 -2.96505 0.436436 0
M  V30 17929 H 1757.96 -1.57407 0.378774 0
M  V30 17930 H 1759.95 -3.49616 -2.0384 0
M  V30 17931 H 1758.52 -2.43686 -1.95796 0
M  V30 17932 H 1757.74 -3.94195 0.0202776 0
M  V30 17933 H 1759.03 -5.06882 -0.441368 0
M  V30 17934 H 1758.43 -4.4028 -3.55205 0
M  V30 17935 H 1756.98 -5.30541 -3.78642 0
M  V30 17936 N 1760.42 -0.27936 -1.55104 0
M  V30 17937 C 1761.66 0.336703 -1.99985 0
M  V30 17938 C 1762 1.55186 -1.16752 0
M  V30 17939 O 1761.27 1.93031 -0.238626 0
M  V30 17940 C 1761.55 0.714701 -3.52936 0
M  V30 17941 C 1761.41 -0.508088 -4.46921 0
M  V30 17942 C 1762.73 1.54953 -4.11919 0
M  V30 17943 H 1759.85 0.120908 -0.727015 0
M  V30 17944 H 1762.49 -0.38715 -1.86014 0
M  V30 17945 H 1760.64 1.33143 -3.64973 0
M  V30 17946 H 1762.31 -1.14664 -4.46822 0
M  V30 17947 H 1760.55 -1.14537 -4.18406 0
M  V30 17948 H 1761.22 -0.199782 -5.51638 0
M  V30 17949 H 1763.7 1.02864 -4.03185 0
M  V30 17950 H 1762.58 1.78282 -5.1914 0
M  V30 17951 H 1762.84 2.53192 -3.62417 0
M  V30 17952 N 1761.9 1.57599 -0.0067085 0
M  V30 17953 C 1762.86 2.07783 0.967417 0
M  V30 17954 C 1763.86 0.988498 1.26828 0
M  V30 17955 O 1765.05 1.25091 1.21235 0
M  V30 17956 C 1762.18 2.52491 2.29044 0
M  V30 17957 H 1763.37 2.95122 0.533201 0
M  V30 17958 H 1760.93 1.54432 0.2409 0
M  V30 17959 H 1761.66 1.68415 2.77141 0
M  V30 17960 H 1761.45 3.32054 2.08525 0
M  V30 17961 H 1762.94 2.9162 2.98911 0
M  V30 17962 N 1763.37 -0.266145 1.55336 0
M  V30 17963 C 1764.79 -0.613693 1.47329 0
M  V30 17964 C 1764.99 -1.89207 0.693038 0
M  V30 17965 O 1764.05 -2.51586 0.214642 0
M  V30 17966 C 1765.36 -0.734287 2.91597 0
M  V30 17967 C 1766.91 -0.82789 3.01853 0
M  V30 17968 C 1767.38 -0.980205 4.47388 0
M  V30 17969 N 1768.87 -1.04556 4.51245 0
M  V30 17970 C 1769.61 -1.18233 5.61078 0
M  V30 17971 N 1769.1 -1.28587 6.80762 0
M  V30 17972 N 1770.9 -1.21398 5.48834 0
M  V30 17973 H 1763.05 0.573316 2.04516 0
M  V30 17974 H 1765.31 0.195128 0.927701 0
M  V30 17975 H 1765.02 0.134714 3.51442 0
M  V30 17976 H 1764.89 -1.6124 3.41001 0
M  V30 17977 H 1767.28 -1.68735 2.421 0
M  V30 17978 H 1767.36 0.0749719 2.5569 0
M  V30 17979 H 1767 -0.125373 5.07745 0
M  V30 17980 H 1766.93 -1.89782 4.91213 0
M  V30 17981 H 1769.42 -0.977667 3.65034 0
M  V30 17982 H 1769.74 -1.38876 7.60219 0
M  V30 17983 H 1768.08 -1.25579 6.8356 0
M  V30 17984 H 1771.27 -1.12944 4.5427 0
M  V30 17985 H 1771.45 -1.31713 6.34473 0
M  V30 17986 N 1764.85 -1.48386 -0.530967 0
M  V30 17987 C 1766.1 -1.56045 -1.28431 0
M  V30 17988 C 1766.42 -0.235695 -1.9357 0
M  V30 17989 O 1765.69 0.742677 -1.81276 0
M  V30 17990 H 1764.27 -0.574868 -0.477007 0
M  V30 17991 H 1766.93 -1.84844 -0.617955 0
M  V30 17992 H 1766.03 -2.34096 -2.0641 0
M  V30 17993 N 1766.33 0.779763 -1.36958 0
M  V30 17994 C 1767.26 1.89973 -1.26434 0
M  V30 17995 C 1768.24 1.61939 -0.146502 0
M  V30 17996 O 1769.42 1.85776 -0.319321 0
M  V30 17997 C 1766.55 3.25016 -0.953002 0
M  V30 17998 C 1765.6 3.71971 -2.08662 0
M  V30 17999 S 1766.43 3.86589 -3.70553 0
M  V30 18000 C 1767.59 5.24493 -3.41552 0
M  V30 18001 H 1767.82 1.98609 -2.21228 0
M  V30 18002 H 1765.35 0.940021 -1.22487 0
M  V30 18003 H 1767.31 4.03018 -0.780191 0
M  V30 18004 H 1765.97 3.14092 -0.0226841 0
M  V30 18005 H 1765.16 4.69853 -1.82358 0
M  V30 18006 H 1764.77 3.01048 -2.21915 0
M  V30 18007 H 1767.06 6.09397 -2.96044 0
M  V30 18008 H 1768 5.55805 -4.38733 0
M  V30 18009 H 1768.41 4.92051 -2.7667 0
M  V30 18010 N 1767.81 1.21396 1.00503 0
M  V30 18011 C 1768.72 0.989221 2.12724 0
M  V30 18012 C 1769.73 -0.0586646 1.73901 0
M  V30 18013 O 1770.91 0.131377 2.00971 0
M  V30 18014 C 1767.97 0.556731 3.42201 0
M  V30 18015 C 1767.04 1.67683 3.95197 0
M  V30 18016 C 1766.27 1.26488 5.18494 0
M  V30 18017 O 1766.49 0.13847 5.70232 0
M  V30 18018 O 1765.43 2.07678 5.64937 0
M  V30 18019 H 1769.25 1.92913 2.3456 0
M  V30 18020 H 1766.84 0.998837 1.11102 0
M  V30 18021 H 1768.72 0.325327 4.20142 0
M  V30 18022 H 1767.39 -0.354457 3.21753 0
M  V30 18023 H 1766.3 1.96263 3.18483 0
M  V30 18024 H 1767.63 2.56544 4.20055 0
M  V30 18025 N 1769.29 -1.19996 1.0217 0
M  V30 18026 C 1770.52 -1.93186 0.732311 0
M  V30 18027 C 1770.92 -1.75303 -0.711724 0
M  V30 18028 O 1770.27 -1.06756 -1.49495 0
M  V30 18029 C 1770.33 -3.45466 0.994655 0
M  V30 18030 C 1769.99 -3.87114 2.42882 0
M  V30 18031 C 1770.99 -3.92459 3.40987 0
M  V30 18032 C 1768.67 -4.18958 2.77091 0
M  V30 18033 C 1770.67 -4.29067 4.7136 0
M  V30 18034 C 1768.36 -4.5524 4.07676 0
M  V30 18035 C 1769.35 -4.60267 5.04622 0
M  V30 18036 O 1769.04 -4.95713 6.32869 0
M  V30 18037 H 1768.77 -0.62069 0.267806 0
M  V30 18038 H 1771.33 -1.53287 1.3672 0
M  V30 18039 H 1769.56 -3.85514 0.30261 0
M  V30 18040 H 1771.25 -3.99887 0.696049 0
M  V30 18041 H 1772.01 -3.68016 3.15895 0
M  V30 18042 H 1767.89 -4.14233 2.02317 0
M  V30 18043 H 1771.44 -4.32905 5.47027 0
M  V30 18044 H 1767.33 -4.7914 4.32545 0
M  V30 18045 H 1768.1 -5.13687 6.37234 0
M  V30 18046 N 1770.76 -0.798611 -1.35867 0
M  V30 18047 C 1771.69 -0.217751 -2.32482 0
M  V30 18048 C 1772.67 0.652374 -1.57093 0
M  V30 18049 O 1773.86 0.584297 -1.85202 0
M  V30 18050 C 1770.99 0.640925 -3.41335 0
M  V30 18051 C 1769.94 -0.130053 -4.27802 0
M  V30 18052 C 1769.27 0.849811 -5.27904 0
M  V30 18053 C 1770.57 -1.32451 -5.05227 0
M  V30 18054 H 1772.26 -1.02492 -2.81311 0
M  V30 18055 H 1769.81 -0.494302 -1.3525 0
M  V30 18056 H 1771.76 1.05729 -4.07921 0
M  V30 18057 H 1770.49 1.4809 -2.91096 0
M  V30 18058 H 1769.15 -0.5275 -3.62785 0
M  V30 18059 H 1768.79 1.68507 -4.73935 0
M  V30 18060 H 1768.49 0.338323 -5.86625 0
M  V30 18061 H 1770.02 1.26455 -5.97362 0
M  V30 18062 H 1771.43 -0.983429 -5.64802 0
M  V30 18063 H 1769.83 -1.76992 -5.73405 0
M  V30 18064 H 1770.9 -2.11522 -4.36333 0
M  V30 18065 N 1772.24 1.47639 -0.551417 0
M  V30 18066 C 1773.2 2.28419 0.188996 0
M  V30 18067 C 1774.2 1.36617 0.84808 0
M  V30 18068 O 1775.39 1.59304 0.704831 0
M  V30 18069 C 1772.53 3.16131 1.27571 0
M  V30 18070 H 1773.72 2.95348 -0.520518 0
M  V30 18071 H 1771.27 1.53232 -0.308141 0
M  V30 18072 H 1772.01 2.5388 2.0178 0
M  V30 18073 H 1771.79 3.83685 0.807984 0
M  V30 18074 H 1773.28 3.77011 1.79591 0
M  V30 18075 N 1773.72 0.287581 1.54954 0
M  V30 18076 C 1774.63 -0.604236 2.26685 0
M  V30 18077 C 1775.65 -1.1597 1.29719 0
M  V30 18078 O 1776.82 -1.18735 1.62678 0
M  V30 18079 C 1773.89 -1.76612 2.98344 0
M  V30 18080 C 1772.95 -1.24608 4.10818 0
M  V30 18081 C 1772.18 -2.35258 4.7905 0
M  V30 18082 O 1772.4 -3.54879 4.46561 0
M  V30 18083 O 1771.34 -2.02709 5.66739 0
M  V30 18084 H 1775.16 -0.0227663 3.03691 0
M  V30 18085 H 1772.75 0.0545243 1.493 0
M  V30 18086 H 1774.63 -2.44332 3.43336 0
M  V30 18087 H 1773.31 -2.33444 2.24244 0
M  V30 18088 H 1772.21 -0.53498 3.70255 0
M  V30 18089 H 1773.55 -0.723348 4.86856 0
M  V30 18090 N 1775.2 -1.57593 0.0150662 0
M  V30 18091 C 1776.13 -2.06239 -0.999912 0
M  V30 18092 C 1777.14 -0.983112 -1.29764 0
M  V30 18093 O 1778.33 -1.25961 -1.26476 0
M  V30 18094 C 1775.43 -2.46011 -2.33092 0
M  V30 18095 C 1774.61 -3.76851 -2.2204 0
M  V30 18096 C 1773.66 -4.03326 -3.37956 0
M  V30 18097 O 1772.69 -4.73781 -3.15469 0
M  V30 18098 N 1773.89 -3.52399 -4.61298 0
M  V30 18099 H 1776.66 -2.93936 -0.584952 0
M  V30 18100 H 1774.22 -1.60984 -0.172001 0
M  V30 18101 H 1776.21 -2.60825 -3.09439 0
M  V30 18102 H 1774.78 -1.63753 -2.66277 0
M  V30 18103 H 1774 -3.71969 -1.30509 0
M  V30 18104 H 1775.29 -4.626 -2.11845 0
M  V30 18105 H 1774.69 -2.95374 -4.82463 0
M  V30 18106 H 1773.24 -3.72516 -5.3486 0
M  V30 18107 N 1776.68 0.257904 -1.55475 0
M  V30 18108 C 1777.62 1.31912 -1.89388 0
M  V30 18109 C 1778.59 1.48358 -0.746927 0
M  V30 18110 O 1779.78 1.62521 -0.999584 0
M  V30 18111 C 1776.92 2.67162 -2.18446 0
M  V30 18112 C 1776.03 2.58814 -3.45889 0
M  V30 18113 C 1775.17 3.86343 -3.64571 0
M  V30 18114 C 1774.21 3.72567 -4.85654 0
M  V30 18115 N 1773.34 4.91964 -5.00915 0
M  V30 18116 H 1778.18 1.02291 -2.79894 0
M  V30 18117 H 1775.72 0.493864 -1.38562 0
M  V30 18118 H 1777.68 3.45874 -2.33296 0
M  V30 18119 H 1776.31 2.94954 -1.31157 0
M  V30 18120 H 1775.36 1.7173 -3.39431 0
M  V30 18121 H 1776.67 2.4454 -4.34743 0
M  V30 18122 H 1775.83 4.73498 -3.79321 0
M  V30 18123 H 1774.56 4.03501 -2.7393 0
M  V30 18124 H 1773.57 2.83795 -4.70893 0
M  V30 18125 H 1774.79 3.56914 -5.77745 0
M  V30 18126 H 1772.74 5.09505 -4.13208 0
M  V30 18127 H 1772.66 4.80279 -5.83839 0
M  V30 18128 H 1773.93 5.80649 -5.20064 0
M  V30 18129 N 1778.15 1.48666 0.52309 0
M  V30 18130 C 1779.4 1.57034 1.27854 0
M  V30 18131 C 1779.73 0.247256 1.92922 0
M  V30 18132 O 1778.98 -0.763049 1.80211 0
M  V30 18133 C 1779.28 2.66247 2.38426 0
M  V30 18134 C 1778.95 4.08464 1.90965 0
M  V30 18135 C 1777.61 4.47171 1.77739 0
M  V30 18136 C 1779.96 4.97562 1.55184 0
M  V30 18137 C 1777.29 5.72772 1.27077 0
M  V30 18138 C 1779.64 6.23659 1.05982 0
M  V30 18139 C 1778.31 6.61216 0.913782 0
M  V30 18140 H 1777.58 0.574628 0.46785 0
M  V30 18141 H 1780.22 1.82411 0.582961 0
M  V30 18142 H 1778.53 2.34756 3.13682 0
M  V30 18143 H 1780.23 2.69936 2.9654 0
M  V30 18144 H 1776.82 3.779 2.02212 0
M  V30 18145 H 1781 4.6833 1.64259 0
M  V30 18146 H 1776.26 6.0059 1.14464 0
M  V30 18147 H 1780.43 6.92089 0.773684 0
M  V30 18148 H 1778.06 7.58426 0.519021 0
M  V30 18149 N 1779.63 -0.772489 1.37369 0
M  V30 18150 C 1780.88 -1.53329 1.32733 0
M  V30 18151 C 1781.21 -1.93999 -0.0882815 0
M  V30 18152 O 1780.49 -1.64014 -1.04545 0
M  V30 18153 C 1780.77 -2.79885 2.26575 0
M  V30 18154 C 1780.62 -2.45474 3.76912 0
M  V30 18155 C 1781.94 -3.81812 2.18878 0
M  V30 18156 H 1779.06 -0.55625 0.483482 0
M  V30 18157 H 1781.7 -0.886251 1.68064 0
M  V30 18158 H 1779.85 -3.35097 1.96576 0
M  V30 18159 H 1781.52 -1.96182 4.17505 0
M  V30 18160 H 1779.77 -1.78181 3.95517 0
M  V30 18161 H 1780.44 -3.35937 4.38007 0
M  V30 18162 H 1782.91 -3.36091 2.4532 0
M  V30 18163 H 1781.79 -4.68087 2.86681 0
M  V30 18164 H 1782.05 -4.26021 1.18146 0
M  V30 18165 N 1781.11 -1.21927 -0.998575 0
M  V30 18166 C 1782.06 -0.951671 -2.07189 0
M  V30 18167 C 1783.04 0.095548 -1.60616 0
M  V30 18168 O 1784.24 -0.11423 -1.76631 0
M  V30 18169 C 1781.37 -0.525175 -3.39259 0
M  V30 18170 C 1780.45 -1.60681 -3.92482 0
M  V30 18171 N 1780.84 -2.8333 -4.18996 0
M  V30 18172 C 1779.14 -1.47718 -4.20827 0
M  V30 18173 C 1779.84 -3.53231 -4.62172 0
M  V30 18174 N 1778.82 -2.80687 -4.65527 0
M  V30 18175 H 1782.62 -1.88341 -2.25621 0
M  V30 18176 H 1780.13 -1.11596 -1.17984 0
M  V30 18177 H 1782.13 -0.3148 -4.1571 0
M  V30 18178 H 1780.79 0.399723 -3.2223 0
M  V30 18179 H 1781.8 -3.19812 -4.07358 0
M  V30 18180 H 1778.48 -0.618048 -4.129 0
M  V30 18181 H 1779.87 -4.58279 -4.91355 0
M  V30 18182 N 1782.59 1.19452 -1.02805 0
M  V30 18183 C 1784 1.41147 -0.744969 0
M  V30 18184 C 1784.2 1.90008 0.670765 0
M  V30 18185 O 1783.26 2.0763 1.43688 0
M  V30 18186 C 1784.57 2.42328 -1.78039 0
M  V30 18187 C 1786.12 2.56076 -1.79984 0
M  V30 18188 C 1786.6 3.6051 -2.82483 0
M  V30 18189 N 1788.09 3.68005 -2.81294 0
M  V30 18190 C 1788.82 4.48502 -3.57258 0
M  V30 18191 N 1788.32 5.32711 -4.42934 0
M  V30 18192 N 1790.11 4.43144 -3.45803 0
M  V30 18193 H 1782.26 0.860569 -1.94185 0
M  V30 18194 H 1784.53 0.44042 -0.839484 0
M  V30 18195 H 1784.23 2.13448 -2.79523 0
M  V30 18196 H 1784.11 3.41491 -1.60199 0
M  V30 18197 H 1786.49 2.84279 -0.791782 0
M  V30 18198 H 1786.57 1.57069 -2.01898 0
M  V30 18199 H 1786.22 3.33049 -3.83459 0
M  V30 18200 H 1786.15 4.59166 -2.57827 0
M  V30 18201 H 1788.64 3.07863 -2.19154 0
M  V30 18202 H 1788.95 5.9125 -4.97637 0
M  V30 18203 H 1787.3 5.32175 -4.47007 0
M  V30 18204 H 1790.49 3.76399 -2.78283 0
M  V30 18205 H 1790.66 5.0564 -4.05256 0
M  V30 18206 N 1784.07 0.805805 1.35442 0
M  V30 18207 C 1785.34 0.309105 1.93142 0
M  V30 18208 C 1785.72 -1.20119 1.73593 0
M  V30 18209 O 1785.07 -2.00034 1.10448 0
M  V30 18210 C 1785.28 0.719653 3.415 0
M  V30 18211 C 1786.63 0.708697 4.18644 0
M  V30 18212 O 1787.65 0.661148 3.5001 0
M  V30 18213 O 1786.51 0.76636 5.411 0
M  V30 18214 H 1783.61 0.0806647 0.823057 0
M  V30 18215 H 1786.15 0.88945 1.44523 0
M  V30 18216 H 1784.92 1.7606 3.49455 0
M  V30 18217 H 1784.55 0.114073 3.97436 0
M  V30 18218 N 1785.54 -1.47344 0.559239 0
M  V30 18219 C 1786.47 -2.32839 -0.175542 0
M  V30 18220 C 1787.46 -1.43914 -0.906787 0
M  V30 18221 O 1788.64 -1.72767 -0.886855 0
M  V30 18222 C 1785.77 -3.25735 -1.20474 0
M  V30 18223 C 1784.72 -4.23916 -0.589825 0
M  V30 18224 C 1784.05 -5.06151 -1.7238 0
M  V30 18225 C 1785.35 -5.2029 0.457733 0
M  V30 18226 H 1787.04 -2.94522 0.538225 0
M  V30 18227 H 1784.59 -1.41628 0.260282 0
M  V30 18228 H 1786.54 -3.84388 -1.72695 0
M  V30 18229 H 1785.27 -2.62111 -1.94847 0
M  V30 18230 H 1783.93 -3.66492 -0.0888897 0
M  V30 18231 H 1783.57 -4.38929 -2.45663 0
M  V30 18232 H 1783.27 -5.72625 -1.31813 0
M  V30 18233 H 1784.8 -5.67663 -2.24923 0
M  V30 18234 H 1786.21 -5.73296 0.0215019 0
M  V30 18235 H 1784.61 -5.94978 0.7824 0
M  V30 18236 H 1785.68 -4.65645 1.35286 0
M  V30 18237 N 1787.02 -0.295795 -1.54799 0
M  V30 18238 C 1787.99 0.569699 -2.22007 0
M  V30 18239 C 1788.99 1.06535 -1.20445 0
M  V30 18240 O 1790.18 0.962212 -1.45214 0
M  V30 18241 C 1787.31 1.78821 -2.90234 0
M  V30 18242 H 1788.5 -0.0174148 -2.99895 0
M  V30 18243 H 1786.05 -0.0465813 -1.56231 0
M  V30 18244 H 1786.79 2.4153 -2.16412 0
M  V30 18245 H 1786.57 1.44051 -3.6468 0
M  V30 18246 H 1788.06 2.40321 -3.41519 0
M  V30 18247 N 1788.5 1.57583 -0.0234236 0
M  V30 18248 C 1789.46 2.08797 0.945325 0
M  V30 18249 C 1790.46 1.00189 1.25773 0
M  V30 18250 O 1791.65 1.2637 1.19901 0
M  V30 18251 C 1788.79 2.54906 2.26353 0
M  V30 18252 H 1789.98 2.95671 0.50187 0
M  V30 18253 H 1787.53 1.54679 0.224507 0
M  V30 18254 H 1788.27 1.71345 2.75339 0
M  V30 18255 H 1788.05 3.34247 2.04991 0
M  V30 18256 H 1789.54 2.94774 2.95801 0
M  V30 18257 N 1789.98 -0.249655 1.5561 0
M  V30 18258 C 1791.4 -0.598032 1.47972 0
M  V30 18259 C 1791.6 -1.88461 0.713067 0
M  V30 18260 O 1790.65 -2.51344 0.241314 0
M  V30 18261 C 1791.96 -0.703318 2.92359 0
M  V30 18262 C 1793.51 -0.795828 3.02714 0
M  V30 18263 C 1793.99 -0.932698 4.48402 0
M  V30 18264 N 1795.48 -0.997638 4.52329 0
M  V30 18265 C 1796.21 -1.12276 5.623 0
M  V30 18266 N 1795.71 -1.21359 6.82088 0
M  V30 18267 N 1797.5 -1.1557 5.50091 0
M  V30 18268 H 1789.65 0.594976 2.03897 0
M  V30 18269 H 1791.92 0.204956 0.925579 0
M  V30 18270 H 1791.62 0.171981 3.51279 0
M  V30 18271 H 1791.5 -1.57614 3.42692 0
M  V30 18272 H 1793.88 -1.66158 2.43876 0
M  V30 18273 H 1793.96 0.102087 2.55596 0
M  V30 18274 H 1793.61 -0.0715123 5.0785 0
M  V30 18275 H 1793.54 -1.84561 4.93198 0
M  V30 18276 H 1796.03 -0.938895 3.66051 0
M  V30 18277 H 1796.34 -1.30805 7.61649 0
M  V30 18278 H 1794.69 -1.18322 6.84854 0
M  V30 18279 H 1797.88 -1.0812 4.55442 0
M  V30 18280 H 1798.05 -1.24976 6.35834 0
M  V30 18281 N 1791.46 -1.48941 -0.515198 0
M  V30 18282 C 1792.41 -1.65027 -1.63917 0
M  V30 18283 C 1793.4 -0.516402 -1.61337 0
M  V30 18284 O 1794.61 -0.695598 -1.66016 0
M  V30 18285 H 1790.98 -0.520121 -0.543119 0
M  V30 18286 H 1792.95 -2.59397 -1.47498 0
M  V30 18287 C 1791.7 -1.72093 -3.02125 0
M  V30 18288 H 1791.02 -2.5871 -3.0481 0
M  V30 18289 H 1792.46 -1.87387 -3.80345 0
M  V30 18290 C 1790.92 -0.462688 -3.33708 0
M  V30 18291 O 1791.45 0.417925 -3.9952 0
M  V30 18292 N 1789.66 -0.329909 -2.88721 0
M  V30 18293 H 1789.21 -1.0475 -2.35341 0
M  V30 18294 H 1789.16 0.510912 -3.10221 0
M  V30 18295 N 1792.94 0.765193 -1.37777 0
M  V30 18296 C 1794.18 1.53692 -1.34752 0
M  V30 18297 C 1794.54 1.91888 0.0655965 0
M  V30 18298 O 1795.74 2.67893 0.220628 0
M  V30 18299 C 1794.01 2.76363 -2.26623 0
M  V30 18300 S 1795.57 3.66358 -2.4151 0
M  V30 18301 H 1792.39 0.526091 -0.478277 0
M  V30 18302 H 1794.99 0.899252 -1.73591 0
M  V30 18303 H 1793.69 2.46393 -3.28205 0
M  V30 18304 H 1793.23 3.45085 -1.88892 0
M  V30 18305 H 1795.24 4.68644 -1.63055 0
M  V30 18306 N 1794.41 1.22455 0.992094 0
M  V30 18307 C 1795.35 0.938597 2.08004 0
M  V30 18308 C 1796.32 -0.118779 1.62166 0
M  V30 18309 O 1797.51 0.0129778 1.88496 0
M  V30 18310 C 1794.64 0.411803 3.36187 0
M  V30 18311 C 1793.68 1.45398 4.00951 0
M  V30 18312 S 1794.51 3.02757 4.417 0
M  V30 18313 C 1795.67 2.51718 5.73052 0
M  V30 18314 H 1795.9 1.85987 2.3194 0
M  V30 18315 H 1793.44 1.0557 1.12669 0
M  V30 18316 H 1795.39 0.114452 4.1034 0
M  V30 18317 H 1794.06 -0.488368 3.1028 0
M  V30 18318 H 1793.25 1.03528 4.93252 0
M  V30 18319 H 1792.85 1.70008 3.33127 0
M  V30 18320 H 1795.14 1.93009 6.49426 0
M  V30 18321 H 1796.09 3.42513 6.1975 0
M  V30 18322 H 1796.49 1.92974 5.30491 0
M  V30 18323 N 1795.89 -1.18905 1.03437 0
M  V30 18324 C 1796.82 -2.24539 0.640669 0
M  V30 18325 C 1797.8 -1.66396 -0.353024 0
M  V30 18326 O 1798.99 -1.92779 -0.234522 0
M  V30 18327 C 1796.12 -3.473 -0.00367731 0
M  V30 18328 C 1795.07 -4.18151 0.912881 0
M  V30 18329 C 1794.4 -5.34534 0.133347 0
M  V30 18330 C 1795.7 -4.72342 2.22913 0
M  V30 18331 H 1797.39 -2.57726 1.52374 0
M  V30 18332 H 1794.94 -1.23883 0.734098 0
M  V30 18333 H 1796.89 -4.20396 -0.290783 0
M  V30 18334 H 1795.61 -3.13328 -0.921578 0
M  V30 18335 H 1794.27 -3.46945 1.18427 0
M  V30 18336 H 1793.92 -4.96809 -0.786762 0
M  V30 18337 H 1793.62 -5.82872 0.743905 0
M  V30 18338 H 1795.15 -6.10423 -0.146889 0
M  V30 18339 H 1796.56 -5.37165 2.00317 0
M  V30 18340 H 1794.96 -5.31189 2.79209 0
M  V30 18341 H 1796.03 -3.90108 2.87999 0
M  V30 18342 N 1797.37 -0.812977 -1.35013 0
M  V30 18343 C 1798.65 -0.319343 -1.92976 0
M  V30 18344 C 1799.03 1.19196 -1.74228 0
M  V30 18345 O 1798.37 1.99445 -1.11507 0
M  V30 18346 C 1798.58 -0.737753 -3.41113 0
M  V30 18347 C 1799.93 -0.730889 -4.18262 0
M  V30 18348 O 1800.96 -0.679701 -3.49655 0
M  V30 18349 O 1799.82 -0.795045 -5.40686 0
M  V30 18350 H 1796.91 -0.0850284 -0.822617 0
M  V30 18351 H 1799.46 -0.897102 -1.44049 0
M  V30 18352 H 1798.23 -1.77911 -3.48516 0
M  V30 18353 H 1797.85 -0.135148 -3.9737 0
M  V30 18354 N 1798.85 1.47045 -0.567045 0
M  V30 18355 C 1799.76 2.33924 0.177998 0
M  V30 18356 C 1800.77 1.48797 0.901967 0
M  V30 18357 O 1801.95 1.81704 0.868662 0
M  V30 18358 C 1799.01 3.25687 1.18865 0
M  V30 18359 C 1798.08 4.26708 0.471049 0
M  V30 18360 C 1797.31 5.14087 1.43355 0
M  V30 18361 O 1797.53 5.041 2.66907 0
M  V30 18362 O 1796.47 5.94313 0.952674 0
M  V30 18363 H 1800.29 2.98952 -0.534907 0
M  V30 18364 H 1797.88 1.45765 -0.327571 0
M  V30 18365 H 1799.76 3.82342 1.7718 0
M  V30 18366 H 1798.43 2.63274 1.8833 0
M  V30 18367 H 1797.34 3.73785 -0.153539 0
M  V30 18368 H 1798.67 4.91862 -0.182337 0
M  V30 18369 N 1800.33 0.304 1.5464 0
M  V30 18370 C 1801.55 -0.309709 2.05075 0
M  V30 18371 C 1801.98 -1.46509 1.1797 0
M  V30 18372 O 1801.33 -1.80359 0.184437 0
M  V30 18373 C 1801.38 -0.740734 3.5291 0
M  V30 18374 O 1800.49 -1.8452 3.68817 0
M  V30 18375 H 1799.83 -0.0596065 0.661319 0
M  V30 18376 H 1802.36 0.446718 1.99664 0
M  V30 18377 H 1802.37 -1.02873 3.94818 0
M  V30 18378 H 1801.04 0.104422 4.15769 0
M  V30 18379 H 1799.62 -1.55753 3.38815 0
M  V30 18380 N 1801.8 -1.57568 0.0317802 0
M  V30 18381 C 1803.05 -1.9191 -0.646281 0
M  V30 18382 C 1803.38 -0.908432 -1.71982 0
M  V30 18383 O 1802.63 0.0822426 -1.95527 0
M  V30 18384 C 1802.93 -3.32976 -1.29852 0
M  V30 18385 C 1802.6 -4.495 -0.355092 0
M  V30 18386 C 1801.26 -4.81105 -0.0954326 0
M  V30 18387 C 1803.61 -5.20378 0.292586 0
M  V30 18388 C 1800.94 -5.80946 0.819667 0
M  V30 18389 C 1803.29 -6.21196 1.19576 0
M  V30 18390 C 1801.96 -6.51241 1.46428 0
M  V30 18391 H 1801.23 -0.702249 -0.236491 0
M  V30 18392 H 1803.87 -1.91269 0.0941159 0
M  V30 18393 H 1802.18 -3.29892 -2.11373 0
M  V30 18394 H 1803.88 -3.5682 -1.82977 0
M  V30 18395 H 1800.47 -4.24824 -0.567652 0
M  V30 18396 H 1804.65 -4.96189 0.105041 0
M  V30 18397 H 1799.91 -6.02569 1.03538 0
M  V30 18398 H 1804.08 -6.75236 1.7038 0
M  V30 18399 H 1801.71 -7.28421 2.17502 0
M  V30 18400 N 1803.28 0.241399 -1.5574 0
M  V30 18401 C 1804.51 0.986075 -1.81891 0
M  V30 18402 C 1804.93 1.78734 -0.608254 0
M  V30 18403 O 1804.28 1.77527 0.423129 0
M  V30 18404 C 1804.33 1.91956 -3.06325 0
M  V30 18405 O 1804.05 1.15071 -4.22718 0
M  V30 18406 C 1805.56 2.77977 -3.45317 0
M  V30 18407 H 1802.78 0.289913 -0.605137 0
M  V30 18408 H 1805.32 0.262622 -2.02807 0
M  V30 18409 H 1803.47 2.59721 -2.87443 0
M  V30 18410 H 1803.89 1.78261 -4.93278 0
M  V30 18411 H 1805.36 3.39215 -4.35474 0
M  V30 18412 H 1805.84 3.49369 -2.66154 0
M  V30 18413 H 1806.45 2.15655 -3.66569 0
M  V30 18414 N 1804.76 1.49212 0.507292 0
M  V30 18415 C 1806.01 1.58616 1.26368 0
M  V30 18416 C 1806.34 0.269215 1.92325 0
M  V30 18417 O 1805.61 -0.72672 1.80414 0
M  V30 18418 C 1805.9 2.74088 2.33555 0
M  V30 18419 C 1805.75 4.15557 1.7214 0
M  V30 18420 C 1807.07 2.85225 3.35164 0
M  V30 18421 H 1804.19 0.577347 0.458083 0
M  V30 18422 H 1806.83 1.81473 0.562797 0
M  V30 18423 H 1804.98 2.5473 2.93335 0
M  V30 18424 H 1806.65 4.46416 1.16236 0
M  V30 18425 H 1804.9 4.21498 1.02576 0
M  V30 18426 H 1805.57 4.92215 2.49856 0
M  V30 18427 H 1808.04 3.02828 2.85367 0
M  V30 18428 H 1806.92 3.67709 4.07531 0
M  V30 18429 H 1807.18 1.94316 3.97107 0
M  V30 18430 N 1806.24 -0.757876 1.38181 0
M  V30 18431 C 1807.19 -1.87152 1.35065 0
M  V30 18432 C 1808.16 -1.64717 0.213892 0
M  V30 18433 O 1809.34 -1.86442 0.405448 0
M  V30 18434 C 1806.48 -3.24398 1.17728 0
M  V30 18435 C 1805.59 -3.58694 2.40754 0
M  V30 18436 C 1804.73 -4.85221 2.16181 0
M  V30 18437 C 1803.77 -5.1229 3.35001 0
M  V30 18438 N 1802.9 -6.3001 3.0989 0
M  V30 18439 H 1807.74 -1.89151 2.30274 0
M  V30 18440 H 1805.28 -0.924571 1.14412 0
M  V30 18441 H 1807.24 -4.0359 1.05694 0
M  V30 18442 H 1805.87 -3.21738 0.261606 0
M  V30 18443 H 1804.92 -2.74379 2.63477 0
M  V30 18444 H 1806.23 -3.74628 3.29325 0
M  V30 18445 H 1805.39 -5.72346 2.01258 0
M  V30 18446 H 1804.13 -4.71417 1.24969 0
M  V30 18447 H 1803.13 -4.23635 3.50448 0
M  V30 18448 H 1804.36 -5.27993 4.27083 0
M  V30 18449 H 1802.3 -6.17538 2.21321 0
M  V30 18450 H 1802.22 -6.46425 3.92009 0
M  V30 18451 H 1803.49 -7.20035 2.98613 0
M  V30 18452 N 1807.72 -1.22979 -0.985586 0
M  V30 18453 C 1808.96 -1.06033 -1.72872 0
M  V30 18454 C 1809.3 0.402572 -1.89982 0
M  V30 18455 O 1808.57 1.29824 -1.44831 0
M  V30 18456 C 1808.85 -1.78047 -3.13004 0
M  V30 18457 C 1808.71 -3.31979 -3.03497 0
M  V30 18458 C 1810.03 -1.53877 -4.12323 0
M  V30 18459 H 1807.14 -0.386594 -0.627466 0
M  V30 18460 H 1809.79 -1.51416 -1.14775 0
M  V30 18461 H 1807.94 -1.39469 -3.62603 0
M  V30 18462 H 1809.61 -3.80047 -2.61462 0
M  V30 18463 H 1807.85 -3.61279 -2.40125 0
M  V30 18464 H 1808.52 -3.7755 -4.02691 0
M  V30 18465 H 1811 -1.87402 -3.7151 0
M  V30 18466 H 1809.87 -2.06749 -5.08474 0
M  V30 18467 H 1810.14 -0.472972 -4.39563 0
M  V30 18468 N 1809.19 1.18355 -1.04066 0
M  V30 18469 C 1810.16 2.20195 -0.636148 0
M  V30 18470 C 1811.16 1.57853 0.306457 0
M  V30 18471 O 1812.35 1.73958 0.0918576 0
M  V30 18472 C 1809.48 3.40833 0.0673423 0
M  V30 18473 H 1810.67 2.57497 -1.53738 0
M  V30 18474 H 1808.23 1.32239 -0.833214 0
M  V30 18475 H 1808.96 3.09063 0.982371 0
M  V30 18476 H 1808.75 3.87324 -0.610145 0
M  V30 18477 H 1810.24 4.16239 0.336869 0
M  V30 18478 N 1810.67 0.820125 1.3458 0
M  V30 18479 C 1811.95 0.329573 1.92803 0
M  V30 18480 C 1812.33 -1.18271 1.74858 0
M  V30 18481 O 1811.68 -1.98851 1.12564 0
M  V30 18482 C 1811.89 0.755833 3.40717 0
M  V30 18483 C 1813.24 0.75306 4.17869 0
M  V30 18484 O 1814.26 0.698235 3.49289 0
M  V30 18485 O 1813.12 0.823708 5.40257 0
M  V30 18486 H 1810.21 0.0893898 0.822155 0
M  V30 18487 H 1812.76 0.904729 1.43571 0
M  V30 18488 H 1811.53 1.79757 3.47568 0
M  V30 18489 H 1811.15 0.15622 3.97293 0
M  V30 18490 N 1812.15 -1.46743 0.574835 0
M  V30 18491 C 1813.4 -2.02419 0.0574154 0
M  V30 18492 C 1813.73 -1.44723 -1.29944 0
M  V30 18493 O 1812.98 -0.599149 -1.86303 0
M  V30 18494 C 1813.28 -3.57338 -0.0666259 0
M  V30 18495 C 1812.95 -4.34036 1.22161 0
M  V30 18496 C 1811.61 -4.5471 1.57457 0
M  V30 18497 C 1813.96 -4.78137 2.07448 0
M  V30 18498 C 1811.29 -5.16735 2.77852 0
M  V30 18499 C 1813.64 -5.41492 3.27062 0
M  V30 18500 C 1812.3 -5.60394 3.6265 0
M  V30 18501 H 1811.57 -0.740702 0.0210098 0
M  V30 18502 H 1814.22 -1.76207 0.749892 0
M  V30 18503 H 1812.53 -3.82642 -0.842183 0
M  V30 18504 H 1814.22 -3.98085 -0.482605 0
M  V30 18505 H 1810.81 -4.18236 0.936826 0
M  V30 18506 H 1815 -4.61928 1.81484 0
M  V30 18507 H 1810.25 -5.29562 3.05572 0
M  V30 18508 H 1814.43 -5.74623 3.93422 0
M  V30 18509 H 1812.05 -6.08226 4.56032 0
M  V30 18510 N 1813.63 -0.312197 -1.54477 0
M  V30 18511 C 1814.88 0.293192 -1.99962 0
M  V30 18512 C 1815.2 1.53544 -1.20205 0
M  V30 18513 O 1814.47 1.93575 -0.300901 0
M  V30 18514 H 1813.05 0.111325 -0.738658 0
M  V30 18515 H 1815.71 -0.426116 -1.90185 0
M  V30 18516 H 1814.81 0.557482 -3.07081 0
M  V30 18517 N 1815.11 1.57549 -0.040136 0
M  V30 18518 C 1816.04 2.13912 0.936168 0
M  V30 18519 C 1817.02 1.05798 1.33194 0
M  V30 18520 O 1818.2 1.33685 1.40861 0
M  V30 18521 C 1815.33 2.67515 2.21479 0
M  V30 18522 C 1814.29 3.80513 1.95943 0
M  V30 18523 C 1813.61 4.20589 3.30165 0
M  V30 18524 C 1814.91 5.06124 1.28981 0
M  V30 18525 H 1816.61 2.9574 0.46674 0
M  V30 18526 H 1814.15 1.42262 0.223062 0
M  V30 18527 H 1816.11 3.05582 2.90168 0
M  V30 18528 H 1814.83 1.82864 2.70608 0
M  V30 18529 H 1813.49 3.42902 1.29669 0
M  V30 18530 H 1813.14 3.32904 3.77073 0
M  V30 18531 H 1812.84 4.96742 3.13881 0
M  V30 18532 H 1814.36 4.61248 4.00103 0
M  V30 18533 H 1815.77 5.41707 1.87687 0
M  V30 18534 H 1814.17 5.87347 1.2306 0
M  V30 18535 H 1815.24 4.84179 0.264286 0
M  V30 18536 N 1816.58 -0.233136 1.55866 0
M  V30 18537 C 1817.55 -1.27227 1.90646 0
M  V30 18538 C 1818.55 -1.4039 0.784038 0
M  V30 18539 O 1819.74 -1.38854 1.05191 0
M  V30 18540 C 1816.87 -2.64791 2.14706 0
M  V30 18541 H 1818.06 -0.975986 2.83575 0
M  V30 18542 H 1815.62 -0.473045 1.4897 0
M  V30 18543 H 1816.35 -2.99537 1.24291 0
M  V30 18544 H 1816.14 -2.56615 2.96464 0
M  V30 18545 H 1817.63 -3.39797 2.4275 0
M  V30 18546 N 1818.06 -1.49479 -0.499372 0
M  V30 18547 C 1819.48 -1.36278 -0.830692 0
M  V30 18548 C 1819.68 -0.397116 -1.97548 0
M  V30 18549 O 1818.74 0.170614 -2.51923 0
M  V30 18550 C 1820.05 -2.77031 -1.16937 0
M  V30 18551 C 1821.6 -2.85744 -1.27748 0
M  V30 18552 C 1822.07 -4.27267 -1.64944 0
M  V30 18553 N 1823.56 -4.30086 -1.7199 0
M  V30 18554 C 1824.3 -5.36559 -2.02218 0
M  V30 18555 N 1823.79 -6.53275 -2.30659 0
M  V30 18556 N 1825.59 -5.23976 -2.03483 0
M  V30 18557 H 1817.74 -2.10858 0.255497 0
M  V30 18558 H 1820 -0.946588 0.0517184 0
M  V30 18559 H 1819.71 -3.494 -0.401529 0
M  V30 18560 H 1819.58 -3.12501 -2.11242 0
M  V30 18561 H 1821.97 -2.13611 -2.03604 0
M  V30 18562 H 1822.05 -2.53854 -0.314901 0
M  V30 18563 H 1821.69 -4.99927 -0.896384 0
M  V30 18564 H 1821.62 -4.56622 -2.62305 0
M  V30 18565 H 1824.11 -3.45911 -1.52164 0
M  V30 18566 H 1824.43 -7.30241 -2.52918 0
M  V30 18567 H 1822.77 -6.56498 -2.28112 0
M  V30 18568 H 1825.96 -4.31799 -1.80741 0
M  V30 18569 H 1826.14 -6.07049 -2.26707 0
M  V30 18570 N 1819.54 0.750537 -1.38581 0
M  V30 18571 C 1820.82 1.50051 -1.25475 0
M  V30 18572 C 1821.2 2.10618 0.142521 0
M  V30 18573 O 1820.55 1.97317 1.15231 0
M  V30 18574 C 1820.76 2.56443 -2.36724 0
M  V30 18575 C 1822.1 3.23261 -2.75296 0
M  V30 18576 O 1823.13 2.66749 -2.36058 0
M  V30 18577 O 1821.99 4.25481 -3.4297 0
M  V30 18578 H 1819.08 0.665581 -0.490847 0
M  V30 18579 H 1821.63 0.785688 -1.50416 0
M  V30 18580 H 1820.4 2.09958 -3.30202 0
M  V30 18581 H 1820.02 3.35503 -2.13363 0
M  V30 18582 N 1821.02 1.235 0.979051 0
M  V30 18583 C 1822.27 1.06197 1.71479 0
M  V30 18584 C 1822.58 -0.401066 1.91444 0
M  V30 18585 O 1823.79 -0.69406 2.62479 0
M  V30 18586 C 1822.24 1.85189 3.08598 0
M  V30 18587 C 1821.85 3.35831 2.96516 0
M  V30 18588 C 1823.6 1.76379 3.86122 0
M  V30 18589 C 1821.5 4.0721 4.28875 0
M  V30 18590 H 1820.43 0.393779 0.643004 0
M  V30 18591 H 1823.08 1.47479 1.09188 0
M  V30 18592 H 1821.47 1.36714 3.71652 0
M  V30 18593 H 1822.64 3.91803 2.42543 0
M  V30 18594 H 1820.95 3.45469 2.32466 0
M  V30 18595 H 1823.55 2.2702 4.84114 0
M  V30 18596 H 1823.89 0.726826 4.09906 0
M  V30 18597 H 1824.43 2.22473 3.29773 0
M  V30 18598 H 1821.17 5.11218 4.10288 0
M  V30 18599 H 1820.69 3.56025 4.82707 0
M  V30 18600 H 1822.37 4.13579 4.97555 0
M  V30 18601 N 1822.5 -1.17802 1.04693 0
M  V30 18602 C 1823.43 -2.23847 0.664448 0
M  V30 18603 C 1824.41 -1.66761 -0.335356 0
M  V30 18604 O 1825.59 -1.93017 -0.214062 0
M  V30 18605 C 1822.72 -3.47284 0.0331587 0
M  V30 18606 C 1821.68 -4.1716 0.95718 0
M  V30 18607 C 1821 -5.34362 0.190034 0
M  V30 18608 C 1822.3 -4.69951 2.2791 0
M  V30 18609 H 1824 -2.56095 1.55099 0
M  V30 18610 H 1821.54 -1.23097 0.747196 0
M  V30 18611 H 1823.5 -4.2068 -0.246178 0
M  V30 18612 H 1822.22 -3.14288 -0.888294 0
M  V30 18613 H 1820.88 -3.45669 1.221 0
M  V30 18614 H 1820.53 -4.97615 -0.734025 0
M  V30 18615 H 1820.23 -5.8205 0.805684 0
M  V30 18616 H 1821.75 -6.10545 -0.0821372 0
M  V30 18617 H 1823.17 -5.3501 2.06003 0
M  V30 18618 H 1821.56 -5.28198 2.84828 0
M  V30 18619 H 1822.63 -3.87032 2.9212 0
M  V30 18620 N 1823.98 -0.827251 -1.34143 0
M  V30 18621 C 1825.25 -0.339793 -1.92626 0
M  V30 18622 C 1825.63 1.17342 -1.75482 0
M  V30 18623 O 1824.98 1.98251 -1.13616 0
M  V30 18624 C 1825.19 -0.773891 -3.40312 0
M  V30 18625 C 1826.54 -0.77521 -4.17463 0
M  V30 18626 O 1827.56 -0.716748 -3.48914 0
M  V30 18627 O 1826.42 -0.852347 -5.39812 0
M  V30 18628 H 1823.52 -0.0937486 -0.821669 0
M  V30 18629 H 1826.06 -0.91233 -1.4309 0
M  V30 18630 H 1824.83 -1.81597 -3.46609 0
M  V30 18631 H 1824.46 -0.177287 -3.97205 0
M  V30 18632 N 1825.45 1.46436 -0.582609 0
M  V30 18633 C 1826.87 1.5772 -0.244278 0
M  V30 18634 C 1827.07 1.57772 1.2534 0
M  V30 18635 O 1826.13 1.49463 2.03512 0
M  V30 18636 C 1827.44 2.87122 -0.893398 0
M  V30 18637 C 1828.99 3.00753 -0.866979 0
M  V30 18638 C 1829.46 4.32891 -1.49564 0
M  V30 18639 N 1830.95 4.3959 -1.45998 0
M  V30 18640 C 1831.69 5.40449 -1.91578 0
M  V30 18641 N 1831.18 6.47983 -2.45132 0
M  V30 18642 N 1832.98 5.3165 -1.82496 0
M  V30 18643 H 1825.13 1.44646 -1.55536 0
M  V30 18644 H 1827.39 0.689972 -0.650109 0
M  V30 18645 H 1827.1 2.92894 -1.94695 0
M  V30 18646 H 1826.97 3.75056 -0.40156 0
M  V30 18647 H 1829.36 2.94563 0.177954 0
M  V30 18648 H 1829.44 2.14295 -1.39684 0
M  V30 18649 H 1829.08 4.39839 -2.53977 0
M  V30 18650 H 1829.01 5.18124 -0.94101 0
M  V30 18651 H 1831.5 3.62479 -1.06851 0
M  V30 18652 H 1831.82 7.21154 -2.7777 0
M  V30 18653 H 1830.16 6.48803 -2.49157 0
M  V30 18654 H 1833.35 4.46543 -1.40416 0
M  V30 18655 H 1833.53 6.1011 -2.18334 0
M  V30 18656 N 1826.93 0.320385 1.54309 0
M  V30 18657 C 1827.84 -0.556017 2.27916 0
M  V30 18658 C 1828.86 -1.13192 1.32149 0
M  V30 18659 O 1830.03 -1.15257 1.6516 0
M  V30 18660 C 1827.1 -1.70244 3.02023 0
M  V30 18661 C 1826.16 -1.15866 4.13369 0
M  V30 18662 C 1825.39 -2.25044 4.83933 0
M  V30 18663 O 1825.62 -3.45327 4.53988 0
M  V30 18664 O 1824.55 -1.90642 5.70911 0
M  V30 18665 H 1828.38 0.0416563 3.03671 0
M  V30 18666 H 1825.96 0.0861809 1.49151 0
M  V30 18667 H 1827.84 -2.36995 3.48442 0
M  V30 18668 H 1826.52 -2.28635 2.29146 0
M  V30 18669 H 1825.42 -0.456323 3.71306 0
M  V30 18670 H 1826.76 -0.619916 4.88281 0
M  V30 18671 N 1828.41 -1.57525 0.0484906 0
M  V30 18672 C 1829.64 -1.96611 -0.634631 0
M  V30 18673 C 1830.05 -0.924571 -1.65071 0
M  V30 18674 O 1829.39 0.0999398 -1.83428 0
M  V30 18675 C 1829.45 -3.31924 -1.38082 0
M  V30 18676 C 1829.12 -4.54022 -0.520883 0
M  V30 18677 C 1830.11 -5.19468 0.21192 0
M  V30 18678 C 1827.8 -5.00257 -0.452595 0
M  V30 18679 C 1829.79 -6.29483 1.00148 0
M  V30 18680 C 1827.48 -6.1015 0.340652 0
M  V30 18681 C 1828.48 -6.74624 1.06638 0
M  V30 18682 O 1828.17 -7.82404 1.84659 0
M  V30 18683 H 1827.9 -0.652007 -0.178503 0
M  V30 18684 H 1830.45 -2.05103 0.110397 0
M  V30 18685 H 1828.68 -3.19979 -2.17142 0
M  V30 18686 H 1830.37 -3.55777 -1.95392 0
M  V30 18687 H 1831.14 -4.84707 0.168615 0
M  V30 18688 H 1827.02 -4.49866 -1.00706 0
M  V30 18689 H 1830.56 -6.79739 1.56844 0
M  V30 18690 H 1826.46 -6.44347 0.385605 0
M  V30 18691 H 1827.22 -7.99168 1.76842 0
M  V30 18692 N 1829.89 0.224867 -1.55988 0
M  V30 18693 C 1831.12 0.965325 -1.82661 0
M  V30 18694 C 1831.53 1.78581 -0.624935 0
M  V30 18695 O 1830.87 1.7893 0.415886 0
M  V30 18696 C 1830.93 1.93444 -3.03018 0
M  V30 18697 C 1830.59 1.29879 -4.38156 0
M  V30 18698 C 1831.59 0.69031 -5.15297 0
M  V30 18699 C 1829.28 1.31155 -4.84875 0
M  V30 18700 C 1831.27 0.103067 -6.37317 0
M  V30 18701 C 1828.96 0.720461 -6.06838 0
M  V30 18702 C 1829.96 0.11727 -6.82899 0
M  V30 18703 O 1829.64 -0.464631 -8.02556 0
M  V30 18704 H 1829.38 0.288651 -0.611275 0
M  V30 18705 H 1831.93 0.246237 -2.03919 0
M  V30 18706 H 1830.16 2.69243 -2.7757 0
M  V30 18707 H 1831.85 2.54017 -3.16592 0
M  V30 18708 H 1832.61 0.672801 -4.80311 0
M  V30 18709 H 1828.49 1.77044 -4.25648 0
M  V30 18710 H 1832.04 -0.368366 -6.96627 0
M  V30 18711 H 1827.93 0.735372 -6.41298 0
M  V30 18712 H 1828.7 -0.358628 -8.17714 0
M  V30 18713 N 1831.37 1.49742 0.491438 0
M  V30 18714 C 1832.59 1.63703 1.27343 0
M  V30 18715 C 1833.02 0.312079 1.85493 0
M  V30 18716 O 1832.37 -0.721545 1.66323 0
M  V30 18717 C 1832.42 2.71549 2.37262 0
M  V30 18718 O 1831.53 2.31387 3.41371 0
M  V30 18719 H 1830.87 0.547605 0.375533 0
M  V30 18720 H 1833.4 1.95991 0.587243 0
M  V30 18721 H 1833.41 2.94009 2.82883 0
M  V30 18722 H 1832.08 3.6772 1.94306 0
M  V30 18723 H 1830.66 2.19295 3.01603 0
M  V30 18724 N 1832.84 -0.743177 1.38977 0
M  V30 18725 C 1834.09 -1.50479 1.35956 0
M  V30 18726 C 1834.42 -1.94143 -0.0471116 0
M  V30 18727 O 1833.7 -1.66195 -1.01042 0
M  V30 18728 C 1833.98 -2.75016 2.32461 0
M  V30 18729 C 1833.83 -2.37423 3.82034 0
M  V30 18730 C 1835.15 -3.77084 2.26927 0
M  V30 18731 H 1832.27 -0.545869 0.495172 0
M  V30 18732 H 1834.91 -0.850403 1.69906 0
M  V30 18733 H 1833.06 -3.30852 2.03639 0
M  V30 18734 H 1834.74 -1.87282 4.21572 0
M  V30 18735 H 1832.98 -1.69752 3.99208 0
M  V30 18736 H 1833.65 -3.2657 4.45035 0
M  V30 18737 H 1836.13 -3.30812 2.52394 0
M  V30 18738 H 1835 -4.61901 2.96545 0
M  V30 18739 H 1835.26 -4.23419 1.27156 0
M  V30 18740 N 1834.32 -1.24018 -0.972487 0
M  V30 18741 C 1835.25 -0.986185 -2.06899 0
M  V30 18742 C 1836.27 0.0426574 -1.62744 0
M  V30 18743 O 1837.46 -0.193816 -1.77445 0
M  V30 18744 C 1834.56 -0.46551 -3.35688 0
M  V30 18745 C 1833.73 -1.55637 -4.08774 0
M  V30 18746 C 1832.79 -1.03918 -5.15837 0
M  V30 18747 O 1831.81 -1.72986 -5.42277 0
M  V30 18748 N 1833.02 0.128891 -5.80357 0
M  V30 18749 H 1835.78 -1.93025 -2.29263 0
M  V30 18750 H 1833.34 -1.14983 -1.13976 0
M  V30 18751 H 1835.33 -0.104379 -4.04565 0
M  V30 18752 H 1833.9 0.384166 -3.1023 0
M  V30 18753 H 1833.12 -2.08991 -3.3424 0
M  V30 18754 H 1834.41 -2.28973 -4.54366 0
M  V30 18755 H 1833.81 0.706438 -5.61272 0
M  V30 18756 H 1832.37 0.431211 -6.50372 0
M  V30 18757 N 1835.8 1.17245 -1.05316 0
M  V30 18758 C 1836.73 2.20844 -0.613228 0
M  V30 18759 C 1837.75 1.5955 0.323671 0
M  V30 18760 O 1838.93 1.78121 0.116209 0
M  V30 18761 C 1836.03 3.38679 0.122482 0
M  V30 18762 C 1835.21 4.29541 -0.825429 0
M  V30 18763 C 1834.27 5.26038 -0.130752 0
M  V30 18764 O 1833.29 5.64032 -0.765248 0
M  V30 18765 N 1834.49 5.69369 1.13136 0
M  V30 18766 H 1837.26 2.5921 -1.50434 0
M  V30 18767 H 1834.82 1.32156 -0.935221 0
M  V30 18768 H 1836.81 4.00267 0.597368 0
M  V30 18769 H 1835.38 2.989 0.915278 0
M  V30 18770 H 1834.6 3.65366 -1.47991 0
M  V30 18771 H 1835.89 4.87138 -1.46882 0
M  V30 18772 H 1835.29 5.40576 1.66716 0
M  V30 18773 H 1833.85 6.33095 1.55029 0
M  V30 18774 N 1837.28 0.834353 1.33702 0
M  V30 18775 C 1838.23 0.236483 2.2677 0
M  V30 18776 C 1839.21 -0.605904 1.49056 0
M  V30 18777 O 1840.4 -0.458611 1.70955 0
M  V30 18778 C 1837.53 -0.591264 3.3817 0
M  V30 18779 C 1836.62 0.262381 4.23288 0
M  V30 18780 N 1837.01 1.33892 4.87757 0
M  V30 18781 C 1835.31 0.0486456 4.45973 0
M  V30 18782 C 1836.01 1.86242 5.5108 0
M  V30 18783 N 1834.99 1.16457 5.30979 0
M  V30 18784 H 1838.79 1.05979 2.74127 0
M  V30 18785 H 1836.3 0.678337 1.47555 0
M  V30 18786 H 1838.3 -1.03584 4.03827 0
M  V30 18787 H 1836.96 -1.4126 2.92362 0
M  V30 18788 H 1837.97 1.72179 4.88441 0
M  V30 18789 H 1834.65 -0.739613 4.10897 0
M  V30 18790 H 1836.04 2.76369 6.12429 0
M  V30 18791 N 1838.76 -1.46125 0.590367 0
M  V30 18792 C 1840.17 -1.57588 0.252639 0
M  V30 18793 C 1840.37 -1.58435 -1.24502 0
M  V30 18794 O 1839.43 -1.50541 -2.02716 0
M  V30 18795 C 1840.74 -2.86644 0.908612 0
M  V30 18796 C 1842.29 -3.00289 0.882917 0
M  V30 18797 C 1842.76 -4.32092 1.51858 0
M  V30 18798 N 1844.26 -4.38809 1.48327 0
M  V30 18799 C 1844.99 -5.39426 1.94442 0
M  V30 18800 N 1844.49 -6.46674 2.48565 0
M  V30 18801 N 1846.28 -5.30675 1.85313 0
M  V30 18802 H 1838.43 -1.43819 1.56301 0
M  V30 18803 H 1840.69 -0.686515 0.653759 0
M  V30 18804 H 1840.4 -2.91857 1.96246 0
M  V30 18805 H 1840.27 -3.74838 0.421445 0
M  V30 18806 H 1842.66 -2.94653 -0.16233 0
M  V30 18807 H 1842.74 -2.13551 1.40818 0
M  V30 18808 H 1842.39 -4.38486 2.56306 0
M  V30 18809 H 1842.32 -5.17618 0.968474 0
M  V30 18810 H 1844.81 -3.61907 1.08772 0
M  V30 18811 H 1845.12 -7.19671 2.8159 0
M  V30 18812 H 1843.46 -6.47473 2.52595 0
M  V30 18813 H 1846.66 -4.45793 1.42782 0
M  V30 18814 H 1846.83 -6.08943 2.21567 0
M  V30 18815 N 1840.23 -0.328564 -1.54137 0
M  V30 18816 C 1841.18 0.550772 -2.21248 0
M  V30 18817 C 1842.17 1.07776 -1.19471 0
M  V30 18818 O 1843.36 1.01395 -1.4508 0
M  V30 18819 C 1840.49 1.70871 -2.97755 0
M  V30 18820 C 1839.58 1.19638 -4.06875 0
M  V30 18821 N 1839.97 0.404108 -5.04183 0
M  V30 18822 C 1838.26 1.47465 -4.20916 0
M  V30 18823 C 1838.97 0.127848 -5.81559 0
M  V30 18824 N 1837.94 0.715362 -5.38872 0
M  V30 18825 H 1841.74 -0.0617731 -2.93835 0
M  V30 18826 H 1839.26 -0.13467 -1.61841 0
M  V30 18827 H 1841.25 2.35048 -3.44322 0
M  V30 18828 H 1839.91 2.32468 -2.26691 0
M  V30 18829 H 1840.93 0.046507 -5.17879 0
M  V30 18830 H 1837.6 2.0961 -3.61067 0
M  V30 18831 H 1838.99 -0.510286 -6.69959 0
M  V30 18832 N 1841.71 1.57497 -0.0568439 0
M  V30 18833 C 1842.68 2.10755 0.900823 0
M  V30 18834 C 1843.68 1.02835 1.23619 0
M  V30 18835 O 1844.87 1.28885 1.17194 0
M  V30 18836 C 1842 2.5965 2.20895 0
M  V30 18837 H 1843.19 2.96669 0.439041 0
M  V30 18838 H 1840.74 1.55121 0.191646 0
M  V30 18839 H 1841.48 1.77147 2.71642 0
M  V30 18840 H 1841.26 3.3852 1.97855 0
M  V30 18841 H 1842.75 3.00982 2.89482 0
M  V30 18842 N 1843.19 -0.216591 1.56105 0
M  V30 18843 C 1844.61 -0.56651 1.49207 0
M  V30 18844 C 1844.81 -1.86906 0.752882 0
M  V30 18845 O 1843.86 -2.50776 0.294573 0
M  V30 18846 C 1845.18 -0.641146 2.93785 0
M  V30 18847 C 1846.72 -0.731439 3.04334 0
M  V30 18848 C 1847.2 -0.837376 4.5028 0
M  V30 18849 N 1848.69 -0.901468 4.54343 0
M  V30 18850 C 1849.42 -1.00323 5.64555 0
M  V30 18851 N 1848.92 -1.06864 6.84509 0
M  V30 18852 N 1850.71 -1.03876 5.52419 0
M  V30 18853 H 1842.86 0.638091 2.02589 0
M  V30 18854 H 1845.13 0.224543 0.921024 0
M  V30 18855 H 1844.83 0.246454 3.50835 0
M  V30 18856 H 1844.71 -1.5031 3.45958 0
M  V30 18857 H 1847.09 -1.60948 2.47346 0
M  V30 18858 H 1847.18 0.15628 2.55322 0
M  V30 18859 H 1846.82 0.0362262 5.07887 0
M  V30 18860 H 1846.75 -1.74058 4.97002 0
M  V30 18861 H 1849.24 -0.861039 3.6796 0
M  V30 18862 H 1849.55 -1.1462 7.64253 0
M  V30 18863 H 1847.9 -1.03768 6.8721 0
M  V30 18864 H 1851.09 -0.984348 4.57633 0
M  V30 18865 H 1851.26 -1.11461 6.38342 0
M  V30 18866 N 1844.67 -1.5 -0.48349 0
M  V30 18867 C 1845.6 -1.70879 -1.5913 0
M  V30 18868 C 1846.58 -0.557606 -1.60701 0
M  V30 18869 O 1847.76 -0.79539 -1.77164 0
M  V30 18870 C 1844.89 -1.7915 -2.97527 0
M  V30 18871 C 1843.85 -2.94233 -3.10823 0
M  V30 18872 C 1843.17 -2.87634 -4.50745 0
M  V30 18873 C 1844.47 -4.34925 -2.89202 0
M  V30 18874 H 1846.17 -2.63632 -1.41911 0
M  V30 18875 H 1843.71 -1.26865 -0.68127 0
M  V30 18876 H 1845.67 -1.92342 -3.74943 0
M  V30 18877 H 1844.39 -0.830106 -3.15875 0
M  V30 18878 H 1843.05 -2.80672 -2.35837 0
M  V30 18879 H 1842.7 -1.89365 -4.65993 0
M  V30 18880 H 1842.4 -3.64885 -4.60579 0
M  V30 18881 H 1843.92 -3.02857 -5.30198 0
M  V30 18882 H 1845.34 -4.49076 -3.56376 0
M  V30 18883 H 1843.73 -5.13531 -3.10492 0
M  V30 18884 H 1844.8 -4.48154 -1.85165 0
M  V30 18885 N 1846.15 0.735796 -1.39369 0
M  V30 18886 C 1847.56 1.31402 -1.32628 0
M  V30 18887 C 1847.91 1.96198 0.00972836 0
M  V30 18888 O 1847.03 1.9625 0.91185 0
M  V30 18889 C 1847.63 2.38934 -2.402 0
M  V30 18890 C 1846.19 2.92432 -2.36982 0
M  V30 18891 C 1845.33 1.65992 -2.2213 0
M  V30 18892 H 1848.29 0.533364 -1.49469 0
M  V30 18893 H 1848.31 3.19304 -2.06942 0
M  V30 18894 H 1847.82 1.91745 -3.37425 0
M  V30 18895 H 1845.92 3.43903 -1.43394 0
M  V30 18896 H 1846.03 3.456 -3.31809 0
M  V30 18897 H 1844.4 1.90298 -1.69289 0
M  V30 18898 H 1845.18 1.20857 -3.21323 0
M  V30 18899 N 1847.63 1.24532 0.965897 0
M  V30 18900 C 1848.87 1.0877 1.71163 0
M  V30 18901 C 1849.2 -0.372297 1.90598 0
M  V30 18902 O 1848.48 -1.27503 1.46878 0
M  V30 18903 C 1848.76 1.83004 3.10131 0
M  V30 18904 C 1848.62 3.36765 2.98177 0
M  V30 18905 C 1849.93 1.60417 4.09822 0
M  V30 18906 H 1847.05 0.396528 0.621236 0
M  V30 18907 H 1849.7 1.53223 1.12351 0
M  V30 18908 H 1847.85 1.4522 3.60338 0
M  V30 18909 H 1849.52 3.84158 2.55382 0
M  V30 18910 H 1847.76 3.65053 2.34347 0
M  V30 18911 H 1848.43 3.83909 3.96633 0
M  V30 18912 H 1850.91 1.93289 3.68482 0
M  V30 18913 H 1849.78 2.14812 5.05121 0
M  V30 18914 H 1850.04 0.542843 4.38755 0
M  V30 18915 N 1849.1 -1.16685 1.05936 0
M  V30 18916 C 1850.05 -2.20953 0.66695 0
M  V30 18917 C 1851.02 -1.62694 -0.334621 0
M  V30 18918 O 1852.21 -1.89477 -0.22433 0
M  V30 18919 C 1849.35 -3.45055 0.0557459 0
M  V30 18920 C 1848.46 -4.17574 1.10706 0
M  V30 18921 C 1847.59 -5.29184 0.462377 0
M  V30 18922 C 1846.63 -5.935 1.49748 0
M  V30 18923 N 1845.77 -6.96608 0.876416 0
M  V30 18924 H 1850.61 -2.53872 1.56054 0
M  V30 18925 H 1848.15 -1.24697 0.780321 0
M  V30 18926 H 1850.1 -4.16001 -0.316125 0
M  V30 18927 H 1848.73 -3.12697 -0.801265 0
M  V30 18928 H 1847.79 -3.45269 1.59668 0
M  V30 18929 H 1849.1 -4.61505 1.89248 0
M  V30 18930 H 1848.25 -6.06689 0.0373376 0
M  V30 18931 H 1846.99 -4.86407 -0.354955 0
M  V30 18932 H 1846 -5.1472 1.93245 0
M  V30 18933 H 1847.22 -6.38357 2.31684 0
M  V30 18934 H 1845.17 -6.55952 0.0797299 0
M  V30 18935 H 1845.08 -7.38891 1.59927 0
M  V30 18936 H 1846.35 -7.78043 0.4764 0
M  V30 18937 N 1850.58 -0.841432 -1.33258 0
M  V30 18938 C 1851.83 -0.448266 -1.98399 0
M  V30 18939 C 1852.18 0.98224 -1.65438 0
M  V30 18940 O 1851.48 1.67775 -0.925309 0
M  V30 18941 C 1851.67 -0.608921 -3.52175 0
M  V30 18942 C 1851.5 -2.05349 -4.00077 0
M  V30 18943 C 1850.27 -2.68926 -4.27793 0
M  V30 18944 C 1852.47 -3.02253 -4.1611 0
M  V30 18945 N 1850.45 -4.04432 -4.61853 0
M  V30 18946 C 1851.82 -4.22712 -4.53558 0
M  V30 18947 C 1853.87 -2.98624 -3.98407 0
M  V30 18948 C 1852.58 -5.40021 -4.75152 0
M  V30 18949 C 1854.6 -4.15166 -4.21178 0
M  V30 18950 C 1853.97 -5.3438 -4.5893 0
M  V30 18951 H 1850.06 -0.212508 -0.752572 0
M  V30 18952 H 1852.65 -1.09004 -1.61327 0
M  V30 18953 H 1850.82 0.00306614 -3.884 0
M  V30 18954 H 1852.55 -0.186948 -4.04268 0
M  V30 18955 H 1849.31 -2.20046 -4.19376 0
M  V30 18956 H 1849.73 -4.74293 -4.83089 0
M  V30 18957 H 1854.37 -2.07585 -3.68332 0
M  V30 18958 H 1852.09 -6.31603 -5.04087 0
M  V30 18959 H 1855.68 -4.13779 -4.08997 0
M  V30 18960 H 1854.56 -6.2306 -4.762 0
M  V30 18961 N 1852.06 1.4581 -0.598108 0
M  V30 18962 C 1852.99 2.27529 0.174933 0
M  V30 18963 C 1853.97 1.36565 0.882546 0
M  V30 18964 O 1855.15 1.65987 0.893332 0
M  V30 18965 C 1852.28 3.14698 1.25232 0
M  V30 18966 C 1851.33 4.21535 0.648877 0
M  V30 18967 S 1852.16 5.3281 -0.53603 0
M  V30 18968 C 1853.32 6.23547 0.542182 0
M  V30 18969 H 1853.55 2.92745 -0.518405 0
M  V30 18970 H 1851.08 1.49513 -0.385382 0
M  V30 18971 H 1853.04 3.65479 1.86909 0
M  V30 18972 H 1851.7 2.48764 1.91768 0
M  V30 18973 H 1850.89 4.82414 1.45922 0
M  V30 18974 H 1850.5 3.73846 0.107447 0
M  V30 18975 H 1852.79 6.6237 1.4238 0
M  V30 18976 H 1853.73 7.08094 -0.0302138 0
M  V30 18977 H 1854.14 5.58014 0.85325 0
M  V30 18978 N 1853.54 0.336733 1.53961 0
M  V30 18979 C 1854.5 -0.510638 2.23439 0
M  V30 18980 C 1855.5 -1.03304 1.23227 0
M  V30 18981 O 1856.69 -0.923373 1.47714 0
M  V30 18982 C 1853.82 -1.71063 2.94873 0
M  V30 18983 H 1855.02 0.0969205 2.99743 0
M  V30 18984 H 1852.57 0.0879867 1.56052 0
M  V30 18985 H 1853.3 -2.35707 2.22739 0
M  V30 18986 H 1853.09 -1.34331 3.68371 0
M  V30 18987 H 1854.58 -2.31182 3.47771 0
M  V30 18988 N 1855.02 -1.57465 0.0651956 0
M  V30 18989 C 1855.95 -2.15374 -0.902018 0
M  V30 18990 C 1856.93 -1.07904 -1.31494 0
M  V30 18991 O 1858.11 -1.35909 -1.38717 0
M  V30 18992 C 1855.24 -2.71005 -2.17195 0
M  V30 18993 C 1854.2 -3.83583 -1.89864 0
M  V30 18994 C 1853.52 -4.25789 -3.23432 0
M  V30 18995 C 1854.82 -5.08112 -1.20913 0
M  V30 18996 H 1856.52 -2.96445 -0.419631 0
M  V30 18997 H 1854.06 -1.42599 -0.200401 0
M  V30 18998 H 1856.01 -3.1016 -2.8527 0
M  V30 18999 H 1854.74 -1.87146 -2.67664 0
M  V30 19000 H 1853.4 -3.44921 -1.24197 0
M  V30 19001 H 1853.05 -3.38861 -3.71729 0
M  V30 19002 H 1852.75 -5.01673 -3.05938 0
M  V30 19003 H 1854.27 -4.67555 -3.92715 0
M  V30 19004 H 1855.68 -5.44624 -1.79046 0
M  V30 19005 H 1854.08 -5.8923 -1.137 0
M  V30 19006 H 1855.15 -4.84538 -0.187224 0
M  V30 19007 N 1856.49 0.20831 -1.56217 0
M  V30 19008 C 1857.4 1.27891 -1.96675 0
M  V30 19009 C 1858.42 1.50546 -0.87246 0
M  V30 19010 O 1859.6 1.63418 -1.17713 0
M  V30 19011 C 1856.66 2.60598 -2.28669 0
M  V30 19012 C 1855.72 2.4613 -3.51736 0
M  V30 19013 C 1854.95 3.72509 -3.82195 0
M  V30 19014 O 1855.18 4.76105 -3.14133 0
M  V30 19015 O 1854.11 3.68828 -4.75657 0
M  V30 19016 H 1857.94 0.965607 -2.8794 0
M  V30 19017 H 1855.52 0.412249 -1.436 0
M  V30 19018 H 1857.4 3.38949 -2.50383 0
M  V30 19019 H 1856.08 2.91583 -1.40575 0
M  V30 19020 H 1854.99 1.65935 -3.35286 0
M  V30 19021 H 1856.32 2.20082 -4.40255 0
M  V30 19022 N 1857.97 1.50255 0.475528 0
M  V30 19023 C 1859.2 1.65044 1.25599 0
M  V30 19024 C 1859.62 0.331736 1.85152 0
M  V30 19025 O 1858.98 -0.703863 1.67079 0
M  V30 19026 C 1859.03 2.7405 2.34369 0
M  V30 19027 O 1858.13 2.34994 3.38897 0
M  V30 19028 H 1857.47 0.551557 0.369704 0
M  V30 19029 H 1860 1.96603 0.566422 0
M  V30 19030 H 1860.01 2.96993 2.79749 0
M  V30 19031 H 1858.69 3.6976 1.90395 0
M  V30 19032 H 1857.26 2.22481 2.9926 0
M  V30 19033 N 1859.45 -0.728395 1.39758 0
M  V30 19034 C 1860.38 -1.85554 1.41747 0
M  V30 19035 C 1861.36 -1.6778 0.279972 0
M  V30 19036 O 1862.55 -1.88001 0.48675 0
M  V30 19037 C 1859.68 -3.23375 1.26671 0
M  V30 19038 C 1858.63 -3.55799 2.37889 0
M  V30 19039 C 1857.96 -4.92628 2.07899 0
M  V30 19040 C 1859.26 -3.58098 3.80215 0
M  V30 19041 H 1860.95 -1.84146 2.36073 0
M  V30 19042 H 1858.5 -0.884539 1.13631 0
M  V30 19043 H 1860.45 -4.01907 1.26682 0
M  V30 19044 H 1859.17 -3.25326 0.288159 0
M  V30 19045 H 1857.83 -2.796 2.37107 0
M  V30 19046 H 1857.48 -4.91166 1.08466 0
M  V30 19047 H 1857.18 -5.15288 2.82404 0
M  V30 19048 H 1858.7 -5.73509 2.09571 0
M  V30 19049 H 1860.12 -4.26694 3.82891 0
M  V30 19050 H 1858.51 -3.9228 4.54133 0
M  V30 19051 H 1859.58 -2.57758 4.10718 0
M  V30 19052 N 1860.93 -1.25042 -0.959279 0
M  V30 19053 C 1861.86 -1.00807 -2.05841 0
M  V30 19054 C 1862.87 0.0253938 -1.6278 0
M  V30 19055 O 1864.06 -0.212625 -1.77229 0
M  V30 19056 C 1861.16 -0.501088 -3.35175 0
M  V30 19057 C 1860.33 -1.59964 -4.071 0
M  V30 19058 C 1859.39 -1.09383 -5.14705 0
M  V30 19059 O 1858.42 -1.78728 -5.40412 0
M  V30 19060 N 1859.62 0.0673296 -5.80461 0
M  V30 19061 H 1862.39 -1.95446 -2.27203 0
M  V30 19062 H 1859.95 -1.16185 -1.1275 0
M  V30 19063 H 1861.94 -0.147283 -4.04432 0
M  V30 19064 H 1860.51 0.351241 -3.1062 0
M  V30 19065 H 1859.73 -2.12524 -3.32005 0
M  V30 19066 H 1861.02 -2.3378 -4.51912 0
M  V30 19067 H 1860.42 0.646867 -5.61989 0
M  V30 19068 H 1858.97 0.362206 -6.50793 0
M  V30 19069 N 1862.41 1.16121 -1.06553 0
M  V30 19070 C 1863.63 1.90611 -0.804673 0
M  V30 19071 C 1864.05 1.77576 0.641255 0
M  V30 19072 O 1863.41 1.12218 1.43921 0
M  V30 19073 C 1863.46 3.41231 -1.19348 0
M  V30 19074 O 1863.18 3.53879 -2.58266 0
M  V30 19075 C 1864.68 4.32764 -0.960738 0
M  V30 19076 H 1861.9 0.604358 -0.291534 0
M  V30 19077 H 1864.44 1.47174 -1.41986 0
M  V30 19078 H 1862.6 3.82361 -0.622772 0
M  V30 19079 H 1863.01 4.47298 -2.73907 0
M  V30 19080 H 1864.49 5.36898 -1.28238 0
M  V30 19081 H 1864.96 4.39078 0.103389 0
M  V30 19082 H 1865.57 3.97365 -1.51595 0
M  V30 19083 N 1863.88 0.848487 1.3281 0
M  V30 19084 C 1865.11 0.461973 2.01369 0
M  V30 19085 C 1865.52 -0.944176 1.63957 0
M  V30 19086 O 1864.87 -1.62659 0.853677 0
M  V30 19087 C 1864.93 0.514163 3.55804 0
M  V30 19088 C 1864.59 1.87812 4.16624 0
M  V30 19089 C 1865.59 2.84271 4.353 0
M  V30 19090 C 1863.27 2.17358 4.52836 0
M  V30 19091 C 1865.27 4.08433 4.89348 0
M  V30 19092 C 1862.95 3.41774 5.0659 0
M  V30 19093 C 1863.95 4.37128 5.24793 0
M  V30 19094 O 1863.64 5.59342 5.774 0
M  V30 19095 H 1863.37 0.180645 0.651416 0
M  V30 19096 H 1865.93 1.14535 1.70502 0
M  V30 19097 H 1864.16 -0.226037 3.86039 0
M  V30 19098 H 1865.85 0.14412 4.05644 0
M  V30 19099 H 1866.61 2.62747 4.07663 0
M  V30 19100 H 1862.49 1.43927 4.37957 0
M  V30 19101 H 1866.03 4.82869 5.03471 0
M  V30 19102 H 1861.93 3.63151 5.33659 0
M  V30 19103 H 1862.7 5.61215 5.95802 0
M  V30 19104 N 1865.36 -1.4549 0.605832 0
M  V30 19105 C 1866.78 -1.57311 0.269339 0
M  V30 19106 C 1866.98 -1.59746 -1.22814 0
M  V30 19107 O 1866.03 -1.52682 -2.01108 0
M  V30 19108 C 1867.35 -2.85664 0.938963 0
M  V30 19109 C 1868.9 -2.99336 0.914717 0
M  V30 19110 C 1869.37 -4.30457 1.56432 0
M  V30 19111 N 1870.86 -4.37211 1.52973 0
M  V30 19112 C 1871.6 -5.37333 2.00152 0
M  V30 19113 N 1871.09 -6.44001 2.5541 0
M  V30 19114 N 1872.89 -5.28679 1.90931 0
M  V30 19115 H 1865.04 -1.42153 1.57817 0
M  V30 19116 H 1867.3 -0.679542 0.661004 0
M  V30 19117 H 1867.01 -2.89759 1.9933 0
M  V30 19118 H 1866.88 -3.7437 0.461178 0
M  V30 19119 H 1869.27 -2.94809 -0.131069 0
M  V30 19120 H 1869.35 -2.12045 1.43075 0
M  V30 19121 H 1868.99 -4.35742 2.60942 0
M  V30 19122 H 1868.92 -5.16561 1.02332 0
M  V30 19123 H 1871.41 -3.60733 1.12605 0
M  V30 19124 H 1871.73 -7.16644 2.89208 0
M  V30 19125 H 1870.07 -6.44757 2.59448 0
M  V30 19126 H 1873.26 -4.44253 1.47502 0
M  V30 19127 H 1873.43 -6.06559 2.28013 0
M  V30 19128 N 1866.84 -0.344893 -1.5378 0
M  V30 19129 C 1868.09 0.251208 -2.00936 0
M  V30 19130 C 1868.42 1.50449 -1.23269 0
M  V30 19131 O 1867.67 1.93249 -0.308738 0
M  V30 19132 C 1867.97 0.609495 -3.52165 0
M  V30 19133 C 1867.64 -0.547063 -4.47569 0
M  V30 19134 C 1866.3 -0.864456 -4.73372 0
M  V30 19135 C 1868.65 -1.3229 -5.04132 0
M  V30 19136 C 1865.98 -1.96003 -5.52991 0
M  V30 19137 C 1868.33 -2.40874 -5.84947 0
M  V30 19138 C 1866.99 -2.73171 -6.09043 0
M  V30 19139 H 1866.26 0.0919233 -0.735276 0
M  V30 19140 H 1868.91 -0.473086 -1.85564 0
M  V30 19141 H 1867.22 1.41452 -3.65375 0
M  V30 19142 H 1868.91 1.08262 -3.86109 0
M  V30 19143 H 1865.5 -0.289626 -4.2762 0
M  V30 19144 H 1869.69 -1.09095 -4.84161 0
M  V30 19145 H 1864.94 -2.21449 -5.69886 0
M  V30 19146 H 1869.12 -3.01421 -6.27789 0
M  V30 19147 H 1866.74 -3.5819 -6.70525 0
M  V30 19148 N 1868.32 1.57428 -0.0735454 0
M  V30 19149 C 1869.55 1.97883 0.604148 0
M  V30 19150 C 1869.96 0.951968 1.63043 0
M  V30 19151 O 1869.32 -0.0611641 1.82397 0
M  V30 19152 C 1869.37 3.38414 1.27116 0
M  V30 19153 O 1869.09 4.37166 0.285951 0
M  V30 19154 C 1870.59 3.93753 2.03651 0
M  V30 19155 H 1867.81 0.650747 0.163613 0
M  V30 19156 H 1870.36 2.03975 -0.146466 0
M  V30 19157 H 1868.51 3.33403 1.97285 0
M  V30 19158 H 1868.92 5.18896 0.764698 0
M  V30 19159 H 1870.4 4.94298 2.45711 0
M  V30 19160 H 1870.88 3.30391 2.89376 0
M  V30 19161 H 1871.48 4.0217 1.38345 0
M  V30 19162 N 1869.8 -0.200022 1.56326 0
M  V30 19163 C 1871.02 -0.937503 1.84441 0
M  V30 19164 C 1871.44 -1.77058 0.655428 0
M  V30 19165 O 1870.8 -1.78587 -0.375913 0
M  V30 19166 C 1870.85 -1.83766 3.11307 0
M  V30 19167 O 1870.57 -1.03823 4.2562 0
M  V30 19168 C 1872.07 -2.68724 3.52565 0
M  V30 19169 H 1869.29 -0.273767 0.612611 0
M  V30 19170 H 1871.83 -0.208759 2.03432 0
M  V30 19171 H 1869.99 -2.52009 2.94228 0
M  V30 19172 H 1870.4 -1.6512 4.97831 0
M  V30 19173 H 1871.88 -3.2755 4.44314 0
M  V30 19174 H 1872.35 -3.4219 2.75323 0
M  V30 19175 H 1872.96 -2.0586 3.72158 0
M  V30 19176 N 1871.27 -1.50505 -0.467553 0
M  V30 19177 C 1872.22 -1.69626 -1.56511 0
M  V30 19178 C 1873.19 -0.537594 -1.5716 0
M  V30 19179 O 1874.38 -0.768574 -1.74636 0
M  V30 19180 C 1871.52 -1.79965 -2.9446 0
M  V30 19181 C 1870.63 -3.07356 -3.03572 0
M  V30 19182 C 1869.76 -3.08469 -4.32458 0
M  V30 19183 C 1868.8 -4.303 -4.35326 0
M  V30 19184 N 1867.94 -4.29132 -5.55689 0
M  V30 19185 H 1872.78 -2.63326 -1.39511 0
M  V30 19186 H 1870.32 -1.30531 -0.678239 0
M  V30 19187 H 1872.28 -1.8394 -3.74462 0
M  V30 19188 H 1870.91 -0.897013 -3.10086 0
M  V30 19189 H 1869.96 -3.12836 -2.16421 0
M  V30 19190 H 1871.27 -3.97327 -3.01551 0
M  V30 19191 H 1870.42 -3.11193 -5.20811 0
M  V30 19192 H 1869.16 -2.16335 -4.37093 0
M  V30 19193 H 1868.17 -4.27784 -3.4537 0
M  V30 19194 H 1869.39 -5.23665 -4.3238 0
M  V30 19195 H 1867.34 -3.39853 -5.61102 0
M  V30 19196 H 1867.26 -5.12875 -5.55423 0
M  V30 19197 H 1868.52 -4.36007 -6.46156 0
M  V30 19198 N 1872.75 0.720973 -1.40142 0
M  V30 19199 C 1873.98 1.51519 -1.41622 0
M  V30 19200 C 1874.4 1.88093 -0.0162669 0
M  V30 19201 O 1873.76 1.52895 0.974307 0
M  V30 19202 C 1873.81 2.77041 -2.30826 0
M  V30 19203 O 1872.91 3.73532 -1.74779 0
M  V30 19204 H 1872.25 0.457034 -0.481681 0
M  V30 19205 H 1874.78 0.88837 -1.84307 0
M  V30 19206 H 1874.79 3.25628 -2.45826 0
M  V30 19207 H 1873.47 2.49755 -3.32558 0
M  V30 19208 H 1872.05 3.32356 -1.69097 0
M  V30 19209 N 1874.23 1.25549 0.952634 0
M  V30 19210 C 1875.51 1.01186 1.67394 0
M  V30 19211 C 1875.89 -0.461292 2.05998 0
M  V30 19212 O 1875.24 -1.43909 1.77489 0
M  V30 19213 C 1875.45 1.94954 2.89472 0
M  V30 19214 C 1876.79 2.22911 3.6138 0
M  V30 19215 O 1877.82 1.92728 2.99557 0
M  V30 19216 O 1876.68 2.74246 4.72706 0
M  V30 19217 H 1873.77 0.383874 0.732509 0
M  V30 19218 H 1876.32 1.36712 1.00538 0
M  V30 19219 H 1875.09 2.94416 2.5775 0
M  V30 19220 H 1874.71 1.59837 3.64058 0
M  V30 19221 N 1875.71 -1.15554 1.07168 0
M  V30 19222 C 1876.95 -1.86572 0.794894 0
M  V30 19223 C 1877.29 -1.82007 -0.677276 0
M  V30 19224 O 1876.56 -1.2419 -1.4969 0
M  V30 19225 C 1876.85 -3.35762 1.30137 0
M  V30 19226 C 1876.7 -3.4897 2.83796 0
M  V30 19227 C 1878.02 -4.30453 0.916402 0
M  V30 19228 H 1875.14 -0.677448 0.29023 0
M  V30 19229 H 1877.78 -1.35772 1.32914 0
M  V30 19230 H 1875.93 -3.79156 0.846915 0
M  V30 19231 H 1877.6 -3.14452 3.37517 0
M  V30 19232 H 1875.84 -2.9059 3.22087 0
M  V30 19233 H 1876.51 -4.53782 3.14302 0
M  V30 19234 H 1878.99 -3.95008 1.30797 0
M  V30 19235 H 1877.87 -5.33329 1.29814 0
M  V30 19236 H 1878.13 -4.41742 -0.17785 0
M  V30 19237 N 1877.19 -0.855519 -1.32358 0
M  V30 19238 C 1878.43 -0.469284 -1.97912 0
M  V30 19239 C 1878.79 0.964638 -1.66471 0
M  V30 19240 O 1878.08 1.66785 -0.943052 0
M  V30 19241 C 1878.28 -0.64624 -3.51509 0
M  V30 19242 C 1878.1 -2.09581 -3.97877 0
M  V30 19243 C 1876.87 -2.73449 -4.24916 0
M  V30 19244 C 1879.07 -3.06649 -4.12881 0
M  V30 19245 N 1877.05 -4.09308 -4.57537 0
M  V30 19246 C 1878.43 -4.27498 -4.49049 0
M  V30 19247 C 1880.48 -3.02833 -3.95217 0
M  V30 19248 C 1879.18 -5.4503 -4.69398 0
M  V30 19249 C 1881.21 -4.1961 -4.16751 0
M  V30 19250 C 1880.57 -5.39218 -4.53237 0
M  V30 19251 H 1876.67 -0.220478 -0.750276 0
M  V30 19252 H 1879.25 -1.10709 -1.60161 0
M  V30 19253 H 1877.43 -0.038129 -3.88381 0
M  V30 19254 H 1879.16 -0.229815 -4.04047 0
M  V30 19255 H 1875.91 -2.24482 -4.17019 0
M  V30 19256 H 1876.34 -4.7939 -4.78032 0
M  V30 19257 H 1880.98 -2.1148 -3.66109 0
M  V30 19258 H 1878.7 -6.36914 -4.97359 0
M  V30 19259 H 1882.28 -4.18094 -4.04585 0
M  V30 19260 H 1881.16 -6.28075 -4.69565 0
M  V30 19261 N 1878.67 1.45167 -0.61354 0
M  V30 19262 C 1879.89 2.07076 -0.115821 0
M  V30 19263 C 1880.32 1.45415 1.19315 0
M  V30 19264 O 1879.67 0.549046 1.72786 0
M  V30 19265 C 1879.72 3.606 0.00406239 0
M  V30 19266 O 1878.83 3.98737 1.05273 0
M  V30 19267 H 1878.17 0.659547 -0.0767679 0
M  V30 19268 H 1880.7 1.86325 -0.845236 0
M  V30 19269 H 1880.71 4.07508 0.200356 0
M  V30 19270 H 1879.38 4.04865 -0.951695 0
M  V30 19271 H 1877.96 3.6349 0.832424 0
M  V30 19272 N 1880.14 0.353044 1.53595 0
M  V30 19273 C 1881.39 -0.240548 2.01066 0
M  V30 19274 C 1881.72 -1.49793 1.24065 0
M  V30 19275 O 1880.97 -1.93083 0.318982 0
M  V30 19276 C 1881.27 -0.590811 3.52483 0
M  V30 19277 C 1880.94 0.570791 4.47273 0
M  V30 19278 C 1879.6 0.889548 4.72906 0
M  V30 19279 C 1881.95 1.34962 5.03423 0
M  V30 19280 C 1879.28 1.98933 5.51944 0
M  V30 19281 C 1881.63 2.43972 5.83661 0
M  V30 19282 C 1880.3 2.76397 6.07586 0
M  V30 19283 H 1879.57 -0.0880227 0.735753 0
M  V30 19284 H 1882.21 0.48292 1.85311 0
M  V30 19285 H 1880.52 -1.39512 3.6612 0
M  V30 19286 H 1882.22 -1.06213 3.86678 0
M  V30 19287 H 1878.81 0.3123 4.27461 0
M  V30 19288 H 1882.99 1.11661 4.83576 0
M  V30 19289 H 1878.25 2.24468 5.68704 0
M  V30 19290 H 1882.42 3.04746 6.26181 0
M  V30 19291 H 1880.05 3.61741 6.68616 0
M  V30 19292 N 1881.62 -1.57387 0.0818932 0
M  V30 19293 C 1882.87 -1.93486 -0.583744 0
M  V30 19294 C 1883.19 -0.963466 -1.69536 0
M  V30 19295 O 1882.46 -0.0132866 -1.95895 0
M  V30 19296 H 1881.04 -0.714292 -0.218622 0
M  V30 19297 H 1883.7 -1.94381 0.142124 0
M  V30 19298 H 1882.8 -2.9556 -1.00252 0
M  V30 19299 N 1883.1 0.191729 -1.56429 0
M  V30 19300 C 1884.35 0.912948 -1.81089 0
M  V30 19301 C 1884.68 1.82767 -0.656483 0
M  V30 19302 O 1883.95 1.91456 0.342779 0
M  V30 19303 C 1884.24 1.72628 -3.16025 0
M  V30 19304 C 1884.09 0.836045 -4.41962 0
M  V30 19305 C 1885.41 2.69818 -3.47687 0
M  V30 19306 H 1882.53 0.33046 -0.658761 0
M  V30 19307 H 1885.17 0.180148 -1.89144 0
M  V30 19308 H 1883.32 2.35102 -3.09289 0
M  V30 19309 H 1884.99 0.225751 -4.60747 0
M  V30 19310 H 1883.23 0.142944 -4.33564 0
M  V30 19311 H 1883.91 1.44019 -5.32881 0
M  V30 19312 H 1886.38 2.17475 -3.54745 0
M  V30 19313 H 1885.26 3.23806 -4.43216 0
M  V30 19314 H 1885.52 3.49028 -2.71352 0
M  V30 19315 N 1884.58 1.50751 0.459565 0
M  V30 19316 C 1885.51 1.73389 1.56392 0
M  V30 19317 C 1886.49 0.583101 1.59793 0
M  V30 19318 O 1887.67 0.823474 1.75876 0
M  V30 19319 C 1884.8 1.83861 2.94639 0
M  V30 19320 C 1883.76 2.9914 3.06103 0
M  V30 19321 C 1883.08 2.94768 4.46112 0
M  V30 19322 C 1884.38 4.39471 2.82246 0
M  V30 19323 H 1886.08 2.65856 1.37699 0
M  V30 19324 H 1883.62 1.27933 0.661001 0
M  V30 19325 H 1885.58 1.98283 3.71836 0
M  V30 19326 H 1884.3 0.880254 3.14514 0
M  V30 19327 H 1882.96 2.84388 2.31342 0
M  V30 19328 H 1882.61 1.96755 4.62922 0
M  V30 19329 H 1882.31 3.72166 4.54716 0
M  V30 19330 H 1883.83 3.11254 5.25313 0
M  V30 19331 H 1885.25 4.54689 3.49186 0
M  V30 19332 H 1883.64 5.18406 3.02283 0
M  V30 19333 H 1884.71 4.51043 1.78012 0
M  V30 19334 N 1886.06 -0.713531 1.40522 0
M  V30 19335 C 1886.99 -1.8404 1.43707 0
M  V30 19336 C 1887.97 -1.67474 0.297751 0
M  V30 19337 O 1889.15 -1.87474 0.506662 0
M  V30 19338 C 1886.28 -3.22014 1.30094 0
M  V30 19339 C 1885.24 -3.53255 2.4165 0
M  V30 19340 C 1884.56 -4.90395 2.13113 0
M  V30 19341 C 1885.86 -3.54045 3.83991 0
M  V30 19342 H 1887.56 -1.81632 2.38013 0
M  V30 19343 H 1885.1 -0.872437 1.14562 0
M  V30 19344 H 1887.05 -4.00541 1.30938 0
M  V30 19345 H 1885.78 -3.25002 0.322648 0
M  V30 19346 H 1884.44 -2.77069 2.40059 0
M  V30 19347 H 1884.09 -4.89988 1.13669 0
M  V30 19348 H 1883.79 -5.12264 2.87853 0
M  V30 19349 H 1885.31 -5.71254 2.15642 0
M  V30 19350 H 1886.72 -4.22609 3.87395 0
M  V30 19351 H 1885.12 -3.87441 4.58268 0
M  V30 19352 H 1886.19 -2.53387 4.13428 0
M  V30 19353 N 1887.53 -1.26053 -0.945962 0
M  V30 19354 C 1888.78 -1.12488 -1.69464 0
M  V30 19355 C 1889.13 0.329284 -1.89561 0
M  V30 19356 O 1888.43 1.2387 -1.46174 0
M  V30 19357 C 1888.62 -1.8222 -3.07459 0
M  V30 19358 C 1888.45 -3.34267 -3.00825 0
M  V30 19359 C 1887.22 -4.03545 -3.04104 0
M  V30 19360 C 1889.42 -4.30534 -2.81327 0
M  V30 19361 N 1887.4 -5.42302 -2.87719 0
M  V30 19362 C 1888.77 -5.56434 -2.73462 0
M  V30 19363 C 1890.83 -4.20843 -2.66074 0
M  V30 19364 C 1889.53 -6.73749 -2.51902 0
M  V30 19365 C 1891.56 -5.37861 -2.45886 0
M  V30 19366 C 1890.92 -6.62705 -2.38748 0
M  V30 19367 H 1887.02 -0.466384 -0.627702 0
M  V30 19368 H 1889.6 -1.59274 -1.11982 0
M  V30 19369 H 1887.77 -1.37916 -3.63089 0
M  V30 19370 H 1889.5 -1.6132 -3.71158 0
M  V30 19371 H 1886.26 -3.5487 -3.13631 0
M  V30 19372 H 1886.68 -6.15147 -2.82707 0
M  V30 19373 H 1891.32 -3.25061 -2.70361 0
M  V30 19374 H 1889.04 -7.69633 -2.46355 0
M  V30 19375 H 1892.63 -5.3223 -2.34996 0
M  V30 19376 H 1891.51 -7.51726 -2.23333 0
M  V30 19377 N 1889.01 1.14984 -1.07779 0
M  V30 19378 C 1889.92 2.23484 -0.713576 0
M  V30 19379 C 1890.94 1.71779 0.277104 0
M  V30 19380 O 1892.11 2.01026 0.122649 0
M  V30 19381 C 1889.18 3.46487 -0.121542 0
M  V30 19382 C 1888.24 4.13162 -1.16602 0
M  V30 19383 C 1887.47 5.30292 -0.602138 0
M  V30 19384 O 1887.7 5.67439 0.580436 0
M  V30 19385 O 1886.63 5.86585 -1.34912 0
M  V30 19386 H 1890.46 2.56978 -1.61852 0
M  V30 19387 H 1888.04 1.22791 -0.851038 0
M  V30 19388 H 1889.92 4.20896 0.206134 0
M  V30 19389 H 1888.6 3.14732 0.756659 0
M  V30 19390 H 1887.5 3.40655 -1.54612 0
M  V30 19391 H 1888.84 4.49007 -2.01627 0
M  V30 19392 N 1890.49 0.862526 1.31902 0
M  V30 19393 C 1891.42 0.328423 2.31179 0
M  V30 19394 C 1892.4 -0.57668 1.60026 0
M  V30 19395 O 1893.59 -0.49527 1.87778 0
M  V30 19396 C 1890.72 -0.47734 3.44004 0
M  V30 19397 C 1889.67 0.334015 4.26695 0
M  V30 19398 C 1889 -0.596973 5.31357 0
M  V30 19399 C 1890.3 1.56405 4.98332 0
M  V30 19400 H 1891.99 1.15797 2.761 0
M  V30 19401 H 1889.54 0.558268 1.32738 0
M  V30 19402 H 1891.49 -0.861461 4.12501 0
M  V30 19403 H 1890.21 -1.34033 2.9783 0
M  V30 19404 H 1888.87 0.699989 3.59855 0
M  V30 19405 H 1888.52 -1.45703 4.81435 0
M  V30 19406 H 1888.22 -0.0580517 5.87571 0
M  V30 19407 H 1889.74 -0.978099 6.02715 0
M  V30 19408 H 1891.16 1.25178 5.59467 0
M  V30 19409 H 1889.55 2.04149 5.64308 0
M  V30 19410 H 1890.62 2.32099 4.25744 0
M  V30 19411 N 1891.97 -1.4484 0.62123 0
M  V30 19412 C 1892.9 -2.33374 -0.0766286 0
M  V30 19413 C 1893.88 -1.47631 -0.844932 0
M  V30 19414 O 1895.06 -1.76373 -0.81278 0
M  V30 19415 C 1892.19 -3.30552 -1.0655 0
M  V30 19416 C 1891.15 -4.26037 -0.409496 0
M  V30 19417 C 1890.47 -5.13007 -1.50757 0
M  V30 19418 C 1891.77 -5.17881 0.677994 0
M  V30 19419 H 1893.47 -2.91975 0.662658 0
M  V30 19420 H 1891.01 -1.40397 0.320117 0
M  V30 19421 H 1892.97 -3.91367 -1.56237 0
M  V30 19422 H 1891.69 -2.70139 -1.83555 0
M  V30 19423 H 1890.35 -3.66539 0.0666321 0
M  V30 19424 H 1890 -4.48954 -2.26825 0
M  V30 19425 H 1889.7 -5.777 -1.07407 0
M  V30 19426 H 1891.22 -5.76692 -2.00645 0
M  V30 19427 H 1892.64 -5.72689 0.264637 0
M  V30 19428 H 1891.03 -5.91124 1.03405 0
M  V30 19429 H 1892.1 -4.59488 1.54914 0
M  V30 19430 N 1893.45 -0.361184 -1.53405 0
M  V30 19431 C 1894.67 0.230765 -2.05609 0
M  V30 19432 C 1895.09 1.42805 -1.23499 0
M  V30 19433 O 1894.45 1.80423 -0.274582 0
M  V30 19434 C 1894.5 0.628571 -3.55993 0
M  V30 19435 O 1894.22 -0.521123 -4.3499 0
M  V30 19436 C 1895.72 1.27938 -4.24437 0
M  V30 19437 H 1892.94 0.0414193 -0.66972 0
M  V30 19438 H 1895.48 -0.518281 -1.97823 0
M  V30 19439 H 1893.64 1.32754 -3.63944 0
M  V30 19440 H 1894.05 -0.200483 -5.24117 0
M  V30 19441 H 1895.53 1.50832 -5.30993 0
M  V30 19442 H 1896 2.23834 -3.77882 0
M  V30 19443 H 1896.61 0.621961 -4.20728 0
M  V30 19444 N 1894.92 1.57341 -0.0902386 0
M  V30 19445 C 1896.34 1.57361 0.266413 0
M  V30 19446 C 1896.54 1.10104 1.68758 0
M  V30 19447 O 1895.6 0.775287 2.40303 0
M  V30 19448 C 1896.91 3.00642 0.0592661 0
M  V30 19449 C 1898.46 3.12741 0.127389 0
M  V30 19450 C 1898.93 4.57971 -0.0517042 0
M  V30 19451 N 1900.42 4.632 0.0032917 0
M  V30 19452 C 1901.16 5.73293 -0.110598 0
M  V30 19453 N 1900.65 6.92238 -0.279049 0
M  V30 19454 N 1902.45 5.62076 -0.0522147 0
M  V30 19455 H 1894.6 1.86369 -1.01884 0
M  V30 19456 H 1896.86 0.859996 -0.398886 0
M  V30 19457 H 1896.57 3.39396 -0.922117 0
M  V30 19458 H 1896.44 3.68539 0.80368 0
M  V30 19459 H 1898.83 2.73861 1.09927 0
M  V30 19460 H 1898.91 2.47445 -0.648435 0
M  V30 19461 H 1898.55 4.97544 -1.02043 0
M  V30 19462 H 1898.48 5.21321 0.743753 0
M  V30 19463 H 1900.97 3.77672 0.131145 0
M  V30 19464 H 1901.29 7.71972 -0.357596 0
M  V30 19465 H 1899.63 6.94287 -0.314653 0
M  V30 19466 H 1902.82 4.68035 0.0782189 0
M  V30 19467 H 1903 6.47839 -0.144423 0
M  V30 19468 N 1896.4 -0.183431 1.56529 0
M  V30 19469 C 1897.65 -0.900214 1.80944 0
M  V30 19470 C 1897.97 -1.83302 0.665246 0
M  V30 19471 O 1897.24 -1.9334 -0.315697 0
M  V30 19472 H 1895.82 -0.335409 0.667465 0
M  V30 19473 H 1898.48 -0.186146 1.94009 0
M  V30 19474 H 1897.58 -1.48437 2.74541 0
M  V30 19475 N 1897.88 -1.50992 -0.451564 0
M  V30 19476 C 1898.84 -1.70703 -1.52949 0
M  V30 19477 C 1899.84 -0.577275 -1.50081 0
M  V30 19478 O 1901.03 -0.844619 -1.52354 0
M  V30 19479 C 1898.17 -1.75035 -2.92533 0
M  V30 19480 H 1899.36 -2.66891 -1.36782 0
M  V30 19481 H 1896.91 -1.40767 -0.679285 0
M  V30 19482 H 1897.65 -0.806096 -3.14122 0
M  V30 19483 H 1897.43 -2.57126 -2.96021 0
M  V30 19484 H 1898.92 -1.92171 -3.70756 0
M  V30 19485 N 1899.36 0.706069 -1.40899 0
M  V30 19486 C 1900.77 1.2856 -1.35386 0
M  V30 19487 C 1901.12 1.96174 -0.0318902 0
M  V30 19488 O 1900.25 1.9814 0.870018 0
M  V30 19489 C 1900.84 2.33785 -2.45214 0
M  V30 19490 C 1899.4 2.87339 -2.43132 0
M  V30 19491 C 1898.55 1.61243 -2.25601 0
M  V30 19492 H 1901.5 0.501539 -1.50567 0
M  V30 19493 H 1901.52 3.14843 -2.13669 0
M  V30 19494 H 1901.03 1.84545 -3.41416 0
M  V30 19495 H 1899.13 3.40784 -1.50656 0
M  V30 19496 H 1899.24 3.38485 -3.39065 0
M  V30 19497 H 1897.61 1.86664 -1.73288 0
M  V30 19498 H 1898.39 1.14014 -3.23814 0
M  V30 19499 N 1900.84 1.26553 0.939264 0
M  V30 19500 C 1902.25 1.11093 1.50051 0
M  V30 19501 C 1902.6 -0.308105 1.93766 0
M  V30 19502 O 1901.72 -1.19981 1.80093 0
M  V30 19503 C 1902.32 2.01053 2.72696 0
M  V30 19504 C 1900.88 1.89734 3.25082 0
M  V30 19505 C 1900.02 1.94291 1.97854 0
M  V30 19506 H 1902.98 1.39614 0.754553 0
M  V30 19507 H 1903 1.55955 3.47071 0
M  V30 19508 H 1902.51 3.04325 2.40848 0
M  V30 19509 H 1900.61 0.894042 3.61715 0
M  V30 19510 H 1900.72 2.75368 3.92058 0
M  V30 19511 H 1899.09 1.38367 2.13838 0
M  V30 19512 H 1899.87 2.99196 1.68335 0
M  V30 19513 N 1902.31 -1.14411 1.08387 0
M  V30 19514 C 1903.54 -1.89032 0.833685 0
M  V30 19515 C 1903.95 -1.78829 -0.6178 0
M  V30 19516 O 1903.3 -1.1453 -1.43626 0
M  V30 19517 C 1903.36 -3.39708 1.17638 0
M  V30 19518 C 1903.02 -3.73695 2.6306 0
M  V30 19519 C 1904.02 -3.73832 3.61311 0
M  V30 19520 C 1901.7 -4.03681 2.9891 0
M  V30 19521 C 1903.7 -4.03478 4.93442 0
M  V30 19522 C 1901.38 -4.3299 4.31235 0
M  V30 19523 C 1902.38 -4.32871 5.2831 0
M  V30 19524 O 1902.07 -4.61469 6.58256 0
M  V30 19525 H 1901.8 -0.605621 0.300331 0
M  V30 19526 H 1904.36 -1.45824 1.44653 0
M  V30 19527 H 1902.59 -3.83368 0.506538 0
M  V30 19528 H 1904.28 -3.95636 0.907042 0
M  V30 19529 H 1905.04 -3.50753 3.34958 0
M  V30 19530 H 1900.92 -4.02926 2.2399 0
M  V30 19531 H 1904.46 -4.033 5.69205 0
M  V30 19532 H 1900.36 -4.55538 4.57335 0
M  V30 19533 H 1901.13 -4.79187 6.63568 0
M  V30 19534 N 1903.79 -0.869509 -1.31443 0
M  V30 19535 C 1905.21 -0.561369 -1.49402 0
M  V30 19536 C 1905.41 0.90461 -1.80053 0
M  V30 19537 O 1904.46 1.68681 -1.87891 0
M  V30 19538 C 1905.78 -1.46118 -2.62812 0
M  V30 19539 C 1907.33 -1.46317 -2.76695 0
M  V30 19540 C 1907.8 -2.34855 -3.93201 0
M  V30 19541 N 1909.29 -2.32732 -4.00487 0
M  V30 19542 C 1910.03 -2.97959 -4.89906 0
M  V30 19543 N 1909.52 -3.72353 -5.8423 0
M  V30 19544 N 1911.32 -2.8727 -4.83149 0
M  V30 19545 H 1903.47 -1.81808 -1.09816 0
M  V30 19546 H 1905.73 -0.777367 -0.542591 0
M  V30 19547 H 1905.44 -2.5043 -2.46936 0
M  V30 19548 H 1905.31 -1.15938 -3.5894 0
M  V30 19549 H 1907.7 -0.427634 -2.91985 0
M  V30 19550 H 1907.78 -1.8052 -1.81235 0
M  V30 19551 H 1907.42 -3.38485 -3.78669 0
M  V30 19552 H 1907.35 -1.97976 -4.87968 0
M  V30 19553 H 1909.84 -1.78657 -3.33002 0
M  V30 19554 H 1910.16 -4.19253 -6.4919 0
M  V30 19555 H 1908.5 -3.76461 -5.8421 0
M  V30 19556 H 1911.69 -2.28689 -4.08435 0
M  V30 19557 H 1911.86 -3.38383 -5.52631 0
M  V30 19558 N 1905.27 1.44508 -0.628902 0
M  V30 19559 C 1906.22 2.27784 0.0991943 0
M  V30 19560 C 1907.2 1.38538 0.818285 0
M  V30 19561 O 1908.4 1.62364 0.704759 0
M  V30 19562 C 1905.53 3.25816 1.0816 0
M  V30 19563 C 1904.61 4.2255 0.362249 0
M  V30 19564 N 1905 5.02133 -0.607915 0
M  V30 19565 C 1903.3 4.4185 0.60699 0
M  V30 19566 C 1904 5.7246 -1.03271 0
M  V30 19567 N 1902.98 5.42326 -0.371966 0
M  V30 19568 H 1906.78 2.86721 -0.645621 0
M  V30 19569 H 1904.29 1.55918 -0.45423 0
M  V30 19570 H 1906.29 3.8423 1.6178 0
M  V30 19571 H 1904.95 2.6844 1.82674 0
M  V30 19572 H 1905.96 5.08435 -0.985626 0
M  V30 19573 H 1902.64 3.95575 1.33517 0
M  V30 19574 H 1904.03 6.46383 -1.83409 0
M  V30 19575 N 1906.75 0.369315 1.53212 0
M  V30 19576 C 1908 -0.220348 2.00493 0
M  V30 19577 C 1908.31 -1.49561 1.26059 0
M  V30 19578 O 1909.52 -2.1641 1.63947 0
M  V30 19579 C 1907.97 -0.443218 3.5716 0
M  V30 19580 C 1907.58 0.817634 4.40476 0
M  V30 19581 C 1909.33 -0.990333 4.12786 0
M  V30 19582 C 1907.23 0.564143 5.88703 0
M  V30 19583 H 1906.16 -0.0861173 0.749066 0
M  V30 19584 H 1908.81 0.488632 1.76875 0
M  V30 19585 H 1907.2 -1.21355 3.76947 0
M  V30 19586 H 1908.37 1.59105 4.32461 0
M  V30 19587 H 1906.68 1.28824 3.95971 0
M  V30 19588 H 1909.28 -1.19537 5.21167 0
M  V30 19589 H 1909.62 -1.95357 3.67616 0
M  V30 19590 H 1910.16 -0.280073 3.96813 0
M  V30 19591 H 1906.9 1.49782 6.38158 0
M  V30 19592 H 1906.42 -0.170702 5.99557 0
M  V30 19593 H 1908.1 0.191072 6.46718 0
M  V30 19594 N 1908.23 -1.57291 0.0985816 0
M  V30 19595 C 1909.5 -1.85951 -0.606759 0
M  V30 19596 C 1909.88 -0.996077 -1.86122 0
M  V30 19597 O 1909.23 -0.0694281 -2.28394 0
M  V30 19598 C 1909.44 -3.36688 -0.918803 0
M  V30 19599 C 1910.79 -4.04824 -1.28074 0
M  V30 19600 O 1911.81 -3.41589 -1.00971 0
M  V30 19601 O 1910.67 -5.16406 -1.7885 0
M  V30 19602 H 1907.77 -0.769103 -0.30399 0
M  V30 19603 H 1910.31 -1.69189 0.131543 0
M  V30 19604 H 1909.09 -3.91289 -0.0289848 0
M  V30 19605 H 1908.71 -3.58808 -1.71296 0
M  V30 19606 N 1909.71 0.175127 -1.56624 0
M  V30 19607 C 1911.12 0.737951 -1.71497 0
M  V30 19608 C 1911.47 1.82962 -0.708475 0
M  V30 19609 O 1910.59 2.16003 0.13096 0
M  V30 19610 C 1911.19 1.34536 -3.10943 0
M  V30 19611 C 1909.75 1.85505 -3.27513 0
M  V30 19612 C 1908.89 0.732564 -2.67449 0
M  V30 19613 H 1911.84 -0.0502185 -1.58621 0
M  V30 19614 H 1911.87 2.21502 -3.09382 0
M  V30 19615 H 1911.38 0.5506 -3.84174 0
M  V30 19616 H 1909.48 2.67637 -2.59232 0
M  V30 19617 H 1909.59 2.00311 -4.35215 0
M  V30 19618 H 1907.96 1.15203 -2.27157 0
M  V30 19619 H 1908.74 -0.050288 -3.43263 0
M  V30 19620 N 1911.18 1.5123 0.44355 0
M  V30 19621 C 1912.43 1.6359 1.1935 0
M  V30 19622 C 1912.76 0.349172 1.9134 0
M  V30 19623 O 1912.01 -0.66645 1.84003 0
M  V30 19624 C 1912.31 2.78511 2.23978 0
M  V30 19625 C 1911.98 4.18013 1.69045 0
M  V30 19626 C 1910.64 4.55964 1.53786 0
M  V30 19627 C 1912.99 5.05088 1.28591 0
M  V30 19628 C 1910.32 5.78703 0.965374 0
M  V30 19629 C 1912.67 6.284 0.72774 0
M  V30 19630 C 1911.34 6.6513 0.562001 0
M  V30 19631 H 1910.61 0.59862 0.436733 0
M  V30 19632 H 1913.25 1.85245 0.485449 0
M  V30 19633 H 1911.56 2.51054 3.00798 0
M  V30 19634 H 1913.26 2.85275 2.81814 0
M  V30 19635 H 1909.85 3.88087 1.81896 0
M  V30 19636 H 1914.03 4.76378 1.39202 0
M  V30 19637 H 1909.29 6.05813 0.824671 0
M  V30 19638 H 1913.46 6.95217 0.405735 0
M  V30 19639 H 1911.09 7.60111 0.116266 0
M  V30 19640 N 1912.66 -0.698586 1.41271 0
M  V30 19641 C 1913.94 -1.45291 1.30957 0
M  V30 19642 C 1914.32 -2.11002 -0.0642533 0
M  V30 19643 O 1913.67 -2.01458 -1.07829 0
M  V30 19644 C 1913.88 -2.4748 2.46078 0
M  V30 19645 C 1915.22 -3.1282 2.87104 0
M  V30 19646 O 1916.25 -2.57804 2.45796 0
M  V30 19647 O 1915.11 -4.12458 3.58525 0
M  V30 19648 H 1912.2 -0.646905 0.515212 0
M  V30 19649 H 1914.75 -0.72932 1.53229 0
M  V30 19650 H 1913.52 -1.97558 3.37767 0
M  V30 19651 H 1913.14 -3.27353 2.25668 0
M  V30 19652 N 1914.14 -1.27049 -0.93254 0
M  V30 19653 C 1915.07 -1.11867 -2.04959 0
M  V30 19654 C 1916.05 -0.0214563 -1.70086 0
M  V30 19655 O 1917.24 -0.195063 -1.93218 0
M  V30 19656 C 1914.37 -0.759993 -3.38883 0
M  V30 19657 C 1913.32 -1.8099 -3.87849 0
M  V30 19658 C 1912.65 -1.30532 -5.18522 0
M  V30 19659 C 1913.95 -3.21309 -4.11774 0
M  V30 19660 H 1915.64 -2.05309 -2.17918 0
M  V30 19661 H 1913.19 -0.988507 -1.04712 0
M  V30 19662 H 1915.14 -0.640623 -4.16502 0
M  V30 19663 H 1913.86 0.210139 -3.25923 0
M  V30 19664 H 1912.52 -1.91809 -3.12418 0
M  V30 19665 H 1912.17 -0.324784 -5.0195 0
M  V30 19666 H 1911.87 -2.00722 -5.52254 0
M  V30 19667 H 1913.39 -1.19879 -5.98716 0
M  V30 19668 H 1914.81 -3.13517 -4.79979 0
M  V30 19669 H 1913.2 -3.89166 -4.56804 0
M  V30 19670 H 1914.27 -3.66722 -3.17243 0
M  V30 19671 N 1915.62 1.13835 -1.08993 0
M  V30 19672 C 1916.85 1.88861 -0.844923 0
M  V30 19673 C 1917.26 1.78897 0.603444 0
M  V30 19674 O 1916.62 1.15246 1.41508 0
M  V30 19675 C 1916.67 3.38622 -1.26559 0
M  V30 19676 O 1916.39 3.48321 -2.65714 0
M  V30 19677 C 1917.89 4.30629 -1.05232 0
M  V30 19678 H 1915.11 0.598038 -0.304288 0
M  V30 19679 H 1917.65 1.44129 -1.45076 0
M  V30 19680 H 1915.81 3.80954 -0.703737 0
M  V30 19681 H 1916.22 4.41387 -2.83333 0
M  V30 19682 H 1917.7 5.34057 -1.39598 0
M  V30 19683 H 1918.17 4.39199 0.0102308 0
M  V30 19684 H 1918.78 3.9406 -1.5999 0
M  V30 19685 N 1917.1 0.876467 1.3098 0
M  V30 19686 C 1918.05 0.308508 2.25903 0
M  V30 19687 C 1919.03 -0.558176 1.50908 0
M  V30 19688 O 1920.22 -0.403991 1.72328 0
M  V30 19689 C 1917.35 -0.483379 3.3988 0
M  V30 19690 C 1916.44 0.396914 4.22239 0
M  V30 19691 N 1916.83 1.49342 4.8325 0
M  V30 19692 C 1915.13 0.190504 4.45593 0
M  V30 19693 C 1915.83 2.0368 5.44876 0
M  V30 19694 N 1914.8 1.33291 5.27005 0
M  V30 19695 H 1918.6 1.14647 2.70617 0
M  V30 19696 H 1916.12 0.724937 1.45322 0
M  V30 19697 H 1918.12 -0.906842 4.06918 0
M  V30 19698 H 1916.78 -1.31888 2.96708 0
M  V30 19699 H 1917.79 1.87632 4.82716 0
M  V30 19700 H 1914.46 -0.608515 4.13042 0
M  V30 19701 H 1915.85 2.95713 6.03327 0
M  V30 19702 N 1918.57 -1.44173 0.636557 0
M  V30 19703 C 1919.82 -2.01993 0.143216 0
M  V30 19704 C 1920.15 -1.50104 -1.23689 0
M  V30 19705 O 1919.4 -0.677627 -1.83594 0
M  V30 19706 C 1919.7 -3.57299 0.0849933 0
M  V30 19707 C 1919.37 -4.28464 1.40461 0
M  V30 19708 C 1918.03 -4.47622 1.76601 0
M  V30 19709 C 1920.38 -4.68908 2.27541 0
M  V30 19710 C 1917.71 -5.04485 2.99519 0
M  V30 19711 C 1920.06 -5.27133 3.49734 0
M  V30 19712 C 1918.73 -5.44509 3.86091 0
M  V30 19713 H 1918 -0.739144 0.0524066 0
M  V30 19714 H 1920.64 -1.72868 0.823952 0
M  V30 19715 H 1918.95 -3.85869 -0.679134 0
M  V30 19716 H 1920.65 -3.99774 -0.31333 0
M  V30 19717 H 1917.24 -4.13886 1.11337 0
M  V30 19718 H 1921.42 -4.53815 2.00913 0
M  V30 19719 H 1916.68 -5.16125 3.27758 0
M  V30 19720 H 1920.85 -5.5742 4.1744 0
M  V30 19721 H 1918.48 -5.88336 4.81419 0
M  V30 19722 N 1920.05 -0.377435 -1.53014 0
M  V30 19723 C 1920.98 0.455103 -2.29022 0
M  V30 19724 C 1921.96 1.07375 -1.31926 0
M  V30 19725 O 1923.15 1.08877 -1.60809 0
M  V30 19726 C 1920.28 1.58883 -3.08826 0
M  V30 19727 C 1919.23 1.09683 -4.13707 0
M  V30 19728 C 1918.56 2.32172 -4.81664 0
M  V30 19729 C 1919.86 0.173165 -5.22013 0
M  V30 19730 H 1921.55 -0.179053 -2.98864 0
M  V30 19731 H 1919.1 -0.0875549 -1.43734 0
M  V30 19732 H 1921.05 2.17798 -3.60752 0
M  V30 19733 H 1919.77 2.2504 -2.36695 0
M  V30 19734 H 1918.43 0.530291 -3.62744 0
M  V30 19735 H 1918.08 2.96811 -4.06094 0
M  V30 19736 H 1917.78 1.99919 -5.52545 0
M  V30 19737 H 1919.31 2.91751 -5.3639 0
M  V30 19738 H 1920.72 0.670145 -5.6937 0
M  V30 19739 H 1919.12 -0.0590463 -6.00071 0
M  V30 19740 H 1920.19 -0.781339 -4.78564 0
M  V30 19741 N 1921.53 1.57237 -0.106922 0
M  V30 19742 C 1922.49 2.13515 0.833317 0
M  V30 19743 C 1923.49 1.06715 1.20285 0
M  V30 19744 O 1924.68 1.32548 1.13034 0
M  V30 19745 C 1921.82 2.66546 2.12523 0
M  V30 19746 H 1923.01 2.97916 0.344435 0
M  V30 19747 H 1920.56 1.55652 0.142199 0
M  V30 19748 H 1921.3 1.85699 2.65869 0
M  V30 19749 H 1921.08 3.44643 1.86985 0
M  V30 19750 H 1922.57 3.10039 2.7976 0
M  V30 19751 N 1923.01 -0.166818 1.56715 0
M  V30 19752 C 1923.94 -1.23113 1.93328 0
M  V30 19753 C 1924.95 -1.40238 0.826866 0
M  V30 19754 O 1926.14 -1.40161 1.10531 0
M  V30 19755 C 1923.24 -2.59914 2.17481 0
M  V30 19756 C 1922.42 -2.64028 3.48723 0
M  V30 19757 C 1921.47 -3.82224 3.61651 0
M  V30 19758 O 1920.5 -3.68014 4.34229 0
M  V30 19759 N 1921.7 -4.98868 2.96835 0
M  V30 19760 H 1924.47 -0.920103 2.85227 0
M  V30 19761 H 1922.03 -0.356548 1.57925 0
M  V30 19762 H 1924.02 -3.37459 2.2339 0
M  V30 19763 H 1922.59 -2.83389 1.31945 0
M  V30 19764 H 1921.81 -1.72544 3.54432 0
M  V30 19765 H 1923.1 -2.63792 4.35076 0
M  V30 19766 H 1922.5 -5.13314 2.3775 0
M  V30 19767 H 1921.05 -5.74259 3.08333 0
M  V30 19768 N 1924.49 -1.51463 -0.435524 0
M  V30 19769 C 1925.73 -1.63897 -1.18247 0
M  V30 19770 C 1926.06 -0.358322 -1.9168 0
M  V30 19771 O 1925.33 0.625888 -1.85633 0
M  V30 19772 H 1923.91 -0.60404 -0.439482 0
M  V30 19773 H 1926.57 -1.884 -0.49915 0
M  V30 19774 H 1925.66 -2.46749 -1.91105 0
M  V30 19775 N 1925.96 0.691085 -1.4164 0
M  V30 19776 C 1927.38 1.00223 -1.24207 0
M  V30 19777 C 1927.58 2.0105 -0.134625 0
M  V30 19778 O 1926.64 2.4751 0.499509 0
M  V30 19779 C 1927.95 1.52256 -2.59304 0
M  V30 19780 C 1929.5 1.64117 -2.66523 0
M  V30 19781 C 1929.97 2.19551 -4.01947 0
M  V30 19782 N 1931.46 2.26906 -4.03817 0
M  V30 19783 C 1932.2 2.70835 -5.05407 0
M  V30 19784 N 1931.69 3.14337 -6.17385 0
M  V30 19785 N 1933.49 2.70439 -4.92767 0
M  V30 19786 H 1925.64 0.0232257 -2.12387 0
M  V30 19787 H 1927.9 0.0728626 -0.945196 0
M  V30 19788 H 1927.61 0.856261 -3.41117 0
M  V30 19789 H 1927.48 2.50399 -2.821 0
M  V30 19790 H 1929.87 2.29858 -1.85066 0
M  V30 19791 H 1929.95 0.645083 -2.47532 0
M  V30 19792 H 1929.59 1.54424 -4.83855 0
M  V30 19793 H 1929.52 3.1992 -4.18281 0
M  V30 19794 H 1932.01 1.96212 -3.22969 0
M  V30 19795 H 1932.33 3.46496 -6.90768 0
M  V30 19796 H 1930.67 3.12235 -6.20914 0
M  V30 19797 H 1933.86 2.35806 -4.04368 0
M  V30 19798 H 1934.04 3.04357 -5.72076 0
M  V30 19799 N 1927.44 1.27542 0.925789 0
M  V30 19800 C 1928.86 1.04988 1.20207 0
M  V30 19801 C 1929.06 -0.215359 2.00346 0
M  V30 19802 O 1928.11 -0.920331 2.3513 0
M  V30 19803 C 1929.43 2.2904 1.94836 0
M  V30 19804 C 1930.98 2.34098 2.07767 0
M  V30 19805 C 1931.45 3.57884 2.85802 0
M  V30 19806 N 1932.94 3.58453 2.93369 0
M  V30 19807 C 1933.68 4.50907 3.54218 0
M  V30 19808 N 1933.17 5.53667 4.16443 0
M  V30 19809 N 1934.97 4.38527 3.5164 0
M  V30 19810 H 1927.12 2.0878 0.390449 0
M  V30 19811 H 1929.38 0.918323 0.235346 0
M  V30 19812 H 1929.09 3.21151 1.4337 0
M  V30 19813 H 1928.96 2.34507 2.95442 0
M  V30 19814 H 1931.35 1.42492 2.58418 0
M  V30 19815 H 1931.43 2.32633 1.06375 0
M  V30 19816 H 1931.07 4.49828 2.35834 0
M  V30 19817 H 1931 3.56601 3.87484 0
M  V30 19818 H 1933.49 2.84138 2.49147 0
M  V30 19819 H 1933.81 6.20377 4.60817 0
M  V30 19820 H 1932.15 5.57507 4.14983 0
M  V30 19821 H 1935.34 3.57455 3.0223 0
M  V30 19822 H 1935.51 5.10769 3.98772 0
M  V30 19823 N 1928.92 -1.13255 1.09595 0
M  V30 19824 C 1929.85 -2.20827 0.758791 0
M  V30 19825 C 1930.83 -1.68034 -0.264325 0
M  V30 19826 O 1932.02 -1.93751 -0.132005 0
M  V30 19827 C 1929.15 -3.46831 0.180424 0
M  V30 19828 C 1928.1 -4.12724 1.13325 0
M  V30 19829 C 1927.43 -5.33075 0.416504 0
M  V30 19830 C 1928.73 -4.59862 2.47637 0
M  V30 19831 H 1930.42 -2.49287 1.65821 0
M  V30 19832 H 1927.97 -1.19818 0.798734 0
M  V30 19833 H 1929.92 -4.21346 -0.0675313 0
M  V30 19834 H 1928.64 -3.17773 -0.754194 0
M  V30 19835 H 1927.3 -3.40179 1.36651 0
M  V30 19836 H 1926.95 -5.00281 -0.522308 0
M  V30 19837 H 1926.65 -5.78109 1.05183 0
M  V30 19838 H 1928.17 -6.10344 0.17689 0
M  V30 19839 H 1929.59 -5.25791 2.28509 0
M  V30 19840 H 1927.99 -5.15642 3.06974 0
M  V30 19841 H 1929.06 -3.74294 3.08273 0
M  V30 19842 N 1930.4 -0.883401 -1.30514 0
M  V30 19843 C 1931.81 -0.55179 -1.7836 0
M  V30 19844 C 1932.16 0.93196 -1.72653 0
M  V30 19845 O 1931.29 1.72818 -1.30242 0
M  V30 19846 C 1931.88 -0.994845 -3.23865 0
M  V30 19847 C 1930.44 -0.714672 -3.69553 0
M  V30 19848 C 1929.59 -1.1787 -2.51002 0
M  V30 19849 H 1932.54 -1.06778 -1.17406 0
M  V30 19850 H 1932.56 -0.32315 -3.79125 0
M  V30 19851 H 1932.07 -2.07477 -3.27986 0
M  V30 19852 H 1930.17 0.353326 -3.70921 0
M  V30 19853 H 1930.28 -1.30112 -4.61094 0
M  V30 19854 H 1928.65 -0.598079 -2.47578 0
M  V30 19855 H 1929.43 -2.26633 -2.57862 0
M  V30 19856 N 1931.88 1.43833 -0.644194 0
M  V30 19857 C 1932.81 2.29017 0.0914574 0
M  V30 19858 C 1933.82 1.4201 0.79605 0
M  V30 19859 O 1935.01 1.66036 0.655313 0
M  V30 19860 C 1932.11 3.18711 1.15225 0
M  V30 19861 C 1931.28 4.34206 0.527588 0
M  V30 19862 C 1930.34 5.04839 1.48406 0
M  V30 19863 O 1929.37 5.60416 0.996143 0
M  V30 19864 N 1930.57 5.075 2.81822 0
M  V30 19865 H 1933.34 2.92794 -0.639656 0
M  V30 19866 H 1930.9 1.54424 -0.486308 0
M  V30 19867 H 1932.89 3.62827 1.79272 0
M  V30 19868 H 1931.46 2.56595 1.78543 0
M  V30 19869 H 1930.68 3.93119 -0.291782 0
M  V30 19870 H 1931.97 5.08718 0.091139 0
M  V30 19871 H 1931.36 4.63703 3.24031 0
M  V30 19872 H 1929.92 5.55364 3.41195 0
M  V30 19873 N 1933.35 0.385544 1.52811 0
M  V30 19874 C 1934.77 -0.0893152 1.86486 0
M  V30 19875 C 1935.12 -1.46473 1.30538 0
M  V30 19876 O 1934.24 -2.06866 0.635244 0
M  V30 19877 C 1934.84 -0.168846 3.38379 0
M  V30 19878 C 1933.4 -0.587992 3.71779 0
M  V30 19879 C 1932.54 0.252389 2.76149 0
M  V30 19880 H 1935.49 0.603569 1.46774 0
M  V30 19881 H 1935.51 -0.988694 3.6743 0
M  V30 19882 H 1935.03 0.832334 3.7907 0
M  V30 19883 H 1933.13 -1.59668 3.36656 0
M  V30 19884 H 1933.24 -0.34875 4.77829 0
M  V30 19885 H 1931.6 -0.281775 2.53137 0
M  V30 19886 H 1932.39 1.25148 3.19676 0
M  V30 19887 N 1934.83 -1.57178 0.115259 0
M  V30 19888 C 1935.74 -2.18656 -0.850101 0
M  V30 19889 C 1936.76 -1.16164 -1.29545 0
M  V30 19890 O 1937.93 -1.48619 -1.35921 0
M  V30 19891 C 1935 -2.77089 -2.0838 0
M  V30 19892 C 1934.06 -3.94604 -1.69074 0
M  V30 19893 C 1933.29 -4.50242 -2.86563 0
M  V30 19894 O 1933.52 -4.04782 -4.0188 0
M  V30 19895 O 1932.45 -5.4098 -2.63864 0
M  V30 19896 H 1936.28 -3.01595 -0.356934 0
M  V30 19897 H 1933.86 -1.48993 -0.110158 0
M  V30 19898 H 1935.74 -3.14353 -2.80642 0
M  V30 19899 H 1934.42 -1.97184 -2.56711 0
M  V30 19900 H 1933.33 -3.62116 -0.939308 0
M  V30 19901 H 1934.66 -4.75934 -1.25489 0
M  V30 19902 N 1936.31 0.158505 -1.56801 0
M  V30 19903 C 1937.54 0.886984 -1.86591 0
M  V30 19904 C 1937.95 1.7577 -0.700115 0
M  V30 19905 O 1937.29 1.80533 0.339622 0
M  V30 19906 C 1937.35 1.80418 -3.1095 0
M  V30 19907 C 1937.02 1.11178 -4.4327 0
M  V30 19908 C 1938.02 0.471134 -5.17761 0
M  V30 19909 C 1935.7 1.10472 -4.90001 0
M  V30 19910 C 1937.69 -0.167333 -6.3718 0
M  V30 19911 C 1935.38 0.462432 -6.09348 0
M  V30 19912 C 1936.38 -0.172477 -6.82782 0
M  V30 19913 O 1936.07 -0.804604 -7.99863 0
M  V30 19914 H 1935.8 0.262465 -0.622967 0
M  V30 19915 H 1938.35 0.159526 -2.0478 0
M  V30 19916 H 1936.58 2.57228 -2.8874 0
M  V30 19917 H 1938.27 2.4036 -3.27081 0
M  V30 19918 H 1939.04 0.468479 -4.82732 0
M  V30 19919 H 1934.92 1.58831 -4.32774 0
M  V30 19920 H 1938.46 -0.663498 -6.94438 0
M  V30 19921 H 1934.36 0.462714 -6.43839 0
M  V30 19922 H 1935.13 -0.705126 -8.15457 0
M  V30 19923 N 1937.79 1.51692 0.427485 0
M  V30 19924 C 1939.03 1.66512 1.18545 0
M  V30 19925 C 1939.39 0.377884 1.88245 0
M  V30 19926 O 1940.59 0.401977 2.65777 0
M  V30 19927 C 1938.87 2.84155 2.16774 0
M  V30 19928 S 1940.42 3.19359 3.00925 0
M  V30 19929 H 1937.24 0.586537 0.401865 0
M  V30 19930 H 1939.84 1.89629 0.475503 0
M  V30 19931 H 1938.55 3.7611 1.64224 0
M  V30 19932 H 1938.08 2.63256 2.92335 0
M  V30 19933 H 1940.09 2.66556 4.18524 0
M  V30 19934 N 1939.27 -0.683564 1.42004 0
M  V30 19935 C 1940.68 -1.26389 1.37414 0
M  V30 19936 C 1941.03 -1.96099 0.0630958 0
M  V30 19937 O 1940.15 -1.995 -0.838385 0
M  V30 19938 C 1940.75 -2.29854 2.48903 0
M  V30 19939 C 1939.31 -2.83435 2.47673 0
M  V30 19940 C 1938.46 -1.57634 2.28138 0
M  V30 19941 H 1941.41 -0.477522 1.51345 0
M  V30 19942 H 1941.43 -3.11404 2.18651 0
M  V30 19943 H 1940.94 -1.7909 3.44309 0
M  V30 19944 H 1939.04 -3.38344 1.56059 0
M  V30 19945 H 1939.15 -3.33048 3.44407 0
M  V30 19946 H 1937.52 -1.83883 1.76236 0
M  V30 19947 H 1938.3 -1.08848 3.25587 0
M  V30 19948 N 1940.75 -1.28031 -0.919012 0
M  V30 19949 C 1942.02 -1.05588 -1.64653 0
M  V30 19950 C 1942.4 0.406513 -2.07149 0
M  V30 19951 O 1941.75 1.39153 -1.81242 0
M  V30 19952 C 1941.96 -2.0256 -2.84202 0
M  V30 19953 C 1943.31 -2.32414 -3.55343 0
M  V30 19954 O 1944.33 -2.00602 -2.94342 0
M  V30 19955 O 1943.19 -2.86683 -4.65269 0
M  V30 19956 H 1940.29 -0.40316 -0.722074 0
M  V30 19957 H 1942.83 -1.3933 -0.968781 0
M  V30 19958 H 1941.6 -3.01146 -2.49853 0
M  V30 19959 H 1941.23 -1.69433 -3.59692 0
M  V30 19960 N 1942.22 1.12672 -1.10194 0
M  V30 19961 C 1943.45 1.88496 -0.865112 0
M  V30 19962 C 1943.87 1.78977 0.578691 0
M  V30 19963 O 1943.23 1.14292 1.40737 0
M  V30 19964 C 1943.28 3.35768 -1.315 0
M  V30 19965 O 1942.38 4.09615 -0.478447 0
M  V30 19966 H 1941.72 0.585782 -0.312658 0
M  V30 19967 H 1944.25 1.42506 -1.46811 0
M  V30 19968 H 1944.26 3.86605 -1.30385 0
M  V30 19969 H 1942.94 3.42013 -2.36643 0
M  V30 19970 H 1941.52 3.68753 -0.554589 0
M  V30 19971 N 1943.7 0.89031 1.30043 0
M  V30 19972 C 1944.63 0.377386 2.3043 0
M  V30 19973 C 1945.61 -0.542607 1.61213 0
M  V30 19974 O 1946.8 -0.455328 1.88787 0
M  V30 19975 C 1943.93 -0.404264 3.44939 0
M  V30 19976 C 1942.88 0.424448 4.2589 0
M  V30 19977 C 1942.21 -0.48413 5.32504 0
M  V30 19978 C 1943.51 1.6694 4.94902 0
M  V30 19979 H 1945.2 1.21628 2.73582 0
M  V30 19980 H 1942.75 0.586299 1.31524 0
M  V30 19981 H 1944.7 -0.773769 4.14235 0
M  V30 19982 H 1943.42 -1.27685 3.00606 0
M  V30 19983 H 1942.08 0.776162 3.58289 0
M  V30 19984 H 1941.73 -1.35458 4.84417 0
M  V30 19985 H 1941.43 0.0665939 5.87562 0
M  V30 19986 H 1942.96 -0.850034 6.04654 0
M  V30 19987 H 1944.37 1.37017 5.56686 0
M  V30 19988 H 1942.77 2.16073 5.59851 0
M  V30 19989 H 1943.84 2.41077 4.20725 0
M  V30 19990 N 1945.18 -1.43489 0.651812 0
M  V30 19991 C 1946.41 -2.05882 0.172084 0
M  V30 19992 C 1946.82 -1.4893 -1.1669 0
M  V30 19993 O 1946.16 -0.614669 -1.73111 0
M  V30 19994 C 1946.22 -3.595 0.00499624 0
M  V30 19995 C 1945.89 -4.39026 1.26905 0
M  V30 19996 C 1946.88 -4.71177 2.19746 0
M  V30 19997 C 1944.57 -4.79058 1.51024 0
M  V30 19998 C 1946.56 -5.42267 3.35001 0
M  V30 19999 C 1944.25 -5.49893 2.66572 0
M  V30 20000 C 1945.25 -5.81419 3.58386 0
M  V30 20001 O 1944.94 -6.50807 4.71916 0
M  V30 20002 H 1944.67 -0.670436 0.0865532 0
M  V30 20003 H 1947.22 -1.85006 0.89229 0
M  V30 20004 H 1945.45 -3.78945 -0.770567 0
M  V30 20005 H 1947.14 -4.03596 -0.431912 0
M  V30 20006 H 1947.91 -4.4077 2.02354 0
M  V30 20007 H 1943.79 -4.53928 0.804408 0
M  V30 20008 H 1947.33 -5.66791 4.06686 0
M  V30 20009 H 1943.23 -5.79717 2.83899 0
M  V30 20010 H 1943.99 -6.69289 4.71163 0
M  V30 20011 N 1946.66 -0.393643 -1.52605 0
M  V30 20012 C 1947.59 0.474548 -2.24234 0
M  V30 20013 C 1948.6 1.02311 -1.26634 0
M  V30 20014 O 1949.79 0.924695 -1.52681 0
M  V30 20015 C 1946.89 1.67083 -2.9485 0
M  V30 20016 C 1946.06 1.24889 -4.19192 0
M  V30 20017 C 1945.12 2.31034 -4.72768 0
M  V30 20018 O 1944.15 1.92263 -5.35746 0
M  V30 20019 N 1945.35 3.63004 -4.52999 0
M  V30 20020 H 1948.12 -0.139149 -2.99377 0
M  V30 20021 H 1945.68 -0.220221 -1.60395 0
M  V30 20022 H 1947.67 2.37626 -3.27591 0
M  V30 20023 H 1946.24 2.19078 -2.22988 0
M  V30 20024 H 1945.46 0.372176 -3.92439 0
M  V30 20025 H 1946.75 0.94369 -4.99972 0
M  V30 20026 H 1946.15 3.97263 -4.02739 0
M  V30 20027 H 1944.7 4.29568 -4.90219 0
M  V30 20028 N 1948.14 1.57115 -0.123593 0
M  V30 20029 C 1949.38 1.95641 0.534082 0
M  V30 20030 C 1949.71 1.00726 1.66036 0
M  V30 20031 O 1948.99 0.045312 1.94447 0
M  V30 20032 C 1949.27 3.4407 1.06244 0
M  V30 20033 C 1949.13 4.49759 -0.0607321 0
M  V30 20034 C 1950.44 3.94451 1.95183 0
M  V30 20035 H 1947.56 0.71137 0.19267 0
M  V30 20036 H 1950.21 1.88944 -0.200083 0
M  V30 20037 H 1948.36 3.49909 1.68808 0
M  V30 20038 H 1950.03 4.56016 -0.69621 0
M  V30 20039 H 1948.27 4.27729 -0.723232 0
M  V30 20040 H 1948.94 5.50888 0.350271 0
M  V30 20041 H 1951.42 3.90945 1.42483 0
M  V30 20042 H 1950.29 4.98817 2.29069 0
M  V30 20043 H 1950.55 3.35417 2.88007 0
M  V30 20044 N 1949.61 -0.150187 1.56883 0
M  V30 20045 C 1950.55 -1.21495 1.93169 0
M  V30 20046 C 1951.52 -1.41721 0.797116 0
M  V30 20047 O 1952.71 -1.56385 1.05243 0
M  V30 20048 C 1949.84 -2.5744 2.20096 0
M  V30 20049 C 1948.88 -2.53828 3.42744 0
M  V30 20050 S 1949.71 -2.00835 4.96413 0
M  V30 20051 C 1950.87 -3.38515 5.26458 0
M  V30 20052 H 1951.1 -0.905357 2.83179 0
M  V30 20053 H 1948.64 -0.355666 1.50248 0
M  V30 20054 H 1950.59 -3.35675 2.3629 0
M  V30 20055 H 1949.26 -2.85591 1.30755 0
M  V30 20056 H 1948.45 -3.53894 3.58852 0
M  V30 20057 H 1948.05 -1.837 3.25776 0
M  V30 20058 H 1950.34 -4.34611 5.19731 0
M  V30 20059 H 1951.29 -3.27263 6.27937 0
M  V30 20060 H 1951.69 -3.35503 4.5398 0
M  V30 20061 N 1951.09 -1.51916 -0.419434 0
M  V30 20062 C 1952.02 -1.70735 -1.52912 0
M  V30 20063 C 1953.04 -0.587816 -1.51818 0
M  V30 20064 O 1954.23 -0.862677 -1.56269 0
M  V30 20065 C 1951.33 -1.72322 -2.91819 0
M  V30 20066 C 1950.5 -3.01148 -3.17221 0
M  V30 20067 C 1949.56 -2.94683 -4.35945 0
M  V30 20068 O 1948.58 -3.68606 -4.33726 0
M  V30 20069 N 1949.79 -2.11763 -5.40497 0
M  V30 20070 H 1952.55 -2.66468 -1.37167 0
M  V30 20071 H 1950.11 -1.50025 -0.608608 0
M  V30 20072 H 1952.1 -1.65542 -3.69294 0
M  V30 20073 H 1950.67 -0.841065 -3.01073 0
M  V30 20074 H 1949.89 -3.21657 -2.27883 0
M  V30 20075 H 1951.18 -3.8639 -3.31029 0
M  V30 20076 H 1950.58 -1.51114 -5.45143 0
M  V30 20077 H 1949.14 -2.10848 -6.16755 0
M  V30 20078 N 1952.57 0.676023 -1.42365 0
M  V30 20079 C 1953.5 1.80154 -1.41695 0
M  V30 20080 C 1954.52 1.597 -0.316199 0
M  V30 20081 O 1955.7 1.68841 -0.579207 0
M  V30 20082 C 1952.8 3.17239 -1.19217 0
M  V30 20083 C 1951.98 3.64553 -2.41703 0
M  V30 20084 C 1951.04 4.80367 -2.14788 0
M  V30 20085 O 1950.06 4.90975 -2.87979 0
M  V30 20086 N 1951.26 5.6899 -1.15025 0
M  V30 20087 H 1954.03 1.81214 -2.38708 0
M  V30 20088 H 1951.59 0.859069 -1.37228 0
M  V30 20089 H 1953.58 3.92371 -0.991311 0
M  V30 20090 H 1952.15 3.11086 -0.307313 0
M  V30 20091 H 1951.37 2.80112 -2.77364 0
M  V30 20092 H 1952.66 3.92906 -3.23268 0
M  V30 20093 H 1952.06 5.6307 -0.544872 0
M  V30 20094 H 1950.62 6.43939 -1.00926 0
M  V30 20095 N 1954.05 1.28517 0.912209 0
M  V30 20096 C 1955.29 1.17014 1.67592 0
M  V30 20097 C 1955.65 -0.27643 1.9 0
M  V30 20098 O 1956.85 -0.514187 2.63836 0
M  V30 20099 C 1955.12 1.94823 2.99631 0
M  V30 20100 S 1956.68 1.99713 3.90717 0
M  V30 20101 H 1953.5 0.417458 0.575543 0
M  V30 20102 H 1956.1 1.62637 1.08488 0
M  V30 20103 H 1954.81 2.99087 2.81025 0
M  V30 20104 H 1954.34 1.49757 3.63781 0
M  V30 20105 H 1956.35 1.10475 4.83745 0
M  V30 20106 N 1955.53 -1.12086 1.1079 0
M  V30 20107 C 1956.77 -1.84149 0.863748 0
M  V30 20108 C 1957.13 -1.82668 -0.604166 0
M  V30 20109 O 1956.42 -1.26392 -1.43998 0
M  V30 20110 C 1956.61 -3.3089 1.35079 0
M  V30 20111 C 1956.44 -3.46663 2.86452 0
M  V30 20112 C 1955.21 -3.60083 3.54497 0
M  V30 20113 C 1957.41 -3.41518 3.84538 0
M  V30 20114 N 1955.39 -3.64258 4.94155 0
M  V30 20115 C 1956.76 -3.52233 5.10228 0
M  V30 20116 C 1958.82 -3.25007 3.77193 0
M  V30 20117 C 1957.52 -3.48139 6.29438 0
M  V30 20118 C 1959.55 -3.22227 4.95907 0
M  V30 20119 C 1958.91 -3.33506 6.20446 0
M  V30 20120 H 1955.01 -0.689402 0.369119 0
M  V30 20121 H 1957.59 -1.34163 1.41097 0
M  V30 20122 H 1955.76 -3.79409 0.830844 0
M  V30 20123 H 1957.5 -3.90828 1.05049 0
M  V30 20124 H 1954.25 -3.62357 3.04949 0
M  V30 20125 H 1954.68 -3.70001 5.66946 0
M  V30 20126 H 1959.32 -3.15178 2.8182 0
M  V30 20127 H 1957.04 -3.56737 7.25096 0
M  V30 20128 H 1960.62 -3.10628 4.91937 0
M  V30 20129 H 1959.5 -3.31335 7.10765 0
M  V30 20130 N 1957 -0.897194 -1.29569 0
M  V30 20131 C 1957.91 -0.377551 -2.31542 0
M  V30 20132 C 1958.93 0.526431 -1.65845 0
M  V30 20133 O 1960.11 0.416614 -1.97044 0
M  V30 20134 C 1957.17 0.388744 -3.44514 0
M  V30 20135 C 1956.23 -0.546458 -4.25808 0
M  V30 20136 C 1955.47 0.183361 -5.33385 0
M  V30 20137 O 1955.69 1.40767 -5.52757 0
M  V30 20138 O 1954.62 -0.472827 -6.0004 0
M  V30 20139 H 1958.45 -1.22348 -2.77965 0
M  V30 20140 H 1956.03 -0.661433 -1.33961 0
M  V30 20141 H 1957.92 0.822167 -4.13302 0
M  V30 20142 H 1956.59 1.21077 -3.00203 0
M  V30 20143 H 1955.5 -1.02894 -3.59671 0
M  V30 20144 H 1956.83 -1.33483 -4.73754 0
M  V30 20145 N 1958.48 1.43142 -0.659413 0
M  V30 20146 C 1959.45 2.29192 0.0190393 0
M  V30 20147 C 1960.45 1.42532 0.744404 0
M  V30 20148 O 1961.64 1.64093 0.584722 0
M  V30 20149 C 1958.77 3.24723 1.03769 0
M  V30 20150 H 1959.96 2.90674 -0.738166 0
M  V30 20151 H 1957.51 1.50525 -0.420956 0
M  V30 20152 H 1958.25 2.68149 1.82392 0
M  V30 20153 H 1958.03 3.88621 0.52115 0
M  V30 20154 H 1959.52 3.89294 1.5113 0
M  V30 20155 N 1959.96 0.40173 1.52394 0
M  V30 20156 C 1961.24 -0.234644 1.94187 0
M  V30 20157 C 1961.62 -1.63273 1.3381 0
M  V30 20158 O 1960.97 -2.22713 0.511013 0
M  V30 20159 C 1961.18 -0.248454 3.48114 0
M  V30 20160 C 1962.52 -0.471396 4.21975 0
M  V30 20161 O 1963.55 -0.328131 3.54685 0
M  V30 20162 O 1962.41 -0.753135 5.41286 0
M  V30 20163 H 1959.5 -0.149075 0.813453 0
M  V30 20164 H 1962.05 0.457138 1.63427 0
M  V30 20165 H 1960.82 0.730355 3.84424 0
M  V30 20166 H 1960.44 -0.984644 3.85215 0
M  V30 20167 N 1961.44 -1.57047 0.131923 0
M  V30 20168 C 1962.85 -1.82552 -0.391375 0
M  V30 20169 C 1963.2 -1.04983 -1.6575 0
M  V30 20170 O 1962.33 -0.2904 -2.14443 0
M  V30 20171 C 1962.92 -3.3113 -0.716843 0
M  V30 20172 C 1961.48 -3.57269 -1.18472 0
M  V30 20173 C 1960.63 -2.76578 -0.200021 0
M  V30 20174 H 1963.58 -1.54636 0.356863 0
M  V30 20175 H 1963.6 -3.46463 -1.57302 0
M  V30 20176 H 1963.11 -3.87559 0.204844 0
M  V30 20177 H 1961.21 -3.06211 -2.12287 0
M  V30 20178 H 1961.32 -4.65798 -1.12111 0
M  V30 20179 H 1959.69 -2.45185 -0.689655 0
M  V30 20180 H 1960.47 -3.35772 0.71499 0
M  V30 20181 N 1962.92 0.141865 -1.5696 0
M  V30 20182 C 1963.88 1.15896 -1.97739 0
M  V30 20183 C 1964.88 1.3558 -0.864556 0
M  V30 20184 O 1966.07 1.32485 -1.13107 0
M  V30 20185 C 1963.2 2.51822 -2.29779 0
M  V30 20186 H 1964.39 0.808993 -2.88782 0
M  V30 20187 H 1961.95 0.385387 -1.51474 0
M  V30 20188 H 1962.68 2.91781 -1.41543 0
M  V30 20189 H 1962.47 2.38894 -3.10921 0
M  V30 20190 H 1963.96 3.25066 -2.62148 0
M  V30 20191 N 1964.39 1.52136 0.411372 0
M  V30 20192 C 1965.64 1.66331 1.16025 0
M  V30 20193 C 1965.97 0.390981 1.90223 0
M  V30 20194 O 1965.25 -0.610512 1.8467 0
M  V30 20195 C 1965.53 2.88386 2.15651 0
M  V30 20196 C 1965.38 4.25664 1.45364 0
M  V30 20197 C 1966.7 3.05963 3.16346 0
M  V30 20198 H 1963.82 0.60531 0.420439 0
M  V30 20199 H 1966.46 1.84685 0.446247 0
M  V30 20200 H 1964.61 2.72869 2.76541 0
M  V30 20201 H 1966.29 4.52904 0.876105 0
M  V30 20202 H 1964.53 4.27168 0.75563 0
M  V30 20203 H 1965.2 5.07109 2.18047 0
M  V30 20204 H 1967.68 3.20363 2.65531 0
M  V30 20205 H 1966.55 3.92882 3.83321 0
M  V30 20206 H 1966.81 2.19177 3.83945 0
M  V30 20207 N 1965.87 -0.668464 1.42721 0
M  V30 20208 C 1967.29 -0.982344 1.25786 0
M  V30 20209 C 1967.49 -2.0081 0.166593 0
M  V30 20210 O 1966.55 -2.48273 -0.460069 0
M  V30 20211 C 1967.86 -1.48112 2.61693 0
M  V30 20212 C 1969.41 -1.59856 2.691 0
M  V30 20213 C 1969.88 -2.13128 4.05389 0
M  V30 20214 N 1971.37 -2.20452 4.07376 0
M  V30 20215 C 1972.11 -2.62761 5.09651 0
M  V30 20216 N 1971.6 -3.04475 6.22308 0
M  V30 20217 N 1973.4 -2.62565 4.97007 0
M  V30 20218 H 1965.55 0.0105662 2.12397 0
M  V30 20219 H 1967.81 -0.0578161 0.946235 0
M  V30 20220 H 1967.52 -0.801884 3.42436 0
M  V30 20221 H 1967.39 -2.45879 2.86048 0
M  V30 20222 H 1969.78 -2.26885 1.88699 0
M  V30 20223 H 1969.86 -0.605621 2.48527 0
M  V30 20224 H 1969.5 -1.46707 4.8625 0
M  V30 20225 H 1969.43 -3.13225 4.23317 0
M  V30 20226 H 1971.92 -1.91049 3.2605 0
M  V30 20227 H 1972.24 -3.35463 6.96193 0
M  V30 20228 H 1970.58 -3.02317 6.25803 0
M  V30 20229 H 1973.77 -2.29343 4.08068 0
M  V30 20230 H 1973.95 -2.95217 5.76846 0
M  V30 20231 N 1967.35 -1.28999 -0.905381 0
M  V30 20232 C 1968.76 -1.15033 -1.47052 0
M  V30 20233 C 1969.11 0.256623 -1.94514 0
M  V30 20234 O 1968.24 1.15164 -1.83211 0
M  V30 20235 C 1968.83 -2.08213 -2.67269 0
M  V30 20236 C 1967.39 -1.98286 -3.19937 0
M  V30 20237 C 1966.54 -1.99468 -1.92634 0
M  V30 20238 H 1969.49 -1.41566 -0.717271 0
M  V30 20239 H 1969.51 -1.65102 -3.42814 0
M  V30 20240 H 1969.02 -3.10604 -2.32695 0
M  V30 20241 H 1967.12 -0.98963 -3.59217 0
M  V30 20242 H 1967.24 -2.85666 -3.84619 0
M  V30 20243 H 1965.6 -1.43988 -2.10094 0
M  V30 20244 H 1966.38 -3.03554 -1.60344 0
M  V30 20245 N 1968.83 1.11497 -1.11383 0
M  V30 20246 C 1970.06 1.87027 -0.884793 0
M  V30 20247 C 1970.47 1.80136 0.565362 0
M  V30 20248 O 1969.83 1.18222 1.39032 0
M  V30 20249 C 1969.88 3.35862 -1.33713 0
M  V30 20250 O 1969.6 3.42606 -2.73043 0
M  V30 20251 C 1971.1 4.283 -1.14342 0
M  V30 20252 H 1968.32 0.591449 -0.316905 0
M  V30 20253 H 1970.87 1.4102 -1.481 0
M  V30 20254 H 1969.02 3.79376 -0.784385 0
M  V30 20255 H 1969.44 4.35278 -2.92632 0
M  V30 20256 H 1970.91 5.30975 -1.50894 0
M  V30 20257 H 1971.39 4.39122 -0.0829321 0
M  V30 20258 H 1971.99 3.90578 -1.68312 0
M  V30 20259 N 1970.31 0.904053 1.29092 0
M  V30 20260 C 1971.55 0.532203 1.95381 0
M  V30 20261 C 1971.88 -0.922327 1.71241 0
M  V30 20262 O 1971.14 -1.66968 1.02079 0
M  V30 20263 C 1971.44 0.776255 3.48868 0
M  V30 20264 C 1971.1 2.20882 3.93093 0
M  V30 20265 C 1969.76 2.60052 4.04878 0
M  V30 20266 C 1972.12 3.14152 4.15882 0
M  V30 20267 C 1969.44 3.91663 4.36826 0
M  V30 20268 C 1971.8 4.45317 4.49306 0
M  V30 20269 C 1970.46 4.84354 4.59301 0
M  V30 20270 H 1969.73 0.194747 0.714951 0
M  V30 20271 H 1972.38 1.14354 1.53608 0
M  V30 20272 H 1970.68 0.0820369 3.91714 0
M  V30 20273 H 1972.38 0.467861 3.98261 0
M  V30 20274 H 1968.97 1.89485 3.84439 0
M  V30 20275 H 1973.15 2.85103 4.06239 0
M  V30 20276 H 1968.41 4.21623 4.42769 0
M  V30 20277 H 1972.58 5.17611 4.65888 0
M  V30 20278 H 1970.21 5.86371 4.83811 0
M  V30 20279 N 1971.79 -1.4279 0.666995 0
M  V30 20280 C 1973.2 -1.56027 0.335817 0
M  V30 20281 C 1973.4 -1.64812 -1.15928 0
M  V30 20282 O 1972.46 -1.61074 -1.94451 0
M  V30 20283 C 1973.77 -2.81425 1.05928 0
M  V30 20284 C 1975.32 -2.95187 1.04085 0
M  V30 20285 C 1975.79 -4.23435 1.74548 0
M  V30 20286 N 1977.28 -4.3033 1.71379 0
M  V30 20287 C 1978.02 -5.2836 2.22762 0
M  V30 20288 N 1977.52 -6.32589 2.82494 0
M  V30 20289 N 1979.31 -5.20106 2.13182 0
M  V30 20290 H 1971.46 -1.35332 1.63704 0
M  V30 20291 H 1973.72 -0.650895 0.689231 0
M  V30 20292 H 1973.43 -2.81044 2.1144 0
M  V30 20293 H 1973.3 -3.72077 0.619546 0
M  V30 20294 H 1975.69 -2.95099 -0.00591289 0
M  V30 20295 H 1975.77 -2.05786 1.5194 0
M  V30 20296 H 1975.41 -4.24283 2.79189 0
M  V30 20297 H 1975.34 -5.11756 1.24149 0
M  V30 20298 H 1977.84 -3.55633 1.27803 0
M  V30 20299 H 1978.15 -7.03733 3.19343 0
M  V30 20300 H 1976.49 -6.33173 2.86561 0
M  V30 20301 H 1979.68 -4.37597 1.66211 0
M  V30 20302 H 1979.86 -5.96343 2.53534 0
M  V30 20303 N 1973.26 -0.409806 -1.52179 0
M  V30 20304 C 1974.51 0.166003 -2.02119 0
M  V30 20305 C 1974.84 1.44732 -1.29484 0
M  V30 20306 O 1974.12 1.90314 -0.401362 0
M  V30 20307 C 1974.4 0.413015 -3.57724 0
M  V30 20308 C 1974.25 -0.885028 -4.41007 0
M  V30 20309 C 1975.57 1.19486 -4.2357 0
M  V30 20310 H 1972.69 0.0588585 -0.734646 0
M  V30 20311 H 1975.33 -0.543405 -1.82063 0
M  V30 20312 H 1973.48 1.01732 -3.74944 0
M  V30 20313 H 1975.16 -1.5212 -4.35497 0
M  V30 20314 H 1973.4 -1.49585 -4.07194 0
M  V30 20315 H 1974.07 -0.66658 -5.47961 0
M  V30 20316 H 1976.55 0.683238 -4.10452 0
M  V30 20317 H 1975.42 1.33644 -5.32382 0
M  V30 20318 H 1975.68 2.21566 -3.82571 0
M  V30 20319 N 1974.74 1.56975 -0.14025 0
M  V30 20320 C 1975.67 2.19432 0.798233 0
M  V30 20321 C 1976.65 1.14055 1.26196 0
M  V30 20322 O 1977.84 1.42373 1.32074 0
M  V30 20323 C 1974.97 2.81059 2.04018 0
M  V30 20324 C 1973.92 3.92204 1.71347 0
M  V30 20325 C 1973.25 4.40735 3.02748 0
M  V30 20326 C 1974.55 5.13302 0.965327 0
M  V30 20327 H 1976.24 2.98109 0.277716 0
M  V30 20328 H 1973.79 1.43392 0.132137 0
M  V30 20329 H 1975.74 3.23417 2.70147 0
M  V30 20330 H 1974.46 1.99703 2.5843 0
M  V30 20331 H 1973.12 3.50454 1.07599 0
M  V30 20332 H 1972.77 3.5621 3.55138 0
M  V30 20333 H 1972.47 5.15698 2.81654 0
M  V30 20334 H 1974 4.85759 3.6996 0
M  V30 20335 H 1975.41 5.52547 1.52857 0
M  V30 20336 H 1973.81 5.93984 0.854574 0
M  V30 20337 H 1974.88 4.8488 -0.0441688 0
M  V30 20338 N 1976.22 -0.133539 1.57033 0
M  V30 20339 C 1977.47 -0.845109 1.84352 0
M  V30 20340 C 1977.8 -1.80205 0.723864 0
M  V30 20341 O 1977.07 -1.92596 -0.271485 0
M  V30 20342 C 1977.36 -1.6078 3.22214 0
M  V30 20343 C 1977.21 -0.671438 4.4476 0
M  V30 20344 C 1978.53 -2.56728 3.57462 0
M  V30 20345 H 1975.65 -0.305783 0.670571 0
M  V30 20346 H 1978.29 -0.109825 1.89682 0
M  V30 20347 H 1976.44 -2.23461 3.17801 0
M  V30 20348 H 1978.11 -0.0545922 4.61268 0
M  V30 20349 H 1976.35 0.018069 4.33796 0
M  V30 20350 H 1977.03 -1.24142 5.37859 0
M  V30 20351 H 1979.5 -2.04159 3.62572 0
M  V30 20352 H 1978.38 -3.07133 4.54929 0
M  V30 20353 H 1978.64 -3.38717 2.84119 0
M  V30 20354 N 1977.7 -1.52352 -0.403298 0
M  V30 20355 C 1978.95 -1.66368 -1.14744 0
M  V30 20356 C 1979.27 -0.398899 -1.90876 0
M  V30 20357 O 1978.54 0.586372 -1.86918 0
M  V30 20358 H 1977.12 -0.613226 -0.426571 0
M  V30 20359 H 1979.78 -1.89416 -0.459075 0
M  V30 20360 H 1978.87 -2.50748 -1.85828 0
M  V30 20361 N 1979.18 0.660885 -1.43074 0
M  V30 20362 C 1980.09 1.80324 -1.50068 0
M  V30 20363 C 1981.1 1.69611 -0.388331 0
M  V30 20364 O 1982.28 1.90916 -0.641321 0
M  V30 20365 C 1979.34 3.16557 -1.41394 0
M  V30 20366 C 1978.4 3.39124 -2.63236 0
M  V30 20367 C 1977.64 4.68858 -2.54967 0
M  V30 20368 O 1977.86 5.47699 -1.59318 0
M  V30 20369 O 1976.79 4.92975 -3.45339 0
M  V30 20370 H 1980.62 1.77379 -2.46516 0
M  V30 20371 H 1978.2 0.8184 -1.2499 0
M  V30 20372 H 1980.09 3.97825 -1.38971 0
M  V30 20373 H 1978.76 3.2011 -0.480768 0
M  V30 20374 H 1977.67 2.5765 -2.71233 0
M  V30 20375 H 1979 3.40413 -3.555 0
M  V30 20376 N 1980.65 1.29477 0.898527 0
M  V30 20377 C 1981.9 1.1769 1.65157 0
M  V30 20378 C 1982.23 -0.270742 1.92303 0
M  V30 20379 O 1981.51 -1.19538 1.5343 0
M  V30 20380 C 1981.79 1.99186 2.99995 0
M  V30 20381 C 1981.64 3.52097 2.79906 0
M  V30 20382 C 1982.96 1.81916 4.00743 0
M  V30 20383 H 1980.08 0.428901 0.599344 0
M  V30 20384 H 1982.72 1.58963 1.04071 0
M  V30 20385 H 1980.87 1.64116 3.52134 0
M  V30 20386 H 1982.55 3.97155 2.3466 0
M  V30 20387 H 1980.79 3.76962 2.14667 0
M  V30 20388 H 1981.46 4.04394 3.75725 0
M  V30 20389 H 1983.94 2.12549 3.57718 0
M  V30 20390 H 1982.81 2.41285 4.93024 0
M  V30 20391 H 1983.07 0.774654 4.3526 0
M  V30 20392 N 1982.13 -1.10905 1.11972 0
M  V30 20393 C 1983.04 -2.20682 0.796029 0
M  V30 20394 C 1984.06 -1.72689 -0.213158 0
M  V30 20395 O 1985.23 -2.01343 -0.047955 0
M  V30 20396 C 1982.3 -3.45797 0.250055 0
M  V30 20397 C 1981.36 -4.08549 1.31855 0
M  V30 20398 C 1980.59 -5.27692 0.798538 0
M  V30 20399 O 1980.82 -5.69202 -0.369435 0
M  V30 20400 O 1979.75 -5.81174 1.5659 0
M  V30 20401 H 1983.58 -2.50794 1.71278 0
M  V30 20402 H 1981.16 -1.19548 0.896024 0
M  V30 20403 H 1983.04 -4.21371 -0.0497791 0
M  V30 20404 H 1981.72 -3.17324 -0.639327 0
M  V30 20405 H 1980.63 -3.34682 1.67148 0
M  V30 20406 H 1981.96 -4.41215 2.18153 0
M  V30 20407 N 1983.61 -0.910886 -1.2861 0
M  V30 20408 C 1984.54 -0.35439 -2.26444 0
M  V30 20409 C 1985.56 0.505552 -1.54751 0
M  V30 20410 O 1986.74 0.320897 -1.75592 0
M  V30 20411 C 1983.84 0.512332 -3.35005 0
M  V30 20412 C 1983.02 -0.324442 -4.36195 0
M  V30 20413 C 1982.08 0.476907 -5.24034 0
M  V30 20414 O 1981.1 -0.109526 -5.69095 0
M  V30 20415 N 1982.3 1.78057 -5.52518 0
M  V30 20416 H 1985.07 -1.1953 -2.74832 0
M  V30 20417 H 1982.63 -0.776536 -1.42062 0
M  V30 20418 H 1984.62 1.05509 -3.90704 0
M  V30 20419 H 1983.19 1.25395 -2.86347 0
M  V30 20420 H 1982.41 -1.04858 -3.79998 0
M  V30 20421 H 1983.7 -0.897099 -5.00829 0
M  V30 20422 H 1983.1 2.27959 -5.17737 0
M  V30 20423 H 1981.66 2.27022 -6.10986 0
M  V30 20424 N 1985.09 1.42434 -0.674558 0
M  V30 20425 C 1986.34 2.00765 -0.193936 0
M  V30 20426 C 1986.65 1.53957 1.20651 0
M  V30 20427 O 1987.86 2.04705 1.78348 0
M  V30 20428 C 1986.31 3.58682 -0.295862 0
M  V30 20429 C 1985.92 4.14478 -1.70034 0
M  V30 20430 C 1987.66 4.24313 0.12606 0
M  V30 20431 C 1985.57 5.64758 -1.75505 0
M  V30 20432 H 1984.5 0.75086 -0.0687443 0
M  V30 20433 H 1987.15 1.6316 -0.839705 0
M  V30 20434 H 1985.53 3.9379 0.417795 0
M  V30 20435 H 1986.71 3.90831 -2.44106 0
M  V30 20436 H 1985.02 3.61298 -2.07009 0
M  V30 20437 H 1987.62 5.34596 0.105331 0
M  V30 20438 H 1987.96 3.99775 1.16127 0
M  V30 20439 H 1988.5 3.94164 -0.536581 0
M  V30 20440 H 1985.24 5.94094 -2.77007 0
M  V30 20441 H 1984.76 5.90397 -1.05788 0
M  V30 20442 H 1986.43 6.29172 -1.50838 0
M  V30 20443 N 1986.57 0.417871 1.51959 0
M  V30 20444 C 1987.81 -0.155282 2.02205 0
M  V30 20445 C 1988.15 -1.44044 1.3025 0
M  V30 20446 O 1987.42 -1.90098 0.411449 0
M  V30 20447 C 1987.7 -0.394038 3.57938 0
M  V30 20448 C 1987.56 0.908404 4.40532 0
M  V30 20449 C 1988.88 -1.17238 4.24197 0
M  V30 20450 H 1985.99 -0.0549616 0.734948 0
M  V30 20451 H 1988.64 0.553053 1.81773 0
M  V30 20452 H 1986.79 -0.997422 3.75478 0
M  V30 20453 H 1988.46 1.54427 4.34684 0
M  V30 20454 H 1986.7 1.51743 4.06395 0
M  V30 20455 H 1987.37 0.69563 5.47599 0
M  V30 20456 H 1989.85 -0.661461 4.10809 0
M  V30 20457 H 1988.72 -1.30818 5.33083 0
M  V30 20458 H 1988.99 -2.19534 3.83741 0
M  V30 20459 N 1988.04 -1.56898 0.148573 0
M  V30 20460 C 1989.27 -2.00974 -0.512287 0
M  V30 20461 C 1989.69 -1.02801 -1.57523 0
M  V30 20462 O 1989.05 -0.00400411 -1.813 0
M  V30 20463 C 1989.1 -3.43785 -1.08832 0
M  V30 20464 O 1988.2 -3.4862 -2.20313 0
M  V30 20465 H 1987.55 -0.652102 -0.125133 0
M  V30 20466 H 1990.08 -2.03119 0.245769 0
M  V30 20467 H 1990.09 -3.82618 -1.41659 0
M  V30 20468 H 1988.76 -4.14744 -0.309923 0
M  V30 20469 H 1987.34 -3.2163 -1.88702 0
M  V30 20470 N 1989.52 0.125209 -1.57102 0
M  V30 20471 C 1990.49 1.13792 -1.98957 0
M  V30 20472 C 1991.49 1.34656 -0.878887 0
M  V30 20473 O 1992.68 1.31278 -1.14506 0
M  V30 20474 C 1989.81 2.49371 -2.32437 0
M  V30 20475 H 1991 0.778319 -2.89624 0
M  V30 20476 H 1988.55 0.369299 -1.51875 0
M  V30 20477 H 1989.29 2.90263 -1.4463 0
M  V30 20478 H 1989.07 2.35583 -3.13437 0
M  V30 20479 H 1990.56 3.22268 -2.65581 0
M  V30 20480 N 1991 1.52564 0.395213 0
M  V30 20481 C 1991.93 1.79867 1.48897 0
M  V30 20482 C 1992.91 0.650351 1.57176 0
M  V30 20483 O 1994.1 0.897328 1.72226 0
M  V30 20484 C 1991.23 1.96192 2.86576 0
M  V30 20485 C 1990.18 3.11854 2.9314 0
M  V30 20486 C 1989.51 3.13424 4.33208 0
M  V30 20487 C 1990.81 4.51046 2.63353 0
M  V30 20488 H 1992.5 2.71457 1.26299 0
M  V30 20489 H 1990.05 1.30621 0.606145 0
M  V30 20490 H 1992 2.13875 3.63091 0
M  V30 20491 H 1990.72 1.01286 3.10498 0
M  V30 20492 H 1989.38 2.93944 2.19072 0
M  V30 20493 H 1989.03 2.16212 4.5416 0
M  V30 20494 H 1988.73 3.91117 4.38522 0
M  V30 20495 H 1990.25 3.33254 5.11639 0
M  V30 20496 H 1991.67 4.6909 3.29587 0
M  V30 20497 H 1990.07 5.3076 2.80024 0
M  V30 20498 H 1991.14 4.58187 1.58722 0
M  V30 20499 N 1992.48 -0.653289 1.43422 0
M  V30 20500 C 1993.41 -1.77779 1.51383 0
M  V30 20501 C 1994.39 -1.6606 0.368515 0
M  V30 20502 O 1995.57 -1.85157 0.585721 0
M  V30 20503 C 1992.7 -3.16206 1.43635 0
M  V30 20504 C 1991.66 -3.42688 2.56415 0
M  V30 20505 C 1990.98 -4.80915 2.3372 0
M  V30 20506 C 1992.28 -3.3744 3.98662 0
M  V30 20507 H 1993.98 -1.71374 2.45502 0
M  V30 20508 H 1991.52 -0.823062 1.1816 0
M  V30 20509 H 1993.48 -3.94627 1.47808 0
M  V30 20510 H 1992.2 -3.23341 0.460202 0
M  V30 20511 H 1990.86 -2.66638 2.51594 0
M  V30 20512 H 1990.51 -4.84726 1.34349 0
M  V30 20513 H 1990.21 -4.99594 3.09321 0
M  V30 20514 H 1991.73 -5.61594 2.39677 0
M  V30 20515 H 1993.15 -4.05798 4.0497 0
M  V30 20516 H 1991.54 -3.67656 4.74288 0
M  V30 20517 H 1992.61 -2.35624 4.23803 0
M  V30 20518 N 1993.96 -1.29952 -0.891648 0
M  V30 20519 C 1995.2 -1.18155 -1.63963 0
M  V30 20520 C 1995.53 0.265477 -1.93184 0
M  V30 20521 O 1994.8 1.1802 -1.56359 0
M  V30 20522 H 1993.38 -0.434297 -0.607779 0
M  V30 20523 H 1996.04 -1.62988 -1.06869 0
M  V30 20524 H 1995.13 -1.73753 -2.59261 0
M  V30 20525 N 1995.44 1.1031 -1.12559 0
M  V30 20526 C 1996.71 1.788 -0.793094 0
M  V30 20527 C 1997.09 1.98553 0.716932 0
M  V30 20528 O 1996.44 1.57962 1.65107 0
M  V30 20529 C 1996.65 3.1171 -1.56964 0
M  V30 20530 C 1998 3.86566 -1.75648 0
M  V30 20531 O 1999.02 3.21435 -1.53487 0
M  V30 20532 O 1997.88 5.03468 -2.1256 0
M  V30 20533 H 1994.98 0.775004 -0.288612 0
M  V30 20534 H 1997.52 1.16948 -1.22969 0
M  V30 20535 H 1996.29 2.92761 -2.59628 0
M  V30 20536 H 1995.92 3.81282 -1.12738 0
M  V30 20537 N 1996.91 0.917694 1.28125 0
M  V30 20538 C 1997.86 0.380221 2.24807 0
M  V30 20539 C 1998.85 -0.509883 1.52607 0
M  V30 20540 O 2000.04 -0.348962 1.73526 0
M  V30 20541 C 1997.17 -0.375004 3.41246 0
M  V30 20542 C 1996.25 0.531045 4.20762 0
M  V30 20543 N 1996.65 1.64641 4.78254 0
M  V30 20544 C 1994.94 0.33217 4.44761 0
M  V30 20545 C 1995.64 2.20912 5.3812 0
M  V30 20546 N 1994.62 1.4999 5.22498 0
M  V30 20547 H 1998.42 1.23198 2.66832 0
M  V30 20548 H 1995.94 0.770803 1.42942 0
M  V30 20549 H 1997.93 -0.776925 4.09597 0
M  V30 20550 H 1996.59 -1.22381 3.00754 0
M  V30 20551 H 1997.6 2.02894 4.76502 0
M  V30 20552 H 1994.28 -0.476801 4.14768 0
M  V30 20553 H 1995.67 3.14758 5.93613 0
M  V30 20554 N 1998.39 -1.42074 0.682102 0
M  V30 20555 C 1999.62 -2.05471 0.215716 0
M  V30 20556 C 2000.03 -1.51372 -1.13504 0
M  V30 20557 O 1999.37 -0.651251 -1.71768 0
M  V30 20558 C 1999.43 -3.59408 0.0812503 0
M  V30 20559 C 1999.1 -4.36236 1.36189 0
M  V30 20560 C 2000.1 -4.6641 2.29691 0
M  V30 20561 C 1997.78 -4.75747 1.61152 0
M  V30 20562 C 1999.77 -5.35039 3.46428 0
M  V30 20563 C 1997.46 -5.44115 2.78176 0
M  V30 20564 C 1998.46 -5.73687 3.70638 0
M  V30 20565 O 1998.15 -6.40651 4.85615 0
M  V30 20566 H 1997.88 -0.668449 0.100755 0
M  V30 20567 H 2000.43 -1.83072 0.931332 0
M  V30 20568 H 1998.66 -3.80494 -0.690014 0
M  V30 20569 H 2000.35 -4.04421 -0.346206 0
M  V30 20570 H 2001.12 -4.36378 2.11658 0
M  V30 20571 H 1997 -4.52119 0.900512 0
M  V30 20572 H 2000.54 -5.58037 4.18617 0
M  V30 20573 H 1996.44 -5.73565 2.96132 0
M  V30 20574 H 1997.21 -6.59144 4.85254 0
M  V30 20575 N 1999.87 -0.425924 -1.51735 0
M  V30 20576 C 2001.12 0.144557 -2.02284 0
M  V30 20577 C 2001.45 1.43351 -1.31012 0
M  V30 20578 O 2000.72 1.89877 -0.421524 0
M  V30 20579 C 2001.01 0.37505 -3.58142 0
M  V30 20580 C 2000.86 -0.931753 -4.40044 0
M  V30 20581 C 2002.18 1.14986 -4.24813 0
M  V30 20582 H 1999.3 0.0510632 -0.735229 0
M  V30 20583 H 2001.94 -0.562685 -1.81477 0
M  V30 20584 H 2000.09 0.977495 -3.76002 0
M  V30 20585 H 2001.76 -1.5673 -4.33859 0
M  V30 20586 H 2000 -1.53896 -4.05584 0
M  V30 20587 H 2000.68 -0.724661 -5.47223 0
M  V30 20588 H 2003.15 0.639666 -4.11154 0
M  V30 20589 H 2002.03 1.27989 -5.3377 0
M  V30 20590 H 2002.29 2.17496 -3.849 0
M  V30 20591 N 2001.35 1.56817 -0.156891 0
M  V30 20592 C 2002.28 2.14404 0.810167 0
M  V30 20593 C 2003.29 1.09595 1.20386 0
M  V30 20594 O 2004.48 1.36836 1.14622 0
M  V30 20595 C 2001.58 2.65998 2.09996 0
M  V30 20596 C 2000.75 3.95312 1.87209 0
M  V30 20597 C 1999.81 4.32116 3.00271 0
M  V30 20598 O 1998.84 5.00259 2.71532 0
M  V30 20599 N 2000.04 3.925 4.27696 0
M  V30 20600 H 2002.81 2.98009 0.317935 0
M  V30 20601 H 2000.37 1.61879 0.0263634 0
M  V30 20602 H 2002.36 2.87626 2.84699 0
M  V30 20603 H 2000.93 1.87062 2.50453 0
M  V30 20604 H 2000.15 3.82209 0.964891 0
M  V30 20605 H 2001.44 4.79795 1.69335 0
M  V30 20606 H 2000.84 3.37612 4.5391 0
M  V30 20607 H 1999.39 4.19159 4.99148 0
M  V30 20608 N 2002.83 -0.116876 1.57166 0
M  V30 20609 C 2003.76 -1.14443 2.03531 0
M  V30 20610 C 2004.74 -1.43063 0.920159 0
M  V30 20611 O 2005.92 -1.53468 1.19001 0
M  V30 20612 C 2003.05 -2.47006 2.44142 0
M  V30 20613 C 2002.01 -2.32843 3.59121 0
M  V30 20614 C 2001.33 -3.70388 3.85639 0
M  V30 20615 C 2002.63 -1.78717 4.90772 0
M  V30 20616 H 2004.33 -0.75878 2.89625 0
M  V30 20617 H 2001.87 -0.363551 1.39335 0
M  V30 20618 H 2003.82 -3.19143 2.75184 0
M  V30 20619 H 2002.55 -2.87465 1.55021 0
M  V30 20620 H 2001.21 -1.63155 3.28293 0
M  V30 20621 H 2000.86 -4.08335 2.9372 0
M  V30 20622 H 2000.56 -3.61764 4.63034 0
M  V30 20623 H 2002.08 -4.44026 4.19134 0
M  V30 20624 H 2003.49 -2.40673 5.20336 0
M  V30 20625 H 2001.89 -1.80909 5.72182 0
M  V30 20626 H 2002.96 -0.744891 4.79144 0
M  V30 20627 N 2004.3 -1.52772 -0.387116 0
M  V30 20628 C 2005.71 -1.59829 -0.964966 0
M  V30 20629 C 2006.07 -0.452304 -1.90915 0
M  V30 20630 O 2005.19 0.424353 -2.12199 0
M  V30 20631 C 2005.79 -2.89687 -1.7569 0
M  V30 20632 C 2004.34 -2.99151 -2.28442 0
M  V30 20633 C 2003.49 -2.54957 -1.0905 0
M  V30 20634 H 2006.44 -1.57823 -0.1666 0
M  V30 20635 H 2006.46 -2.76279 -2.6163 0
M  V30 20636 H 2005.98 -3.73074 -1.06945 0
M  V30 20637 H 2004.08 -2.20305 -3.00494 0
M  V30 20638 H 2004.19 -4.03827 -2.578 0
M  V30 20639 H 2002.55 -2.09321 -1.45109 0
M  V30 20640 H 2003.34 -3.40741 -0.418373 0
M  V30 20641 N 2005.78 0.645673 -1.43767 0
M  V30 20642 C 2006.74 1.74013 -1.49171 0
M  V30 20643 C 2007.74 1.56355 -0.375476 0
M  V30 20644 O 2008.93 1.62115 -0.637529 0
M  V30 20645 C 2006.07 3.12961 -1.3516 0
M  V30 20646 H 2007.26 1.706 -2.46649 0
M  V30 20647 H 2004.81 0.858019 -1.30643 0
M  V30 20648 H 2005.55 3.2198 -0.387199 0
M  V30 20649 H 2005.33 3.27184 -2.16086 0
M  V30 20650 H 2006.82 3.92755 -1.41891 0
M  V30 20651 N 2007.26 1.30423 0.884744 0
M  V30 20652 C 2008.49 1.22184 1.66969 0
M  V30 20653 C 2008.9 -0.215259 1.87569 0
M  V30 20654 O 2008.26 -1.14224 1.42335 0
M  V30 20655 C 2008.31 1.94692 3.04593 0
M  V30 20656 O 2008.03 3.32792 2.84923 0
M  V30 20657 C 2009.53 1.93114 3.99026 0
M  V30 20658 H 2006.75 0.422826 0.521018 0
M  V30 20659 H 2009.3 1.72052 1.10537 0
M  V30 20660 H 2007.45 1.48623 3.57757 0
M  V30 20661 H 2007.87 3.69517 3.72233 0
M  V30 20662 H 2009.34 2.48386 4.92959 0
M  V30 20663 H 2009.82 0.91013 4.29666 0
M  V30 20664 H 2010.42 2.38996 3.51797 0
M  V30 20665 N 2008.74 -1.09711 1.13142 0
M  V30 20666 C 2009.97 -1.85326 0.91311 0
M  V30 20667 C 2010.38 -1.81289 -0.541396 0
M  V30 20668 O 2009.72 -1.20519 -1.3864 0
M  V30 20669 C 2009.78 -3.34413 1.3194 0
M  V30 20670 C 2009.44 -3.62202 2.78673 0
M  V30 20671 C 2010.44 -3.58171 3.76841 0
M  V30 20672 C 2008.13 -3.9064 3.15762 0
M  V30 20673 C 2010.12 -3.82186 5.1011 0
M  V30 20674 C 2007.81 -4.1431 4.49211 0
M  V30 20675 C 2008.81 -4.10074 5.46194 0
M  V30 20676 O 2008.49 -4.33135 6.77236 0
M  V30 20677 H 2008.23 -0.592338 0.325748 0
M  V30 20678 H 2010.78 -1.39558 1.50708 0
M  V30 20679 H 2009.01 -3.80875 0.668681 0
M  V30 20680 H 2010.7 -3.91433 1.07403 0
M  V30 20681 H 2011.46 -3.36231 3.49533 0
M  V30 20682 H 2007.34 -3.93064 2.40878 0
M  V30 20683 H 2010.89 -3.78795 5.85799 0
M  V30 20684 H 2006.78 -4.35731 4.76245 0
M  V30 20685 H 2007.55 -4.50611 6.83295 0
M  V30 20686 N 2010.22 -0.924476 -1.27637 0
M  V30 20687 C 2011.15 -0.365478 -2.25254 0
M  V30 20688 C 2012.13 0.536345 -1.535 0
M  V30 20689 O 2013.31 0.47758 -1.8235 0
M  V30 20690 C 2010.44 0.47649 -3.35332 0
M  V30 20691 C 2009.48 -0.36145 -4.24966 0
M  V30 20692 S 2010.32 -1.77496 -5.05228 0
M  V30 20693 C 2011.47 -0.940592 -6.18792 0
M  V30 20694 H 2011.71 -1.19283 -2.72321 0
M  V30 20695 H 2009.24 -0.726442 -1.36243 0
M  V30 20696 H 2011.2 0.95642 -3.99203 0
M  V30 20697 H 2009.86 1.27834 -2.8691 0
M  V30 20698 H 2009.05 0.282848 -5.03206 0
M  V30 20699 H 2008.65 -0.775432 -3.65873 0
M  V30 20700 H 2010.95 -0.175113 -6.77274 0
M  V30 20701 H 2011.89 -1.69589 -6.87492 0
M  V30 20702 H 2012.3 -0.484027 -5.62421 0
M  V30 20703 N 2011.69 1.41711 -0.689627 0
M  V30 20704 C 2012.64 2.32598 -0.0090856 0
M  V30 20705 C 2013.64 1.50639 0.774873 0
M  V30 20706 O 2014.84 1.66614 0.681165 0
M  V30 20707 H 2011.22 0.751833 0.0158614 0
M  V30 20708 H 2013.19 2.87676 -0.79278 0
M  V30 20709 C 2011.94 3.35371 0.917683 0
M  V30 20710 H 2011.26 3.98486 0.323858 0
M  V30 20711 H 2012.7 4.0152 1.36228 0
M  V30 20712 C 2011.16 2.68792 2.03107 0
M  V30 20713 O 2011.69 2.53118 3.1192 0
M  V30 20714 N 2009.9 2.27581 1.80708 0
M  V30 20715 H 2009.44 2.4053 0.922133 0
M  V30 20716 H 2009.4 1.83368 2.55389 0
M  V30 20717 N 2013.17 0.433965 1.51507 0
M  V30 20718 C 2014.1 -0.369789 2.30553 0
M  V30 20719 C 2015.08 -1.02405 1.35821 0
M  V30 20720 O 2016.27 -1.02833 1.64739 0
M  V30 20721 C 2013.4 -1.47312 3.1451 0
M  V30 20722 C 2012.35 -0.942531 4.17493 0
M  V30 20723 C 2011.68 -2.14135 4.89949 0
M  V30 20724 C 2012.98 0.0206958 5.22296 0
M  V30 20725 H 2014.67 0.289851 2.97994 0
M  V30 20726 H 2012.22 0.14084 1.4331 0
M  V30 20727 H 2014.17 -2.04259 3.68587 0
M  V30 20728 H 2012.9 -2.161 2.44884 0
M  V30 20729 H 2011.55 -0.395296 3.64463 0
M  V30 20730 H 2011.2 -2.81535 4.1683 0
M  V30 20731 H 2010.9 -1.79273 5.59584 0
M  V30 20732 H 2012.43 -2.71642 5.46848 0
M  V30 20733 H 2013.84 -0.458366 5.71465 0
M  V30 20734 H 2012.24 0.281718 5.99438 0
M  V30 20735 H 2013.31 0.958416 4.75334 0
M  V30 20736 N 2014.65 -1.56732 0.165206 0
M  V30 20737 C 2015.9 -1.96308 -0.48036 0
M  V30 20738 C 2016.22 -1.05198 -1.6419 0
M  V30 20739 O 2015.49 -0.117108 -1.9555 0
M  V30 20740 H 2014.07 -0.724877 -0.180451 0
M  V30 20741 H 2016.73 -1.93354 0.244961 0
M  V30 20742 H 2015.83 -3.00459 -0.844437 0
M  V30 20743 N 2016.13 0.10854 -1.57226 0
M  V30 20744 C 2017.54 0.664549 -1.74472 0
M  V30 20745 C 2017.89 1.79792 -0.785438 0
M  V30 20746 O 2017.02 2.16364 0.0392281 0
M  V30 20747 C 2017.61 1.21227 -3.16369 0
M  V30 20748 C 2016.17 1.71447 -3.35086 0
M  V30 20749 C 2015.32 0.618471 -2.70315 0
M  V30 20750 H 2018.27 -0.11745 -1.58265 0
M  V30 20751 H 2018.29 2.08181 -3.18498 0
M  V30 20752 H 2017.8 0.387164 -3.86164 0
M  V30 20753 H 2015.9 2.56402 -2.7035 0
M  V30 20754 H 2016.01 1.81672 -4.4332 0
M  V30 20755 H 2014.38 1.05465 -2.31839 0
M  V30 20756 H 2015.16 -0.195832 -3.42741 0
M  V30 20757 N 2017.61 1.52975 0.379009 0
M  V30 20758 C 2018.83 1.72698 1.14849 0
M  V30 20759 C 2019.26 0.448814 1.82667 0
M  V30 20760 O 2018.61 -0.596182 1.71217 0
M  V30 20761 C 2018.66 2.884 2.16466 0
M  V30 20762 O 2017.77 2.56071 3.23267 0
M  V30 20763 H 2017.11 0.573952 0.333878 0
M  V30 20764 H 2019.64 1.99807 0.440243 0
M  V30 20765 H 2019.65 3.14183 2.60295 0
M  V30 20766 H 2018.32 3.8112 1.66494 0
M  V30 20767 H 2016.9 2.41063 2.84505 0
M  V30 20768 N 2019.08 -0.63804 1.44107 0
M  V30 20769 C 2020.31 -1.4251 1.49995 0
M  V30 20770 C 2020.73 -1.88401 0.122604 0
M  V30 20771 O 2020.08 -1.60419 -0.870168 0
M  V30 20772 C 2020.14 -2.65002 2.45879 0
M  V30 20773 O 2019.86 -2.21025 3.78259 0
M  V30 20774 C 2021.36 -3.58203 2.61162 0
M  V30 20775 H 2018.58 -0.437285 0.508943 0
M  V30 20776 H 2021.12 -0.780912 1.89003 0
M  V30 20777 H 2019.28 -3.25527 2.10026 0
M  V30 20778 H 2019.69 -3.00388 4.29962 0
M  V30 20779 H 2021.16 -4.40776 3.32295 0
M  V30 20780 H 2021.64 -4.06556 1.6616 0
M  V30 20781 H 2022.25 -3.0355 2.97888 0
M  V30 20782 N 2020.56 -1.3089 -0.877815 0
M  V30 20783 C 2021.79 -1.23199 -1.66844 0
M  V30 20784 C 2022.21 0.200808 -1.87025 0
M  V30 20785 O 2021.57 1.14417 -1.40636 0
M  V30 20786 C 2021.62 -1.97328 -3.01818 0
M  V30 20787 O 2020.72 -1.30526 -3.91199 0
M  V30 20788 H 2020.06 -0.425746 -0.509545 0
M  V30 20789 H 2022.59 -1.7283 -1.09504 0
M  V30 20790 H 2022.6 -2.06624 -3.51811 0
M  V30 20791 H 2021.28 -3.01529 -2.86449 0
M  V30 20792 H 2019.86 -1.29631 -3.49643 0
M  V30 20793 N 2022.04 1.0911 -1.13723 0
M  V30 20794 C 2022.99 2.14013 -0.786296 0
M  V30 20795 C 2023.97 1.59372 0.221184 0
M  V30 20796 O 2025.17 1.76983 0.024608 0
M  V30 20797 C 2022.3 3.42332 -0.257565 0
M  V30 20798 C 2021.38 4.03872 -1.29414 0
M  V30 20799 N 2021.77 4.39921 -2.49607 0
M  V30 20800 C 2020.07 4.31113 -1.14269 0
M  V30 20801 C 2020.77 4.88444 -3.15908 0
M  V30 20802 N 2019.75 4.86101 -2.43324 0
M  V30 20803 H 2023.55 2.39694 -1.70071 0
M  V30 20804 H 2021.06 1.2637 -1.02002 0
M  V30 20805 H 2023.06 4.16898 0.0121037 0
M  V30 20806 H 2021.72 3.18104 0.651135 0
M  V30 20807 H 2022.73 4.31179 -2.86889 0
M  V30 20808 H 2019.41 4.16475 -0.292414 0
M  V30 20809 H 2020.8 5.25774 -4.18344 0
M  V30 20810 N 2023.52 0.931232 1.27145 0
M  V30 20811 C 2024.43 0.438807 2.3046 0
M  V30 20812 C 2025.44 -0.482275 1.67183 0
M  V30 20813 O 2026.62 -0.364225 1.98079 0
M  V30 20814 C 2023.69 -0.297266 3.45423 0
M  V30 20815 C 2022.75 0.659161 4.24209 0
M  V30 20816 C 2021.98 -0.0418787 5.33684 0
M  V30 20817 O 2022.2 -1.26062 5.56295 0
M  V30 20818 O 2021.14 0.631751 5.98575 0
M  V30 20819 H 2024.96 1.29675 2.74624 0
M  V30 20820 H 2022.55 0.696718 1.3216 0
M  V30 20821 H 2024.43 -0.712299 4.15336 0
M  V30 20822 H 2023.1 -1.13075 3.03308 0
M  V30 20823 H 2022.01 1.12394 3.56817 0
M  V30 20824 H 2023.34 1.45997 4.70049 0
M  V30 20825 N 2025 -1.41343 0.697132 0
M  V30 20826 C 2025.93 -2.28193 -0.017778 0
M  V30 20827 C 2026.91 -1.4232 -0.786373 0
M  V30 20828 O 2028.09 -1.71747 -0.776865 0
M  V30 20829 C 2025.22 -3.22577 -1.03256 0
M  V30 20830 C 2024.27 -4.25004 -0.356949 0
M  V30 20831 S 2025.1 -5.27852 0.901798 0
M  V30 20832 C 2026.25 -6.25801 -0.111346 0
M  V30 20833 H 2026.49 -2.88479 0.718839 0
M  V30 20834 H 2024.02 -1.46503 0.487463 0
M  V30 20835 H 2025.98 -3.77487 -1.61288 0
M  V30 20836 H 2024.64 -2.61384 -1.74176 0
M  V30 20837 H 2023.83 -4.9132 -1.12343 0
M  V30 20838 H 2023.43 -3.73698 0.150343 0
M  V30 20839 H 2025.73 -6.70605 -0.964122 0
M  V30 20840 H 2026.67 -7.06203 0.517933 0
M  V30 20841 H 2027.08 -5.62566 -0.466819 0
M  V30 20842 N 2026.48 -0.441993 -1.51275 0
M  V30 20843 C 2027.42 0.381441 -2.29451 0
M  V30 20844 C 2028.42 1.01672 -1.35496 0
M  V30 20845 O 2029.62 0.95115 -1.52817 0
M  V30 20846 H 2026 0.141826 -0.738505 0
M  V30 20847 H 2027.97 -0.298692 -2.96901 0
M  V30 20848 C 2026.72 1.46756 -3.15211 0
M  V30 20849 H 2026.04 0.988092 -3.87397 0
M  V30 20850 H 2027.48 2.01687 -3.72959 0
M  V30 20851 C 2025.94 2.4534 -2.30889 0
M  V30 20852 O 2026.47 3.49979 -1.97173 0
M  V30 20853 N 2024.68 2.16342 -1.94022 0
M  V30 20854 H 2024.22 1.31276 -2.2164 0
M  V30 20855 H 2024.18 2.82543 -1.37902 0
M  V30 20856 N 2027.95 1.56642 -0.173515 0
M  V30 20857 C 2029.2 1.97241 0.47157 0
M  V30 20858 C 2029.53 1.05958 1.62747 0
M  V30 20859 O 2028.81 0.107151 1.94205 0
M  V30 20860 C 2029.09 3.47276 0.952439 0
M  V30 20861 C 2028.94 4.49338 -0.203789 0
M  V30 20862 C 2030.26 4.00461 1.82535 0
M  V30 20863 H 2027.38 0.71714 0.169941 0
M  V30 20864 H 2030.02 1.88211 -0.260093 0
M  V30 20865 H 2028.17 3.55102 1.57591 0
M  V30 20866 H 2029.85 4.5357 -0.840936 0
M  V30 20867 H 2028.09 4.25211 -0.858945 0
M  V30 20868 H 2028.76 5.51723 0.174833 0
M  V30 20869 H 2031.24 3.9528 1.29974 0
M  V30 20870 H 2030.11 5.05853 2.13083 0
M  V30 20871 H 2030.37 3.44409 2.7719 0
M  V30 20872 N 2029.43 -0.1002 1.57281 0
M  V30 20873 C 2030.85 -0.454271 1.52998 0
M  V30 20874 C 2031.05 -1.80807 0.889451 0
M  V30 20875 O 2030.1 -2.479 0.479781 0
M  V30 20876 C 2031.42 -0.421457 2.97732 0
M  V30 20877 C 2032.96 -0.503676 3.08921 0
M  V30 20878 C 2033.44 -0.501062 4.55251 0
M  V30 20879 N 2034.93 -0.561964 4.59778 0
M  V30 20880 C 2035.67 -0.581696 5.70442 0
M  V30 20881 N 2035.16 -0.557942 6.9055 0
M  V30 20882 N 2036.95 -0.626123 5.58602 0
M  V30 20883 H 2029.11 0.786609 1.97297 0
M  V30 20884 H 2031.37 0.292244 0.90183 0
M  V30 20885 H 2031.07 0.506016 3.48041 0
M  V30 20886 H 2030.95 -1.24233 3.56154 0
M  V30 20887 H 2033.34 -1.42157 2.58603 0
M  V30 20888 H 2033.42 0.345241 2.5346 0
M  V30 20889 H 2033.06 0.412865 5.06219 0
M  V30 20890 H 2032.99 -1.36712 5.08544 0
M  V30 20891 H 2035.48 -0.585723 3.73333 0
M  V30 20892 H 2035.79 -0.576141 7.70649 0
M  V30 20893 H 2034.14 -0.52507 6.93014 0
M  V30 20894 H 2037.33 -0.642175 4.63674 0
M  V30 20895 H 2037.5 -0.638033 6.44851 0
M  V30 20896 N 2030.91 -1.53174 -0.370891 0
M  V30 20897 C 2032.32 -1.60843 -0.94796 0
M  V30 20898 C 2032.67 -0.472528 -1.90425 0
M  V30 20899 O 2031.8 0.401822 -2.12637 0
M  V30 20900 C 2032.39 -2.91534 -1.72607 0
M  V30 20901 C 2030.95 -3.01557 -2.25257 0
M  V30 20902 C 2030.1 -2.561 -1.0634 0
M  V30 20903 H 2033.05 -1.57991 -0.149852 0
M  V30 20904 H 2033.07 -2.79038 -2.58685 0
M  V30 20905 H 2032.58 -3.74188 -1.02982 0
M  V30 20906 H 2030.68 -2.23479 -2.9814 0
M  V30 20907 H 2030.8 -4.06538 -2.53502 0
M  V30 20908 H 2029.16 -2.10849 -1.42881 0
M  V30 20909 H 2029.94 -3.41166 -0.38221 0
M  V30 20910 N 2032.39 0.630389 -1.44443 0
M  V30 20911 C 2033.3 1.77101 -1.53859 0
M  V30 20912 C 2034.31 1.68749 -0.424221 0
M  V30 20913 O 2035.49 1.89513 -0.681673 0
M  V30 20914 C 2032.55 3.13487 -1.48077 0
M  V30 20915 C 2031.62 3.33464 -2.7037 0
M  V30 20916 C 2030.85 4.63344 -2.64855 0
M  V30 20917 O 2031.07 5.44196 -1.70899 0
M  V30 20918 O 2030.01 4.85539 -3.55718 0
M  V30 20919 H 2033.83 1.7211 -2.50223 0
M  V30 20920 H 2031.42 0.791704 -1.26698 0
M  V30 20921 H 2033.3 3.94788 -1.47378 0
M  V30 20922 H 2031.97 3.19018 -0.54856 0
M  V30 20923 H 2030.88 2.51839 -2.76637 0
M  V30 20924 H 2032.21 3.32795 -3.6264 0
M  V30 20925 N 2033.87 1.31354 0.870861 0
M  V30 20926 C 2034.8 1.14748 1.98408 0
M  V30 20927 C 2035.81 0.0868023 1.62568 0
M  V30 20928 O 2037 0.334209 1.75343 0
M  V30 20929 C 2034.1 0.730792 3.30927 0
M  V30 20930 C 2033.27 1.87628 3.95113 0
M  V30 20931 C 2032.33 1.44581 5.05948 0
M  V30 20932 O 2031.36 2.15531 5.26816 0
M  V30 20933 N 2032.56 0.332698 5.79546 0
M  V30 20934 H 2035.32 2.10633 2.13199 0
M  V30 20935 H 2032.89 1.23676 1.04479 0
M  V30 20936 H 2034.88 0.425538 4.02457 0
M  V30 20937 H 2033.45 -0.136426 3.12302 0
M  V30 20938 H 2032.67 2.3489 3.16576 0
M  V30 20939 H 2033.96 2.64356 4.34734 0
M  V30 20940 H 2033.35 -0.258188 5.65111 0
M  V30 20941 H 2031.91 0.0869715 6.51742 0
M  V30 20942 N 2035.34 -1.08505 1.143 0
M  V30 20943 C 2036.75 -1.62355 0.921836 0
M  V30 20944 C 2037.11 -1.88635 -0.539569 0
M  V30 20945 O 2036.23 -1.64307 -1.40827 0
M  V30 20946 C 2036.83 -2.94955 1.66694 0
M  V30 20947 C 2035.38 -3.45593 1.49139 0
M  V30 20948 C 2034.53 -2.19845 1.69008 0
M  V30 20949 H 2037.48 -0.917442 1.29494 0
M  V30 20950 H 2037.5 -3.63348 1.12954 0
M  V30 20951 H 2037.02 -2.75796 2.73053 0
M  V30 20952 H 2035.12 -3.69858 0.451226 0
M  V30 20953 H 2035.23 -4.2241 2.26068 0
M  V30 20954 H 2033.59 -2.28966 1.11565 0
M  V30 20955 H 2034.38 -2.03194 2.76707 0
M  V30 20956 N 2036.82 -0.937962 -1.26649 0
M  V30 20957 C 2037.75 -0.402342 -2.25641 0
M  V30 20958 C 2038.77 0.472614 -1.55789 0
M  V30 20959 O 2039.96 0.283579 -1.76233 0
M  V30 20960 C 2037.06 0.441157 -3.36016 0
M  V30 20961 C 2036.23 -0.416892 -4.35409 0
M  V30 20962 C 2035.29 0.365644 -5.24928 0
M  V30 20963 O 2034.31 -0.230215 -5.68734 0
M  V30 20964 N 2035.52 1.66298 -5.5617 0
M  V30 20965 H 2038.28 -1.25333 -2.72235 0
M  V30 20966 H 2035.84 -0.806494 -1.40383 0
M  V30 20967 H 2037.83 0.971979 -3.92855 0
M  V30 20968 H 2036.4 1.19293 -2.88943 0
M  V30 20969 H 2035.62 -1.12895 -3.77688 0
M  V30 20970 H 2036.91 -1.00313 -4.98813 0
M  V30 20971 H 2036.31 2.16925 -5.22456 0
M  V30 20972 H 2034.87 2.14011 -6.15664 0
M  V30 20973 N 2038.3 1.40971 -0.704618 0
M  V30 20974 C 2039.55 2.0108 -0.239427 0
M  V30 20975 C 2039.87 1.55835 1.16386 0
M  V30 20976 O 2039.13 0.76445 1.80152 0
M  V30 20977 C 2039.43 3.56487 -0.255368 0
M  V30 20978 C 2039.09 4.21275 -1.60743 0
M  V30 20979 C 2037.76 4.38686 -1.97756 0
M  V30 20980 C 2040.11 4.57518 -2.49654 0
M  V30 20981 C 2037.44 4.8962 -3.23247 0
M  V30 20982 C 2039.79 5.09846 -3.74486 0
M  V30 20983 C 2038.45 5.25468 -4.11631 0
M  V30 20984 H 2037.72 0.735802 -0.0876124 0
M  V30 20985 H 2040.37 1.6874 -0.905491 0
M  V30 20986 H 2038.67 3.8867 0.494257 0
M  V30 20987 H 2040.37 4.00814 0.122235 0
M  V30 20988 H 2036.96 4.08103 -1.30957 0
M  V30 20989 H 2041.15 4.43712 -2.22336 0
M  V30 20990 H 2036.4 4.99899 -3.52009 0
M  V30 20991 H 2040.58 5.36868 -4.4356 0
M  V30 20992 H 2038.2 5.64697 -5.08941 0
M  V30 20993 N 2039.78 0.45001 1.51039 0
M  V30 20994 C 2041 -0.112834 2.07093 0
M  V30 20995 C 2041.43 -1.34598 1.31397 0
M  V30 20996 O 2040.79 -1.7778 0.355505 0
M  V30 20997 C 2040.83 -0.400989 3.58364 0
M  V30 20998 O 2039.94 -1.48527 3.84725 0
M  V30 20999 H 2039.28 0.00369778 0.66399 0
M  V30 21000 H 2041.81 0.634991 1.94497 0
M  V30 21001 H 2041.82 -0.647726 4.02826 0
M  V30 21002 H 2040.49 0.500232 4.12881 0
M  V30 21003 H 2039.07 -1.2275 3.52118 0
M  V30 21004 N 2041.26 -1.56548 0.18182 0
M  V30 21005 C 2042.67 -1.83704 -0.3331 0
M  V30 21006 C 2043.02 -1.10203 -1.62326 0
M  V30 21007 O 2042.14 -0.358476 -2.1341 0
M  V30 21008 C 2042.74 -3.33243 -0.611134 0
M  V30 21009 C 2041.3 -3.60857 -1.07046 0
M  V30 21010 C 2040.44 -2.77074 -0.111929 0
M  V30 21011 H 2043.4 -1.53422 0.405878 0
M  V30 21012 H 2043.42 -3.51292 -1.462 0
M  V30 21013 H 2042.93 -3.86711 0.328039 0
M  V30 21014 H 2041.03 -3.1281 -2.02437 0
M  V30 21015 H 2041.14 -4.69129 -0.972357 0
M  V30 21016 H 2039.51 -2.47255 -0.611302 0
M  V30 21017 H 2040.29 -3.33327 0.821452 0
M  V30 21018 N 2042.73 0.0918577 -1.57332 0
M  V30 21019 C 2043.67 1.14242 -1.97545 0
M  V30 21020 C 2044.65 1.38665 -0.849166 0
M  V30 21021 O 2045.83 1.52371 -1.10974 0
M  V30 21022 C 2042.96 2.49094 -2.29499 0
M  V30 21023 C 2042 2.40932 -3.51929 0
M  V30 21024 S 2042.84 1.82272 -5.03525 0
M  V30 21025 C 2043.99 3.18742 -5.3866 0
M  V30 21026 H 2044.22 0.799633 -2.86344 0
M  V30 21027 H 2041.76 0.299658 -1.51464 0
M  V30 21028 H 2043.72 3.26674 -2.48585 0
M  V30 21029 H 2042.38 2.80541 -1.41264 0
M  V30 21030 H 2041.57 3.40331 -3.7174 0
M  V30 21031 H 2041.17 1.71483 -3.3237 0
M  V30 21032 H 2043.46 4.15022 -5.35503 0
M  V30 21033 H 2044.41 3.03732 -6.3965 0
M  V30 21034 H 2044.81 3.18423 -4.66119 0
M  V30 21035 N 2044.21 1.53368 0.362763 0
M  V30 21036 C 2045.62 1.61344 0.939417 0
M  V30 21037 C 2045.97 0.48262 1.90172 0
M  V30 21038 O 2045.1 -0.39054 2.12847 0
M  V30 21039 C 2045.69 2.92445 1.71059 0
M  V30 21040 C 2044.25 3.02747 2.23654 0
M  V30 21041 C 2043.4 2.5666 1.0498 0
M  V30 21042 H 2046.35 1.58068 0.141471 0
M  V30 21043 H 2046.37 2.80406 2.57201 0
M  V30 21044 H 2045.88 3.74728 1.00996 0
M  V30 21045 H 2043.99 2.25057 2.96951 0
M  V30 21046 H 2044.1 4.07877 2.51343 0
M  V30 21047 H 2042.46 2.11603 1.41761 0
M  V30 21048 H 2043.25 3.41364 0.364111 0
M  V30 21049 N 2045.69 -0.62272 1.44776 0
M  V30 21050 C 2046.94 -1.37937 1.47708 0
M  V30 21051 C 2047.26 -1.94665 0.114186 0
M  V30 21052 O 2046.53 -1.76277 -0.854583 0
M  V30 21053 H 2045.11 -0.512023 0.543914 0
M  V30 21054 H 2047.77 -0.732336 1.80618 0
M  V30 21055 H 2046.87 -2.20646 2.2073 0
M  V30 21056 N 2047.17 -1.31814 -0.863883 0
M  V30 21057 C 2048.12 -1.19916 -1.99306 0
M  V30 21058 C 2049.11 -0.106055 -1.69068 0
M  V30 21059 O 2050.32 -0.26836 -1.77988 0
M  V30 21060 H 2046.69 -0.371464 -0.653849 0
M  V30 21061 H 2048.66 -2.15436 -2.0647 0
M  V30 21062 C 2047.41 -0.929593 -3.35043 0
M  V30 21063 H 2046.73 -1.76288 -3.58835 0
M  V30 21064 H 2048.17 -0.886553 -4.14628 0
M  V30 21065 C 2046.63 0.367677 -3.34888 0
M  V30 21066 O 2047.16 1.38252 -3.77159 0
M  V30 21067 N 2045.37 0.386376 -2.8802 0
M  V30 21068 H 2044.92 -0.439994 -2.53815 0
M  V30 21069 H 2044.87 1.25425 -2.88299 0
M  V30 21070 N 2048.65 1.07897 -1.14873 0
M  V30 21071 C 2049.89 1.80653 -0.921532 0
M  V30 21072 C 2050.23 1.8624 0.550287 0
M  V30 21073 O 2049.5 1.34206 1.4078 0
M  V30 21074 C 2049.78 3.26 -1.52958 0
M  V30 21075 C 2049.64 3.28591 -3.07161 0
M  V30 21076 C 2050.96 4.23118 -1.21076 0
M  V30 21077 H 2048.07 0.655845 -0.336208 0
M  V30 21078 H 2050.72 1.26293 -1.41951 0
M  V30 21079 H 2048.87 3.72421 -1.1061 0
M  V30 21080 H 2050.54 2.90454 -3.58377 0
M  V30 21081 H 2048.78 2.67712 -3.4134 0
M  V30 21082 H 2049.45 4.31053 -3.44815 0
M  V30 21083 H 2051.93 3.85059 -1.57697 0
M  V30 21084 H 2050.8 5.23119 -1.66246 0
M  V30 21085 H 2051.07 4.41918 -0.12688 0
M  V30 21086 N 2050.12 0.944665 1.2615 0
M  V30 21087 C 2051.54 0.647519 1.45874 0
M  V30 21088 C 2051.74 -0.798095 1.85021 0
M  V30 21089 O 2050.8 -1.57439 1.97406 0
M  V30 21090 C 2052.11 1.61192 2.53845 0
M  V30 21091 C 2053.66 1.62201 2.67694 0
M  V30 21092 C 2054.13 2.5738 3.7884 0
M  V30 21093 N 2055.62 2.55686 3.86237 0
M  V30 21094 C 2056.36 3.26015 4.71701 0
M  V30 21095 N 2055.85 4.05782 5.61527 0
M  V30 21096 N 2057.65 3.1495 4.65578 0
M  V30 21097 H 2049.8 1.87901 0.990296 0
M  V30 21098 H 2052.06 0.807679 0.496345 0
M  V30 21099 H 2051.77 2.64402 2.31915 0
M  V30 21100 H 2051.64 1.36668 3.5157 0
M  V30 21101 H 2054.03 0.597142 2.88995 0
M  V30 21102 H 2054.11 1.9078 1.70402 0
M  V30 21103 H 2053.75 3.59987 3.5829 0
M  V30 21104 H 2053.68 2.26089 4.75596 0
M  V30 21105 H 2056.17 1.97768 3.22019 0
M  V30 21106 H 2056.49 4.56389 6.23642 0
M  V30 21107 H 2054.83 4.09882 5.61268 0
M  V30 21108 H 2058.02 2.52113 3.94407 0
M  V30 21109 H 2058.2 3.70027 5.31962 0
M  V30 21110 N 2051.6 -1.40596 0.712085 0
M  V30 21111 C 2053.02 -1.5488 0.385286 0
M  V30 21112 C 2053.22 -1.68416 -1.10626 0
M  V30 21113 O 2052.27 -1.67179 -1.89228 0
M  V30 21114 C 2053.59 -2.77912 1.14828 0
M  V30 21115 C 2055.14 -2.91726 1.13424 0
M  V30 21116 C 2055.61 -4.17667 1.87931 0
M  V30 21117 N 2057.1 -4.2466 1.84982 0
M  V30 21118 C 2057.84 -5.21006 2.39459 0
M  V30 21119 N 2057.33 -6.23282 3.02476 0
M  V30 21120 N 2059.13 -5.1306 2.29621 0
M  V30 21121 H 2051.28 -1.30055 1.67927 0
M  V30 21122 H 2053.54 -0.628638 0.70959 0
M  V30 21123 H 2053.25 -2.74175 2.20275 0
M  V30 21124 H 2053.12 -3.69918 0.737606 0
M  V30 21125 H 2055.51 -2.94969 0.0879737 0
M  V30 21126 H 2055.59 -2.00848 1.5841 0
M  V30 21127 H 2055.23 -4.15186 2.92546 0
M  V30 21128 H 2055.16 -5.07548 1.40367 0
M  V30 21129 H 2057.65 -3.51387 1.39053 0
M  V30 21130 H 2057.97 -6.93217 3.4157 0
M  V30 21131 H 2056.31 -6.23736 3.06559 0
M  V30 21132 H 2059.5 -4.32088 1.80049 0
M  V30 21133 H 2059.67 -5.87975 2.72378 0
M  V30 21134 N 2053.08 -0.458013 -1.50798 0
M  V30 21135 C 2054.49 0.00023852 -1.867 0
M  V30 21136 C 2054.84 1.40078 -1.37378 0
M  V30 21137 O 2053.97 2.036 -0.733219 0
M  V30 21138 C 2054.56 0.00720883 -3.38799 0
M  V30 21139 C 2053.12 0.409942 -3.74161 0
M  V30 21140 C 2052.27 -0.383856 -2.7463 0
M  V30 21141 H 2055.22 -0.672909 -1.43728 0
M  V30 21142 H 2055.24 0.812262 -3.71729 0
M  V30 21143 H 2054.75 -1.01225 -3.74667 0
M  V30 21144 H 2052.85 1.43423 -3.4389 0
M  V30 21145 H 2052.97 0.120374 -4.78949 0
M  V30 21146 H 2051.33 0.16068 -2.54193 0
M  V30 21147 H 2052.11 -1.40258 -3.13341 0
M  V30 21148 N 2054.56 1.56449 -0.190119 0
M  V30 21149 C 2055.98 1.58736 0.165798 0
M  V30 21150 C 2056.18 1.20613 1.61414 0
M  V30 21151 O 2055.23 0.926541 2.34886 0
M  V30 21152 C 2056.54 3.0041 -0.132051 0
M  V30 21153 C 2058.09 3.12918 -0.0717601 0
M  V30 21154 C 2058.57 4.56715 -0.342852 0
M  V30 21155 N 2060.06 4.62283 -0.291293 0
M  V30 21156 C 2060.79 5.71429 -0.474968 0
M  V30 21157 N 2060.29 6.89062 -0.718722 0
M  V30 21158 N 2062.08 5.60606 -0.409568 0
M  V30 21159 H 2054.23 1.79512 -1.1353 0
M  V30 21160 H 2056.5 0.832888 -0.452771 0
M  V30 21161 H 2056.2 3.32845 -1.13609 0
M  V30 21162 H 2056.08 3.72904 0.567676 0
M  V30 21163 H 2058.46 2.80298 0.922882 0
M  V30 21164 H 2058.54 2.4282 -0.804488 0
M  V30 21165 H 2058.19 4.90047 -1.33479 0
M  V30 21166 H 2058.12 5.24996 0.410707 0
M  V30 21167 H 2060.61 3.77742 -0.109306 0
M  V30 21168 H 2060.92 7.68135 -0.847818 0
M  V30 21169 H 2059.27 6.90881 -0.755557 0
M  V30 21170 H 2062.46 4.67585 -0.219592 0
M  V30 21171 H 2062.63 6.45609 -0.556132 0
M  V30 21172 N 2056.04 -0.0835127 1.57379 0
M  V30 21173 C 2057.45 -0.636708 1.75508 0
M  V30 21174 C 2057.8 -1.7852 0.813942 0
M  V30 21175 O 2056.92 -2.16399 -0.00480143 0
M  V30 21176 C 2057.52 -1.16179 3.18258 0
M  V30 21177 C 2056.08 -1.66095 3.37771 0
M  V30 21178 C 2055.23 -0.575388 2.71265 0
M  V30 21179 H 2058.18 0.142613 1.58058 0
M  V30 21180 H 2058.2 -2.03087 3.2177 0
M  V30 21181 H 2057.71 -0.325679 3.86731 0
M  V30 21182 H 2055.81 -2.52068 2.74395 0
M  V30 21183 H 2055.92 -1.74596 4.46154 0
M  V30 21184 H 2054.29 -1.01763 2.33487 0
M  V30 21185 H 2055.07 0.250335 3.42386 0
M  V30 21186 N 2057.52 -1.53558 -0.354624 0
M  V30 21187 C 2058.45 -1.83751 -1.44076 0
M  V30 21188 C 2059.43 -0.691795 -1.55397 0
M  V30 21189 O 2060.61 -0.942676 -1.69786 0
M  V30 21190 C 2057.74 -2.03721 -2.81274 0
M  V30 21191 C 2056.7 -3.19517 -2.84769 0
M  V30 21192 C 2056.02 -3.248 -4.24746 0
M  V30 21193 C 2057.32 -4.5787 -2.51301 0
M  V30 21194 H 2059.02 -2.7471 -1.19058 0
M  V30 21195 H 2056.56 -1.32182 -0.5713 0
M  V30 21196 H 2058.51 -2.23427 -3.57293 0
M  V30 21197 H 2057.24 -1.09482 -3.07703 0
M  V30 21198 H 2055.9 -2.99649 -2.11201 0
M  V30 21199 H 2055.55 -2.28177 -4.48268 0
M  V30 21200 H 2055.25 -4.02606 -4.27998 0
M  V30 21201 H 2056.77 -3.46702 -5.02623 0
M  V30 21202 H 2058.18 -4.77663 -3.17034 0
M  V30 21203 H 2056.58 -5.37998 -2.65853 0
M  V30 21204 H 2057.65 -4.62234 -1.46518 0
M  V30 21205 N 2058.99 0.615033 -1.45104 0
M  V30 21206 C 2060.22 1.40596 -1.52471 0
M  V30 21207 C 2060.64 1.87454 -0.155745 0
M  V30 21208 O 2060 1.59701 0.858209 0
M  V30 21209 C 2060.05 2.59156 -2.5074 0
M  V30 21210 O 2059.15 3.59538 -2.02006 0
M  V30 21211 H 2058.49 0.420045 -0.514255 0
M  V30 21212 H 2061.02 0.749208 -1.90389 0
M  V30 21213 H 2061.03 3.06496 -2.69303 0
M  V30 21214 H 2059.71 2.24399 -3.50169 0
M  V30 21215 H 2058.29 3.18897 -1.93284 0
M  V30 21216 N 2060.47 1.3227 0.85688 0
M  V30 21217 C 2061.38 1.23012 1.99763 0
M  V30 21218 C 2062.4 0.144168 1.73402 0
M  V30 21219 O 2063.57 0.364429 1.98075 0
M  V30 21220 C 2060.64 0.951293 3.33394 0
M  V30 21221 C 2059.7 2.12547 3.72991 0
M  V30 21222 C 2058.93 1.85984 5.00245 0
M  V30 21223 O 2059.16 0.801321 5.64743 0
M  V30 21224 O 2058.09 2.72029 5.36921 0
M  V30 21225 H 2061.92 2.18906 2.10509 0
M  V30 21226 H 2059.5 1.12138 0.987193 0
M  V30 21227 H 2061.38 0.812192 4.13499 0
M  V30 21228 H 2060.06 0.0224976 3.23692 0
M  V30 21229 H 2058.96 2.32003 2.93471 0
M  V30 21230 H 2060.3 3.03697 3.87336 0
M  V30 21231 N 2061.95 -1.07287 1.15444 0
M  V30 21232 C 2063.36 -1.61368 0.939004 0
M  V30 21233 C 2063.71 -1.89196 -0.519532 0
M  V30 21234 O 2062.84 -1.65791 -1.39076 0
M  V30 21235 C 2063.43 -2.93171 1.69813 0
M  V30 21236 C 2061.99 -3.43992 1.52796 0
M  V30 21237 C 2061.14 -2.1804 1.7133 0
M  V30 21238 H 2064.09 -0.903656 1.3046 0
M  V30 21239 H 2064.11 -3.62129 1.16802 0
M  V30 21240 H 2063.62 -2.72885 2.75963 0
M  V30 21241 H 2061.72 -3.69358 0.490429 0
M  V30 21242 H 2061.84 -4.19988 2.30536 0
M  V30 21243 H 2060.2 -2.2777 1.13987 0
M  V30 21244 H 2060.98 -2.00248 2.78847 0
M  V30 21245 N 2063.43 -0.951342 -1.25647 0
M  V30 21246 C 2064.84 -0.645559 -1.75184 0
M  V30 21247 C 2065.19 0.83913 -1.7735 0
M  V30 21248 O 2064.31 1.65671 -1.3922 0
M  V30 21249 C 2064.91 -1.16512 -3.18136 0
M  V30 21250 C 2063.47 -0.90956 -3.65245 0
M  V30 21251 C 2062.62 -1.31009 -2.44401 0
M  V30 21252 H 2065.57 -1.12852 -1.1158 0
M  V30 21253 H 2065.59 -0.523662 -3.76879 0
M  V30 21254 H 2065.1 -2.24571 -3.16527 0
M  V30 21255 H 2063.2 0.156212 -3.72272 0
M  V30 21256 H 2063.31 -1.54371 -4.53549 0
M  V30 21257 H 2061.68 -0.728474 -2.4406 0
M  V30 21258 H 2062.46 -2.39983 -2.45486 0
M  V30 21259 N 2064.91 1.40216 -0.719531 0
M  V30 21260 C 2066.32 1.54673 -0.393494 0
M  V30 21261 C 2066.52 1.69001 1.09732 0
M  V30 21262 O 2065.58 1.6818 1.88339 0
M  V30 21263 C 2066.89 2.77299 -1.163 0
M  V30 21264 C 2068.44 2.9112 -1.14969 0
M  V30 21265 C 2068.91 4.16665 -1.90143 0
M  V30 21266 N 2070.4 4.23673 -1.87232 0
M  V30 21267 C 2071.14 5.19729 -2.42219 0
M  V30 21268 N 2070.64 6.21669 -3.05778 0
M  V30 21269 N 2072.43 5.11835 -2.32338 0
M  V30 21270 H 2064.58 1.29162 -1.68614 0
M  V30 21271 H 2066.84 0.624867 -0.712914 0
M  V30 21272 H 2066.55 2.73003 -2.21726 0
M  V30 21273 H 2066.42 3.69521 -0.757213 0
M  V30 21274 H 2068.81 2.94918 -0.103615 0
M  V30 21275 H 2068.89 2.00005 -1.59473 0
M  V30 21276 H 2068.53 4.13629 -2.94744 0
M  V30 21277 H 2068.46 5.06796 -1.43057 0
M  V30 21278 H 2070.96 3.50645 -1.40914 0
M  V30 21279 H 2071.27 6.91396 -3.45241 0
M  V30 21280 H 2069.61 6.22101 -3.09863 0
M  V30 21281 H 2072.8 4.31127 -1.82338 0
M  V30 21282 H 2072.98 5.86522 -2.75492 0
M  V30 21283 N 2066.38 0.466004 1.50553 0
M  V30 21284 C 2067.79 0.00966264 1.86697 0
M  V30 21285 C 2068.15 -1.39347 1.38119 0
M  V30 21286 O 2067.27 -2.03208 0.744006 0
M  V30 21287 C 2067.87 0.0107586 3.38798 0
M  V30 21288 C 2066.42 -0.390094 3.74373 0
M  V30 21289 C 2065.57 0.398415 2.74423 0
M  V30 21290 H 2068.52 0.680522 1.43369 0
M  V30 21291 H 2068.54 -0.792537 3.72155 0
M  V30 21292 H 2068.06 1.0321 3.74125 0
M  V30 21293 H 2066.16 -1.41598 3.44646 0
M  V30 21294 H 2066.27 -0.0949729 4.79006 0
M  V30 21295 H 2064.63 -0.147197 2.54274 0
M  V30 21296 H 2065.42 1.41917 3.12593 0
M  V30 21297 N 2067.86 -1.56346 0.198413 0
M  V30 21298 C 2069.09 -2.02058 -0.444989 0
M  V30 21299 C 2069.5 -1.07852 -1.54963 0
M  V30 21300 O 2068.86 -0.0839717 -1.82307 0
M  V30 21301 C 2068.91 -3.47445 -0.99822 0
M  V30 21302 O 2068.63 -4.38056 0.0623476 0
M  V30 21303 C 2070.13 -4.08691 -1.71717 0
M  V30 21304 H 2067.35 -0.661691 -0.111383 0
M  V30 21305 H 2069.9 -2.02166 0.308092 0
M  V30 21306 H 2068.05 -3.48026 -1.70167 0
M  V30 21307 H 2068.47 -5.23331 -0.349939 0
M  V30 21308 H 2069.94 -5.1226 -2.05654 0
M  V30 21309 H 2070.42 -3.52341 -2.62207 0
M  V30 21310 H 2071.02 -4.11892 -1.05949 0
M  V30 21311 O 2069.38 -0.0614007 -1.61383 0
M  V30 21312 H 2070.07 0.546408 -1.85833 0
M  V30 END ATOM
M  V30 BEGIN BOND
M  V30 END BOND
M  V30 END CTAB
M  END
$$$$
