drugbank_target|Q88016 Pol polyprotein (DB07722)
 OpenBabel12092120463D

  0  0  0     0  0            999 V3000
M  V30 BEGIN CTAB
M  V30 COUNTS 16934 17135 0 0 0
M  V30 BEGIN ATOM
M  V30 1 H -0.908 1.98254 -0.117106 0
M  V30 2 N 0 1.576 0 0
M  V30 3 C 1.246 1.9085 0.685863 0
M  V30 4 C 1.579 0.873954 1.73423 0
M  V30 5 O 0.854 -0.107317 1.94204 0
M  V30 6 C 1.137 3.34679 1.32899 0
M  V30 7 C 0.99 4.4885 0.292164 0
M  V30 8 C 2.309 3.77929 2.25516 0
M  V30 9 H -0.572 0.69407 0.247863 0
M  V30 10 H 2.07 1.89931 -0.0512938 0
M  V30 11 H 0.22 3.35593 1.95729 0
M  V30 12 H 1.892 4.60071 -0.33645 0
M  V30 13 H 0.135 4.32083 -0.385573 0
M  V30 14 H 0.806 5.46444 0.781208 0
M  V30 15 H 3.282 3.78567 1.72703 0
M  V30 16 H 2.158 4.79317 2.67481 0
M  V30 17 H 2.419 3.11797 3.13424 0
M  V30 18 N 1.4781 -0.272755 1.55222 0
M  V30 19 C 2.4081 -1.34136 1.91127 0
M  V30 20 C 3.3891 -1.51513 0.773168 0
M  V30 21 O 4.5741 -1.64552 1.03132 0
M  V30 22 C 1.7041 -2.70083 2.1834 0
M  V30 23 C 0.6581 -2.67437 3.34158 0
M  V30 24 C -0.0159 -4.06938 3.46851 0
M  V30 25 C 1.2841 -2.26686 4.70543 0
M  V30 26 H 2.9781 -1.04333 2.80633 0
M  V30 27 H 0.5241 -0.500454 1.35024 0
M  V30 28 H 2.4771 -3.44952 2.42046 0
M  V30 29 H 1.2011 -3.01469 1.25634 0
M  V30 30 H -0.1399 -1.95026 3.1042 0
M  V30 31 H -0.4919 -4.35547 2.51611 0
M  V30 32 H -0.7919 -4.06062 4.2472 0
M  V30 33 H 0.7321 -4.83545 3.72849 0
M  V30 34 H 2.1461 -2.91277 4.93792 0
M  V30 35 H 0.5431 -2.36971 5.5133 0
M  V30 36 H 1.6131 -1.21818 4.69349 0
M  V30 37 N 2.9562 -1.48159 -0.537278 0
M  V30 38 C 3.8662 -1.64807 -1.6696 0
M  V30 39 C 4.8822 -0.530651 -1.65711 0
M  V30 40 O 6.0582 -0.800784 -1.84796 0
M  V30 41 C 3.1232 -1.67708 -3.03438 0
M  V30 42 C 2.1842 -2.91025 -3.156 0
M  V30 43 C 1.4172 -2.93778 -4.45567 0
M  V30 44 O 1.6402 -2.05153 -5.3223 0
M  V30 45 O 0.5742 -3.85868 -4.61941 0
M  V30 46 H 4.4002 -2.6066 -1.55853 0
M  V30 47 H 1.9852 -1.31475 -0.709549 0
M  V30 48 H 3.8672 -1.7218 -3.84619 0
M  V30 49 H 2.5422 -0.750278 -3.14885 0
M  V30 50 H 1.4492 -2.92089 -2.33741 0
M  V30 51 H 2.7822 -3.83065 -3.09066 0
M  V30 52 N 4.4343 0.785586 -1.36625 0
M  V30 53 C 5.3643 1.91259 -1.33949 0
M  V30 54 C 6.3453 1.68795 -0.210325 0
M  V30 55 O 7.5303 1.89854 -0.408561 0
M  V30 56 C 4.6603 3.28339 -1.13186 0
M  V30 57 C 3.6143 3.65335 -2.22967 0
M  V30 58 C 2.9403 5.00806 -1.87342 0
M  V30 59 C 4.2403 3.7352 -3.65075 0
M  V30 60 H 5.9343 1.93755 -2.28253 0
M  V30 61 H 3.4803 0.930788 -1.09874 0
M  V30 62 H 5.4333 4.06804 -1.09948 0
M  V30 63 H 4.1573 3.2624 -0.153332 0
M  V30 64 H 2.8163 2.89169 -2.25337 0
M  V30 65 H 2.4643 4.95233 -0.880545 0
M  V30 66 H 2.1643 5.26529 -2.60846 0
M  V30 67 H 3.6883 5.81687 -1.85667 0
M  V30 68 H 5.1023 4.42168 -3.64911 0
M  V30 69 H 3.4993 4.10731 -4.37516 0
M  V30 70 H 4.5693 2.74527 -3.99703 0
M  V30 71 N 5.9124 1.20967 1.01018 0
M  V30 72 C 7.1584 1.0353 1.7508 0
M  V30 73 C 7.5134 -0.42734 1.87594 0
M  V30 74 O 6.8064 -1.31298 1.3954 0
M  V30 75 C 7.0004 1.65997 3.16512 0
M  V30 76 C 6.8294 3.18184 3.17788 0
M  V30 77 C 5.5994 3.87198 3.24662 0
M  V30 78 C 7.7974 4.15334 3.03319 0
M  V30 79 N 5.7794 5.26618 3.15509 0
M  V30 80 C 7.1504 5.41472 3.02007 0
M  V30 81 C 9.2054 4.06449 2.87583 0
M  V30 82 C 7.9084 6.5975 2.86571 0
M  V30 83 C 9.9344 5.24357 2.73503 0
M  V30 84 C 9.2964 6.49404 2.72862 0
M  V30 85 H 5.3954 0.433137 0.651089 0
M  V30 86 H 7.9794 1.5324 1.20107 0
M  V30 87 H 6.1504 1.18863 3.69765 0
M  V30 88 H 7.8824 1.41816 3.79039 0
M  V30 89 H 4.6374 3.38093 3.31648 0
M  V30 90 H 5.0614 5.99626 3.14289 0
M  V30 91 H 9.7034 3.10573 2.86887 0
M  V30 92 H 7.4214 7.55792 2.86015 0
M  V30 93 H 11.0074 5.19299 2.62334 0
M  V30 94 H 9.8874 7.39105 2.62093 0
M  V30 95 N 7.3905 -1.2043 1.01659 0
M  V30 96 C 8.3005 -2.2689 0.596484 0
M  V30 97 C 9.3165 -1.70107 -0.36599 0
M  V30 98 O 10.4925 -2.00117 -0.226942 0
M  V30 99 C 7.5575 -3.4665 -0.0586659 0
M  V30 100 C 6.6185 -4.18662 0.949751 0
M  V30 101 C 5.8515 -5.32705 0.32577 0
M  V30 102 O 6.0745 -5.63656 -0.874509 0
M  V30 103 O 5.0085 -5.92803 1.04249 0
M  V30 104 H 8.8345 -2.65041 1.4828 0
M  V30 105 H 6.4195 -1.27048 0.786082 0
M  V30 106 H 8.3015 -4.19256 -0.424564 0
M  V30 107 H 6.9765 -3.10375 -0.91918 0
M  V30 108 H 5.8835 -3.48229 1.36702 0
M  V30 109 H 7.2165 -4.58878 1.78023 0
M  V30 110 N 8.8686 -0.792821 -1.36206 0
M  V30 111 C 10.2846 -0.474903 -1.52371 0
M  V30 112 C 10.4846 1.00622 -1.74578 0
M  V30 113 O 9.5406 1.79162 -1.77924 0
M  V30 114 C 10.8536 -1.3083 -2.70747 0
M  V30 115 C 12.4016 -1.30234 -2.84619 0
M  V30 116 C 12.8766 -2.11956 -4.06004 0
M  V30 117 N 14.3676 -2.09419 -4.13156 0
M  V30 118 C 15.1026 -2.69419 -5.06163 0
M  V30 119 N 14.5986 -3.3829 -6.04592 0
M  V30 120 N 16.3916 -2.59134 -4.98804 0
M  V30 121 H 8.5426 -1.75222 -1.20046 0
M  V30 122 H 10.8056 -0.745024 -0.586211 0
M  V30 123 H 10.5116 -2.35881 -2.6087 0
M  V30 124 H 10.3856 -0.95196 -3.6499 0
M  V30 125 H 12.7726 -0.259748 -2.93955 0
M  V30 126 H 12.8536 -1.69847 -1.91274 0
M  V30 127 H 12.4976 -3.16248 -3.97429 0
M  V30 128 H 12.4276 -1.69711 -4.98503 0
M  V30 129 H 14.9186 -1.59297 -3.42685 0
M  V30 130 H 15.2316 -3.81394 -6.7213 0
M  V30 131 H 13.5766 -3.42393 -6.04807 0
M  V30 132 H 16.7676 -2.04927 -4.20859 0
M  V30 133 H 16.9406 -3.06185 -5.711 0
M  V30 134 N 10.3467 1.47872 -0.545128 0
M  V30 135 C 11.5947 2.02093 -0.016553 0
M  V30 136 C 11.9157 1.42305 1.3332 0
M  V30 137 O 11.1857 0.593853 1.86682 0
M  V30 138 H 9.7657 0.746993 -0.00313038 0
M  V30 139 H 12.4277 1.81414 -0.712397 0
M  V30 140 H 11.5237 3.11996 0.0805422 0
M  V30 141 N 11.8248 0.280983 1.55075 0
M  V30 142 C 13.0528 -0.337293 2.04132 0
M  V30 143 C 13.4678 -1.4903 1.15912 0
M  V30 144 O 12.8248 -1.81606 0.180459 0
M  V30 145 C 12.8758 -0.812706 3.52246 0
M  V30 146 O 12.5968 0.294387 4.3711 0
M  V30 147 C 14.0978 -1.4982 4.17216 0
M  V30 148 H 11.3178 -0.0761638 0.666663 0
M  V30 149 H 13.8618 0.414787 2.00249 0
M  V30 150 H 12.0168 -1.51486 3.56554 0
M  V30 151 H 12.4308 -0.0721325 5.2445 0
M  V30 152 H 13.9048 -1.7822 5.22438 0
M  V30 153 H 14.3818 -2.43168 3.65741 0
M  V30 154 H 14.9878 -0.839742 4.16927 0
M  V30 155 N 13.3029 -1.57598 0.00835791 0
M  V30 156 C 14.2329 -2.1198 -0.979113 0
M  V30 157 C 15.2139 -1.03091 -1.35301 0
M  V30 158 O 16.3989 -1.30818 -1.43528 0
M  V30 159 C 13.5289 -2.62995 -2.26828 0
M  V30 160 C 12.4829 -3.76485 -2.03576 0
M  V30 161 C 11.8089 -4.13846 -3.38579 0
M  V30 162 C 13.1089 -5.0342 -1.39161 0
M  V30 163 H 14.8029 -2.94738 -0.526281 0
M  V30 164 H 12.3489 -1.41783 -0.251704 0
M  V30 165 H 14.3019 -2.99669 -2.96271 0
M  V30 166 H 13.0259 -1.7737 -2.7424 0
M  V30 167 H 11.6849 -3.40217 -1.36557 0
M  V30 168 H 11.3329 -3.25232 -3.83709 0
M  V30 169 H 11.0329 -4.90312 -3.23834 0
M  V30 170 H 12.5569 -4.53086 -4.09323 0
M  V30 171 H 13.9709 -5.37812 -1.98573 0
M  V30 172 H 12.3679 -5.84746 -1.34878 0
M  V30 173 H 13.4379 -4.83548 -0.361868 0
M  V30 174 N 14.781 0.264519 -1.55364 0
M  V30 175 C 16.021 1.00254 -1.78125 0
M  V30 176 C 16.385 1.83187 -0.575017 0
M  V30 177 O 17.586 2.60029 -0.681042 0
M  V30 178 C 15.857 1.85478 -3.05504 0
M  V30 179 S 17.416 2.6543 -3.49417 0
M  V30 180 H 14.234 0.337522 -0.625779 0
M  V30 181 H 16.836 0.272111 -1.93597 0
M  V30 182 H 15.54 1.23491 -3.9138 0
M  V30 183 H 15.071 2.62827 -2.92721 0
M  V30 184 H 17.086 3.87958 -3.09359 0
M  V30 185 N 16.2591 1.48442 0.529413 0
M  V30 186 C 17.2061 1.63007 1.63394 0
M  V30 187 C 18.1761 0.47212 1.59249 0
M  V30 188 O 19.3611 0.695673 1.77666 0
M  V30 189 C 16.5011 1.6763 3.01653 0
M  V30 190 C 15.6141 2.94535 3.16027 0
M  V30 191 C 14.7491 2.90316 4.44849 0
M  V30 192 C 13.7881 4.11923 4.52754 0
M  V30 193 N 12.9251 4.05777 5.72965 0
M  V30 194 H 17.7651 2.5733 1.50285 0
M  V30 195 H 15.3021 1.27613 0.731656 0
M  V30 196 H 17.2601 1.68292 3.81751 0
M  V30 197 H 15.8901 0.76797 3.13532 0
M  V30 198 H 14.9421 3.03615 2.29177 0
M  V30 199 H 16.2541 3.84512 3.17729 0
M  V30 200 H 15.4081 2.89382 5.33238 0
M  V30 201 H 14.1471 1.98068 4.45668 0
M  V30 202 H 13.1521 4.13131 3.62771 0
M  V30 203 H 14.3771 5.0533 4.53672 0
M  V30 204 H 12.3231 3.16351 5.74681 0
M  V30 205 H 12.2401 4.8946 5.76164 0
M  V30 206 H 13.5081 4.08904 6.6364 0
M  V30 207 N 17.7372 -0.778329 1.37039 0
M  V30 208 C 18.7002 -1.87301 1.32102 0
M  V30 209 C 19.7002 -1.59198 0.226405 0
M  V30 210 O 20.8902 -1.67403 0.481861 0
M  V30 211 C 18.0222 -3.24309 1.05055 0
M  V30 212 H 19.2152 -1.93093 2.29467 0
M  V30 213 H 16.7682 -0.977358 1.21973 0
M  V30 214 H 17.5032 -3.24196 0.0819373 0
M  V30 215 H 17.2882 -3.46098 1.84279 0
M  V30 216 H 18.7782 -4.04382 1.04234 0
M  V30 217 N 19.2153 -1.21501 -1.00376 0
M  V30 218 C 20.1483 -0.918669 -2.08892 0
M  V30 219 C 21.1263 0.134277 -1.62045 0
M  V30 220 O 22.3103 0.00504255 -1.88499 0
M  V30 221 C 19.4373 -0.379645 -3.36566 0
M  V30 222 C 18.4833 -1.41559 -4.02323 0
M  V30 223 S 19.3163 -2.98521 -4.44574 0
M  V30 224 C 20.4723 -2.46228 -5.75433 0
M  V30 225 H 20.7053 -1.83761 -2.33707 0
M  V30 226 H 18.2383 -1.04489 -1.13673 0
M  V30 227 H 20.1963 -0.0752195 -4.10431 0
M  V30 228 H 18.8573 0.518008 -3.09799 0
M  V30 229 H 18.0503 -0.988076 -4.9422 0
M  V30 230 H 17.6523 -1.66815 -3.34737 0
M  V30 231 H 19.9443 -1.86791 -6.51241 0
M  V30 232 H 20.8873 -3.36572 -6.22997 0
M  V30 233 H 21.2953 -1.87894 -5.32312 0
M  V30 234 N 20.6934 1.19889 -1.02296 0
M  V30 235 C 21.6254 2.22334 -0.556787 0
M  V30 236 C 22.6384 1.58674 0.364199 0
M  V30 237 O 23.8274 1.77768 0.161533 0
M  V30 238 C 20.9274 3.38257 0.208694 0
M  V30 239 C 20.1004 4.31504 -0.71577 0
M  V30 240 C 19.1594 5.262 0.00325597 0
M  V30 241 O 18.1854 5.65798 -0.621357 0
M  V30 242 N 19.3874 5.66303 1.27599 0
M  V30 243 H 22.1524 2.62957 -1.43784 0
M  V30 244 H 19.7134 1.34495 -0.901261 0
M  V30 245 H 21.7054 3.98616 0.699111 0
M  V30 246 H 20.2754 2.96472 0.991102 0
M  V30 247 H 19.4954 3.69016 -1.38638 0
M  V30 248 H 20.7834 4.9072 -1.34428 0
M  V30 249 H 20.1814 5.36155 1.80429 0
M  V30 250 H 18.7384 6.28942 1.71102 0
M  V30 251 N 22.1715 0.800033 1.35784 0
M  V30 252 C 23.3965 0.388511 2.03729 0
M  V30 253 C 23.8215 -0.990481 1.5991 0
M  V30 254 O 23.1795 -1.64013 0.772612 0
M  V30 255 C 23.2275 0.4726 3.5749 0
M  V30 256 O 22.3315 -0.51646 4.09153 0
M  V30 257 H 21.6725 0.163271 0.643614 0
M  V30 258 H 24.2025 1.0841 1.73518 0
M  V30 259 H 24.2125 0.34003 4.06581 0
M  V30 260 H 22.8875 1.47848 3.88734 0
M  V30 261 H 21.4645 -0.344673 3.71304 0
M  V30 262 N 23.6496 -1.47581 0.552962 0
M  V30 263 C 25.0606 -1.86324 0.118463 0
M  V30 264 C 25.4116 -1.46006 -1.3106 0
M  V30 265 O 24.5366 -0.861182 -1.98526 0
M  V30 266 C 25.1316 -3.3816 0.20821 0
M  V30 267 C 23.6906 -3.7601 -0.171226 0
M  V30 268 C 22.8376 -2.71634 0.557686 0
M  V30 269 H 25.7886 -1.39159 0.762928 0
M  V30 270 H 25.8096 -3.76141 -0.574278 0
M  V30 271 H 25.3216 -3.67473 1.24841 0
M  V30 272 H 23.4226 -3.52313 -1.21269 0
M  V30 273 H 23.5356 -4.78745 0.184379 0
M  V30 274 H 21.8996 -2.547 0.00125792 0
M  V30 275 H 22.6826 -3.0379 1.59896 0
M  V30 276 N 25.1277 -0.289203 -1.54924 0
M  V30 277 C 26.0747 0.592115 -2.23075 0
M  V30 278 C 27.0447 1.13881 -1.20915 0
M  V30 279 O 28.2297 1.18551 -1.495 0
M  V30 280 C 25.3697 1.76376 -2.96623 0
M  V30 281 C 24.4827 1.24959 -4.13533 0
M  V30 282 C 23.6177 2.38416 -4.74691 0
M  V30 283 C 22.6567 1.84072 -5.83767 0
M  V30 284 N 21.7937 2.91057 -6.38929 0
M  V30 285 H 26.6337 0.00432038 -2.98 0
M  V30 286 H 24.1707 -0.00963529 -1.47097 0
M  V30 287 H 26.1287 2.45268 -3.3749 0
M  V30 288 H 24.7587 2.32337 -2.24097 0
M  V30 289 H 23.8107 0.453307 -3.77689 0
M  V30 290 H 25.1227 0.811662 -4.92152 0
M  V30 291 H 24.2767 3.15276 -5.18349 0
M  V30 292 H 23.0157 2.8553 -3.95378 0
M  V30 293 H 22.0207 1.05697 -5.39545 0
M  V30 294 H 23.2457 1.37877 -6.64956 0
M  V30 295 H 21.1917 3.37526 -5.62505 0
M  V30 296 H 21.1087 2.51724 -7.12861 0
M  V30 297 H 22.3767 3.6785 -6.87246 0
M  V30 298 N 26.6058 1.57591 -0.0167156 0
M  V30 299 C 27.5528 2.09462 0.969251 0
M  V30 300 C 28.5228 0.99381 1.33089 0
M  V30 301 O 29.7078 1.26726 1.42636 0
M  V30 302 C 26.8478 2.61622 2.25051 0
M  V30 303 C 25.9608 3.85666 1.94642 0
M  V30 304 C 25.0958 4.26266 3.16972 0
M  V30 305 C 24.1348 5.43101 2.82326 0
M  V30 306 N 23.2718 5.78915 3.97243 0
M  V30 307 H 28.1118 2.93428 0.519997 0
M  V30 308 H 25.6488 1.45044 0.245087 0
M  V30 309 H 27.6068 2.89949 2.99976 0
M  V30 310 H 26.2368 1.80505 2.67615 0
M  V30 311 H 25.2888 3.64145 1.10013 0
M  V30 312 H 26.6008 4.70678 1.65117 0
M  V30 313 H 25.7548 4.55963 4.00228 0
M  V30 314 H 24.4938 3.39996 3.49648 0
M  V30 315 H 23.4988 5.1311 1.97479 0
M  V30 316 H 24.7238 6.3106 2.50879 0
M  V30 317 H 22.6698 4.95602 4.29785 0
M  V30 318 H 22.5868 6.58539 3.71299 0
M  V30 319 H 23.8548 6.13212 4.81239 0
M  V30 320 N 28.0839 -0.256276 1.55502 0
M  V30 321 C 29.3119 -1.00342 1.8094 0
M  V30 322 C 29.7269 -1.79307 0.59114 0
M  V30 323 O 29.0839 -1.77114 -0.440081 0
M  V30 324 C 29.1349 -1.94875 3.04476 0
M  V30 325 O 28.8559 -1.19107 4.21598 0
M  V30 326 C 30.3569 -2.81266 3.42644 0
M  V30 327 H 27.5769 -0.295685 0.602338 0
M  V30 328 H 30.1209 -0.281998 2.02546 0
M  V30 329 H 28.2759 -2.62457 2.84947 0
M  V30 330 H 28.6899 -1.82969 4.91551 0
M  V30 331 H 30.1639 -3.43362 4.32211 0
M  V30 332 H 30.6409 -3.51897 2.62802 0
M  V30 333 H 31.2469 -2.1915 3.64491 0
M  V30 334 N 29.562 -1.4872 -0.521534 0
M  V30 335 C 30.81 -1.56857 -1.27437 0
M  V30 336 C 31.131 -0.247982 -1.93417 0
M  V30 337 O 30.401 0.731151 -1.81744 0
M  V30 338 H 28.981 -0.577885 -0.473347 0
M  V30 339 H 31.643 -1.85233 -0.606205 0
M  V30 340 H 30.739 -2.35402 -2.0492 0
M  V30 341 N 31.0401 0.771051 -1.3745 0
M  V30 342 C 31.9731 1.89166 -1.27638 0
M  V30 343 C 32.9511 1.61842 -0.156782 0
M  V30 344 O 34.1351 1.85569 -0.331111 0
M  V30 345 C 31.2621 3.24405 -0.973621 0
M  V30 346 C 30.3081 3.70638 -2.1102 0
M  V30 347 S 31.1411 3.84228 -3.73 0
M  V30 348 C 32.2971 5.22313 -3.44876 0
M  V30 349 H 32.5301 1.972 -2.22485 0
M  V30 350 H 30.0631 0.932224 -1.23081 0
M  V30 351 H 32.0211 4.02514 -0.805766 0
M  V30 352 H 30.6821 3.14071 -0.0426279 0
M  V30 353 H 29.8751 4.68685 -1.85338 0
M  V30 354 H 29.4771 2.99632 -2.23822 0
M  V30 355 H 31.7691 6.07505 -2.99908 0
M  V30 356 H 32.7121 5.53008 -4.42253 0
M  V30 357 H 33.1201 4.90284 -2.79789 0
M  V30 358 N 32.5182 1.22032 0.997298 0
M  V30 359 C 33.4482 1.01065 2.10495 0
M  V30 360 C 34.4292 -0.0669542 1.69968 0
M  V30 361 O 35.6142 0.0943987 1.9397 0
M  V30 362 C 32.7442 0.582874 3.42374 0
M  V30 363 C 31.6982 1.60592 3.96729 0
M  V30 364 C 31.0242 1.03412 5.24605 0
M  V30 365 C 32.3242 2.99478 4.27914 0
M  V30 366 H 34.0182 1.93708 2.28292 0
M  V30 367 H 31.5642 0.932761 1.09707 0
M  V30 368 H 33.5172 0.423332 4.19268 0
M  V30 369 H 32.2412 -0.379213 3.24391 0
M  V30 370 H 30.9002 1.75316 3.21963 0
M  V30 371 H 30.5482 0.063518 5.0296 0
M  V30 372 H 30.2482 1.71754 5.61938 0
M  V30 373 H 31.7722 0.886066 6.04137 0
M  V30 374 H 33.1862 2.88153 4.95622 0
M  V30 375 H 31.5832 3.64903 4.76409 0
M  V30 376 H 32.6532 3.49742 3.3587 0
M  V30 377 N 33.9963 -1.19345 1.0293 0
M  V30 378 C 34.9063 -2.26245 0.620515 0
M  V30 379 C 35.9223 -1.70486 -0.347928 0
M  V30 380 O 37.0983 -2.00347 -0.205704 0
M  V30 381 C 34.1633 -3.46693 -0.0218957 0
M  V30 382 C 33.2243 -4.17632 0.994102 0
M  V30 383 C 32.4573 -5.32329 0.382253 0
M  V30 384 O 32.6803 -5.64552 -0.814676 0
M  V30 385 O 31.6143 -5.91664 1.10531 0
M  V30 386 H 35.4403 -2.63453 1.51083 0
M  V30 387 H 33.0253 -1.26207 0.799513 0
M  V30 388 H 34.9073 -4.19683 -0.380072 0
M  V30 389 H 33.5823 -3.11333 -0.886209 0
M  V30 390 H 32.4893 -3.4676 1.40387 0
M  V30 391 H 33.8223 -4.56964 1.8288 0
M  V30 392 N 35.4744 -0.807222 -1.35358 0
M  V30 393 C 36.4074 -0.163572 -2.27613 0
M  V30 394 C 37.3854 0.670817 -1.48118 0
M  V30 395 O 38.5694 0.63796 -1.77376 0
M  V30 396 C 35.6964 0.773015 -3.29761 0
M  V30 397 C 34.7424 0.0181653 -4.26496 0
M  V30 398 S 35.5754 -1.31831 -5.19019 0
M  V30 399 C 36.7314 -0.38619 -6.24707 0
M  V30 400 H 36.9644 -0.945757 -2.81856 0
M  V30 401 H 34.4974 -0.602315 -1.42167 0
M  V30 402 H 36.4554 1.30788 -3.89108 0
M  V30 403 H 35.1164 1.52859 -2.74396 0
M  V30 404 H 34.3094 0.729534 -4.98692 0
M  V30 405 H 33.9114 -0.446761 -3.71322 0
M  V30 406 H 36.2034 0.428295 -6.76145 0
M  V30 407 H 37.1464 -1.07736 -6.99856 0
M  V30 408 H 37.5544 0.018398 -5.64497 0
M  V30 409 N 36.9525 1.47285 -0.560781 0
M  V30 410 C 38.1985 2.03347 -0.0463654 0
M  V30 411 C 38.5535 1.42702 1.2905 0
M  V30 412 O 37.8465 0.574619 1.8278 0
M  V30 413 C 38.0405 3.57258 0.100784 0
M  V30 414 C 37.8695 4.32827 -1.22027 0
M  V30 415 C 36.6395 4.72588 -1.78854 0
M  V30 416 C 38.8375 4.67739 -2.13834 0
M  V30 417 N 36.8195 5.32816 -3.04927 0
M  V30 418 C 38.1905 5.28307 -3.24487 0
M  V30 419 C 40.2455 4.49667 -2.13784 0
M  V30 420 C 38.9485 5.72711 -4.35194 0
M  V30 421 C 40.9745 4.95073 -3.23506 0
M  V30 422 C 40.3365 5.55693 -4.32879 0
M  V30 423 H 36.4355 0.779755 -0.0592166 0
M  V30 424 H 39.0195 1.79723 -0.748857 0
M  V30 425 H 37.1905 3.80642 0.772404 0
M  V30 426 H 38.9225 3.9996 0.617589 0
M  V30 427 H 35.6775 4.54656 -1.32609 0
M  V30 428 H 36.1015 5.67471 -3.69197 0
M  V30 429 H 40.7435 4.02154 -1.30507 0
M  V30 430 H 38.4615 6.19214 -5.1923 0
M  V30 431 H 42.0475 4.82859 -3.24559 0
M  V30 432 H 40.9275 5.90188 -5.1638 0
M  V30 433 N 38.4306 0.297415 1.54768 0
M  V30 434 C 39.3776 -0.580276 2.23386 0
M  V30 435 C 40.3476 -1.13238 1.21517 0
M  V30 436 O 41.5326 -1.17757 1.50126 0
M  V30 437 C 38.6726 -1.74801 2.97555 0
M  V30 438 C 37.7856 -1.22764 4.1419 0
M  V30 439 C 36.9206 -2.35895 4.75949 0
M  V30 440 C 35.9596 -1.80974 5.84735 0
M  V30 441 N 35.0966 -2.87664 6.40464 0
M  V30 442 H 39.9366 0.0114833 2.97998 0
M  V30 443 H 37.4736 0.0174361 1.4709 0
M  V30 444 H 39.4316 -2.43475 3.38786 0
M  V30 445 H 38.0616 -2.31145 2.25326 0
M  V30 446 H 37.1136 -0.433271 3.77924 0
M  V30 447 H 38.4256 -0.785551 4.92575 0
M  V30 448 H 37.5796 -3.12523 5.20014 0
M  V30 449 H 36.3186 -2.83429 3.96887 0
M  V30 450 H 35.3236 -1.02834 5.40097 0
M  V30 451 H 36.5486 -1.34348 6.65678 0
M  V30 452 H 34.4946 -3.34538 5.64287 0
M  V30 453 H 34.4116 -2.4794 7.14186 0
M  V30 454 H 35.6796 -3.642 6.89187 0
M  V30 455 N 39.9087 -1.5758 0.0250728 0
M  V30 456 C 40.8567 -2.11125 -0.97617 0
M  V30 457 C 41.8507 -1.03689 -1.33959 0
M  V30 458 O 43.0567 -1.22128 -1.3223 0
M  V30 459 H 39.4317 -0.674468 -0.332561 0
M  V30 460 H 41.4027 -2.94194 -0.499223 0
M  V30 461 C 40.1517 -2.65017 -2.2508 0
M  V30 462 H 39.4747 -3.47333 -1.9799 0
M  V30 463 H 40.9147 -3.06133 -2.93357 0
M  V30 464 C 39.3737 -1.57574 -2.97779 0
M  V30 465 O 39.9037 -0.973203 -3.89733 0
M  V30 466 N 38.1097 -1.29716 -2.60043 0
M  V30 467 H 37.6567 -1.789 -1.85345 0
M  V30 468 H 37.6147 -0.58051 -3.08994 0
M  V30 469 N 41.3868 0.248026 -1.55636 0
M  V30 470 C 42.6348 0.974295 -1.77065 0
M  V30 471 C 42.9558 1.85897 -0.588849 0
M  V30 472 O 42.2258 1.91868 0.395407 0
M  V30 473 H 40.8058 0.362733 -0.653019 0
M  V30 474 H 43.4678 0.266244 -1.93073 0
M  V30 475 H 42.5638 1.59667 -2.68166 0
M  V30 476 N 42.8649 1.48995 0.513639 0
M  V30 477 C 44.2759 1.5119 1.09537 0
M  V30 478 C 44.6269 0.290906 1.94031 0
M  V30 479 O 43.7519 -0.60049 2.07902 0
M  V30 480 C 44.3469 2.73964 1.99322 0
M  V30 481 C 42.9059 2.78978 2.52682 0
M  V30 482 C 42.0529 2.44934 1.30009 0
M  V30 483 H 45.0039 1.55875 0.298125 0
M  V30 484 H 45.0249 2.53409 2.83838 0
M  V30 485 H 44.5369 3.62813 1.37799 0
M  V30 486 H 42.6379 1.94378 3.1788 0
M  V30 487 H 42.7509 3.8083 2.90698 0
M  V30 488 H 41.1149 1.9644 1.62122 0
M  V30 489 H 41.8979 3.36043 0.702131 0
M  V30 490 N 44.343 -0.763751 1.37857 0
M  V30 491 C 45.583 -1.53551 1.34913 0
M  V30 492 C 45.947 -1.91895 -0.0635882 0
M  V30 493 O 47.148 -2.67916 -0.217825 0
M  V30 494 C 45.419 -2.76126 2.26912 0
M  V30 495 S 46.978 -3.66105 2.41893 0
M  V30 496 H 43.796 -0.52559 0.478828 0
M  V30 497 H 46.398 -0.897435 1.73685 0
M  V30 498 H 45.102 -2.4605 3.28463 0
M  V30 499 H 44.633 -3.44887 1.89253 0
M  V30 500 H 46.648 -4.68473 1.63545 0
M  V30 501 N 45.8211 -1.22559 -0.990812 0
M  V30 502 C 47.0511 -1.07623 -1.76355 0
M  V30 503 C 47.4591 0.37601 -1.85426 0
M  V30 504 O 46.8021 1.27228 -1.32509 0
M  V30 505 C 46.8641 -1.61507 -3.21179 0
M  V30 506 C 46.5281 -3.10146 -3.35646 0
M  V30 507 C 47.5251 -4.07553 -3.22796 0
M  V30 508 C 45.2101 -3.49644 -3.60631 0
M  V30 509 C 47.2041 -5.42442 -3.34716 0
M  V30 510 C 44.8911 -4.84682 -3.72192 0
M  V30 511 C 45.8891 -5.8089 -3.59243 0
M  V30 512 O 45.5771 -7.13476 -3.70415 0
M  V30 513 H 45.3091 -0.377745 -0.560611 0
M  V30 514 H 47.8631 -1.62658 -1.25425 0
M  V30 515 H 46.0931 -1.00881 -3.73309 0
M  V30 516 H 47.7821 -1.42202 -3.80175 0
M  V30 517 H 48.5481 -3.78381 -3.03403 0
M  V30 518 H 44.4271 -2.75282 -3.69785 0
M  V30 519 H 47.9711 -6.17518 -3.24526 0
M  V30 520 H 43.8681 -5.13534 -3.91092 0
M  V30 521 H 44.6361 -7.21083 -3.87275 0
M  V30 522 N 47.2992 1.18797 -1.03562 0
M  V30 523 C 48.5472 1.88278 -0.734569 0
M  V30 524 C 48.8682 1.8043 0.739586 0
M  V30 525 O 48.1382 1.21925 1.53333 0
M  V30 526 H 46.7182 0.696991 -0.268725 0
M  V30 527 H 49.3802 1.44192 -1.31129 0
M  V30 528 H 48.4762 2.94443 -1.03489 0
M  V30 529 N 48.7773 0.814389 1.34928 0
M  V30 530 C 49.7093 0.187834 2.28429 0
M  V30 531 C 50.7223 -0.617374 1.5064 0
M  V30 532 O 51.9113 -0.448454 1.72775 0
M  V30 533 C 49.0113 -0.755962 3.30361 0
M  V30 534 C 48.1843 0.00456686 4.374 0
M  V30 535 C 47.2433 -0.858876 5.19143 0
M  V30 536 O 46.2693 -0.306968 5.68372 0
M  V30 537 N 47.4713 -2.17988 5.38016 0
M  V30 538 H 50.2363 0.991105 2.82838 0
M  V30 539 H 47.7973 0.670561 1.4736 0
M  V30 540 H 49.7893 -1.338 3.81942 0
M  V30 541 H 48.3593 -1.46001 2.7641 0
M  V30 542 H 47.5793 0.767865 3.86649 0
M  V30 543 H 48.8673 0.528422 5.06049 0
M  V30 544 H 48.2653 -2.65212 4.99679 0
M  V30 545 H 46.8223 -2.71098 5.92747 0
M  V30 546 N 50.2554 -1.46986 0.568584 0
M  V30 547 C 51.1884 -2.27129 -0.220779 0
M  V30 548 C 52.1664 -1.34757 -0.909905 0
M  V30 549 O 53.3504 -1.64152 -0.926622 0
M  V30 550 C 50.4774 -3.12108 -1.31553 0
M  V30 551 C 49.5234 -4.20141 -0.733748 0
M  V30 552 S 50.3564 -5.33783 0.428479 0
M  V30 553 C 51.5124 -6.22327 -0.667811 0
M  V30 554 H 51.7454 -2.93731 0.459267 0
M  V30 555 H 49.2784 -1.5026 0.355154 0
M  V30 556 H 51.2364 -3.61636 -1.94241 0
M  V30 557 H 49.8974 -2.44847 -1.96746 0
M  V30 558 H 49.0904 -4.79373 -1.5562 0
M  V30 559 H 48.6924 -3.73553 -0.182812 0
M  V30 560 H 50.9844 -6.59364 -1.55708 0
M  V30 561 H 51.9274 -7.0801 -0.11258 0
M  V30 562 H 52.3354 -5.5618 -0.965601 0
M  V30 563 N 51.7335 -0.305618 -1.54608 0
M  V30 564 C 53.1445 0.186098 -1.8577 0
M  V30 565 C 53.4955 1.53058 -1.22751 0
M  V30 566 O 52.6205 2.09888 -0.526893 0
M  V30 567 C 53.2155 0.344449 -3.37044 0
M  V30 568 C 51.7745 0.780384 -3.68221 0
M  V30 569 C 50.9215 -0.108554 -2.77087 0
M  V30 570 H 53.8725 -0.526485 -1.49712 0
M  V30 571 H 53.8935 1.17828 -3.61796 0
M  V30 572 H 53.4055 -0.634235 -3.82883 0
M  V30 573 H 51.5065 1.76945 -3.27904 0
M  V30 574 H 51.6195 0.596572 -4.75371 0
M  V30 575 H 49.9835 0.412931 -2.5133 0
M  V30 576 H 50.7665 -1.08368 -3.25747 0
M  V30 577 N 53.2116 1.57565 -0.0334293 0
M  V30 578 C 54.6276 1.56297 0.322997 0
M  V30 579 C 54.8276 1.03945 1.7262 0
M  V30 580 O 53.8836 0.688109 2.42943 0
M  V30 581 C 55.1966 3.00232 0.167664 0
M  V30 582 C 56.7446 3.12078 0.240107 0
M  V30 583 C 57.2196 4.57859 0.113513 0
M  V30 584 N 58.7106 4.62887 0.170359 0
M  V30 585 C 59.4456 5.73319 0.0962517 0
M  V30 586 N 58.9416 6.92794 -0.0291881 0
M  V30 587 N 60.7346 5.61898 0.150551 0
M  V30 588 H 52.8856 1.89923 -0.950956 0
M  V30 589 H 55.1486 0.873824 -0.367608 0
M  V30 590 H 54.8546 3.42501 -0.799102 0
M  V30 591 H 54.7286 3.654 0.936083 0
M  V30 592 H 57.1156 2.69718 1.19733 0
M  V30 593 H 57.1966 2.49623 -0.558763 0
M  V30 594 H 56.8406 5.009 -0.840314 0
M  V30 595 H 56.7706 5.18299 0.931302 0
M  V30 596 H 59.2616 3.76954 0.26728 0
M  V30 597 H 59.5746 7.7276 -0.0789252 0
M  V30 598 H 57.9196 6.94971 -0.0640299 0
M  V30 599 H 61.1106 4.67448 0.246981 0
M  V30 600 H 61.2836 6.47938 0.0893365 0
M  V30 601 N 54.6897 -0.239769 1.55765 0
M  V30 602 C 55.6217 -1.32001 1.87372 0
M  V30 603 C 56.6347 -1.43944 0.760522 0
M  V30 604 O 57.8237 -1.45167 1.0387 0
M  V30 605 C 54.9237 -2.69779 2.05115 0
M  V30 606 C 54.0967 -2.80014 3.36022 0
M  V30 607 C 53.1557 -3.98684 3.4342 0
M  V30 608 O 52.1817 -3.87877 4.16582 0
M  V30 609 N 53.3837 -5.12176 2.73232 0
M  V30 610 H 56.1487 -1.0522 2.80622 0
M  V30 611 H 53.7097 -0.429857 1.56089 0
M  V30 612 H 55.7017 -3.47517 2.07399 0
M  V30 613 H 54.2717 -2.89237 1.18577 0
M  V30 614 H 53.4917 -1.88896 3.45994 0
M  V30 615 H 54.7797 -2.83808 4.22292 0
M  V30 616 H 54.1777 -5.2385 2.13536 0
M  V30 617 H 52.7347 -5.88022 2.81199 0
M  V30 618 N 56.1678 -1.49265 -0.50573 0
M  V30 619 C 57.3958 -1.62215 -1.28429 0
M  V30 620 C 57.8108 -0.291697 -1.86533 0
M  V30 621 O 57.1678 0.722233 -1.67601 0
M  V30 622 C 57.2188 -2.68735 -2.41793 0
M  V30 623 O 56.9398 -3.96619 -1.86078 0
M  V30 624 C 58.4408 -2.92346 -3.3324 0
M  V30 625 H 55.6608 -0.546239 -0.389697 0
M  V30 626 H 58.2048 -1.95265 -0.607609 0
M  V30 627 H 56.3598 -2.38476 -3.053 0
M  V30 628 H 56.7738 -4.55256 -2.60465 0
M  V30 629 H 58.2478 -3.70623 -4.09075 0
M  V30 630 H 58.7248 -2.02081 -3.89948 0
M  V30 631 H 59.3308 -3.24003 -2.75503 0
M  V30 632 N 57.6459 0.756429 -1.3826 0
M  V30 633 C 58.8939 1.51248 -1.34047 0
M  V30 634 C 59.2149 1.94875 0.0698372 0
M  V30 635 O 58.4849 1.67436 1.01696 0
M  V30 636 H 57.0649 0.561018 -0.493222 0
M  V30 637 H 59.7269 0.899347 -1.7291 0
M  V30 638 H 58.8229 2.40472 -1.98947 0
M  V30 639 N 59.124 1.23083 0.984299 0
M  V30 640 C 60.372 1.05848 1.72165 0
M  V30 641 C 60.693 -0.406049 1.90726 0
M  V30 642 O 59.963 -1.29139 1.47309 0
M  V30 643 H 58.543 0.388685 0.637913 0
M  V30 644 H 61.205 1.54736 1.18503 0
M  V30 645 H 60.301 1.54327 2.71274 0
M  V30 646 N 60.6021 -1.18246 1.0419 0
M  V30 647 C 61.8491 -1.88257 0.746017 0
M  V30 648 C 62.1771 -1.80429 -0.726331 0
M  V30 649 O 61.4321 -1.2 -1.54591 0
M  V30 650 C 61.7311 -3.38082 1.15911 0
M  V30 651 C 61.3971 -3.66114 2.63195 0
M  V30 652 C 60.0591 -3.73474 3.03432 0
M  V30 653 C 62.4111 -3.78398 3.5842 0
M  V30 654 C 59.7391 -3.90599 4.37778 0
M  V30 655 C 62.0911 -3.97039 4.92487 0
M  V30 656 C 60.7551 -4.02635 5.32392 0
M  V30 657 H 60.0251 -0.688883 0.272987 0
M  V30 658 H 62.6721 -1.3995 1.30715 0
M  V30 659 H 60.9771 -3.88377 0.516806 0
M  V30 660 H 62.6741 -3.90596 0.907516 0
M  V30 661 H 59.2641 -3.61003 2.3103 0
M  V30 662 H 63.4481 -3.72042 3.28479 0
M  V30 663 H 58.7041 -3.93175 4.68213 0
M  V30 664 H 62.8781 -4.05486 5.66175 0
M  V30 665 H 60.5051 -4.15657 6.36501 0
M  V30 666 N 62.0802 -0.821533 -1.34494 0
M  V30 667 C 63.3272 -0.408946 -1.98328 0
M  V30 668 C 63.6552 1.02764 -1.65136 0
M  V30 669 O 62.9102 1.73026 -0.914349 0
M  V30 670 C 63.2092 -0.556512 -3.53041 0
M  V30 671 C 62.8752 -1.95861 -4.0614 0
M  V30 672 C 61.5372 -2.34217 -4.20352 0
M  V30 673 C 63.8892 -2.87523 -4.34718 0
M  V30 674 C 61.2172 -3.63572 -4.6047 0
M  V30 675 C 63.5692 -4.1634 -4.76281 0
M  V30 676 C 62.2332 -4.54675 -4.88699 0
M  V30 677 H 61.5032 -0.149644 -0.725732 0
M  V30 678 H 64.1502 -1.04521 -1.6046 0
M  V30 679 H 62.4552 0.163148 -3.9146 0
M  V30 680 H 64.1522 -0.217826 -4.00408 0
M  V30 681 H 60.7422 -1.65066 -3.95539 0
M  V30 682 H 64.9262 -2.59133 -4.23277 0
M  V30 683 H 60.1822 -3.93101 -4.68275 0
M  V30 684 H 64.3562 -4.87455 -4.97354 0
M  V30 685 H 61.9832 -5.54959 -5.19542 0
M  V30 686 N 63.5583 1.46682 -0.576371 0
M  V30 687 C 64.9743 1.57822 -0.237562 0
M  V30 688 C 65.1743 1.57237 1.26011 0
M  V30 689 O 64.2303 1.48596 2.04146 0
M  V30 690 C 65.5433 2.87499 -0.881168 0
M  V30 691 C 67.0913 3.01119 -0.85417 0
M  V30 692 C 67.5663 4.33524 -1.4772 0
M  V30 693 N 69.0573 4.40207 -1.44125 0
M  V30 694 C 69.7923 5.4126 -1.89276 0
M  V30 695 N 69.2883 6.49021 -2.42371 0
M  V30 696 N 71.0813 5.32422 -1.80231 0
M  V30 697 H 63.2323 1.45306 -1.54919 0
M  V30 698 H 65.4953 0.692733 -0.647167 0
M  V30 699 H 65.2013 2.9372 -1.93447 0
M  V30 700 H 65.0753 3.75224 -0.385592 0
M  V30 701 H 67.4623 2.94485 0.190491 0
M  V30 702 H 67.5433 2.14887 -1.3877 0
M  V30 703 H 67.1873 4.40916 -2.52103 0
M  V30 704 H 67.1173 5.1852 -0.918947 0
M  V30 705 H 69.6083 3.62931 -1.05307 0
M  V30 706 H 69.9213 7.2233 -2.74698 0
M  V30 707 H 68.2663 6.49858 -2.46393 0
M  V30 708 H 71.4573 4.47137 -1.38514 0
M  V30 709 H 71.6303 6.11034 -2.15735 0
M  V30 710 N 65.0364 0.313813 1.54444 0
M  V30 711 C 66.4474 -0.176243 1.85866 0
M  V30 712 C 66.7984 -1.52405 1.23561 0
M  V30 713 O 65.9234 -2.09605 0.538016 0
M  V30 714 C 66.5184 -0.32657 3.37222 0
M  V30 715 C 65.0774 -0.760846 3.6863 0
M  V30 716 C 64.2244 0.123247 2.77026 0
M  V30 717 H 67.1754 0.534418 1.49431 0
M  V30 718 H 67.1964 -1.15908 3.62416 0
M  V30 719 H 66.7084 0.654531 3.82541 0
M  V30 720 H 64.8094 -1.75204 3.28838 0
M  V30 721 H 64.9224 -0.571353 4.75681 0
M  V30 722 H 63.2864 -0.399597 2.51546 0
M  V30 723 H 64.0694 1.10094 3.25168 0
M  V30 724 N 66.5145 -1.57545 0.0417849 0
M  V30 725 C 67.7605 -1.93424 -0.629168 0
M  V30 726 C 68.1155 -0.919564 -1.69002 0
M  V30 727 O 67.4085 0.0626178 -1.91498 0
M  V30 728 C 67.6025 -3.33794 -1.27735 0
M  V30 729 C 67.4315 -4.48822 -0.280806 0
M  V30 730 C 66.2015 -5.05148 0.123869 0
M  V30 731 C 68.3995 -5.12148 0.470012 0
M  V30 732 N 66.3815 -6.03703 1.11426 0
M  V30 733 C 67.7525 -6.05921 1.31377 0
M  V30 734 C 69.8075 -4.95078 0.529343 0
M  V30 735 C 68.5105 -6.84459 2.21152 0
M  V30 736 C 70.5365 -5.74235 1.41448 0
M  V30 737 C 69.8985 -6.67634 2.24598 0
M  V30 738 H 65.9975 -0.755418 -0.202158 0
M  V30 739 H 68.5815 -1.94378 0.111923 0
M  V30 740 H 66.7525 -3.33635 -1.98852 0
M  V30 741 H 68.4845 -3.56988 -1.90635 0
M  V30 742 H 65.2395 -4.72923 -0.253178 0
M  V30 743 H 65.6635 -6.57674 1.60607 0
M  V30 744 H 70.3055 -4.22683 -0.0992798 0
M  V30 745 H 68.0235 -7.56151 2.85063 0
M  V30 746 H 71.6095 -5.63057 1.46484 0
M  V30 747 H 70.4895 -7.27817 2.9198 0
M  V30 748 N 67.9926 0.231505 -1.5589 0
M  V30 749 C 69.2176 0.978689 -1.82856 0
M  V30 750 C 69.6426 1.77559 -0.620846 0
M  V30 751 O 69.0006 1.76119 0.430305 0
M  V30 752 C 69.0486 1.87997 -3.07716 0
M  V30 753 O 68.1526 2.97393 -2.85712 0
M  V30 754 H 67.4936 0.277663 -0.603158 0
M  V30 755 H 70.0236 0.24783 -2.03093 0
M  V30 756 H 70.0336 2.2917 -3.37558 0
M  V30 757 H 68.7086 1.29417 -3.95252 0
M  V30 758 H 67.2856 2.60238 -2.67078 0
M  V30 759 N 69.4707 1.49531 0.497807 0
M  V30 760 C 70.4037 1.61043 1.6168 0
M  V30 761 C 71.3817 0.459386 1.55976 0
M  V30 762 O 72.5657 0.675358 1.75986 0
M  V30 763 C 69.6927 1.56833 3.00202 0
M  V30 764 C 68.7387 2.77173 3.24156 0
M  V30 765 S 69.5717 4.38808 3.06933 0
M  V30 766 C 70.7277 4.37248 4.47845 0
M  V30 767 H 70.9607 2.55702 1.51671 0
M  V30 768 H 68.4937 1.38462 0.683201 0
M  V30 769 H 70.4517 1.55089 3.80076 0
M  V30 770 H 69.1127 0.634561 3.07623 0
M  V30 771 H 68.3057 2.70456 4.25288 0
M  V30 772 H 67.9077 2.76346 2.5201 0
M  V30 773 H 70.1997 4.09164 5.39992 0
M  V30 774 H 71.1427 5.38668 4.59612 0
M  V30 775 H 71.5507 3.67286 4.28674 0
M  V30 776 N 70.9488 -0.749086 1.3866 0
M  V30 777 C 72.1968 -1.50535 1.34847 0
M  V30 778 C 72.5178 -1.94909 -0.0595016 0
M  V30 779 O 71.7878 -1.67973 -1.00806 0
M  V30 780 H 70.3678 -0.558395 0.49619 0
M  V30 781 H 73.0298 -0.890165 1.73384 0
M  V30 782 H 72.1258 -2.39413 2.00219 0
M  V30 783 N 72.4269 -1.23603 -0.977757 0
M  V30 784 C 73.3739 -1.01954 -2.07061 0
M  V30 785 C 74.3439 0.0638697 -1.65977 0
M  V30 786 O 75.5289 -0.0887624 -1.90593 0
M  V30 787 C 72.6689 -0.619658 -3.39491 0
M  V30 788 C 71.7819 -1.77547 -3.93829 0
M  V30 789 C 70.9169 -1.32212 -5.14484 0
M  V30 790 C 69.9559 -2.44852 -5.60994 0
M  V30 791 N 69.0929 -2.00456 -6.72876 0
M  V30 792 H 73.9329 -1.95495 -2.24913 0
M  V30 793 H 71.4699 -0.973861 -1.10247 0
M  V30 794 H 73.4279 -0.368898 -4.15566 0
M  V30 795 H 72.0579 0.278752 -3.21594 0
M  V30 796 H 71.1099 -2.14016 -3.14486 0
M  V30 797 H 72.4219 -2.62219 -4.24314 0
M  V30 798 H 71.5759 -1.02965 -5.97899 0
M  V30 799 H 70.3149 -0.445808 -4.85658 0
M  V30 800 H 69.3199 -2.74871 -4.76157 0
M  V30 801 H 70.5449 -3.33024 -5.91837 0
M  V30 802 H 68.4909 -1.15208 -6.45804 0
M  V30 803 H 68.4079 -2.78687 -7.02759 0
M  V30 804 H 69.6759 -1.7432 -7.59758 0
M  V30 805 N 73.905 1.17692 -1.04816 0
M  V30 806 C 74.815 2.25229 -0.65643 0
M  V30 807 C 75.831 1.71018 0.320761 0
M  V30 808 O 77.007 2.00649 0.173805 0
M  V30 809 C 74.072 3.46684 -0.0332629 0
M  V30 810 C 73.133 4.15997 -1.06042 0
M  V30 811 C 72.366 5.31654 -0.466893 0
M  V30 812 O 72.589 5.65777 0.724758 0
M  V30 813 O 71.523 5.89831 -1.1993 0
M  V30 814 H 75.349 2.61016 -1.55255 0
M  V30 815 H 72.934 1.24919 -0.81949 0
M  V30 816 H 74.816 4.20234 0.313256 0
M  V30 817 H 73.491 3.12703 0.836566 0
M  V30 818 H 72.398 3.44482 -1.45886 0
M  V30 819 H 73.731 4.53996 -1.90127 0
M  V30 820 N 75.3831 0.828654 1.34056 0
M  V30 821 C 76.3461 0.259927 2.27721 0
M  V30 822 C 77.3461 -0.565478 1.50529 0
M  V30 823 O 78.5361 -0.38075 1.69988 0
M  V30 824 C 75.6681 -0.634944 3.34935 0
M  V30 825 H 76.8611 1.0863 2.79534 0
M  V30 826 H 74.4141 0.600951 1.44285 0
M  V30 827 H 75.1491 -1.48416 2.88346 0
M  V30 828 H 74.9341 -0.0444999 3.92075 0
M  V30 829 H 76.4241 -1.02648 4.04788 0
M  V30 830 N 76.8612 -1.46375 0.584142 0
M  V30 831 C 78.2722 -1.86031 0.157959 0
M  V30 832 C 78.6232 -1.48753 -1.27933 0
M  V30 833 O 77.7482 -0.903098 -1.96655 0
M  V30 834 C 78.3432 -3.37642 0.279892 0
M  V30 835 C 76.9022 -3.76289 -0.09143 0
M  V30 836 C 76.0492 -2.7039 0.615178 0
M  V30 837 H 79.0002 -1.37509 0.792274 0
M  V30 838 H 79.0212 -3.77275 -0.494364 0
M  V30 839 H 78.5332 -3.64742 1.32607 0
M  V30 840 H 76.6342 -3.54806 -1.13769 0
M  V30 841 H 76.7472 -4.78246 0.285886 0
M  V30 842 H 75.1112 -2.5464 0.0552833 0
M  V30 843 H 75.8942 -3.0033 1.66303 0
M  V30 844 N 78.3393 -0.321999 -1.54275 0
M  V30 845 C 79.2713 0.578671 -2.21775 0
M  V30 846 C 80.2843 1.08109 -1.21722 0
M  V30 847 O 81.4733 0.994938 -1.482 0
M  V30 848 C 78.5733 1.80661 -2.86731 0
M  V30 849 C 77.7463 1.44314 -4.12907 0
M  V30 850 C 76.8053 2.52845 -4.61472 0
M  V30 851 O 75.8313 2.17054 -5.2619 0
M  V30 852 N 77.0333 3.83748 -4.35566 0
M  V30 853 H 79.7983 0.000709447 -2.997 0
M  V30 854 H 77.3593 -0.145132 -1.61248 0
M  V30 855 H 79.3513 2.52655 -3.16145 0
M  V30 856 H 77.9213 2.29245 -2.12521 0
M  V30 857 H 77.1413 0.554906 -3.90275 0
M  V30 858 H 78.4293 1.17598 -4.95023 0
M  V30 859 H 77.8273 4.15625 -3.83761 0
M  V30 860 H 76.3843 4.51977 -4.69638 0
M  V30 861 N 79.8174 1.5752 -0.0501392 0
M  V30 862 C 81.0644 1.9265 0.623874 0
M  V30 863 C 81.3924 0.928411 1.70912 0
M  V30 864 O 80.6474 -0.0594525 1.9561 0
M  V30 865 C 80.9464 3.34467 1.25963 0
M  V30 866 C 80.6124 4.49883 0.302689 0
M  V30 867 C 79.2744 4.81184 0.0393636 0
M  V30 868 C 81.6264 5.20002 -0.353205 0
M  V30 869 C 78.9544 5.79951 -0.887308 0
M  V30 870 C 81.3064 6.1976 -1.26806 0
M  V30 871 C 79.9704 6.49491 -1.54007 0
M  V30 872 H 79.2404 0.704957 0.228292 0
M  V30 873 H 81.8874 1.91146 -0.116398 0
M  V30 874 H 80.1924 3.32333 2.07514 0
M  V30 875 H 81.8894 3.58928 1.78806 0
M  V30 876 H 78.4794 4.25457 0.518109 0
M  V30 877 H 82.6634 4.96033 -0.162854 0
M  V30 878 H 77.9194 6.01322 -1.10553 0
M  V30 879 H 82.0934 6.73205 -1.78236 0
M  V30 880 H 79.7204 7.25837 -2.25976 0
M  V30 881 N 81.2955 -0.223234 1.56011 0
M  V30 882 C 82.7065 -0.790368 1.69145 0
M  V30 883 C 83.0575 -1.85055 0.651845 0
M  V30 884 O 82.1825 -2.15498 -0.197359 0
M  V30 885 C 82.7775 -1.4404 3.06656 0
M  V30 886 C 81.3365 -1.95494 3.2165 0
M  V30 887 C 80.4835 -0.814506 2.65068 0
M  V30 888 H 83.4345 0.00139011 1.587 0
M  V30 889 H 83.4555 -2.30916 3.0242 0
M  V30 890 H 82.9675 -0.668543 3.82298 0
M  V30 891 H 81.0685 -2.75487 2.50874 0
M  V30 892 H 81.1815 -2.13607 4.28846 0
M  V30 893 H 79.5455 -1.22137 2.23505 0
M  V30 894 H 80.3285 -0.0553515 3.43255 0
M  V30 895 N 82.7736 -1.49793 -0.48987 0
M  V30 896 C 83.7236 -1.63673 -1.5873 0
M  V30 897 C 84.7076 -0.491956 -1.53195 0
M  V30 898 O 85.8996 -0.745461 -1.60536 0
M  V30 899 C 83.0286 -1.71689 -2.97284 0
M  V30 900 C 82.1146 -2.91781 -3.07774 0
M  V30 901 N 82.5056 -4.15714 -2.88124 0
M  V30 902 C 80.8036 -2.89949 -3.38889 0
M  V30 903 C 81.5046 -4.965 -3.03088 0
M  V30 904 N 80.4806 -4.30083 -3.3246 0
M  V30 905 H 84.2826 -2.57204 -1.42208 0
M  V30 906 H 81.7966 -1.46719 -0.69623 0
M  V30 907 H 83.7936 -1.79732 -3.76168 0
M  V30 908 H 82.4536 -0.793024 -3.14867 0
M  V30 909 H 83.4646 -4.45515 -2.64077 0
M  V30 910 H 80.1416 -2.06987 -3.62578 0
M  V30 911 H 81.5316 -6.04991 -2.92294 0
M  V30 912 N 84.2517 0.741722 -1.39055 0
M  V30 913 C 85.4997 1.49818 -1.35643 0
M  V30 914 C 85.8207 1.94938 0.0491642 0
M  V30 915 O 85.0907 1.68505 0.999141 0
M  V30 916 H 83.6707 0.555755 -0.499144 0
M  V30 917 H 86.3327 0.880957 -1.73854 0
M  V30 918 H 85.4287 2.38348 -2.01486 0
M  V30 919 N 85.7298 1.2412 0.971189 0
M  V30 920 C 86.9548 1.10667 1.75407 0
M  V30 921 C 87.3798 -0.337048 1.85056 0
M  V30 922 O 86.7378 -1.24396 1.31892 0
M  V30 923 C 86.7858 1.74726 3.15441 0
M  V30 924 O 85.8898 1.01566 3.99697 0
M  V30 925 H 85.2308 0.387341 0.539317 0
M  V30 926 H 87.7608 1.64358 1.2185 0
M  V30 927 H 87.7708 1.80341 3.6598 0
M  V30 928 H 86.4458 2.79773 3.07734 0
M  V30 929 H 85.0228 1.03713 3.58187 0
M  V30 930 N 87.2079 -1.17134 1.05439 0
M  V30 931 C 88.4329 -1.91913 0.786396 0
M  V30 932 C 88.8579 -1.7643 -0.652234 0
M  V30 933 O 88.2159 -1.08372 -1.45345 0
M  V30 934 C 88.2639 -3.40921 1.17497 0
M  V30 935 O 87.3679 -4.11244 0.308589 0
M  V30 936 H 86.7089 -0.598215 0.288158 0
M  V30 937 H 89.2389 -1.48457 1.4079 0
M  V30 938 H 89.2489 -3.91668 1.14281 0
M  V30 939 H 87.9239 -3.5151 2.22292 0
M  V30 940 H 86.5009 -3.70731 0.40157 0
M  V30 941 N 88.686 -0.835752 -1.33615 0
M  V30 942 C 89.649 -0.272 -2.2758 0
M  V30 943 C 90.649 0.557487 -1.50827 0
M  V30 944 O 91.839 0.37173 -1.70188 0
M  V30 945 C 88.971 0.617173 -3.35267 0
M  V30 946 H 90.164 -1.10111 -2.78954 0
M  V30 947 H 87.717 -0.608594 -1.43965 0
M  V30 948 H 88.452 1.46884 -2.89129 0
M  V30 949 H 88.237 0.0237066 -3.92093 0
M  V30 950 H 89.727 1.005 -4.05326 0
M  V30 951 N 90.1641 1.46063 -0.591896 0
M  V30 952 C 91.3891 2.07226 -0.0850314 0
M  V30 953 C 91.8141 1.43625 1.21463 0
M  V30 954 O 91.1721 0.523305 1.73583 0
M  V30 955 C 91.2201 3.60554 0.0576567 0
M  V30 956 O 90.3241 3.97128 1.11188 0
M  V30 957 H 89.6651 0.660615 -0.0669568 0
M  V30 958 H 92.1951 1.8756 -0.81745 0
M  V30 959 H 92.2051 4.07165 0.2609 0
M  V30 960 H 90.8801 4.06235 -0.891416 0
M  V30 961 H 89.4571 3.62213 0.886356 0
M  V30 962 N 91.6422 0.330177 1.54103 0
M  V30 963 C 92.8902 -0.269871 2.0029 0
M  V30 964 C 93.2112 -1.52133 1.21986 0
M  V30 965 O 92.4812 -1.93212 0.323438 0
M  V30 966 H 91.0612 -0.10271 0.739905 0
M  V30 967 H 93.7232 0.448249 1.89675 0
M  V30 968 H 92.8192 -0.52166 3.07709 0
M  V30 969 N 93.1203 -1.57491 0.0584922 0
M  V30 970 C 94.0833 -2.1085 -0.898617 0
M  V30 971 C 95.0833 -1.02964 -1.23511 0
M  V30 972 O 96.2733 -1.29007 -1.17059 0
M  V30 973 C 93.4053 -2.59881 -2.20623 0
M  V30 974 H 94.5983 -2.96715 -0.435936 0
M  V30 975 H 92.1513 -1.55141 -0.190023 0
M  V30 976 H 92.8863 -1.77431 -2.71457 0
M  V30 977 H 92.6713 -3.38727 -1.97501 0
M  V30 978 H 94.1613 -3.01285 -2.89166 0
M  V30 979 N 94.5984 0.214957 -1.56127 0
M  V30 980 C 95.8754 0.963093 -1.70247 0
M  V30 981 C 96.2554 2.02166 -0.60764 0
M  V30 982 O 95.6034 2.25244 0.384385 0
M  V30 983 C 95.8134 1.56756 -3.11815 0
M  V30 984 C 97.1614 2.0573 -3.7143 0
M  V30 985 O 98.1854 1.66637 -3.14818 0
M  V30 986 O 97.0444 2.77603 -4.70743 0
M  V30 987 H 94.1384 0.450321 -0.693643 0
M  V30 988 H 96.6844 0.206219 -1.68442 0
M  V30 989 H 95.4564 0.803533 -3.82961 0
M  V30 990 H 95.0794 2.3898 -3.17765 0
M  V30 991 N 96.0765 1.50051 0.48192 0
M  V30 992 C 97.0395 1.67584 1.5636 0
M  V30 993 C 98.0395 0.546894 1.51214 0
M  V30 994 O 99.2295 0.813725 1.54026 0
M  V30 995 C 96.3615 1.691 2.96003 0
M  V30 996 H 97.5545 2.64078 1.42136 0
M  V30 997 H 95.1075 1.39369 0.707533 0
M  V30 998 H 95.8425 0.742589 3.15684 0
M  V30 999 H 95.6275 2.51105 3.01146 0
M  V30 1000 H 97.1175 1.84656 3.74556 0
M  V30 1001 N 97.5546 -0.734337 1.39446 0
M  V30 1002 C 98.5026 -1.86971 1.38364 0
M  V30 1003 C 99.4966 -1.67288 0.266687 0
M  V30 1004 O 100.703 -1.74621 0.436755 0
M  V30 1005 H 97.0776 -0.615474 0.432082 0
M  V30 1006 H 99.0486 -1.85 2.34132 0
M  V30 1007 C 97.7976 -3.2466 1.24465 0
M  V30 1008 H 97.1206 -3.40402 2.09682 0
M  V30 1009 H 98.5606 -4.04292 1.27764 0
M  V30 1010 C 97.0196 -3.36867 -0.0468674 0
M  V30 1011 O 97.5496 -3.88618 -1.01681 0
M  V30 1012 N 95.7556 -2.90391 -0.110145 0
M  V30 1013 H 95.3026 -2.48466 0.679868 0
M  V30 1014 H 95.2606 -2.98939 -0.973799 0
M  V30 1015 N 99.0327 -1.24633 -0.964593 0
M  V30 1016 C 100.273 -1.09981 -1.72289 0
M  V30 1017 C 100.637 0.354792 -1.88693 0
M  V30 1018 O 101.838 0.62289 -2.61483 0
M  V30 1019 C 100.109 -1.82262 -3.07434 0
M  V30 1020 S 101.668 -1.83379 -3.98645 0
M  V30 1021 H 98.4857 -0.393292 -0.59232 0
M  V30 1022 H 101.088 -1.58009 -1.15123 0
M  V30 1023 H 99.7917 -2.87206 -2.93157 0
M  V30 1024 H 99.3227 -1.3458 -3.69664 0
M  V30 1025 H 101.338 -0.903691 -4.87901 0
M  V30 1026 N 100.511 1.16574 -1.06058 0
M  V30 1027 C 101.736 1.91493 -0.796562 0
M  V30 1028 C 102.161 1.76773 0.642868 0
M  V30 1029 O 101.519 1.09142 1.44768 0
M  V30 1030 C 101.567 3.40293 -1.19303 0
M  V30 1031 O 100.671 4.11074 -0.330394 0
M  V30 1032 H 100.012 0.596678 -0.291326 0
M  V30 1033 H 102.542 1.47708 -1.41575 0
M  V30 1034 H 102.552 3.91057 -1.16356 0
M  V30 1035 H 101.227 3.50326 -2.24153 0
M  V30 1036 H 99.8038 3.70513 -0.421225 0
M  V30 1037 N 101.989 0.842826 1.3317 0
M  V30 1038 C 103.4 0.496651 1.79973 0
M  V30 1039 C 103.751 -0.984641 1.69703 0
M  V30 1040 O 102.876 -1.76743 1.24863 0
M  V30 1041 C 103.471 0.894727 3.26772 0
M  V30 1042 C 102.03 0.600629 3.71577 0
M  V30 1043 C 101.177 1.10091 2.5451 0
M  V30 1044 H 104.128 1.03116 1.20635 0
M  V30 1045 H 104.149 0.206347 3.7994 0
M  V30 1046 H 103.661 1.97287 3.34215 0
M  V30 1047 H 101.762 -0.467284 3.69658 0
M  V30 1048 H 101.875 1.15863 4.64879 0
M  V30 1049 H 100.239 0.52162 2.49301 0
M  V30 1050 H 101.022 2.18591 2.64713 0
M  V30 1051 N 103.467 -1.45747 0.599634 0
M  V30 1052 C 104.883 -1.57424 0.26264 0
M  V30 1053 C 105.083 -1.59222 -1.23493 0
M  V30 1054 O 104.139 -1.51825 -2.01756 0
M  V30 1055 C 105.452 -2.86061 0.926795 0
M  V30 1056 C 107 -2.99722 0.901967 0
M  V30 1057 C 107.475 -4.31119 1.54598 0
M  V30 1058 N 108.966 -4.37858 1.5111 0
M  V30 1059 C 109.701 -5.3818 1.97863 0
M  V30 1060 N 109.197 -6.45083 2.52666 0
M  V30 1061 N 110.99 -5.29487 1.88679 0
M  V30 1062 H 103.141 -1.42823 1.57211 0
M  V30 1063 H 105.404 -0.68235 0.658105 0
M  V30 1064 H 105.11 -2.90605 1.98095 0
M  V30 1065 H 104.984 -3.74563 0.445238 0
M  V30 1066 H 107.371 -2.9475 -0.143617 0
M  V30 1067 H 107.452 -2.12652 1.42171 0
M  V30 1068 H 107.096 -4.36849 2.59085 0
M  V30 1069 H 107.026 -5.16992 1.00132 0
M  V30 1070 H 109.517 -3.61209 1.11068 0
M  V30 1071 H 109.83 -7.17869 2.86155 0
M  V30 1072 H 108.175 -6.45856 2.56701 0
M  V30 1073 H 111.366 -4.44877 1.4561 0
M  V30 1074 H 111.539 -6.07524 2.25429 0
M  V30 1075 N 104.945 -0.338344 -1.53925 0
M  V30 1076 C 106.193 0.259245 -2.0043 0
M  V30 1077 C 106.514 1.51484 -1.22791 0
M  V30 1078 O 105.784 1.93037 -0.33368 0
M  V30 1079 H 104.364 0.0987845 -0.740439 0
M  V30 1080 H 107.026 -0.458302 -1.89435 0
M  V30 1081 H 106.122 0.505334 -3.07982 0
M  V30 1082 N 106.423 1.57458 -0.0668435 0
M  V30 1083 C 107.834 1.80776 0.466558 0
M  V30 1084 C 108.185 0.980361 1.69951 0
M  V30 1085 O 107.31 0.201441 2.1546 0
M  V30 1086 C 107.905 3.27881 0.85321 0
M  V30 1087 C 106.464 3.52062 1.3315 0
M  V30 1088 C 105.611 2.75513 0.314264 0
M  V30 1089 H 108.562 1.5598 -0.292588 0
M  V30 1090 H 108.583 3.39659 1.715 0
M  V30 1091 H 108.095 3.88075 -0.0443439 0
M  V30 1092 H 106.196 2.97167 2.24772 0
M  V30 1093 H 106.309 4.60762 1.31285 0
M  V30 1094 H 104.673 2.42123 0.790492 0
M  V30 1095 H 105.456 3.38442 -0.575477 0
M  V30 1096 N 107.901 -0.206675 1.56239 0
M  V30 1097 C 109.126 -0.949474 1.8439 0
M  V30 1098 C 109.551 -1.76549 0.649016 0
M  V30 1099 O 108.909 -1.76782 -0.402231 0
M  V30 1100 C 108.957 -1.83078 3.10668 0
M  V30 1101 O 108.061 -2.9281 2.90407 0
M  V30 1102 H 107.402 -0.268033 0.607499 0
M  V30 1103 H 109.932 -0.215488 2.03462 0
M  V30 1104 H 109.942 -2.2377 3.41161 0
M  V30 1105 H 108.617 -1.23112 3.97261 0
M  V30 1106 H 107.194 -2.55956 2.71184 0
M  V30 1107 N 109.379 -1.50304 -0.473955 0
M  V30 1108 C 110.619 -1.62786 -1.23612 0
M  V30 1109 C 110.983 -0.319786 -1.89318 0
M  V30 1110 O 112.184 -0.320012 -2.66888 0
M  V30 1111 C 110.455 -2.77351 -2.25414 0
M  V30 1112 S 112.014 -3.09948 -3.10608 0
M  V30 1113 H 108.832 -0.573895 -0.419721 0
M  V30 1114 H 111.434 -1.88076 -0.533623 0
M  V30 1115 H 110.138 -3.70879 -1.75719 0
M  V30 1116 H 109.669 -2.54137 -3.00296 0
M  V30 1117 H 111.684 -2.53553 -4.26527 0
M  V30 1118 N 110.857 0.726932 -1.39834 0
M  V30 1119 C 112.105 1.4837 -1.37225 0
M  V30 1120 C 112.426 1.94979 0.0284857 0
M  V30 1121 O 111.696 1.69555 0.981213 0
M  V30 1122 H 110.276 0.55043 -0.505011 0
M  V30 1123 H 112.938 0.862468 -1.74778 0
M  V30 1124 H 112.034 2.36198 -2.04003 0
M  V30 1125 N 112.336 1.25143 0.95797 0
M  V30 1126 C 113.561 1.12521 1.74223 0
M  V30 1127 C 113.986 -0.317402 1.85403 0
M  V30 1128 O 113.344 -1.2299 1.33204 0
M  V30 1129 C 113.392 1.78062 3.1357 0
M  V30 1130 O 112.496 1.058 3.98598 0
M  V30 1131 H 111.837 0.39304 0.535178 0
M  V30 1132 H 114.367 1.65641 1.201 0
M  V30 1133 H 114.377 1.84213 3.64046 0
M  V30 1134 H 113.052 2.83021 3.04749 0
M  V30 1135 H 111.629 1.07506 3.57067 0
M  V30 1136 N 113.814 -1.1601 1.06675 0
M  V30 1137 C 114.777 -2.18724 0.685001 0
M  V30 1138 C 115.777 -1.58496 -0.271246 0
M  V30 1139 O 116.967 -1.74119 -0.0531156 0
M  V30 1140 C 114.099 -3.40899 0.00853648 0
M  V30 1141 H 115.292 -2.54011 1.59431 0
M  V30 1142 H 112.845 -1.30352 0.862441 0
M  V30 1143 H 113.58 -3.11173 -0.913337 0
M  V30 1144 H 113.365 -3.8587 0.696204 0
M  V30 1145 H 114.855 -4.16886 -0.24414 0
M  V30 1146 N 115.292 -0.849877 -1.32721 0
M  V30 1147 C 116.239 -0.289033 -2.28983 0
M  V30 1148 C 117.209 0.601324 -1.54833 0
M  V30 1149 O 118.394 0.537253 -1.8308 0
M  V30 1150 C 115.534 0.520623 -3.4115 0
M  V30 1151 C 114.647 -0.394989 -4.3019 0
M  V30 1152 C 113.782 0.426834 -5.29482 0
M  V30 1153 C 112.821 -0.486476 -6.10164 0
M  V30 1154 N 111.958 0.297879 -7.01468 0
M  V30 1155 H 116.798 -1.11519 -2.76347 0
M  V30 1156 H 114.335 -0.56138 -1.35967 0
M  V30 1157 H 116.293 1.00563 -4.04899 0
M  V30 1158 H 114.923 1.31165 -2.9495 0
M  V30 1159 H 113.975 -0.99836 -3.67065 0
M  V30 1160 H 115.287 -1.09612 -4.86607 0
M  V30 1161 H 114.441 0.975205 -5.98811 0
M  V30 1162 H 113.18 1.16136 -4.73671 0
M  V30 1163 H 112.185 -1.04677 -5.39743 0
M  V30 1164 H 113.41 -1.21953 -6.6806 0
M  V30 1165 H 111.356 1.01558 -6.48091 0
M  V30 1166 H 111.273 -0.344318 -7.55216 0
M  V30 1167 H 112.541 0.828131 -7.75089 0
M  V30 1168 N 116.77 1.45427 -0.607355 0
M  V30 1169 C 117.68 2.34325 0.113463 0
M  V30 1170 C 118.696 1.51226 0.860617 0
M  V30 1171 O 119.872 1.84029 0.818255 0
M  V30 1172 C 116.937 3.28839 1.09844 0
M  V30 1173 C 115.998 4.27844 0.353271 0
M  V30 1174 C 115.231 5.17842 1.29133 0
M  V30 1175 O 115.454 5.11264 2.52913 0
M  V30 1176 O 114.388 5.96713 0.788523 0
M  V30 1177 H 118.214 2.97364 -0.617094 0
M  V30 1178 H 115.799 1.44807 -0.367619 0
M  V30 1179 H 117.681 3.8708 1.66575 0
M  V30 1180 H 116.356 2.68365 1.81003 0
M  V30 1181 H 115.263 3.7322 -0.256494 0
M  V30 1182 H 116.596 4.91173 -0.317822 0
M  V30 1183 N 118.248 0.346503 1.53744 0
M  V30 1184 C 119.178 -0.501193 2.28058 0
M  V30 1185 C 120.159 -1.10014 1.29734 0
M  V30 1186 O 121.344 -1.12097 1.58581 0
M  V30 1187 C 118.474 -1.65078 3.05559 0
M  V30 1188 C 117.428 -1.18003 4.11411 0
M  V30 1189 C 116.754 -2.41837 4.76884 0
M  V30 1190 C 118.054 -0.278394 5.21558 0
M  V30 1191 H 119.748 0.11875 2.99164 0
M  V30 1192 H 117.294 0.0585531 1.43881 0
M  V30 1193 H 119.247 -2.25028 3.56287 0
M  V30 1194 H 117.971 -2.29767 2.32109 0
M  V30 1195 H 116.63 -0.603331 3.61601 0
M  V30 1196 H 116.278 -3.0494 4.00026 0
M  V30 1197 H 115.978 -2.1102 5.48402 0
M  V30 1198 H 117.502 -3.02508 5.30397 0
M  V30 1199 H 118.916 -0.784823 5.67903 0
M  V30 1200 H 117.313 -0.0619707 6.00068 0
M  V30 1201 H 118.383 0.684677 4.80042 0
M  V30 1202 N 119.726 -1.57421 0.075193 0
M  V30 1203 C 120.676 -2.09441 -0.901025 0
M  V30 1204 C 121.66 -1.00486 -1.25663 0
M  V30 1205 O 122.852 -1.2679 -1.23504 0
M  V30 1206 C 119.981 -2.66233 -2.16737 0
M  V30 1207 C 119.067 -3.82198 -1.83808 0
M  V30 1208 N 119.458 -4.91028 -1.21345 0
M  V30 1209 C 117.756 -3.91558 -2.13538 0
M  V30 1210 C 118.457 -5.71852 -1.06585 0
M  V30 1211 N 117.433 -5.20233 -1.57667 0
M  V30 1212 H 121.235 -2.90972 -0.413815 0
M  V30 1213 H 118.749 -1.6189 -0.128601 0
M  V30 1214 H 120.746 -3.01819 -2.87595 0
M  V30 1215 H 119.406 -1.8615 -2.66042 0
M  V30 1216 H 120.417 -5.10323 -0.88268 0
M  V30 1217 H 117.094 -3.22454 -2.65197 0
M  V30 1218 H 118.484 -6.69401 -0.578933 0
M  V30 1219 N 121.204 0.198386 -1.56346 0
M  V30 1220 C 122.167 1.22952 -1.93431 0
M  V30 1221 C 123.167 1.38611 -0.815092 0
M  V30 1222 O 124.357 1.36479 -1.08255 0
M  V30 1223 C 121.489 2.59946 -2.20546 0
M  V30 1224 H 122.682 0.912626 -2.85677 0
M  V30 1225 H 120.235 0.43977 -1.49986 0
M  V30 1226 H 120.97 2.96696 -1.30927 0
M  V30 1227 H 120.755 2.49953 -3.02102 0
M  V30 1228 H 122.245 3.3431 -2.50253 0
M  V30 1229 N 122.682 1.50554 0.465978 0
M  V30 1230 C 123.928 1.62038 1.21949 0
M  V30 1231 C 124.261 0.322116 1.9151 0
M  V30 1232 O 123.536 -0.676723 1.82348 0
M  V30 1233 C 123.819 2.80421 2.25912 0
M  V30 1234 C 123.672 4.20144 1.60622 0
M  V30 1235 C 124.991 2.94354 3.27176 0
M  V30 1236 H 122.11 0.589752 0.441998 0
M  V30 1237 H 124.752 1.82956 0.51257 0
M  V30 1238 H 122.902 2.62717 2.86203 0
M  V30 1239 H 124.574 4.49449 1.03889 0
M  V30 1240 H 122.817 4.24165 0.909211 0
M  V30 1241 H 123.488 4.98914 2.36196 0
M  V30 1242 H 125.964 3.10578 2.76913 0
M  V30 1243 H 124.84 3.788 3.97242 0
M  V30 1244 H 125.101 2.05186 3.916 0
M  V30 1245 N 124.16 -0.719506 1.40217 0
M  V30 1246 C 125.408 -1.47641 1.3801 0
M  V30 1247 C 125.729 -1.94992 -0.018145 0
M  V30 1248 O 124.999 -1.70073 -0.972207 0
M  V30 1249 H 123.579 -0.547744 0.507923 0
M  V30 1250 H 126.241 -0.853187 1.75233 0
M  V30 1251 H 125.337 -2.35112 2.05253 0
M  V30 1252 N 125.638 -1.25649 -0.95132 0
M  V30 1253 C 126.57 -1.02112 -2.05197 0
M  V30 1254 C 127.583 0.0150571 -1.62793 0
M  V30 1255 O 128.772 -0.223874 -1.77091 0
M  V30 1256 C 125.872 -0.522361 -3.3485 0
M  V30 1257 C 125.045 -1.62546 -4.06076 0
M  V30 1258 C 124.104 -1.12649 -5.14001 0
M  V30 1259 O 123.13 -1.82156 -5.39266 0
M  V30 1260 N 124.332 0.03047 -5.80492 0
M  V30 1261 H 127.097 -1.96885 -2.25957 0
M  V30 1262 H 124.658 -1.16899 -1.1201 0
M  V30 1263 H 126.65 -0.172961 -4.0433 0
M  V30 1264 H 125.22 0.33151 -3.10837 0
M  V30 1265 H 124.44 -2.14628 -3.30649 0
M  V30 1266 H 125.728 -2.36644 -4.50419 0
M  V30 1267 H 125.126 0.611169 -5.62389 0
M  V30 1268 H 123.683 0.320875 -6.5101 0
M  V30 1269 N 127.117 1.15442 -1.07289 0
M  V30 1270 C 128.08 2.18358 -0.696591 0
M  V30 1271 C 129.08 1.58637 0.262837 0
M  V30 1272 O 130.27 1.74145 0.0438809 0
M  V30 1273 C 127.402 3.4089 -0.0266151 0
M  V30 1274 H 128.595 2.53162 -1.60776 0
M  V30 1275 H 126.148 1.29893 -0.869342 0
M  V30 1276 H 126.883 3.11653 0.896822 0
M  V30 1277 H 126.668 3.85495 -0.716657 0
M  V30 1278 H 128.158 4.17009 0.222028 0
M  V30 1279 N 128.595 0.856903 1.32268 0
M  V30 1280 C 129.558 0.308171 2.27119 0
M  V30 1281 C 130.558 -0.533421 1.51695 0
M  V30 1282 O 131.748 -0.344607 1.70757 0
M  V30 1283 C 128.88 -0.563757 3.36206 0
M  V30 1284 H 130.073 1.14535 2.77167 0
M  V30 1285 H 127.626 0.631421 1.42978 0
M  V30 1286 H 128.361 -1.42266 2.91429 0
M  V30 1287 H 128.146 0.0386749 3.92081 0
M  V30 1288 H 129.636 -0.940386 4.06874 0
M  V30 1289 N 130.073 -1.45103 0.615059 0
M  V30 1290 C 130.983 -2.34382 -0.101034 0
M  V30 1291 C 131.999 -1.51681 -0.852585 0
M  V30 1292 O 133.175 -1.8446 -0.808484 0
M  V30 1293 C 130.24 -3.29417 -1.08099 0
M  V30 1294 C 129.301 -4.28025 -0.330577 0
M  V30 1295 C 128.534 -5.1852 -1.26385 0
M  V30 1296 O 128.757 -5.12598 -2.50198 0
M  V30 1297 O 127.691 -5.97122 -0.756866 0
M  V30 1298 H 131.517 -2.97033 0.632855 0
M  V30 1299 H 129.102 -1.4461 0.375293 0
M  V30 1300 H 130.984 -3.87958 -1.6452 0
M  V30 1301 H 129.659 -2.69321 -1.79577 0
M  V30 1302 H 128.566 -3.73078 0.276283 0
M  V30 1303 H 129.899 -4.90997 0.343866 0
M  V30 1304 N 131.551 -0.354651 -1.53558 0
M  V30 1305 C 132.967 -0.00315426 -1.596 0
M  V30 1306 C 133.167 1.47741 -1.37021 0
M  V30 1307 O 132.223 2.23759 -1.16996 0
M  V30 1308 C 133.536 -0.44929 -2.97325 0
M  V30 1309 C 135.084 -0.402578 -3.104 0
M  V30 1310 C 135.559 -0.824355 -4.5052 0
M  V30 1311 N 137.05 -0.778979 -4.56603 0
M  V30 1312 C 137.785 -1.07715 -5.63192 0
M  V30 1313 N 137.281 -1.44405 -6.77583 0
M  V30 1314 N 139.074 -1.00066 -5.53121 0
M  V30 1315 H 131.225 -1.31893 -1.66487 0
M  V30 1316 H 133.488 -0.538388 -0.780284 0
M  V30 1317 H 133.194 -1.48202 -3.1895 0
M  V30 1318 H 133.068 0.169772 -3.76818 0
M  V30 1319 H 135.455 0.621004 -2.88492 0
M  V30 1320 H 135.536 -1.05699 -2.32941 0
M  V30 1321 H 135.18 -1.846 -4.73165 0
M  V30 1322 H 135.11 -0.147304 -5.26394 0
M  V30 1323 H 137.601 -0.508528 -3.74463 0
M  V30 1324 H 137.914 -1.65612 -7.54846 0
M  V30 1325 H 136.259 -1.4826 -6.79002 0
M  V30 1326 H 139.45 -0.713293 -4.62633 0
M  V30 1327 H 139.623 -1.23638 -6.36096 0
M  V30 1328 N 133.029 1.57378 -0.0835403 0
M  V30 1329 C 133.976 2.13384 0.879539 0
M  V30 1330 C 134.946 1.04936 1.28754 0
M  V30 1331 O 136.131 1.32662 1.37133 0
M  V30 1332 C 133.271 2.70932 2.13752 0
M  V30 1333 C 132.384 3.93575 1.7811 0
M  V30 1334 C 131.519 4.39326 2.98607 0
M  V30 1335 C 130.558 5.54587 2.59037 0
M  V30 1336 N 129.695 5.95243 3.72331 0
M  V30 1337 H 134.535 2.9537 0.395076 0
M  V30 1338 H 132.072 1.45953 0.183349 0
M  V30 1339 H 134.03 3.02411 2.87408 0
M  V30 1340 H 132.66 1.91693 2.59718 0
M  V30 1341 H 131.712 3.68483 0.94469 0
M  V30 1342 H 133.024 4.77258 1.45005 0
M  V30 1343 H 132.178 4.72528 3.80529 0
M  V30 1344 H 130.917 3.5452 3.34913 0
M  V30 1345 H 129.922 5.21024 1.75539 0
M  V30 1346 H 131.147 6.41133 2.23887 0
M  V30 1347 H 129.093 5.13385 4.08378 0
M  V30 1348 H 129.01 6.73694 3.43034 0
M  V30 1349 H 130.278 6.33072 4.54797 0
M  V30 1350 N 134.507 -0.190092 1.56449 0
M  V30 1351 C 135.47 -1.21925 1.9408 0
M  V30 1352 C 136.47 -1.38176 0.822431 0
M  V30 1353 O 137.66 -1.35903 1.08977 0
M  V30 1354 C 134.792 -2.58773 2.21922 0
M  V30 1355 H 135.985 -0.897464 2.86157 0
M  V30 1356 H 133.538 -0.43181 1.50217 0
M  V30 1357 H 134.273 -2.95998 1.32499 0
M  V30 1358 H 134.058 -2.48348 3.03424 0
M  V30 1359 H 135.548 -3.32978 2.52022 0
M  V30 1360 N 135.985 -1.50799 -0.457987 0
M  V30 1361 C 136.895 -1.73426 -1.57989 0
M  V30 1362 C 137.911 -0.617745 -1.62665 0
M  V30 1363 O 139.087 -0.897614 -1.80291 0
M  V30 1364 C 136.152 -1.83557 -2.94122 0
M  V30 1365 C 135.213 -3.07345 -2.99729 0
M  V30 1366 C 134.446 -3.16983 -4.29368 0
M  V30 1367 O 134.669 -2.33077 -5.20607 0
M  V30 1368 O 133.603 -4.09812 -4.40837 0
M  V30 1369 H 137.429 -2.68555 -1.41817 0
M  V30 1370 H 135.014 -1.35052 -0.638859 0
M  V30 1371 H 136.896 -1.92326 -3.74952 0
M  V30 1372 H 135.571 -0.916137 -3.10465 0
M  V30 1373 H 134.478 -3.04068 -2.1793 0
M  V30 1374 H 135.811 -3.9891 -2.88326 0
M  V30 1375 N 137.463 0.71206 -1.40597 0
M  V30 1376 C 138.879 1.02058 -1.22704 0
M  V30 1377 C 139.079 2.01228 -0.104729 0
M  V30 1378 O 138.135 2.4674 0.53624 0
M  V30 1379 C 139.448 1.56094 -2.57012 0
M  V30 1380 C 140.996 1.6806 -2.64054 0
M  V30 1381 C 141.471 2.25501 -3.9864 0
M  V30 1382 N 142.962 2.32882 -4.004 0
M  V30 1383 C 143.697 2.78317 -5.01325 0
M  V30 1384 N 143.193 3.23478 -6.12645 0
M  V30 1385 N 144.986 2.77733 -4.88693 0
M  V30 1386 H 137.137 0.0547896 -2.12329 0
M  V30 1387 H 139.4 0.0869027 -0.944008 0
M  V30 1388 H 139.106 0.906865 -3.39807 0
M  V30 1389 H 138.98 2.54564 -2.78347 0
M  V30 1390 H 141.367 2.32583 -1.81629 0
M  V30 1391 H 141.448 0.681802 -2.46546 0
M  V30 1392 H 141.092 1.61598 -4.81506 0
M  V30 1393 H 141.022 3.26102 -4.13479 0
M  V30 1394 H 143.513 2.00991 -3.20017 0
M  V30 1395 H 143.826 3.56725 -6.85542 0
M  V30 1396 H 142.171 3.21429 -6.16205 0
M  V30 1397 H 145.362 2.4179 -4.00818 0
M  V30 1398 H 145.535 3.12826 -5.67489 0
M  V30 1399 N 138.941 1.26152 0.944643 0
M  V30 1400 C 139.888 1.07408 2.04285 0
M  V30 1401 C 140.858 -0.0198413 1.66088 0
M  V30 1402 O 142.043 0.139264 1.90291 0
M  V30 1403 C 139.183 0.70945 3.37729 0
M  V30 1404 C 138.296 1.87926 3.88983 0
M  V30 1405 C 137.431 1.45807 5.10797 0
M  V30 1406 C 136.47 2.5964 5.54305 0
M  V30 1407 N 135.607 2.18226 6.67324 0
M  V30 1408 H 140.447 2.01389 2.1965 0
M  V30 1409 H 137.984 1.00275 1.07626 0
M  V30 1410 H 139.942 0.478948 4.14442 0
M  V30 1411 H 138.572 -0.193389 3.2222 0
M  V30 1412 H 137.624 2.22279 3.08701 0
M  V30 1413 H 138.936 2.73377 4.17213 0
M  V30 1414 H 138.09 1.18781 5.94959 0
M  V30 1415 H 136.829 0.574414 4.84305 0
M  V30 1416 H 135.834 2.87399 4.68702 0
M  V30 1417 H 137.059 3.48599 5.828 0
M  V30 1418 H 135.005 1.3229 6.42523 0
M  V30 1419 H 134.922 2.97221 6.95123 0
M  V30 1420 H 136.19 1.94403 7.54869 0
M  V30 1421 N 140.419 -1.14872 1.07899 0
M  V30 1422 C 141.351 -2.19425 0.662231 0
M  V30 1423 C 142.364 -1.60231 -0.288079 0
M  V30 1424 O 143.553 -1.78336 -0.076534 0
M  V30 1425 C 140.653 -3.38867 -0.0470695 0
M  V30 1426 C 139.826 -4.27597 0.920831 0
M  V30 1427 C 138.885 -5.25616 0.247805 0
M  V30 1428 O 137.911 -5.62189 0.890599 0
M  V30 1429 N 139.113 -5.71746 -1.00435 0
M  V30 1430 H 141.878 -2.55797 1.56166 0
M  V30 1431 H 139.439 -1.30042 0.964404 0
M  V30 1432 H 141.431 -4.01497 -0.50813 0
M  V30 1433 H 140.001 -3.00864 -0.848523 0
M  V30 1434 H 139.221 -3.61982 1.56087 0
M  V30 1435 H 140.509 -4.83748 1.57688 0
M  V30 1436 H 139.907 -5.44153 -1.54642 0
M  V30 1437 H 138.464 -6.36389 -1.40899 0
M  V30 1438 N 141.898 -0.863906 -1.31812 0
M  V30 1439 C 143.314 -0.555004 -1.49639 0
M  V30 1440 C 143.514 0.912266 -1.79666 0
M  V30 1441 O 142.57 1.69479 -1.87171 0
M  V30 1442 C 143.883 -1.44998 -2.63431 0
M  V30 1443 C 145.431 -1.45138 -2.77316 0
M  V30 1444 C 145.906 -2.33179 -3.94197 0
M  V30 1445 N 147.397 -2.31025 -4.01474 0
M  V30 1446 C 148.132 -2.95871 -4.9117 0
M  V30 1447 N 147.628 -3.69863 -5.8581 0
M  V30 1448 N 149.421 -2.85211 -4.84367 0
M  V30 1449 H 141.572 -1.81339 -1.10589 0
M  V30 1450 H 143.835 -0.77505 -0.545895 0
M  V30 1451 H 143.541 -2.49377 -2.48 0
M  V30 1452 H 143.415 -1.14409 -3.59431 0
M  V30 1453 H 145.802 -0.415201 -2.92164 0
M  V30 1454 H 145.883 -1.79747 -1.82001 0
M  V30 1455 H 145.527 -3.3687 -3.80107 0
M  V30 1456 H 145.457 -1.95897 -4.88807 0
M  V30 1457 H 147.948 -1.77238 -3.33759 0
M  V30 1458 H 148.261 -4.16486 -6.50968 0
M  V30 1459 H 146.606 -3.73971 -5.85808 0
M  V30 1460 H 149.797 -2.26948 -4.09405 0
M  V30 1461 H 149.97 -3.36027 -5.54066 0
M  V30 1462 N 143.376 1.44774 -0.622745 0
M  V30 1463 C 144.286 2.34433 0.0886031 0
M  V30 1464 C 145.302 1.52131 0.844529 0
M  V30 1465 O 146.478 1.84886 0.798691 0
M  V30 1466 C 143.543 3.29986 1.0635 0
M  V30 1467 C 142.604 4.28195 0.307873 0
M  V30 1468 C 141.837 5.19183 1.23633 0
M  V30 1469 O 142.06 5.13918 2.47476 0
M  V30 1470 O 140.994 5.97515 0.725189 0
M  V30 1471 H 144.82 2.96693 -0.648599 0
M  V30 1472 H 142.405 1.44408 -0.382957 0
M  V30 1473 H 144.287 3.88825 1.6246 0
M  V30 1474 H 142.962 2.70269 1.78146 0
M  V30 1475 H 141.869 3.72927 -0.296064 0
M  V30 1476 H 143.202 4.90808 -0.3699 0
M  V30 1477 N 144.854 0.36279 1.53368 0
M  V30 1478 C 145.817 -0.472679 2.24273 0
M  V30 1479 C 146.817 -1.012 1.24961 0
M  V30 1480 O 148.007 -0.898194 1.49259 0
M  V30 1481 C 145.139 -1.66039 2.97731 0
M  V30 1482 H 146.332 0.14773 2.99536 0
M  V30 1483 H 143.885 0.114434 1.55881 0
M  V30 1484 H 144.62 -2.31896 2.26704 0
M  V30 1485 H 144.405 -1.28066 3.70596 0
M  V30 1486 H 145.895 -2.25252 3.51641 0
M  V30 1487 N 146.332 -1.57332 0.0918853 0
M  V30 1488 C 147.262 -2.16872 -0.865371 0
M  V30 1489 C 148.243 -1.10118 -1.29646 0
M  V30 1490 O 149.428 -1.38242 -1.36392 0
M  V30 1491 C 146.558 -2.74649 -2.12569 0
M  V30 1492 C 145.512 -3.86747 -1.83333 0
M  V30 1493 C 144.838 -4.31212 -3.16166 0
M  V30 1494 C 146.138 -5.10089 -1.1228 0
M  V30 1495 H 147.832 -2.97114 -0.369307 0
M  V30 1496 H 145.378 -1.42918 -0.176194 0
M  V30 1497 H 147.331 -3.14952 -2.7997 0
M  V30 1498 H 146.055 -1.91657 -2.64452 0
M  V30 1499 H 144.714 -3.46978 -1.18331 0
M  V30 1500 H 144.362 -3.45115 -3.6593 0
M  V30 1501 H 144.062 -5.06788 -2.97388 0
M  V30 1502 H 145.586 -4.74146 -3.84731 0
M  V30 1503 H 147 -5.47582 -1.69785 0
M  V30 1504 H 145.397 -5.91073 -1.03693 0
M  V30 1505 H 146.467 -4.84786 -0.105041 0
M  V30 1506 N 147.81 0.181792 -1.56548 0
M  V30 1507 C 148.742 1.24956 -1.92142 0
M  V30 1508 C 149.755 1.41022 -0.813422 0
M  V30 1509 O 150.944 1.41212 -1.09186 0
M  V30 1510 C 148.044 2.61981 -2.14987 0
M  V30 1511 C 147.217 2.6735 -3.46183 0
M  V30 1512 C 146.276 3.85664 -3.5798 0
M  V30 1513 O 145.302 3.72148 -4.30691 0
M  V30 1514 N 146.504 5.01683 -2.92053 0
M  V30 1515 H 149.269 0.947329 -2.84334 0
M  V30 1516 H 146.83 0.371629 -1.57577 0
M  V30 1517 H 148.822 3.3958 -2.20154 0
M  V30 1518 H 147.392 2.84637 -1.2923 0
M  V30 1519 H 146.612 1.75925 -3.52766 0
M  V30 1520 H 147.9 2.67939 -4.32534 0
M  V30 1521 H 147.298 5.15564 -2.32832 0
M  V30 1522 H 145.855 5.77181 -3.0283 0
M  V30 1523 N 149.288 1.51039 0.449983 0
M  V30 1524 C 150.536 1.62759 1.19808 0
M  V30 1525 C 150.857 0.339981 1.92013 0
M  V30 1526 O 150.127 -0.643606 1.85026 0
M  V30 1527 H 148.707 0.599811 0.445237 0
M  V30 1528 H 151.369 1.87914 0.517138 0
M  V30 1529 H 150.465 2.44911 1.93455 0
M  V30 1530 N 150.766 -0.704594 1.40972 0
M  V30 1531 C 152.014 -1.46169 1.39568 0
M  V30 1532 C 152.335 -1.95 0.00253745 0
M  V30 1533 O 151.605 -1.71095 -0.954114 0
M  V30 1534 H 150.185 -0.542326 0.513704 0
M  V30 1535 H 152.847 -0.834553 1.76128 0
M  V30 1536 H 151.943 -2.32922 2.07735 0
M  V30 1537 N 152.244 -1.26651 -0.937939 0
M  V30 1538 C 153.521 -1.0313 -1.66204 0
M  V30 1539 C 153.901 0.437256 -2.06522 0
M  V30 1540 O 153.249 1.41831 -1.79154 0
M  V30 1541 C 153.459 -1.98314 -2.87181 0
M  V30 1542 C 154.807 -2.27107 -3.58758 0
M  V30 1543 O 155.831 -1.96205 -2.97291 0
M  V30 1544 O 154.69 -2.79736 -4.69479 0
M  V30 1545 H 151.784 -0.392384 -0.727986 0
M  V30 1546 H 154.33 -1.37874 -0.989382 0
M  V30 1547 H 153.102 -2.97399 -2.54302 0
M  V30 1548 H 152.725 -1.64068 -3.6217 0
M  V30 1549 N 153.722 1.14298 -1.08507 0
M  V30 1550 C 155.138 1.37347 -0.812901 0
M  V30 1551 C 155.338 1.93052 0.577325 0
M  V30 1552 O 154.394 2.14389 1.33393 0
M  V30 1553 C 155.707 2.33359 -1.89642 0
M  V30 1554 C 157.255 2.46996 -1.92255 0
M  V30 1555 C 157.73 3.46309 -2.99724 0
M  V30 1556 N 159.221 3.53853 -2.98902 0
M  V30 1557 C 159.956 4.3055 -3.787 0
M  V30 1558 N 159.452 5.10482 -4.6838 0
M  V30 1559 N 161.245 4.25757 -3.66998 0
M  V30 1560 H 153.396 0.764867 -1.9815 0
M  V30 1561 H 155.659 0.398966 -0.859959 0
M  V30 1562 H 155.365 1.99565 -2.89597 0
M  V30 1563 H 155.239 3.33274 -1.76659 0
M  V30 1564 H 157.626 2.80081 -0.929445 0
M  V30 1565 H 157.707 1.47039 -2.09316 0
M  V30 1566 H 157.351 3.13957 -3.99241 0
M  V30 1567 H 157.281 4.46049 -2.79907 0
M  V30 1568 H 159.772 2.96812 -2.33904 0
M  V30 1569 H 160.085 5.66284 -5.25873 0
M  V30 1570 H 158.43 5.09747 -4.72422 0
M  V30 1571 H 161.621 3.62383 -2.96304 0
M  V30 1572 H 161.794 4.85279 -4.29427 0
M  V30 1573 N 155.201 0.870884 1.31352 0
M  V30 1574 C 156.449 0.48132 1.96285 0
M  V30 1575 C 156.77 -0.969813 1.69173 0
M  V30 1576 O 156.04 -1.67998 1.00764 0
M  V30 1577 H 154.62 0.175002 0.726212 0
M  V30 1578 H 157.282 1.11087 1.60143 0
M  V30 1579 H 156.378 0.639825 3.05471 0
M  V30 1580 N 156.679 -1.44442 0.630414 0
M  V30 1581 C 157.926 -2.02052 0.134617 0
M  V30 1582 C 158.254 -1.49576 -1.24327 0
M  V30 1583 O 157.509 -0.669806 -1.83881 0
M  V30 1584 C 157.808 -3.57332 0.0697835 0
M  V30 1585 C 157.474 -4.29058 1.38635 0
M  V30 1586 C 156.136 -4.4837 1.74694 0
M  V30 1587 C 158.488 -4.69872 2.25543 0
M  V30 1588 C 155.816 -5.05756 2.97369 0
M  V30 1589 C 158.168 -5.28616 3.47487 0
M  V30 1590 C 156.832 -5.46147 3.8377 0
M  V30 1591 H 156.102 -0.739361 0.0492598 0
M  V30 1592 H 158.749 -1.73217 0.816586 0
M  V30 1593 H 157.054 -3.85577 -0.695553 0
M  V30 1594 H 158.751 -3.99637 -0.330344 0
M  V30 1595 H 155.341 -4.14357 1.09574 0
M  V30 1596 H 159.525 -4.54666 1.98979 0
M  V30 1597 H 154.781 -5.17515 3.25558 0
M  V30 1598 H 158.955 -5.59192 4.15063 0
M  V30 1599 H 156.582 -5.9038 4.7891 0
M  V30 1600 N 158.157 -0.370918 -1.53173 0
M  V30 1601 C 159.12 0.460778 -2.24521 0
M  V30 1602 C 160.12 1.00536 -1.25496 0
M  V30 1603 O 161.31 0.890266 -1.49733 0
M  V30 1604 C 158.442 1.64457 -2.98608 0
M  V30 1605 H 159.635 -0.163613 -2.99453 0
M  V30 1606 H 157.188 -0.122699 -1.55818 0
M  V30 1607 H 157.923 2.30691 -2.2793 0
M  V30 1608 H 157.708 1.26099 -3.7127 0
M  V30 1609 H 159.198 2.23384 -3.5283 0
M  V30 1610 N 159.635 1.57281 -0.100228 0
M  V30 1611 C 160.598 2.13158 0.842398 0
M  V30 1612 C 161.598 1.06202 1.20738 0
M  V30 1613 O 162.788 1.32066 1.13597 0
M  V30 1614 C 159.92 2.65639 2.13655 0
M  V30 1615 H 161.113 2.97766 0.357114 0
M  V30 1616 H 158.666 1.5559 0.148823 0
M  V30 1617 H 159.401 1.84566 2.66657 0
M  V30 1618 H 159.186 3.43844 1.88451 0
M  V30 1619 H 160.676 3.08846 2.81077 0
M  V30 1620 N 161.113 -0.173488 1.56642 0
M  V30 1621 C 162.524 -0.736155 1.71574 0
M  V30 1622 C 162.875 -1.82888 0.710389 0
M  V30 1623 O 162 -2.16017 -0.1287 0
M  V30 1624 C 162.595 -1.34211 3.11083 0
M  V30 1625 C 161.154 -1.85162 3.27707 0
M  V30 1626 C 160.301 -0.729765 2.67525 0
M  V30 1627 H 163.252 0.0518786 1.58615 0
M  V30 1628 H 163.273 -2.21178 3.09613 0
M  V30 1629 H 162.785 -0.546579 3.84232 0
M  V30 1630 H 160.886 -2.67366 2.59512 0
M  V30 1631 H 160.999 -1.99855 4.35425 0
M  V30 1632 H 159.363 -1.14965 2.27278 0
M  V30 1633 H 160.146 0.0538806 3.43258 0
M  V30 1634 N 162.591 -1.51276 -0.441967 0
M  V30 1635 C 163.523 -1.68444 -1.55433 0
M  V30 1636 C 164.536 -0.565187 -1.52674 0
M  V30 1637 O 165.725 -0.839356 -1.57534 0
M  V30 1638 C 162.825 -1.67966 -2.94348 0
M  V30 1639 C 161.998 -2.964 -3.21661 0
M  V30 1640 C 161.057 -2.88171 -4.40277 0
M  V30 1641 O 160.083 -3.62119 -4.39157 0
M  V30 1642 N 161.285 -2.03706 -5.43584 0
M  V30 1643 H 164.05 -2.644 -1.41112 0
M  V30 1644 H 161.611 -1.49104 -0.630838 0
M  V30 1645 H 163.603 -1.60035 -3.71713 0
M  V30 1646 H 162.173 -0.796225 -3.0229 0
M  V30 1647 H 161.393 -3.18234 -2.32638 0
M  V30 1648 H 162.681 -3.81427 -3.36736 0
M  V30 1649 H 162.079 -1.42995 -5.47329 0
M  V30 1650 H 160.636 -2.01658 -6.1982 0
M  V30 1651 N 164.069 0.697108 -1.41344 0
M  V30 1652 C 165.316 1.45714 -1.40619 0
M  V30 1653 C 165.644 1.94494 -0.0147907 0
M  V30 1654 O 164.899 1.69794 0.973066 0
M  V30 1655 C 165.198 2.68553 -2.35826 0
M  V30 1656 C 164.864 2.38438 -3.82698 0
M  V30 1657 C 163.526 2.29936 -4.22709 0
M  V30 1658 C 165.878 2.13567 -4.75435 0
M  V30 1659 C 163.206 1.94656 -5.53467 0
M  V30 1660 C 165.558 1.79797 -6.06511 0
M  V30 1661 C 164.222 1.69789 -6.45545 0
M  V30 1662 H 163.492 0.533206 -0.51456 0
M  V30 1663 H 166.139 0.796901 -1.74131 0
M  V30 1664 H 164.444 3.39503 -1.95563 0
M  V30 1665 H 166.141 3.2669 -2.32539 0
M  V30 1666 H 162.731 2.4595 -3.51008 0
M  V30 1667 H 166.915 2.19082 -4.45328 0
M  V30 1668 H 162.171 1.8546 -5.82593 0
M  V30 1669 H 166.345 1.59572 -6.77872 0
M  V30 1670 H 163.972 1.4222 -7.46778 0
M  V30 1671 N 165.547 1.27147 0.931209 0
M  V30 1672 C 166.772 1.16191 1.71797 0
M  V30 1673 C 167.197 -0.278004 1.86034 0
M  V30 1674 O 166.555 -1.20137 1.35782 0
M  V30 1675 C 166.603 1.84673 3.09723 0
M  V30 1676 O 165.707 1.14231 3.96264 0
M  V30 1677 H 165.048 0.404303 0.526721 0
M  V30 1678 H 167.578 1.68152 1.1656 0
M  V30 1679 H 167.588 1.91893 3.60057 0
M  V30 1680 H 166.263 2.89421 2.98677 0
M  V30 1681 H 164.84 1.15056 3.54706 0
M  V30 1682 N 167.025 -1.13721 1.09112 0
M  V30 1683 C 167.955 -2.21148 0.749385 0
M  V30 1684 C 168.936 -1.6792 -0.271475 0
M  V30 1685 O 170.121 -1.93693 -0.140251 0
M  V30 1686 C 167.251 -3.46905 0.165659 0
M  V30 1687 C 166.205 -4.13203 1.11567 0
M  V30 1688 C 165.531 -5.33248 0.393809 0
M  V30 1689 C 166.831 -4.60912 2.45678 0
M  V30 1690 H 168.525 -2.4999 1.64758 0
M  V30 1691 H 166.071 -1.20156 0.793626 0
M  V30 1692 H 168.024 -4.21313 -0.085466 0
M  V30 1693 H 166.748 -3.17449 -0.767714 0
M  V30 1694 H 165.407 -3.40758 1.35202 0
M  V30 1695 H 165.055 -5.00054 -0.543599 0
M  V30 1696 H 164.755 -5.78552 1.02721 0
M  V30 1697 H 166.279 -6.10413 0.150908 0
M  V30 1698 H 167.693 -5.26759 2.26269 0
M  V30 1699 H 166.09 -5.16944 3.04776 0
M  V30 1700 H 167.16 -3.75603 3.06677 0
M  V30 1701 N 168.503 -0.877838 -1.30888 0
M  V30 1702 C 169.749 -0.502773 -1.97088 0
M  V30 1703 C 170.104 0.936274 -1.68082 0
M  V30 1704 O 169.397 1.65162 -0.971196 0
M  V30 1705 C 169.591 -0.705748 -3.50363 0
M  V30 1706 C 169.42 -2.16297 -3.94266 0
M  V30 1707 C 168.19 -2.80614 -4.20219 0
M  V30 1708 C 170.388 -3.13606 -4.07622 0
M  V30 1709 N 168.37 -4.17007 -4.50532 0
M  V30 1710 C 169.741 -4.35051 -4.41736 0
M  V30 1711 C 171.796 -3.09491 -3.90026 0
M  V30 1712 C 170.499 -5.52911 -4.60089 0
M  V30 1713 C 172.525 -4.26616 -4.09576 0
M  V30 1714 C 171.887 -5.46825 -4.44029 0
M  V30 1715 H 167.986 -0.233168 -0.746429 0
M  V30 1716 H 170.57 -1.13408 -1.58261 0
M  V30 1717 H 168.741 -0.103976 -3.88261 0
M  V30 1718 H 170.473 -0.298291 -4.03599 0
M  V30 1719 H 167.228 -2.3152 -4.13153 0
M  V30 1720 H 167.652 -4.87426 -4.69834 0
M  V30 1721 H 172.294 -2.17657 -3.62471 0
M  V30 1722 H 170.012 -6.45255 -4.86489 0
M  V30 1723 H 173.598 -4.24894 -3.97438 0
M  V30 1724 H 172.478 -6.35947 -4.58848 0
M  V30 1725 N 169.982 1.44106 -0.638065 0
M  V30 1726 C 171.398 1.56672 -0.304286 0
M  V30 1727 C 171.598 1.6244 1.19228 0
M  V30 1728 O 170.654 1.57121 1.9766 0
M  V30 1729 C 171.967 2.83503 -1.00231 0
M  V30 1730 C 173.515 2.97226 -0.981116 0
M  V30 1731 C 173.99 4.26868 -1.65974 0
M  V30 1732 N 175.481 4.33698 -1.62666 0
M  V30 1733 C 176.216 5.32745 -2.12063 0
M  V30 1734 N 175.712 6.38157 -2.6968 0
M  V30 1735 N 177.505 5.24299 -2.02651 0
M  V30 1736 H 169.656 1.38605 -1.60942 0
M  V30 1737 H 171.919 0.664661 -0.675965 0
M  V30 1738 H 171.625 2.85251 -2.0573 0
M  V30 1739 H 171.499 3.73251 -0.54439 0
M  V30 1740 H 173.886 2.95027 0.0654188 0
M  V30 1741 H 173.967 2.08808 -1.47759 0
M  V30 1742 H 173.611 4.29826 -2.70576 0
M  V30 1743 H 173.541 5.14156 -1.13804 0
M  V30 1744 H 176.032 3.58138 -1.20606 0
M  V30 1745 H 176.345 7.10029 -3.05087 0
M  V30 1746 H 174.69 6.38823 -2.73734 0
M  V30 1747 H 177.881 4.4086 -1.57353 0
M  V30 1748 H 178.054 6.01334 -2.41457 0
M  V30 1749 N 171.46 0.379036 1.52974 0
M  V30 1750 C 172.876 0.0285448 1.59574 0
M  V30 1751 C 173.076 -1.45542 1.39355 0
M  V30 1752 O 172.132 -2.2187 1.20541 0
M  V30 1753 C 173.445 0.496535 2.96572 0
M  V30 1754 C 174.993 0.451909 3.0972 0
M  V30 1755 C 175.468 0.895924 4.49152 0
M  V30 1756 N 176.959 0.851522 4.55306 0
M  V30 1757 C 177.694 1.16661 5.61407 0
M  V30 1758 N 177.19 1.55166 6.752 0
M  V30 1759 N 178.983 1.08853 5.51459 0
M  V30 1760 H 171.134 1.34525 1.64367 0
M  V30 1761 H 173.397 0.550733 0.771619 0
M  V30 1762 H 173.103 1.53258 3.16552 0
M  V30 1763 H 172.977 -0.109802 3.7704 0
M  V30 1764 H 175.364 -0.575029 2.89443 0
M  V30 1765 H 175.445 1.09392 2.3123 0
M  V30 1766 H 175.089 1.92104 4.70168 0
M  V30 1767 H 175.019 0.23103 5.26093 0
M  V30 1768 H 177.51 0.568038 3.73606 0
M  V30 1769 H 177.823 1.776 7.52116 0
M  V30 1770 H 176.168 1.59044 6.76557 0
M  V30 1771 H 179.359 0.786803 4.6144 0
M  V30 1772 H 179.532 1.33742 6.34048 0
M  V30 1773 N 172.938 -1.57226 0.108567 0
M  V30 1774 C 174.349 -1.8195 -0.418464 0
M  V30 1775 C 174.7 -1.02508 -1.67292 0
M  V30 1776 O 173.825 -0.258496 -2.14851 0
M  V30 1777 C 174.42 -3.30028 -0.765979 0
M  V30 1778 C 172.979 -3.55469 -1.23769 0
M  V30 1779 C 172.126 -2.7625 -0.241106 0
M  V30 1780 H 175.077 -1.55149 0.33384 0
M  V30 1781 H 175.098 -3.44086 -1.62434 0
M  V30 1782 H 174.61 -3.87821 0.147219 0
M  V30 1783 H 172.711 -3.03022 -2.16814 0
M  V30 1784 H 172.824 -4.6408 -1.19022 0
M  V30 1785 H 171.188 -2.44133 -0.72602 0
M  V30 1786 H 171.971 -3.36797 0.665007 0
M  V30 1787 N 174.416 0.165178 -1.56732 0
M  V30 1788 C 175.662 0.882112 -1.82611 0
M  V30 1789 C 175.995 1.81628 -0.687378 0
M  V30 1790 O 175.27 1.92009 0.310267 0
M  V30 1791 C 175.553 1.67245 -3.18906 0
M  V30 1792 C 175.406 0.760987 -4.43316 0
M  V30 1793 C 176.725 2.63884 -3.52212 0
M  V30 1794 H 173.844 0.319242 -0.664269 0
M  V30 1795 H 176.486 0.148052 -1.89422 0
M  V30 1796 H 174.636 2.29824 -3.1323 0
M  V30 1797 H 176.308 0.147596 -4.61064 0
M  V30 1798 H 174.551 0.0694102 -4.33744 0
M  V30 1799 H 175.222 1.34962 -5.35247 0
M  V30 1800 H 177.698 2.11429 -3.58381 0
M  V30 1801 H 176.574 3.16245 -4.48643 0
M  V30 1802 H 176.835 3.44377 -2.77231 0
M  V30 1803 N 175.894 1.51508 0.433938 0
M  V30 1804 C 177.14 1.64588 1.18484 0
M  V30 1805 C 177.473 0.362666 1.90784 0
M  V30 1806 O 176.748 -0.637892 1.83742 0
M  V30 1807 C 177.031 2.85149 2.19913 0
M  V30 1808 C 176.884 4.23456 1.51674 0
M  V30 1809 C 178.203 3.01227 3.20858 0
M  V30 1810 H 175.322 0.598994 0.429389 0
M  V30 1811 H 177.964 1.84002 0.473647 0
M  V30 1812 H 176.114 2.68729 2.80566 0
M  V30 1813 H 177.786 4.51552 0.943322 0
M  V30 1814 H 176.029 4.25998 0.819035 0
M  V30 1815 H 176.7 5.03812 2.2556 0
M  V30 1816 H 179.176 3.16382 2.70263 0
M  V30 1817 H 178.052 3.87141 3.89118 0
M  V30 1818 H 178.313 2.13447 3.8716 0
M  V30 1819 N 177.372 -0.689602 1.41712 0
M  V30 1820 C 178.6 -1.47827 1.44758 0
M  V30 1821 C 179.015 -1.88721 0.0545703 0
M  V30 1822 O 178.372 -1.57176 -0.927463 0
M  V30 1823 C 178.423 -2.73698 2.3616 0
M  V30 1824 O 178.144 -2.34524 3.7004 0
M  V30 1825 C 179.645 -3.67389 2.48072 0
M  V30 1826 H 176.865 -0.455357 0.49284 0
M  V30 1827 H 179.409 -0.848574 1.86063 0
M  V30 1828 H 177.564 -3.32891 1.98148 0
M  V30 1829 H 177.978 -3.15701 4.18847 0
M  V30 1830 H 179.452 -4.52475 3.16181 0
M  V30 1831 H 179.929 -4.12284 1.51388 0
M  V30 1832 H 180.535 -3.14097 2.86746 0
M  V30 1833 N 178.85 -1.27639 -0.924453 0
M  V30 1834 C 179.813 -1.10681 -2.00705 0
M  V30 1835 C 180.813 -0.0497823 -1.60723 0
M  V30 1836 O 182.003 -0.294654 -1.7169 0
M  V30 1837 C 179.135 -0.687164 -3.33902 0
M  V30 1838 H 180.328 -2.06817 -2.17179 0
M  V30 1839 H 177.881 -1.10473 -1.10569 0
M  V30 1840 H 178.616 0.275439 -3.23128 0
M  V30 1841 H 178.401 -1.45061 -3.6428 0
M  V30 1842 H 179.891 -0.590853 -4.13399 0
M  V30 1843 N 180.328 1.1314 -1.09713 0
M  V30 1844 C 181.278 2.16709 -0.708593 0
M  V30 1845 C 182.262 1.58471 0.278523 0
M  V30 1846 O 183.454 1.76779 0.088427 0
M  V30 1847 C 180.583 3.43039 -0.133923 0
M  V30 1848 C 179.669 4.08277 -1.14763 0
M  V30 1849 N 180.06 4.48637 -2.33577 0
M  V30 1850 C 178.358 4.34954 -0.986446 0
M  V30 1851 C 179.059 4.9952 -2.98085 0
M  V30 1852 N 178.035 4.94561 -2.25632 0
M  V30 1853 H 181.837 2.45672 -1.61315 0
M  V30 1854 H 179.351 1.29967 -0.973775 0
M  V30 1855 H 181.348 4.16583 0.162465 0
M  V30 1856 H 180.008 3.15549 0.765447 0
M  V30 1857 H 181.019 4.41246 -2.7115 0
M  V30 1858 H 177.696 4.17258 -0.142008 0
M  V30 1859 H 179.086 5.40521 -3.99108 0
M  V30 1860 N 181.806 0.884767 1.30421 0
M  V30 1861 C 183.055 0.499164 1.95426 0
M  V30 1862 C 183.368 -0.95645 1.70621 0
M  V30 1863 O 184.574 -1.44889 2.29607 0
M  V30 1864 C 183.03 0.84177 3.49917 0
M  V30 1865 C 182.638 2.31514 3.83543 0
M  V30 1866 C 184.382 0.525355 4.21237 0
M  V30 1867 C 182.289 2.59939 5.31212 0
M  V30 1868 H 181.219 0.182944 0.73147 0
M  V30 1869 H 183.87 1.07971 1.48373 0
M  V30 1870 H 182.252 0.190311 3.95542 0
M  V30 1871 H 183.426 3.0109 3.48829 0
M  V30 1872 H 181.741 2.59907 3.25326 0
M  V30 1873 H 184.338 0.714762 5.29901 0
M  V30 1874 H 184.681 -0.535222 4.12845 0
M  V30 1875 H 185.214 1.134 3.81294 0
M  V30 1876 H 181.953 3.64736 5.44654 0
M  V30 1877 H 181.473 1.94972 5.67227 0
M  V30 1878 H 183.152 2.45429 5.98643 0
M  V30 1879 N 183.284 -1.43765 0.645699 0
M  V30 1880 C 184.194 -2.34544 -0.0512957 0
M  V30 1881 C 185.21 -1.53455 -0.82022 0
M  V30 1882 O 186.386 -1.86133 -0.769176 0
M  V30 1883 C 183.451 -3.31636 -1.01087 0
M  V30 1884 C 182.512 -4.2863 -0.239712 0
M  V30 1885 C 181.745 -5.21084 -1.15358 0
M  V30 1886 O 181.968 -5.1779 -2.39269 0
M  V30 1887 O 180.902 -5.98593 -0.630038 0
M  V30 1888 H 184.728 -2.95624 0.695718 0
M  V30 1889 H 182.313 -1.43781 0.405882 0
M  V30 1890 H 184.195 -3.9136 -1.56254 0
M  V30 1891 H 182.87 -2.73069 -1.73824 0
M  V30 1892 H 181.777 -3.72408 0.355356 0
M  V30 1893 H 183.11 -4.90157 0.447936 0
M  V30 1894 N 184.763 -0.387143 -1.52771 0
M  V30 1895 C 186.011 0.195349 -2.01154 0
M  V30 1896 C 186.332 1.475 -1.27549 0
M  V30 1897 O 185.602 1.91878 -0.394924 0
M  V30 1898 H 184.182 0.075178 -0.743207 0
M  V30 1899 H 186.844 -0.518337 -1.87881 0
M  V30 1900 H 185.94 0.407096 -3.09434 0
M  V30 1901 N 186.241 1.57166 -0.116904 0
M  V30 1902 C 187.173 2.12271 0.864507 0
M  V30 1903 C 188.186 1.06494 1.23138 0
M  V30 1904 O 189.375 1.33873 1.18069 0
M  V30 1905 C 186.475 2.60564 2.16702 0
M  V30 1906 C 185.648 3.90416 1.97216 0
M  V30 1907 C 184.707 4.24329 3.11178 0
M  V30 1908 O 183.733 4.93182 2.84184 0
M  V30 1909 N 184.935 3.8148 4.37554 0
M  V30 1910 H 187.7 2.97102 0.393726 0
M  V30 1911 H 185.261 1.61759 0.0675805 0
M  V30 1912 H 187.253 2.80282 2.91932 0
M  V30 1913 H 185.823 1.80623 2.55135 0
M  V30 1914 H 185.043 3.79627 1.06192 0
M  V30 1915 H 186.331 4.75327 1.81499 0
M  V30 1916 H 185.729 3.25943 4.62361 0
M  V30 1917 H 184.286 4.06311 5.09661 0
M  V30 1918 N 187.719 -0.156864 1.56817 0
M  V30 1919 C 189.13 -0.717916 1.72345 0
M  V30 1920 C 189.481 -1.82124 0.729747 0
M  V30 1921 O 188.606 -2.16141 -0.105781 0
M  V30 1922 C 189.201 -1.30904 3.12489 0
M  V30 1923 C 187.76 -1.81676 3.29653 0
M  V30 1924 C 186.907 -0.701349 2.68284 0
M  V30 1925 H 189.858 0.0686989 1.58551 0
M  V30 1926 H 189.879 -2.17882 3.11942 0
M  V30 1927 H 189.391 -0.505796 3.8479 0
M  V30 1928 H 187.492 -2.64598 2.62333 0
M  V30 1929 H 187.605 -1.95226 4.3752 0
M  V30 1930 H 185.969 -1.12548 2.28484 0
M  V30 1931 H 186.752 0.0902846 3.43181 0
M  V30 1932 N 189.197 -1.51736 -0.425897 0
M  V30 1933 C 190.443 -1.65214 -1.1761 0
M  V30 1934 C 190.776 -0.372778 -1.90589 0
M  V30 1935 O 190.051 0.628139 -1.84078 0
M  V30 1936 C 190.334 -2.86312 -2.18398 0
M  V30 1937 C 190.187 -4.24254 -1.49426 0
M  V30 1938 C 191.506 -3.02925 -3.19256 0
M  V30 1939 H 188.625 -0.601263 -0.426206 0
M  V30 1940 H 191.267 -1.8425 -0.463882 0
M  V30 1941 H 189.417 -2.70213 -2.79137 0
M  V30 1942 H 191.089 -4.52046 -0.919362 0
M  V30 1943 H 189.332 -4.26426 -0.796432 0
M  V30 1944 H 190.003 -5.05001 -2.22885 0
M  V30 1945 H 192.479 -3.1781 -2.68581 0
M  V30 1946 H 191.355 -3.89199 -3.8706 0
M  V30 1947 H 191.616 -2.15497 -3.86023 0
M  V30 1948 N 190.675 0.682077 -1.42076 0
M  V30 1949 C 191.585 1.82535 -1.47371 0
M  V30 1950 C 192.601 1.7017 -0.363079 0
M  V30 1951 O 193.777 1.91848 -0.612875 0
M  V30 1952 C 190.842 3.18624 -1.36674 0
M  V30 1953 C 189.903 3.42999 -2.58167 0
M  V30 1954 C 189.136 4.72595 -2.4797 0
M  V30 1955 O 189.359 5.50006 -1.5116 0
M  V30 1956 O 188.293 4.98054 -3.37974 0
M  V30 1957 H 192.119 1.81023 -2.43853 0
M  V30 1958 H 189.704 0.836887 -1.2376 0
M  V30 1959 H 191.586 3.99847 -1.33043 0
M  V30 1960 H 190.261 3.20789 -0.433138 0
M  V30 1961 H 189.168 2.61653 -2.67373 0
M  V30 1962 H 190.501 3.45659 -3.50401 0
M  V30 1963 N 192.153 1.28127 0.917671 0
M  V30 1964 C 193.399 1.15223 1.66888 0
M  V30 1965 C 193.732 -0.299293 1.9188 0
M  V30 1966 O 193.007 -1.21805 1.51637 0
M  V30 1967 C 193.29 1.94706 3.02922 0
M  V30 1968 C 193.143 3.47898 2.85109 0
M  V30 1969 C 194.462 1.75939 4.03402 0
M  V30 1970 H 191.581 0.419946 0.605652 0
M  V30 1971 H 194.223 1.57398 1.06423 0
M  V30 1972 H 192.373 1.58864 3.54534 0
M  V30 1973 H 194.045 3.93624 2.40537 0
M  V30 1974 H 192.288 3.7373 2.20246 0
M  V30 1975 H 192.959 3.98765 3.81694 0
M  V30 1976 H 195.435 2.07209 3.60837 0
M  V30 1977 H 194.311 2.33931 4.96556 0
M  V30 1978 H 194.572 0.709877 4.36364 0
M  V30 1979 N 193.631 -1.12557 1.10312 0
M  V30 1980 C 194.561 -2.20341 0.772798 0
M  V30 1981 C 195.542 -1.68198 -0.25365 0
M  V30 1982 O 196.727 -1.93831 -0.119699 0
M  V30 1983 C 193.857 -3.46709 0.202443 0
M  V30 1984 C 192.811 -4.11996 1.15943 0
M  V30 1985 C 192.137 -5.328 0.450345 0
M  V30 1986 C 193.437 -4.5828 2.50552 0
M  V30 1987 H 195.131 -2.48229 1.674 0
M  V30 1988 H 192.677 -1.19308 0.806326 0
M  V30 1989 H 194.63 -4.2138 -0.0407752 0
M  V30 1990 H 193.354 -3.18245 -0.734001 0
M  V30 1991 H 192.013 -3.39305 1.38808 0
M  V30 1992 H 191.661 -5.00602 -0.490531 0
M  V30 1993 H 191.361 -5.7743 1.08851 0
M  V30 1994 H 192.885 -6.10219 0.215642 0
M  V30 1995 H 194.299 -5.2433 2.31843 0
M  V30 1996 H 192.696 -5.13683 3.10242 0
M  V30 1997 H 193.766 -3.72329 3.10643 0
M  V30 1998 N 195.109 -0.891671 -1.2995 0
M  V30 1999 C 196.039 -0.379797 -2.30391 0
M  V30 2000 C 197.02 0.540919 -1.6127 0
M  V30 2001 O 198.205 0.453352 -1.88834 0
M  V30 2002 C 195.335 0.400654 -3.44981 0
M  V30 2003 C 194.289 -0.428905 -4.25846 0
M  V30 2004 C 193.615 0.478557 -5.32554 0
M  V30 2005 C 194.915 -1.67458 -4.94727 0
M  V30 2006 H 196.609 -1.21914 -2.73454 0
M  V30 2007 H 194.155 -0.587675 -1.31462 0
M  V30 2008 H 196.108 0.769434 -4.14316 0
M  V30 2009 H 194.832 1.27371 -3.0074 0
M  V30 2010 H 193.491 -0.779911 -3.58208 0
M  V30 2011 H 193.139 1.34951 -4.84559 0
M  V30 2012 H 192.839 -0.0727433 -5.87555 0
M  V30 2013 H 194.363 0.843705 -6.04743 0
M  V30 2014 H 195.777 -1.376 -5.56542 0
M  V30 2015 H 194.174 -2.16659 -5.59624 0
M  V30 2016 H 195.244 -2.41518 -4.20473 0
M  V30 2017 N 196.587 1.43421 -0.653314 0
M  V30 2018 C 197.864 1.95361 -0.0966581 0
M  V30 2019 C 198.244 1.59461 1.38331 0
M  V30 2020 O 197.592 0.879777 2.10884 0
M  V30 2021 C 197.802 3.47311 -0.342988 0
M  V30 2022 C 199.15 4.23875 -0.24798 0
M  V30 2023 O 200.174 3.55133 -0.275553 0
M  V30 2024 O 199.033 5.4623 -0.171771 0
M  V30 2025 H 196.127 0.826945 0.00956291 0
M  V30 2026 H 198.673 1.5336 -0.726558 0
M  V30 2027 H 197.445 3.66569 -1.36906 0
M  V30 2028 H 197.068 3.9631 0.319975 0
M  V30 2029 N 198.065 0.39524 1.52563 0
M  V30 2030 C 199.293 -0.184943 2.06072 0
M  V30 2031 C 199.708 -1.40021 1.26647 0
M  V30 2032 O 199.065 -1.79767 0.314672 0
M  V30 2033 C 199.116 -0.549179 3.57304 0
M  V30 2034 O 198.837 0.617813 4.33722 0
M  V30 2035 C 200.338 -1.18459 4.2718 0
M  V30 2036 H 197.558 -0.0265025 0.670476 0
M  V30 2037 H 200.102 0.562184 1.96621 0
M  V30 2038 H 198.257 -1.2462 3.66809 0
M  V30 2039 H 198.671 0.317091 5.23541 0
M  V30 2040 H 200.145 -1.38976 5.34219 0
M  V30 2041 H 200.622 -2.15368 3.82771 0
M  V30 2042 H 201.228 -0.528163 4.22008 0
M  V30 2043 N 199.544 -1.57102 0.125237 0
M  V30 2044 C 200.792 -1.95021 -0.530198 0
M  V30 2045 C 201.113 -1.00982 -1.66816 0
M  V30 2046 O 200.383 -0.0672693 -1.95784 0
M  V30 2047 H 198.963 -0.720046 -0.198853 0
M  V30 2048 H 201.625 -1.93916 0.19564 0
M  V30 2049 H 200.721 -2.98211 -0.920681 0
M  V30 2050 N 201.022 0.148545 -1.56898 0
M  V30 2051 C 201.985 1.16736 -1.97244 0
M  V30 2052 C 202.985 1.35947 -0.858777 0
M  V30 2053 O 204.175 1.32966 -1.12542 0
M  V30 2054 C 201.307 2.52798 -2.28705 0
M  V30 2055 H 202.5 0.821279 -2.88435 0
M  V30 2056 H 200.053 0.391831 -1.51309 0
M  V30 2057 H 200.788 2.92381 -1.403 0
M  V30 2058 H 200.573 2.40216 -3.09901 0
M  V30 2059 H 202.063 3.26179 -2.60762 0
M  V30 2060 N 202.5 1.5196 0.417844 0
M  V30 2061 C 203.777 1.56146 1.17803 0
M  V30 2062 C 204.157 0.337275 2.08388 0
M  V30 2063 O 203.505 -0.676447 2.18258 0
M  V30 2064 C 203.715 2.88566 1.96293 0
M  V30 2065 C 205.063 3.41244 2.52662 0
M  V30 2066 O 206.087 2.90247 2.06483 0
M  V30 2067 O 204.946 4.30273 3.36938 0
M  V30 2068 H 202.04 0.628598 0.537395 0
M  V30 2069 H 204.586 1.64283 0.425331 0
M  V30 2070 H 203.358 3.69116 1.2988 0
M  V30 2071 H 202.981 2.83681 2.78587 0
M  V30 2072 N 203.978 -0.674533 1.42435 0
M  V30 2073 C 205.255 -1.4305 1.33402 0
M  V30 2074 C 205.635 -2.11081 -0.0284674 0
M  V30 2075 O 204.983 -2.03257 -1.04397 0
M  V30 2076 C 205.193 -2.43272 2.50239 0
M  V30 2077 C 206.541 -3.07907 2.92367 0
M  V30 2078 O 207.565 -2.53599 2.50132 0
M  V30 2079 O 206.424 -4.0632 3.65467 0
M  V30 2080 H 203.518 -0.638076 0.526106 0
M  V30 2081 H 206.064 -0.703235 1.54443 0
M  V30 2082 H 204.836 -1.91803 3.41068 0
M  V30 2083 H 204.459 -3.23479 2.31186 0
M  V30 2084 N 205.456 -1.28612 -0.910864 0
M  V30 2085 C 206.681 -1.1891 -1.69927 0
M  V30 2086 C 207.106 0.248372 -1.86453 0
M  V30 2087 O 206.464 1.17961 -1.37676 0
M  V30 2088 C 206.512 -1.89578 -3.06745 0
M  V30 2089 O 205.616 -1.20521 -3.94396 0
M  V30 2090 H 204.957 -0.412632 -0.520222 0
M  V30 2091 H 207.487 -1.69985 -1.1387 0
M  V30 2092 H 207.497 -1.97597 -3.56958 0
M  V30 2093 H 206.172 -2.94136 -2.94035 0
M  V30 2094 H 204.749 -1.20684 -3.52831 0
M  V30 2095 N 206.934 1.1197 -1.10907 0
M  V30 2096 C 208.183 1.82947 -0.849302 0
M  V30 2097 C 208.496 1.85275 0.627112 0
M  V30 2098 O 209.702 2.52296 1.00295 0
M  V30 2099 C 208.158 3.28529 -1.46959 0
M  V30 2100 C 207.766 3.34546 -2.97965 0
M  V30 2101 C 209.51 4.04443 -1.28942 0
M  V30 2102 C 207.417 4.74491 -3.53004 0
M  V30 2103 H 206.347 0.685477 -0.314065 0
M  V30 2104 H 208.998 1.2604 -1.33365 0
M  V30 2105 H 207.38 3.85333 -0.912917 0
M  V30 2106 H 208.554 2.87654 -3.59989 0
M  V30 2107 H 206.869 2.72108 -3.15192 0
M  V30 2108 H 209.466 5.07787 -1.67502 0
M  V30 2109 H 209.809 4.15656 -0.231456 0
M  V30 2110 H 210.342 3.5401 -1.81443 0
M  V30 2111 H 207.081 4.68474 -4.58489 0
M  V30 2112 H 206.601 5.21816 -2.9575 0
M  V30 2113 H 208.28 5.4344 -3.51115 0
M  V30 2114 N 208.412 0.89855 1.29475 0
M  V30 2115 C 209.658 0.524658 1.95896 0
M  V30 2116 C 209.991 -0.926468 1.70676 0
M  V30 2117 O 209.266 -1.65665 1.01908 0
M  V30 2118 C 209.549 0.81633 3.50725 0
M  V30 2119 C 209.402 2.31907 3.85408 0
M  V30 2120 C 210.721 0.302038 4.39062 0
M  V30 2121 H 207.84 0.19209 0.711527 0
M  V30 2122 H 210.482 1.12502 1.53112 0
M  V30 2123 H 208.632 0.305369 3.87298 0
M  V30 2124 H 210.304 2.89949 3.58786 0
M  V30 2125 H 208.547 2.78027 3.32992 0
M  V30 2126 H 209.218 2.47373 4.93468 0
M  V30 2127 H 211.694 0.739551 4.09475 0
M  V30 2128 H 210.57 0.535331 5.46283 0
M  V30 2129 H 210.831 -0.797216 4.34853 0
M  V30 2130 N 209.89 -1.43072 0.660911 0
M  V30 2131 C 211.118 -2.06067 0.185422 0
M  V30 2132 C 211.533 -1.49582 -1.15198 0
M  V30 2133 O 210.89 -0.630134 -1.71276 0
M  V30 2134 C 210.941 -3.61371 0.0966523 0
M  V30 2135 O 210.662 -4.15758 1.38119 0
M  V30 2136 C 212.163 -4.41455 -0.403996 0
M  V30 2137 H 209.383 -0.664459 0.0934604 0
M  V30 2138 H 211.927 -1.83447 0.90373 0
M  V30 2139 H 210.082 -3.8315 -0.572259 0
M  V30 2140 H 210.496 -5.09499 1.24542 0
M  V30 2141 H 211.97 -5.50437 -0.415045 0
M  V30 2142 H 212.447 -4.15036 -1.43674 0
M  V30 2143 H 213.053 -4.24663 0.232691 0
M  V30 2144 N 211.368 -0.403325 -1.52352 0
M  V30 2145 C 212.616 0.174003 -2.0135 0
M  V30 2146 C 212.937 1.46139 -1.29106 0
M  V30 2147 O 212.207 1.91448 -0.415253 0
M  V30 2148 H 210.787 0.0672911 -0.743963 0
M  V30 2149 H 213.449 -0.538235 -1.87321 0
M  V30 2150 H 212.545 0.374254 -3.09848 0
M  V30 2151 N 212.846 1.57033 -0.133567 0
M  V30 2152 C 214.095 1.94861 0.520768 0
M  V30 2153 C 214.408 1.02012 1.66892 0
M  V30 2154 O 215.614 1.29365 2.38699 0
M  V30 2155 C 214.07 3.46362 0.977809 0
M  V30 2156 C 213.678 4.47773 -0.142674 0
M  V30 2157 C 215.422 3.93083 1.60269 0
M  V30 2158 C 213.329 5.90468 0.331883 0
M  V30 2159 H 212.259 0.727453 0.198315 0
M  V30 2160 H 214.91 1.82227 -0.215759 0
M  V30 2161 H 213.292 3.54282 1.7692 0
M  V30 2162 H 214.466 4.51536 -0.919317 0
M  V30 2163 H 212.781 4.10891 -0.675124 0
M  V30 2164 H 215.378 4.97121 1.96914 0
M  V30 2165 H 215.721 3.33876 2.48662 0
M  V30 2166 H 216.254 3.88025 0.876453 0
M  V30 2167 H 212.993 6.53463 -0.516341 0
M  V30 2168 H 212.513 5.90094 1.07469 0
M  V30 2169 H 214.192 6.42179 0.788332 0
M  V30 2170 N 214.325 -0.140222 1.56975 0
M  V30 2171 C 215.235 -1.19223 2.02047 0
M  V30 2172 C 216.251 -1.46612 0.937062 0
M  V30 2173 O 217.427 -1.58148 1.24704 0
M  V30 2174 C 214.492 -2.50414 2.39778 0
M  V30 2175 C 213.553 -2.30612 3.621 0
M  V30 2176 C 212.786 -3.55547 3.98023 0
M  V30 2177 O 213.009 -4.62004 3.34528 0
M  V30 2178 O 211.943 -3.47808 4.91237 0
M  V30 2179 H 215.769 -0.839559 2.91865 0
M  V30 2180 H 213.354 -0.349453 1.45256 0
M  V30 2181 H 215.236 -3.27747 2.64877 0
M  V30 2182 H 213.911 -2.85198 1.53114 0
M  V30 2183 H 212.818 -1.51207 3.4218 0
M  V30 2184 H 214.151 -2.00741 4.49404 0
M  V30 2185 N 215.803 -1.52179 -0.40978 0
M  V30 2186 C 216.733 -1.78435 -1.5061 0
M  V30 2187 C 217.714 -0.635295 -1.57791 0
M  V30 2188 O 218.899 -0.880823 -1.73076 0
M  V30 2189 C 216.029 -1.93444 -2.88439 0
M  V30 2190 C 214.983 -3.09038 -2.96108 0
M  V30 2191 C 214.309 -3.09268 -4.36185 0
M  V30 2192 C 215.609 -4.48508 -2.67652 0
M  V30 2193 H 217.303 -2.70237 -1.28889 0
M  V30 2194 H 214.849 -1.30036 -0.618605 0
M  V30 2195 H 216.802 -2.10394 -3.65119 0
M  V30 2196 H 215.526 -0.983129 -3.11452 0
M  V30 2197 H 214.185 -2.91837 -2.21872 0
M  V30 2198 H 213.833 -2.11861 -4.56206 0
M  V30 2199 H 213.533 -3.86907 -4.42241 0
M  V30 2200 H 215.057 -3.28348 -5.14801 0
M  V30 2201 H 216.471 -4.65918 -3.34056 0
M  V30 2202 H 214.868 -5.28059 -2.85085 0
M  V30 2203 H 215.938 -4.56649 -1.63095 0
M  V30 2204 N 217.281 0.66697 -1.42791 0
M  V30 2205 C 218.529 1.42417 -1.43394 0
M  V30 2206 C 218.85 1.94925 -0.0542373 0
M  V30 2207 O 218.12 1.73564 0.908415 0
M  V30 2208 H 216.7 0.528515 -0.527902 0
M  V30 2209 H 219.362 0.787562 -1.78279 0
M  V30 2210 H 218.458 2.27333 -2.13837 0
M  V30 2211 N 218.759 1.29093 0.90403 0
M  V30 2212 C 220.17 1.15186 1.46932 0
M  V30 2213 C 220.521 -0.254587 1.94541 0
M  V30 2214 O 219.646 -1.14972 1.83332 0
M  V30 2215 C 220.241 2.08492 2.67051 0
M  V30 2216 C 218.8 1.98621 3.19729 0
M  V30 2217 C 217.947 1.9967 1.92425 0
M  V30 2218 H 220.898 1.41641 0.715789 0
M  V30 2219 H 220.919 1.65461 3.42641 0
M  V30 2220 H 220.431 3.10847 2.3237 0
M  V30 2221 H 218.532 0.993389 3.59114 0
M  V30 2222 H 218.645 2.86068 3.8432 0
M  V30 2223 H 217.009 1.44208 2.09943 0
M  V30 2224 H 217.792 3.03721 1.60026 0
M  V30 2225 N 220.237 -1.11381 1.11499 0
M  V30 2226 C 221.187 -2.15555 0.74298 0
M  V30 2227 C 222.171 -1.58894 -0.253276 0
M  V30 2228 O 223.363 -1.76897 -0.0602918 0
M  V30 2229 C 220.492 -3.42782 0.188481 0
M  V30 2230 C 219.578 -4.064 1.21244 0
M  V30 2231 N 219.969 -4.44864 2.40685 0
M  V30 2232 C 218.267 -4.3333 1.05552 0
M  V30 2233 C 218.968 -4.94715 3.05994 0
M  V30 2234 N 217.944 -4.90909 2.33472 0
M  V30 2235 H 221.746 -2.43074 1.65203 0
M  V30 2236 H 219.26 -1.28401 0.994329 0
M  V30 2237 H 221.257 -4.16789 -0.0961693 0
M  V30 2238 H 219.917 -3.16727 -0.715149 0
M  V30 2239 H 220.928 -4.36876 2.78136 0
M  V30 2240 H 217.605 -4.1698 0.208372 0
M  V30 2241 H 218.995 -5.34103 4.07656 0
M  V30 2242 N 221.715 -0.905404 -1.28997 0
M  V30 2243 C 222.945 -0.549049 -1.99171 0
M  V30 2244 C 223.353 0.87203 -1.67906 0
M  V30 2245 O 222.696 1.58796 -0.923561 0
M  V30 2246 C 222.758 -0.668306 -3.53234 0
M  V30 2247 C 222.422 -2.0574 -4.08069 0
M  V30 2248 C 223.419 -3.0292 -4.22534 0
M  V30 2249 C 221.104 -2.36833 -4.42962 0
M  V30 2250 C 223.098 -4.29314 -4.71135 0
M  V30 2251 C 220.785 -3.63467 -4.91258 0
M  V30 2252 C 221.783 -4.59522 -5.053 0
M  V30 2253 O 221.471 -5.83907 -5.52546 0
M  V30 2254 H 221.203 -0.208784 -0.64295 0
M  V30 2255 H 223.757 -1.21836 -1.65363 0
M  V30 2256 H 221.987 0.0580547 -3.86656 0
M  V30 2257 H 223.676 -0.320273 -4.04634 0
M  V30 2258 H 224.442 -2.80216 -3.95859 0
M  V30 2259 H 220.321 -1.62824 -4.31288 0
M  V30 2260 H 223.865 -5.04293 -4.8201 0
M  V30 2261 H 219.762 -3.86 -5.17372 0
M  V30 2262 H 220.53 -5.86578 -5.70849 0
M  V30 2263 N 223.193 1.4272 -0.668489 0
M  V30 2264 C 224.421 2.05966 -0.196348 0
M  V30 2265 C 224.836 1.50191 1.14403 0
M  V30 2266 O 224.193 0.639208 1.7094 0
M  V30 2267 C 224.244 3.61314 -0.115815 0
M  V30 2268 O 223.965 4.1502 -1.40322 0
M  V30 2269 C 225.466 4.41663 0.380579 0
M  V30 2270 H 222.686 0.663954 -0.0969829 0
M  V30 2271 H 225.23 1.82966 -0.913446 0
M  V30 2272 H 223.385 3.83448 0.551931 0
M  V30 2273 H 223.799 5.08832 -1.27243 0
M  V30 2274 H 225.273 5.5065 0.385848 0
M  V30 2275 H 225.75 4.15792 1.41471 0
M  V30 2276 H 226.356 4.24534 -0.255209 0
M  V30 2277 N 224.671 0.411399 1.52136 0
M  V30 2278 C 226.082 -0.0576826 1.86611 0
M  V30 2279 C 226.433 -1.44238 1.33003 0
M  V30 2280 O 225.558 -2.05759 0.670228 0
M  V30 2281 C 226.153 -0.111448 3.38617 0
M  V30 2282 C 224.712 -0.52487 3.72723 0
M  V30 2283 C 223.859 0.299176 2.75681 0
M  V30 2284 H 226.81 0.628368 1.4573 0
M  V30 2285 H 226.831 -0.926252 3.69054 0
M  V30 2286 H 226.343 0.896488 3.77604 0
M  V30 2287 H 224.444 -1.53936 3.39315 0
M  V30 2288 H 224.557 -0.267681 4.78352 0
M  V30 2289 H 222.921 -0.238814 2.53578 0
M  V30 2290 H 223.704 1.3055 3.17508 0
M  V30 2291 N 226.149 -1.5696 0.141893 0
M  V30 2292 C 227.096 -2.16501 -0.799737 0
M  V30 2293 C 228.066 -1.09643 -1.24771 0
M  V30 2294 O 229.251 -1.3766 -1.32115 0
M  V30 2295 C 226.391 -2.78679 -2.03549 0
M  V30 2296 C 225.504 -3.99914 -1.6338 0
M  V30 2297 C 224.639 -4.50106 -2.82096 0
M  V30 2298 C 223.678 -5.63819 -2.38275 0
M  V30 2299 N 222.815 -6.08651 -3.49983 0
M  V30 2300 H 227.655 -2.96632 -0.285179 0
M  V30 2301 H 225.192 -1.46533 -0.129053 0
M  V30 2302 H 227.15 -3.1287 -2.75986 0
M  V30 2303 H 225.78 -2.012 -2.52425 0
M  V30 2304 H 224.832 -3.71735 -0.807279 0
M  V30 2305 H 226.144 -4.82311 -1.27192 0
M  V30 2306 H 225.298 -4.86325 -3.62729 0
M  V30 2307 H 224.037 -3.66706 -3.21525 0
M  V30 2308 H 223.042 -5.2718 -1.56081 0
M  V30 2309 H 224.267 -6.49 -1.99938 0
M  V30 2310 H 222.213 -5.28188 -3.89042 0
M  V30 2311 H 222.13 -6.85961 -3.17794 0
M  V30 2312 H 223.398 -6.49515 -4.30988 0
M  V30 2313 N 227.627 0.131896 -1.57047 0
M  V30 2314 C 228.876 0.84044 -1.83356 0
M  V30 2315 C 229.189 1.81646 -0.725535 0
M  V30 2316 O 230.395 2.57025 -0.874659 0
M  V30 2317 C 228.851 1.54528 -3.25037 0
M  V30 2318 C 228.459 0.610902 -4.43815 0
M  V30 2319 C 230.203 2.23972 -3.60606 0
M  V30 2320 C 228.11 1.31823 -5.76521 0
M  V30 2321 H 227.04 0.317599 -0.683847 0
M  V30 2322 H 229.691 0.0931561 -1.83263 0
M  V30 2323 H 228.073 2.33873 -3.19561 0
M  V30 2324 H 229.247 -0.148407 -4.60561 0
M  V30 2325 H 227.562 0.0241016 -4.16393 0
M  V30 2326 H 230.159 2.77558 -4.57018 0
M  V30 2327 H 230.502 3.01173 -2.87403 0
M  V30 2328 H 231.035 1.51529 -3.6781 0
M  V30 2329 H 227.774 0.587771 -6.52859 0
M  V30 2330 H 227.294 2.04987 -5.63685 0
M  V30 2331 H 228.973 1.855 -6.19838 0
M  V30 2332 N 229.106 1.52395 0.401703 0
M  V30 2333 C 230.352 1.67065 1.14966 0
M  V30 2334 C 230.685 0.403052 1.89971 0
M  V30 2335 O 229.96 -0.598774 1.85054 0
M  V30 2336 C 230.243 2.8975 2.13815 0
M  V30 2337 C 230.096 4.26578 1.42658 0
M  V30 2338 C 231.415 3.07965 3.14397 0
M  V30 2339 H 228.534 0.607968 0.416587 0
M  V30 2340 H 231.176 1.84965 0.434511 0
M  V30 2341 H 229.326 2.74619 2.74803 0
M  V30 2342 H 230.998 4.53451 0.847329 0
M  V30 2343 H 229.241 4.27639 0.72849 0
M  V30 2344 H 229.912 5.08483 2.14823 0
M  V30 2345 H 232.388 3.22043 2.63491 0
M  V30 2346 H 231.264 3.95308 3.80819 0
M  V30 2347 H 231.525 2.21611 3.82545 0
M  V30 2348 N 230.584 -0.659388 1.43143 0
M  V30 2349 C 231.832 -1.41654 1.44147 0
M  V30 2350 C 232.153 -1.94893 0.0645739 0
M  V30 2351 O 231.423 -1.74044 -0.899198 0
M  V30 2352 H 230.003 -0.525708 0.530697 0
M  V30 2353 H 232.665 -0.778097 1.78694 0
M  V30 2354 H 231.761 -2.26195 2.1504 0
M  V30 2355 N 232.062 -1.29571 -0.897171 0
M  V30 2356 C 233.31 -1.17456 -1.64464 0
M  V30 2357 C 233.631 0.273698 -1.9307 0
M  V30 2358 O 232.901 1.18684 -1.55855 0
M  V30 2359 H 231.481 -0.431706 -0.609622 0
M  V30 2360 H 234.143 -1.62531 -1.07562 0
M  V30 2361 H 233.239 -1.72648 -2.59998 0
M  V30 2362 N 233.54 1.10788 -1.12088 0
M  V30 2363 C 234.789 1.82036 -0.868659 0
M  V30 2364 C 235.102 1.85929 0.607426 0
M  V30 2365 O 236.308 2.53346 0.97613 0
M  V30 2366 C 234.764 3.26951 -1.50435 0
M  V30 2367 C 234.372 3.31367 -3.01496 0
M  V30 2368 C 236.116 4.03053 -1.33225 0
M  V30 2369 C 234.023 4.7072 -3.58017 0
M  V30 2370 H 232.953 0.682108 -0.321318 0
M  V30 2371 H 235.604 1.24618 -1.34694 0
M  V30 2372 H 233.986 3.84343 -0.953735 0
M  V30 2373 H 235.16 2.83819 -3.6302 0
M  V30 2374 H 233.475 2.6875 -3.18061 0
M  V30 2375 H 236.072 5.05981 -1.72878 0
M  V30 2376 H 236.415 4.15387 -0.275529 0
M  V30 2377 H 236.948 3.52066 -1.85188 0
M  V30 2378 H 233.687 4.63585 -4.63432 0
M  V30 2379 H 233.207 5.1865 -3.01268 0
M  V30 2380 H 234.886 5.39685 -3.56859 0
M  V30 2381 N 235.018 0.912232 1.28515 0
M  V30 2382 C 236.266 0.543523 1.94654 0
M  V30 2383 C 236.587 -0.9155 1.72173 0
M  V30 2384 O 235.857 -1.64708 1.06058 0
M  V30 2385 H 234.437 0.198017 0.720277 0
M  V30 2386 H 237.099 1.16126 1.56527 0
M  V30 2387 H 236.195 0.736684 3.03281 0
M  V30 2388 N 236.496 -1.42363 0.676048 0
M  V30 2389 C 237.744 -2.01123 0.198437 0
M  V30 2390 C 238.065 -1.53731 -1.19966 0
M  V30 2391 O 237.335 -0.759518 -1.80577 0
M  V30 2392 H 235.915 -0.743678 0.0703721 0
M  V30 2393 H 238.577 -1.74263 0.872837 0
M  V30 2394 H 237.673 -3.11454 0.200686 0
M  V30 2395 N 237.974 -0.419461 -1.51915 0
M  V30 2396 C 239.221 0.152939 -2.01922 0
M  V30 2397 C 239.549 1.4426 -1.30458 0
M  V30 2398 O 238.804 1.91514 -0.402593 0
M  V30 2399 C 239.103 0.437067 -3.54717 0
M  V30 2400 C 238.769 -0.764632 -4.44369 0
M  V30 2401 C 237.431 -1.09423 -4.68594 0
M  V30 2402 C 239.783 -1.56713 -4.97082 0
M  V30 2403 C 237.111 -2.22732 -5.42777 0
M  V30 2404 C 239.463 -2.69107 -5.72507 0
M  V30 2405 C 238.127 -3.02541 -5.95 0
M  V30 2406 H 237.397 0.0559644 -0.738884 0
M  V30 2407 H 240.044 -0.562998 -1.83037 0
M  V30 2408 H 238.349 1.23469 -3.71837 0
M  V30 2409 H 240.046 0.893083 -3.90928 0
M  V30 2410 H 236.636 -0.497775 -4.257 0
M  V30 2411 H 240.82 -1.32571 -4.78266 0
M  V30 2412 H 236.076 -2.48971 -5.58411 0
M  V30 2413 H 240.25 -3.31671 -6.12346 0
M  V30 2414 H 237.877 -3.90457 -6.52264 0
M  V30 2415 N 239.452 1.56882 -0.150215 0
M  V30 2416 C 240.701 1.95403 0.500071 0
M  V30 2417 C 241.014 1.03777 1.658 0
M  V30 2418 O 242.22 1.31889 2.37313 0
M  V30 2419 C 240.676 3.4738 0.941018 0
M  V30 2420 C 240.284 4.47596 -0.190158 0
M  V30 2421 C 242.028 3.9476 1.56091 0
M  V30 2422 C 239.935 5.90787 0.269237 0
M  V30 2423 H 238.865 0.729515 0.190588 0
M  V30 2424 H 241.516 1.81988 -0.235074 0
M  V30 2425 H 239.898 3.56138 1.73152 0
M  V30 2426 H 241.072 4.50536 -0.967157 0
M  V30 2427 H 239.387 4.10151 -0.718666 0
M  V30 2428 H 241.984 4.99181 1.9163 0
M  V30 2429 H 242.327 3.36494 2.45107 0
M  V30 2430 H 242.86 3.88932 0.835249 0
M  V30 2431 H 239.599 6.52879 -0.585621 0
M  V30 2432 H 239.119 5.912 1.01204 0
M  V30 2433 H 240.798 6.42979 0.720176 0
M  V30 2434 N 240.93 -0.123565 1.57115 0
M  V30 2435 C 241.878 -1.17082 2.00984 0
M  V30 2436 C 242.872 -1.43136 0.906009 0
M  V30 2437 O 244.078 -1.43152 1.09121 0
M  V30 2438 H 240.453 -0.394653 0.64012 0
M  V30 2439 H 242.424 -0.774292 2.88179 0
M  V30 2440 C 241.173 -2.49057 2.42623 0
M  V30 2441 H 240.496 -2.29846 3.27125 0
M  V30 2442 H 241.936 -3.20906 2.7712 0
M  V30 2443 C 240.395 -3.11305 1.28805 0
M  V30 2444 O 240.925 -3.97171 0.60153 0
M  V30 2445 N 239.131 -2.71111 1.04628 0
M  V30 2446 H 238.678 -2.01382 1.60634 0
M  V30 2447 H 238.636 -3.1309 0.286685 0
M  V30 2448 N 242.408 -1.52605 -0.393616 0
M  V30 2449 C 243.636 -1.71294 -1.16043 0
M  V30 2450 C 244.051 -0.429259 -1.83855 0
M  V30 2451 O 243.408 0.595921 -1.72496 0
M  V30 2452 C 243.459 -2.8593 -2.21193 0
M  V30 2453 O 243.18 -4.09329 -1.56146 0
M  V30 2454 C 244.681 -3.16259 -3.10636 0
M  V30 2455 H 241.901 -0.573641 -0.348104 0
M  V30 2456 H 244.445 -1.99234 -0.461092 0
M  V30 2457 H 242.6 -2.60465 -2.86769 0
M  V30 2458 H 243.014 -4.73323 -2.25978 0
M  V30 2459 H 244.488 -3.99946 -3.80456 0
M  V30 2460 H 244.965 -2.3045 -3.73884 0
M  V30 2461 H 245.571 -3.43547 -2.50711 0
M  V30 2462 N 243.887 0.651787 -1.4349 0
M  V30 2463 C 244.834 1.76462 -1.4876 0
M  V30 2464 C 245.804 1.62641 -0.337189 0
M  V30 2465 O 246.989 1.82864 -0.544544 0
M  V30 2466 C 244.129 3.14623 -1.41796 0
M  V30 2467 C 243.242 3.39568 -2.67053 0
M  V30 2468 C 242.377 4.67585 -2.52068 0
M  V30 2469 C 241.416 4.85639 -3.72587 0
M  V30 2470 N 240.553 6.04915 -3.56402 0
M  V30 2471 H 245.393 1.71293 -2.43849 0
M  V30 2472 H 242.93 0.835889 -1.21043 0
M  V30 2473 H 244.888 3.94496 -1.35753 0
M  V30 2474 H 243.518 3.18859 -0.50288 0
M  V30 2475 H 242.57 2.53783 -2.8337 0
M  V30 2476 H 243.882 3.48795 -3.56572 0
M  V30 2477 H 243.036 5.55586 -2.4374 0
M  V30 2478 H 241.775 4.60681 -1.60075 0
M  V30 2479 H 240.78 3.96073 -3.81321 0
M  V30 2480 H 242.005 4.94372 -4.65589 0
M  V30 2481 H 239.951 5.9914 -2.67146 0
M  V30 2482 H 239.868 6.15106 -4.39524 0
M  V30 2483 H 241.136 6.95533 -3.51929 0
M  V30 2484 N 245.365 1.30045 0.890287 0
M  V30 2485 C 246.275 1.17885 2.02831 0
M  V30 2486 C 247.291 0.0999609 1.73713 0
M  V30 2487 O 248.467 0.313867 1.98939 0
M  V30 2488 C 245.532 0.866079 3.35708 0
M  V30 2489 C 244.593 2.02979 3.78283 0
M  V30 2490 C 243.826 1.73184 5.0482 0
M  V30 2491 O 244.049 0.657237 5.66601 0
M  V30 2492 O 242.983 2.58267 5.43674 0
M  V30 2493 H 246.809 2.13474 2.16015 0
M  V30 2494 H 244.394 1.09587 1.01543 0
M  V30 2495 H 246.276 0.706623 4.15433 0
M  V30 2496 H 244.951 -0.0599443 3.23644 0
M  V30 2497 H 243.858 2.24454 2.99285 0
M  V30 2498 H 245.191 2.93734 3.94944 0
M  V30 2499 N 246.843 -1.10192 1.12674 0
M  V30 2500 C 248.073 -1.85713 0.905213 0
M  V30 2501 C 248.481 -1.81056 -0.549108 0
M  V30 2502 O 247.824 -1.19927 -1.39151 0
M  V30 2503 C 247.886 -3.34972 1.30516 0
M  V30 2504 C 247.55 -3.63385 2.77129 0
M  V30 2505 C 248.547 -3.59772 3.75313 0
M  V30 2506 C 246.232 -3.91981 3.14096 0
M  V30 2507 C 248.226 -3.84354 5.08479 0
M  V30 2508 C 245.913 -4.16218 4.47443 0
M  V30 2509 C 246.911 -4.12395 5.44444 0
M  V30 2510 O 246.599 -4.36014 6.75387 0
M  V30 2511 H 246.331 -0.593719 0.323223 0
M  V30 2512 H 248.885 -1.40198 1.50112 0
M  V30 2513 H 247.115 -3.81156 0.652463 0
M  V30 2514 H 248.804 -3.91886 1.05736 0
M  V30 2515 H 249.57 -3.37716 3.48099 0
M  V30 2516 H 245.449 -3.94085 2.39202 0
M  V30 2517 H 248.993 -3.81285 5.84181 0
M  V30 2518 H 244.89 -4.37754 4.74386 0
M  V30 2519 H 245.658 -4.53516 6.8137 0
M  V30 2520 N 248.321 -0.919034 -1.28029 0
M  V30 2521 C 249.268 -0.410005 -2.27129 0
M  V30 2522 C 250.238 0.518405 -1.57803 0
M  V30 2523 O 251.423 0.439451 -1.8567 0
M  V30 2524 C 248.563 0.339054 -3.4343 0
M  V30 2525 C 247.676 -0.622468 -4.27492 0
M  V30 2526 C 246.811 0.145567 -5.31001 0
M  V30 2527 C 245.85 -0.809226 -6.06727 0
M  V30 2528 N 244.987 -0.0743728 -7.02061 0
M  V30 2529 H 249.827 -1.26011 -2.70047 0
M  V30 2530 H 247.364 -0.632663 -1.328 0
M  V30 2531 H 249.322 0.789586 -4.0966 0
M  V30 2532 H 247.952 1.15346 -3.01488 0
M  V30 2533 H 247.004 -1.19153 -3.61257 0
M  V30 2534 H 248.316 -1.35252 -4.80113 0
M  V30 2535 H 247.47 0.656417 -6.03139 0
M  V30 2536 H 246.209 0.908643 -4.79161 0
M  V30 2537 H 245.214 -1.3314 -5.33436 0
M  V30 2538 H 246.439 -1.57194 -6.60656 0
M  V30 2539 H 244.385 0.670616 -6.52563 0
M  V30 2540 H 244.302 -0.744157 -7.52329 0
M  V30 2541 H 245.57 0.416109 -7.78389 0
M  V30 2542 N 249.799 1.42003 -0.683588 0
M  V30 2543 C 250.747 2.326 0.000815408 0
M  V30 2544 C 251.741 1.50308 0.781278 0
M  V30 2545 O 252.947 1.66322 0.688251 0
M  V30 2546 H 249.322 0.751758 0.0190616 0
M  V30 2547 H 251.293 2.88011 -0.780528 0
M  V30 2548 C 250.042 3.34978 0.93195 0
M  V30 2549 H 249.365 3.98345 0.340817 0
M  V30 2550 H 250.805 4.00936 1.37936 0
M  V30 2551 C 249.264 2.67925 2.04249 0
M  V30 2552 O 249.794 2.51788 3.12995 0
M  V30 2553 N 248 2.2681 1.81675 0
M  V30 2554 H 247.547 2.40135 0.932363 0
M  V30 2555 H 247.505 1.8228 2.56167 0
M  V30 2556 N 251.277 0.427512 1.51691 0
M  V30 2557 C 252.523 -0.142439 2.02299 0
M  V30 2558 C 252.856 -1.43214 1.31162 0
M  V30 2559 O 252.131 -1.89833 0.423511 0
M  V30 2560 C 252.414 -0.371301 3.58181 0
M  V30 2561 C 252.267 0.936358 4.39946 0
M  V30 2562 C 253.586 -1.14542 4.24933 0
M  V30 2563 H 250.705 -0.0502937 0.735282 0
M  V30 2564 H 253.347 0.564584 1.81418 0
M  V30 2565 H 251.497 -0.973559 3.76104 0
M  V30 2566 H 253.169 1.57184 4.33694 0
M  V30 2567 H 251.412 1.5432 4.05423 0
M  V30 2568 H 252.083 0.730388 5.47147 0
M  V30 2569 H 254.559 -0.635362 4.11221 0
M  V30 2570 H 253.435 -1.27431 5.33903 0
M  V30 2571 H 253.696 -2.17093 3.85127 0
M  V30 2572 N 252.755 -1.56801 0.158532 0
M  V30 2573 C 253.665 -2.20916 -0.789518 0
M  V30 2574 C 254.681 -1.1969 -1.26294 0
M  V30 2575 O 255.857 -1.52308 -1.31773 0
M  V30 2576 C 252.922 -2.82727 -2.00665 0
M  V30 2577 C 251.983 -3.99114 -1.58134 0
M  V30 2578 C 251.216 -4.57968 -2.74045 0
M  V30 2579 O 251.439 -4.15704 -3.90572 0
M  V30 2580 O 250.373 -5.48047 -2.48855 0
M  V30 2581 H 254.199 -3.02464 -0.273681 0
M  V30 2582 H 251.784 -1.4924 -0.0690548 0
M  V30 2583 H 253.666 -3.21968 -2.71872 0
M  V30 2584 H 252.341 -2.04184 -2.51179 0
M  V30 2585 H 251.248 -3.64567 -0.839155 0
M  V30 2586 H 252.581 -4.79212 -1.12325 0
M  V30 2587 N 254.233 0.115231 -1.57178 0
M  V30 2588 C 255.482 0.820945 -1.84237 0
M  V30 2589 C 255.795 1.80866 -0.744761 0
M  V30 2590 O 257.001 2.56083 -0.901871 0
M  V30 2591 C 255.457 1.51072 -3.26658 0
M  V30 2592 C 255.065 0.563795 -4.44438 0
M  V30 2593 C 256.809 2.20134 -3.62962 0
M  V30 2594 C 254.716 1.25701 -5.77887 0
M  V30 2595 H 253.646 0.310328 -0.687177 0
M  V30 2596 H 256.297 0.0737134 -1.83352 0
M  V30 2597 H 254.679 2.30471 -3.22024 0
M  V30 2598 H 255.853 -0.197247 -4.60378 0
M  V30 2599 H 254.168 -0.0200638 -4.16395 0
M  V30 2600 H 256.765 2.72696 -4.59936 0
M  V30 2601 H 257.108 2.98107 -2.90582 0
M  V30 2602 H 257.641 1.47619 -3.69396 0
M  V30 2603 H 254.38 0.518493 -6.53446 0
M  V30 2604 H 253.9 1.98997 -5.65827 0
M  V30 2605 H 255.579 1.78915 -6.2177 0
M  V30 2606 N 255.711 1.52812 0.385517 0
M  V30 2607 C 256.621 1.80766 1.49535 0
M  V30 2608 C 257.637 0.694651 1.59532 0
M  V30 2609 O 258.813 0.982611 1.75803 0
M  V30 2610 C 255.878 1.97381 2.85029 0
M  V30 2611 C 254.939 3.21295 2.84724 0
M  V30 2612 C 254.172 3.37108 4.13756 0
M  V30 2613 O 254.395 2.5765 5.08893 0
M  V30 2614 O 253.329 4.30378 4.20783 0
M  V30 2615 H 257.155 2.75015 1.28842 0
M  V30 2616 H 254.74 1.37946 0.573697 0
M  V30 2617 H 256.622 2.09996 3.65349 0
M  V30 2618 H 255.297 1.06322 3.05741 0
M  V30 2619 H 254.204 3.1412 2.03174 0
M  V30 2620 H 255.537 4.12212 2.68965 0
M  V30 2621 N 257.189 -0.644168 1.43834 0
M  V30 2622 C 258.435 -1.40603 1.46146 0
M  V30 2623 C 258.768 -1.93997 0.0887717 0
M  V30 2624 O 258.043 -1.72854 -0.891724 0
M  V30 2625 C 258.326 -2.58086 2.51124 0
M  V30 2626 C 258.179 -2.10126 3.97702 0
M  V30 2627 C 259.498 -3.60291 2.52742 0
M  V30 2628 H 256.617 -0.509905 0.532134 0
M  V30 2629 H 259.259 -0.729502 1.75437 0
M  V30 2630 H 257.409 -3.15801 2.26278 0
M  V30 2631 H 259.081 -1.57342 4.33637 0
M  V30 2632 H 257.324 -1.41419 4.10101 0
M  V30 2633 H 257.995 -2.94649 4.66783 0
M  V30 2634 H 260.471 -3.12352 2.7491 0
M  V30 2635 H 259.347 -4.40032 3.28121 0
M  V30 2636 H 259.608 -4.1349 1.56455 0
M  V30 2637 N 258.668 -1.30515 -0.883378 0
M  V30 2638 C 259.598 -1.19607 -2.00541 0
M  V30 2639 C 260.579 -0.086346 -1.69881 0
M  V30 2640 O 261.764 -0.268654 -1.92333 0
M  V30 2641 C 258.894 -0.888758 -3.35736 0
M  V30 2642 C 257.848 -1.95659 -3.8066 0
M  V30 2643 C 257.174 -1.50224 -5.13164 0
M  V30 2644 C 258.474 -3.36788 -3.99213 0
M  V30 2645 H 260.168 -2.13476 -2.09925 0
M  V30 2646 H 257.714 -1.02775 -1.00863 0
M  V30 2647 H 259.667 -0.799094 -4.13754 0
M  V30 2648 H 258.391 0.0856125 -3.26488 0
M  V30 2649 H 257.05 -2.03591 -3.04871 0
M  V30 2650 H 256.698 -0.516092 -5.00345 0
M  V30 2651 H 256.398 -2.2165 -5.44192 0
M  V30 2652 H 257.922 -1.42639 -5.93706 0
M  V30 2653 H 259.336 -3.31605 -4.67665 0
M  V30 2654 H 257.733 -4.06314 -4.41621 0
M  V30 2655 H 258.803 -3.78561 -3.03017 0
M  V30 2656 N 260.146 1.09593 -1.13257 0
M  V30 2657 C 261.394 1.81375 -0.891492 0
M  V30 2658 C 261.715 1.86049 0.584009 0
M  V30 2659 O 260.985 1.34481 1.42449 0
M  V30 2660 H 259.565 0.671708 -0.326828 0
M  V30 2661 H 262.227 1.3256 -1.42877 0
M  V30 2662 H 261.323 2.84612 -1.28071 0
M  V30 2663 N 261.624 0.925811 1.2754 0
M  V30 2664 C 262.571 0.422045 2.26908 0
M  V30 2665 C 263.541 -0.510029 1.58076 0
M  V30 2666 O 264.726 -0.429599 1.85901 0
M  V30 2667 C 261.866 -0.320837 3.43605 0
M  V30 2668 C 260.979 0.64513 4.27156 0
M  V30 2669 C 260.114 -0.117405 5.3107 0
M  V30 2670 C 259.153 0.841391 6.0629 0
M  V30 2671 N 258.29 0.111604 7.02011 0
M  V30 2672 H 263.13 1.27441 2.69375 0
M  V30 2673 H 260.667 0.639697 1.32462 0
M  V30 2674 H 262.625 -0.76785 4.10073 0
M  V30 2675 H 261.255 -1.13745 3.02096 0
M  V30 2676 H 260.307 1.21067 3.6062 0
M  V30 2677 H 261.619 1.37797 4.79389 0
M  V30 2678 H 260.773 -0.624422 6.03478 0
M  V30 2679 H 259.512 -0.883219 4.79636 0
M  V30 2680 H 258.517 1.35967 5.32722 0
M  V30 2681 H 259.742 1.60696 6.59813 0
M  V30 2682 H 257.688 -0.635999 6.5291 0
M  V30 2683 H 257.605 0.784044 7.51923 0
M  V30 2684 H 258.873 -0.374823 7.78598 0
M  V30 2685 N 263.102 -1.41638 0.69111 0
M  V30 2686 C 264.518 -1.55435 0.362224 0
M  V30 2687 C 264.718 -1.66754 -1.13117 0
M  V30 2688 O 263.774 -1.64348 -1.91692 0
M  V30 2689 C 265.087 -2.79588 1.10684 0
M  V30 2690 C 266.635 -2.9338 1.09075 0
M  V30 2691 C 267.11 -4.20414 1.81703 0
M  V30 2692 N 268.601 -4.27362 1.7865 0
M  V30 2693 C 269.336 -5.24507 2.31689 0
M  V30 2694 N 268.832 -6.27708 2.93179 0
M  V30 2695 N 270.625 -5.16416 2.2197 0
M  V30 2696 H 262.776 -1.32536 1.65976 0
M  V30 2697 H 265.039 -0.639115 0.700168 0
M  V30 2698 H 264.745 -2.77419 2.16175 0
M  V30 2699 H 264.619 -3.70973 0.682545 0
M  V30 2700 H 267.006 -2.95067 0.0441238 0
M  V30 2701 H 267.087 -2.0318 1.55407 0
M  V30 2702 H 266.731 -4.19488 2.86343 0
M  V30 2703 H 266.661 -5.09578 1.32808 0
M  V30 2704 H 269.152 -3.53415 1.33815 0
M  V30 2705 H 269.465 -6.98217 3.31229 0
M  V30 2706 H 267.81 -6.28223 2.97255 0
M  V30 2707 H 271.001 -4.34716 1.73607 0
M  V30 2708 H 271.174 -5.91958 2.63609 0
M  V30 2709 N 264.58 -0.43555 -1.51462 0
M  V30 2710 C 265.829 0.133007 -2.01261 0
M  V30 2711 C 266.142 1.43942 -1.32439 0
M  V30 2712 O 267.348 2.09081 -1.73198 0
M  V30 2713 C 265.804 0.287581 -3.58749 0
M  V30 2714 C 265.412 -1.00829 -4.36506 0
M  V30 2715 C 267.156 0.810004 -4.167 0
M  V30 2716 C 265.063 -0.819454 -5.85695 0
M  V30 2717 H 263.993 0.0534822 -0.752101 0
M  V30 2718 H 266.644 -0.565038 -1.74584 0
M  V30 2719 H 265.026 1.04859 -3.81865 0
M  V30 2720 H 266.2 -1.77749 -4.25138 0
M  V30 2721 H 264.515 -1.45911 -3.89999 0
M  V30 2722 H 267.112 0.967743 -5.2587 0
M  V30 2723 H 267.455 1.79196 -3.75758 0
M  V30 2724 H 267.988 0.107357 -3.97655 0
M  V30 2725 H 264.727 -1.77374 -6.31046 0
M  V30 2726 H 264.247 -0.0900208 -5.99732 0
M  V30 2727 H 265.926 -0.471949 -6.45276 0
M  V30 2728 N 266.058 1.56714 -0.166846 0
M  V30 2729 C 267.005 2.17746 0.765193 0
M  V30 2730 C 267.975 1.11614 1.23011 0
M  V30 2731 O 269.16 1.39745 1.29908 0
M  V30 2732 C 266.3 2.81882 1.9909 0
M  V30 2733 C 265.413 4.02462 1.56997 0
M  V30 2734 C 264.548 4.54537 2.749 0
M  V30 2735 C 263.587 5.67538 2.29275 0
M  V30 2736 N 262.724 6.14142 3.40255 0
M  V30 2737 H 267.564 2.97048 0.237952 0
M  V30 2738 H 265.101 1.4672 0.105725 0
M  V30 2739 H 267.059 3.17221 2.70974 0
M  V30 2740 H 265.689 2.05191 2.49192 0
M  V30 2741 H 264.741 3.72973 0.748037 0
M  V30 2742 H 266.053 4.84273 1.19503 0
M  V30 2743 H 265.207 4.92035 3.54946 0
M  V30 2744 H 263.946 3.71774 3.1565 0
M  V30 2745 H 262.951 5.29597 1.47674 0
M  V30 2746 H 264.176 6.52099 1.89588 0
M  V30 2747 H 262.122 5.3431 3.8059 0
M  V30 2748 H 262.039 6.9093 3.06841 0
M  V30 2749 H 263.307 6.56289 4.206 0
M  V30 2750 N 267.536 -0.106894 1.57237 0
M  V30 2751 C 268.784 -0.810921 1.85117 0
M  V30 2752 C 269.105 -1.7984 0.753827 0
M  V30 2753 O 268.375 -1.94649 -0.221056 0
M  V30 2754 H 266.955 -0.302466 0.683025 0
M  V30 2755 H 269.617 -0.0913324 1.94686 0
M  V30 2756 H 268.713 -1.34875 2.81452 0
M  V30 2757 N 269.014 -1.53014 -0.377408 0
M  V30 2758 C 270.242 -1.72515 -1.14219 0
M  V30 2759 C 270.657 -0.448735 -1.8339 0
M  V30 2760 O 270.014 0.577592 -1.73119 0
M  V30 2761 C 270.065 -2.8826 -2.18148 0
M  V30 2762 O 269.786 -4.10962 -1.51795 0
M  V30 2763 C 271.287 -3.19536 -3.07264 0
M  V30 2764 H 268.507 -0.577301 -0.342001 0
M  V30 2765 H 271.051 -1.99712 -0.439935 0
M  V30 2766 H 269.206 -2.63492 -2.83991 0
M  V30 2767 H 269.62 -4.75693 -2.20945 0
M  V30 2768 H 271.094 -4.03959 -3.76193 0
M  V30 2769 H 271.571 -2.34403 -3.71419 0
M  V30 2770 H 272.177 -3.46186 -2.47053 0
M  V30 2771 N 270.492 0.636531 -1.44174 0
M  V30 2772 C 271.741 1.39213 -1.45954 0
M  V30 2773 C 272.054 1.95374 -0.0939119 0
M  V30 2774 O 273.26 2.71498 0.0107767 0
M  V30 2775 C 271.716 2.52025 -2.56927 0
M  V30 2776 C 271.324 2.024 -3.99673 0
M  V30 2777 C 273.068 3.29269 -2.67922 0
M  V30 2778 C 270.975 3.12521 -5.0208 0
M  V30 2779 H 269.905 0.523132 -0.542999 0
M  V30 2780 H 272.556 0.685349 -1.70221 0
M  V30 2781 H 270.938 3.25253 -2.25891 0
M  V30 2782 H 272.112 1.36073 -4.40251 0
M  V30 2783 H 270.427 1.37987 -3.92872 0
M  V30 2784 H 273.024 4.11352 -3.41605 0
M  V30 2785 H 273.367 3.78397 -1.73555 0
M  V30 2786 H 273.9 2.63129 -2.98342 0
M  V30 2787 H 270.639 2.68343 -5.98057 0
M  V30 2788 H 270.159 3.77507 -4.66099 0
M  V30 2789 H 271.838 3.77385 -5.25538 0
M  V30 2790 N 271.97 1.30982 0.876444 0
M  V30 2791 C 272.903 1.12414 1.98591 0
M  V30 2792 C 273.881 0.0294078 1.62573 0
M  V30 2793 O 275.065 0.184598 1.87594 0
M  V30 2794 C 272.192 0.716276 3.3104 0
M  V30 2795 C 271.238 1.81311 3.86042 0
M  V30 2796 S 272.071 3.41727 4.1229 0
M  V30 2797 C 273.227 3.02863 5.47745 0
M  V30 2798 H 273.46 2.06338 2.14037 0
M  V30 2799 H 270.993 1.15393 1.02586 0
M  V30 2800 H 272.951 0.487697 4.07593 0
M  V30 2801 H 271.612 -0.203749 3.13438 0
M  V30 2802 H 270.805 1.48021 4.81774 0
M  V30 2803 H 270.407 1.99641 3.16259 0
M  V30 2804 H 272.699 2.51353 6.29148 0
M  V30 2805 H 273.642 3.97533 5.8598 0
M  V30 2806 H 274.05 2.40487 5.10711 0
M  V30 2807 N 273.449 -1.08991 1.13837 0
M  V30 2808 C 274.677 -1.85011 0.926202 0
M  V30 2809 C 275.092 -1.8135 -0.525127 0
M  V30 2810 O 274.449 -1.21287 -1.36366 0
M  V30 2811 C 274.5 -3.32802 1.41155 0
M  V30 2812 O 274.221 -3.36444 2.80601 0
M  V30 2813 C 275.722 -4.25649 1.23847 0
M  V30 2814 H 272.942 -0.584249 0.32999 0
M  V30 2815 H 275.486 -1.37688 1.51202 0
M  V30 2816 H 273.641 -3.77536 0.868631 0
M  V30 2817 H 274.055 -4.28657 3.02248 0
M  V30 2818 H 275.529 -5.27485 1.62675 0
M  V30 2819 H 276.006 -4.38828 0.18065 0
M  V30 2820 H 276.612 -3.86735 1.76964 0
M  V30 2821 N 274.927 -0.932562 -1.27047 0
M  V30 2822 C 276.175 -0.574422 -1.93765 0
M  V30 2823 C 276.496 0.887993 -1.73608 0
M  V30 2824 O 275.766 1.62999 -1.08665 0
M  V30 2825 H 274.346 -0.209451 -0.717035 0
M  V30 2826 H 277.008 -1.18601 -1.5466 0
M  V30 2827 H 276.104 -0.784841 -3.02071 0
M  V30 2828 N 276.405 1.4127 -0.698611 0
M  V30 2829 C 277.682 1.94955 -0.158762 0
M  V30 2830 C 278.062 1.63781 1.33188 0
M  V30 2831 O 277.41 0.946423 2.07979 0
M  V30 2832 C 277.62 3.46044 -0.453309 0
M  V30 2833 C 278.968 4.22872 -0.382707 0
M  V30 2834 O 279.992 3.54076 -0.388396 0
M  V30 2835 O 278.851 5.45407 -0.345463 0
M  V30 2836 H 275.945 0.82683 -0.0167505 0
M  V30 2837 H 278.491 1.50971 -0.77498 0
M  V30 2838 H 277.263 3.62028 -1.48498 0
M  V30 2839 H 276.886 3.97128 0.19373 0
M  V30 2840 N 277.883 0.443576 1.51229 0
M  V30 2841 C 279.111 -0.11929 2.06556 0
M  V30 2842 C 279.526 -1.35921 1.31038 0
M  V30 2843 O 278.883 -1.78675 0.371704 0
M  V30 2844 C 278.934 -0.435228 3.5887 0
M  V30 2845 O 278.655 0.755486 4.31537 0
M  V30 2846 C 280.156 -1.04808 4.30732 0
M  V30 2847 H 277.376 -0.0051584 0.67098 0
M  V30 2848 H 279.92 0.624453 1.94733 0
M  V30 2849 H 278.075 -1.12887 3.70588 0
M  V30 2850 H 278.489 0.483491 5.22267 0
M  V30 2851 H 279.963 -1.2191 5.3837 0
M  V30 2852 H 280.44 -2.03081 3.89429 0
M  V30 2853 H 281.046 -0.393637 4.23474 0
M  V30 2854 N 279.361 -1.56624 0.175154 0
M  V30 2855 C 280.772 -1.83561 -0.340916 0
M  V30 2856 C 281.123 -1.09511 -1.62794 0
M  V30 2857 O 280.248 -0.349389 -2.13561 0
M  V30 2858 C 280.843 -3.32979 -0.625313 0
M  V30 2859 C 279.402 -3.60399 -1.08581 0
M  V30 2860 C 278.549 -2.77024 -0.123722 0
M  V30 2861 H 281.5 -1.53593 0.399344 0
M  V30 2862 H 281.521 -3.50666 -1.47694 0
M  V30 2863 H 281.033 -3.86847 0.311575 0
M  V30 2864 H 279.134 -3.11945 -2.03767 0
M  V30 2865 H 279.247 -4.68711 -0.992317 0
M  V30 2866 H 277.611 -2.46993 -0.621821 0
M  V30 2867 H 278.394 -3.33674 0.807256 0
M  V30 2868 N 280.839 0.0985539 -1.57292 0
M  V30 2869 C 282.088 0.801358 -1.85098 0
M  V30 2870 C 282.401 1.80066 -0.763902 0
M  V30 2871 O 283.607 2.55112 -0.928981 0
M  V30 2872 C 282.063 1.47599 -3.28242 0
M  V30 2873 C 281.671 0.516624 -4.45011 0
M  V30 2874 C 283.415 2.16272 -3.65276 0
M  V30 2875 C 281.322 1.19564 -5.79188 0
M  V30 2876 H 280.252 0.303022 -0.69043 0
M  V30 2877 H 282.903 0.0542623 -1.8342 0
M  V30 2878 H 281.285 2.27042 -3.2445 0
M  V30 2879 H 282.459 -0.246065 -4.60143 0
M  V30 2880 H 280.774 -0.064227 -4.1635 0
M  V30 2881 H 283.371 2.67802 -4.62803 0
M  V30 2882 H 283.714 2.95009 -2.93727 0
M  V30 2883 H 284.247 1.43693 -3.70941 0
M  V30 2884 H 280.986 0.449157 -6.53959 0
M  V30 2885 H 280.506 1.92984 -5.67906 0
M  V30 2886 H 282.185 1.7231 -6.23633 0
M  V30 2887 N 282.317 1.53212 0.369288 0
M  V30 2888 C 283.265 1.80054 1.47253 0
M  V30 2889 C 284.259 0.669456 1.55611 0
M  V30 2890 O 285.465 0.852328 1.58541 0
M  V30 2891 H 281.84 0.570034 0.490475 0
M  V30 2892 H 283.811 2.72403 1.21817 0
M  V30 2893 C 282.56 2.00403 2.84137 0
M  V30 2894 H 281.883 2.86876 2.78464 0
M  V30 2895 H 283.323 2.23164 3.60519 0
M  V30 2896 C 281.782 0.782081 3.27697 0
M  V30 2897 O 282.312 -0.0310205 4.01688 0
M  V30 2898 N 280.518 0.606573 2.84199 0
M  V30 2899 H 280.065 1.26939 2.24152 0
M  V30 2900 H 280.023 -0.20962 3.137 0
M  V30 2901 N 283.795 -0.628877 1.44509 0
M  V30 2902 C 285.044 -1.38437 1.4669 0
M  V30 2903 C 285.357 -1.95322 0.104272 0
M  V30 2904 O 286.563 -2.715 0.00362163 0
M  V30 2905 C 285.019 -2.50659 2.5826 0
M  V30 2906 C 284.627 -2.00277 4.0074 0
M  V30 2907 C 286.371 -3.27844 2.69664 0
M  V30 2908 C 284.278 -3.09854 5.0373 0
M  V30 2909 H 283.208 -0.520245 0.545766 0
M  V30 2910 H 285.859 -0.676313 1.70582 0
M  V30 2911 H 284.241 -3.2405 2.27612 0
M  V30 2912 H 285.415 -1.33736 4.40966 0
M  V30 2913 H 283.73 -1.35901 3.93599 0
M  V30 2914 H 286.327 -4.09534 3.43781 0
M  V30 2915 H 286.67 -3.77471 1.75559 0
M  V30 2916 H 287.203 -2.61543 2.99733 0
M  V30 2917 H 283.942 -2.65168 5.99472 0
M  V30 2918 H 283.462 -3.7503 4.68095 0
M  V30 2919 H 285.141 -3.74592 5.27532 0
M  V30 2920 N 285.273 -1.31445 -0.869486 0
M  V30 2921 C 286.52 -1.21158 -1.62256 0
M  V30 2922 C 286.848 0.230155 -1.93133 0
M  V30 2923 O 286.103 1.17906 -1.56194 0
M  V30 2924 C 286.402 -2.00145 -2.96102 0
M  V30 2925 C 286.068 -3.4964 -2.84715 0
M  V30 2926 C 284.73 -3.90403 -2.81317 0
M  V30 2927 C 287.082 -4.44769 -2.71716 0
M  V30 2928 C 284.41 -5.24561 -2.62778 0
M  V30 2929 C 286.762 -5.79054 -2.54714 0
M  V30 2930 C 285.426 -6.19037 -2.49699 0
M  V30 2931 H 284.696 -0.443348 -0.593737 0
M  V30 2932 H 287.343 -1.62715 -1.00976 0
M  V30 2933 H 285.648 -1.5127 -3.6142 0
M  V30 2934 H 287.345 -1.89566 -3.53363 0
M  V30 2935 H 283.935 -3.17256 -2.88178 0
M  V30 2936 H 288.119 -4.14208 -2.73397 0
M  V30 2937 H 283.375 -5.54613 -2.57321 0
M  V30 2938 H 287.549 -6.52393 -2.43632 0
M  V30 2939 H 285.176 -7.22935 -2.35093 0
M  V30 2940 N 286.751 1.08385 -1.14413 0
M  V30 2941 C 287.999 1.80419 -0.910679 0
M  V30 2942 C 288.32 1.86658 0.564243 0
M  V30 2943 O 287.59 1.35985 1.41014 0
M  V30 2944 H 286.17 0.668204 -0.333934 0
M  V30 2945 H 288.832 1.31037 -1.44275 0
M  V30 2946 H 287.928 2.83238 -1.31082 0
M  V30 2947 N 288.23 0.939286 1.26551 0
M  V30 2948 C 289.646 0.641304 1.46149 0
M  V30 2949 C 289.846 -0.805964 1.84679 0
M  V30 2950 O 288.902 -1.58278 1.96734 0
M  V30 2951 C 290.215 1.6011 2.54529 0
M  V30 2952 C 291.763 1.6106 2.68382 0
M  V30 2953 C 292.238 2.55765 3.79932 0
M  V30 2954 N 293.729 2.5404 3.87322 0
M  V30 2955 C 294.464 3.24004 4.73085 0
M  V30 2956 N 293.96 4.03388 5.63249 0
M  V30 2957 N 295.753 3.12965 4.66914 0
M  V30 2958 H 287.904 1.87478 0.998285 0
M  V30 2959 H 290.167 0.805559 0.499779 0
M  V30 2960 H 289.873 2.63412 2.33039 0
M  V30 2961 H 289.747 1.35171 3.52149 0
M  V30 2962 H 292.134 0.584835 2.89247 0
M  V30 2963 H 292.215 1.90053 1.71212 0
M  V30 2964 H 291.859 3.58458 3.5982 0
M  V30 2965 H 291.789 2.24063 4.76554 0
M  V30 2966 H 294.28 1.96396 3.22858 0
M  V30 2967 H 294.593 4.5373 6.25579 0
M  V30 2968 H 292.938 4.07489 5.63008 0
M  V30 2969 H 296.129 2.50432 3.95476 0
M  V30 2970 H 296.302 3.67759 5.33533 0
M  V30 2971 N 289.708 -1.40897 0.706093 0
M  V30 2972 C 290.656 -2.32572 0.0361893 0
M  V30 2973 C 291.65 -1.51532 -0.757266 0
M  V30 2974 O 292.856 -1.67396 -0.661703 0
M  V30 2975 H 289.231 -0.751966 -0.00709935 0
M  V30 2976 H 291.202 -2.86733 0.826249 0
M  V30 2977 C 289.951 -3.36418 -0.87854 0
M  V30 2978 H 289.274 -3.98836 -0.277401 0
M  V30 2979 H 290.714 -4.0308 -1.3154 0
M  V30 2980 C 289.173 -2.71141 -1.99961 0
M  V30 2981 O 289.703 -2.56735 -3.0895 0
M  V30 2982 N 287.909 -2.29671 -1.78043 0
M  V30 2983 H 287.456 -2.41588 -0.894042 0
M  V30 2984 H 287.414 -1.86332 -2.53235 0
M  V30 2985 N 291.186 -0.45159 -1.50991 0
M  V30 2986 C 292.116 0.342898 -2.30969 0
M  V30 2987 C 293.097 1.00815 -1.37005 0
M  V30 2988 O 294.282 1.00907 -1.65926 0
M  V30 2989 C 291.412 1.43637 -3.16205 0
M  V30 2990 C 290.366 0.893818 -4.18563 0
M  V30 2991 C 289.692 2.08411 -4.92411 0
M  V30 2992 C 290.992 -0.0815568 -5.22236 0
M  V30 2993 H 292.686 -0.324556 -2.97636 0
M  V30 2994 H 290.232 -0.157531 -1.43136 0
M  V30 2995 H 292.185 1.9995 -3.70942 0
M  V30 2996 H 290.909 2.13232 -2.47386 0
M  V30 2997 H 289.568 0.352798 -3.64898 0
M  V30 2998 H 289.216 2.76658 -4.20082 0
M  V30 2999 H 288.916 1.72741 -5.61636 0
M  V30 3000 H 290.44 2.65251 -5.49976 0
M  V30 3001 H 291.854 0.391742 -5.7196 0
M  V30 3002 H 290.251 -0.351551 -5.99069 0
M  V30 3003 H 291.321 -1.01374 -4.74185 0
M  V30 3004 N 292.664 1.56529 -0.183458 0
M  V30 3005 C 293.594 2.21549 0.737456 0
M  V30 3006 C 294.575 1.17489 1.23005 0
M  V30 3007 O 295.76 1.45959 1.281 0
M  V30 3008 C 292.89 2.86575 1.96194 0
M  V30 3009 C 291.844 3.96778 1.60473 0
M  V30 3010 C 291.17 4.48911 2.90487 0
M  V30 3011 C 292.47 5.15767 0.823497 0
M  V30 3012 H 294.164 2.98761 0.195453 0
M  V30 3013 H 291.71 1.43702 0.0925686 0
M  V30 3014 H 293.663 3.30739 2.61131 0
M  V30 3015 H 292.387 2.06749 2.52828 0
M  V30 3016 H 291.046 3.53286 0.978997 0
M  V30 3017 H 290.694 3.65862 3.45186 0
M  V30 3018 H 290.394 5.23265 2.67335 0
M  V30 3019 H 291.918 4.95771 3.56432 0
M  V30 3020 H 293.332 5.56549 1.37571 0
M  V30 3021 H 291.729 5.96114 0.690551 0
M  V30 3022 H 292.799 4.84574 -0.177782 0
M  V30 3023 N 294.142 -0.090211 1.57342 0
M  V30 3024 C 295.37 -0.806224 1.90546 0
M  V30 3025 C 295.785 -1.72041 0.777644 0
M  V30 3026 O 295.142 -1.80778 -0.250103 0
M  V30 3027 C 295.193 -1.61546 3.23396 0
M  V30 3028 O 294.914 -0.738043 4.31839 0
M  V30 3029 C 296.415 -2.4341 3.70495 0
M  V30 3030 H 293.635 -0.230256 0.630257 0
M  V30 3031 H 296.179 -0.0659843 2.04394 0
M  V30 3032 H 294.334 -2.30816 3.11131 0
M  V30 3033 H 294.748 -1.29901 5.08159 0
M  V30 3034 H 296.222 -2.95676 4.66133 0
M  V30 3035 H 296.699 -3.22098 2.98579 0
M  V30 3036 H 297.305 -1.79331 3.85643 0
M  V30 3037 N 295.62 -1.53406 -0.361157 0
M  V30 3038 C 296.583 -1.79479 -1.42548 0
M  V30 3039 C 297.583 -0.665327 -1.4639 0
M  V30 3040 O 298.773 -0.933549 -1.47073 0
M  V30 3041 C 295.905 -1.92087 -2.8163 0
M  V30 3042 H 297.098 -2.74538 -1.20701 0
M  V30 3043 H 294.651 -1.4455 -0.594546 0
M  V30 3044 H 295.386 -0.991099 -3.08784 0
M  V30 3045 H 295.171 -2.74241 -2.80239 0
M  V30 3046 H 296.661 -2.13836 -3.58697 0
M  V30 3047 N 297.098 0.621204 -1.44841 0
M  V30 3048 C 298.028 1.74366 -1.55303 0
M  V30 3049 C 299.009 1.65199 -0.405385 0
M  V30 3050 O 300.194 1.83807 -0.626787 0
M  V30 3051 C 297.324 3.12931 -1.50637 0
M  V30 3052 C 296.278 3.36896 -2.63979 0
M  V30 3053 C 295.604 4.75594 -2.44366 0
M  V30 3054 C 296.904 3.28483 -4.06074 0
M  V30 3055 H 298.598 1.65867 -2.49256 0
M  V30 3056 H 296.144 0.796558 -1.19962 0
M  V30 3057 H 298.097 3.9124 -1.56555 0
M  V30 3058 H 296.821 3.22237 -0.532057 0
M  V30 3059 H 295.48 2.60972 -2.57467 0
M  V30 3060 H 295.128 4.81616 -1.45105 0
M  V30 3061 H 294.828 4.92586 -3.20364 0
M  V30 3062 H 296.352 5.5612 -2.52117 0
M  V30 3063 H 297.766 3.96684 -4.13902 0
M  V30 3064 H 296.163 3.57008 -4.82354 0
M  V30 3065 H 297.233 2.26133 -4.28943 0
M  V30 3066 N 298.576 1.31904 0.862503 0
M  V30 3067 C 299.824 1.21776 1.61292 0
M  V30 3068 C 300.145 -0.222413 1.93727 0
M  V30 3069 O 299.415 -1.1451 1.58947 0
M  V30 3070 H 297.995 0.447717 0.597962 0
M  V30 3071 H 300.657 1.65326 1.03215 0
M  V30 3072 H 299.753 1.7948 2.5533 0
M  V30 3073 N 300.054 -1.07777 1.14986 0
M  V30 3074 C 300.987 -2.14228 0.786243 0
M  V30 3075 C 301.965 -1.60888 -0.235347 0
M  V30 3076 O 303.149 -1.88099 -0.122909 0
M  V30 3077 C 300.276 -3.38281 0.168433 0
M  V30 3078 C 299.322 -4.10387 1.16123 0
M  V30 3079 S 300.155 -4.62371 2.70135 0
M  V30 3080 C 301.311 -5.89704 2.09762 0
M  V30 3081 H 301.544 -2.44741 1.68787 0
M  V30 3082 H 299.077 -1.19984 0.971756 0
M  V30 3083 H 301.035 -4.10098 -0.181588 0
M  V30 3084 H 299.696 -3.05953 -0.710725 0
M  V30 3085 H 298.889 -4.99431 0.677086 0
M  V30 3086 H 298.491 -3.44513 1.45556 0
M  V30 3087 H 300.783 -6.61648 1.45701 0
M  V30 3088 H 301.726 -6.42824 2.96955 0
M  V30 3089 H 302.134 -5.4302 1.54239 0
M  V30 3090 N 301.532 -0.945985 -1.26051 0
M  V30 3091 C 302.757 -0.612525 -1.98149 0
M  V30 3092 C 303.182 0.806623 -1.69927 0
M  V30 3093 O 302.54 1.54411 -0.950108 0
M  V30 3094 C 302.588 -0.866981 -3.50023 0
M  V30 3095 O 301.692 0.0585333 -4.12358 0
M  V30 3096 H 301.033 -0.23379 -0.621481 0
M  V30 3097 H 303.563 -1.27023 -1.60395 0
M  V30 3098 H 303.573 -0.789792 -4.00283 0
M  V30 3099 H 302.248 -1.90135 -3.69894 0
M  V30 3100 H 300.825 -0.0701241 -3.72834 0
M  V30 3101 N 303.011 1.40521 -0.713556 0
M  V30 3102 C 303.941 2.33381 -0.0743864 0
M  V30 3103 C 304.922 1.52784 0.747735 0
M  V30 3104 O 306.107 1.81258 0.697071 0
M  V30 3105 C 303.237 3.36748 0.849598 0
M  V30 3106 C 302.191 4.27793 0.133247 0
M  V30 3107 C 301.517 5.21679 1.17281 0
M  V30 3108 C 302.817 5.12415 -1.01134 0
M  V30 3109 H 304.511 2.87081 -0.850007 0
M  V30 3110 H 302.057 1.38034 -0.410201 0
M  V30 3111 H 304.01 4.00648 1.30612 0
M  V30 3112 H 302.734 2.81439 1.65709 0
M  V30 3113 H 301.393 3.65342 -0.303426 0
M  V30 3114 H 301.041 4.62677 1.9733 0
M  V30 3115 H 300.741 5.83435 0.698397 0
M  V30 3116 H 302.265 5.88456 1.62947 0
M  V30 3117 H 303.679 5.69781 -0.634274 0
M  V30 3118 H 302.076 5.83203 -1.41399 0
M  V30 3119 H 303.146 4.48514 -1.84292 0
M  V30 3120 N 304.489 0.459591 1.5075 0
M  V30 3121 C 305.437 -0.354678 2.2988 0
M  V30 3122 C 306.431 -1.00086 1.36672 0
M  V30 3123 O 307.637 -0.933277 1.53915 0
M  V30 3124 H 304.012 -0.13321 0.740107 0
M  V30 3125 H 305.983 0.333269 2.96533 0
M  V30 3126 C 304.732 -1.43073 3.169 0
M  V30 3127 H 304.055 -0.942882 3.88523 0
M  V30 3128 H 305.495 -1.97328 3.75284 0
M  V30 3129 C 303.954 -2.42633 2.33732 0
M  V30 3130 O 304.484 -3.47658 2.01238 0
M  V30 3131 N 302.69 -2.14066 1.9653 0
M  V30 3132 H 302.237 -1.28685 2.23155 0
M  V30 3133 H 302.195 -2.80917 1.41185 0
M  V30 3134 N 305.967 -1.56429 0.191757 0
M  V30 3135 C 307.214 -1.97485 -0.447891 0
M  V30 3136 C 307.542 -1.07852 -1.61859 0
M  V30 3137 O 306.797 -0.116903 -1.95351 0
M  V30 3138 C 307.096 -3.44449 -0.953384 0
M  V30 3139 C 306.762 -4.50781 0.103586 0
M  V30 3140 C 305.424 -4.79584 0.394023 0
M  V30 3141 C 307.776 -5.1471 0.819946 0
M  V30 3142 C 305.104 -5.69607 1.40585 0
M  V30 3143 C 307.456 -6.05827 1.8209 0
M  V30 3144 C 306.12 -6.32987 2.11857 0
M  V30 3145 H 305.39 -0.722648 -0.163895 0
M  V30 3146 H 308.037 -1.89322 0.28802 0
M  V30 3147 H 306.342 -3.49666 -1.76751 0
M  V30 3148 H 308.039 -3.73569 -1.45765 0
M  V30 3149 H 304.629 -4.28394 -0.132951 0
M  V30 3150 H 308.813 -4.92552 0.608789 0
M  V30 3151 H 304.069 -5.88926 1.64243 0
M  V30 3152 H 308.243 -6.54424 2.38123 0
M  V30 3153 H 305.87 -7.02544 2.90407 0
M  V30 3154 N 307.445 0.0818655 -1.57387 0
M  V30 3155 C 308.856 0.634871 -1.75574 0
M  V30 3156 C 309.207 1.78435 -0.815809 0
M  V30 3157 O 308.332 2.164 0.0025366 0
M  V30 3158 C 308.927 1.15845 -3.18379 0
M  V30 3159 C 307.486 1.65741 -3.37945 0
M  V30 3160 C 306.633 0.572549 -2.71325 0
M  V30 3161 H 309.584 -0.144268 -1.58043 0
M  V30 3162 H 309.605 2.02751 -3.21982 0
M  V30 3163 H 309.117 0.321631 -3.86765 0
M  V30 3164 H 307.218 2.51781 -2.74658 0
M  V30 3165 H 307.331 1.74129 -4.46336 0
M  V30 3166 H 305.695 1.01518 -2.33594 0
M  V30 3167 H 306.478 -0.253918 -3.4236 0
M  V30 3168 N 308.923 1.53595 0.353017 0
M  V30 3169 C 310.172 1.69603 1.09168 0
M  V30 3170 C 310.485 0.460925 1.90092 0
M  V30 3171 O 311.691 0.501774 2.66823 0
M  V30 3172 C 310.147 2.99872 1.9901 0
M  V30 3173 C 309.755 4.30687 1.23339 0
M  V30 3174 C 311.499 3.25246 2.72792 0
M  V30 3175 C 309.406 5.52036 2.12156 0
M  V30 3176 H 308.336 0.631966 0.411261 0
M  V30 3177 H 310.987 1.80096 0.351802 0
M  V30 3178 H 309.369 2.83212 2.7678 0
M  V30 3179 H 310.543 4.58019 0.505456 0
M  V30 3180 H 308.858 4.11853 0.613663 0
M  V30 3181 H 311.455 4.13095 3.39495 0
M  V30 3182 H 311.798 2.41846 3.38846 0
M  V30 3183 H 312.331 3.42638 2.021 0
M  V30 3184 H 309.07 6.37951 1.50659 0
M  V30 3185 H 308.59 5.28966 2.82764 0
M  V30 3186 H 310.269 5.87313 2.71427 0
M  V30 3187 N 310.401 -0.613514 1.45168 0
M  V30 3188 C 311.364 -1.7065 1.53007 0
M  V30 3189 C 312.364 -1.5548 0.410184 0
M  V30 3190 O 313.554 -1.60656 0.673455 0
M  V30 3191 C 310.686 -3.09875 1.42093 0
M  V30 3192 H 311.879 -1.65068 2.50385 0
M  V30 3193 H 309.432 -0.828728 1.32521 0
M  V30 3194 H 310.167 -3.21039 0.458769 0
M  V30 3195 H 309.952 -3.22293 2.23315 0
M  V30 3196 H 311.442 -3.895 1.50598 0
M  V30 3197 N 311.879 -1.3236 -0.855495 0
M  V30 3198 C 312.826 -1.21225 -1.964 0
M  V30 3199 C 313.796 -0.0946204 -1.6583 0
M  V30 3200 O 314.981 -0.27002 -1.8888 0
M  V30 3201 C 312.121 -0.940419 -3.32039 0
M  V30 3202 C 311.234 -2.14276 -3.75113 0
M  V30 3203 C 310.369 -1.80648 -4.9954 0
M  V30 3204 C 309.408 -2.97208 -5.35102 0
M  V30 3205 N 308.545 -2.63678 -6.50706 0
M  V30 3206 H 313.385 -2.16042 -2.05255 0
M  V30 3207 H 310.922 -1.07451 -1.00463 0
M  V30 3208 H 312.88 -0.763311 -4.10158 0
M  V30 3209 H 311.51 -0.0290413 -3.22787 0
M  V30 3210 H 310.562 -2.43017 -2.92655 0
M  V30 3211 H 311.874 -3.01468 -3.97389 0
M  V30 3212 H 311.028 -1.59484 -5.85363 0
M  V30 3213 H 309.767 -0.906678 -4.79198 0
M  V30 3214 H 308.772 -3.19004 -4.47791 0
M  V30 3215 H 309.997 -3.87918 -5.57401 0
M  V30 3216 H 307.943 -1.76238 -6.31883 0
M  V30 3217 H 307.86 -3.444 -6.72997 0
M  V30 3218 H 309.128 -2.45942 -7.39684 0
M  V30 3219 N 313.357 1.07166 -1.15556 0
M  V30 3220 C 314.603 1.80065 -0.932984 0
M  V30 3221 C 314.936 1.86586 0.53845 0
M  V30 3222 O 314.211 1.35098 1.39924 0
M  V30 3223 C 314.494 3.25022 -1.55025 0
M  V30 3224 C 314.347 3.26634 -3.09242 0
M  V30 3225 C 315.666 4.22341 -1.2376 0
M  V30 3226 H 312.785 0.653697 -0.340366 0
M  V30 3227 H 315.427 1.25389 -1.4275 0
M  V30 3228 H 313.577 3.71712 -1.12972 0
M  V30 3229 H 315.249 2.88173 -3.60214 0
M  V30 3230 H 313.492 2.65539 -3.43033 0
M  V30 3231 H 314.163 4.28854 -3.47546 0
M  V30 3232 H 316.639 3.8405 -1.60139 0
M  V30 3233 H 315.515 5.22053 -1.69564 0
M  V30 3234 H 315.776 4.41828 -0.154938 0
M  V30 3235 N 314.835 0.952656 1.25548 0
M  V30 3236 C 315.745 0.47782 2.29682 0
M  V30 3237 C 316.761 -0.453859 1.67977 0
M  V30 3238 O 317.937 -0.330587 1.98668 0
M  V30 3239 C 315.002 -0.238655 3.45878 0
M  V30 3240 C 314.063 0.730994 4.23031 0
M  V30 3241 C 313.296 0.0486165 5.33678 0
M  V30 3242 O 313.519 -1.16612 5.58353 0
M  V30 3243 O 312.453 0.733152 5.97418 0
M  V30 3244 H 316.279 1.34312 2.72386 0
M  V30 3245 H 313.864 0.719026 1.30959 0
M  V30 3246 H 315.746 -0.641774 4.16484 0
M  V30 3247 H 314.421 -1.07916 3.05181 0
M  V30 3248 H 313.328 1.18428 3.5486 0
M  V30 3249 H 314.661 1.53946 4.67506 0
M  V30 3250 N 316.313 -1.40141 0.720998 0
M  V30 3251 C 317.724 -1.83678 0.334553 0
M  V30 3252 C 318.075 -1.6027 -1.13173 0
M  V30 3253 O 317.2 -1.08643 -1.87152 0
M  V30 3254 C 317.795 -3.33437 0.600437 0
M  V30 3255 C 316.354 -3.75447 0.267642 0
M  V30 3256 C 315.501 -2.63296 0.870097 0
M  V30 3257 H 318.452 -1.29331 0.919732 0
M  V30 3258 H 318.473 -3.80269 -0.132517 0
M  V30 3259 H 317.985 -3.50442 1.66768 0
M  V30 3260 H 316.086 -3.64035 -0.794329 0
M  V30 3261 H 316.199 -4.73344 0.74042 0
M  V30 3262 H 314.563 -2.52954 0.297739 0
M  V30 3263 H 315.346 -2.83112 1.94172 0
M  V30 3264 N 317.792 -0.46758 -1.50504 0
M  V30 3265 C 319.038 0.0887532 -2.02606 0
M  V30 3266 C 319.371 1.39686 -1.34913 0
M  V30 3267 O 318.646 1.88644 -0.473694 0
M  V30 3268 C 318.929 0.276206 -3.59039 0
M  V30 3269 C 318.782 -1.05267 -4.37309 0
M  V30 3270 C 320.101 1.03235 -4.27821 0
M  V30 3271 H 317.22 0.0307814 -0.736357 0
M  V30 3272 H 319.862 -0.612485 -1.79857 0
M  V30 3273 H 318.012 0.8735 -3.78553 0
M  V30 3274 H 319.684 -1.68628 -4.29374 0
M  V30 3275 H 317.927 -1.65015 -4.01189 0
M  V30 3276 H 318.598 -0.875197 -5.45018 0
M  V30 3277 H 321.074 0.526111 -4.12761 0
M  V30 3278 H 319.95 1.1323 -5.37094 0
M  V30 3279 H 320.211 2.06806 -3.90748 0
M  V30 3280 N 319.27 1.56325 -0.20005 0
M  V30 3281 C 320.217 2.1932 0.718833 0
M  V30 3282 C 321.187 1.14198 1.20615 0
M  V30 3283 O 322.372 1.42469 1.26914 0
M  V30 3284 C 319.512 2.86041 1.93066 0
M  V30 3285 C 318.625 4.05702 1.48425 0
M  V30 3286 C 317.76 4.60266 2.65196 0
M  V30 3287 C 316.799 5.72273 2.17185 0
M  V30 3288 N 315.936 6.21221 3.27152 0
M  V30 3289 H 320.776 2.97486 0.17489 0
M  V30 3290 H 318.313 1.46911 0.0745794 0
M  V30 3291 H 320.271 3.22897 2.64184 0
M  V30 3292 H 318.901 2.1043 2.44783 0
M  V30 3293 H 317.953 3.74475 0.668755 0
M  V30 3294 H 319.265 4.86699 1.09204 0
M  V30 3295 H 318.419 4.99453 3.4443 0
M  V30 3296 H 317.158 3.78386 3.07693 0
M  V30 3297 H 316.163 5.3261 1.36407 0
M  V30 3298 H 317.388 6.55974 1.75713 0
M  V30 3299 H 315.334 5.42263 3.69171 0
M  V30 3300 H 315.251 6.97284 2.92116 0
M  V30 3301 H 316.519 6.65063 4.06585 0
M  V30 3302 N 320.748 -0.0735177 1.57428 0
M  V30 3303 C 321.994 -0.774145 1.87443 0
M  V30 3304 C 322.327 -1.77311 0.792103 0
M  V30 3305 O 321.602 -1.93492 -0.197793 0
M  V30 3306 C 321.885 -1.48367 3.28115 0
M  V30 3307 C 321.738 -0.501227 4.46999 0
M  V30 3308 C 323.057 -2.429 3.66998 0
M  V30 3309 H 320.176 -0.279971 0.681752 0
M  V30 3310 H 322.818 -0.0373616 1.89963 0
M  V30 3311 H 320.968 -2.11171 3.26097 0
M  V30 3312 H 322.64 0.121468 4.6114 0
M  V30 3313 H 320.883 0.183593 4.33411 0
M  V30 3314 H 321.554 -1.03526 5.42205 0
M  V30 3315 H 324.03 -1.90175 3.70098 0
M  V30 3316 H 322.906 -2.89549 4.66318 0
M  V30 3317 H 323.167 -3.27628 2.96837 0
M  V30 3318 N 322.226 -1.5378 -0.344866 0
M  V30 3319 C 323.189 -1.80981 -1.40637 0
M  V30 3320 C 324.189 -0.680816 -1.45676 0
M  V30 3321 O 325.379 -0.949095 -1.46075 0
M  V30 3322 C 322.511 -1.95063 -2.79577 0
M  V30 3323 H 323.704 -2.75803 -1.17783 0
M  V30 3324 H 321.257 -1.45173 -0.579181 0
M  V30 3325 H 321.992 -1.02379 -3.07716 0
M  V30 3326 H 321.777 -2.77198 -2.77315 0
M  V30 3327 H 323.267 -2.17629 -3.56409 0
M  V30 3328 N 323.704 0.605807 -1.45491 0
M  V30 3329 C 324.634 1.72709 -1.57143 0
M  V30 3330 C 325.615 1.6476 -0.422884 0
M  V30 3331 O 326.8 1.83132 -0.646247 0
M  V30 3332 C 323.93 3.11316 -1.53948 0
M  V30 3333 C 322.884 3.34077 -2.67537 0
M  V30 3334 C 322.21 4.72975 -2.49397 0
M  V30 3335 C 323.51 3.24158 -4.09535 0
M  V30 3336 H 325.204 1.63214 -2.51001 0
M  V30 3337 H 322.75 0.78379 -1.208 0
M  V30 3338 H 324.703 3.89557 -1.60696 0
M  V30 3339 H 323.427 3.21655 -0.566205 0
M  V30 3340 H 322.086 2.58227 -2.6022 0
M  V30 3341 H 321.734 4.8005 -1.50205 0
M  V30 3342 H 321.434 4.8916 -3.25571 0
M  V30 3343 H 322.958 5.53414 -2.58002 0
M  V30 3344 H 324.372 3.92271 -4.18086 0
M  V30 3345 H 322.769 3.51872 -4.86113 0
M  V30 3346 H 323.839 2.2157 -4.31317 0
M  V30 3347 N 325.182 1.32811 0.848464 0
M  V30 3348 C 326.129 1.22265 1.95755 0
M  V30 3349 C 327.099 0.103413 1.65778 0
M  V30 3350 O 328.284 0.280033 1.88734 0
M  V30 3351 C 325.424 0.958014 3.31536 0
M  V30 3352 C 324.537 2.16262 3.73971 0
M  V30 3353 C 323.672 1.83295 4.98575 0
M  V30 3354 C 322.711 3.00041 5.33518 0
M  V30 3355 N 321.848 2.67125 6.49299 0
M  V30 3356 H 326.688 2.17128 2.04107 0
M  V30 3357 H 324.225 1.07982 0.998913 0
M  V30 3358 H 326.183 0.785052 4.09747 0
M  V30 3359 H 324.813 0.046159 3.22767 0
M  V30 3360 H 323.865 2.44565 2.91362 0
M  V30 3361 H 325.177 3.03572 3.95785 0
M  V30 3362 H 324.331 1.62586 5.84509 0
M  V30 3363 H 323.07 0.932078 4.7871 0
M  V30 3364 H 322.075 3.21374 4.46093 0
M  V30 3365 H 323.3 3.90869 5.55336 0
M  V30 3366 H 321.246 1.79586 6.3094 0
M  V30 3367 H 321.163 3.47965 6.71161 0
M  V30 3368 H 322.431 2.49861 7.3837 0
M  V30 3369 N 326.66 -1.06551 1.16123 0
M  V30 3370 C 328.071 -1.60768 0.949232 0
M  V30 3371 C 328.422 -1.89523 -0.507508 0
M  V30 3372 O 327.547 -1.66671 -1.38021 0
M  V30 3373 C 328.142 -2.92086 1.71671 0
M  V30 3374 C 326.701 -3.43015 1.54977 0
M  V30 3375 C 325.848 -2.16947 1.72711 0
M  V30 3376 H 328.799 -0.895354 1.31031 0
M  V30 3377 H 328.82 -3.6138 1.19099 0
M  V30 3378 H 328.332 -2.71127 2.7769 0
M  V30 3379 H 326.433 -3.69039 0.513873 0
M  V30 3380 H 326.546 -4.18516 2.33198 0
M  V30 3381 H 324.91 -2.27041 1.15431 0
M  V30 3382 H 325.693 -1.98473 2.80113 0
M  V30 3383 N 328.138 -0.959301 -1.25041 0
M  V30 3384 C 329.386 -0.615393 -1.92503 0
M  V30 3385 C 329.707 0.850969 -1.75452 0
M  V30 3386 O 328.977 1.60658 -1.12098 0
M  V30 3387 H 327.557 -0.224613 -0.712431 0
M  V30 3388 H 330.219 -1.21855 -1.5211 0
M  V30 3389 H 329.315 -0.848738 -3.00338 0
M  V30 3390 N 329.616 1.39756 -0.72842 0
M  V30 3391 C 330.563 2.30647 -0.0841519 0
M  V30 3392 C 331.533 1.48869 0.7367 0
M  V30 3393 O 332.718 1.77574 0.698015 0
M  V30 3394 C 329.858 3.35165 0.822091 0
M  V30 3395 C 328.971 4.31999 -0.0106663 0
M  V30 3396 C 328.106 5.23585 0.896241 0
M  V30 3397 C 327.145 6.12072 0.0583381 0
M  V30 3398 N 326.282 6.96035 0.920818 0
M  V30 3399 H 331.122 2.85173 -0.864891 0
M  V30 3400 H 328.659 1.40422 -0.438179 0
M  V30 3401 H 330.617 3.94345 1.36189 0
M  V30 3402 H 329.247 2.8211 1.56888 0
M  V30 3403 H 328.299 3.74492 -0.66781 0
M  V30 3404 H 329.611 4.9443 -0.658825 0
M  V30 3405 H 328.765 5.87759 1.50412 0
M  V30 3406 H 327.504 4.61459 1.57819 0
M  V30 3407 H 326.509 5.46916 -0.562389 0
M  V30 3408 H 327.734 6.76261 -0.6203 0
M  V30 3409 H 325.68 6.36485 1.58818 0
M  V30 3410 H 325.597 7.55284 0.32899 0
M  V30 3411 H 326.865 7.64646 1.51447 0
M  V30 3412 N 331.094 0.475555 1.50254 0
M  V30 3413 C 332.371 -0.139685 1.95101 0
M  V30 3414 C 332.751 -1.56555 1.41611 0
M  V30 3415 O 332.099 -2.19956 0.618993 0
M  V30 3416 C 332.309 -0.0784298 3.48912 0
M  V30 3417 C 333.657 -0.265095 4.23772 0
M  V30 3418 O 334.681 -0.154808 3.55863 0
M  V30 3419 O 333.54 -0.488327 5.44314 0
M  V30 3420 H 330.634 -0.109236 0.819754 0
M  V30 3421 H 333.18 0.536276 1.61004 0
M  V30 3422 H 331.952 0.916918 3.80405 0
M  V30 3423 H 331.575 -0.795655 3.89558 0
M  V30 3424 N 332.573 -1.56217 0.208337 0
M  V30 3425 C 333.821 -1.97558 -0.426076 0
M  V30 3426 C 334.142 -1.09683 -1.61229 0
M  V30 3427 O 333.412 -0.170956 -1.95153 0
M  V30 3428 H 331.992 -0.729575 -0.160405 0
M  V30 3429 H 334.654 -1.92606 0.298155 0
M  V30 3430 H 333.75 -3.02672 -0.761312 0
M  V30 3431 N 334.051 0.0651679 -1.57465 0
M  V30 3432 C 335.462 0.616213 -1.76238 0
M  V30 3433 C 335.813 1.7756 -0.834689 0
M  V30 3434 O 334.938 2.1639 -0.0204156 0
M  V30 3435 C 335.533 1.12462 -3.1959 0
M  V30 3436 C 334.092 1.62147 -3.39684 0
M  V30 3437 C 333.239 0.543739 -2.71917 0
M  V30 3438 H 336.19 -0.161022 -1.57881 0
M  V30 3439 H 336.211 1.99324 -3.24114 0
M  V30 3440 H 335.723 0.280592 -3.87084 0
M  V30 3441 H 333.824 2.48854 -2.77313 0
M  V30 3442 H 333.937 1.69385 -4.48158 0
M  V30 3443 H 332.301 0.990352 -2.34657 0
M  V30 3444 H 333.084 -0.290216 -3.42071 0
M  V30 3445 N 335.529 1.53961 0.336706 0
M  V30 3446 C 336.476 1.82428 1.41381 0
M  V30 3447 C 337.446 0.670444 1.51968 0
M  V30 3448 O 338.631 0.915565 1.67398 0
M  V30 3449 C 335.771 2.04564 2.77934 0
M  V30 3450 C 334.884 3.32267 2.76084 0
M  V30 3451 C 334.019 3.44434 4.04399 0
M  V30 3452 C 333.058 4.66061 3.96804 0
M  V30 3453 N 332.195 4.75224 5.16823 0
M  V30 3454 H 337.035 2.74324 1.16405 0
M  V30 3455 H 334.572 1.35869 0.563752 0
M  V30 3456 H 336.53 2.15388 3.57301 0
M  V30 3457 H 335.16 1.15974 3.01247 0
M  V30 3458 H 334.212 3.3025 1.88784 0
M  V30 3459 H 335.524 4.21733 2.66351 0
M  V30 3460 H 334.678 3.54728 4.92192 0
M  V30 3461 H 333.417 2.53037 4.16921 0
M  V30 3462 H 332.422 4.55838 3.07396 0
M  V30 3463 H 333.647 5.58829 3.85858 0
M  V30 3464 H 331.593 3.86739 5.29876 0
M  V30 3465 H 331.51 5.58636 5.09374 0
M  V30 3466 H 332.778 4.89835 6.06367 0
M  V30 3467 N 337.007 -0.598083 1.45811 0
M  V30 3468 C 337.937 -1.71873 1.58057 0
M  V30 3469 C 338.918 -1.64533 0.431615 0
M  V30 3470 O 340.103 -1.82787 0.65595 0
M  V30 3471 C 337.233 -3.10495 1.55597 0
M  V30 3472 C 336.187 -3.32654 2.69305 0
M  V30 3473 C 335.513 -4.71646 2.51902 0
M  V30 3474 C 336.813 -3.21981 4.11248 0
M  V30 3475 H 338.507 -1.61881 2.51863 0
M  V30 3476 H 336.053 -0.777372 1.21214 0
M  V30 3477 H 338.006 -3.88699 1.6276 0
M  V30 3478 H 336.73 -3.2135 0.583255 0
M  V30 3479 H 335.389 -2.56843 2.61586 0
M  V30 3480 H 335.037 -4.79246 1.52748 0
M  V30 3481 H 334.737 -4.87426 3.2816 0
M  V30 3482 H 336.261 -5.52038 2.60933 0
M  V30 3483 H 337.675 -3.90049 4.20161 0
M  V30 3484 H 336.072 -3.49289 4.87972 0
M  V30 3485 H 337.142 -2.1928 4.32486 0
M  V30 3486 N 338.485 -1.33259 -0.841409 0
M  V30 3487 C 339.432 -1.23302 -1.95103 0
M  V30 3488 C 340.402 -0.112204 -1.65721 0
M  V30 3489 O 341.587 -0.290038 -1.88583 0
M  V30 3490 C 338.727 -0.975583 -3.31023 0
M  V30 3491 C 337.84 -2.18243 -3.72819 0
M  V30 3492 C 336.975 -1.85936 -4.97595 0
M  V30 3493 C 336.014 -3.02866 -5.3192 0
M  V30 3494 N 335.151 -2.70565 -6.47873 0
M  V30 3495 H 339.991 -2.18207 -2.02952 0
M  V30 3496 H 337.528 -1.0851 -0.993173 0
M  V30 3497 H 339.486 -0.80677 -4.09325 0
M  V30 3498 H 338.116 -0.0632755 -3.22738 0
M  V30 3499 H 337.168 -2.46107 -2.90061 0
M  V30 3500 H 338.48 -3.05666 -3.94169 0
M  V30 3501 H 337.634 -1.65684 -5.83638 0
M  V30 3502 H 336.373 -0.957452 -4.78209 0
M  V30 3503 H 335.378 -3.23736 -4.44382 0
M  V30 3504 H 336.603 -3.93809 -5.53255 0
M  V30 3505 H 334.549 -1.8293 -6.29978 0
M  V30 3506 H 334.466 -3.51519 -6.69306 0
M  V30 3507 H 335.734 -2.53774 -7.37034 0
M  V30 3508 N 339.963 1.05934 -1.16686 0
M  V30 3509 C 340.895 2.13468 -0.834503 0
M  V30 3510 C 341.908 1.62013 0.15984 0
M  V30 3511 O 343.097 1.7838 -0.0654228 0
M  V30 3512 C 340.197 3.3817 -0.222361 0
M  V30 3513 C 339.37 4.18928 -1.25771 0
M  V30 3514 C 338.429 5.21985 -0.664703 0
M  V30 3515 O 337.455 5.53334 -1.33453 0
M  V30 3516 N 338.657 5.77919 0.546834 0
M  V30 3517 H 341.422 2.42578 -1.75999 0
M  V30 3518 H 338.983 1.21967 -1.06469 0
M  V30 3519 H 340.975 4.04266 0.187472 0
M  V30 3520 H 339.545 3.06655 0.606758 0
M  V30 3521 H 338.765 3.48433 -1.84358 0
M  V30 3522 H 340.053 4.69687 -1.95631 0
M  V30 3523 H 339.451 5.54721 1.10912 0
M  V30 3524 H 338.008 6.45573 0.898829 0
M  V30 3525 N 341.441 0.965919 1.2453 0
M  V30 3526 C 342.687 0.637349 1.93156 0
M  V30 3527 C 343.042 -0.818261 1.74133 0
M  V30 3528 O 342.335 -1.58079 1.08266 0
M  V30 3529 C 342.529 0.945428 3.44669 0
M  V30 3530 C 342.358 2.42944 3.78429 0
M  V30 3531 C 341.128 3.08895 3.9989 0
M  V30 3532 C 343.326 3.40941 3.8505 0
M  V30 3533 N 341.308 4.47052 4.20735 0
M  V30 3534 C 342.679 4.64448 4.10717 0
M  V30 3535 C 344.734 3.35624 3.67779 0
M  V30 3536 C 343.437 5.83292 4.20907 0
M  V30 3537 C 345.463 4.53818 3.79214 0
M  V30 3538 C 344.825 5.76114 4.05304 0
M  V30 3539 H 340.924 0.284034 0.728594 0
M  V30 3540 H 343.508 1.24041 1.50073 0
M  V30 3541 H 341.679 0.371193 3.86622 0
M  V30 3542 H 343.411 0.575613 4.00586 0
M  V30 3543 H 340.166 2.59432 3.96222 0
M  V30 3544 H 340.59 5.18634 4.35141 0
M  V30 3545 H 345.232 2.4211 3.46616 0
M  V30 3546 H 342.95 6.77236 4.40883 0
M  V30 3547 H 346.536 4.51263 3.67224 0
M  V30 3548 H 345.416 6.66045 4.13949 0
M  V30 3549 N 342.919 -1.39368 0.735821 0
M  V30 3550 C 344.33 -1.83313 0.354015 0
M  V30 3551 C 344.681 -1.61461 -1.11466 0
M  V30 3552 O 343.806 -1.10621 -1.85989 0
M  V30 3553 C 344.401 -3.32781 0.635769 0
M  V30 3554 C 342.96 -3.75142 0.307448 0
M  V30 3555 C 342.107 -2.62358 0.897974 0
M  V30 3556 H 345.058 -1.28349 0.933398 0
M  V30 3557 H 345.079 -3.80388 -0.0921773 0
M  V30 3558 H 344.591 -3.48654 1.70476 0
M  V30 3559 H 342.692 -3.64857 -0.755674 0
M  V30 3560 H 342.805 -4.72532 0.790583 0
M  V30 3561 H 341.169 -2.52624 0.324551 0
M  V30 3562 H 341.952 -2.81036 1.97164 0
M  V30 3563 N 344.397 -0.483516 -1.5 0
M  V30 3564 C 345.327 0.293829 -2.31644 0
M  V30 3565 C 346.308 0.978864 -1.39112 0
M  V30 3566 O 347.493 0.973644 -1.68029 0
M  V30 3567 C 344.623 1.36897 -3.19181 0
M  V30 3568 C 343.577 0.804833 -4.20365 0
M  V30 3569 C 342.903 1.9792 -4.96721 0
M  V30 3570 C 344.203 -0.192313 -5.21946 0
M  V30 3571 H 345.897 -0.387616 -2.9688 0
M  V30 3572 H 343.443 -0.187856 -1.42769 0
M  V30 3573 H 345.396 1.92037 -3.751 0
M  V30 3574 H 344.12 2.07936 -2.51853 0
M  V30 3575 H 342.779 0.275319 -3.65565 0
M  V30 3576 H 342.427 2.67686 -4.25856 0
M  V30 3577 H 342.127 1.60789 -5.65173 0
M  V30 3578 H 343.651 2.53526 -5.55479 0
M  V30 3579 H 345.065 0.270333 -5.72662 0
M  V30 3580 H 343.462 -0.478543 -5.98189 0
M  V30 3581 H 344.532 -1.11409 -4.71928 0
M  V30 3582 N 345.875 1.56104 -0.216619 0
M  V30 3583 C 347.1 2.0301 0.424462 0
M  V30 3584 C 347.525 1.0955 1.52907 0
M  V30 3585 O 346.883 0.0827914 1.81111 0
M  V30 3586 C 346.931 3.4819 0.937883 0
M  V30 3587 O 346.035 3.57865 2.04955 0
M  V30 3588 H 345.376 0.656925 0.0966755 0
M  V30 3589 H 347.906 2.01859 -0.33381 0
M  V30 3590 H 347.916 3.88413 1.24897 0
M  V30 3591 H 346.591 4.15699 0.129387 0
M  V30 3592 H 345.168 3.29527 1.74546 0
M  V30 3593 N 347.353 -0.0568162 1.57498 0
M  V30 3594 C 348.3 -1.06591 2.04712 0
M  V30 3595 C 349.27 -1.3758 0.930644 0
M  V30 3596 O 350.455 -1.48392 1.19935 0
M  V30 3597 C 347.595 -2.3701 2.50839 0
M  V30 3598 C 346.708 -2.12421 3.76167 0
M  V30 3599 C 345.843 -3.36511 4.11015 0
M  V30 3600 C 344.882 -3.07353 5.2934 0
M  V30 3601 N 344.019 -4.23816 5.59754 0
M  V30 3602 H 348.859 -0.65631 2.90683 0
M  V30 3603 H 346.396 -0.312481 1.43743 0
M  V30 3604 H 348.354 -3.13175 2.7564 0
M  V30 3605 H 346.984 -2.75744 1.67825 0
M  V30 3606 H 346.036 -1.2688 3.58616 0
M  V30 3607 H 347.348 -1.86894 4.62463 0
M  V30 3608 H 346.502 -4.21062 4.36797 0
M  V30 3609 H 345.241 -3.65128 3.23315 0
M  V30 3610 H 344.246 -2.212 5.03339 0
M  V30 3611 H 345.471 -2.80043 6.1867 0
M  V30 3612 H 343.417 -4.52436 4.75014 0
M  V30 3613 H 343.334 -4.01614 6.40501 0
M  V30 3614 H 344.602 -5.0932 5.90096 0
M  V30 3615 N 348.832 -1.54138 -0.328536 0
M  V30 3616 C 349.742 -1.86192 -1.42723 0
M  V30 3617 C 350.758 -0.753382 -1.56844 0
M  V30 3618 O 351.934 -1.04718 -1.72035 0
M  V30 3619 C 348.999 -2.07824 -2.77507 0
M  V30 3620 C 348.06 -3.31641 -2.72603 0
M  V30 3621 C 347.293 -3.52232 -4.00959 0
M  V30 3622 O 347.516 -2.7636 -4.9898 0
M  V30 3623 O 346.45 -4.45699 -4.0452 0
M  V30 3624 H 350.276 -2.79608 -1.18547 0
M  V30 3625 H 347.861 -1.3998 -0.522104 0
M  V30 3626 H 349.743 -2.23411 -3.57303 0
M  V30 3627 H 348.418 -1.17596 -3.01584 0
M  V30 3628 H 347.325 -3.21444 -1.91376 0
M  V30 3629 H 348.658 -4.2191 -2.53481 0
M  V30 3630 N 350.31 0.590341 -1.46126 0
M  V30 3631 C 351.257 1.69994 -1.56111 0
M  V30 3632 C 352.227 1.61065 -0.405867 0
M  V30 3633 O 353.412 1.8039 -0.621613 0
M  V30 3634 C 350.552 3.08326 -1.55013 0
M  V30 3635 C 349.665 3.27936 -2.81215 0
M  V30 3636 C 348.8 4.56473 -2.71673 0
M  V30 3637 C 347.839 4.694 -3.92849 0
M  V30 3638 N 346.976 5.89254 -3.81738 0
M  V30 3639 H 351.816 1.60797 -2.50895 0
M  V30 3640 H 349.353 0.783799 -1.24479 0
M  V30 3641 H 351.311 3.88383 -1.52362 0
M  V30 3642 H 349.941 3.16439 -0.637667 0
M  V30 3643 H 348.993 2.41536 -2.93879 0
M  V30 3644 H 350.305 3.33357 -3.71045 0
M  V30 3645 H 349.459 5.44748 -2.67085 0
M  V30 3646 H 348.198 4.53477 -1.7947 0
M  V30 3647 H 347.203 3.79544 -3.97777 0
M  V30 3648 H 348.428 4.7418 -4.86138 0
M  V30 3649 H 346.374 5.87271 -2.92317 0
M  V30 3650 H 346.291 5.95911 -4.65217 0
M  V30 3651 H 347.559 6.79981 -3.81112 0
M  V30 3652 N 351.788 1.33704 0.83433 0
M  V30 3653 C 353.037 1.24763 1.58484 0
M  V30 3654 C 353.35 -0.183775 1.94735 0
M  V30 3655 O 354.556 -0.395234 2.68608 0
M  V30 3656 C 353.012 2.18638 2.85876 0
M  V30 3657 C 352.62 3.66974 2.56971 0
M  V30 3658 C 354.364 2.18581 3.63899 0
M  V30 3659 C 352.271 4.5275 3.80488 0
M  V30 3660 H 351.201 0.463425 0.594772 0
M  V30 3661 H 353.852 1.58797 0.919551 0
M  V30 3662 H 352.234 1.77542 3.5397 0
M  V30 3663 H 353.408 4.16538 1.9706 0
M  V30 3664 H 351.723 3.69366 1.92244 0
M  V30 3665 H 354.32 2.79894 4.55591 0
M  V30 3666 H 354.663 1.18207 3.99165 0
M  V30 3667 H 355.196 2.58062 3.02735 0
M  V30 3668 H 351.935 5.54017 3.5035 0
M  V30 3669 H 351.455 4.07927 4.39722 0
M  V30 3670 H 353.134 4.66784 4.4802 0
M  V30 3671 N 353.266 -1.05314 1.17247 0
M  V30 3672 C 354.512 -1.78557 0.961513 0
M  V30 3673 C 354.845 -1.87419 -0.508697 0
M  V30 3674 O 354.12 -1.37307 -1.37757 0
M  V30 3675 C 354.403 -3.22514 1.60176 0
M  V30 3676 C 354.256 -3.21673 3.14399 0
M  V30 3677 C 355.575 -4.20318 1.30463 0
M  V30 3678 H 352.694 -0.6482 0.350723 0
M  V30 3679 H 355.336 -1.23102 1.44727 0
M  V30 3680 H 353.486 -3.69867 1.18871 0
M  V30 3681 H 355.158 -2.82405 3.64753 0
M  V30 3682 H 353.401 -2.60048 3.47214 0
M  V30 3683 H 354.072 -4.23271 3.54324 0
M  V30 3684 H 356.548 -3.81454 1.66229 0
M  V30 3685 H 355.424 -5.19289 1.77848 0
M  V30 3686 H 355.685 -4.41526 0.22521 0
M  V30 3687 N 354.744 -0.972509 -1.24016 0
M  V30 3688 C 355.707 -0.511403 -2.23422 0
M  V30 3689 C 356.707 0.394679 -1.55881 0
M  V30 3690 O 357.897 0.189469 -1.73167 0
M  V30 3691 C 355.029 0.258769 -3.39916 0
M  V30 3692 H 356.222 -1.39024 -2.6573 0
M  V30 3693 H 353.775 -0.757585 -1.36713 0
M  V30 3694 H 354.51 1.1545 -3.03054 0
M  V30 3695 H 354.295 -0.391522 -3.9014 0
M  V30 3696 H 355.785 0.570244 -4.13688 0
M  V30 3697 N 356.222 1.38976 -0.743202 0
M  V30 3698 C 357.152 2.33171 -0.123873 0
M  V30 3699 C 358.133 1.54336 0.71516 0
M  V30 3700 O 359.318 1.82696 0.658467 0
M  V30 3701 C 356.448 3.38474 0.777978 0
M  V30 3702 C 355.402 4.27979 0.0424758 0
M  V30 3703 C 354.728 5.2405 1.06189 0
M  V30 3704 C 356.028 5.10155 -1.1198 0
M  V30 3705 H 357.722 2.85213 -0.910709 0
M  V30 3706 H 355.268 1.37133 -0.439388 0
M  V30 3707 H 357.221 4.03328 1.22084 0
M  V30 3708 H 355.945 2.84891 1.59702 0
M  V30 3709 H 354.604 3.64616 -0.380853 0
M  V30 3710 H 354.252 4.66758 1.87472 0
M  V30 3711 H 353.952 5.84785 0.574485 0
M  V30 3712 H 355.476 5.9178 1.50428 0
M  V30 3713 H 356.89 5.68307 -0.75499 0
M  V30 3714 H 355.287 5.80073 -1.53738 0
M  V30 3715 H 356.357 4.44504 -1.93764 0
M  V30 3716 N 357.7 0.491464 1.49741 0
M  V30 3717 C 359.116 0.146835 1.58923 0
M  V30 3718 C 359.316 -1.34804 1.49767 0
M  V30 3719 O 358.372 -2.12317 1.36667 0
M  V30 3720 C 359.685 0.715157 2.92072 0
M  V30 3721 C 361.233 0.680407 3.05515 0
M  V30 3722 C 361.708 1.22663 4.41269 0
M  V30 3723 N 363.199 1.18691 4.47735 0
M  V30 3724 C 363.934 1.57984 5.51207 0
M  V30 3725 N 363.43 2.04824 6.6183 0
M  V30 3726 N 365.223 1.49459 5.41866 0
M  V30 3727 H 357.374 1.46347 1.53936 0
M  V30 3728 H 359.637 0.606453 0.728642 0
M  V30 3729 H 359.343 1.76317 3.04311 0
M  V30 3730 H 359.217 0.17018 3.76816 0
M  V30 3731 H 361.604 -0.358743 2.92911 0
M  V30 3732 H 361.685 1.26242 2.22478 0
M  V30 3733 H 361.329 2.26451 4.54623 0
M  V30 3734 H 361.259 0.620637 5.2293 0
M  V30 3735 H 363.75 0.843605 3.68364 0
M  V30 3736 H 364.063 2.32901 7.3687 0
M  V30 3737 H 362.408 2.08791 6.62896 0
M  V30 3738 H 365.599 1.12692 4.54333 0
M  V30 3739 H 365.772 1.80406 6.22381 0
M  V30 3740 N 359.178 -1.55987 0.224894 0
M  V30 3741 C 360.088 -2.24066 -0.69511 0
M  V30 3742 C 361.104 -1.24939 -1.21104 0
M  V30 3743 O 362.28 -1.5776 -1.25195 0
M  V30 3744 C 359.345 -2.90983 -1.88493 0
M  V30 3745 C 358.406 -4.05462 -1.41064 0
M  V30 3746 C 357.639 -4.69179 -2.54375 0
M  V30 3747 O 357.862 -4.31895 -3.72589 0
M  V30 3748 O 356.796 -5.58108 -2.25386 0
M  V30 3749 H 360.622 -3.03353 -0.145149 0
M  V30 3750 H 358.207 -1.49399 -0.00569476 0
M  V30 3751 H 360.089 -3.33209 -2.57972 0
M  V30 3752 H 358.764 -2.14653 -2.42293 0
M  V30 3753 H 357.671 -3.67798 -0.683774 0
M  V30 3754 H 359.004 -4.83545 -0.918985 0
M  V30 3755 N 360.656 0.0484629 -1.57525 0
M  V30 3756 C 361.905 0.742065 -1.87553 0
M  V30 3757 C 362.218 1.77545 -0.820802 0
M  V30 3758 O 363.424 2.52027 -1.00967 0
M  V30 3759 C 361.88 1.37081 -3.32771 0
M  V30 3760 C 361.488 0.374786 -4.4643 0
M  V30 3761 C 363.232 2.04542 -3.71972 0
M  V30 3762 C 361.139 1.01077 -5.82698 0
M  V30 3763 H 360.069 0.280903 -0.699721 0
M  V30 3764 H 362.72 -0.00411877 -1.835 0
M  V30 3765 H 361.102 2.16605 -3.31509 0
M  V30 3766 H 362.276 -0.392331 -4.59127 0
M  V30 3767 H 360.591 -0.196653 -4.15935 0
M  V30 3768 H 363.188 2.52943 -4.71088 0
M  V30 3769 H 363.531 2.85515 -3.02964 0
M  V30 3770 H 364.064 1.31819 -3.75325 0
M  V30 3771 H 360.803 0.240878 -6.55057 0
M  V30 3772 H 360.323 1.74819 -5.73758 0
M  V30 3773 H 362.002 1.52383 -6.28799 0
M  V30 3774 N 362.134 1.5431 0.320358 0
M  V30 3775 C 363.374 1.74395 1.0661 0
M  V30 3776 C 363.738 0.508602 1.85141 0
M  V30 3777 O 364.939 0.586856 2.62316 0
M  V30 3778 C 363.21 2.98619 1.96371 0
M  V30 3779 S 364.769 3.39621 2.77854 0
M  V30 3780 H 361.587 0.613204 0.359863 0
M  V30 3781 H 364.189 1.9249 0.341727 0
M  V30 3782 H 362.893 3.86673 1.3752 0
M  V30 3783 H 362.424 2.83055 2.73209 0
M  V30 3784 H 364.439 2.95172 3.98858 0
M  V30 3785 N 363.613 -0.582584 1.46437 0
M  V30 3786 C 364.523 -1.71949 1.59595 0
M  V30 3787 C 365.539 -1.67264 0.479443 0
M  V30 3788 O 366.715 -1.87171 0.743579 0
M  V30 3789 C 363.78 -3.08452 1.58298 0
M  V30 3790 C 362.841 -3.244 2.81182 0
M  V30 3791 C 362.074 -4.54391 2.79937 0
M  V30 3792 O 362.297 -5.38287 1.8869 0
M  V30 3793 O 361.231 -4.73588 3.71481 0
M  V30 3794 H 365.057 -1.63795 2.55744 0
M  V30 3795 H 362.642 -0.749643 1.29231 0
M  V30 3796 H 364.524 -3.89732 1.60271 0
M  V30 3797 H 363.199 -3.17043 0.653094 0
M  V30 3798 H 362.106 -2.42613 2.84763 0
M  V30 3799 H 363.439 -3.20699 3.7338 0
M  V30 3800 N 365.091 -1.34144 -0.827227 0
M  V30 3801 C 366.038 -1.25364 -1.93785 0
M  V30 3802 C 367.008 -0.129774 -1.65592 0
M  V30 3803 O 368.193 -0.310024 -1.88264 0
M  V30 3804 C 365.333 -1.01064 -3.2997 0
M  V30 3805 C 364.446 -2.22185 -3.70484 0
M  V30 3806 C 363.581 -1.91203 -4.95595 0
M  V30 3807 C 362.62 -3.08491 -5.28677 0
M  V30 3808 N 361.757 -2.77421 -6.44967 0
M  V30 3809 H 366.597 -2.20347 -2.00627 0
M  V30 3810 H 364.134 -1.09558 -0.981608 0
M  V30 3811 H 366.092 -0.850139 -4.08446 0
M  V30 3812 H 364.722 -0.0975026 -3.22653 0
M  V30 3813 H 363.774 -2.4917 -2.87434 0
M  V30 3814 H 365.086 -3.0983 -3.90905 0
M  V30 3815 H 364.24 -1.71864 -5.81848 0
M  V30 3816 H 362.979 -1.00812 -4.77167 0
M  V30 3817 H 361.984 -3.28431 -4.40923 0
M  V30 3818 H 363.209 -3.99655 -5.49047 0
M  V30 3819 H 361.155 -1.89601 -6.28003 0
M  V30 3820 H 361.072 -3.58598 -6.6554 0
M  V30 3821 H 362.34 -2.61577 -7.34301 0
M  V30 3822 N 366.569 1.04691 -1.17803 0
M  V30 3823 C 367.502 2.12068 -0.842765 0
M  V30 3824 C 368.48 1.61455 0.192608 0
M  V30 3825 O 369.664 1.88359 0.072995 0
M  V30 3826 C 366.791 3.37715 -0.258063 0
M  V30 3827 C 365.837 4.07164 -1.26962 0
M  V30 3828 S 366.67 4.55047 -2.82299 0
M  V30 3829 C 367.826 5.83935 -2.25323 0
M  V30 3830 H 368.059 2.4018 -1.75217 0
M  V30 3831 H 365.592 1.17366 -1.00323 0
M  V30 3832 H 367.55 4.10435 0.0727935 0
M  V30 3833 H 366.211 3.0773 0.629357 0
M  V30 3834 H 365.404 4.9746 -0.809263 0
M  V30 3835 H 365.006 3.40533 -1.54639 0
M  V30 3836 H 367.298 6.57552 -1.63192 0
M  V30 3837 H 368.241 6.34725 -3.13894 0
M  V30 3838 H 368.649 5.3874 -1.68582 0
M  V30 3839 N 368.047 0.979072 1.23499 0
M  V30 3840 C 368.957 0.526431 2.28617 0
M  V30 3841 C 369.973 -0.418126 1.68901 0
M  V30 3842 O 371.149 -0.288372 1.99325 0
M  V30 3843 C 368.214 -0.165235 3.46306 0
M  V30 3844 C 367.275 0.82056 4.21385 0
M  V30 3845 C 366.508 0.161807 5.33455 0
M  V30 3846 O 366.731 -1.04742 5.60701 0
M  V30 3847 O 365.665 0.859708 5.95729 0
M  V30 3848 H 369.491 1.4006 2.69475 0
M  V30 3849 H 367.076 0.746643 1.29405 0
M  V30 3850 H 368.958 -0.553287 4.17752 0
M  V30 3851 H 367.633 -1.01419 3.07402 0
M  V30 3852 H 366.54 1.25929 3.52268 0
M  V30 3853 H 367.873 1.63828 4.64135 0
M  V30 3854 N 369.525 -1.3858 0.750561 0
M  V30 3855 C 370.472 -2.30483 0.120835 0
M  V30 3856 C 371.442 -1.50022 -0.712923 0
M  V30 3857 O 372.627 -1.78662 -0.669676 0
M  V30 3858 C 369.767 -3.36431 -0.768666 0
M  V30 3859 C 368.88 -4.31927 0.0793922 0
M  V30 3860 C 368.015 -5.24944 -0.81283 0
M  V30 3861 C 367.054 -6.12088 0.0390447 0
M  V30 3862 N 366.191 -6.97412 -0.809969 0
M  V30 3863 H 371.031 -2.83761 0.91015 0
M  V30 3864 H 368.568 -1.39707 0.460463 0
M  V30 3865 H 370.526 -3.96462 -1.29898 0
M  V30 3866 H 369.156 -2.8457 -1.5238 0
M  V30 3867 H 368.208 -3.73382 0.727303 0
M  V30 3868 H 369.52 -4.93319 0.737401 0
M  V30 3869 H 368.674 -5.90078 -1.41042 0
M  V30 3870 H 367.413 -4.63911 -1.50458 0
M  V30 3871 H 366.418 -5.45952 0.649328 0
M  V30 3872 H 367.643 -6.75189 0.727809 0
M  V30 3873 H 365.589 -6.38931 -1.48672 0
M  V30 3874 H 365.506 -7.55712 -0.208789 0
M  V30 3875 H 366.774 -7.66959 -1.39263 0
M  V30 3876 N 371.003 -0.499398 -1.49478 0
M  V30 3877 C 372.28 0.108629 -1.95298 0
M  V30 3878 C 372.66 1.54282 -1.44084 0
M  V30 3879 O 372.008 2.18944 -0.653908 0
M  V30 3880 C 372.218 0.0229111 -3.48992 0
M  V30 3881 C 373.566 0.197643 -4.2414 0
M  V30 3882 O 374.59 0.0981735 -3.56065 0
M  V30 3883 O 373.449 0.401669 -5.45022 0
M  V30 3884 H 370.543 0.096181 -0.821388 0
M  V30 3885 H 373.089 -0.561822 -1.6013 0
M  V30 3886 H 371.861 -0.977321 -3.78899 0
M  V30 3887 H 371.484 0.733579 -3.90774 0
M  V30 3888 N 372.481 1.55866 -0.233164 0
M  V30 3889 C 373.729 1.9821 0.394593 0
M  V30 3890 C 374.05 1.12234 1.59463 0
M  V30 3891 O 373.32 0.201981 1.94856 0
M  V30 3892 H 371.9 0.732034 0.148778 0
M  V30 3893 H 374.562 1.92107 -0.32876 0
M  V30 3894 H 373.658 3.03845 0.713063 0
M  V30 3895 N 373.959 -0.0401083 1.57549 0
M  V30 3896 C 374.891 -1.07149 2.02612 0
M  V30 3897 C 375.904 -1.33126 0.937085 0
M  V30 3898 O 377.093 -1.30808 1.21456 0
M  V30 3899 C 374.193 -2.41561 2.37701 0
M  V30 3900 C 373.366 -2.35096 3.68848 0
M  V30 3901 C 372.425 -3.51867 3.91249 0
M  V30 3902 O 371.451 -3.3186 4.62447 0
M  V30 3903 N 372.653 -4.73351 3.36035 0
M  V30 3904 H 375.418 -0.687485 2.91708 0
M  V30 3905 H 372.979 -0.228248 1.60283 0
M  V30 3906 H 374.971 -3.18379 2.49833 0
M  V30 3907 H 373.541 -2.71846 1.54332 0
M  V30 3908 H 372.761 -1.4345 3.67173 0
M  V30 3909 H 374.049 -2.27908 4.54901 0
M  V30 3910 H 373.447 -4.92507 2.78304 0
M  V30 3911 H 372.004 -5.47572 3.53565 0
M  V30 3912 N 375.437 -1.54477 -0.31217 0
M  V30 3913 C 376.367 -1.87652 -1.38957 0
M  V30 3914 C 377.348 -0.734358 -1.53431 0
M  V30 3915 O 378.533 -0.98911 -1.67123 0
M  V30 3916 C 375.663 -2.11396 -2.75552 0
M  V30 3917 C 374.617 -3.27243 -2.75855 0
M  V30 3918 C 373.943 -3.36382 -4.15633 0
M  V30 3919 C 375.243 -4.64622 -2.38587 0
M  V30 3920 H 376.937 -2.77887 -1.11442 0
M  V30 3921 H 374.483 -1.33707 -0.534655 0
M  V30 3922 H 376.436 -2.33189 -3.51 0
M  V30 3923 H 375.16 -1.17921 -3.04569 0
M  V30 3924 H 373.819 -3.05356 -2.02863 0
M  V30 3925 H 373.467 -2.40445 -4.41809 0
M  V30 3926 H 373.167 -4.14249 -4.1674 0
M  V30 3927 H 374.691 -3.60422 -4.92877 0
M  V30 3928 H 376.105 -4.86219 -3.03749 0
M  V30 3929 H 374.502 -5.45121 -2.50925 0
M  V30 3930 H 375.572 -4.66097 -1.33723 0
M  V30 3931 N 376.915 0.57481 -1.46744 0
M  V30 3932 C 377.825 1.711 -1.60505 0
M  V30 3933 C 378.841 1.67008 -0.488307 0
M  V30 3934 O 380.017 1.86774 -0.753495 0
M  V30 3935 C 377.082 3.07608 -1.59932 0
M  V30 3936 C 376.143 3.22904 -2.82898 0
M  V30 3937 C 375.376 4.529 -2.82343 0
M  V30 3938 O 375.599 5.37278 -1.91542 0
M  V30 3939 O 374.533 4.71611 -3.73987 0
M  V30 3940 H 378.359 1.62436 -2.56609 0
M  V30 3941 H 375.944 0.742779 -1.29627 0
M  V30 3942 H 377.826 3.88877 -1.62336 0
M  V30 3943 H 376.501 3.16692 -0.669898 0
M  V30 3944 H 375.408 2.41099 -2.86046 0
M  V30 3945 H 376.741 3.18715 -3.75076 0
M  V30 3946 N 378.394 1.34581 0.820102 0
M  V30 3947 C 379.304 1.28471 1.96297 0
M  V30 3948 C 380.32 0.191902 1.72939 0
M  V30 3949 O 381.496 0.418879 1.96996 0
M  V30 3950 C 378.561 1.04281 3.30645 0
M  V30 3951 C 377.622 2.22745 3.66992 0
M  V30 3952 C 376.855 1.997 4.9493 0
M  V30 3953 O 377.078 0.956656 5.6232 0
M  V30 3954 O 376.012 2.86723 5.2922 0
M  V30 3955 H 379.838 2.24624 2.04396 0
M  V30 3956 H 377.423 1.14816 0.955913 0
M  V30 3957 H 379.305 0.925841 4.11104 0
M  V30 3958 H 377.98 0.111697 3.23507 0
M  V30 3959 H 376.887 2.40003 2.86966 0
M  V30 3960 H 378.22 3.14257 3.78819 0
M  V30 3961 N 379.872 -1.04064 1.18357 0
M  V30 3962 C 380.835 -2.10243 0.912707 0
M  V30 3963 C 381.835 -1.60477 -0.101928 0
M  V30 3964 O 383.025 -1.73703 0.131517 0
M  V30 3965 C 380.157 -3.38893 0.369387 0
M  V30 3966 H 381.35 -2.35706 1.85426 0
M  V30 3967 H 378.903 -1.20489 0.995594 0
M  V30 3968 H 379.638 -3.19094 -0.578776 0
M  V30 3969 H 379.423 -3.76331 1.1008 0
M  V30 3970 H 380.913 -4.17128 0.198575 0
M  V30 3971 N 381.35 -0.985608 -1.22978 0
M  V30 3972 C 382.761 -0.693593 -1.73338 0
M  V30 3973 C 383.112 0.789935 -1.79595 0
M  V30 3974 O 382.237 1.61771 -1.43733 0
M  V30 3975 C 382.832 -1.25235 -3.14804 0
M  V30 3976 C 381.391 -1.00987 -3.626 0
M  V30 3977 C 380.538 -1.37695 -2.40698 0
M  V30 3978 H 383.489 -1.15884 -1.08428 0
M  V30 3979 H 383.51 -0.627329 -3.75293 0
M  V30 3980 H 383.022 -2.33209 -3.10218 0
M  V30 3981 H 381.123 0.0535565 -3.72562 0
M  V30 3982 H 381.236 -1.66812 -4.49122 0
M  V30 3983 H 379.6 -0.795459 -2.4196 0
M  V30 3984 H 380.383 -2.46657 -2.38779 0
M  V30 3985 N 382.828 1.3818 -0.7579 0
M  V30 3986 C 384.239 1.82726 -0.383134 0
M  V30 3987 C 384.59 1.63214 1.08884 0
M  V30 3988 O 383.715 1.13566 1.84205 0
M  V30 3989 C 384.31 3.31728 -0.688631 0
M  V30 3990 C 382.869 3.74606 -0.367091 0
M  V30 3991 C 382.016 2.60896 -0.939599 0
M  V30 3992 H 384.967 1.26847 -0.953699 0
M  V30 3993 H 384.988 3.80487 0.0316492 0
M  V30 3994 H 384.5 3.45898 -1.76001 0
M  V30 3995 H 382.601 3.66013 0.697532 0
M  V30 3996 H 382.714 4.71215 -0.865658 0
M  V30 3997 H 381.078 2.52075 -0.3647 0
M  V30 3998 H 381.861 2.77864 -2.0161 0
M  V30 3999 N 384.306 0.507319 1.49211 0
M  V30 4000 C 385.534 -0.0315749 2.06876 0
M  V30 4001 C 385.949 -1.30241 1.36685 0
M  V30 4002 O 385.306 -1.76937 0.447152 0
M  V30 4003 C 385.357 -0.282627 3.60393 0
M  V30 4004 O 385.078 0.937835 4.27944 0
M  V30 4005 C 386.579 -0.864453 4.3479 0
M  V30 4006 H 383.799 0.0233048 0.670595 0
M  V30 4007 H 386.343 0.706484 1.91909 0
M  V30 4008 H 384.498 -0.97068 3.75042 0
M  V30 4009 H 384.912 0.704567 5.19746 0
M  V30 4010 H 386.386 -0.989664 5.43056 0
M  V30 4011 H 386.863 -1.86382 3.97692 0
M  V30 4012 H 387.469 -0.213672 4.24763 0
M  V30 4013 N 385.784 -1.5574 0.241426 0
M  V30 4014 C 386.732 -2.22538 -0.676718 0
M  V30 4015 C 387.726 -1.21117 -1.18436 0
M  V30 4016 O 388.932 -1.39144 -1.14188 0
M  V30 4017 H 385.307 -0.713776 -0.236701 0
M  V30 4018 H 387.278 -2.98264 -0.0901187 0
M  V30 4019 C 386.027 -2.93439 -1.86518 0
M  V30 4020 H 385.35 -3.7125 -1.4837 0
M  V30 4021 H 386.79 -3.43549 -2.48495 0
M  V30 4022 C 385.249 -1.97008 -2.73294 0
M  V30 4023 O 385.779 -1.49965 -3.72657 0
M  V30 4024 N 383.985 -1.64227 -2.39745 0
M  V30 4025 H 383.532 -2.02677 -1.58996 0
M  V30 4026 H 383.49 -0.999708 -2.98083 0
M  V30 4027 N 387.262 0.0317525 -1.57568 0
M  V30 4028 C 388.673 0.578692 -1.77505 0
M  V30 4029 C 389.024 1.75749 -0.872164 0
M  V30 4030 O 388.149 2.16298 -0.0663106 0
M  V30 4031 C 388.744 1.05658 -3.21904 0
M  V30 4032 C 387.303 1.54906 -3.43047 0
M  V30 4033 C 386.45 0.485939 -2.73009 0
M  V30 4034 H 389.401 -0.194475 -1.57504 0
M  V30 4035 H 389.422 1.92404 -3.28269 0
M  V30 4036 H 388.934 0.198422 -3.87592 0
M  V30 4037 H 387.035 2.42915 -2.82529 0
M  V30 4038 H 387.148 1.59841 -4.5165 0
M  V30 4039 H 385.512 0.940354 -2.36705 0
M  V30 4040 H 386.295 -0.362709 -3.41379 0
M  V30 4041 N 388.74 1.54641 0.303973 0
M  V30 4042 C 389.97 1.77511 1.05705 0
M  V30 4043 C 390.378 0.533228 1.81531 0
M  V30 4044 O 389.721 -0.506423 1.76582 0
M  V30 4045 C 389.783 2.92779 2.08617 0
M  V30 4046 C 389.447 4.30977 1.52013 0
M  V30 4047 C 390.444 5.11115 0.9517 0
M  V30 4048 C 388.129 4.77571 1.55665 0
M  V30 4049 C 390.123 6.35966 0.427327 0
M  V30 4050 C 387.81 6.02384 1.02841 0
M  V30 4051 C 388.808 6.81417 0.464713 0
M  V30 4052 O 388.496 8.03881 -0.0555283 0
M  V30 4053 H 388.228 0.59579 0.319391 0
M  V30 4054 H 390.782 2.02401 0.349712 0
M  V30 4055 H 389.012 2.63506 2.83022 0
M  V30 4056 H 390.701 3.03252 2.69802 0
M  V30 4057 H 391.467 4.76264 0.916407 0
M  V30 4058 H 387.346 4.16085 1.9848 0
M  V30 4059 H 390.89 6.97599 -0.0133062 0
M  V30 4060 H 386.787 6.36723 1.06084 0
M  V30 4061 H 387.555 8.18479 0.0580522 0
M  V30 4062 N 390.218 -0.567019 1.47046 0
M  V30 4063 C 391.166 -1.69593 1.59188 0
M  V30 4064 C 392.16 -1.63046 0.459609 0
M  V30 4065 O 393.366 -1.6835 0.637058 0
M  V30 4066 H 389.741 -0.560993 0.500791 0
M  V30 4067 H 391.712 -1.56488 2.54075 0
M  V30 4068 C 390.461 -3.07964 1.61411 0
M  V30 4069 H 389.784 -3.13679 2.47881 0
M  V30 4070 H 391.224 -3.86671 1.73958 0
M  V30 4071 C 389.683 -3.35123 0.34559 0
M  V30 4072 O 390.213 -3.97812 -0.557521 0
M  V30 4073 N 388.419 -2.89699 0.22864 0
M  V30 4074 H 387.966 -2.38863 0.964479 0
M  V30 4075 H 387.924 -3.08242 -0.619192 0
M  V30 4076 N 391.696 -1.35014 -0.812953 0
M  V30 4077 C 392.924 -1.31031 -1.6012 0
M  V30 4078 C 393.339 0.113558 -1.88458 0
M  V30 4079 O 392.696 1.06363 -1.48301 0
M  V30 4080 C 392.747 -2.10872 -2.93624 0
M  V30 4081 O 392.468 -3.47706 -2.66518 0
M  V30 4082 C 393.969 -2.14401 -3.88004 0
M  V30 4083 H 391.189 -0.45037 -0.497401 0
M  V30 4084 H 393.733 -1.77775 -1.01076 0
M  V30 4085 H 391.888 -1.67744 -3.492 0
M  V30 4086 H 392.302 -3.89097 -3.51715 0
M  V30 4087 H 393.776 -2.74669 -4.78812 0
M  V30 4088 H 394.253 -1.14105 -4.24119 0
M  V30 4089 H 394.859 -2.57662 -3.38364 0
M  V30 4090 N 393.175 1.03435 -1.18907 0
M  V30 4091 C 394.586 1.58195 -0.991523 0
M  V30 4092 C 394.937 1.90801 0.457081 0
M  V30 4093 O 394.062 1.70272 1.33553 0
M  V30 4094 C 394.657 2.87432 -1.79355 0
M  V30 4095 C 393.216 3.38785 -1.64017 0
M  V30 4096 C 392.363 2.12292 -1.78402 0
M  V30 4097 H 395.314 0.860299 -1.33359 0
M  V30 4098 H 395.335 3.58096 -1.28638 0
M  V30 4099 H 394.847 2.63669 -2.84781 0
M  V30 4100 H 392.948 3.67547 -0.611536 0
M  V30 4101 H 393.061 4.12186 -2.44212 0
M  V30 4102 H 391.425 2.23901 -1.2141 0
M  V30 4103 H 392.208 1.90977 -2.85277 0
M  V30 4104 N 394.653 0.992116 1.22453 0
M  V30 4105 C 395.881 0.685944 1.95198 0
M  V30 4106 C 396.296 -0.749233 1.73297 0
M  V30 4107 O 395.653 -1.50549 1.03156 0
M  V30 4108 C 395.704 0.981395 3.47924 0
M  V30 4109 O 395.425 2.36018 3.6909 0
M  V30 4110 C 396.926 0.692815 4.37853 0
M  V30 4111 H 394.146 0.253821 0.621141 0
M  V30 4112 H 396.69 1.32668 1.55626 0
M  V30 4113 H 394.845 0.386481 3.85467 0
M  V30 4114 H 395.259 2.45884 4.63294 0
M  V30 4115 H 396.733 0.949818 5.43767 0
M  V30 4116 H 397.21 -0.373181 4.37612 0
M  V30 4117 H 397.816 1.26874 4.05935 0
M  V30 4118 N 396.131 -1.37776 0.765217 0
M  V30 4119 C 397.378 -1.99849 0.326588 0
M  V30 4120 C 397.706 -1.60746 -1.09504 0
M  V30 4121 O 396.961 -0.84202 -1.76659 0
M  V30 4122 C 397.26 -3.5504 0.410053 0
M  V30 4123 C 396.926 -4.13891 1.78899 0
M  V30 4124 C 395.588 -4.29678 2.16635 0
M  V30 4125 C 397.94 -4.46236 2.69301 0
M  V30 4126 C 395.268 -4.7511 3.44221 0
M  V30 4127 C 397.62 -4.93089 3.9629 0
M  V30 4128 C 396.284 -5.07082 4.34078 0
M  V30 4129 H 395.554 -0.7313 0.119507 0
M  V30 4130 H 398.201 -1.64645 0.977968 0
M  V30 4131 H 396.506 -3.90451 -0.324878 0
M  V30 4132 H 398.203 -4.00966 0.0520699 0
M  V30 4133 H 394.793 -4.02026 1.48569 0
M  V30 4134 H 398.977 -4.3363 2.41409 0
M  V30 4135 H 394.233 -4.84129 3.73402 0
M  V30 4136 H 398.407 -5.17084 4.66472 0
M  V30 4137 H 396.034 -5.42046 5.33001 0
M  V30 4138 N 397.609 -0.515225 -1.4894 0
M  V30 4139 C 398.572 0.244681 -2.2789 0
M  V30 4140 C 399.572 0.881166 -1.34507 0
M  V30 4141 O 400.762 0.743497 -1.57537 0
M  V30 4142 C 397.894 1.35247 -3.12923 0
M  V30 4143 H 399.087 -0.448289 -2.96531 0
M  V30 4144 H 396.64 -0.270656 -1.53939 0
M  V30 4145 H 397.375 2.07916 -2.48881 0
M  V30 4146 H 397.16 0.901374 -3.81599 0
M  V30 4147 H 398.65 1.88737 -3.72516 0
M  V30 4148 N 399.087 1.5561 -0.249682 0
M  V30 4149 C 400.336 1.98187 0.37479 0
M  V30 4150 C 400.649 1.14111 1.58865 0
M  V30 4151 O 401.855 1.46714 2.28445 0
M  V30 4152 C 400.311 3.52661 0.718192 0
M  V30 4153 C 399.919 4.45481 -0.474428 0
M  V30 4154 C 401.663 4.03888 1.3067 0
M  V30 4155 C 399.57 5.91303 -0.107026 0
M  V30 4156 H 398.5 0.740159 0.143808 0
M  V30 4157 H 401.151 1.80125 -0.350336 0
M  V30 4158 H 399.533 3.66429 1.50152 0
M  V30 4159 H 400.707 4.43473 -1.25172 0
M  V30 4160 H 399.022 4.04751 -0.978052 0
M  V30 4161 H 401.619 5.10358 1.59496 0
M  V30 4162 H 401.962 3.51401 2.23211 0
M  V30 4163 H 402.495 3.93457 0.586211 0
M  V30 4164 H 399.234 6.47833 -0.999642 0
M  V30 4165 H 398.754 5.9644 0.634013 0
M  V30 4166 H 400.433 6.46258 0.309807 0
M  V30 4167 N 400.565 -0.0233959 1.57583 0
M  V30 4168 C 401.512 -1.02224 2.06927 0
M  V30 4169 C 402.482 -1.35575 0.959617 0
M  V30 4170 O 403.667 -1.45815 1.23055 0
M  V30 4171 C 400.807 -2.31636 2.5581 0
M  V30 4172 C 399.92 -2.04394 3.80588 0
M  V30 4173 C 399.055 -3.27717 4.18061 0
M  V30 4174 C 398.094 -2.96056 5.3574 0
M  V30 4175 N 397.231 -4.11847 5.68618 0
M  V30 4176 H 402.071 -0.594504 2.9201 0
M  V30 4177 H 399.608 -0.281921 1.44373 0
M  V30 4178 H 401.566 -3.07258 2.82221 0
M  V30 4179 H 400.196 -2.72122 1.73636 0
M  V30 4180 H 399.248 -1.19244 3.61227 0
M  V30 4181 H 400.56 -1.77042 4.66323 0
M  V30 4182 H 399.714 -4.11702 4.4563 0
M  V30 4183 H 398.453 -3.58188 3.30988 0
M  V30 4184 H 397.458 -2.10474 5.07918 0
M  V30 4185 H 398.683 -2.66857 6.24471 0
M  V30 4186 H 396.629 -4.42258 4.84504 0
M  V30 4187 H 396.546 -3.87938 6.48876 0
M  V30 4188 H 397.814 -4.96689 6.00766 0
M  V30 4189 N 402.043 -1.548 -0.295768 0
M  V30 4190 C 402.99 -1.86113 -1.36494 0
M  V30 4191 C 403.96 -0.7105 -1.50137 0
M  V30 4192 O 405.145 -0.959626 -1.64912 0
M  V30 4193 C 402.285 -2.11861 -2.72413 0
M  V30 4194 C 401.398 -3.39471 -2.67177 0
M  V30 4195 C 400.533 -3.55035 -3.95125 0
M  V30 4196 C 399.572 -4.76418 -3.84308 0
M  V30 4197 N 398.709 -4.8876 -5.04042 0
M  V30 4198 H 403.549 -2.77314 -1.09091 0
M  V30 4199 H 401.086 -1.37315 -0.52753 0
M  V30 4200 H 403.044 -2.24786 -3.51464 0
M  V30 4201 H 401.674 -1.2392 -2.98066 0
M  V30 4202 H 400.726 -3.35139 -1.79962 0
M  V30 4203 H 402.038 -4.28646 -2.55076 0
M  V30 4204 H 401.192 -3.67653 -4.82614 0
M  V30 4205 H 399.931 -2.64002 -4.10066 0
M  V30 4206 H 398.936 -4.63827 -2.95202 0
M  V30 4207 H 400.161 -5.68863 -3.70906 0
M  V30 4208 H 398.107 -4.00652 -5.19436 0
M  V30 4209 H 398.024 -5.71945 -4.94384 0
M  V30 4210 H 399.292 -5.0574 -5.93167 0
M  V30 4211 N 403.521 0.559213 -1.47345 0
M  V30 4212 C 404.468 1.66645 -1.59682 0
M  V30 4213 C 405.438 1.60168 -0.43994 0
M  V30 4214 O 406.623 1.79031 -0.659736 0
M  V30 4215 C 403.763 3.04969 -1.61518 0
M  V30 4216 C 402.876 3.21897 -2.88108 0
M  V30 4217 C 402.011 4.50608 -2.81294 0
M  V30 4218 C 401.05 4.60961 -4.02717 0
M  V30 4219 N 400.187 5.81024 -3.94151 0
M  V30 4220 H 405.027 1.55439 -2.54249 0
M  V30 4221 H 402.564 0.757219 -1.26113 0
M  V30 4222 H 404.522 3.85064 -1.60566 0
M  V30 4223 H 403.152 3.15015 -0.704645 0
M  V30 4224 H 402.204 2.35248 -2.98936 0
M  V30 4225 H 403.516 3.25412 -3.78032 0
M  V30 4226 H 402.67 5.3896 -2.7858 0
M  V30 4227 H 401.409 4.49568 -1.89049 0
M  V30 4228 H 400.414 3.71021 -4.05738 0
M  V30 4229 H 401.639 4.63761 -4.96087 0
M  V30 4230 H 399.585 5.80938 -3.04708 0
M  V30 4231 H 399.502 5.85909 -4.77752 0
M  V30 4232 H 400.77 6.71744 -3.9545 0
M  V30 4233 N 404.999 1.35443 0.805782 0
M  V30 4234 C 406.276 1.19325 1.54987 0
M  V30 4235 C 406.656 -0.227294 2.09873 0
M  V30 4236 O 406.004 -1.2309 1.92512 0
M  V30 4237 C 406.214 2.26196 2.65775 0
M  V30 4238 C 407.562 2.62043 3.34094 0
M  V30 4239 O 408.586 2.25115 2.76046 0
M  V30 4240 O 407.445 3.25542 4.38958 0
M  V30 4241 H 404.539 0.463623 0.684823 0
M  V30 4242 H 407.085 1.47127 0.845674 0
M  V30 4243 H 405.857 3.21471 2.23096 0
M  V30 4244 H 405.48 1.99667 3.43829 0
M  V30 4245 N 406.477 -1.02803 1.19454 0
M  V30 4246 C 407.424 -2.11099 0.933046 0
M  V30 4247 C 408.394 -1.65571 -0.132447 0
M  V30 4248 O 409.579 -1.90797 0.00987576 0
M  V30 4249 C 406.719 -3.41763 0.478747 0
M  V30 4250 C 405.832 -4.00833 1.6111 0
M  V30 4251 C 404.967 -5.19511 1.10825 0
M  V30 4252 C 404.006 -5.70639 2.21445 0
M  V30 4253 N 403.143 -6.80589 1.72461 0
M  V30 4254 H 407.983 -2.32804 1.86028 0
M  V30 4255 H 405.52 -1.14179 0.927441 0
M  V30 4256 H 407.478 -4.16736 0.196745 0
M  V30 4257 H 406.108 -3.20166 -0.411493 0
M  V30 4258 H 405.16 -3.23066 2.00829 0
M  V30 4259 H 406.472 -4.34794 2.4445 0
M  V30 4260 H 405.626 -6.01645 0.781533 0
M  V30 4261 H 404.365 -4.87086 0.244606 0
M  V30 4262 H 403.37 -4.87116 2.54947 0
M  V30 4263 H 404.595 -6.05102 3.08267 0
M  V30 4264 H 402.541 -6.50016 0.884056 0
M  V30 4265 H 402.458 -7.13681 2.49389 0
M  V30 4266 H 403.726 -7.66317 1.42755 0
M  V30 4267 N 407.956 -0.998596 -1.21925 0
M  V30 4268 C 408.904 -0.546641 -2.26085 0
M  V30 4269 C 409.898 0.405576 -1.64473 0
M  V30 4270 O 411.104 0.277471 -1.77849 0
M  V30 4271 H 407.479 -0.158403 -0.735127 0
M  V30 4272 H 409.45 -1.43645 -2.61551 0
M  V30 4273 C 408.199 0.117388 -3.47502 0
M  V30 4274 H 407.522 -0.606277 -3.95176 0
M  V30 4275 H 408.962 0.396993 -4.22137 0
M  V30 4276 C 407.421 1.35455 -3.0847 0
M  V30 4277 O 407.951 2.44944 -3.18379 0
M  V30 4278 N 406.157 1.23191 -2.63196 0
M  V30 4279 H 405.704 0.341006 -2.55333 0
M  V30 4280 H 405.662 2.06071 -2.37449 0
M  V30 4281 N 409.434 1.37368 -0.772513 0
M  V30 4282 C 410.381 2.30262 -0.157488 0
M  V30 4283 C 411.351 1.51137 0.688965 0
M  V30 4284 O 412.536 1.79704 0.641168 0
M  V30 4285 C 409.676 3.37611 0.715045 0
M  V30 4286 C 408.789 4.31746 -0.148098 0
M  V30 4287 C 407.924 5.26171 0.729213 0
M  V30 4288 C 406.963 6.11948 -0.136418 0
M  V30 4289 N 406.1 6.98613 0.698914 0
M  V30 4290 H 410.94 2.82277 -0.955179 0
M  V30 4291 H 408.477 1.38957 -0.482631 0
M  V30 4292 H 410.435 3.98479 1.23575 0
M  V30 4293 H 409.065 2.86959 1.47833 0
M  V30 4294 H 408.117 3.72178 -0.786613 0
M  V30 4295 H 409.429 4.92084 -0.81579 0
M  V30 4296 H 408.583 5.92247 1.31637 0
M  V30 4297 H 407.322 4.66246 1.43059 0
M  V30 4298 H 406.327 5.4485 -0.736102 0
M  V30 4299 H 407.552 6.73945 -0.835134 0
M  V30 4300 H 405.498 6.41215 1.38489 0
M  V30 4301 H 405.415 7.55948 0.0885358 0
M  V30 4302 H 406.683 7.69077 1.27044 0
M  V30 4303 N 410.912 0.523116 1.48665 0
M  V30 4304 C 412.158 -0.00540031 2.03399 0
M  V30 4305 C 412.513 -1.3264 1.39372 0
M  V30 4306 O 411.806 -1.84184 0.527916 0
M  V30 4307 C 412 -0.191671 3.56886 0
M  V30 4308 C 411.829 1.10972 4.35793 0
M  V30 4309 C 410.599 1.66769 4.76987 0
M  V30 4310 C 412.797 2.01861 4.73029 0
M  V30 4311 N 410.779 2.91268 5.40404 0
M  V30 4312 C 412.15 3.10937 5.36394 0
M  V30 4313 C 414.205 2.02271 4.54962 0
M  V30 4314 C 412.908 4.20478 5.83601 0
M  V30 4315 C 414.934 3.10802 5.03146 0
M  V30 4316 C 414.296 4.18597 5.6653 0
M  V30 4317 H 410.395 0.0393531 0.781009 0
M  V30 4318 H 412.979 0.702876 1.8157 0
M  V30 4319 H 411.15 -0.869025 3.78553 0
M  V30 4320 H 412.882 -0.719177 3.98259 0
M  V30 4321 H 409.637 1.20996 4.57883 0
M  V30 4322 H 410.061 3.54635 5.76683 0
M  V30 4323 H 414.703 1.2023 4.05345 0
M  V30 4324 H 412.421 5.03303 6.32228 0
M  V30 4325 H 416.007 3.12166 4.90962 0
M  V30 4326 H 414.887 5.01193 6.03138 0
M  V30 4327 N 412.39 -1.55475 0.257931 0
M  V30 4328 C 413.806 -1.59307 -0.0966563 0
M  V30 4329 C 414.006 -1.27514 -1.5602 0
M  V30 4330 O 413.062 -1.02774 -2.30637 0
M  V30 4331 C 414.375 -2.99552 0.262481 0
M  V30 4332 C 415.923 -3.1231 0.207683 0
M  V30 4333 C 416.398 -4.54793 0.541012 0
M  V30 4334 N 417.889 -4.6058 0.491921 0
M  V30 4335 C 418.624 -5.68825 0.722857 0
M  V30 4336 N 418.12 -6.85287 1.0175 0
M  V30 4337 N 419.913 -5.58296 0.652815 0
M  V30 4338 H 412.064 -1.74409 1.21224 0
M  V30 4339 H 414.327 -0.812424 0.48854 0
M  V30 4340 H 414.033 -3.27593 1.27967 0
M  V30 4341 H 413.907 -3.75019 -0.40508 0
M  V30 4342 H 416.294 -2.84044 -0.800195 0
M  V30 4343 H 416.375 -2.39095 0.909255 0
M  V30 4344 H 416.019 -4.83783 1.5465 0
M  V30 4345 H 415.949 -5.26285 -0.18216 0
M  V30 4346 H 418.44 -3.7691 0.273366 0
M  V30 4347 H 418.753 -7.63725 1.18084 0
M  V30 4348 H 417.098 -6.86945 1.05509 0
M  V30 4349 H 420.289 -4.66189 0.422592 0
M  V30 4350 H 420.462 -6.42582 0.836182 0
M  V30 4351 N 413.868 0.0150385 -1.57593 0
M  V30 4352 C 414.801 1.04475 -2.0288 0
M  V30 4353 C 415.779 1.3436 -0.915764 0
M  V30 4354 O 416.963 1.46779 -1.18271 0
M  V30 4355 C 414.09 2.37608 -2.41371 0
M  V30 4356 C 413.136 2.23487 -3.63257 0
M  V30 4357 S 413.969 1.57505 -5.11813 0
M  V30 4358 C 415.125 2.921 -5.5356 0
M  V30 4359 H 415.358 0.65907 -2.89903 0
M  V30 4360 H 412.891 0.225452 -1.52745 0
M  V30 4361 H 414.849 3.14165 -2.64217 0
M  V30 4362 H 413.51 2.7332 -1.54775 0
M  V30 4363 H 412.703 3.21802 -3.87891 0
M  V30 4364 H 412.305 1.55074 -3.40335 0
M  V30 4365 H 414.597 3.88419 -5.55101 0
M  V30 4366 H 415.54 2.72184 -6.53698 0
M  V30 4367 H 415.948 2.95318 -4.8109 0
M  V30 4368 N 415.346 1.54954 0.287554 0
M  V30 4369 C 416.276 1.89839 1.35954 0
M  V30 4370 C 417.257 0.758675 1.52244 0
M  V30 4371 O 418.442 1.01557 1.65529 0
M  V30 4372 C 415.572 2.15753 2.72154 0
M  V30 4373 C 414.526 3.3159 2.70614 0
M  V30 4374 C 413.852 3.42952 4.10229 0
M  V30 4375 C 415.152 4.68359 2.31165 0
M  V30 4376 H 416.846 2.79625 1.07007 0
M  V30 4377 H 414.392 1.3454 0.513316 0
M  V30 4378 H 416.345 2.38743 3.47246 0
M  V30 4379 H 415.069 1.22752 3.02654 0
M  V30 4380 H 413.728 3.08545 1.97979 0
M  V30 4381 H 413.376 2.47443 4.37928 0
M  V30 4382 H 413.076 4.20826 4.10097 0
M  V30 4383 H 414.6 3.68218 4.87081 0
M  V30 4384 H 416.014 4.9099 2.95976 0
M  V30 4385 H 414.411 5.49044 2.42221 0
M  V30 4386 H 415.481 4.68165 1.26291 0
M  V30 4387 N 416.824 -0.551391 1.4764 0
M  V30 4388 C 418.073 -1.30467 1.53822 0
M  V30 4389 C 418.386 -1.94495 0.207661 0
M  V30 4390 O 419.592 -2.71099 0.147533 0
M  V30 4391 C 418.048 -2.36616 2.71184 0
M  V30 4392 C 417.656 -1.78754 4.10793 0
M  V30 4393 C 419.4 -3.13088 2.86663 0
M  V30 4394 C 417.307 -2.82717 5.19447 0
M  V30 4395 H 416.237 -0.490584 0.572576 0
M  V30 4396 H 418.888 -0.58494 1.73927 0
M  V30 4397 H 417.27 -3.11529 2.4447 0
M  V30 4398 H 418.444 -1.10173 4.47435 0
M  V30 4399 H 416.759 -1.14846 4.00249 0
M  V30 4400 H 419.356 -3.90736 3.65007 0
M  V30 4401 H 419.699 -3.67635 1.95321 0
M  V30 4402 H 420.232 -2.45288 3.13175 0
M  V30 4403 H 416.971 -2.33018 6.12685 0
M  V30 4404 H 416.491 -3.4969 4.87316 0
M  V30 4405 H 418.17 -3.46102 5.46646 0
M  V30 4406 N 418.302 -1.35869 -0.798587 0
M  V30 4407 C 419.579 -1.20145 -1.54352 0
M  V30 4408 C 419.959 0.216161 -2.0999 0
M  V30 4409 O 419.307 1.22068 -1.93162 0
M  V30 4410 C 419.517 -2.27602 -2.64572 0
M  V30 4411 C 420.865 -2.63811 -3.32699 0
M  V30 4412 O 421.889 -2.26576 -2.74849 0
M  V30 4413 O 420.748 -3.27866 -4.37226 0
M  V30 4414 H 417.842 -0.467248 -0.682355 0
M  V30 4415 H 420.388 -1.47574 -0.837859 0
M  V30 4416 H 419.16 -3.2265 -2.21388 0
M  V30 4417 H 418.783 -2.01488 -3.42766 0
M  V30 4418 N 419.78 1.02168 -1.19998 0
M  V30 4419 C 421.027 1.75685 -1.00702 0
M  V30 4420 C 421.355 1.88947 0.461426 0
M  V30 4421 O 420.61 1.40832 1.35885 0
M  V30 4422 C 420.909 3.18081 -1.62969 0
M  V30 4423 C 420.575 3.24809 -3.12746 0
M  V30 4424 C 419.237 3.26352 -3.53621 0
M  V30 4425 C 421.589 3.23379 -4.08749 0
M  V30 4426 C 418.917 3.2413 -4.89036 0
M  V30 4427 C 421.269 3.22698 -5.44104 0
M  V30 4428 C 419.933 3.22542 -5.84399 0
M  V30 4429 H 419.203 0.642877 -0.368496 0
M  V30 4430 H 421.85 1.19865 -1.49348 0
M  V30 4431 H 420.155 3.77027 -1.06573 0
M  V30 4432 H 421.852 3.73648 -1.45561 0
M  V30 4433 H 418.442 3.2434 -2.80181 0
M  V30 4434 H 422.626 3.21361 -3.78207 0
M  V30 4435 H 417.882 3.22338 -5.19527 0
M  V30 4436 H 422.056 3.20543 -6.18244 0
M  V30 4437 H 419.683 3.20575 -6.89301 0
M  V30 4438 N 421.258 1.00505 1.21394 0
M  V30 4439 C 422.674 0.717873 1.42544 0
M  V30 4440 C 422.874 -0.706936 1.88692 0
M  V30 4441 O 421.93 -1.47627 2.04847 0
M  V30 4442 C 423.243 1.73377 2.45684 0
M  V30 4443 C 424.791 1.75059 2.59467 0
M  V30 4444 C 425.266 2.75545 3.6584 0
M  V30 4445 N 426.757 2.74213 3.73311 0
M  V30 4446 C 427.492 3.48626 4.55245 0
M  V30 4447 N 426.988 4.32678 5.41075 0
M  V30 4448 N 428.781 3.37276 4.49668 0
M  V30 4449 H 420.932 1.92506 0.897503 0
M  V30 4450 H 423.195 0.830919 0.456375 0
M  V30 4451 H 422.901 2.75395 2.18748 0
M  V30 4452 H 422.775 1.53647 3.44489 0
M  V30 4453 H 425.162 0.737337 2.8574 0
M  V30 4454 H 425.243 1.98861 1.60897 0
M  V30 4455 H 424.887 3.77028 3.40313 0
M  V30 4456 H 424.817 2.49009 4.64007 0
M  V30 4457 H 427.308 2.13234 3.11993 0
M  V30 4458 H 427.621 4.86253 6.00648 0
M  V30 4459 H 425.966 4.3676 5.40616 0
M  V30 4460 H 429.157 2.71043 3.81646 0
M  V30 4461 H 429.33 3.95524 5.13288 0
M  V30 4462 N 422.737 -1.36956 0.779787 0
M  V30 4463 C 423.647 -2.33965 0.172491 0
M  V30 4464 C 424.663 -1.60574 -0.670222 0
M  V30 4465 O 425.839 -1.92617 -0.588263 0
M  V30 4466 C 422.904 -3.39761 -0.690173 0
M  V30 4467 C 421.965 -4.28964 0.169924 0
M  V30 4468 C 421.198 -5.29707 -0.651662 0
M  V30 4469 O 421.421 -5.38238 -1.88827 0
M  V30 4470 O 420.355 -6.01873 -0.0566264 0
M  V30 4471 H 424.181 -2.87647 0.974321 0
M  V30 4472 H 421.766 -1.39258 0.541078 0
M  V30 4473 H 423.648 -4.04471 -1.1824 0
M  V30 4474 H 422.323 -2.88394 -1.47006 0
M  V30 4475 H 421.23 -3.67326 0.708696 0
M  V30 4476 H 422.563 -4.83656 0.913085 0
M  V30 4477 N 424.215 -0.530993 -1.48385 0
M  V30 4478 C 425.145 0.219985 -2.32461 0
M  V30 4479 C 426.126 0.934111 -1.42156 0
M  V30 4480 O 427.311 0.919694 -1.71042 0
M  V30 4481 C 424.441 1.26674 -3.23375 0
M  V30 4482 C 423.395 0.67069 -4.22712 0
M  V30 4483 C 422.721 1.82017 -5.02766 0
M  V30 4484 C 424.021 -0.358268 -5.2107 0
M  V30 4485 H 425.715 -0.48187 -2.95497 0
M  V30 4486 H 423.261 -0.233182 -1.42099 0
M  V30 4487 H 425.214 1.80006 -3.81019 0
M  V30 4488 H 423.938 1.99818 -2.58341 0
M  V30 4489 H 422.597 0.158878 -3.66256 0
M  V30 4490 H 422.245 2.54002 -4.34157 0
M  V30 4491 H 421.945 1.42727 -5.70003 0
M  V30 4492 H 423.469 2.35725 -5.63264 0
M  V30 4493 H 424.883 0.0880081 -5.73232 0
M  V30 4494 H 423.28 -0.66861 -5.96364 0
M  V30 4495 H 424.35 -1.26367 -4.68145 0
M  V30 4496 N 425.693 1.55336 -0.266172 0
M  V30 4497 C 426.641 2.23587 0.641228 0
M  V30 4498 C 427.635 1.22986 1.16494 0
M  V30 4499 O 428.841 1.40943 1.1196 0
M  V30 4500 H 425.216 0.717452 0.225315 0
M  V30 4501 H 427.187 2.9837 0.0426561 0
M  V30 4502 C 425.936 2.96369 1.81826 0
M  V30 4503 H 425.259 3.73563 1.42445 0
M  V30 4504 H 426.699 3.47459 2.42998 0
M  V30 4505 C 425.158 2.0133 2.70125 0
M  V30 4506 O 425.688 1.55875 3.70224 0
M  V30 4507 N 423.894 1.6802 2.37102 0
M  V30 4508 H 423.441 2.05181 1.55751 0
M  V30 4509 H 423.399 1.047 2.96454 0
M  V30 4510 N 427.171 -0.0066808 1.57599 0
M  V30 4511 C 428.587 -0.36267 1.55425 0
M  V30 4512 C 428.787 -1.75209 0.995187 0
M  V30 4513 O 427.843 -2.44616 0.626058 0
M  V30 4514 C 429.156 -0.244017 2.99708 0
M  V30 4515 C 430.704 -0.319451 3.11366 0
M  V30 4516 C 431.179 -0.229998 4.57422 0
M  V30 4517 N 432.67 -0.288105 4.62303 0
M  V30 4518 C 433.405 -0.242127 5.72889 0
M  V30 4519 N 432.901 -0.147133 6.92644 0
M  V30 4520 N 434.694 -0.293502 5.61333 0
M  V30 4521 H 426.845 0.902314 1.92281 0
M  V30 4522 H 429.108 0.34525 0.882896 0
M  V30 4523 H 428.814 0.711678 3.44424 0
M  V30 4524 H 428.688 -1.02877 3.629 0
M  V30 4525 H 431.075 -1.26559 2.66584 0
M  V30 4526 H 431.156 0.495055 2.50964 0
M  V30 4527 H 430.8 0.712566 5.02877 0
M  V30 4528 H 430.73 -1.0629 5.15761 0
M  V30 4529 H 433.221 -0.363126 3.76151 0
M  V30 4530 H 433.534 -0.117763 7.7271 0
M  V30 4531 H 431.879 -0.112857 6.94908 0
M  V30 4532 H 435.07 -0.365864 4.66668 0
M  V30 4533 H 435.243 -0.254204 6.47501 0
M  V30 4534 N 428.649 -1.55105 -0.279332 0
M  V30 4535 C 429.895 -1.75672 -1.01327 0
M  V30 4536 C 430.228 -0.552739 -1.86168 0
M  V30 4537 O 429.503 0.449827 -1.89227 0
M  V30 4538 C 429.786 -3.05825 -1.90114 0
M  V30 4539 C 429.639 -4.36565 -1.08309 0
M  V30 4540 C 430.958 -3.31975 -2.8893 0
M  V30 4541 H 428.077 -0.639149 -0.366957 0
M  V30 4542 H 430.719 -1.87833 -0.286154 0
M  V30 4543 H 428.869 -2.95588 -2.52111 0
M  V30 4544 H 430.541 -4.58751 -0.484314 0
M  V30 4545 H 428.784 -4.32076 -0.386362 0
M  V30 4546 H 429.455 -5.23946 -1.73737 0
M  V30 4547 H 431.931 -3.41963 -2.37067 0
M  V30 4548 H 430.807 -4.2432 -3.48201 0
M  V30 4549 H 431.068 -2.51309 -3.63725 0
M  V30 4550 N 430.127 0.543554 -1.4793 0
M  V30 4551 C 431.355 1.32516 -1.58894 0
M  V30 4552 C 431.77 1.87215 -0.244131 0
M  V30 4553 O 431.127 1.65709 0.764652 0
M  V30 4554 C 431.178 2.48554 -2.62494 0
M  V30 4555 O 430.899 1.96112 -3.91755 0
M  V30 4556 C 432.4 3.40572 -2.8377 0
M  V30 4557 H 429.62 0.403472 -0.536145 0
M  V30 4558 H 432.164 0.657106 -1.93655 0
M  V30 4559 H 430.319 3.1127 -2.30629 0
M  V30 4560 H 430.733 2.71967 -4.4848 0
M  V30 4561 H 432.207 4.18375 -3.60093 0
M  V30 4562 H 432.684 3.94965 -1.92092 0
M  V30 4563 H 433.29 2.8366 -3.16887 0
M  V30 4564 N 431.605 1.3629 0.791371 0
M  V30 4565 C 432.537 1.26321 1.91248 0
M  V30 4566 C 433.55 0.18313 1.61767 0
M  V30 4567 O 434.739 0.437682 1.73051 0
M  V30 4568 C 431.839 0.925901 3.26007 0
M  V30 4569 C 431.012 2.10746 3.83281 0
M  V30 4570 C 430.071 1.74352 4.96475 0
M  V30 4571 O 429.097 2.46416 5.13096 0
M  V30 4572 N 430.299 0.676058 5.7655 0
M  V30 4573 H 433.064 2.22915 2.00323 0
M  V30 4574 H 430.625 1.29659 0.969546 0
M  V30 4575 H 432.617 0.663636 3.99222 0
M  V30 4576 H 431.187 0.0491581 3.12561 0
M  V30 4577 H 430.407 2.53264 3.02077 0
M  V30 4578 H 431.695 2.8969 4.18279 0
M  V30 4579 H 431.093 0.0776467 5.65647 0
M  V30 4580 H 429.65 0.473612 6.50077 0
M  V30 4581 N 433.083 -1.0153 1.20538 0
M  V30 4582 C 434.36 -1.72327 0.925343 0
M  V30 4583 C 434.74 -2.03383 -0.565547 0
M  V30 4584 O 434.088 -1.69934 -1.52757 0
M  V30 4585 C 434.298 -2.9902 1.79967 0
M  V30 4586 C 435.646 -3.72258 2.04228 0
M  V30 4587 O 436.67 -3.08979 1.77231 0
M  V30 4588 O 435.529 -4.86053 2.4983 0
M  V30 4589 H 432.623 -0.751099 0.346092 0
M  V30 4590 H 435.169 -1.07366 1.31417 0
M  V30 4591 H 433.941 -2.72402 2.80915 0
M  V30 4592 H 433.564 -3.71721 1.41099 0
M  V30 4593 N 434.561 -1.01147 -1.20859 0
M  V30 4594 C 435.808 -0.697865 -1.90095 0
M  V30 4595 C 436.136 0.772014 -1.78522 0
M  V30 4596 O 435.391 1.57595 -1.16027 0
M  V30 4597 C 435.69 -1.0727 -3.40922 0
M  V30 4598 C 435.356 -2.53792 -3.72693 0
M  V30 4599 C 434.018 -2.93829 -3.81075 0
M  V30 4600 C 436.37 -3.48674 -3.87397 0
M  V30 4601 C 433.698 -4.27696 -4.01613 0
M  V30 4602 C 436.05 -4.82223 -4.09444 0
M  V30 4603 C 434.714 -5.21973 -4.16054 0
M  V30 4604 H 433.984 -0.255367 -0.695607 0
M  V30 4605 H 436.631 -1.27111 -1.43231 0
M  V30 4606 H 434.936 -0.417799 -3.89566 0
M  V30 4607 H 436.633 -0.807818 -3.92779 0
M  V30 4608 H 433.223 -2.21768 -3.66765 0
M  V30 4609 H 437.407 -3.18904 -3.80281 0
M  V30 4610 H 432.663 -4.58055 -4.04964 0
M  V30 4611 H 436.837 -5.55672 -4.19763 0
M  V30 4612 H 434.464 -6.25717 -4.31721 0
M  V30 4613 N 436.039 1.36541 -0.78704 0
M  V30 4614 C 437.267 2.03561 -0.370199 0
M  V30 4615 C 437.682 1.59347 1.01263 0
M  V30 4616 O 437.039 0.781781 1.64907 0
M  V30 4617 C 437.09 3.59033 -0.421614 0
M  V30 4618 O 436.811 4.01634 -1.7499 0
M  V30 4619 C 438.312 4.433 0.00489763 0
M  V30 4620 H 435.532 0.653346 -0.152904 0
M  V30 4621 H 438.076 1.74566 -1.06522 0
M  V30 4622 H 436.231 3.86746 0.224971 0
M  V30 4623 H 436.645 4.96217 -1.69909 0
M  V30 4624 H 438.119 5.51939 -0.0822184 0
M  V30 4625 H 438.596 4.26285 1.05723 0
M  V30 4626 H 439.202 4.20843 -0.614085 0
M  V30 4627 N 437.518 0.538854 1.48102 0
M  V30 4628 C 438.428 -0.222648 2.33541 0
M  V30 4629 C 439.444 -0.930225 1.47047 0
M  V30 4630 O 440.62 -0.903211 1.80011 0
M  V30 4631 C 437.685 -1.25064 3.23357 0
M  V30 4632 C 436.746 -0.552469 4.2573 0
M  V30 4633 C 435.979 -1.53149 5.11254 0
M  V30 4634 O 436.202 -2.76487 4.9891 0
M  V30 4635 O 435.136 -1.06602 5.92385 0
M  V30 4636 H 438.962 0.477707 2.99919 0
M  V30 4637 H 436.547 0.299669 1.46364 0
M  V30 4638 H 438.429 -1.8445 3.78888 0
M  V30 4639 H 437.104 -1.93325 2.59629 0
M  V30 4640 H 436.011 0.082114 3.7401 0
M  V30 4641 H 437.344 0.0883526 4.92121 0
M  V30 4642 N 438.996 -1.55193 0.274407 0
M  V30 4643 C 440.242 -1.99877 -0.343086 0
M  V30 4644 C 440.575 -1.16256 -1.55558 0
M  V30 4645 O 439.85 -0.232462 -1.93106 0
M  V30 4646 C 440.133 -3.52706 -0.725965 0
M  V30 4647 C 439.986 -4.47081 0.493818 0
M  V30 4648 C 441.305 -4.11422 -1.56268 0
M  V30 4649 H 438.424 -0.726625 -0.123229 0
M  V30 4650 H 441.066 -1.86136 0.38121 0
M  V30 4651 H 439.216 -3.64546 -1.34307 0
M  V30 4652 H 440.888 -4.47186 1.13237 0
M  V30 4653 H 439.131 -4.1877 1.13201 0
M  V30 4654 H 439.802 -5.51699 0.18217 0
M  V30 4655 H 442.278 -4.02855 -1.04151 0
M  V30 4656 H 441.154 -5.18568 -1.79939 0
M  V30 4657 H 441.415 -3.61607 -2.54348 0
M  V30 4658 N 440.474 -0.00167713 -1.576 0
M  V30 4659 C 441.406 1.0174 -2.05382 0
M  V30 4660 C 442.419 1.30595 -0.972052 0
M  V30 4661 O 443.608 1.27542 -1.24882 0
M  V30 4662 C 440.708 2.35174 -2.44022 0
M  V30 4663 C 439.881 2.25234 -3.74951 0
M  V30 4664 C 438.94 3.4137 -4.00441 0
M  V30 4665 O 437.966 3.19483 -4.71083 0
M  V30 4666 N 439.168 4.64275 -3.48467 0
M  V30 4667 H 441.933 0.609902 -2.93428 0
M  V30 4668 H 439.494 0.185672 -1.60832 0
M  V30 4669 H 441.486 3.11643 -2.58187 0
M  V30 4670 H 440.056 2.67659 -1.61485 0
M  V30 4671 H 439.276 1.33664 -3.70847 0
M  V30 4672 H 440.564 2.15767 -4.60784 0
M  V30 4673 H 439.962 4.84955 -2.91264 0
M  V30 4674 H 438.519 5.38005 -3.67959 0
M  V30 4675 N 441.952 1.55251 0.271103 0
M  V30 4676 C 442.882 1.9127 1.33933 0
M  V30 4677 C 443.863 0.77478 1.5143 0
M  V30 4678 O 445.048 1.03307 1.64442 0
M  V30 4679 C 442.178 2.18627 2.69851 0
M  V30 4680 C 441.132 3.34442 2.67081 0
M  V30 4681 C 440.458 3.47284 4.06569 0
M  V30 4682 C 441.758 4.70784 2.26185 0
M  V30 4683 H 443.452 2.80744 1.04035 0
M  V30 4684 H 440.998 1.35077 0.499017 0
M  V30 4685 H 442.951 2.42413 3.44694 0
M  V30 4686 H 441.675 1.25955 3.01335 0
M  V30 4687 H 440.334 3.10627 1.94695 0
M  V30 4688 H 439.982 2.52074 4.35279 0
M  V30 4689 H 439.682 4.25152 4.0561 0
M  V30 4690 H 441.206 3.73363 4.83148 0
M  V30 4691 H 442.62 4.94102 2.90751 0
M  V30 4692 H 441.017 5.51582 2.36384 0
M  V30 4693 H 442.087 4.69478 1.21319 0
M  V30 4694 N 443.43 -0.535701 1.48216 0
M  V30 4695 C 444.678 -1.28928 1.55634 0
M  V30 4696 C 444.999 -1.93645 0.229514 0
M  V30 4697 O 444.269 -1.81038 -0.74846 0
M  V30 4698 H 442.849 -0.47884 0.573342 0
M  V30 4699 H 445.511 -0.623853 1.84646 0
M  V30 4700 H 444.607 -2.07157 2.33436 0
M  V30 4701 N 444.908 -1.36708 -0.784132 0
M  V30 4702 C 446.157 -1.30559 -1.53744 0
M  V30 4703 C 446.47 0.111374 -1.95283 0
M  V30 4704 O 447.676 0.29527 -2.6989 0
M  V30 4705 C 446.132 -2.29098 -2.77565 0
M  V30 4706 C 445.74 -3.76258 -2.43174 0
M  V30 4707 C 447.484 -2.31936 -3.55536 0
M  V30 4708 C 445.391 -4.6656 -3.63422 0
M  V30 4709 H 444.321 -0.48518 -0.577162 0
M  V30 4710 H 446.972 -1.62101 -0.859981 0
M  V30 4711 H 445.354 -1.90557 -3.47137 0
M  V30 4712 H 446.528 -4.23565 -1.81465 0
M  V30 4713 H 444.843 -3.76246 -1.78403 0
M  V30 4714 H 447.44 -2.9661 -4.44889 0
M  V30 4715 H 447.783 -1.3294 -3.94503 0
M  V30 4716 H 448.316 -2.6912 -2.92949 0
M  V30 4717 H 445.055 -5.66638 -3.29547 0
M  V30 4718 H 444.575 -4.23966 -4.24279 0
M  V30 4719 H 446.254 -4.8309 -4.30387 0
M  V30 4720 N 446.386 1.0089 -1.21074 0
M  V30 4721 C 447.797 1.56056 -1.02486 0
M  V30 4722 C 448.148 1.91728 0.416506 0
M  V30 4723 O 447.273 1.73066 1.29912 0
M  V30 4724 C 447.868 2.83563 -1.85411 0
M  V30 4725 C 446.427 3.3523 -1.71166 0
M  V30 4726 C 445.574 2.0846 -1.82865 0
M  V30 4727 H 448.525 0.831818 -1.35154 0
M  V30 4728 H 448.546 3.55286 -1.36205 0
M  V30 4729 H 448.058 2.57569 -2.9031 0
M  V30 4730 H 446.159 3.66167 -0.689361 0
M  V30 4731 H 446.272 4.06913 -2.52901 0
M  V30 4732 H 444.636 2.21275 -1.26132 0
M  V30 4733 H 445.419 1.84883 -2.89263 0
M  V30 4734 N 447.864 1.01787 1.20321 0
M  V30 4735 C 448.814 0.559976 2.21016 0
M  V30 4736 C 449.798 -0.385366 1.56217 0
M  V30 4737 O 450.99 -0.208126 1.75772 0
M  V30 4738 C 448.119 -0.0990553 3.43157 0
M  V30 4739 C 447.205 0.86807 4.15121 0
M  V30 4740 N 447.596 2.0261 4.63447 0
M  V30 4741 C 445.894 0.689162 4.40643 0
M  V30 4742 C 446.595 2.63518 5.18588 0
M  V30 4743 N 445.571 1.91569 5.08726 0
M  V30 4744 H 449.373 1.44281 2.56048 0
M  V30 4745 H 446.887 0.883381 1.36272 0
M  V30 4746 H 448.884 -0.444643 4.14522 0
M  V30 4747 H 447.544 -0.977709 3.0963 0
M  V30 4748 H 448.555 2.40598 4.58621 0
M  V30 4749 H 445.232 -0.14133 4.17261 0
M  V30 4750 H 446.622 3.61527 5.66346 0
M  V30 4751 N 449.342 -1.36122 0.79427 0
M  V30 4752 C 450.753 -1.81646 0.431446 0
M  V30 4753 C 451.104 -1.66043 -1.04518 0
M  V30 4754 O 450.229 -1.1841 -1.8113 0
M  V30 4755 C 450.824 -3.29785 0.776341 0
M  V30 4756 C 449.383 -3.73501 0.466282 0
M  V30 4757 C 448.53 -2.58313 1.00844 0
M  V30 4758 H 451.481 -1.24274 0.986995 0
M  V30 4759 H 451.502 -3.80437 0.0692413 0
M  V30 4760 H 451.014 -3.4111 1.8511 0
M  V30 4761 H 449.115 -3.67733 -0.600245 0
M  V30 4762 H 449.228 -4.68754 0.990288 0
M  V30 4763 H 447.592 -2.5102 0.431406 0
M  V30 4764 H 448.375 -2.72421 2.08906 0
M  V30 4765 N 450.82 -0.546701 -1.47814 0
M  V30 4766 C 451.783 0.196287 -2.28358 0
M  V30 4767 C 452.783 0.852437 -1.36346 0
M  V30 4768 O 453.973 0.709913 -1.59078 0
M  V30 4769 C 451.105 1.28579 -3.15722 0
M  V30 4770 H 452.298 -0.511086 -2.95513 0
M  V30 4771 H 449.851 -0.303248 -1.5333 0
M  V30 4772 H 450.586 2.0259 -2.53235 0
M  V30 4773 H 450.371 0.820229 -3.83425 0
M  V30 4774 H 451.861 1.80793 -3.76435 0
M  V30 4775 N 452.299 1.55045 -0.282633 0
M  V30 4776 C 453.547 1.99365 0.331334 0
M  V30 4777 C 453.868 1.1725 1.55812 0
M  V30 4778 O 453.138 0.263871 1.94115 0
M  V30 4779 H 451.718 0.736397 0.125414 0
M  V30 4780 H 454.38 1.90964 -0.389711 0
M  V30 4781 H 453.476 3.0596 0.616036 0
M  V30 4782 N 453.777 0.010035 1.57597 0
M  V30 4783 C 454.707 -0.976857 2.12084 0
M  V30 4784 C 455.688 -1.35191 1.03235 0
M  V30 4785 O 456.873 -1.43389 1.3097 0
M  V30 4786 C 454.003 -2.26548 2.63236 0
M  V30 4787 C 452.957 -2.03175 3.76701 0
M  V30 4788 C 452.283 -3.38138 4.14206 0
M  V30 4789 C 453.583 -1.38625 5.03568 0
M  V30 4790 H 455.277 -0.523145 2.94794 0
M  V30 4791 H 452.823 -0.250195 1.4181 0
M  V30 4792 H 454.776 -2.95952 2.99984 0
M  V30 4793 H 453.5 -2.74051 1.77661 0
M  V30 4794 H 452.159 -1.36195 3.40362 0
M  V30 4795 H 451.807 -3.83363 3.25641 0
M  V30 4796 H 451.507 -3.23312 4.90656 0
M  V30 4797 H 453.031 -4.08841 4.53521 0
M  V30 4798 H 454.445 -1.98 5.38023 0
M  V30 4799 H 452.842 -1.34256 5.84889 0
M  V30 4800 H 453.912 -0.356722 4.83586 0
M  V30 4801 N 455.255 -1.55392 -0.262866 0
M  V30 4802 C 456.218 -1.88181 -1.30846 0
M  V30 4803 C 457.218 -0.757079 -1.41862 0
M  V30 4804 O 458.408 -1.02519 -1.40838 0
M  V30 4805 C 455.54 -2.09609 -2.68844 0
M  V30 4806 H 456.733 -2.81659 -1.02997 0
M  V30 4807 H 454.286 -1.48039 -0.501414 0
M  V30 4808 H 455.021 -1.18547 -3.01856 0
M  V30 4809 H 454.806 -2.91508 -2.62231 0
M  V30 4810 H 456.296 -2.36215 -3.44372 0
M  V30 4811 N 456.733 0.527833 -1.48498 0
M  V30 4812 C 457.68 1.6322 -1.6318 0
M  V30 4813 C 458.65 1.59199 -0.473815 0
M  V30 4814 O 459.835 1.77591 -0.697563 0
M  V30 4815 C 456.975 3.01474 -1.67951 0
M  V30 4816 C 456.088 3.15713 -2.94871 0
M  V30 4817 C 455.223 4.44539 -2.90789 0
M  V30 4818 C 454.262 4.52315 -4.12404 0
M  V30 4819 N 453.399 5.72533 -4.06387 0
M  V30 4820 H 458.239 1.50011 -2.57489 0
M  V30 4821 H 455.776 0.730298 -1.27691 0
M  V30 4822 H 457.734 3.81572 -1.68698 0
M  V30 4823 H 456.364 3.1345 -0.771306 0
M  V30 4824 H 455.416 2.28854 -3.03859 0
M  V30 4825 H 456.728 3.1732 -3.8485 0
M  V30 4826 H 455.882 5.3293 -2.89949 0
M  V30 4827 H 454.621 4.45457 -1.98542 0
M  V30 4828 H 453.626 3.62331 -4.13517 0
M  V30 4829 H 454.851 4.53134 -5.05812 0
M  V30 4830 H 452.797 5.74344 -3.16962 0
M  V30 4831 H 452.714 5.75643 -4.90073 0
M  V30 4832 H 453.982 6.63204 -4.0961 0
M  V30 4833 N 458.211 1.37122 0.776871 0
M  V30 4834 C 459.627 1.1781 1.07671 0
M  V30 4835 C 459.827 0.0107454 2.01497 0
M  V30 4836 O 458.883 -0.650756 2.4397 0
M  V30 4837 C 460.196 2.49451 1.67913 0
M  V30 4838 C 461.744 2.55927 1.80195 0
M  V30 4839 C 462.219 3.87686 2.43851 0
M  V30 4840 N 463.71 3.891 2.51307 0
M  V30 4841 C 464.445 4.87797 3.014 0
M  V30 4842 N 463.941 5.96888 3.51705 0
M  V30 4843 N 465.734 4.75205 3.00227 0
M  V30 4844 H 457.885 2.11843 0.153778 0
M  V30 4845 H 460.148 0.938927 0.130844 0
M  V30 4846 H 459.854 3.35207 1.06439 0
M  V30 4847 H 459.728 2.66169 2.67271 0
M  V30 4848 H 462.115 1.70582 2.40803 0
M  V30 4849 H 462.196 2.43097 0.796069 0
M  V30 4850 H 461.84 4.73444 1.83884 0
M  V30 4851 H 461.77 3.97817 3.45035 0
M  V30 4852 H 464.261 3.10293 2.157 0
M  V30 4853 H 464.574 6.68155 3.88316 0
M  V30 4854 H 462.919 6.0054 3.49824 0
M  V30 4855 H 466.11 3.89103 2.60224 0
M  V30 4856 H 466.283 5.52279 3.38957 0
M  V30 4857 N 459.689 -1.00246 1.21608 0
M  V30 4858 C 460.636 -2.09073 0.977613 0
M  V30 4859 C 461.606 -1.65815 -0.097297 0
M  V30 4860 O 462.791 -1.90734 0.0503445 0
M  V30 4861 C 459.931 -3.40671 0.551133 0
M  V30 4862 C 459.044 -3.97326 1.69576 0
M  V30 4863 C 458.179 -5.17043 1.2182 0
M  V30 4864 C 457.218 -5.65813 2.335 0
M  V30 4865 N 456.355 -6.76778 1.86859 0
M  V30 4866 H 461.195 -2.28806 1.90924 0
M  V30 4867 H 458.732 -1.12186 0.951452 0
M  V30 4868 H 460.69 -4.16225 0.285097 0
M  V30 4869 H 459.32 -3.20967 -0.343489 0
M  V30 4870 H 458.372 -3.18734 2.07637 0
M  V30 4871 H 459.684 -4.29511 2.53617 0
M  V30 4872 H 458.838 -5.99852 0.908975 0
M  V30 4873 H 457.577 -4.86458 0.347869 0
M  V30 4874 H 456.582 -4.81599 2.65222 0
M  V30 4875 H 457.807 -5.98427 3.21033 0
M  V30 4876 H 455.753 -6.47994 1.02174 0
M  V30 4877 H 455.67 -7.08231 2.64471 0
M  V30 4878 H 456.938 -7.63116 1.58978 0
M  V30 4879 N 461.167 -1.02423 -1.1978 0
M  V30 4880 C 462.583 -0.740459 -1.41384 0
M  V30 4881 C 462.783 0.676827 -1.89793 0
M  V30 4882 O 461.839 1.4435 -2.0717 0
M  V30 4883 C 463.152 -1.77264 -2.42895 0
M  V30 4884 C 464.7 -1.79165 -2.56649 0
M  V30 4885 C 465.175 -2.8133 -3.6141 0
M  V30 4886 N 466.666 -2.80118 -3.68901 0
M  V30 4887 C 467.401 -3.55824 -4.49641 0
M  V30 4888 N 466.897 -4.41231 -5.34123 0
M  V30 4889 N 468.69 -3.44387 -4.44246 0
M  V30 4890 H 460.841 -1.9391 -0.866764 0
M  V30 4891 H 463.104 -0.838074 -0.443098 0
M  V30 4892 H 462.81 -2.7884 -2.14339 0
M  V30 4893 H 462.684 -1.59108 -3.42001 0
M  V30 4894 H 465.071 -0.782702 -2.84531 0
M  V30 4895 H 465.152 -2.01396 -1.57713 0
M  V30 4896 H 464.796 -3.82394 -3.34271 0
M  V30 4897 H 464.726 -2.56359 -4.59986 0
M  V30 4898 H 467.217 -2.1817 -3.08562 0
M  V30 4899 H 467.53 -4.95747 -5.92836 0
M  V30 4900 H 465.875 -4.45306 -5.33599 0
M  V30 4901 H 469.066 -2.7708 -3.77285 0
M  V30 4902 H 469.239 -4.0364 -5.06931 0
M  V30 4903 N 462.645 1.35699 -0.801477 0
M  V30 4904 C 463.894 1.98165 -0.375979 0
M  V30 4905 C 464.207 1.64306 1.06127 0
M  V30 4906 O 465.413 2.20097 1.58964 0
M  V30 4907 C 463.869 3.54497 -0.621305 0
M  V30 4908 C 463.477 3.9727 -2.07076 0
M  V30 4909 C 465.221 4.23697 -0.26091 0
M  V30 4910 C 463.128 5.46427 -2.26211 0
M  V30 4911 H 462.058 0.741478 -0.136844 0
M  V30 4912 H 464.709 1.54834 -0.984814 0
M  V30 4913 H 463.091 3.95958 0.0574112 0
M  V30 4914 H 464.265 3.66974 -2.78687 0
M  V30 4915 H 462.58 3.40943 -2.39054 0
M  V30 4916 H 465.177 5.33334 -0.381994 0
M  V30 4917 H 465.52 4.0869 0.792344 0
M  V30 4918 H 466.053 3.87639 -0.893339 0
M  V30 4919 H 462.792 5.66396 -3.29963 0
M  V30 4920 H 462.312 5.78309 -1.59119 0
M  V30 4921 H 463.991 6.12819 -2.07513 0
M  V30 4922 N 464.123 0.554532 1.47522 0
M  V30 4923 C 465.351 0.034257 2.06872 0
M  V30 4924 C 465.766 -1.25826 1.40759 0
M  V30 4925 O 465.123 -1.75425 0.503217 0
M  V30 4926 C 465.174 -0.167827 3.6111 0
M  V30 4927 O 464.895 1.07351 4.24744 0
M  V30 4928 C 466.396 -0.72569 4.3732 0
M  V30 4929 H 463.616 0.0446275 0.669514 0
M  V30 4930 H 466.16 0.767181 1.89564 0
M  V30 4931 H 464.315 -0.850872 3.7794 0
M  V30 4932 H 464.729 0.869563 5.17242 0
M  V30 4933 H 466.203 -0.816394 5.45929 0
M  V30 4934 H 466.68 -1.73635 4.0342 0
M  V30 4935 H 467.286 -0.0784292 4.25228 0
M  V30 4936 N 465.601 -1.54893 0.290851 0
M  V30 4937 C 466.847 -2.0023 -0.321867 0
M  V30 4938 C 467.18 -1.179 -1.54316 0
M  V30 4939 O 466.455 -0.25293 -1.92848 0
M  V30 4940 C 466.738 -3.53456 -0.688515 0
M  V30 4941 C 466.591 -4.46532 0.541209 0
M  V30 4942 C 467.91 -4.13057 -1.51895 0
M  V30 4943 H 465.029 -0.727891 -0.115515 0
M  V30 4944 H 467.671 -1.85722 0.400931 0
M  V30 4945 H 465.821 -3.6595 -1.30433 0
M  V30 4946 H 467.493 -4.4596 1.17973 0
M  V30 4947 H 465.736 -4.17545 1.17636 0
M  V30 4948 H 466.407 -5.51475 0.240675 0
M  V30 4949 H 468.883 -4.03937 -0.99872 0
M  V30 4950 H 467.759 -5.20448 -1.74429 0
M  V30 4951 H 468.02 -3.64284 -2.50498 0
M  V30 4952 N 467.08 -0.0183926 -1.57589 0
M  V30 4953 C 468.01 0.965596 -2.12599 0
M  V30 4954 C 468.991 1.34641 -1.0395 0
M  V30 4955 O 470.176 1.42693 -1.31729 0
M  V30 4956 C 467.306 2.25149 -2.64434 0
M  V30 4957 C 466.26 2.01175 -3.77773 0
M  V30 4958 C 465.586 3.35937 -4.15994 0
M  V30 4959 C 466.886 1.35953 -5.04296 0
M  V30 4960 H 468.58 0.507504 -2.95067 0
M  V30 4961 H 466.126 0.242671 -1.41941 0
M  V30 4962 H 468.079 2.94357 -3.01549 0
M  V30 4963 H 466.803 2.73105 -1.79112 0
M  V30 4964 H 465.462 1.34388 -3.4108 0
M  V30 4965 H 465.11 3.81631 -3.27669 0
M  V30 4966 H 464.81 3.20705 -4.92364 0
M  V30 4967 H 466.334 4.0643 -4.55683 0
M  V30 4968 H 467.748 1.95144 -5.39065 0
M  V30 4969 H 466.145 1.31152 -5.85593 0
M  V30 4970 H 467.215 0.331071 -4.83768 0
M  V30 4971 N 468.558 1.5553 0.254621 0
M  V30 4972 C 469.835 1.6774 1.00611 0
M  V30 4973 C 470.215 0.555993 2.03647 0
M  V30 4974 O 469.563 -0.441583 2.24193 0
M  V30 4975 C 469.773 3.07725 1.6464 0
M  V30 4976 C 471.121 3.66074 2.15116 0
M  V30 4977 O 472.145 3.10476 1.74595 0
M  V30 4978 O 471.004 4.63526 2.89493 0
M  V30 4979 H 468.098 0.681958 0.467828 0
M  V30 4980 H 470.644 1.67863 0.24902 0
M  V30 4981 H 469.416 3.80792 0.900734 0
M  V30 4982 H 469.039 3.1158 2.46989 0
M  V30 4983 N 470.036 -0.519951 1.48776 0
M  V30 4984 C 471.285 -1.27175 1.56555 0
M  V30 4985 C 471.598 -1.9401 0.248869 0
M  V30 4986 O 472.804 -2.70725 0.205004 0
M  V30 4987 C 471.26 -2.30811 2.76142 0
M  V30 4988 C 470.868 -1.7 4.14493 0
M  V30 4989 C 472.612 -3.06937 2.9324 0
M  V30 4990 C 470.519 -2.71635 5.25327 0
M  V30 4991 H 469.449 -0.478329 0.582853 0
M  V30 4992 H 472.1 -0.547916 1.75129 0
M  V30 4993 H 470.482 -3.06274 2.51023 0
M  V30 4994 H 471.656 -1.00658 4.49672 0
M  V30 4995 H 469.971 -1.06331 4.02595 0
M  V30 4996 H 472.568 -3.82905 3.73213 0
M  V30 4997 H 472.911 -3.63409 2.03075 0
M  V30 4998 H 473.444 -2.38589 3.18308 0
M  V30 4999 H 470.183 -2.1997 6.1749 0
M  V30 5000 H 469.703 -3.39275 4.94624 0
M  V30 5001 H 471.382 -3.34429 5.53865 0
M  V30 5002 N 471.514 -1.37532 -0.769588 0
M  V30 5003 C 472.762 -1.32597 -1.5252 0
M  V30 5004 C 473.083 0.0884294 -1.94799 0
M  V30 5005 O 472.353 1.03289 -1.66458 0
M  V30 5006 H 470.933 -0.487846 -0.565699 0
M  V30 5007 H 473.595 -1.72044 -0.915806 0
M  V30 5008 H 472.691 -1.96643 -2.42359 0
M  V30 5009 N 472.992 0.995999 -1.22138 0
M  V30 5010 C 474.269 1.70834 -0.952642 0
M  V30 5011 C 474.649 2.04257 0.533119 0
M  V30 5012 O 473.997 1.72343 1.50034 0
M  V30 5013 C 474.207 2.96119 -1.84701 0
M  V30 5014 C 475.555 3.68962 -2.10124 0
M  V30 5015 O 476.579 3.0612 -1.82124 0
M  V30 5016 O 475.438 4.82017 -2.57531 0
M  V30 5017 H 472.532 0.745498 -0.357997 0
M  V30 5018 H 475.078 1.05262 -1.33109 0
M  V30 5019 H 473.85 2.67898 -2.85213 0
M  V30 5020 H 473.473 3.6943 -1.46995 0
M  V30 5021 N 474.47 1.03057 1.19235 0
M  V30 5022 C 475.433 0.617418 2.20727 0
M  V30 5023 C 476.433 -0.319856 1.57587 0
M  V30 5024 O 477.623 -0.106633 1.73873 0
M  V30 5025 C 474.755 -0.096296 3.40764 0
M  V30 5026 H 475.948 1.51544 2.58794 0
M  V30 5027 H 473.501 0.821949 1.32942 0
M  V30 5028 H 474.236 -1.00859 3.08217 0
M  V30 5029 H 474.021 0.577217 3.87828 0
M  V30 5030 H 475.511 -0.372219 4.15938 0
M  V30 5031 N 475.948 -1.35272 0.808662 0
M  V30 5032 C 477.178 -2.02652 0.401953 0
M  V30 5033 C 477.586 -1.6108 -0.992462 0
M  V30 5034 O 476.929 -0.804984 -1.65123 0
M  V30 5035 C 476.991 -3.57174 0.408246 0
M  V30 5036 C 476.655 -4.22019 1.75353 0
M  V30 5037 C 477.652 -4.43552 2.71215 0
M  V30 5038 C 475.337 -4.59093 2.03811 0
M  V30 5039 C 477.331 -5.01264 3.93717 0
M  V30 5040 C 475.018 -5.16519 3.26576 0
M  V30 5041 C 476.016 -5.37546 4.21347 0
M  V30 5042 O 475.704 -5.93761 5.41944 0
M  V30 5043 H 475.436 -0.656495 0.161216 0
M  V30 5044 H 477.99 -1.73829 1.0942 0
M  V30 5045 H 476.22 -3.85197 -0.340608 0
M  V30 5046 H 477.909 -4.05893 0.0235623 0
M  V30 5047 H 478.675 -4.15288 2.50522 0
M  V30 5048 H 474.554 -4.42039 1.30854 0
M  V30 5049 H 478.098 -5.17592 4.67701 0
M  V30 5050 H 473.995 -5.4421 3.47139 0
M  V30 5051 H 474.763 -6.1221 5.43269 0
M  V30 5052 N 477.426 -0.562348 -1.47226 0
M  V30 5053 C 478.673 -0.0402165 -2.0246 0
M  V30 5054 C 479.001 1.31169 -1.43614 0
M  V30 5055 O 478.256 1.86805 -0.5833 0
M  V30 5056 C 478.555 0.0969817 -3.57268 0
M  V30 5057 C 478.221 -1.1847 -4.35058 0
M  V30 5058 C 476.883 -1.53588 -4.56031 0
M  V30 5059 C 479.235 -2.03378 -4.79882 0
M  V30 5060 C 476.563 -2.73452 -5.19077 0
M  V30 5061 C 478.915 -3.2245 -5.44251 0
M  V30 5062 C 477.579 -3.57876 -5.63455 0
M  V30 5063 H 476.849 -0.0147163 -0.740854 0
M  V30 5064 H 479.496 -0.734895 -1.76838 0
M  V30 5065 H 477.801 0.87466 -3.81912 0
M  V30 5066 H 479.498 0.516408 -3.97661 0
M  V30 5067 H 476.088 -0.90126 -4.19017 0
M  V30 5068 H 480.272 -1.77553 -4.63453 0
M  V30 5069 H 475.528 -3.01062 -5.32139 0
M  V30 5070 H 479.702 -3.88526 -5.77945 0
M  V30 5071 H 477.329 -4.50849 -6.12078 0
M  V30 5072 N 478.904 1.54736 -0.299062 0
M  V30 5073 C 480.129 2.04975 0.316254 0
M  V30 5074 C 480.554 1.17501 1.46885 0
M  V30 5075 O 479.912 0.178678 1.80417 0
M  V30 5076 C 479.96 3.52672 0.751997 0
M  V30 5077 O 479.064 3.68226 1.85697 0
M  V30 5078 H 478.405 0.661126 0.0617175 0
M  V30 5079 H 480.935 1.99805 -0.440341 0
M  V30 5080 H 480.945 3.94488 1.04133 0
M  V30 5081 H 479.62 4.158 -0.0911482 0
M  V30 5082 H 478.197 3.38316 1.56834 0
M  V30 5083 N 480.382 0.0267497 1.57577 0
M  V30 5084 C 481.631 -0.651736 1.9088 0
M  V30 5085 C 481.944 -1.73427 0.904576 0
M  V30 5086 O 483.15 -2.46923 1.12877 0
M  V30 5087 C 481.606 -1.21048 3.38933 0
M  V30 5088 C 481.214 -0.161362 4.47709 0
M  V30 5089 C 482.958 -1.86562 3.81307 0
M  V30 5090 C 480.865 -0.731611 5.86857 0
M  V30 5091 H 479.795 -0.247198 0.712326 0
M  V30 5092 H 482.446 0.0916641 1.83271 0
M  V30 5093 H 480.828 -2.00542 3.41466 0
M  V30 5094 H 482.002 0.61094 4.56732 0
M  V30 5095 H 480.317 0.394877 4.14523 0
M  V30 5096 H 482.914 -2.30178 4.8262 0
M  V30 5097 H 483.257 -2.70735 3.16241 0
M  V30 5098 H 483.79 -1.13762 3.81186 0
M  V30 5099 H 480.529 0.0719329 6.55461 0
M  V30 5100 H 480.049 -1.47245 5.81445 0
M  V30 5101 H 481.728 -1.22208 6.35354 0
M  V30 5102 N 481.861 -1.55662 -0.24637 0
M  V30 5103 C 483.272 -1.67953 -0.81539 0
M  V30 5104 C 483.623 -0.624302 -1.86002 0
M  V30 5105 O 482.748 0.229328 -2.15181 0
M  V30 5106 C 483.343 -3.04484 -1.48576 0
M  V30 5107 C 481.902 -3.18713 -2.00248 0
M  V30 5108 C 481.049 -2.6383 -0.853766 0
M  V30 5109 H 484 -1.58685 -0.0221692 0
M  V30 5110 H 484.021 -2.98959 -2.3538 0
M  V30 5111 H 483.533 -3.81264 -0.725222 0
M  V30 5112 H 481.634 -2.46757 -2.79181 0
M  V30 5113 H 481.747 -4.25628 -2.1995 0
M  V30 5114 H 480.111 -2.21667 -1.25442 0
M  V30 5115 H 480.894 -3.43135 -0.106302 0
M  V30 5116 N 483.339 0.512053 -1.4905 0
M  V30 5117 C 484.269 1.62365 -1.67809 0
M  V30 5118 C 485.25 1.61737 -0.526809 0
M  V30 5119 O 486.435 1.78651 -0.761404 0
M  V30 5120 C 483.565 3.00895 -1.73435 0
M  V30 5121 C 482.519 3.16387 -2.88242 0
M  V30 5122 C 481.845 4.56157 -2.78971 0
M  V30 5123 C 483.145 2.97457 -4.29321 0
M  V30 5124 H 484.839 1.46921 -2.60873 0
M  V30 5125 H 482.385 0.705379 -1.2554 0
M  V30 5126 H 484.338 3.78549 -1.85145 0
M  V30 5127 H 483.062 3.17403 -0.769619 0
M  V30 5128 H 481.721 2.41155 -2.76116 0
M  V30 5129 H 481.369 4.69525 -1.8043 0
M  V30 5130 H 481.069 4.67465 -3.5602 0
M  V30 5131 H 482.593 5.35886 -2.92675 0
M  V30 5132 H 484.007 3.64888 -4.42187 0
M  V30 5133 H 482.404 3.20245 -5.07507 0
M  V30 5134 H 483.474 1.93692 -4.44535 0
M  V30 5135 N 484.817 1.37938 0.762283 0
M  V30 5136 C 486.094 1.24196 1.51112 0
M  V30 5137 C 486.474 -0.160409 2.1049 0
M  V30 5138 O 485.822 -1.16904 1.96331 0
M  V30 5139 C 486.032 2.34537 2.58445 0
M  V30 5140 C 487.38 2.7254 3.25588 0
M  V30 5141 O 488.404 2.33783 2.68745 0
M  V30 5142 O 487.263 3.39343 4.28379 0
M  V30 5143 H 484.357 0.485175 0.669727 0
M  V30 5144 H 486.903 1.49743 0.798438 0
M  V30 5145 H 485.675 3.28406 2.12756 0
M  V30 5146 H 485.298 2.10505 3.37303 0
M  V30 5147 N 486.295 -0.989507 1.22664 0
M  V30 5148 C 487.205 -2.11449 1.01619 0
M  V30 5149 C 488.221 -1.73962 -0.036545 0
M  V30 5150 O 489.397 -2.00788 0.156924 0
M  V30 5151 C 486.462 -3.41465 0.600204 0
M  V30 5152 C 485.523 -3.93033 1.72695 0
M  V30 5153 C 484.756 -5.16844 1.33071 0
M  V30 5154 O 484.979 -5.7001 0.210975 0
M  V30 5155 O 483.913 -5.6225 2.14845 0
M  V30 5156 H 487.739 -2.32088 1.9588 0
M  V30 5157 H 485.324 -1.09823 1.01289 0
M  V30 5158 H 487.206 -4.19695 0.37873 0
M  V30 5159 H 485.881 -3.22178 -0.313511 0
M  V30 5160 H 484.788 -3.15961 2.00298 0
M  V30 5161 H 486.121 -4.16758 2.61865 0
M  V30 5162 N 487.773 -1.03688 -1.18687 0
M  V30 5163 C 488.683 -0.634908 -2.25845 0
M  V30 5164 C 489.699 0.337065 -1.70704 0
M  V30 5165 O 490.875 0.192943 -2.00474 0
M  V30 5166 C 487.94 -0.000180054 -3.467 0
M  V30 5167 C 487.001 -1.02067 -4.1699 0
M  V30 5168 C 486.234 -0.41614 -5.32075 0
M  V30 5169 O 486.457 0.778712 -5.65059 0
M  V30 5170 O 485.391 -1.14296 -5.90948 0
M  V30 5171 H 489.217 -1.52757 -2.62486 0
M  V30 5172 H 486.802 -0.807533 -1.25695 0
M  V30 5173 H 488.684 0.353342 -4.19916 0
M  V30 5174 H 487.359 0.866367 -3.11891 0
M  V30 5175 H 486.266 -1.42592 -3.45859 0
M  V30 5176 H 487.599 -1.85786 -4.5579 0
M  V30 5177 N 489.251 1.34841 -0.815825 0
M  V30 5178 C 490.498 1.98499 -0.400535 0
M  V30 5179 C 490.826 1.64699 1.03463 0
M  V30 5180 O 490.081 0.907006 1.73412 0
M  V30 5181 C 490.38 3.53273 -0.541541 0
M  V30 5182 C 490.046 4.06966 -1.94138 0
M  V30 5183 C 488.708 4.21341 -2.32433 0
M  V30 5184 C 491.06 4.35933 -2.85677 0
M  V30 5185 C 488.388 4.62007 -3.61617 0
M  V30 5186 C 490.74 4.78042 -4.14317 0
M  V30 5187 C 489.404 4.90622 -4.52599 0
M  V30 5188 H 488.674 0.72636 -0.146566 0
M  V30 5189 H 491.321 1.60902 -1.0384 0
M  V30 5190 H 489.626 3.91387 0.179741 0
M  V30 5191 H 491.323 4.00497 -0.20085 0
M  V30 5192 H 487.913 3.96235 -1.63388 0
M  V30 5193 H 492.097 4.24372 -2.57337 0
M  V30 5194 H 487.353 4.69937 -3.91113 0
M  V30 5195 H 491.527 4.99415 -4.85342 0
M  V30 5196 H 489.154 5.2189 -5.52752 0
M  V30 5197 N 490.729 0.570148 1.46925 0
M  V30 5198 C 492.145 0.23087 1.57921 0
M  V30 5199 C 492.345 -1.26676 1.56702 0
M  V30 5200 O 491.401 -2.04774 1.47729 0
M  V30 5201 C 492.714 0.868973 2.8787 0
M  V30 5202 C 494.262 0.841397 3.01479 0
M  V30 5203 C 494.737 1.45881 4.34146 0
M  V30 5204 N 496.228 1.42258 4.40814 0
M  V30 5205 C 496.963 1.8698 5.42057 0
M  V30 5206 N 496.459 2.39618 6.50042 0
M  V30 5207 N 498.252 1.77972 5.33181 0
M  V30 5208 H 490.403 1.54301 1.45962 0
M  V30 5209 H 492.666 0.644224 0.69547 0
M  V30 5210 H 492.372 1.922 2.94537 0
M  V30 5211 H 492.246 0.369682 3.75384 0
M  V30 5212 H 494.633 -0.202973 2.94401 0
M  V30 5213 H 494.714 1.37858 2.15474 0
M  V30 5214 H 494.358 2.50231 4.4198 0
M  V30 5215 H 494.288 0.896958 5.18905 0
M  V30 5216 H 496.779 1.03768 3.63374 0
M  V30 5217 H 497.092 2.71633 7.23488 0
M  V30 5218 H 495.437 2.43636 6.50897 0
M  V30 5219 H 498.628 1.36617 4.4772 0
M  V30 5220 H 498.801 2.13143 6.11943 0
M  V30 5221 N 492.207 -1.54576 0.307264 0
M  V30 5222 C 493.139 -2.21212 -0.599807 0
M  V30 5223 C 494.152 -1.20685 -1.09266 0
M  V30 5224 O 495.341 -1.47244 -1.00903 0
M  V30 5225 C 492.441 -2.84994 -1.83389 0
M  V30 5226 C 491.614 -4.11511 -1.48248 0
M  V30 5227 C 490.673 -4.59038 -2.57237 0
M  V30 5228 O 489.699 -5.24095 -2.22065 0
M  V30 5229 N 490.901 -4.31884 -3.87887 0
M  V30 5230 H 493.666 -2.99686 -0.0293075 0
M  V30 5231 H 491.227 -1.61379 0.129738 0
M  V30 5232 H 493.219 -3.1372 -2.5566 0
M  V30 5233 H 491.789 -2.10324 -2.31263 0
M  V30 5234 H 491.009 -3.89728 -0.592122 0
M  V30 5235 H 492.297 -4.93879 -1.22316 0
M  V30 5236 H 491.695 -3.79778 -4.19268 0
M  V30 5237 H 490.252 -4.65304 -4.56438 0
M  V30 5238 N 493.685 -0.035106 -1.57561 0
M  V30 5239 C 494.915 0.651312 -1.96065 0
M  V30 5240 C 495.323 1.6585 -0.910514 0
M  V30 5241 O 494.666 1.83336 0.11552 0
M  V30 5242 C 494.728 1.40897 -3.30739 0
M  V30 5243 C 494.392 0.559436 -4.53563 0
M  V30 5244 C 495.389 -0.16778 -5.19629 0
M  V30 5245 C 493.074 0.495079 -4.99854 0
M  V30 5246 C 495.068 -0.947963 -6.30311 0
M  V30 5247 C 492.755 -0.288804 -6.10417 0
M  V30 5248 C 493.753 -1.00903 -6.75505 0
M  V30 5249 O 493.441 -1.78005 -7.83945 0
M  V30 5250 H 493.173 0.184036 -0.650467 0
M  V30 5251 H 495.727 -0.0929677 -2.05189 0
M  V30 5252 H 493.957 2.19852 -3.18123 0
M  V30 5253 H 495.646 1.98407 -3.54104 0
M  V30 5254 H 496.412 -0.12743 -4.84833 0
M  V30 5255 H 492.291 1.04524 -4.48994 0
M  V30 5256 H 495.835 -1.51064 -6.81047 0
M  V30 5257 H 491.732 -0.33085 -6.44652 0
M  V30 5258 H 492.5 -1.70046 -8.00641 0
M  V30 5259 N 495.163 1.55791 0.238111 0
M  V30 5260 C 496.391 1.82098 0.982233 0
M  V30 5261 C 496.806 0.612025 1.78605 0
M  V30 5262 O 496.163 -0.419381 1.77616 0
M  V30 5263 C 496.214 3.0673 1.91309 0
M  V30 5264 O 495.935 4.2296 1.14179 0
M  V30 5265 C 497.436 3.45903 2.77248 0
M  V30 5266 H 494.656 0.605748 0.288635 0
M  V30 5267 H 497.2 2.02862 0.258341 0
M  V30 5268 H 495.355 2.87991 2.59114 0
M  V30 5269 H 495.769 4.93653 1.7722 0
M  V30 5270 H 497.243 4.36189 3.38295 0
M  V30 5271 H 497.72 2.66891 3.48806 0
M  V30 5272 H 498.326 3.67024 2.14881 0
M  V30 5273 N 496.642 -0.504142 1.49319 0
M  V30 5274 C 497.605 -1.5883 1.65244 0
M  V30 5275 C 498.605 -1.52009 0.524386 0
M  V30 5276 O 499.795 -1.55218 0.79077 0
M  V30 5277 C 496.927 -2.98481 1.64687 0
M  V30 5278 H 498.12 -1.4604 2.61939 0
M  V30 5279 H 495.673 -0.728144 1.38303 0
M  V30 5280 H 496.408 -3.16751 0.695644 0
M  V30 5281 H 496.193 -3.0484 2.46607 0
M  V30 5282 H 497.683 -3.77256 1.79075 0
M  V30 5283 N 498.12 -1.38341 -0.754957 0
M  V30 5284 C 499.367 -1.34473 -1.51404 0
M  V30 5285 C 499.695 0.0656458 -1.94389 0
M  V30 5286 O 498.95 1.04244 -1.65625 0
M  V30 5287 C 499.249 -2.2452 -2.78075 0
M  V30 5288 C 498.915 -3.72512 -2.54059 0
M  V30 5289 C 497.577 -4.1284 -2.47218 0
M  V30 5290 C 499.929 -4.66197 -2.33044 0
M  V30 5291 C 497.257 -5.44945 -2.17376 0
M  V30 5292 C 499.609 -5.98558 -2.04723 0
M  V30 5293 C 498.273 -6.37972 -1.96337 0
M  V30 5294 H 497.543 -0.492072 -0.554027 0
M  V30 5295 H 500.19 -1.70687 -0.868223 0
M  V30 5296 H 498.495 -1.81357 -3.473 0
M  V30 5297 H 500.192 -2.18832 -3.36026 0
M  V30 5298 H 496.782 -3.40538 -2.60253 0
M  V30 5299 H 500.966 -4.35888 -2.37309 0
M  V30 5300 H 496.222 -5.74426 -2.09391 0
M  V30 5301 H 500.396 -6.70693 -1.87465 0
M  V30 5302 H 498.023 -7.40258 -1.72978 0
M  V30 5303 N 499.598 0.982988 -1.23187 0
M  V30 5304 C 500.826 1.75921 -1.08901 0
M  V30 5305 C 501.241 1.85341 0.359719 0
M  V30 5306 O 500.598 1.33072 1.24892 0
M  V30 5307 C 500.649 3.18742 -1.70545 0
M  V30 5308 O 500.37 3.09814 -3.09753 0
M  V30 5309 C 501.871 4.1277 -1.61667 0
M  V30 5310 H 499.091 0.552166 -0.381252 0
M  V30 5311 H 501.635 1.23516 -1.62985 0
M  V30 5312 H 499.79 3.68182 -1.20501 0
M  V30 5313 H 500.204 3.99703 -3.39614 0
M  V30 5314 H 501.678 5.10697 -2.09506 0
M  V30 5315 H 502.155 4.3542 -0.575009 0
M  V30 5316 H 502.761 3.69232 -2.11064 0
M  V30 5317 N 501.076 1.04316 1.18135 0
M  V30 5318 C 502.006 0.657299 2.24058 0
M  V30 5319 C 502.987 -0.340678 1.66654 0
M  V30 5320 O 504.172 -0.220223 1.92947 0
M  V30 5321 C 501.302 0.0220715 3.47293 0
M  V30 5322 C 500.256 0.943857 4.17463 0
M  V30 5323 C 499.582 0.172973 5.3442 0
M  V30 5324 C 500.882 2.26409 4.70677 0
M  V30 5325 H 502.576 1.5428 2.56589 0
M  V30 5326 H 500.122 0.743263 1.23335 0
M  V30 5327 H 502.075 -0.259607 4.206 0
M  V30 5328 H 500.799 -0.898323 3.14003 0
M  V30 5329 H 499.458 1.20996 3.46057 0
M  V30 5330 H 499.106 -0.749907 4.97379 0
M  V30 5331 H 498.806 0.787098 5.82304 0
M  V30 5332 H 500.33 -0.101628 6.10515 0
M  V30 5333 H 501.744 2.04294 5.35665 0
M  V30 5334 H 500.141 2.8314 5.29105 0
M  V30 5335 H 501.211 2.90883 3.87962 0
M  V30 5336 N 502.554 -1.34406 0.822964 0
M  V30 5337 C 503.965 -1.8069 0.469879 0
M  V30 5338 C 504.316 -1.68223 -1.00972 0
M  V30 5339 O 503.441 -1.22226 -1.78577 0
M  V30 5340 C 504.036 -3.28064 0.846118 0
M  V30 5341 C 502.595 -3.72428 0.545402 0
M  V30 5342 C 501.742 -2.56116 1.06301 0
M  V30 5343 H 504.693 -1.22153 1.01313 0
M  V30 5344 H 504.714 -3.80205 0.149922 0
M  V30 5345 H 504.226 -3.37107 1.92304 0
M  V30 5346 H 502.327 -3.68924 -0.522109 0
M  V30 5347 H 502.44 -4.66548 1.0895 0
M  V30 5348 H 500.804 -2.50048 0.484554 0
M  V30 5349 H 501.587 -2.67928 2.14638 0
M  V30 5350 N 504.032 -0.577932 -1.46621 0
M  V30 5351 C 505.257 -0.0652536 -2.07297 0
M  V30 5352 C 505.682 1.22828 -1.4246 0
M  V30 5353 O 505.04 1.74075 -0.506718 0
M  V30 5354 C 505.088 0.0920589 -3.60482 0
M  V30 5355 O 504.192 1.14972 -3.96049 0
M  V30 5356 H 503.533 -0.06065 -0.661224 0
M  V30 5357 H 506.063 -0.799515 -1.88332 0
M  V30 5358 H 506.073 0.299741 -4.06897 0
M  V30 5359 H 504.748 -0.852612 -4.07067 0
M  V30 5360 H 503.325 0.920879 -3.61351 0
M  V30 5361 N 505.51 1.54411 -0.315457 0
M  V30 5362 C 506.756 2.00716 0.289972 0
M  V30 5363 C 507.089 1.2034 1.5242 0
M  V30 5364 O 506.364 0.283579 1.92422 0
M  V30 5365 C 506.647 3.54507 0.632196 0
M  V30 5366 C 506.5 4.45615 -0.61218 0
M  V30 5367 C 507.819 4.15421 1.45305 0
M  V30 5368 H 504.938 0.729637 0.10392 0
M  V30 5369 H 507.58 1.8506 -0.430427 0
M  V30 5370 H 505.73 3.67979 1.24595 0
M  V30 5371 H 507.402 4.44026 -1.25053 0
M  V30 5372 H 505.645 4.15621 -1.24264 0
M  V30 5373 H 506.316 5.51022 -0.328379 0
M  V30 5374 H 508.792 4.05474 0.934331 0
M  V30 5375 H 507.668 5.23157 1.66127 0
M  V30 5376 H 507.929 3.68223 2.44671 0
M  V30 5377 N 506.988 0.0434614 1.5754 0
M  V30 5378 C 507.936 -0.951465 2.1225 0
M  V30 5379 C 508.93 -1.3274 1.05245 0
M  V30 5380 O 510.136 -1.30795 1.23663 0
M  V30 5381 H 506.511 -0.324667 0.678303 0
M  V30 5382 H 508.482 -0.464855 2.94757 0
M  V30 5383 C 507.231 -2.21972 2.67626 0
M  V30 5384 H 506.554 -1.93923 3.4962 0
M  V30 5385 H 507.994 -2.89765 3.09536 0
M  V30 5386 C 506.453 -2.95919 1.61038 0
M  V30 5387 O 506.983 -3.8857 1.01862 0
M  V30 5388 N 505.189 -2.58511 1.32741 0
M  V30 5389 H 504.736 -1.83244 1.81051 0
M  V30 5390 H 504.694 -3.08296 0.616531 0
M  V30 5391 N 508.466 -1.55915 -0.229846 0
M  V30 5392 C 509.414 -1.9258 -1.30444 0
M  V30 5393 C 510.408 -0.806839 -1.48951 0
M  V30 5394 O 511.614 -0.991606 -1.50224 0
M  V30 5395 H 507.989 -0.611878 -0.437161 0
M  V30 5396 H 509.96 -2.82264 -0.96797 0
M  V30 5397 C 508.709 -2.25171 -2.6494 0
M  V30 5398 H 508.032 -3.10782 -2.51504 0
M  V30 5399 H 509.472 -2.54716 -3.38963 0
M  V30 5400 C 507.931 -1.07394 -3.19324 0
M  V30 5401 O 508.461 -0.330759 -4.00336 0
M  V30 5402 N 506.667 -0.859984 -2.77584 0
M  V30 5403 H 506.214 -1.46605 -2.11813 0
M  V30 5404 H 506.172 -0.0736671 -3.14314 0
M  V30 5405 N 509.944 0.496216 -1.49584 0
M  V30 5406 C 510.907 1.57952 -1.66084 0
M  V30 5407 C 511.907 1.51729 -0.53244 0
M  V30 5408 O 513.097 1.54796 -0.79899 0
M  V30 5409 C 510.229 2.97604 -1.66268 0
M  V30 5410 H 511.422 1.44649 -2.6271 0
M  V30 5411 H 508.975 0.7208 -1.38687 0
M  V30 5412 H 509.71 3.16378 -0.712432 0
M  V30 5413 H 509.495 3.03528 -2.4822 0
M  V30 5414 H 510.985 3.76301 -1.81073 0
M  V30 5415 N 511.423 1.38739 0.74761 0
M  V30 5416 C 512.333 1.38696 1.89211 0
M  V30 5417 C 513.349 0.283303 1.71678 0
M  V30 5418 O 514.525 0.522713 1.94498 0
M  V30 5419 C 511.59 1.21662 3.24653 0
M  V30 5420 C 510.651 2.41886 3.54669 0
M  V30 5421 C 509.884 2.25655 4.83648 0
M  V30 5422 O 510.107 1.25339 5.56459 0
M  V30 5423 O 509.041 3.14372 5.13277 0
M  V30 5424 H 512.867 2.35143 1.92202 0
M  V30 5425 H 510.452 1.19721 0.893708 0
M  V30 5426 H 512.334 1.14246 4.05618 0
M  V30 5427 H 511.009 0.283024 3.2246 0
M  V30 5428 H 509.916 2.54877 2.73841 0
M  V30 5429 H 511.249 3.33895 3.61628 0
M  V30 5430 N 512.901 -0.976442 1.23707 0
M  V30 5431 C 514.312 -1.53284 1.06587 0
M  V30 5432 C 514.663 -1.92765 -0.365526 0
M  V30 5433 O 513.788 -1.7645 -1.25277 0
M  V30 5434 C 514.383 -2.78548 1.92864 0
M  V30 5435 C 512.942 -3.30574 1.79994 0
M  V30 5436 C 512.089 -2.03538 1.88328 0
M  V30 5437 H 515.04 -0.795692 1.37311 0
M  V30 5438 H 515.061 -3.5155 1.45577 0
M  V30 5439 H 514.573 -2.49782 2.97037 0
M  V30 5440 H 512.674 -3.64211 0.786202 0
M  V30 5441 H 512.787 -4.00065 2.636 0
M  V30 5442 H 511.151 -2.17853 1.31954 0
M  V30 5443 H 511.934 -1.77149 2.94063 0
M  V30 5444 N 514.379 -1.04941 -1.1758 0
M  V30 5445 C 515.627 -0.756492 -1.87408 0
M  V30 5446 C 515.948 0.718478 -1.81281 0
M  V30 5447 O 515.218 1.519 -1.23706 0
M  V30 5448 H 513.798 -0.276841 -0.693807 0
M  V30 5449 H 516.46 -1.32803 -1.42652 0
M  V30 5450 H 515.556 -1.06918 -2.93215 0
M  V30 5451 N 515.857 1.33968 -0.830081 0
M  V30 5452 C 516.804 2.29387 -0.255008 0
M  V30 5453 C 517.774 1.53923 0.624243 0
M  V30 5454 O 518.959 1.82262 0.564372 0
M  V30 5455 C 516.099 3.4034 0.571209 0
M  V30 5456 C 515.212 4.30729 -0.331083 0
M  V30 5457 C 514.347 5.2879 0.505389 0
M  V30 5458 C 513.386 6.10819 -0.395843 0
M  V30 5459 N 512.523 7.00948 0.401979 0
M  V30 5460 H 517.363 2.77972 -1.07404 0
M  V30 5461 H 514.9 1.36785 -0.541133 0
M  V30 5462 H 516.858 4.03361 1.06562 0
M  V30 5463 H 515.488 2.9297 1.35529 0
M  V30 5464 H 514.54 3.68507 -0.943759 0
M  V30 5465 H 515.852 4.88181 -1.02377 0
M  V30 5466 H 515.006 5.97297 1.06399 0
M  V30 5467 H 513.745 4.71894 1.23155 0
M  V30 5468 H 512.75 5.41238 -0.966529 0
M  V30 5469 H 513.975 6.69797 -1.12023 0
M  V30 5470 H 511.921 6.46512 1.11168 0
M  V30 5471 H 511.838 7.55643 -0.232167 0
M  V30 5472 H 513.106 7.73774 0.943102 0
M  V30 5473 N 517.335 0.585699 1.46312 0
M  V30 5474 C 518.751 0.247607 1.57668 0
M  V30 5475 C 518.951 -1.25007 1.58037 0
M  V30 5476 O 518.007 -2.03196 1.49893 0
M  V30 5477 C 519.32 0.899456 2.86933 0
M  V30 5478 C 520.868 0.873326 3.00569 0
M  V30 5479 C 521.343 1.50477 4.32574 0
M  V30 5480 N 522.834 1.46925 4.3928 0
M  V30 5481 C 523.569 1.92719 5.40044 0
M  V30 5482 N 523.065 2.46499 6.47464 0
M  V30 5483 N 524.858 1.83617 5.31264 0
M  V30 5484 H 517.009 1.55841 1.44317 0
M  V30 5485 H 519.272 0.651564 0.688599 0
M  V30 5486 H 518.978 1.95313 2.92482 0
M  V30 5487 H 518.852 0.409476 3.74971 0
M  V30 5488 H 521.239 -0.171736 2.946 0
M  V30 5489 H 521.32 1.40136 2.13999 0
M  V30 5490 H 520.964 2.54905 4.39302 0
M  V30 5491 H 520.894 0.951944 5.17924 0
M  V30 5492 H 523.385 1.07616 3.62253 0
M  V30 5493 H 523.698 2.79291 7.20567 0
M  V30 5494 H 522.043 2.50526 6.48276 0
M  V30 5495 H 525.234 1.41358 4.46246 0
M  V30 5496 H 525.407 2.19622 6.09648 0
M  V30 5497 N 518.813 -1.54241 0.323641 0
M  V30 5498 C 520.043 -2.04687 -0.280464 0
M  V30 5499 C 520.451 -1.19939 -1.46326 0
M  V30 5500 O 519.794 -0.222872 -1.82343 0
M  V30 5501 C 519.856 -3.50978 -0.778123 0
M  V30 5502 C 519.52 -4.56127 0.282371 0
M  V30 5503 C 520.517 -5.07726 1.11847 0
M  V30 5504 C 518.202 -5.00451 0.430582 0
M  V30 5505 C 520.196 -6.02212 2.08851 0
M  V30 5506 C 517.883 -5.94752 1.40404 0
M  V30 5507 C 518.881 -6.45519 2.23147 0
M  V30 5508 O 518.569 -7.37968 3.1884 0
M  V30 5509 H 518.301 -0.673192 -0.0615473 0
M  V30 5510 H 520.855 -1.99999 0.467921 0
M  V30 5511 H 519.085 -3.53064 -1.57742 0
M  V30 5512 H 520.774 -3.84499 -1.30058 0
M  V30 5513 H 521.54 -4.74261 1.01496 0
M  V30 5514 H 517.419 -4.6055 -0.203569 0
M  V30 5515 H 520.963 -6.41761 2.73474 0
M  V30 5516 H 516.86 -6.27633 1.5082 0
M  V30 5517 H 517.628 -7.55841 3.14079 0
M  V30 5518 N 520.291 -0.0518155 -1.57515 0
M  V30 5519 C 521.54 0.621286 -1.91893 0
M  V30 5520 C 521.853 1.71966 -0.932052 0
M  V30 5521 O 523.059 2.45096 -1.16791 0
M  V30 5522 C 521.515 1.15641 -3.40816 0
M  V30 5523 C 521.123 0.0901146 -4.47909 0
M  V30 5524 C 522.867 1.80472 -3.84227 0
M  V30 5525 C 520.774 0.638154 -5.87947 0
M  V30 5526 H 519.704 0.235835 -0.716169 0
M  V30 5527 H 522.355 -0.120809 -1.83102 0
M  V30 5528 H 520.737 1.95084 -3.44613 0
M  V30 5529 H 521.911 -0.683525 -4.55702 0
M  V30 5530 H 520.226 -0.460774 -4.13843 0
M  V30 5531 H 522.823 2.22471 -4.86221 0
M  V30 5532 H 523.166 2.65669 -3.20508 0
M  V30 5533 H 523.699 1.07683 -3.82948 0
M  V30 5534 H 520.438 -0.176202 -6.55263 0
M  V30 5535 H 519.958 1.37976 -5.83714 0
M  V30 5536 H 521.637 1.12085 -6.37217 0
M  V30 5537 N 521.769 1.56035 0.221574 0
M  V30 5538 C 522.999 1.82864 0.961468 0
M  V30 5539 C 523.407 0.628703 1.78449 0
M  V30 5540 O 522.75 -0.412109 1.79018 0
M  V30 5541 C 522.812 3.03425 1.92804 0
M  V30 5542 C 522.476 4.38429 1.28954 0
M  V30 5543 C 523.473 5.15441 0.679431 0
M  V30 5544 C 521.158 4.85151 1.30131 0
M  V30 5545 C 523.152 6.37337 0.0896148 0
M  V30 5546 C 520.839 6.06989 0.707651 0
M  V30 5547 C 521.837 6.82923 0.102855 0
M  V30 5548 O 521.525 8.02456 -0.48157 0
M  V30 5549 H 521.257 0.611883 0.28736 0
M  V30 5550 H 523.811 2.0397 0.241932 0
M  V30 5551 H 522.041 2.78138 2.68656 0
M  V30 5552 H 523.73 3.17127 2.53348 0
M  V30 5553 H 524.496 4.80452 0.662661 0
M  V30 5554 H 520.375 4.26021 1.76145 0
M  V30 5555 H 523.919 6.96547 -0.383069 0
M  V30 5556 H 519.816 6.41451 0.721834 0
M  V30 5557 H 520.584 8.17636 -0.375887 0
M  V30 5558 N 523.247 -0.488276 1.49845 0
M  V30 5559 C 524.194 -1.58836 1.67451 0
M  V30 5560 C 525.164 -1.57886 0.515857 0
M  V30 5561 O 526.349 -1.75679 0.744403 0
M  V30 5562 C 523.489 -2.96915 1.75885 0
M  V30 5563 C 522.602 -3.07784 3.03138 0
M  V30 5564 C 521.737 -4.36673 3.02473 0
M  V30 5565 C 520.776 -4.41222 4.24252 0
M  V30 5566 N 519.913 -5.61557 4.21424 0
M  V30 5567 H 524.753 -1.43131 2.61376 0
M  V30 5568 H 522.29 -0.696186 1.29583 0
M  V30 5569 H 524.248 -3.76965 1.78755 0
M  V30 5570 H 522.878 -3.11295 0.85414 0
M  V30 5571 H 521.93 -2.20717 3.09819 0
M  V30 5572 H 523.242 -3.07005 3.93128 0
M  V30 5573 H 522.396 -5.25055 3.03977 0
M  V30 5574 H 521.135 -4.40037 2.10283 0
M  V30 5575 H 520.14 -3.5124 4.22978 0
M  V30 5576 H 521.365 -4.39564 5.17649 0
M  V30 5577 H 519.311 -5.65738 3.32078 0
M  V30 5578 H 519.228 -5.62447 5.05163 0
M  V30 5579 H 520.496 -6.52111 4.2705 0
M  V30 5580 N 524.725 -1.39134 -0.740242 0
M  V30 5581 C 525.971 -1.36273 -1.50192 0
M  V30 5582 C 526.304 0.0430136 -1.94152 0
M  V30 5583 O 525.579 1.00691 -1.66408 0
M  V30 5584 C 525.862 -2.33041 -2.74525 0
M  V30 5585 C 525.715 -3.82535 -2.36617 0
M  V30 5586 C 527.034 -2.27723 -3.76604 0
M  V30 5587 H 524.153 -0.496323 -0.544823 0
M  V30 5588 H 526.795 -1.70085 -0.846815 0
M  V30 5589 H 524.945 -2.04337 -3.30422 0
M  V30 5590 H 526.617 -4.21967 -1.86391 0
M  V30 5591 H 524.86 -3.99565 -1.68909 0
M  V30 5592 H 525.531 -4.45723 -3.2563 0
M  V30 5593 H 528.007 -2.53091 -3.30279 0
M  V30 5594 H 526.883 -2.97519 -4.61274 0
M  V30 5595 H 527.144 -1.28049 -4.2315 0
M  V30 5596 N 526.204 0.969867 -1.24223 0
M  V30 5597 C 527.134 2.08191 -1.05729 0
M  V30 5598 C 528.115 1.70075 0.0290765 0
M  V30 5599 O 529.3 1.93712 -0.137583 0
M  V30 5600 C 526.43 3.40991 -0.658995 0
M  V30 5601 C 525.384 3.93054 -1.69389 0
M  V30 5602 C 524.71 5.22171 -1.15072 0
M  V30 5603 C 526.01 4.21137 -3.08935 0
M  V30 5604 H 527.704 2.23921 -1.98746 0
M  V30 5605 H 525.25 1.07602 -0.956967 0
M  V30 5606 H 527.203 4.18221 -0.51662 0
M  V30 5607 H 525.927 3.25155 0.30686 0
M  V30 5608 H 524.586 3.17977 -1.82444 0
M  V30 5609 H 524.234 5.02694 -0.175539 0
M  V30 5610 H 523.934 5.57973 -1.84229 0
M  V30 5611 H 525.458 6.02013 -1.02042 0
M  V30 5612 H 526.872 4.8908 -2.99121 0
M  V30 5613 H 525.269 4.68163 -3.75425 0
M  V30 5614 H 526.339 3.27996 -3.57137 0
M  V30 5615 N 527.682 1.05563 1.17022 0
M  V30 5616 C 529.093 0.793475 1.69 0
M  V30 5617 C 529.444 -0.683882 1.83895 0
M  V30 5618 O 528.569 -1.53116 1.5292 0
M  V30 5619 C 529.164 1.43376 3.06967 0
M  V30 5620 C 527.723 1.21956 3.56095 0
M  V30 5621 C 526.87 1.51494 2.3226 0
M  V30 5622 H 529.821 1.22008 1.01487 0
M  V30 5623 H 529.842 0.845068 3.70997 0
M  V30 5624 H 529.354 2.50899 2.96093 0
M  V30 5625 H 527.455 0.163749 3.7224 0
M  V30 5626 H 527.568 1.92713 4.38633 0
M  V30 5627 H 525.932 0.935175 2.3691 0
M  V30 5628 H 526.715 2.60159 2.23992 0
M  V30 5629 N 529.16 -1.33526 0.837174 0
M  V30 5630 C 530.092 -2.28077 0.226579 0
M  V30 5631 C 531.105 -1.51666 -0.591717 0
M  V30 5632 O 532.294 -1.73511 -0.419064 0
M  V30 5633 C 529.394 -3.31597 -0.69978 0
M  V30 5634 C 528.567 -4.37329 0.0788067 0
M  V30 5635 C 527.626 -5.20526 -0.770637 0
M  V30 5636 O 526.652 -5.68811 -0.210453 0
M  V30 5637 N 527.854 -5.41639 -2.08825 0
M  V30 5638 H 530.619 -2.81115 1.03897 0
M  V30 5639 H 528.18 -1.46201 0.695476 0
M  V30 5640 H 530.172 -3.84158 -1.27298 0
M  V30 5641 H 528.742 -2.78848 -1.41288 0
M  V30 5642 H 527.962 -3.8529 0.833381 0
M  V30 5643 H 529.25 -5.05079 0.614238 0
M  V30 5644 H 528.648 -5.04108 -2.56693 0
M  V30 5645 H 527.205 -5.97263 -2.60998 0
M  V30 5646 N 530.638 -0.59345 -1.46 0
M  V30 5647 C 531.886 -0.082988 -2.0193 0
M  V30 5648 C 532.207 1.28569 -1.46612 0
M  V30 5649 O 531.477 1.84629 -0.654909 0
M  V30 5650 H 530.057 -0.0276882 -0.746487 0
M  V30 5651 H 532.719 -0.771657 -1.78973 0
M  V30 5652 H 531.815 -0.022079 -3.12092 0
M  V30 5653 N 532.116 1.54067 -0.331816 0
M  V30 5654 C 533.362 2.01713 0.261395 0
M  V30 5655 C 533.717 1.21566 1.49129 0
M  V30 5656 O 533.01 0.291867 1.89364 0
M  V30 5657 C 533.204 3.51634 0.639392 0
M  V30 5658 C 533.033 4.46295 -0.552321 0
M  V30 5659 C 531.803 4.94185 -1.05399 0
M  V30 5660 C 534.001 4.94677 -1.40711 0
M  V30 5661 N 531.983 5.7277 -2.20925 0
M  V30 5662 C 533.354 5.71267 -2.40943 0
M  V30 5663 C 535.409 4.76805 -1.43392 0
M  V30 5664 C 534.112 6.31889 -3.4367 0
M  V30 5665 C 536.138 5.38268 -2.44994 0
M  V30 5666 C 535.5 6.14716 -3.43952 0
M  V30 5667 H 531.599 0.77975 0.0592729 0
M  V30 5668 H 534.183 1.88974 -0.468726 0
M  V30 5669 H 532.354 3.64603 1.33863 0
M  V30 5670 H 534.086 3.86038 1.21478 0
M  V30 5671 H 530.841 4.69472 -0.623952 0
M  V30 5672 H 531.265 6.16737 -2.79222 0
M  V30 5673 H 535.907 4.17255 -0.682489 0
M  V30 5674 H 533.625 6.90554 -4.19715 0
M  V30 5675 H 537.211 5.26352 -2.4788 0
M  V30 5676 H 536.091 6.6143 -4.21283 0
M  V30 5677 N 533.594 0.0601682 1.57485 0
M  V30 5678 C 534.541 -0.91112 2.12055 0
M  V30 5679 C 535.511 -1.30298 1.03013 0
M  V30 5680 O 536.696 -1.39087 1.30612 0
M  V30 5681 C 533.836 -2.1775 2.67729 0
M  V30 5682 C 532.949 -1.83933 3.90887 0
M  V30 5683 C 532.084 -3.05096 4.34845 0
M  V30 5684 C 531.123 -2.67241 5.5068 0
M  V30 5685 N 530.26 -3.81127 5.8965 0
M  V30 5686 H 535.1 -0.43888 2.9475 0
M  V30 5687 H 532.637 -0.204995 1.45665 0
M  V30 5688 H 534.595 -2.91866 2.98111 0
M  V30 5689 H 533.225 -2.62535 1.87816 0
M  V30 5690 H 532.277 -0.999287 3.6704 0
M  V30 5691 H 533.589 -1.52074 4.75052 0
M  V30 5692 H 532.743 -3.87502 4.66827 0
M  V30 5693 H 531.482 -3.40139 3.49509 0
M  V30 5694 H 530.487 -1.83254 5.18361 0
M  V30 5695 H 531.712 -2.3338 6.37738 0
M  V30 5696 H 529.658 -4.15954 5.07266 0
M  V30 5697 H 529.575 -3.52997 6.68528 0
M  V30 5698 H 530.843 -4.64145 6.2625 0
M  V30 5699 N 535.072 -1.5615 -0.213296 0
M  V30 5700 C 536.32 -1.79191 -0.934612 0
M  V30 5701 C 536.641 -0.630112 -1.84539 0
M  V30 5702 O 535.911 0.35257 -1.92701 0
M  V30 5703 H 534.491 -0.660937 -0.348097 0
M  V30 5704 H 537.153 -1.93618 -0.22317 0
M  V30 5705 H 536.249 -2.71656 -1.53654 0
M  V30 5706 N 536.55 0.480323 -1.50102 0
M  V30 5707 C 537.775 1.26126 -1.64642 0
M  V30 5708 C 538.2 1.85257 -0.325823 0
M  V30 5709 O 537.558 1.66854 0.709194 0
M  V30 5710 C 537.606 2.35243 -2.73301 0
M  V30 5711 O 536.71 3.39646 -2.33911 0
M  V30 5712 H 536.051 0.371463 -0.550374 0
M  V30 5713 H 538.581 0.572696 -1.96421 0
M  V30 5714 H 538.591 2.80695 -2.96098 0
M  V30 5715 H 537.266 1.91574 -3.6915 0
M  V30 5716 H 535.843 2.99969 -2.21525 0
M  V30 5717 N 538.028 1.39524 0.732853 0
M  V30 5718 C 539.439 1.32905 1.31122 0
M  V30 5719 C 539.79 -0.00558708 1.96199 0
M  V30 5720 O 538.915 -0.907706 1.96443 0
M  V30 5721 C 539.51 2.40704 2.38426 0
M  V30 5722 C 538.069 2.37599 2.91931 0
M  V30 5723 C 537.216 2.2248 1.65523 0
M  V30 5724 H 540.167 1.49581 0.530207 0
M  V30 5725 H 540.188 2.07616 3.18867 0
M  V30 5726 H 539.7 3.37829 1.91033 0
M  V30 5727 H 537.801 1.44119 3.43599 0
M  V30 5728 H 537.914 3.32538 3.44899 0
M  V30 5729 H 536.278 1.69691 1.8994 0
M  V30 5730 H 537.061 3.21577 1.20178 0
M  V30 5731 N 539.506 -0.963266 1.24736 0
M  V30 5732 C 540.469 -2.04013 1.04457 0
M  V30 5733 C 541.469 -1.608 0.000335555 0
M  V30 5734 O 542.659 -1.72515 0.241719 0
M  V30 5735 C 539.791 -3.35858 0.584162 0
M  V30 5736 H 540.984 -2.23436 2.00041 0
M  V30 5737 H 538.537 -1.13914 1.07021 0
M  V30 5738 H 539.272 -3.22128 -0.374673 0
M  V30 5739 H 539.057 -3.68568 1.3379 0
M  V30 5740 H 540.547 -4.1502 0.463451 0
M  V30 5741 N 540.985 -1.06182 -1.16461 0
M  V30 5742 C 542.234 -0.772927 -1.86303 0
M  V30 5743 C 542.547 0.703187 -1.82523 0
M  V30 5744 O 543.753 1.10641 -2.47933 0
M  V30 5745 C 542.209 -1.33249 -3.34324 0
M  V30 5746 C 541.817 -2.83876 -3.46581 0
M  V30 5747 C 543.561 -1.12108 -4.09429 0
M  V30 5748 C 541.468 -3.33082 -4.88682 0
M  V30 5749 H 540.398 -0.285452 -0.697878 0
M  V30 5750 H 543.049 -1.28039 -1.31447 0
M  V30 5751 H 541.431 -0.7528 -3.88779 0
M  V30 5752 H 542.605 -3.47786 -3.02293 0
M  V30 5753 H 540.92 -3.03671 -2.84909 0
M  V30 5754 H 543.517 -1.46361 -5.14279 0
M  V30 5755 H 543.86 -0.0593832 -4.16258 0
M  V30 5756 H 544.393 -1.6665 -3.6121 0
M  V30 5757 H 541.132 -4.38726 -4.87032 0
M  V30 5758 H 540.652 -2.73919 -5.33599 0
M  V30 5759 H 542.331 -3.28344 -5.57494 0
M  V30 5760 N 542.463 1.3308 -0.844243 0
M  V30 5761 C 543.71 1.97605 -0.44255 0
M  V30 5762 C 544.038 1.66856 0.999458 0
M  V30 5763 O 543.293 0.943586 1.7145 0
M  V30 5764 C 543.592 3.52045 -0.616354 0
M  V30 5765 C 543.258 4.02757 -2.02726 0
M  V30 5766 C 541.92 4.16316 -2.41317 0
M  V30 5767 C 544.272 4.29776 -2.9486 0
M  V30 5768 C 541.6 4.54232 -3.71335 0
M  V30 5769 C 543.952 4.69146 -4.24364 0
M  V30 5770 C 542.616 4.80911 -4.62904 0
M  V30 5771 H 541.886 0.723088 -0.161941 0
M  V30 5772 H 544.533 1.58663 -1.0723 0
M  V30 5773 H 542.838 3.91681 0.0966812 0
M  V30 5774 H 544.535 3.99981 -0.285756 0
M  V30 5775 H 541.125 3.9268 -1.71756 0
M  V30 5776 H 545.309 4.18818 -2.6628 0
M  V30 5777 H 540.565 4.61535 -4.00993 0
M  V30 5778 H 544.739 4.89008 -4.95827 0
M  V30 5779 H 542.366 5.10048 -5.63698 0
M  V30 5780 N 543.941 0.601185 1.45683 0
M  V30 5781 C 544.873 -0.159446 2.28645 0
M  V30 5782 C 545.886 -0.837882 1.39583 0
M  V30 5783 O 547.075 -0.704344 1.64016 0
M  V30 5784 C 544.175 -1.24641 3.15147 0
M  V30 5785 C 543.348 -0.656334 4.32448 0
M  V30 5786 C 542.407 -1.63337 5.00208 0
M  V30 5787 O 541.433 -1.16217 5.57209 0
M  V30 5788 N 542.635 -2.96773 4.98905 0
M  V30 5789 H 545.4 0.5524 2.94565 0
M  V30 5790 H 542.961 0.440223 1.558 0
M  V30 5791 H 544.953 -1.8997 3.57342 0
M  V30 5792 H 543.523 -1.86087 2.51178 0
M  V30 5793 H 542.743 0.174879 3.93812 0
M  V30 5794 H 544.031 -0.242211 5.08223 0
M  V30 5795 H 543.429 -3.37662 4.53873 0
M  V30 5796 H 541.986 -3.57541 5.44984 0
M  V30 5797 N 545.419 -1.53889 0.339982 0
M  V30 5798 C 546.649 -2.04973 -0.258738 0
M  V30 5799 C 547.057 -1.21485 -1.45045 0
M  V30 5800 O 546.4 -0.2422 -1.82096 0
M  V30 5801 C 546.462 -3.51783 -0.740853 0
M  V30 5802 C 546.126 -4.55802 0.330734 0
M  V30 5803 C 547.123 -5.06512 1.17226 0
M  V30 5804 C 544.808 -4.99966 0.483637 0
M  V30 5805 C 546.802 -5.99963 2.15227 0
M  V30 5806 C 544.489 -5.93229 1.46704 0
M  V30 5807 C 545.487 -6.43115 2.29981 0
M  V30 5808 O 545.175 -7.34545 3.26649 0
M  V30 5809 H 544.907 -0.673807 -0.0544037 0
M  V30 5810 H 547.461 -1.99492 0.489107 0
M  V30 5811 H 545.691 -3.54717 -1.53988 0
M  V30 5812 H 547.38 -3.85857 -1.25973 0
M  V30 5813 H 548.146 -4.73158 1.0652 0
M  V30 5814 H 544.025 -4.6074 -0.15471 0
M  V30 5815 H 547.569 -6.38825 2.80265 0
M  V30 5816 H 543.466 -6.25998 1.57468 0
M  V30 5817 H 544.234 -7.52468 3.22078 0
M  V30 5818 N 546.897 -0.0685191 -1.57451 0
M  V30 5819 C 548.125 0.610462 -1.97689 0
M  V30 5820 C 548.54 1.63346 -0.946758 0
M  V30 5821 O 547.897 1.82377 0.0669868 0
M  V30 5822 C 547.948 1.28196 -3.38006 0
M  V30 5823 O 547.669 0.299906 -4.37072 0
M  V30 5824 C 549.17 2.04907 -3.931 0
M  V30 5825 H 546.39 0.165689 -0.650222 0
M  V30 5826 H 548.934 -0.139953 -2.04021 0
M  V30 5827 H 547.089 1.98348 -3.32771 0
M  V30 5828 H 547.503 0.78126 -5.18649 0
M  V30 5829 H 548.977 2.47287 -4.93511 0
M  V30 5830 H 549.454 2.9043 -3.29465 0
M  V30 5831 H 550.06 1.39629 -4.01726 0
M  V30 5832 N 548.375 1.56261 0.205012 0
M  V30 5833 C 549.308 1.88797 1.28183 0
M  V30 5834 C 550.286 0.747018 1.44424 0
M  V30 5835 O 551.47 0.997039 1.59973 0
M  V30 5836 C 548.597 2.10949 2.64987 0
M  V30 5837 C 547.643 3.33649 2.6567 0
M  V30 5838 S 548.476 4.89078 2.18088 0
M  V30 5839 C 549.632 5.14286 3.56736 0
M  V30 5840 H 549.865 2.79837 1.00393 0
M  V30 5841 H 547.398 1.48911 0.408042 0
M  V30 5842 H 549.356 2.24395 3.4374 0
M  V30 5843 H 548.017 1.20678 2.89993 0
M  V30 5844 H 547.21 3.46245 3.66239 0
M  V30 5845 H 546.812 3.19146 1.94992 0
M  V30 5846 H 549.104 5.04198 4.52537 0
M  V30 5847 H 550.047 6.16096 3.49043 0
M  V30 5848 H 550.455 4.41957 3.51189 0
M  V30 5849 N 549.853 -0.472356 1.50355 0
M  V30 5850 C 551.269 -0.806001 1.37753 0
M  V30 5851 C 551.469 -1.968 0.432649 0
M  V30 5852 O 550.525 -2.52189 -0.12519 0
M  V30 5853 C 551.838 -1.11926 2.79093 0
M  V30 5854 C 553.386 -1.22579 2.87999 0
M  V30 5855 C 553.861 -1.57218 4.3017 0
M  V30 5856 N 555.352 -1.64212 4.33115 0
M  V30 5857 C 556.087 -1.92517 5.40116 0
M  V30 5858 N 555.583 -2.1885 6.57325 0
M  V30 5859 N 557.376 -1.94008 5.27558 0
M  V30 5860 H 549.527 0.293451 2.10363 0
M  V30 5861 H 551.79 0.0687672 0.945503 0
M  V30 5862 H 551.496 -0.338504 3.50067 0
M  V30 5863 H 551.37 -2.05577 3.16256 0
M  V30 5864 H 553.757 -1.99722 2.17245 0
M  V30 5865 H 553.838 -0.269107 2.54381 0
M  V30 5866 H 553.482 -0.806154 5.01461 0
M  V30 5867 H 553.412 -2.54034 4.61275 0
M  V30 5868 H 555.903 -1.45906 3.48597 0
M  V30 5869 H 556.216 -2.39718 7.3468 0
M  V30 5870 H 554.561 -2.16245 6.60502 0
M  V30 5871 H 557.752 -1.72931 4.34986 0
M  V30 5872 H 557.925 -2.15731 6.11035 0
M  V30 5873 N 551.331 -1.39911 -0.725443 0
M  V30 5874 C 552.281 -1.35878 -1.83088 0
M  V30 5875 C 553.265 -0.237989 -1.5913 0
M  V30 5876 O 554.457 -0.476302 -1.70471 0
M  V30 5877 C 551.586 -1.21403 -3.21117 0
M  V30 5878 C 550.672 -2.38223 -3.50871 0
M  V30 5879 N 551.063 -3.63703 -3.51502 0
M  V30 5880 C 549.361 -2.31388 -3.81281 0
M  V30 5881 C 550.062 -4.4101 -3.79322 0
M  V30 5882 N 549.038 -3.7072 -3.97577 0
M  V30 5883 H 552.84 -2.3085 -1.81895 0
M  V30 5884 H 550.354 -1.33543 -0.924125 0
M  V30 5885 H 552.351 -1.16597 -4.00263 0
M  V30 5886 H 551.011 -0.273902 -3.23543 0
M  V30 5887 H 552.022 -3.96998 -3.32586 0
M  V30 5888 H 548.699 -1.45689 -3.91256 0
M  V30 5889 H 550.089 -5.49819 -3.86198 0
M  V30 5890 N 552.809 0.956637 -1.25245 0
M  V30 5891 C 554.055 1.70352 -1.10036 0
M  V30 5892 C 554.388 1.90869 0.358156 0
M  V30 5893 O 553.663 1.47819 1.26411 0
M  V30 5894 C 553.946 3.08766 -1.85298 0
M  V30 5895 C 553.799 2.95672 -3.38966 0
M  V30 5896 C 555.118 4.08622 -1.63451 0
M  V30 5897 H 552.237 0.618279 -0.401123 0
M  V30 5898 H 554.879 1.11212 -1.54051 0
M  V30 5899 H 553.029 3.59252 -1.47887 0
M  V30 5900 H 554.701 2.52527 -3.86041 0
M  V30 5901 H 552.944 2.31634 -3.6678 0
M  V30 5902 H 553.615 3.93776 -3.86839 0
M  V30 5903 H 556.091 3.67038 -1.96015 0
M  V30 5904 H 554.967 5.03514 -2.18551 0
M  V30 5905 H 555.228 4.3834 -0.575357 0
M  V30 5906 N 554.287 1.06798 1.15896 0
M  V30 5907 C 555.217 0.704677 2.22613 0
M  V30 5908 C 556.198 -0.305252 1.67339 0
M  V30 5909 O 557.383 -0.179247 1.93371 0
M  V30 5910 C 554.513 0.0957325 3.47168 0
M  V30 5911 C 553.467 1.0322 4.15367 0
M  V30 5912 C 552.793 0.286293 5.33933 0
M  V30 5913 C 554.093 2.36341 4.65768 0
M  V30 5914 H 555.787 1.59688 2.53259 0
M  V30 5915 H 553.333 0.769257 1.21731 0
M  V30 5916 H 555.286 -0.170333 4.21056 0
M  V30 5917 H 554.01 -0.831516 3.15838 0
M  V30 5918 H 552.669 1.28309 3.43413 0
M  V30 5919 H 552.317 -0.644237 4.98857 0
M  V30 5920 H 552.017 0.910436 5.80504 0
M  V30 5921 H 553.541 0.0278938 6.10594 0
M  V30 5922 H 554.955 2.1561 5.31211 0
M  V30 5923 H 553.352 2.94299 5.2298 0
M  V30 5924 H 554.422 2.99047 3.81705 0
M  V30 5925 N 555.766 -1.3263 0.851289 0
M  V30 5926 C 556.676 -2.32722 0.296268 0
M  V30 5927 C 557.692 -1.63901 -0.584162 0
M  V30 5928 O 558.868 -1.95465 -0.485334 0
M  V30 5929 C 555.933 -3.42942 -0.509103 0
M  V30 5930 C 554.994 -4.2746 0.397069 0
M  V30 5931 C 554.227 -5.32416 -0.36996 0
M  V30 5932 O 554.45 -5.47491 -1.6003 0
M  V30 5933 O 553.384 -6.01327 0.262493 0
M  V30 5934 H 557.21 -2.82078 1.12543 0
M  V30 5935 H 554.795 -1.36194 0.614135 0
M  V30 5936 H 556.677 -4.1017 -0.96634 0
M  V30 5937 H 555.352 -2.95781 -1.31512 0
M  V30 5938 H 554.259 -3.63053 0.902411 0
M  V30 5939 H 555.592 -4.78136 1.16818 0
M  V30 5940 N 557.244 -0.608902 -1.45362 0
M  V30 5941 C 558.655 -0.189511 -1.85736 0
M  V30 5942 C 559.006 1.2539 -1.50903 0
M  V30 5943 O 558.131 1.95094 -0.936347 0
M  V30 5944 C 558.726 -0.33716 -3.37118 0
M  V30 5945 C 557.285 0.0275487 -3.7639 0
M  V30 5946 C 556.432 -0.660983 -2.69307 0
M  V30 5947 H 559.383 -0.815499 -1.36144 0
M  V30 5948 H 559.404 0.430257 -3.7806 0
M  V30 5949 H 558.916 -1.38779 -3.62439 0
M  V30 5950 H 557.017 1.0773 -3.56686 0
M  V30 5951 H 557.13 -0.367018 -4.77692 0
M  V30 5952 H 555.494 -0.0984958 -2.54509 0
M  V30 5953 H 556.277 -1.71377 -2.97464 0
M  V30 5954 N 558.722 1.53707 -0.348139 0
M  V30 5955 C 559.969 2.00988 0.246966 0
M  V30 5956 C 560.297 1.23586 1.50189 0
M  V30 5957 O 559.552 0.312817 1.93184 0
M  V30 5958 C 559.851 3.52292 0.602061 0
M  V30 5959 C 559.517 4.47453 -0.556509 0
M  V30 5960 C 558.179 4.73188 -0.874446 0
M  V30 5961 C 560.531 5.03851 -1.33354 0
M  V30 5962 C 557.859 5.52577 -1.9717 0
M  V30 5963 C 560.211 5.84437 -2.42108 0
M  V30 5964 C 558.875 6.08465 -2.74456 0
M  V30 5965 H 558.145 0.735469 0.0903712 0
M  V30 5966 H 560.792 1.85464 -0.477001 0
M  V30 5967 H 559.097 3.65672 1.40681 0
M  V30 5968 H 560.794 3.86337 1.07447 0
M  V30 5969 H 557.384 4.27558 -0.298652 0
M  V30 5970 H 561.568 4.8393 -1.10117 0
M  V30 5971 H 556.824 5.69418 -2.22651 0
M  V30 5972 H 560.998 6.27151 -3.02745 0
M  V30 5973 H 558.625 6.69768 -3.59604 0
M  V30 5974 N 560.2 0.0768682 1.57412 0
M  V30 5975 C 561.616 -0.279772 1.57129 0
M  V30 5976 C 561.816 -1.69688 1.08666 0
M  V30 5977 O 560.872 -2.40953 0.754843 0
M  V30 5978 C 562.185 -0.0848055 3.0058 0
M  V30 5979 C 563.733 -0.153954 3.12621 0
M  V30 5980 C 564.208 0.0127946 4.57998 0
M  V30 5981 N 565.699 -0.0426435 4.6318 0
M  V30 5982 C 566.434 0.0618892 5.73367 0
M  V30 5983 N 565.93 0.220229 6.9245 0
M  V30 5984 N 567.723 0.00446072 5.621 0
M  V30 5985 H 559.874 1.00297 1.87228 0
M  V30 5986 H 562.137 0.391565 0.863354 0
M  V30 5987 H 561.843 0.89325 3.40168 0
M  V30 5988 H 561.717 -0.834961 3.67843 0
M  V30 5989 H 564.104 -1.1225 2.72917 0
M  V30 5990 H 564.185 0.627389 2.47987 0
M  V30 5991 H 563.829 0.978128 4.98392 0
M  V30 5992 H 563.759 -0.788016 5.20671 0
M  V30 5993 H 566.25 -0.163226 3.77547 0
M  V30 5994 H 566.563 0.291999 7.72248 0
M  V30 5995 H 564.908 0.255658 6.9453 0
M  V30 5996 H 568.099 -0.117979 4.67951 0
M  V30 5997 H 568.272 0.0893796 6.47938 0
M  V30 5998 N 561.678 -1.56367 -0.196722 0
M  V30 5999 C 562.625 -1.94417 -1.24382 0
M  V30 6000 C 563.595 -0.804543 -1.45315 0
M  V30 6001 O 564.78 -1.06256 -1.58475 0
M  V30 6002 C 561.92 -2.28757 -2.58388 0
M  V30 6003 C 561.033 -3.55775 -2.45047 0
M  V30 6004 C 560.168 -3.79445 -3.71746 0
M  V30 6005 C 559.207 -4.99894 -3.53231 0
M  V30 6006 N 558.344 -5.19826 -4.71938 0
M  V30 6007 H 563.184 -2.83691 -0.912338 0
M  V30 6008 H 560.721 -1.40392 -0.439135 0
M  V30 6009 H 562.679 -2.46682 -3.36457 0
M  V30 6010 H 561.309 -1.42625 -2.89582 0
M  V30 6011 H 560.361 -3.45905 -1.58284 0
M  V30 6012 H 561.673 -4.44 -2.27299 0
M  V30 6013 H 560.827 -3.97601 -4.58256 0
M  V30 6014 H 559.566 -2.89546 -3.92446 0
M  V30 6015 H 558.571 -4.81662 -2.65107 0
M  V30 6016 H 559.796 -5.913 -3.33978 0
M  V30 6017 H 557.742 -4.32875 -4.92905 0
M  V30 6018 H 557.659 -6.02228 -4.57009 0
M  V30 6019 H 558.927 -5.42439 -5.59803 0
M  V30 6020 N 563.156 0.464375 -1.50603 0
M  V30 6021 C 564.119 1.54393 -1.69397 0
M  V30 6022 C 565.119 1.50566 -0.564504 0
M  V30 6023 O 566.309 1.53066 -0.831645 0
M  V30 6024 C 563.441 2.9401 -1.72543 0
M  V30 6025 H 564.634 1.39044 -2.65719 0
M  V30 6026 H 562.187 0.69122 -1.40185 0
M  V30 6027 H 562.922 3.14795 -0.77938 0
M  V30 6028 H 562.707 2.98195 -2.54602 0
M  V30 6029 H 564.197 3.72375 -1.89015 0
M  V30 6030 N 564.634 1.40294 0.718013 0
M  V30 6031 C 565.582 1.40536 1.85344 0
M  V30 6032 C 566.576 0.286192 1.66965 0
M  V30 6033 O 567.782 0.457105 1.74099 0
M  V30 6034 H 564.157 0.439236 0.61039 0
M  V30 6035 H 566.128 2.36275 1.82255 0
M  V30 6036 C 564.877 1.28245 3.23185 0
M  V30 6037 H 564.2 2.1364 3.37932 0
M  V30 6038 H 565.64 1.32474 4.02774 0
M  V30 6039 C 564.099 -0.0075503 3.36899 0
M  V30 6040 O 564.629 -0.971391 3.89778 0
M  V30 6041 N 562.835 -0.0762479 2.905 0
M  V30 6042 H 562.382 0.708819 2.47656 0
M  V30 6043 H 562.34 -0.938846 3.00055 0
M  V30 6044 N 566.112 -0.949982 1.2575 0
M  V30 6045 C 567.523 -1.50989 1.09815 0
M  V30 6046 C 567.874 -1.93497 -0.324556 0
M  V30 6047 O 566.999 -1.79068 -1.21506 0
M  V30 6048 C 567.594 -2.74394 1.98729 0
M  V30 6049 C 566.153 -3.26682 1.86965 0
M  V30 6050 C 565.3 -1.99498 1.92603 0
M  V30 6051 H 568.251 -0.766387 1.38968 0
M  V30 6052 H 568.272 -3.48383 1.53001 0
M  V30 6053 H 567.784 -2.43425 3.02268 0
M  V30 6054 H 565.885 -3.62461 0.863279 0
M  V30 6055 H 565.998 -3.94383 2.72027 0
M  V30 6056 H 564.362 -2.15005 1.36546 0
M  V30 6057 H 565.145 -1.70871 2.97755 0
M  V30 6058 N 567.59 -1.07411 -1.15328 0
M  V30 6059 C 568.867 -0.710732 -1.82231 0
M  V30 6060 C 569.247 0.806732 -1.95077 0
M  V30 6061 O 568.595 1.72139 -1.50268 0
M  V30 6062 C 568.805 -1.42586 -3.18544 0
M  V30 6063 C 570.153 -1.57836 -3.94174 0
M  V30 6064 O 571.177 -1.38669 -3.281 0
M  V30 6065 O 570.036 -1.8938 -5.12638 0
M  V30 6066 H 567.13 -0.25297 -0.78736 0
M  V30 6067 H 569.676 -1.17508 -1.22434 0
M  V30 6068 H 568.448 -2.46008 -3.04296 0
M  V30 6069 H 568.071 -0.952332 -3.86026 0
M  V30 6070 N 569.068 1.32177 -0.85831 0
M  V30 6071 C 570.314 1.97417 -0.46417 0
M  V30 6072 C 570.647 1.67746 0.978514 0
M  V30 6073 O 569.922 0.967654 1.68721 0
M  V30 6074 C 570.205 3.53069 -0.708094 0
M  V30 6075 C 570.058 3.92357 -2.19946 0
M  V30 6076 C 571.377 4.39783 -0.166881 0
M  V30 6077 H 568.496 0.717097 -0.17012 0
M  V30 6078 H 571.138 1.56499 -1.07741 0
M  V30 6079 H 569.288 3.88054 -0.186128 0
M  V30 6080 H 570.96 3.67533 -2.78779 0
M  V30 6081 H 569.203 3.41384 -2.67656 0
M  V30 6082 H 569.874 5.00841 -2.32082 0
M  V30 6083 H 572.35 4.11556 -0.613285 0
M  V30 6084 H 571.226 5.47671 -0.367093 0
M  V30 6085 H 571.487 4.32196 0.930559 0
M  V30 6086 N 570.547 0.616602 1.45037 0
M  V30 6087 C 571.775 0.121968 2.0654 0
M  V30 6088 C 572.19 -1.19743 1.45969 0
M  V30 6089 O 571.547 -1.73133 0.577168 0
M  V30 6090 C 571.598 -0.0145171 3.61497 0
M  V30 6091 O 571.319 1.25269 4.19809 0
M  V30 6092 C 572.82 -0.539555 4.40004 0
M  V30 6093 H 570.04 0.0729837 0.667019 0
M  V30 6094 H 572.584 0.846891 1.8614 0
M  V30 6095 H 570.739 -0.689809 3.81209 0
M  V30 6096 H 571.153 1.08816 5.13088 0
M  V30 6097 H 572.627 -0.584112 5.48901 0
M  V30 6098 H 573.104 -1.56368 4.10421 0
M  V30 6099 H 573.71 0.101995 4.25178 0
M  V30 6100 N 572.025 -1.5352 0.356285 0
M  V30 6101 C 572.955 -2.28372 -0.486661 0
M  V30 6102 C 573.936 -1.30432 -1.09185 0
M  V30 6103 O 575.121 -1.59291 -1.11085 0
M  V30 6104 C 572.251 -3.06604 -1.63129 0
M  V30 6105 C 571.205 -4.12154 -1.15381 0
M  V30 6106 C 570.531 -4.78415 -2.38796 0
M  V30 6107 C 571.831 -5.21724 -0.245179 0
M  V30 6108 H 573.525 -2.99083 0.137797 0
M  V30 6109 H 571.071 -1.43841 0.0677134 0
M  V30 6110 H 573.024 -3.57712 -2.22755 0
M  V30 6111 H 571.748 -2.33568 -2.28284 0
M  V30 6112 H 570.407 -3.61978 -0.580294 0
M  V30 6113 H 570.055 -4.01959 -3.02387 0
M  V30 6114 H 569.755 -5.49734 -2.07524 0
M  V30 6115 H 571.279 -5.32313 -2.99125 0
M  V30 6116 H 572.693 -5.68391 -0.748646 0
M  V30 6117 H 571.09 -6.00095 -0.0237608 0
M  V30 6118 H 572.16 -4.79596 0.715229 0
M  V30 6119 N 573.503 -0.0852151 -1.57369 0
M  V30 6120 C 574.749 0.581666 -1.94279 0
M  V30 6121 C 575.082 1.68444 -0.966446 0
M  V30 6122 O 574.357 1.945 0.00215277 0
M  V30 6123 C 574.64 1.14609 -3.41375 0
M  V30 6124 C 574.493 0.0490414 -4.49773 0
M  V30 6125 C 575.812 2.04751 -3.8957 0
M  V30 6126 H 572.931 0.209972 -0.706456 0
M  V30 6127 H 575.573 -0.153915 -1.89376 0
M  V30 6128 H 573.723 1.77297 -3.45685 0
M  V30 6129 H 575.395 -0.584721 -4.57579 0
M  V30 6130 H 573.638 -0.618638 -4.29366 0
M  V30 6131 H 574.309 0.484601 -5.49869 0
M  V30 6132 H 576.785 1.51981 -3.87351 0
M  V30 6133 H 575.661 2.41173 -4.93079 0
M  V30 6134 H 575.922 2.96107 -3.28288 0
M  V30 6135 N 574.981 1.5647 0.188427 0
M  V30 6136 C 575.913 1.91611 1.25769 0
M  V30 6137 C 576.926 0.807436 1.41366 0
M  V30 6138 O 578.115 1.08586 1.41673 0
M  V30 6139 C 575.215 2.13874 2.6289 0
M  V30 6140 C 574.388 3.45047 2.68815 0
M  V30 6141 C 573.447 3.56342 3.87178 0
M  V30 6142 O 572.473 4.29109 3.73971 0
M  V30 6143 N 573.675 2.89924 5.02916 0
M  V30 6144 H 576.44 2.8393 0.959373 0
M  V30 6145 H 574.001 1.57418 0.378306 0
M  V30 6146 H 575.993 2.18713 3.4051 0
M  V30 6147 H 574.563 1.28022 2.85183 0
M  V30 6148 H 573.783 3.52017 1.77419 0
M  V30 6149 H 575.071 4.31395 2.6977 0
M  V30 6150 H 574.469 2.30644 5.16546 0
M  V30 6151 H 573.026 3.0038 5.78459 0
M  V30 6152 N 576.459 -0.456382 1.50847 0
M  V30 6153 C 577.689 -1.22848 1.66108 0
M  V30 6154 C 578.097 -1.85936 0.349897 0
M  V30 6155 O 577.44 -1.70664 -0.679665 0
M  V30 6156 C 577.502 -2.36722 2.70561 0
M  V30 6157 C 577.166 -1.94154 4.13707 0
M  V30 6158 C 578.163 -1.4557 4.99105 0
M  V30 6159 C 575.848 -2.02426 4.59705 0
M  V30 6160 C 577.842 -1.0582 6.28555 0
M  V30 6161 C 575.529 -1.62287 5.89157 0
M  V30 6162 C 576.527 -1.14064 6.73408 0
M  V30 6163 O 576.215 -0.744873 8.00442 0
M  V30 6164 H 575.947 -0.377105 0.561042 0
M  V30 6165 H 578.501 -0.549431 1.97915 0
M  V30 6166 H 576.731 -3.07844 2.34027 0
M  V30 6167 H 578.42 -2.98646 2.74892 0
M  V30 6168 H 579.186 -1.38589 4.64777 0
M  V30 6169 H 575.065 -2.38908 3.94264 0
M  V30 6170 H 578.609 -0.6811 6.94267 0
M  V30 6171 H 574.506 -1.68932 6.23003 0
M  V30 6172 H 575.274 -0.87242 8.13837 0
M  V30 6173 N 577.937 -1.40673 -0.710563 0
M  V30 6174 C 578.87 -1.35742 -1.83438 0
M  V30 6175 C 579.848 -0.226997 -1.61008 0
M  V30 6176 O 581.032 -0.411477 -1.83954 0
M  V30 6177 C 578.159 -1.11374 -3.19865 0
M  V30 6178 C 577.205 -2.26935 -3.61113 0
M  V30 6179 S 578.038 -3.89352 -3.67648 0
M  V30 6180 C 579.194 -3.67258 -5.06826 0
M  V30 6181 H 579.427 -2.30848 -1.87341 0
M  V30 6182 H 576.96 -1.27018 -0.877831 0
M  V30 6183 H 578.918 -0.980004 -3.9863 0
M  V30 6184 H 577.579 -0.179135 -3.13589 0
M  V30 6185 H 576.772 -2.0554 -4.60184 0
M  V30 6186 H 576.374 -2.36638 -2.89618 0
M  V30 6187 H 578.666 -3.26036 -5.93891 0
M  V30 6188 H 579.609 -4.65878 -5.33257 0
M  V30 6189 H 580.017 -3.0084 -4.77656 0
M  V30 6190 N 579.415 0.9433 -1.26252 0
M  V30 6191 C 580.692 1.66639 -1.02424 0
M  V30 6192 C 581.072 2.06335 0.446006 0
M  V30 6193 O 580.42 1.78551 1.42589 0
M  V30 6194 C 580.63 2.88019 -1.97094 0
M  V30 6195 C 581.978 3.59718 -2.25584 0
M  V30 6196 O 583.002 2.9812 -1.94943 0
M  V30 6197 O 581.861 4.7066 -2.77743 0
M  V30 6198 H 578.955 0.729643 -0.389294 0
M  V30 6199 H 581.501 0.995218 -1.37454 0
M  V30 6200 H 580.273 2.5556 -2.96319 0
M  V30 6201 H 579.896 3.62863 -1.62532 0
M  V30 6202 N 580.893 1.08022 1.14757 0
M  V30 6203 C 582.17 0.720386 1.81851 0
M  V30 6204 C 582.55 -0.796375 1.95502 0
M  V30 6205 O 581.898 -1.71339 1.51179 0
M  V30 6206 C 582.108 1.44273 3.17783 0
M  V30 6207 C 583.456 1.59925 3.93331 0
M  V30 6208 O 584.48 1.40407 3.2736 0
M  V30 6209 O 583.339 1.92096 5.11626 0
M  V30 6210 H 580.433 0.257142 0.786007 0
M  V30 6211 H 582.979 1.18155 1.21809 0
M  V30 6212 H 581.751 2.47618 3.02987 0
M  V30 6213 H 581.374 0.97279 3.85516 0
M  V30 6214 N 582.371 -1.3172 0.865308 0
M  V30 6215 C 583.62 -1.96145 0.470098 0
M  V30 6216 C 583.933 -1.69182 -0.981674 0
M  V30 6217 O 585.139 -2.27431 -1.48281 0
M  V30 6218 C 583.595 -3.51129 0.789732 0
M  V30 6219 C 583.203 -3.86938 2.25795 0
M  V30 6220 C 584.947 -4.2197 0.462765 0
M  V30 6221 C 582.854 -5.35012 2.52024 0
M  V30 6222 H 581.784 -0.734105 0.172065 0
M  V30 6223 H 584.435 -1.49959 1.05757 0
M  V30 6224 H 582.817 -3.95781 0.131571 0
M  V30 6225 H 583.991 -3.5326 2.95879 0
M  V30 6226 H 582.306 -3.29149 2.55049 0
M  V30 6227 H 584.903 -5.30904 0.636019 0
M  V30 6228 H 585.246 -4.12005 -0.59645 0
M  V30 6229 H 585.779 -3.82936 1.07727 0
M  V30 6230 H 582.518 -5.50008 3.56611 0
M  V30 6231 H 582.038 -5.70058 1.8653 0
M  V30 6232 H 583.717 -6.0222 2.36515 0
M  V30 6233 N 583.85 -0.624285 -1.44708 0
M  V30 6234 C 584.779 0.0717025 -2.3339 0
M  V30 6235 C 585.76 0.841814 -1.47809 0
M  V30 6236 O 586.946 0.809056 -1.76544 0
M  V30 6237 C 584.076 1.05852 -3.30776 0
M  V30 6238 C 583.029 0.400503 -4.26122 0
M  V30 6239 C 582.356 1.49674 -5.13324 0
M  V30 6240 C 583.656 -0.688924 -5.17737 0
M  V30 6241 H 585.35 -0.668819 -2.91834 0
M  V30 6242 H 582.896 -0.32308 -1.40329 0
M  V30 6243 H 584.849 1.5541 -3.91696 0
M  V30 6244 H 583.572 1.82984 -2.70526 0
M  V30 6245 H 582.231 -0.0743687 -3.66525 0
M  V30 6246 H 581.88 2.25877 -4.49431 0
M  V30 6247 H 581.58 1.06188 -5.77926 0
M  V30 6248 H 583.104 1.99427 -5.77115 0
M  V30 6249 H 584.518 -0.276724 -5.72632 0
M  V30 6250 H 582.915 -1.04652 -5.90904 0
M  V30 6251 H 583.985 -1.55884 -4.5916 0
M  V30 6252 N 585.328 1.53329 -0.364422 0
M  V30 6253 C 586.577 2.00421 0.226747 0
M  V30 6254 C 586.89 1.25581 1.49963 0
M  V30 6255 O 588.096 1.63256 2.16933 0
M  V30 6256 C 586.552 3.57017 0.454618 0
M  V30 6257 C 586.16 4.40734 -0.803568 0
M  V30 6258 C 587.904 4.12468 1.00351 0
M  V30 6259 C 585.811 5.8888 -0.545345 0
M  V30 6260 H 584.741 0.748787 0.0885082 0
M  V30 6261 H 587.392 1.7703 -0.482983 0
M  V30 6262 H 585.774 3.76558 1.22558 0
M  V30 6263 H 586.948 4.32967 -1.57723 0
M  V30 6264 H 585.263 3.96381 -1.27559 0
M  V30 6265 H 587.86 5.20783 1.212 0
M  V30 6266 H 588.203 3.6699 1.9653 0
M  V30 6267 H 588.736 3.96721 0.29274 0
M  V30 6268 H 585.475 6.38633 -1.47743 0
M  V30 6269 H 584.995 5.99499 0.189842 0
M  V30 6270 H 586.674 6.46776 -0.170425 0
M  V30 6271 N 586.806 0.0935595 1.57322 0
M  V30 6272 C 587.769 -0.851426 2.12799 0
M  V30 6273 C 588.769 -1.21187 1.0569 0
M  V30 6274 O 589.959 -1.14156 1.31583 0
M  V30 6275 C 587.091 -2.14779 2.64731 0
M  V30 6276 H 588.284 -0.369733 2.97612 0
M  V30 6277 H 585.837 -0.155417 1.55525 0
M  V30 6278 H 586.572 -2.67437 1.83434 0
M  V30 6279 H 586.357 -1.89907 3.43042 0
M  V30 6280 H 587.847 -2.82383 3.07651 0
M  V30 6281 N 588.284 -1.56567 -0.180126 0
M  V30 6282 C 589.509 -1.85975 -0.918041 0
M  V30 6283 C 589.934 -0.678888 -1.75422 0
M  V30 6284 O 589.292 0.372168 -1.77439 0
M  V30 6285 C 589.34 -3.13731 -1.77779 0
M  V30 6286 O 588.444 -2.95335 -2.87838 0
M  V30 6287 H 587.785 -0.61196 -0.257683 0
M  V30 6288 H 590.315 -2.03798 -0.180923 0
M  V30 6289 H 590.325 -3.4491 -2.17948 0
M  V30 6290 H 589 -3.99293 -1.16352 0
M  V30 6291 H 587.577 -2.7549 -2.51316 0
M  V30 6292 N 589.762 0.448376 -1.51087 0
M  V30 6293 C 591.039 1.20926 -1.53741 0
M  V30 6294 C 591.419 2.09025 -0.295222 0
M  V30 6295 O 590.767 2.16851 0.720283 0
M  V30 6296 C 590.977 2.02067 -2.84552 0
M  V30 6297 C 592.325 2.59486 -3.36084 0
M  V30 6298 O 593.349 2.12289 -2.86028 0
M  V30 6299 O 592.208 3.45539 -4.23397 0
M  V30 6300 H 589.302 0.549951 -0.617643 0
M  V30 6301 H 591.848 0.458344 -1.63393 0
M  V30 6302 H 590.62 1.37291 -3.66425 0
M  V30 6303 H 590.243 2.84246 -2.78011 0
M  V30 6304 N 591.24 1.41047 0.703093 0
M  V30 6305 C 592.656 1.23351 1.01275 0
M  V30 6306 C 592.856 0.11754 2.01157 0
M  V30 6307 O 591.912 -0.520518 2.47077 0
M  V30 6308 C 593.225 2.58001 1.54454 0
M  V30 6309 C 594.773 2.65119 1.66376 0
M  V30 6310 C 595.248 4.00067 2.22958 0
M  V30 6311 N 596.739 4.01875 2.30328 0
M  V30 6312 C 597.474 5.03087 2.75119 0
M  V30 6313 N 596.97 6.14692 3.19571 0
M  V30 6314 N 598.763 4.90451 2.74616 0
M  V30 6315 H 590.914 2.1236 0.0412686 0
M  V30 6316 H 593.177 0.944543 0.08089 0
M  V30 6317 H 592.883 3.40378 0.88521 0
M  V30 6318 H 592.757 2.79962 2.52786 0
M  V30 6319 H 595.144 1.83106 2.31422 0
M  V30 6320 H 595.225 2.46975 0.666089 0
M  V30 6321 H 594.869 4.82526 1.58529 0
M  V30 6322 H 594.799 4.15547 3.23462 0
M  V30 6323 H 597.29 3.21291 1.98949 0
M  V30 6324 H 597.603 6.87799 3.52352 0
M  V30 6325 H 595.948 6.18239 3.17498 0
M  V30 6326 H 599.139 4.0235 2.39233 0
M  V30 6327 H 599.312 5.6947 3.09206 0
M  V30 6328 N 592.718 -0.936591 1.26751 0
M  V30 6329 C 593.946 -1.71758 1.15355 0
M  V30 6330 C 594.361 -1.86549 -0.290683 0
M  V30 6331 O 593.718 -1.37616 -1.19868 0
M  V30 6332 C 593.769 -3.12193 1.82258 0
M  V30 6333 O 593.49 -2.98105 3.21038 0
M  V30 6334 C 594.991 -4.06485 1.76875 0
M  V30 6335 H 592.211 -0.537636 0.401483 0
M  V30 6336 H 594.755 -1.17382 1.67457 0
M  V30 6337 H 592.91 -3.63456 1.34083 0
M  V30 6338 H 593.324 -3.86824 3.54214 0
M  V30 6339 H 594.798 -5.02569 2.28316 0
M  V30 6340 H 595.275 -4.32986 0.736216 0
M  V30 6341 H 595.881 -3.61144 2.24623 0
M  V30 6342 N 594.196 -1.08629 -1.14182 0
M  V30 6343 C 595.473 -0.73002 -1.81466 0
M  V30 6344 C 595.853 0.785996 -1.95922 0
M  V30 6345 O 595.201 1.70535 -1.52086 0
M  V30 6346 C 595.411 -1.45957 -3.17014 0
M  V30 6347 C 596.759 -1.62008 -3.92477 0
M  V30 6348 O 597.783 -1.42141 -3.26611 0
M  V30 6349 O 596.642 -1.94806 -5.106 0
M  V30 6350 H 593.736 -0.261307 -0.784632 0
M  V30 6351 H 596.282 -1.188 -1.2118 0
M  V30 6352 H 595.054 -2.49221 -3.01669 0
M  V30 6353 H 594.677 -0.993222 -3.84995 0
M  V30 6354 N 595.674 1.31259 -0.872281 0
M  V30 6355 C 596.604 2.30929 -0.345554 0
M  V30 6356 C 597.585 1.60449 0.5648 0
M  V30 6357 O 598.77 1.8814 0.481335 0
M  V30 6358 C 595.9 3.44348 0.451823 0
M  V30 6359 C 594.854 4.26435 -0.365641 0
M  V30 6360 C 594.18 5.31785 0.557562 0
M  V30 6361 C 595.48 4.97159 -1.60095 0
M  V30 6362 H 597.174 2.75234 -1.17841 0
M  V30 6363 H 594.72 1.3232 -0.568094 0
M  V30 6364 H 596.673 4.13128 0.830854 0
M  V30 6365 H 595.397 2.98816 1.31821 0
M  V30 6366 H 594.056 3.59326 -0.726649 0
M  V30 6367 H 593.704 4.82502 1.4213 0
M  V30 6368 H 593.404 5.87598 0.0144878 0
M  V30 6369 H 594.928 6.03424 0.933387 0
M  V30 6370 H 596.342 5.58523 -1.29323 0
M  V30 6371 H 594.739 5.62779 -2.08327 0
M  V30 6372 H 595.809 4.24012 -2.35249 0
M  V30 6373 N 597.152 0.631951 1.44375 0
M  V30 6374 C 598.062 -0.073674 2.34484 0
M  V30 6375 C 599.078 -0.834825 1.52665 0
M  V30 6376 O 600.254 -0.786902 1.85391 0
M  V30 6377 C 597.319 -1.04247 3.30656 0
M  V30 6378 C 596.38 -0.280602 4.28382 0
M  V30 6379 C 595.613 -1.20325 5.19959 0
M  V30 6380 O 595.836 -2.44199 5.15484 0
M  V30 6381 O 594.77 -0.687128 5.97965 0
M  V30 6382 H 598.596 0.667477 2.96274 0
M  V30 6383 H 596.181 0.392144 1.44162 0
M  V30 6384 H 598.063 -1.59981 3.89851 0
M  V30 6385 H 596.738 -1.76422 2.71398 0
M  V30 6386 H 595.645 0.319804 3.72731 0
M  V30 6387 H 596.978 0.401144 4.90563 0
M  V30 6388 N 598.631 -1.53133 0.372548 0
M  V30 6389 C 599.581 -2.22733 -0.487218 0
M  V30 6390 C 600.565 -1.22506 -1.04312 0
M  V30 6391 O 601.757 -1.47923 -0.972005 0
M  V30 6392 C 598.886 -3.02524 -1.62278 0
M  V30 6393 C 597.972 -4.10133 -1.07943 0
M  V30 6394 N 598.363 -5.05133 -0.259629 0
M  V30 6395 C 596.661 -4.24964 -1.35356 0
M  V30 6396 C 597.362 -5.81687 0.0386656 0
M  V30 6397 N 596.338 -5.40699 -0.560827 0
M  V30 6398 H 600.14 -2.93538 0.145853 0
M  V30 6399 H 597.654 -1.61389 0.180938 0
M  V30 6400 H 599.651 -3.50909 -2.25096 0
M  V30 6401 H 598.311 -2.33252 -2.25884 0
M  V30 6402 H 599.322 -5.178 0.101746 0
M  V30 6403 H 595.999 -3.66919 -1.9919 0
M  V30 6404 H 597.389 -6.68224 0.701841 0
M  V30 6405 N 600.109 -0.101901 -1.5727 0
M  V30 6406 C 601.386 0.602832 -1.86079 0
M  V30 6407 C 601.766 1.85912 -1 0
M  V30 6408 O 601.114 2.28379 -0.0742488 0
M  V30 6409 C 601.324 0.911694 -3.36881 0
M  V30 6410 C 602.672 1.2722 -4.05093 0
M  V30 6411 O 603.696 1.0025 -3.41802 0
M  V30 6412 O 602.555 1.7776 -5.16782 0
M  V30 6413 H 599.649 0.302366 -0.769743 0
M  V30 6414 H 602.195 -0.135113 -1.69161 0
M  V30 6415 H 600.967 0.0207256 -3.91295 0
M  V30 6416 H 600.59 1.70538 -3.59169 0
M  V30 6417 N 601.587 1.56661 0.17182 0
M  V30 6418 C 603.003 1.50768 0.52357 0
M  V30 6419 C 603.203 0.806072 1.84675 0
M  V30 6420 O 602.259 0.366233 2.4983 0
M  V30 6421 C 603.572 2.955 0.556793 0
M  V30 6422 C 605.12 3.06303 0.644029 0
M  V30 6423 C 605.595 4.52492 0.708148 0
M  V30 6424 N 607.086 4.56737 0.771051 0
M  V30 6425 C 607.821 5.67196 0.841229 0
M  V30 6426 N 607.317 6.87287 0.872272 0
M  V30 6427 N 609.11 5.55165 0.88021 0
M  V30 6428 H 601.261 2.00679 -0.695817 0
M  V30 6429 H 603.524 0.914219 -0.250814 0
M  V30 6430 H 603.23 3.49986 -0.346774 0
M  V30 6431 H 603.104 3.50119 1.40346 0
M  V30 6432 H 605.491 2.51851 1.53802 0
M  V30 6433 H 605.572 2.5477 -0.229297 0
M  V30 6434 H 605.216 5.07575 -0.181585 0
M  V30 6435 H 605.146 5.01781 1.59761 0
M  V30 6436 H 607.637 3.70274 0.755364 0
M  V30 6437 H 607.95 7.6722 0.92698 0
M  V30 6438 H 606.295 6.89898 0.840557 0
M  V30 6439 H 609.486 4.60263 0.852956 0
M  V30 6440 H 609.659 6.41271 0.931439 0
M  V30 6441 N 603.065 -0.440357 1.51323 0
M  V30 6442 C 604.311 -1.19181 1.64085 0
M  V30 6443 C 604.644 -1.90936 0.354575 0
M  V30 6444 O 603.919 -1.8347 -0.645675 0
M  V30 6445 C 604.202 -2.2112 2.84215 0
M  V30 6446 C 604.055 -1.53468 4.22809 0
M  V30 6447 C 605.374 -3.22133 2.99864 0
M  V30 6448 H 602.493 -0.431924 0.597169 0
M  V30 6449 H 605.135 -0.481443 1.83799 0
M  V30 6450 H 603.285 -2.81703 2.67537 0
M  V30 6451 H 604.957 -0.962455 4.51148 0
M  V30 6452 H 603.2 -0.837086 4.25647 0
M  V30 6453 H 603.871 -2.27694 5.02852 0
M  V30 6454 H 606.347 -2.71601 3.15233 0
M  V30 6455 H 605.223 -3.90756 3.85488 0
M  V30 6456 H 605.484 -3.88061 2.11804 0
M  V30 6457 N 604.543 -1.41418 -0.695603 0
M  V30 6458 C 605.789 -1.40982 -1.4578 0
M  V30 6459 C 606.122 -0.0187763 -1.94191 0
M  V30 6460 O 605.397 0.95346 -1.69527 0
M  V30 6461 C 605.68 -2.41657 -2.66972 0
M  V30 6462 C 605.533 -3.89869 -2.24327 0
M  V30 6463 C 606.852 -2.39589 -3.69168 0
M  V30 6464 H 603.971 -0.513405 -0.528757 0
M  V30 6465 H 606.613 -1.72693 -0.792275 0
M  V30 6466 H 604.763 -2.14746 -3.23754 0
M  V30 6467 H 606.435 -4.27683 -1.72872 0
M  V30 6468 H 604.678 -4.04737 -1.56111 0
M  V30 6469 H 605.349 -4.55857 -3.11285 0
M  V30 6470 H 607.825 -2.63471 -3.2206 0
M  V30 6471 H 606.701 -3.12044 -4.51575 0
M  V30 6472 H 606.962 -1.41447 -4.18862 0
M  V30 6473 N 606.021 0.929856 -1.27246 0
M  V30 6474 C 606.951 2.04722 -1.12299 0
M  V30 6475 C 607.932 1.70082 -0.0250464 0
M  V30 6476 O 609.117 1.93176 -0.199141 0
M  V30 6477 C 606.247 3.38721 -0.767145 0
M  V30 6478 C 605.201 3.87466 -1.81808 0
M  V30 6479 C 604.527 5.18246 -1.31626 0
M  V30 6480 C 605.827 4.11095 -3.22177 0
M  V30 6481 H 607.521 2.17485 -2.05769 0
M  V30 6482 H 605.067 1.04503 -0.990715 0
M  V30 6483 H 607.02 4.16366 -0.649413 0
M  V30 6484 H 605.744 3.25967 0.203259 0
M  V30 6485 H 604.403 3.12012 -1.92468 0
M  V30 6486 H 604.051 5.01881 -0.335378 0
M  V30 6487 H 603.751 5.51829 -2.01887 0
M  V30 6488 H 605.275 5.98462 -1.21143 0
M  V30 6489 H 606.689 4.79316 -3.1453 0
M  V30 6490 H 605.086 4.55982 -3.90129 0
M  V30 6491 H 606.156 3.16468 -3.67391 0
M  V30 6492 N 607.499 1.09233 1.13605 0
M  V30 6493 C 608.431 0.687794 2.18637 0
M  V30 6494 C 609.444 -0.26936 1.60556 0
M  V30 6495 O 610.633 -0.0557162 1.78413 0
M  V30 6496 C 607.733 -0.00751901 3.38899 0
M  V30 6497 C 606.906 0.97067 4.26494 0
M  V30 6498 C 605.965 0.309129 5.25291 0
M  V30 6499 O 604.991 0.956149 5.61112 0
M  V30 6500 N 606.193 -0.937555 5.72879 0
M  V30 6501 H 608.958 1.59141 2.53957 0
M  V30 6502 H 606.519 0.979515 1.28907 0
M  V30 6503 H 608.511 -0.461238 4.02063 0
M  V30 6504 H 607.081 -0.813353 3.01833 0
M  V30 6505 H 606.301 1.603 3.60135 0
M  V30 6506 H 607.589 1.63323 4.81875 0
M  V30 6507 H 606.987 -1.48281 5.4592 0
M  V30 6508 H 605.544 -1.33463 6.3799 0
M  V30 6509 N 608.977 -1.30795 0.87923 0
M  V30 6510 C 610.202 -2.01063 0.508769 0
M  V30 6511 C 610.627 -1.65508 -0.893803 0
M  V30 6512 O 609.985 -0.868616 -1.59138 0
M  V30 6513 C 610.033 -3.54054 0.683991 0
M  V30 6514 O 609.137 -4.11498 -0.272654 0
M  V30 6515 H 608.478 -0.632786 0.201191 0
M  V30 6516 H 611.008 -1.66776 1.18519 0
M  V30 6517 H 611.018 -4.03845 0.580798 0
M  V30 6518 H 609.693 -3.79271 1.70665 0
M  V30 6519 H 608.27 -3.72695 -0.12364 0
M  V30 6520 N 610.455 -0.639598 -1.44038 0
M  V30 6521 C 611.402 0.0602458 -2.30721 0
M  V30 6522 C 612.372 0.828352 -1.43971 0
M  V30 6523 O 613.557 0.807693 -1.72861 0
M  V30 6524 C 610.697 1.03008 -3.29368 0
M  V30 6525 C 609.81 0.259502 -4.3122 0
M  V30 6526 C 608.945 1.22191 -5.16955 0
M  V30 6527 C 607.984 0.440978 -6.10509 0
M  V30 6528 N 607.121 1.35428 -6.88915 0
M  V30 6529 H 611.961 -0.684867 -2.90023 0
M  V30 6530 H 609.498 -0.349509 -1.42888 0
M  V30 6531 H 611.456 1.60583 -3.85057 0
M  V30 6532 H 610.086 1.74222 -2.71747 0
M  V30 6533 H 609.138 -0.432317 -3.77935 0
M  V30 6534 H 610.45 -0.348347 -4.97582 0
M  V30 6535 H 609.604 1.86873 -5.77203 0
M  V30 6536 H 608.343 1.86367 -4.50687 0
M  V30 6537 H 607.348 -0.219279 -5.49363 0
M  V30 6538 H 608.573 -0.196192 -6.78817 0
M  V30 6539 H 606.519 1.9831 -6.25307 0
M  V30 6540 H 606.436 0.800657 -7.51748 0
M  V30 6541 H 607.704 1.98967 -7.53679 0
M  V30 6542 N 611.933 1.52934 -0.380664 0
M  V30 6543 C 612.843 2.29921 0.466192 0
M  V30 6544 C 613.859 1.36488 1.07922 0
M  V30 6545 O 615.035 1.69553 1.0869 0
M  V30 6546 C 612.1 3.08468 1.58266 0
M  V30 6547 C 611.161 4.17595 0.995627 0
M  V30 6548 C 610.394 4.92387 2.05889 0
M  V30 6549 O 610.617 4.67184 3.27254 0
M  V30 6550 O 609.551 5.77949 1.68102 0
M  V30 6551 H 613.377 3.03274 -0.160735 0
M  V30 6552 H 610.962 1.48698 -0.144617 0
M  V30 6553 H 612.844 3.57469 2.23145 0
M  V30 6554 H 611.519 2.37937 2.19471 0
M  V30 6555 H 610.426 3.72811 0.310332 0
M  V30 6556 H 611.759 4.90336 0.427918 0
M  V30 6557 N 613.412 0.11024 1.57214 0
M  V30 6558 C 614.342 -0.840002 2.17867 0
M  V30 6559 C 615.323 -1.28352 1.11624 0
M  V30 6560 O 616.508 -1.3477 1.39824 0
M  V30 6561 C 613.638 -2.09349 2.77111 0
M  V30 6562 C 612.592 -1.78807 3.8886 0
M  V30 6563 C 611.918 -3.11112 4.34872 0
M  V30 6564 C 613.218 -1.0632 5.11364 0
M  V30 6565 H 614.912 -0.334608 2.97524 0
M  V30 6566 H 612.458 -0.159502 1.43114 0
M  V30 6567 H 614.411 -2.76275 3.18198 0
M  V30 6568 H 613.135 -2.62198 1.9473 0
M  V30 6569 H 611.794 -1.14273 3.48335 0
M  V30 6570 H 611.442 -3.61877 3.49362 0
M  V30 6571 H 611.142 -2.91453 5.10224 0
M  V30 6572 H 612.666 -3.79171 4.78604 0
M  V30 6573 H 614.08 -1.63383 5.49526 0
M  V30 6574 H 612.477 -0.967876 5.92243 0
M  V30 6575 H 613.547 -0.0484569 4.84876 0
M  V30 6576 N 614.89 -1.56749 -0.16351 0
M  V30 6577 C 615.82 -2.00042 -1.20438 0
M  V30 6578 C 616.801 -0.877256 -1.45733 0
M  V30 6579 O 617.986 -1.1439 -1.56935 0
M  V30 6580 C 615.116 -2.36697 -2.54149 0
M  V30 6581 C 614.07 -3.52046 -2.43408 0
M  V30 6582 C 613.396 -3.74466 -3.81679 0
M  V30 6583 C 614.696 -4.85247 -1.93216 0
M  V30 6584 H 616.39 -2.87244 -0.844477 0
M  V30 6585 H 613.936 -1.38194 -0.40478 0
M  V30 6586 H 615.889 -2.65582 -3.27176 0
M  V30 6587 H 614.613 -1.46414 -2.91943 0
M  V30 6588 H 613.272 -3.23301 -1.72834 0
M  V30 6589 H 612.92 -2.81461 -4.1688 0
M  V30 6590 H 612.62 -4.52084 -3.75359 0
M  V30 6591 H 614.144 -4.0576 -4.5628 0
M  V30 6592 H 615.558 -5.12957 -2.56023 0
M  V30 6593 H 613.955 -5.66556 -1.97825 0
M  V30 6594 H 615.025 -4.7672 -0.88689 0
M  V30 6595 N 616.368 0.432326 -1.51554 0
M  V30 6596 C 617.316 1.54572 -1.73811 0
M  V30 6597 C 618.31 1.58246 -0.604539 0
M  V30 6598 O 619.516 1.6193 -0.786041 0
M  V30 6599 H 615.891 0.513626 -0.549265 0
M  V30 6600 H 617.862 1.32977 -2.67132 0
M  V30 6601 C 616.611 2.92181 -1.88483 0
M  V30 6602 H 615.934 2.90088 -2.75116 0
M  V30 6603 H 617.374 3.69439 -2.08065 0
M  V30 6604 C 615.833 3.3065 -0.645909 0
M  V30 6605 O 616.363 4.01216 0.197093 0
M  V30 6606 N 614.569 2.86464 -0.488538 0
M  V30 6607 H 614.116 2.29209 -1.17562 0
M  V30 6608 H 614.074 3.12565 0.339156 0
M  V30 6609 N 617.846 1.41785 0.688094 0
M  V30 6610 C 619.071 1.45117 1.48175 0
M  V30 6611 C 619.496 0.060129 1.88004 0
M  V30 6612 O 618.854 -0.938385 1.55126 0
M  V30 6613 C 618.902 2.37224 2.71583 0
M  V30 6614 O 618.006 1.83443 3.69354 0
M  V30 6615 H 617.347 0.492208 0.445676 0
M  V30 6616 H 619.877 1.86329 0.845145 0
M  V30 6617 H 619.887 2.53353 3.19806 0
M  V30 6618 H 618.562 3.38293 2.41931 0
M  V30 6619 H 617.139 1.76802 3.28322 0
M  V30 6620 N 619.324 -0.923095 1.27737 0
M  V30 6621 C 620.573 -1.66581 1.13727 0
M  V30 6622 C 620.886 -1.9304 -0.315433 0
M  V30 6623 O 622.092 -2.65309 -0.57651 0
M  V30 6624 C 620.548 -3.00047 1.98745 0
M  V30 6625 C 620.156 -2.8127 3.48699 0
M  V30 6626 C 621.9 -3.77887 1.93395 0
M  V30 6627 C 619.807 -4.1032 4.25901 0
M  V30 6628 H 618.737 -0.624834 0.422017 0
M  V30 6629 H 621.388 -1.02514 1.52194 0
M  V30 6630 H 619.77 -3.65197 1.53125 0
M  V30 6631 H 620.944 -2.24859 4.02213 0
M  V30 6632 H 619.259 -2.16854 3.55476 0
M  V30 6633 H 621.856 -4.73526 2.48348 0
M  V30 6634 H 622.199 -4.06264 0.908605 0
M  V30 6635 H 622.732 -3.19541 2.36935 0
M  V30 6636 H 619.471 -3.8712 5.28978 0
M  V30 6637 H 618.991 -4.66377 3.77163 0
M  V30 6638 H 620.67 -4.78648 4.35321 0
M  V30 6639 N 620.802 -1.09834 -1.13024 0
M  V30 6640 C 622.05 -0.835297 -1.8403 0
M  V30 6641 C 622.371 0.640944 -1.84165 0
M  V30 6642 O 621.641 1.46517 -1.30037 0
M  V30 6643 H 620.221 -0.306018 -0.681441 0
M  V30 6644 H 622.883 -1.38734 -1.36891 0
M  V30 6645 H 621.979 -1.19258 -2.88416 0
M  V30 6646 N 622.28 1.30327 -0.886154 0
M  V30 6647 C 623.527 1.96097 -0.505192 0
M  V30 6648 C 623.855 1.69952 0.945868 0
M  V30 6649 O 623.11 0.997653 1.68361 0
M  V30 6650 C 623.409 3.49906 -0.728042 0
M  V30 6651 C 623.075 3.96103 -2.15437 0
M  V30 6652 C 621.737 4.08428 -2.5444 0
M  V30 6653 C 624.089 4.20177 -3.08384 0
M  V30 6654 C 621.417 4.42189 -3.85598 0
M  V30 6655 C 623.769 4.55407 -4.39075 0
M  V30 6656 C 622.433 4.65941 -4.7797 0
M  V30 6657 H 621.703 0.71757 -0.184863 0
M  V30 6658 H 624.35 1.55171 -1.12223 0
M  V30 6659 H 622.655 3.9179 -0.027978 0
M  V30 6660 H 624.352 3.98869 -0.412862 0
M  V30 6661 H 620.942 3.87017 -1.84162 0
M  V30 6662 H 625.126 4.10134 -2.7947 0
M  V30 6663 H 620.382 4.48544 -4.15473 0
M  V30 6664 H 624.556 4.72986 -5.11133 0
M  V30 6665 H 622.183 4.91856 -5.79639 0
M  V30 6666 N 623.758 0.647228 1.43697 0
M  V30 6667 C 624.983 0.164083 2.0675 0
M  V30 6668 C 625.408 -1.15892 1.48158 0
M  V30 6669 O 624.766 -1.71459 0.589194 0
M  V30 6670 C 624.814 0.0800368 3.60511 0
M  V30 6671 O 623.918 -0.959453 4.01084 0
M  V30 6672 H 623.259 0.0921288 0.657578 0
M  V30 6673 H 625.789 0.88846 1.84303 0
M  V30 6674 H 625.799 -0.105263 4.07864 0
M  V30 6675 H 624.474 1.04586 4.02535 0
M  V30 6676 H 623.051 -0.747425 3.65333 0
M  V30 6677 N 625.236 -1.5273 0.388769 0
M  V30 6678 C 626.464 -2.05992 -0.193677 0
M  V30 6679 C 626.879 -1.26053 -1.40557 0
M  V30 6680 O 626.236 -0.307049 -1.79898 0
M  V30 6681 C 626.287 -3.57068 -0.564321 0
M  V30 6682 O 626.008 -4.3398 0.599422 0
M  V30 6683 C 627.509 -4.26674 -1.20269 0
M  V30 6684 H 624.729 -0.670358 -0.0293445 0
M  V30 6685 H 627.273 -1.96857 0.553844 0
M  V30 6686 H 625.428 -3.66277 -1.26174 0
M  V30 6687 H 625.842 -5.2367 0.294895 0
M  V30 6688 H 627.316 -5.33625 -1.4124 0
M  V30 6689 H 627.793 -3.81854 -2.16989 0
M  V30 6690 H 628.399 -4.2178 -0.546047 0
M  V30 6691 N 626.714 -0.118576 -1.57153 0
M  V30 6692 C 628.125 0.40687 -1.82213 0
M  V30 6693 C 628.476 1.66636 -1.03571 0
M  V30 6694 O 627.601 2.14682 -0.272171 0
M  V30 6695 C 628.196 0.744949 -3.30509 0
M  V30 6696 C 626.755 1.21503 -3.5625 0
M  V30 6697 C 625.902 0.223511 -2.76398 0
M  V30 6698 H 628.853 -0.343712 -1.54933 0
M  V30 6699 H 628.874 1.6024 -3.45114 0
M  V30 6700 H 628.386 -0.171911 -3.87719 0
M  V30 6701 H 626.487 2.1488 -3.04396 0
M  V30 6702 H 626.6 1.16065 -4.64829 0
M  V30 6703 H 624.964 0.71046 -2.44591 0
M  V30 6704 H 625.747 -0.686439 -3.36367 0
M  V30 6705 N 628.193 1.56834 0.155195 0
M  V30 6706 C 629.103 2.009 1.21146 0
M  V30 6707 C 630.119 0.923029 1.475 0
M  V30 6708 O 631.295 1.23189 1.59331 0
M  V30 6709 C 628.36 2.37378 2.52691 0
M  V30 6710 C 627.421 3.59883 2.34057 0
M  V30 6711 C 626.654 3.94612 3.59329 0
M  V30 6712 O 626.877 3.30104 4.65175 0
M  V30 6713 O 625.811 4.87895 3.52479 0
M  V30 6714 H 629.637 2.9105 0.867371 0
M  V30 6715 H 627.222 1.44916 0.363298 0
M  V30 6716 H 629.104 2.61737 3.3026 0
M  V30 6717 H 627.779 1.50385 2.86646 0
M  V30 6718 H 626.686 3.40722 1.54465 0
M  V30 6719 H 628.019 4.47468 2.0502 0
M  V30 6720 N 629.671 -0.424282 1.51781 0
M  V30 6721 C 630.581 -1.54087 1.76902 0
M  V30 6722 C 631.597 -1.61249 0.653826 0
M  V30 6723 O 632.773 -1.78247 0.937552 0
M  V30 6724 C 629.838 -2.8996 1.90063 0
M  V30 6725 C 628.899 -2.92809 3.13945 0
M  V30 6726 C 628.132 -4.22201 3.26469 0
M  V30 6727 O 628.355 -5.15286 2.44616 0
M  V30 6728 O 627.289 -4.31599 4.1953 0
M  V30 6729 H 631.115 -1.358 2.71647 0
M  V30 6730 H 628.7 -0.608618 1.36441 0
M  V30 6731 H 630.582 -3.70575 2.0063 0
M  V30 6732 H 629.257 -3.08347 0.985067 0
M  V30 6733 H 628.164 -2.11102 3.08847 0
M  V30 6734 H 629.497 -2.79369 4.05233 0
M  V30 6735 N 631.149 -1.42148 -0.680565 0
M  V30 6736 C 632.096 -1.45175 -1.79424 0
M  V30 6737 C 633.066 -0.304352 -1.63288 0
M  V30 6738 O 634.251 -0.507591 -1.83924 0
M  V30 6739 C 631.391 -1.35429 -3.17416 0
M  V30 6740 C 630.504 -2.60158 -3.4488 0
M  V30 6741 C 629.639 -2.42596 -4.72568 0
M  V30 6742 C 628.678 -3.62727 -4.93047 0
M  V30 6743 N 627.815 -3.44143 -6.11973 0
M  V30 6744 H 632.655 -2.40349 -1.76172 0
M  V30 6745 H 630.192 -1.19334 -0.860107 0
M  V30 6746 H 632.15 -1.27777 -3.97151 0
M  V30 6747 H 630.78 -0.438536 -3.19807 0
M  V30 6748 H 629.832 -2.78199 -2.5944 0
M  V30 6749 H 631.144 -3.49473 -3.55908 0
M  V30 6750 H 630.298 -2.32497 -5.60384 0
M  V30 6751 H 629.037 -1.50761 -4.63813 0
M  V30 6752 H 628.042 -3.73264 -4.03676 0
M  V30 6753 H 629.267 -4.55534 -5.03652 0
M  V30 6754 H 627.213 -2.5502 -6.04401 0
M  V30 6755 H 627.13 -4.27041 -6.23836 0
M  V30 6756 H 628.398 -3.37845 -7.02482 0
M  V30 6757 N 632.627 0.916307 -1.28225 0
M  V30 6758 C 633.874 1.66518 -1.1523 0
M  V30 6759 C 634.202 1.92178 0.299632 0
M  V30 6760 O 633.457 1.51842 1.2346 0
M  V30 6761 C 633.756 3.03125 -1.8934 0
M  V30 6762 C 633.422 2.97135 -3.39148 0
M  V30 6763 C 632.084 2.95208 -3.80007 0
M  V30 6764 C 634.436 2.87574 -4.34685 0
M  V30 6765 C 631.764 2.81518 -5.14747 0
M  V30 6766 C 634.116 2.75424 -5.69495 0
M  V30 6767 C 632.78 2.71854 -6.09632 0
M  V30 6768 H 632.05 0.609334 -0.421655 0
M  V30 6769 H 634.697 1.06776 -1.58969 0
M  V30 6770 H 633.002 3.66639 -1.38143 0
M  V30 6771 H 634.699 3.59968 -1.76704 0
M  V30 6772 H 631.289 2.99428 -3.06661 0
M  V30 6773 H 635.473 2.88152 -4.04082 0
M  V30 6774 H 630.729 2.77148 -5.44976 0
M  V30 6775 H 634.903 2.66993 -6.43185 0
M  V30 6776 H 632.53 2.61003 -7.1399 0
M  V30 6777 N 634.105 1.10431 1.1244 0
M  V30 6778 C 635.037 0.710945 2.17895 0
M  V30 6779 C 636.05 -0.252315 1.60833 0
M  V30 6780 O 637.239 -0.03679 1.78462 0
M  V30 6781 C 634.339 0.0284262 3.38888 0
M  V30 6782 C 633.512 1.01585 4.2544 0
M  V30 6783 C 632.571 0.364826 5.24934 0
M  V30 6784 O 631.597 1.01561 5.60066 0
M  V30 6785 N 632.799 -0.87674 5.73841 0
M  V30 6786 H 635.564 1.61826 2.52255 0
M  V30 6787 H 633.125 0.993132 1.27861 0
M  V30 6788 H 635.117 -0.418568 4.0253 0
M  V30 6789 H 633.687 -0.781294 3.02679 0
M  V30 6790 H 632.907 1.64111 3.58415 0
M  V30 6791 H 634.195 1.68425 4.80115 0
M  V30 6792 H 633.593 -1.42483 5.47462 0
M  V30 6793 H 632.15 -1.26688 6.39369 0
M  V30 6794 N 635.583 -1.29855 0.893053 0
M  V30 6795 C 636.53 -2.27909 0.364161 0
M  V30 6796 C 637.5 -1.56726 -0.550093 0
M  V30 6797 O 638.685 -1.84747 -0.47677 0
M  V30 6798 C 635.825 -3.42678 -0.408178 0
M  V30 6799 C 634.938 -4.28659 0.536212 0
M  V30 6800 C 634.073 -5.30599 -0.252521 0
M  V30 6801 C 633.112 -6.08234 0.686822 0
M  V30 6802 N 632.249 -7.02068 -0.0670902 0
M  V30 6803 H 637.089 -2.72531 1.20544 0
M  V30 6804 H 634.626 -1.34047 0.605779 0
M  V30 6805 H 636.584 -4.07986 -0.871962 0
M  V30 6806 H 635.214 -2.99103 -1.21397 0
M  V30 6807 H 634.266 -3.63584 1.1185 0
M  V30 6808 H 635.578 -4.8274 1.25552 0
M  V30 6809 H 634.732 -6.01694 -0.777801 0
M  V30 6810 H 633.471 -4.77233 -1.005 0
M  V30 6811 H 632.476 -5.3601 1.22366 0
M  V30 6812 H 633.701 -6.63689 1.43852 0
M  V30 6813 H 631.647 -6.5108 -0.801955 0
M  V30 6814 H 631.564 -7.53675 0.59243 0
M  V30 6815 H 632.832 -7.77392 -0.572851 0
M  V30 6816 N 637.061 -0.65484 -1.43351 0
M  V30 6817 C 638.338 -0.0987371 -1.95351 0
M  V30 6818 C 638.718 1.38161 -1.59608 0
M  V30 6819 O 638.066 2.10791 -0.882021 0
M  V30 6820 C 638.276 -0.346684 -3.47274 0
M  V30 6821 C 639.624 -0.25249 -4.23849 0
M  V30 6822 O 640.648 -0.279332 -3.55103 0
M  V30 6823 O 639.507 -0.177584 -5.46211 0
M  V30 6824 H 636.601 0.0086829 -0.826954 0
M  V30 6825 H 639.147 -0.728189 -1.53282 0
M  V30 6826 H 637.919 -1.37296 -3.66423 0
M  V30 6827 H 637.542 0.315757 -3.96344 0
M  V30 6828 N 638.539 1.52521 -0.396863 0
M  V30 6829 C 639.95 1.86547 0.0754868 0
M  V30 6830 C 640.301 1.31621 1.45501 0
M  V30 6831 O 639.426 0.650563 2.0639 0
M  V30 6832 C 640.021 3.38495 0.143754 0
M  V30 6833 C 638.58 3.72205 0.560413 0
M  V30 6834 C 637.727 2.75954 -0.272856 0
M  V30 6835 H 640.678 1.46323 -0.614434 0
M  V30 6836 H 640.699 3.68153 0.961425 0
M  V30 6837 H 640.211 3.78442 -0.860415 0
M  V30 6838 H 638.312 3.3783 1.57167 0
M  V30 6839 H 638.425 4.78074 0.313314 0
M  V30 6840 H 636.789 2.53339 0.263 0
M  V30 6841 H 637.572 3.1874 -1.27515 0
M  V30 6842 N 640.017 0.126909 1.57088 0
M  V30 6843 C 641.428 -0.397201 1.82426 0
M  V30 6844 C 641.779 -1.66084 1.04453 0
M  V30 6845 O 640.904 -2.14534 0.283552 0
M  V30 6846 C 641.499 -0.727411 3.30899 0
M  V30 6847 C 640.058 -1.19612 3.56889 0
M  V30 6848 C 639.205 -0.20885 2.76512 0
M  V30 6849 H 642.156 0.351924 1.54749 0
M  V30 6850 H 642.177 -1.58407 3.45959 0
M  V30 6851 H 641.689 0.19247 3.87622 0
M  V30 6852 H 639.79 -2.13263 3.05532 0
M  V30 6853 H 639.903 -1.13598 4.65438 0
M  V30 6854 H 638.267 -0.697479 2.44964 0
M  V30 6855 H 639.05 0.704267 3.35998 0
M  V30 6856 N 641.495 -1.56914 -0.146875 0
M  V30 6857 C 642.742 -1.83356 -0.859467 0
M  V30 6858 C 643.07 -0.707811 -1.81164 0
M  V30 6859 O 642.325 0.303155 -1.93338 0
M  V30 6860 C 642.624 -3.16128 -1.66727 0
M  V30 6861 C 642.29 -4.42586 -0.861881 0
M  V30 6862 C 640.952 -4.76929 -0.639687 0
M  V30 6863 C 643.304 -5.20344 -0.298643 0
M  V30 6864 C 640.632 -5.86491 0.156451 0
M  V30 6865 C 642.984 -6.30742 0.484536 0
M  V30 6866 C 641.648 -6.63635 0.717306 0
M  V30 6867 H 640.918 -0.670947 -0.314501 0
M  V30 6868 H 643.565 -1.91104 -0.123108 0
M  V30 6869 H 641.87 -3.03831 -2.47374 0
M  V30 6870 H 643.567 -3.33802 -2.2221 0
M  V30 6871 H 640.157 -4.15662 -1.04513 0
M  V30 6872 H 644.341 -4.94186 -0.457585 0
M  V30 6873 H 639.597 -6.10419 0.346292 0
M  V30 6874 H 643.771 -6.90188 0.928105 0
M  V30 6875 H 641.398 -7.48367 1.33607 0
M  V30 6876 N 642.974 0.416227 -1.52004 0
M  V30 6877 C 643.906 1.52552 -1.71058 0
M  V30 6878 C 644.919 1.51693 -0.59102 0
M  V30 6879 O 646.108 1.56087 -0.865973 0
M  V30 6880 C 643.208 2.91455 -1.72937 0
M  V30 6881 C 642.381 3.16584 -3.01816 0
M  V30 6882 C 641.44 4.35322 -2.95603 0
M  V30 6883 O 640.466 4.32947 -3.6952 0
M  V30 6884 N 641.668 5.40049 -2.12903 0
M  V30 6885 H 644.433 1.36604 -2.66757 0
M  V30 6886 H 641.994 0.60544 -1.50153 0
M  V30 6887 H 643.986 3.68944 -1.66321 0
M  V30 6888 H 642.556 3.00895 -0.847418 0
M  V30 6889 H 641.776 2.27203 -3.22137 0
M  V30 6890 H 643.064 3.30213 -3.87088 0
M  V30 6891 H 642.462 5.44823 -1.52265 0
M  V30 6892 H 641.019 6.16308 -2.1215 0
M  V30 6893 N 644.452 1.42507 0.673017 0
M  V30 6894 C 645.698 1.44282 1.43367 0
M  V30 6895 C 646.053 0.0588239 1.9231 0
M  V30 6896 O 645.346 -0.919288 1.68106 0
M  V30 6897 C 645.54 2.40351 2.64511 0
M  V30 6898 C 645.369 3.87955 2.27423 0
M  V30 6899 C 644.139 4.56476 2.16697 0
M  V30 6900 C 646.337 4.7833 1.88957 0
M  V30 6901 N 644.319 5.89099 1.72731 0
M  V30 6902 C 645.69 6.00073 1.55923 0
M  V30 6903 C 647.745 4.65769 1.75965 0
M  V30 6904 C 646.448 7.10652 1.112 0
M  V30 6905 C 648.474 5.76332 1.32647 0
M  V30 6906 C 647.836 6.97188 1.00538 0
M  V30 6907 H 643.935 0.583134 0.521036 0
M  V30 6908 H 646.519 1.78547 0.776481 0
M  V30 6909 H 644.69 2.08145 3.27918 0
M  V30 6910 H 646.422 2.32694 3.31113 0
M  V30 6911 H 643.177 4.10712 2.35823 0
M  V30 6912 H 643.601 6.59446 1.53166 0
M  V30 6913 H 648.243 3.72808 1.99435 0
M  V30 6914 H 645.961 8.0346 0.864768 0
M  V30 6915 H 649.547 5.68625 1.23112 0
M  V30 6916 H 648.427 7.81287 0.675283 0
M  V30 6917 N 645.93 -0.909495 1.28709 0
M  V30 6918 C 646.863 -2.01388 1.07323 0
M  V30 6919 C 647.841 -1.62596 -0.0119757 0
M  V30 6920 O 649.025 -1.88003 0.136796 0
M  V30 6921 C 646.152 -3.32755 0.631797 0
M  V30 6922 C 645.198 -3.90532 1.71428 0
M  V30 6923 S 646.031 -4.20853 3.31124 0
M  V30 6924 C 647.187 -5.55276 2.88825 0
M  V30 6925 H 647.42 -2.19219 2.00824 0
M  V30 6926 H 644.953 -1.05489 1.12745 0
M  V30 6927 H 646.911 -4.08702 0.38381 0
M  V30 6928 H 645.572 -3.12818 -0.283451 0
M  V30 6929 H 644.765 -4.85385 1.35712 0
M  V30 6930 H 644.367 -3.21237 1.91528 0
M  V30 6931 H 646.659 -6.35341 2.3526 0
M  V30 6932 H 647.602 -5.95907 3.82492 0
M  V30 6933 H 648.01 -5.16666 2.27412 0
M  V30 6934 N 647.408 -1.11026 -1.11852 0
M  V30 6935 C 648.656 -0.854769 -1.83134 0
M  V30 6936 C 648.977 0.621375 -1.84835 0
M  V30 6937 O 648.247 1.45129 -1.31584 0
M  V30 6938 H 646.827 -0.313229 -0.678157 0
M  V30 6939 H 649.489 -1.40178 -1.35411 0
M  V30 6940 H 648.585 -1.22311 -2.87135 0
M  V30 6941 N 648.886 1.2938 -0.899927 0
M  V30 6942 C 650.116 1.99402 -0.540601 0
M  V30 6943 C 650.524 1.67534 0.87914 0
M  V30 6944 O 649.867 0.916821 1.59186 0
M  V30 6945 C 649.929 3.53514 -0.653326 0
M  V30 6946 C 649.593 4.08937 -2.04009 0
M  V30 6947 C 650.59 4.23815 -3.01126 0
M  V30 6948 C 648.275 4.43962 -2.34953 0
M  V30 6949 C 650.269 4.72951 -4.27313 0
M  V30 6950 C 647.956 4.92795 -3.61382 0
M  V30 6951 C 648.954 5.07244 -4.57376 0
M  V30 6952 O 648.642 5.55017 -5.8156 0
M  V30 6953 H 648.374 0.64383 -0.206057 0
M  V30 6954 H 650.928 1.65878 -1.21134 0
M  V30 6955 H 649.158 3.86628 0.0744449 0
M  V30 6956 H 650.847 4.04767 -0.303118 0
M  V30 6957 H 651.613 3.97043 -2.78535 0
M  V30 6958 H 647.492 4.31974 -1.60994 0
M  V30 6959 H 651.036 4.84144 -5.02245 0
M  V30 6960 H 646.933 5.19004 -3.83804 0
M  V30 6961 H 647.701 5.73331 -5.84153 0
M  V30 6962 N 650.364 0.662433 1.43002 0
M  V30 6963 C 651.274 -0.0239199 2.34588 0
M  V30 6964 C 652.29 -0.802255 1.54402 0
M  V30 6965 O 653.466 -0.747401 1.87018 0
M  V30 6966 C 650.531 -0.972098 3.32793 0
M  V30 6967 C 649.592 -0.189673 4.28881 0
M  V30 6968 C 648.825 -1.09269 5.22395 0
M  V30 6969 O 649.048 -2.33209 5.20547 0
M  V30 6970 O 647.982 -0.560136 5.99288 0
M  V30 6971 H 651.808 0.730171 2.94792 0
M  V30 6972 H 649.393 0.422635 1.43297 0
M  V30 6973 H 651.275 -1.51676 3.93157 0
M  V30 6974 H 649.95 -1.70626 2.75079 0
M  V30 6975 H 648.857 0.398794 3.71968 0
M  V30 6976 H 650.19 0.50511 4.89601 0
M  V30 6977 N 651.842 -1.52309 0.404946 0
M  V30 6978 C 652.772 -2.29805 -0.41376 0
M  V30 6979 C 653.753 -1.3384 -1.0498 0
M  V30 6980 O 654.938 -1.62745 -1.05961 0
M  V30 6981 C 652.068 -3.11639 -1.53292 0
M  V30 6982 C 651.022 -4.15616 -1.02211 0
M  V30 6983 C 650.348 -4.8577 -2.23455 0
M  V30 6984 C 651.648 -5.2224 -0.0790725 0
M  V30 6985 H 653.342 -2.98493 0.232878 0
M  V30 6986 H 650.888 -1.43552 0.113441 0
M  V30 6987 H 652.841 -3.64618 -2.11262 0
M  V30 6988 H 651.565 -2.40712 -2.20738 0
M  V30 6989 H 650.224 -3.63641 -0.46484 0
M  V30 6990 H 649.872 -4.11376 -2.89445 0
M  V30 6991 H 649.572 -5.56058 -1.89929 0
M  V30 6992 H 651.096 -5.4156 -2.82038 0
M  V30 6993 H 652.51 -5.70485 -0.567438 0
M  V30 6994 H 650.907 -5.99867 0.167167 0
M  V30 6995 H 651.977 -4.77078 0.867447 0
M  V30 6996 N 653.32 -0.135238 -1.57019 0
M  V30 6997 C 654.566 0.513232 -1.96818 0
M  V30 6998 C 654.921 1.63245 -1.01827 0
M  V30 6999 O 654.214 1.91532 -0.0511756 0
M  V30 7000 C 654.408 1.07694 -3.40788 0
M  V30 7001 C 654.237 0.0138667 -4.49698 0
M  V30 7002 C 653.007 -0.423532 -5.03522 0
M  V30 7003 C 655.205 -0.77322 -5.08454 0
M  V30 7004 N 653.187 -1.47068 -5.96024 0
M  V30 7005 C 654.558 -1.67115 -5.97053 0
M  V30 7006 C 656.613 -0.822313 -4.91063 0
M  V30 7007 C 655.316 -2.61395 -6.70123 0
M  V30 7008 C 657.342 -1.75288 -5.64826 0
M  V30 7009 C 656.704 -2.63836 -6.53123 0
M  V30 7010 H 652.803 0.156956 -0.766087 0
M  V30 7011 H 655.387 -0.227118 -1.93371 0
M  V30 7012 H 653.558 1.78694 -3.44852 0
M  V30 7013 H 655.29 1.69106 -3.67675 0
M  V30 7014 H 652.045 -0.0280202 -4.73592 0
M  V30 7015 H 652.469 -1.99366 -6.46979 0
M  V30 7016 H 657.111 -0.151822 -4.22527 0
M  V30 7017 H 654.829 -3.2945 -7.37895 0
M  V30 7018 H 658.415 -1.79652 -5.53368 0
M  V30 7019 H 657.295 -3.34672 -7.092 0
M  V30 7020 N 654.798 1.5699 0.138552 0
M  V30 7021 C 656.209 1.73171 0.697754 0
M  V30 7022 C 656.56 0.750952 1.8126 0
M  V30 7023 O 655.685 -0.080549 2.1625 0
M  V30 7024 C 656.28 3.13996 1.27248 0
M  V30 7025 C 654.839 3.3175 1.77816 0
M  V30 7026 C 653.986 2.69084 0.669991 0
M  V30 7027 H 656.937 1.5846 -0.0871979 0
M  V30 7028 H 656.958 3.14463 2.14227 0
M  V30 7029 H 656.47 3.85354 0.460855 0
M  V30 7030 H 654.571 2.65403 2.61519 0
M  V30 7031 H 654.684 4.39768 1.90107 0
M  V30 7032 H 653.048 2.29782 1.09874 0
M  V30 7033 H 653.831 3.43053 -0.130329 0
M  V30 7034 N 656.276 -0.40816 1.52223 0
M  V30 7035 C 657.504 -1.17672 1.70179 0
M  V30 7036 C 657.919 -1.84257 0.411696 0
M  V30 7037 O 657.276 -1.7192 -0.612354 0
M  V30 7038 C 657.327 -2.23911 2.83806 0
M  V30 7039 O 657.048 -1.60044 4.0782 0
M  V30 7040 C 658.549 -3.1364 3.13281 0
M  V30 7041 H 655.769 -0.353562 0.570293 0
M  V30 7042 H 658.313 -0.480083 1.98785 0
M  V30 7043 H 656.468 -2.89242 2.57717 0
M  V30 7044 H 656.882 -2.30484 4.71145 0
M  V30 7045 H 658.356 -3.84255 3.96298 0
M  V30 7046 H 658.833 -3.76066 2.26872 0
M  V30 7047 H 659.439 -2.53977 3.41139 0
M  V30 7048 N 657.755 -1.42862 -0.66545 0
M  V30 7049 C 658.702 -1.4707 -1.77874 0
M  V30 7050 C 659.672 -0.321654 -1.62956 0
M  V30 7051 O 660.857 -0.52707 -1.83376 0
M  V30 7052 C 657.997 -1.38788 -3.15962 0
M  V30 7053 C 657.11 -2.63801 -3.42101 0
M  V30 7054 C 656.245 -2.47594 -4.69969 0
M  V30 7055 C 655.284 -3.67936 -4.89172 0
M  V30 7056 N 654.421 -3.50614 -6.08288 0
M  V30 7057 H 659.261 -2.42204 -1.73613 0
M  V30 7058 H 656.798 -1.20239 -0.847401 0
M  V30 7059 H 658.756 -1.31982 -3.95773 0
M  V30 7060 H 657.386 -0.472431 -3.19324 0
M  V30 7061 H 656.438 -2.80935 -2.56475 0
M  V30 7062 H 657.75 -3.53228 -3.52181 0
M  V30 7063 H 656.904 -2.38427 -5.57886 0
M  V30 7064 H 655.643 -1.55672 -4.62188 0
M  V30 7065 H 654.648 -3.77525 -3.99694 0
M  V30 7066 H 655.873 -4.60851 -4.98792 0
M  V30 7067 H 653.819 -2.61417 -6.01662 0
M  V30 7068 H 653.736 -4.33634 -6.19272 0
M  V30 7069 H 655.004 -3.45276 -6.98859 0
M  V30 7070 N 659.233 0.902656 -1.29189 0
M  V30 7071 C 660.479 1.6555 -1.18172 0
M  V30 7072 C 660.834 1.90569 0.264788 0
M  V30 7073 O 660.127 1.50292 1.1884 0
M  V30 7074 C 660.321 3.011 -1.92545 0
M  V30 7075 C 660.15 2.89312 -3.4428 0
M  V30 7076 C 658.92 2.90239 -4.1363 0
M  V30 7077 C 661.118 2.6656 -4.3983 0
M  V30 7078 N 659.1 2.69156 -5.5175 0
M  V30 7079 C 660.471 2.54429 -5.6539 0
M  V30 7080 C 662.526 2.51644 -4.29627 0
M  V30 7081 C 661.229 2.289 -6.81907 0
M  V30 7082 C 663.255 2.27498 -5.45892 0
M  V30 7083 C 662.617 2.16129 -6.70423 0
M  V30 7084 H 658.716 0.611519 -0.48741 0
M  V30 7085 H 661.3 1.06514 -1.62981 0
M  V30 7086 H 659.471 3.58202 -1.50154 0
M  V30 7087 H 661.203 3.65471 -1.73818 0
M  V30 7088 H 657.958 3.01412 -3.65305 0
M  V30 7089 H 658.382 2.61676 -6.24383 0
M  V30 7090 H 663.024 2.59178 -3.34045 0
M  V30 7091 H 660.742 2.20104 -7.77547 0
M  V30 7092 H 664.328 2.16805 -5.39895 0
M  V30 7093 H 663.208 1.97703 -7.5887 0
M  V30 7094 N 660.711 1.11618 1.11262 0
M  V30 7095 C 661.658 0.7762 2.17356 0
M  V30 7096 C 662.628 -0.253152 1.6416 0
M  V30 7097 O 663.813 -0.129655 1.90359 0
M  V30 7098 C 660.953 0.227581 3.44349 0
M  V30 7099 C 660.066 1.31372 4.1154 0
M  V30 7100 C 659.201 0.72544 5.26223 0
M  V30 7101 C 658.24 1.7913 5.85302 0
M  V30 7102 N 657.377 1.22237 6.91377 0
M  V30 7103 H 662.217 1.68508 2.45783 0
M  V30 7104 H 659.754 0.841475 1.20655 0
M  V30 7105 H 661.712 -0.108483 4.17059 0
M  V30 7106 H 660.342 -0.644486 3.16301 0
M  V30 7107 H 659.394 1.7667 3.36885 0
M  V30 7108 H 660.706 2.12005 4.51504 0
M  V30 7109 H 659.86 0.339541 6.05749 0
M  V30 7110 H 658.599 -0.112188 4.87571 0
M  V30 7111 H 657.604 2.18648 5.04453 0
M  V30 7112 H 658.829 2.63199 6.26022 0
M  V30 7113 H 656.775 0.406423 6.5474 0
M  V30 7114 H 656.692 1.9654 7.30006 0
M  V30 7115 H 657.96 0.863426 7.74703 0
M  V30 7116 N 662.189 -1.289 0.906776 0
M  V30 7117 C 663.119 -2.29932 0.406659 0
M  V30 7118 C 664.1 -1.6189 -0.522061 0
M  V30 7119 O 665.285 -1.8935 -0.431283 0
M  V30 7120 C 662.415 -3.45425 -0.360366 0
M  V30 7121 C 661.369 -4.25316 0.478574 0
M  V30 7122 C 660.695 -5.33076 -0.416373 0
M  V30 7123 C 661.995 -4.92739 1.7322 0
M  V30 7124 H 663.689 -2.72013 1.25097 0
M  V30 7125 H 661.235 -1.30768 0.602977 0
M  V30 7126 H 663.188 -4.15186 -0.721029 0
M  V30 7127 H 661.912 -3.02206 -1.23852 0
M  V30 7128 H 660.571 -3.57273 0.821662 0
M  V30 7129 H 660.219 -4.86101 -1.29287 0
M  V30 7130 H 659.919 -5.8743 0.141309 0
M  V30 7131 H 661.443 -6.05686 -0.773072 0
M  V30 7132 H 662.857 -5.54898 1.44086 0
M  V30 7133 H 661.254 -5.57057 2.23175 0
M  V30 7134 H 662.324 -4.17625 2.46408 0
M  V30 7135 N 663.667 -0.670007 -1.42649 0
M  V30 7136 C 664.599 0.0501746 -2.29145 0
M  V30 7137 C 665.612 0.770331 -1.43422 0
M  V30 7138 O 666.801 0.625288 -1.6719 0
M  V30 7139 C 663.901 1.09463 -3.20735 0
M  V30 7140 C 663.074 0.44926 -4.35087 0
M  V30 7141 C 662.133 1.39285 -5.07431 0
M  V30 7142 O 661.159 0.894997 -5.6212 0
M  V30 7143 N 662.361 2.72631 -5.12496 0
M  V30 7144 H 665.126 -0.692312 -2.91594 0
M  V30 7145 H 662.687 -0.514056 -1.53522 0
M  V30 7146 H 664.679 1.72705 -3.65999 0
M  V30 7147 H 663.249 1.73891 -2.59771 0
M  V30 7148 H 662.469 -0.362573 -3.92529 0
M  V30 7149 H 663.757 -0.000544776 -5.088 0
M  V30 7150 H 663.155 3.15623 -4.69467 0
M  V30 7151 H 661.712 3.31132 -5.61422 0
M  V30 7152 N 665.145 1.52092 -0.413018 0
M  V30 7153 C 666.092 2.27119 0.410558 0
M  V30 7154 C 667.062 1.29692 1.03774 0
M  V30 7155 O 668.247 1.58561 1.06128 0
M  V30 7156 C 665.387 3.09863 1.51918 0
M  V30 7157 C 664.5 4.22252 0.912528 0
M  V30 7158 C 663.635 4.92348 1.99417 0
M  V30 7159 C 662.674 5.96694 1.36466 0
M  V30 7160 N 661.811 6.60292 2.38661 0
M  V30 7161 H 666.651 2.97067 -0.235661 0
M  V30 7162 H 664.188 1.46542 -0.128055 0
M  V30 7163 H 666.146 3.56144 2.17295 0
M  V30 7164 H 664.776 2.42078 2.13537 0
M  V30 7165 H 663.828 3.80113 0.147697 0
M  V30 7166 H 665.14 4.9709 0.412717 0
M  V30 7167 H 664.294 5.42054 2.72512 0
M  V30 7168 H 663.033 4.17087 2.52764 0
M  V30 7169 H 662.038 5.46304 0.61906 0
M  V30 7170 H 663.263 6.73899 0.838827 0
M  V30 7171 H 661.209 5.87858 2.91134 0
M  V30 7172 H 661.126 7.30816 1.93503 0
M  V30 7173 H 662.394 7.14635 3.11314 0
M  V30 7174 N 666.623 0.143563 1.56945 0
M  V30 7175 C 667.872 -0.50835 1.95189 0
M  V30 7176 C 668.185 -1.66239 1.03073 0
M  V30 7177 O 669.391 -2.3787 1.30882 0
M  V30 7178 C 667.847 -0.955735 3.46978 0
M  V30 7179 C 667.455 0.171183 4.47673 0
M  V30 7180 C 669.199 -1.57763 3.94095 0
M  V30 7181 C 667.106 -0.294279 5.90667 0
M  V30 7182 H 666.036 -0.193679 0.728701 0
M  V30 7183 H 668.687 0.227357 1.82086 0
M  V30 7184 H 667.069 -1.7466 3.55401 0
M  V30 7185 H 668.243 0.948049 4.50942 0
M  V30 7186 H 666.558 0.701273 4.10452 0
M  V30 7187 H 669.155 -1.93745 4.98364 0
M  V30 7188 H 669.498 -2.46531 3.35452 0
M  V30 7189 H 670.031 -0.851728 3.88575 0
M  V30 7190 H 666.77 0.557939 6.53121 0
M  V30 7191 H 666.29 -1.0371 5.90766 0
M  V30 7192 H 667.969 -0.747426 6.42668 0
M  V30 7193 N 668.101 -1.57061 -0.130224 0
M  V30 7194 C 669.011 -2.02802 -1.17934 0
M  V30 7195 C 670.027 -0.946378 -1.46013 0
M  V30 7196 O 671.203 -1.25708 -1.57351 0
M  V30 7197 C 668.268 -2.41368 -2.48882 0
M  V30 7198 C 667.329 -3.63561 -2.28301 0
M  V30 7199 C 666.562 -4.00279 -3.53005 0
M  V30 7200 O 666.785 -3.37463 -4.59864 0
M  V30 7201 O 665.719 -4.93441 -3.44673 0
M  V30 7202 H 669.545 -2.92394 -0.820958 0
M  V30 7203 H 667.13 -1.45475 -0.340197 0
M  V30 7204 H 669.012 -2.66958 -3.26054 0
M  V30 7205 H 667.687 -1.54926 -2.84217 0
M  V30 7206 H 666.594 -3.43136 -1.49025 0
M  V30 7207 H 667.927 -4.50673 -1.97875 0
M  V30 7208 N 669.579 0.400081 -1.52437 0
M  V30 7209 C 670.509 1.4947 -1.7939 0
M  V30 7210 C 671.49 1.57383 -0.645329 0
M  V30 7211 O 672.675 1.72511 -0.891826 0
M  V30 7212 C 669.805 2.87201 -1.95276 0
M  V30 7213 C 668.759 2.94134 -3.10917 0
M  V30 7214 C 668.085 4.34207 -3.1204 0
M  V30 7215 C 669.385 2.64791 -4.50203 0
M  V30 7216 H 671.079 1.27165 -2.71052 0
M  V30 7217 H 668.625 0.610312 -1.30427 0
M  V30 7218 H 670.578 3.63772 -2.12715 0
M  V30 7219 H 669.302 3.10819 -1.00294 0
M  V30 7220 H 667.961 2.20009 -2.93243 0
M  V30 7221 H 667.609 4.54848 -2.14761 0
M  V30 7222 H 667.309 4.39768 -3.89715 0
M  V30 7223 H 668.833 5.127 -3.31619 0
M  V30 7224 H 670.247 3.31083 -4.68035 0
M  V30 7225 H 668.644 2.81717 -5.29864 0
M  V30 7226 H 669.714 1.60184 -4.57678 0
M  V30 7227 N 671.057 1.43213 0.657864 0
M  V30 7228 C 672.468 1.39669 1.23893 0
M  V30 7229 C 672.819 0.0984217 1.95953 0
M  V30 7230 O 671.944 -0.8023 2.00978 0
M  V30 7231 C 672.539 2.53004 2.25332 0
M  V30 7232 C 671.098 2.5274 2.78926 0
M  V30 7233 C 670.245 2.30941 1.53497 0
M  V30 7234 H 673.196 1.52181 0.450172 0
M  V30 7235 H 673.217 2.24226 3.07413 0
M  V30 7236 H 672.729 3.4748 1.72856 0
M  V30 7237 H 670.83 1.6213 3.35477 0
M  V30 7238 H 670.943 3.50352 3.26787 0
M  V30 7239 H 669.307 1.7952 1.80678 0
M  V30 7240 H 670.09 3.27496 1.02963 0
M  V30 7241 N 672.536 -0.895792 1.29666 0
M  V30 7242 C 673.468 -2.00563 1.10937 0
M  V30 7243 C 674.481 -1.62705 0.055734 0
M  V30 7244 O 675.67 -1.7595 0.300656 0
M  V30 7245 C 672.77 -3.32262 0.667448 0
M  V30 7246 C 671.943 -3.98625 1.80047 0
M  V30 7247 C 671.002 -5.08617 1.3489 0
M  V30 7248 O 670.028 -5.30837 2.05429 0
M  V30 7249 N 671.23 -5.80076 0.221937 0
M  V30 7250 H 673.995 -2.17184 2.06522 0
M  V30 7251 H 671.556 -1.06822 1.21658 0
M  V30 7252 H 673.548 -4.03196 0.348586 0
M  V30 7253 H 672.118 -3.11985 -0.196055 0
M  V30 7254 H 671.338 -3.21005 2.28801 0
M  V30 7255 H 672.626 -4.39704 2.56003 0
M  V30 7256 H 672.024 -5.64514 -0.366084 0
M  V30 7257 H 670.581 -6.51789 -0.0375346 0
M  V30 7258 N 674.014 -1.12206 -1.10668 0
M  V30 7259 C 675.43 -0.857619 -1.346 0
M  V30 7260 C 675.63 0.513542 -1.94846 0
M  V30 7261 O 674.686 1.26273 -2.18658 0
M  V30 7262 C 675.999 -1.97212 -2.26998 0
M  V30 7263 C 677.547 -2.00272 -2.40542 0
M  V30 7264 C 678.022 -3.10948 -3.36267 0
M  V30 7265 N 679.513 -3.10375 -3.43834 0
M  V30 7266 C 680.248 -3.92651 -4.17867 0
M  V30 7267 N 679.744 -4.84911 -4.94807 0
M  V30 7268 N 681.537 -3.80798 -4.1346 0
M  V30 7269 H 673.688 -2.00558 -0.699306 0
M  V30 7270 H 675.951 -0.872612 -0.370477 0
M  V30 7271 H 675.657 -2.96002 -1.89936 0
M  V30 7272 H 675.531 -1.87521 -3.27286 0
M  V30 7273 H 677.918 -1.02103 -2.76874 0
M  V30 7274 H 677.999 -2.14037 -1.40077 0
M  V30 7275 H 677.643 -4.09348 -3.00661 0
M  V30 7276 H 677.573 -2.94421 -4.36605 0
M  V30 7277 H 680.064 -2.43536 -2.88961 0
M  V30 7278 H 680.377 -5.44207 -5.48688 0
M  V30 7279 H 678.722 -4.88926 -4.93939 0
M  V30 7280 H 681.913 -3.08058 -3.52445 0
M  V30 7281 H 682.086 -4.4515 -4.70898 0
M  V30 7282 N 675.492 1.28418 -0.913599 0
M  V30 7283 C 676.402 2.31043 -0.406965 0
M  V30 7284 C 677.418 1.66501 0.505298 0
M  V30 7285 O 678.594 1.97558 0.391522 0
M  V30 7286 C 675.659 3.4498 0.344901 0
M  V30 7287 C 674.72 4.25078 -0.600563 0
M  V30 7288 C 673.953 5.33575 0.115516 0
M  V30 7289 O 674.176 5.54503 1.33727 0
M  V30 7290 O 673.11 5.9939 -0.549095 0
M  V30 7291 H 676.936 2.76387 -1.25873 0
M  V30 7292 H 674.521 1.33109 -0.678415 0
M  V30 7293 H 676.403 4.14314 0.769542 0
M  V30 7294 H 675.078 3.01719 1.1725 0
M  V30 7295 H 673.985 3.58334 -1.0746 0
M  V30 7296 H 675.318 4.72018 -1.39497 0
M  V30 7297 N 676.97 0.677563 1.42291 0
M  V30 7298 C 678.198 0.209459 2.05837 0
M  V30 7299 C 678.613 -1.13444 1.50917 0
M  V30 7300 O 677.97 -1.70529 0.65008 0
M  V30 7301 C 678.021 0.138819 3.61233 0
M  V30 7302 O 677.742 1.42962 4.14118 0
M  V30 7303 C 679.243 -0.352449 4.41897 0
M  V30 7304 H 676.463 0.101209 0.663323 0
M  V30 7305 H 679.007 0.925077 1.8238 0
M  V30 7306 H 677.162 -0.527505 3.83792 0
M  V30 7307 H 677.576 1.3048 5.08011 0
M  V30 7308 H 679.05 -0.350778 5.50884 0
M  V30 7309 H 679.527 -1.3882 4.16684 0
M  V30 7310 H 680.133 0.282236 4.24362 0
M  V30 7311 N 678.448 -1.51871 0.421078 0
M  V30 7312 C 679.694 -2.02894 -0.143346 0
M  V30 7313 C 680.049 -1.30054 -1.41787 0
M  V30 7314 O 679.342 -0.401776 -1.8734 0
M  V30 7315 C 679.536 -3.54764 -0.433292 0
M  V30 7316 C 679.365 -4.42316 0.811584 0
M  V30 7317 C 678.135 -4.872 1.34033 0
M  V30 7318 C 680.333 -4.85631 1.69313 0
M  V30 7319 N 678.315 -5.58915 2.53944 0
M  V30 7320 C 679.686 -5.56248 2.7384 0
M  V30 7321 C 681.741 -4.67634 1.70947 0
M  V30 7322 C 680.444 -6.10777 3.79927 0
M  V30 7323 C 682.47 -5.23068 2.7596 0
M  V30 7324 C 681.832 -5.93617 3.79207 0
M  V30 7325 H 677.931 -0.78188 -0.0137104 0
M  V30 7326 H 680.515 -1.85919 0.578105 0
M  V30 7327 H 678.686 -3.71787 -1.12378 0
M  V30 7328 H 680.418 -3.92464 -0.987644 0
M  V30 7329 H 677.173 -4.65035 0.896606 0
M  V30 7330 H 677.597 -5.99408 3.14704 0
M  V30 7331 H 682.239 -4.12566 0.9246 0
M  V30 7332 H 679.957 -6.64909 4.59262 0
M  V30 7333 H 683.543 -5.11005 2.78147 0
M  V30 7334 H 682.423 -6.35743 4.5913 0
M  V30 7335 N 679.926 -0.151884 -1.56866 0
M  V30 7336 C 681.154 0.504813 -2.00647 0
M  V30 7337 C 681.569 1.58098 -1.03201 0
M  V30 7338 O 680.926 1.82476 -0.0297814 0
M  V30 7339 C 680.977 1.10099 -3.44326 0
M  V30 7340 O 680.698 0.0678021 -4.38048 0
M  V30 7341 C 682.199 1.83782 -4.03409 0
M  V30 7342 H 679.419 0.130989 -0.65809 0
M  V30 7343 H 681.963 -0.247903 -2.02992 0
M  V30 7344 H 680.118 1.8043 -3.42817 0
M  V30 7345 H 680.532 0.505237 -5.22061 0
M  V30 7346 H 682.006 2.2078 -5.05925 0
M  V30 7347 H 682.483 2.72557 -3.44397 0
M  V30 7348 H 683.089 1.18138 -4.08563 0
M  V30 7349 N 681.404 1.57128 0.121893 0
M  V30 7350 C 682.65 1.84974 0.831418 0
M  V30 7351 C 682.983 0.737204 1.79663 0
M  V30 7352 O 682.258 -0.257199 1.92792 0
M  V30 7353 C 682.541 3.23397 1.58386 0
M  V30 7354 C 682.394 4.45246 0.638445 0
M  V30 7355 C 683.713 3.59355 2.54071 0
M  V30 7356 H 680.832 0.67282 0.300803 0
M  V30 7357 H 683.474 1.89759 0.0957587 0
M  V30 7358 H 681.624 3.19449 2.21098 0
M  V30 7359 H 683.296 4.61295 0.0203925 0
M  V30 7360 H 681.539 4.33771 -0.05023 0
M  V30 7361 H 682.21 5.38765 1.20151 0
M  V30 7362 H 684.686 3.64075 2.01465 0
M  V30 7363 H 683.562 4.57193 3.03752 0
M  V30 7364 H 683.823 2.86622 3.36601 0
M  V30 7365 N 682.882 -0.391992 1.52647 0
M  V30 7366 C 683.83 -1.4991 1.77848 0
M  V30 7367 C 684.824 -1.56587 0.646282 0
M  V30 7368 O 686.03 -1.59789 0.828698 0
M  V30 7369 H 682.405 -0.498883 0.56269 0
M  V30 7370 H 684.376 -1.25847 2.70564 0
M  V30 7371 C 683.125 -2.87081 1.96163 0
M  V30 7372 H 682.448 -2.82692 2.82711 0
M  V30 7373 H 683.888 -3.63792 2.17787 0
M  V30 7374 C 682.347 -3.28822 0.733348 0
M  V30 7375 O 682.877 -4.01598 -0.0906481 0
M  V30 7376 N 681.083 -2.85068 0.564317 0
M  V30 7377 H 680.63 -2.26012 1.23598 0
M  V30 7378 H 680.588 -3.13355 -0.256166 0
M  V30 7379 N 684.36 -1.4356 -0.65026 0
M  V30 7380 C 685.637 -1.35811 -1.40765 0
M  V30 7381 C 686.017 -0.00736379 -2.11099 0
M  V30 7382 O 685.365 1.00932 -2.05 0
M  V30 7383 C 685.575 -2.54332 -2.3899 0
M  V30 7384 C 686.923 -2.97551 -3.02901 0
M  V30 7385 O 687.947 -2.544 -2.49317 0
M  V30 7386 O 686.806 -3.72311 -4.00059 0
M  V30 7387 H 683.9 -0.536861 -0.629054 0
M  V30 7388 H 686.446 -1.55615 -0.676919 0
M  V30 7389 H 685.218 -3.44274 -1.85986 0
M  V30 7390 H 684.841 -2.36643 -3.19509 0
M  V30 7391 N 685.838 0.888903 -1.30139 0
M  V30 7392 C 687.087 1.63507 -1.18103 0
M  V30 7393 C 687.4 1.93808 0.264141 0
M  V30 7394 O 688.606 2.66744 0.505966 0
M  V30 7395 C 687.062 2.94673 -2.0663 0
M  V30 7396 C 686.67 2.71926 -3.56034 0
M  V30 7397 C 688.414 3.72626 -2.03346 0
M  V30 7398 C 686.321 3.98884 -4.3663 0
M  V30 7399 H 685.251 0.613426 -0.438435 0
M  V30 7400 H 687.902 0.984427 -1.54859 0
M  V30 7401 H 686.284 3.61009 -1.62754 0
M  V30 7402 H 687.458 2.14116 -4.08033 0
M  V30 7403 H 685.773 2.07353 -3.61101 0
M  V30 7404 H 688.37 4.66775 -2.60816 0
M  V30 7405 H 688.713 4.03712 -1.016 0
M  V30 7406 H 689.246 3.13147 -2.45324 0
M  V30 7407 H 685.985 3.72959 -5.39056 0
M  V30 7408 H 685.505 4.56214 -3.89396 0
M  V30 7409 H 687.184 4.66938 -4.47859 0
M  V30 7410 N 687.317 1.12792 1.10072 0
M  V30 7411 C 688.249 0.757003 2.16338 0
M  V30 7412 C 689.262 -0.218144 1.61332 0
M  V30 7413 O 690.451 0.0010727 1.785 0
M  V30 7414 C 687.551 0.100303 3.38752 0
M  V30 7415 C 686.724 1.10586 4.2319 0
M  V30 7416 C 685.783 0.47609 5.24042 0
M  V30 7417 O 684.809 1.13418 5.57786 0
M  V30 7418 N 686.011 -0.754823 5.75572 0
M  V30 7419 H 688.776 1.6714 2.48766 0
M  V30 7420 H 686.337 1.02003 1.25726 0
M  V30 7421 H 688.329 -0.333092 4.03327 0
M  V30 7422 H 686.899 -0.716915 3.04268 0
M  V30 7423 H 686.119 1.71677 3.54853 0
M  V30 7424 H 687.407 1.78571 4.76435 0
M  V30 7425 H 686.805 -1.30838 5.50362 0
M  V30 7426 H 685.362 -1.13098 6.41913 0
M  V30 7427 N 688.795 -1.27931 0.920396 0
M  V30 7428 C 689.742 -2.27085 0.412422 0
M  V30 7429 C 690.712 -1.57858 -0.516725 0
M  V30 7430 O 691.897 -1.85717 -0.437475 0
M  V30 7431 C 689.037 -3.43466 -0.335399 0
M  V30 7432 C 688.15 -4.27425 0.627017 0
M  V30 7433 C 687.285 -5.31016 -0.139916 0
M  V30 7434 C 686.324 -6.06641 0.815683 0
M  V30 7435 N 685.461 -7.02052 0.0818439 0
M  V30 7436 H 690.301 -2.69913 1.26298 0
M  V30 7437 H 687.838 -1.32732 0.634076 0
M  V30 7438 H 689.796 -4.09744 -0.785226 0
M  V30 7439 H 688.426 -3.01611 -1.15025 0
M  V30 7440 H 687.478 -3.6113 1.19537 0
M  V30 7441 H 688.79 -4.79969 1.35763 0
M  V30 7442 H 687.944 -6.03208 -0.649998 0
M  V30 7443 H 686.683 -4.79257 -0.903543 0
M  V30 7444 H 685.688 -5.33294 1.33708 0
M  V30 7445 H 686.913 -6.60489 1.57897 0
M  V30 7446 H 684.859 -6.52634 -0.663671 0
M  V30 7447 H 684.776 -7.52249 0.752163 0
M  V30 7448 H 686.044 -7.78432 -0.407825 0
M  V30 7449 N 690.273 -0.685099 -1.4193 0
M  V30 7450 C 691.203 -0.0273506 -2.33484 0
M  V30 7451 C 692.184 0.778366 -1.51246 0
M  V30 7452 O 693.369 0.733449 -1.79817 0
M  V30 7453 C 690.499 0.917272 -3.34968 0
M  V30 7454 C 689.453 0.21941 -4.27437 0
M  V30 7455 C 688.779 1.27768 -5.1921 0
M  V30 7456 C 690.079 -0.907894 -5.14349 0
M  V30 7457 H 691.773 -0.791994 -2.88735 0
M  V30 7458 H 689.319 -0.382308 -1.38832 0
M  V30 7459 H 691.272 1.38657 -3.97935 0
M  V30 7460 H 689.996 1.71346 -2.78043 0
M  V30 7461 H 688.655 -0.229757 -3.65879 0
M  V30 7462 H 688.303 2.06612 -4.58607 0
M  V30 7463 H 688.003 0.815803 -5.81909 0
M  V30 7464 H 689.527 1.7477 -5.85054 0
M  V30 7465 H 690.941 -0.519348 -5.70943 0
M  V30 7466 H 689.338 -1.2962 -5.85934 0
M  V30 7467 H 690.408 -1.75218 -4.52136 0
M  V30 7468 N 691.751 1.51645 -0.429126 0
M  V30 7469 C 692.997 2.02314 0.140286 0
M  V30 7470 C 693.33 1.31314 1.43074 0
M  V30 7471 O 692.605 0.425531 1.89788 0
M  V30 7472 C 692.888 3.5822 0.36749 0
M  V30 7473 C 692.741 4.39846 -0.941039 0
M  V30 7474 C 694.06 4.25055 1.14089 0
M  V30 7475 H 691.179 0.735335 0.0495112 0
M  V30 7476 H 693.821 1.81358 -0.566514 0
M  V30 7477 H 691.971 3.76207 0.969556 0
M  V30 7478 H 693.643 4.33527 -1.57646 0
M  V30 7479 H 691.886 4.05259 -1.54751 0
M  V30 7480 H 692.557 5.47069 -0.73621 0
M  V30 7481 H 695.033 4.11288 0.630986 0
M  V30 7482 H 693.909 5.34038 1.26863 0
M  V30 7483 H 694.17 3.85358 2.16683 0
M  V30 7484 N 693.229 0.160201 1.56784 0
M  V30 7485 C 694.477 -0.486625 1.96154 0
M  V30 7486 C 694.798 -1.64525 1.04673 0
M  V30 7487 O 694.068 -1.95586 0.110864 0
M  V30 7488 H 692.648 -0.182764 0.724297 0
M  V30 7489 H 695.31 0.238787 1.93432 0
M  V30 7490 H 694.406 -0.854025 3.00188 0
M  V30 7491 N 694.707 -1.5719 -0.113559 0
M  V30 7492 C 695.953 -1.85412 -0.821597 0
M  V30 7493 C 696.286 -0.746722 -1.7927 0
M  V30 7494 O 695.561 0.246971 -1.92926 0
M  V30 7495 C 695.844 -3.24233 -1.56669 0
M  V30 7496 C 695.697 -4.45578 -0.614823 0
M  V30 7497 C 697.016 -3.60697 -2.52161 0
M  V30 7498 H 694.135 -0.674406 -0.29723 0
M  V30 7499 H 696.777 -1.89807 -0.085694 0
M  V30 7500 H 694.927 -3.20617 -2.19401 0
M  V30 7501 H 696.599 -4.613 0.00407137 0
M  V30 7502 H 694.842 -4.33738 0.0732332 0
M  V30 7503 H 695.513 -5.39395 -1.17292 0
M  V30 7504 H 697.989 -3.65139 -1.99532 0
M  V30 7505 H 696.865 -4.58798 -3.01323 0
M  V30 7506 H 697.126 -2.88403 -3.35076 0
M  V30 7507 N 696.185 0.383891 -1.52853 0
M  V30 7508 C 697.115 1.47559 -1.80965 0
M  V30 7509 C 698.096 1.5669 -0.661986 0
M  V30 7510 O 699.281 1.71556 -0.910072 0
M  V30 7511 C 696.411 2.85114 -1.98312 0
M  V30 7512 C 695.365 2.9082 -3.14019 0
M  V30 7513 C 694.691 4.30873 -3.16627 0
M  V30 7514 C 695.991 2.60001 -4.52986 0
M  V30 7515 H 697.685 1.24283 -2.72386 0
M  V30 7516 H 695.231 0.596445 -1.31067 0
M  V30 7517 H 697.184 3.61496 -2.16561 0
M  V30 7518 H 695.908 3.09738 -1.03585 0
M  V30 7519 H 694.567 2.16886 -2.9556 0
M  V30 7520 H 694.215 4.52545 -2.19573 0
M  V30 7521 H 693.915 4.3561 -3.94357 0
M  V30 7522 H 695.439 5.09154 -3.37038 0
M  V30 7523 H 696.853 3.261 -4.71521 0
M  V30 7524 H 695.25 2.76081 -5.32822 0
M  V30 7525 H 696.32 1.5532 -4.59351 0
M  V30 7526 N 697.663 1.43903 0.642637 0
M  V30 7527 C 698.611 1.50164 1.77634 0
M  V30 7528 C 699.605 0.374294 1.65213 0
M  V30 7529 O 700.811 0.548748 1.71431 0
M  V30 7530 H 697.186 0.470974 0.586249 0
M  V30 7531 H 699.157 2.45603 1.69474 0
M  V30 7532 C 697.906 1.45196 3.15933 0
M  V30 7533 H 697.229 2.31253 3.26132 0
M  V30 7534 H 698.669 1.53638 3.95185 0
M  V30 7535 C 697.128 0.171043 3.36466 0
M  V30 7536 O 697.658 -0.763413 3.94379 0
M  V30 7537 N 695.864 0.077847 2.90496 0
M  V30 7538 H 695.411 0.8391 2.43551 0
M  V30 7539 H 695.369 -0.778473 3.0461 0
M  V30 7540 N 699.141 -0.881989 1.30609 0
M  V30 7541 C 700.387 -1.63649 1.20791 0
M  V30 7542 C 700.742 -1.90966 -0.234437 0
M  V30 7543 O 700.035 -1.52163 -1.16434 0
M  V30 7544 C 700.229 -2.97999 1.97311 0
M  V30 7545 C 700.058 -2.83798 3.48839 0
M  V30 7546 C 698.828 -2.83622 4.18195 0
M  V30 7547 C 701.026 -2.59529 4.44015 0
M  V30 7548 N 699.008 -2.60344 5.55962 0
M  V30 7549 C 700.379 -2.45401 5.69366 0
M  V30 7550 C 702.434 -2.44777 4.33576 0
M  V30 7551 C 701.137 -2.18023 6.85462 0
M  V30 7552 C 703.163 -2.18785 5.49443 0
M  V30 7553 C 702.525 -2.05436 6.73777 0
M  V30 7554 H 698.624 -0.603687 0.497077 0
M  V30 7555 H 701.208 -1.03908 1.64655 0
M  V30 7556 H 699.379 -3.55767 1.55834 0
M  V30 7557 H 701.111 -3.6266 1.79611 0
M  V30 7558 H 697.866 -2.95562 3.70054 0
M  V30 7559 H 698.29 -2.51709 6.28468 0
M  V30 7560 H 702.932 -2.53831 3.38126 0
M  V30 7561 H 700.65 -2.07707 7.8095 0
M  V30 7562 H 704.236 -2.08188 5.43276 0
M  V30 7563 H 703.116 -1.85605 7.61919 0
M  V30 7564 N 700.619 -1.13374 -1.09472 0
M  V30 7565 C 701.582 -0.813639 -2.14272 0
M  V30 7566 C 702.582 0.176677 -1.59826 0
M  V30 7567 O 703.772 -0.0503441 -1.74127 0
M  V30 7568 C 700.904 -0.210897 -3.40247 0
M  V30 7569 H 702.097 -1.74229 -2.44099 0
M  V30 7570 H 699.65 -0.938304 -1.25002 0
M  V30 7571 H 700.385 0.726998 -3.16046 0
M  V30 7572 H 700.17 -0.924048 -3.81056 0
M  V30 7573 H 701.66 -0.00377603 -4.176 0
M  V30 7574 N 702.098 1.27442 -0.927168 0
M  V30 7575 C 703.061 2.2512 -0.430525 0
M  V30 7576 C 704.061 1.54357 0.450619 0
M  V30 7577 O 705.251 1.72371 0.251774 0
M  V30 7578 C 702.383 3.38763 0.381144 0
M  V30 7579 H 703.576 2.70569 -1.29354 0
M  V30 7580 H 701.129 1.39355 -0.707806 0
M  V30 7581 H 701.864 2.98695 1.263 0
M  V30 7582 H 701.649 3.91298 -0.250618 0
M  V30 7583 H 703.139 4.11364 0.719012 0
M  V30 7584 N 703.576 0.692616 1.41565 0
M  V30 7585 C 704.508 -0.0137132 2.29196 0
M  V30 7586 C 705.521 -0.747417 1.44629 0
M  V30 7587 O 706.71 -0.598611 1.68163 0
M  V30 7588 C 703.81 -1.04347 3.22436 0
M  V30 7589 C 702.983 -0.379985 4.35746 0
M  V30 7590 C 702.042 -1.31195 5.09583 0
M  V30 7591 O 701.068 -0.805455 5.63472 0
M  V30 7592 N 702.27 -2.64443 5.16769 0
M  V30 7593 H 705.035 0.738614 2.90456 0
M  V30 7594 H 702.596 0.538415 1.52685 0
M  V30 7595 H 704.588 -1.6686 3.687 0
M  V30 7596 H 703.158 -1.69736 2.62504 0
M  V30 7597 H 702.378 0.424975 3.91903 0
M  V30 7598 H 703.666 0.0814904 5.08735 0
M  V30 7599 H 703.064 -3.08114 4.74428 0
M  V30 7600 H 701.621 -3.22159 5.66619 0
M  V30 7601 N 705.054 -1.51416 0.437162 0
M  V30 7602 C 706.303 -2.01275 -0.130865 0
M  V30 7603 C 706.616 -1.32593 -1.438 0
M  V30 7604 O 707.822 -1.7342 -2.08897 0
M  V30 7605 C 706.278 -3.5878 -0.283763 0
M  V30 7606 C 705.886 -4.36399 1.01293 0
M  V30 7607 C 707.63 -4.16786 -0.805569 0
M  V30 7608 C 705.537 -5.85608 0.825687 0
M  V30 7609 H 704.467 -0.752157 -0.0526818 0
M  V30 7610 H 707.118 -1.74524 0.566896 0
M  V30 7611 H 705.5 -3.81976 -1.04452 0
M  V30 7612 H 706.674 -4.24948 1.78201 0
M  V30 7613 H 704.989 -3.89843 1.46326 0
M  V30 7614 H 707.586 -5.25972 -0.962146 0
M  V30 7615 H 707.929 -3.75949 -1.78796 0
M  V30 7616 H 708.462 -3.97666 -0.103125 0
M  V30 7617 H 705.201 -6.30857 1.78045 0
M  V30 7618 H 704.721 -5.99723 0.0964029 0
M  V30 7619 H 706.4 -6.45226 0.478815 0
M  V30 7620 N 706.532 -0.168513 -1.56696 0
M  V30 7621 C 707.762 0.482802 -2.0088 0
M  V30 7622 C 708.17 1.57537 -1.0478 0
M  V30 7623 O 707.513 1.83656 -0.0402746 0
M  V30 7624 C 707.575 1.1236 -3.4149 0
M  V30 7625 C 707.239 0.173027 -4.56672 0
M  V30 7626 C 708.236 -0.607565 -5.16338 0
M  V30 7627 C 705.921 0.0696691 -5.02252 0
M  V30 7628 C 707.915 -1.47874 -6.2001 0
M  V30 7629 C 705.602 -0.805096 -6.05773 0
M  V30 7630 C 706.6 -1.57789 -6.64524 0
M  V30 7631 O 706.288 -2.43804 -7.66038 0
M  V30 7632 H 706.02 0.128246 -0.663723 0
M  V30 7633 H 708.574 -0.266532 -2.03663 0
M  V30 7634 H 706.804 1.921 -3.35611 0
M  V30 7635 H 708.493 1.67683 -3.69645 0
M  V30 7636 H 709.259 -0.53787 -4.82008 0
M  V30 7637 H 705.138 0.660957 -4.56237 0
M  V30 7638 H 708.682 -2.0824 -6.65794 0
M  V30 7639 H 704.579 -0.876005 -6.39528 0
M  V30 7640 H 705.347 -2.37289 -7.83349 0
M  V30 7641 N 708.01 1.57248 0.105221 0
M  V30 7642 C 709.421 1.74612 0.660865 0
M  V30 7643 C 709.772 0.789231 1.79626 0
M  V30 7644 O 708.897 -0.0346611 2.16372 0
M  V30 7645 C 709.492 3.16624 1.20559 0
M  V30 7646 C 708.051 3.35447 1.7074 0
M  V30 7647 C 707.198 2.70445 0.612764 0
M  V30 7648 H 710.149 1.5824 -0.12079 0
M  V30 7649 H 710.17 3.18937 2.07508 0
M  V30 7650 H 709.682 3.86245 0.379012 0
M  V30 7651 H 707.783 2.7089 2.5583 0
M  V30 7652 H 707.896 4.43702 1.80736 0
M  V30 7653 H 706.26 2.32061 1.04975 0
M  V30 7654 H 707.043 3.42699 -0.203066 0
M  V30 7655 N 709.488 -0.375779 1.53054 0
M  V30 7656 C 710.736 -1.11727 1.68409 0
M  V30 7657 C 711.057 -1.90127 0.43323 0
M  V30 7658 O 710.327 -1.87945 -0.552595 0
M  V30 7659 H 708.907 -0.415451 0.620813 0
M  V30 7660 H 711.569 -0.424869 1.90213 0
M  V30 7661 H 710.665 -1.8128 2.54055 0
M  V30 7662 N 710.966 -1.44241 -0.634997 0
M  V30 7663 C 712.215 -1.46102 -1.39058 0
M  V30 7664 C 712.528 -0.0959909 -1.95364 0
M  V30 7665 O 713.734 0.00788751 -2.71499 0
M  V30 7666 C 712.19 -2.57195 -2.51751 0
M  V30 7667 C 711.798 -3.99888 -2.01974 0
M  V30 7668 C 713.542 -2.68272 -3.28984 0
M  V30 7669 C 711.449 -5.02412 -3.11987 0
M  V30 7670 H 710.379 -0.543556 -0.522554 0
M  V30 7671 H 713.03 -1.70294 -0.683538 0
M  V30 7672 H 711.412 -2.26237 -3.25012 0
M  V30 7673 H 712.586 -4.40396 -1.35604 0
M  V30 7674 H 710.901 -3.93019 -1.37568 0
M  V30 7675 H 713.498 -3.42042 -4.10988 0
M  V30 7676 H 713.841 -1.73957 -3.78212 0
M  V30 7677 H 714.374 -2.98622 -2.62812 0
M  V30 7678 H 711.113 -5.98342 -2.67707 0
M  V30 7679 H 710.633 -4.66501 -3.77011 0
M  V30 7680 H 712.312 -5.25939 -3.76825 0
M  V30 7681 N 712.444 0.87505 -1.31075 0
M  V30 7682 C 713.391 1.98178 -1.18296 0
M  V30 7683 C 714.361 1.65952 -0.0699923 0
M  V30 7684 O 715.546 1.8926 -0.241951 0
M  V30 7685 C 712.686 3.33399 -0.891024 0
M  V30 7686 C 711.799 3.78253 -2.08684 0
M  V30 7687 C 710.934 5.02166 -1.73212 0
M  V30 7688 C 709.973 5.39455 -2.89231 0
M  V30 7689 N 709.11 6.54549 -2.53989 0
M  V30 7690 H 713.95 2.0844 -2.12971 0
M  V30 7691 H 711.487 1.02047 -1.05948 0
M  V30 7692 H 713.445 4.11246 -0.702338 0
M  V30 7693 H 712.075 3.22794 0.0188799 0
M  V30 7694 H 711.127 2.9623 -2.38646 0
M  V30 7695 H 712.439 4.01821 -2.95536 0
M  V30 7696 H 711.593 5.87666 -1.50777 0
M  V30 7697 H 710.332 4.80491 -0.83544 0
M  V30 7698 H 709.337 4.52477 -3.12321 0
M  V30 7699 H 710.562 5.63098 -3.79601 0
M  V30 7700 H 708.508 6.3443 -1.66838 0
M  V30 7701 H 708.425 6.78035 -3.34372 0
M  V30 7702 H 709.693 7.43254 -2.34934 0
M  V30 7703 N 713.922 1.13953 1.08869 0
M  V30 7704 C 715.15 0.92817 1.84912 0
M  V30 7705 C 715.565 -0.523197 1.81406 0
M  V30 7706 O 714.922 -1.36237 1.21432 0
M  V30 7707 C 714.973 1.41509 3.32652 0
M  V30 7708 O 714.694 2.80959 3.36145 0
M  V30 7709 C 716.195 1.243 4.25517 0
M  V30 7710 H 713.415 0.330612 0.583898 0
M  V30 7711 H 715.959 1.51349 1.37527 0
M  V30 7712 H 714.114 0.872648 3.77444 0
M  V30 7713 H 714.528 3.02704 4.28335 0
M  V30 7714 H 716.002 1.63237 5.27312 0
M  V30 7715 H 716.479 0.18532 4.38809 0
M  V30 7716 H 717.085 1.77375 3.86546 0
M  V30 7717 N 715.4 -1.26948 0.933913 0
M  V30 7718 C 716.347 -2.26635 0.436484 0
M  V30 7719 C 717.317 -1.58397 -0.499953 0
M  V30 7720 O 718.502 -1.86171 -0.417753 0
M  V30 7721 C 715.642 -3.43803 -0.298951 0
M  V30 7722 C 714.755 -4.26736 0.672316 0
M  V30 7723 C 713.89 -5.31134 -0.0835872 0
M  V30 7724 C 712.929 -6.05742 0.879979 0
M  V30 7725 N 712.066 -7.01926 0.156301 0
M  V30 7726 H 716.906 -2.68558 1.29154 0
M  V30 7727 H 714.443 -1.32052 0.648118 0
M  V30 7728 H 716.401 -4.10554 -0.741723 0
M  V30 7729 H 715.031 -3.02814 -1.1182 0
M  V30 7730 H 714.083 -3.59842 1.23361 0
M  V30 7731 H 715.395 -4.78502 1.40846 0
M  V30 7732 H 714.549 -6.03863 -0.585984 0
M  V30 7733 H 713.288 -4.80188 -0.852661 0
M  V30 7734 H 712.293 -5.31846 1.39357 0
M  V30 7735 H 713.518 -6.58777 1.64894 0
M  V30 7736 H 711.464 -6.53301 -0.594413 0
M  V30 7737 H 711.381 -7.51409 0.831906 0
M  V30 7738 H 712.649 -7.78821 -0.325239 0
M  V30 7739 N 716.879 -0.700114 -1.41195 0
M  V30 7740 C 717.829 -0.0144098 -2.27995 0
M  V30 7741 C 718.813 0.748249 -1.42443 0
M  V30 7742 O 720.005 0.622995 -1.65674 0
M  V30 7743 C 717.134 0.917938 -3.308 0
M  V30 7744 C 716.22 0.151286 -4.2383 0
M  V30 7745 N 716.611 -0.85732 -4.98481 0
M  V30 7746 C 714.909 0.386108 -4.44326 0
M  V30 7747 C 715.61 -1.31663 -5.66604 0
M  V30 7748 N 714.586 -0.641689 -5.39799 0
M  V30 7749 H 718.388 -0.787662 -2.83149 0
M  V30 7750 H 715.902 -0.531344 -1.53462 0
M  V30 7751 H 717.899 1.42437 -3.91813 0
M  V30 7752 H 716.559 1.69074 -2.77208 0
M  V30 7753 H 717.57 -1.2377 -5.02893 0
M  V30 7754 H 714.247 1.13644 -4.01735 0
M  V30 7755 H 715.637 -2.15384 -6.36443 0
M  V30 7756 N 718.357 1.51182 -0.445186 0
M  V30 7757 C 719.287 2.30821 0.352686 0
M  V30 7758 C 720.268 1.36576 1.01395 0
M  V30 7759 O 721.453 1.65497 1.01609 0
M  V30 7760 C 718.583 3.15593 1.44976 0
M  V30 7761 C 717.537 4.1818 0.911553 0
M  V30 7762 C 716.863 4.91523 2.10497 0
M  V30 7763 C 718.163 5.22266 -0.059418 0
M  V30 7764 H 719.857 2.97771 -0.311936 0
M  V30 7765 H 717.403 1.43201 -0.151461 0
M  V30 7766 H 719.356 3.70091 2.01521 0
M  V30 7767 H 718.08 2.4648 2.14278 0
M  V30 7768 H 716.739 3.64746 0.368264 0
M  V30 7769 H 716.387 4.18906 2.78437 0
M  V30 7770 H 716.087 5.60898 1.7512 0
M  V30 7771 H 717.611 5.48847 2.6758 0
M  V30 7772 H 719.025 5.71789 0.415985 0
M  V30 7773 H 717.422 5.99213 -0.326152 0
M  V30 7774 H 718.492 4.7461 -0.993631 0
M  V30 7775 N 719.835 0.176821 1.56605 0
M  V30 7776 C 721.075 -0.469104 1.98944 0
M  V30 7777 C 721.439 -1.60048 1.06059 0
M  V30 7778 O 722.64 -2.30934 1.3756 0
M  V30 7779 C 720.911 -0.934571 3.44965 0
M  V30 7780 S 722.47 -1.58091 4.09332 0
M  V30 7781 H 719.288 -0.150695 0.694847 0
M  V30 7782 H 721.89 0.27558 1.93548 0
M  V30 7783 H 720.594 -0.100814 4.10276 0
M  V30 7784 H 720.125 -1.71316 3.54139 0
M  V30 7785 H 722.14 -2.86922 4.04834 0
M  V30 7786 N 721.313 -1.57302 -0.09688 0
M  V30 7787 C 722.729 -1.53094 -0.451041 0
M  V30 7788 C 722.929 -0.893265 -1.80618 0
M  V30 7789 O 721.985 -0.485013 -2.47798 0
M  V30 7790 C 723.298 -2.9782 -0.415172 0
M  V30 7791 C 724.846 -3.09026 -0.497155 0
M  V30 7792 C 725.321 -4.55356 -0.491452 0
M  V30 7793 N 726.812 -4.59896 -0.552258 0
M  V30 7794 C 727.547 -5.70563 -0.569654 0
M  V30 7795 N 727.043 -6.90666 -0.543365 0
M  V30 7796 N 728.836 -5.58733 -0.614331 0
M  V30 7797 H 720.987 -1.97131 0.790771 0
M  V30 7798 H 723.25 -0.901211 0.294147 0
M  V30 7799 H 722.956 -3.47933 0.513362 0
M  V30 7800 H 722.83 -3.56416 -1.23481 0
M  V30 7801 H 725.217 -2.58902 -1.41611 0
M  V30 7802 H 725.298 -2.53386 0.35059 0
M  V30 7803 H 724.942 -5.06131 0.423549 0
M  V30 7804 H 724.872 -5.08832 -1.35639 0
M  V30 7805 H 727.363 -3.73456 -0.577842 0
M  V30 7806 H 727.676 -7.70769 -0.559873 0
M  V30 7807 H 726.021 -6.93123 -0.510441 0
M  V30 7808 H 729.212 -4.63809 -0.632387 0
M  V30 7809 H 729.385 -6.44984 -0.62442 0
M  V30 7810 N 722.791 0.367657 -1.53252 0
M  V30 7811 C 723.721 1.45632 -1.8252 0
M  V30 7812 C 724.702 1.55979 -0.678568 0
M  V30 7813 O 725.887 1.70581 -0.928217 0
M  V30 7814 C 723.017 2.82994 -2.01325 0
M  V30 7815 C 721.971 2.87473 -3.17086 0
M  V30 7816 C 721.297 4.2749 -3.21179 0
M  V30 7817 C 722.597 2.55182 -4.55719 0
M  V30 7818 H 724.291 1.21387 -2.73689 0
M  V30 7819 H 721.837 0.58251 -1.31692 0
M  V30 7820 H 723.79 3.59179 -2.20383 0
M  V30 7821 H 722.514 3.08622 -1.06864 0
M  V30 7822 H 721.173 2.13739 -2.97844 0
M  V30 7823 H 720.821 4.5019 -2.24361 0
M  V30 7824 H 720.521 4.31403 -3.98955 0
M  V30 7825 H 722.045 5.0555 -3.42419 0
M  V30 7826 H 723.459 3.21081 -4.74953 0
M  V30 7827 H 721.856 2.70414 -5.3572 0
M  V30 7828 H 722.926 1.5044 -4.60973 0
M  V30 7829 N 724.269 1.44576 0.627338 0
M  V30 7830 C 725.518 1.46837 1.38281 0
M  V30 7831 C 725.831 0.10635 1.95311 0
M  V30 7832 O 727.037 0.00651084 2.71499 0
M  V30 7833 C 725.493 2.58527 2.50384 0
M  V30 7834 C 725.101 4.00953 1.99851 0
M  V30 7835 C 726.845 2.70013 3.27557 0
M  V30 7836 C 724.752 5.0406 3.09318 0
M  V30 7837 H 723.682 0.546319 0.519664 0
M  V30 7838 H 726.333 1.70654 0.674497 0
M  V30 7839 H 724.715 2.27957 3.23808 0
M  V30 7840 H 725.889 4.41108 1.33267 0
M  V30 7841 H 724.204 3.93743 1.35482 0
M  V30 7842 H 726.801 3.44217 4.09168 0
M  V30 7843 H 727.144 1.75961 3.77284 0
M  V30 7844 H 727.677 3.00011 2.61224 0
M  V30 7845 H 724.416 5.99753 2.6453 0
M  V30 7846 H 723.936 4.68493 3.74532 0
M  V30 7847 H 725.615 5.2793 3.74031 0
M  V30 7848 N 725.747 -0.868086 1.31537 0
M  V30 7849 C 727.163 -1.15414 1.10235 0
M  V30 7850 C 727.363 -2.01106 -0.125947 0
M  V30 7851 O 726.419 -2.38994 -0.814734 0
M  V30 7852 C 727.732 -1.84445 2.37488 0
M  V30 7853 C 729.28 -1.97139 2.43116 0
M  V30 7854 C 729.755 -2.69585 3.70254 0
M  V30 7855 N 731.246 -2.77119 3.71159 0
M  V30 7856 C 731.981 -3.33791 4.6623 0
M  V30 7857 N 731.477 -3.9138 5.71659 0
M  V30 7858 N 733.27 -3.31767 4.53747 0
M  V30 7859 H 725.421 -0.297109 2.10312 0
M  V30 7860 H 727.684 -0.194227 0.92789 0
M  V30 7861 H 727.39 -1.2893 3.27215 0
M  V30 7862 H 727.264 -2.84709 2.47428 0
M  V30 7863 H 729.651 -2.51818 1.53856 0
M  V30 7864 H 729.732 -0.95912 2.37138 0
M  V30 7865 H 729.376 -2.15572 4.59881 0
M  V30 7866 H 729.306 -3.71223 3.73499 0
M  V30 7867 H 731.797 -2.3625 2.94948 0
M  V30 7868 H 732.11 -4.3274 6.40278 0
M  V30 7869 H 730.455 -3.8975 5.7543 0
M  V30 7870 H 733.646 -2.86016 3.70557 0
M  V30 7871 H 733.819 -3.75636 5.28017 0
M  V30 7872 N 727.225 -1.14528 -1.08264 0
M  V30 7873 C 728.473 -0.912599 -1.80322 0
M  V30 7874 C 728.794 0.562256 -1.86718 0
M  V30 7875 O 728.064 1.40869 -1.36135 0
M  V30 7876 H 726.644 -0.334645 -0.667849 0
M  V30 7877 H 729.306 -1.44415 -1.30883 0
M  V30 7878 H 728.402 -1.31384 -2.83098 0
M  V30 7879 N 728.703 1.26451 -0.940633 0
M  V30 7880 C 729.65 2.264 -0.448497 0
M  V30 7881 C 730.62 1.5866 0.491546 0
M  V30 7882 O 731.805 1.86389 0.407874 0
M  V30 7883 C 728.945 3.43956 0.280715 0
M  V30 7884 C 728.058 4.26374 -0.694937 0
M  V30 7885 C 727.193 5.31171 0.0554186 0
M  V30 7886 C 726.232 6.05266 -0.912091 0
M  V30 7887 N 725.369 7.01833 -0.193524 0
M  V30 7888 H 730.209 2.67869 -1.30576 0
M  V30 7889 H 727.746 1.31707 -0.655112 0
M  V30 7890 H 729.704 4.10941 0.71994 0
M  V30 7891 H 728.334 3.03403 1.10212 0
M  V30 7892 H 727.386 3.59183 -1.25267 0
M  V30 7893 H 728.698 4.77748 -1.43382 0
M  V30 7894 H 727.852 6.04166 0.553951 0
M  V30 7895 H 726.591 4.80634 0.827183 0
M  V30 7896 H 725.596 5.31099 -1.42175 0
M  V30 7897 H 726.821 6.57893 -1.68385 0
M  V30 7898 H 724.767 6.53607 0.559758 0
M  V30 7899 H 724.684 7.50957 -0.871744 0
M  V30 7900 H 725.952 7.78983 0.283932 0
M  V30 7901 N 730.181 0.707592 1.40822 0
M  V30 7902 C 731.114 -0.000859377 2.282 0
M  V30 7903 C 732.092 -0.7758 1.42899 0
M  V30 7904 O 733.276 -0.76411 1.72318 0
M  V30 7905 C 730.403 -1.00861 3.23334 0
M  V30 7906 C 729.449 -0.32543 4.25257 0
M  V30 7907 S 730.282 0.940908 5.27169 0
M  V30 7908 C 731.438 -0.0649459 6.25866 0
M  V30 7909 H 731.671 0.740207 2.87938 0
M  V30 7910 H 729.204 0.498311 1.46138 0
M  V30 7911 H 731.162 -1.58485 3.78672 0
M  V30 7912 H 729.823 -1.72233 2.62668 0
M  V30 7913 H 729.016 -1.08697 4.92139 0
M  V30 7914 H 728.618 0.178044 3.73576 0
M  V30 7915 H 730.91 -0.914377 6.71301 0
M  V30 7916 H 731.853 0.570276 7.058 0
M  V30 7917 H 732.261 -0.425098 5.62897 0
M  V30 7918 N 731.66 -1.50943 0.453197 0
M  V30 7919 C 732.888 -2.06628 -0.106135 0
M  V30 7920 C 733.303 -1.31901 -1.35084 0
M  V30 7921 O 732.66 -0.383074 -1.78434 0
M  V30 7922 C 732.711 -3.5914 -0.412368 0
M  V30 7923 O 732.432 -4.31047 0.782948 0
M  V30 7924 C 733.933 -4.31391 -1.02064 0
M  V30 7925 H 731.153 -0.670999 -0.000885896 0
M  V30 7926 H 733.697 -1.94331 0.63684 0
M  V30 7927 H 731.852 -3.71299 -1.10526 0
M  V30 7928 H 732.266 -5.21948 0.516736 0
M  V30 7929 H 733.74 -5.39135 -1.1848 0
M  V30 7930 H 734.217 -3.90714 -2.00598 0
M  V30 7931 H 734.823 -4.23716 -0.366664 0
M  V30 7932 N 733.138 -0.185124 -1.56509 0
M  V30 7933 C 734.068 0.735098 -2.21627 0
M  V30 7934 C 735.049 1.2288 -1.1762 0
M  V30 7935 O 736.234 1.27945 -1.46095 0
M  V30 7936 C 733.364 1.95889 -2.86783 0
M  V30 7937 C 732.318 1.6005 -3.96948 0
M  V30 7938 C 731.644 2.90009 -4.4922 0
M  V30 7939 C 732.944 0.818008 -5.15855 0
M  V30 7940 H 734.638 0.192274 -2.98782 0
M  V30 7941 H 732.184 0.0910393 -1.43712 0
M  V30 7942 H 734.137 2.60779 -3.31017 0
M  V30 7943 H 732.861 2.52608 -2.07018 0
M  V30 7944 H 731.52 0.975237 -3.5339 0
M  V30 7945 H 731.168 3.44797 -3.6623 0
M  V30 7946 H 730.868 2.66778 -5.23549 0
M  V30 7947 H 732.392 3.55904 -4.9615 0
M  V30 7948 H 733.806 1.36979 -5.56695 0
M  V30 7949 H 732.203 0.684207 -5.96187 0
M  V30 7950 H 733.273 -0.182939 -4.84555 0
M  V30 7951 N 734.616 1.57351 0.0885366 0
M  V30 7952 C 735.844 1.90631 0.804196 0
M  V30 7953 C 736.259 0.779474 1.71958 0
M  V30 7954 O 735.616 -0.248179 1.80805 0
M  V30 7955 C 735.667 3.23568 1.61202 0
M  V30 7956 O 735.388 4.31917 0.733447 0
M  V30 7957 C 736.889 3.70753 2.43016 0
M  V30 7958 H 734.109 0.630501 0.229585 0
M  V30 7959 H 736.653 2.044 0.0638092 0
M  V30 7960 H 734.808 3.11377 2.30485 0
M  V30 7961 H 735.222 5.08297 1.29361 0
M  V30 7962 H 736.696 4.66447 2.9518 0
M  V30 7963 H 737.173 2.98922 3.2178 0
M  V30 7964 H 737.779 3.85834 1.7892 0
M  V30 7965 N 736.094 -0.359525 1.53444 0
M  V30 7966 C 737.004 -1.46445 1.83278 0
M  V30 7967 C 738.02 -1.5833 0.721629 0
M  V30 7968 O 739.196 -1.7411 1.01231 0
M  V30 7969 C 736.261 -2.81638 2.02191 0
M  V30 7970 C 735.322 -2.7923 3.26082 0
M  V30 7971 C 734.555 -4.07974 3.44082 0
M  V30 7972 O 734.778 -5.04447 2.66251 0
M  V30 7973 O 733.712 -4.13417 4.37458 0
M  V30 7974 H 737.538 -1.24156 2.77162 0
M  V30 7975 H 735.123 -0.550201 1.389 0
M  V30 7976 H 737.005 -3.61732 2.16167 0
M  V30 7977 H 735.68 -3.03892 1.11496 0
M  V30 7978 H 734.587 -1.97813 3.17523 0
M  V30 7979 H 735.92 -2.6193 4.16718 0
M  V30 7980 N 737.572 -1.44907 -0.619662 0
M  V30 7981 C 738.482 -1.55168 -1.75955 0
M  V30 7982 C 739.498 -0.43672 -1.6843 0
M  V30 7983 O 740.674 -0.695704 -1.89002 0
M  V30 7984 C 737.739 -1.50397 -3.12381 0
M  V30 7985 C 736.8 -2.72835 -3.31451 0
M  V30 7986 C 736.033 -2.68283 -4.61368 0
M  V30 7987 O 736.256 -1.74929 -5.42914 0
M  V30 7988 O 735.19 -3.59308 -4.82889 0
M  V30 7989 H 739.016 -2.51493 -1.7025 0
M  V30 7990 H 736.601 -1.27282 -0.782289 0
M  V30 7991 H 738.483 -1.50301 -3.93685 0
M  V30 7992 H 737.158 -0.572197 -3.18603 0
M  V30 7993 H 736.065 -2.78496 -2.49781 0
M  V30 7994 H 737.398 -3.65098 -3.30098 0
M  V30 7995 N 739.05 0.861098 -1.31996 0
M  V30 7996 C 740.296 1.61721 -1.22369 0
M  V30 7997 C 740.629 1.93 0.215587 0
M  V30 7998 O 739.904 1.56789 1.15098 0
M  V30 7999 C 740.187 2.9417 -2.07691 0
M  V30 8000 C 740.04 2.69714 -3.59965 0
M  V30 8001 C 741.359 3.95372 -1.93312 0
M  V30 8002 H 738.478 0.586822 -0.44588 0
M  V30 8003 H 741.12 0.994788 -1.61876 0
M  V30 8004 H 739.27 3.47292 -1.74128 0
M  V30 8005 H 740.942 2.23196 -4.03709 0
M  V30 8006 H 739.185 2.03789 -3.82952 0
M  V30 8007 H 739.856 3.63996 -4.14983 0
M  V30 8008 H 742.332 3.51487 -2.22701 0
M  V30 8009 H 741.208 4.85916 -2.55298 0
M  V30 8010 H 741.469 4.32865 -0.898922 0
M  V30 8011 N 740.528 1.15101 1.07655 0
M  V30 8012 C 741.46 0.802722 2.14684 0
M  V30 8013 C 742.473 -0.183874 1.61758 0
M  V30 8014 O 743.662 0.0389349 1.78458 0
M  V30 8015 C 740.762 0.172135 3.38463 0
M  V30 8016 C 739.935 1.19538 4.20749 0
M  V30 8017 C 738.994 0.58714 5.22914 0
M  V30 8018 O 738.02 1.25224 5.55255 0
M  V30 8019 N 739.222 -0.632566 5.77043 0
M  V30 8020 H 741.987 1.72379 2.45164 0
M  V30 8021 H 739.548 1.04647 1.23534 0
M  V30 8022 H 741.54 -0.247465 4.03943 0
M  V30 8023 H 740.11 -0.652214 3.0572 0
M  V30 8024 H 739.33 1.79165 3.51132 0
M  V30 8025 H 740.618 1.88636 4.7254 0
M  V30 8026 H 740.016 -1.19135 5.53013 0
M  V30 8027 H 738.573 -0.994566 6.44167 0
M  V30 8028 N 742.006 -1.2595 0.947325 0
M  V30 8029 C 743.252 -1.94081 0.608604 0
M  V30 8030 C 743.607 -1.72899 -0.844021 0
M  V30 8031 O 742.9 -1.05908 -1.59669 0
M  V30 8032 C 743.094 -3.46034 0.894158 0
M  V30 8033 C 742.923 -3.81994 2.37299 0
M  V30 8034 C 741.693 -4.04431 3.02925 0
M  V30 8035 C 743.891 -3.90069 3.35188 0
M  V30 8036 N 741.873 -4.27325 4.40757 0
M  V30 8037 C 743.244 -4.17567 4.58299 0
M  V30 8038 C 745.299 -3.72721 3.30127 0
M  V30 8039 C 744.002 -4.2952 5.76979 0
M  V30 8040 C 746.028 -3.8591 4.48138 0
M  V30 8041 C 745.39 -4.13812 5.70034 0
M  V30 8042 H 741.489 -0.73273 0.273187 0
M  V30 8043 H 744.073 -1.51898 1.218 0
M  V30 8044 H 742.244 -3.87131 0.313758 0
M  V30 8045 H 743.976 -4.01396 0.516082 0
M  V30 8046 H 740.731 -4.0003 2.53521 0
M  V30 8047 H 741.155 -4.42792 5.12118 0
M  V30 8048 H 745.797 -3.50172 2.36938 0
M  V30 8049 H 743.515 -4.50888 6.70616 0
M  V30 8050 H 747.101 -3.73882 4.45762 0
M  V30 8051 H 745.981 -4.23791 6.59827 0
M  V30 8052 N 743.484 -0.715051 -1.40445 0
M  V30 8053 C 744.712 -0.263959 -2.05209 0
M  V30 8054 C 745.127 1.09403 -1.53871 0
M  V30 8055 O 744.484 1.68746 -0.695064 0
M  V30 8056 C 744.535 -0.234545 -3.60738 0
M  V30 8057 O 744.256 -1.53891 -4.10182 0
M  V30 8058 C 745.757 0.235164 -4.42676 0
M  V30 8059 H 742.977 -0.11876 -0.660407 0
M  V30 8060 H 745.521 -0.973107 -1.79864 0
M  V30 8061 H 743.676 0.425563 -3.85055 0
M  V30 8062 H 744.09 -1.43903 -5.04373 0
M  V30 8063 H 745.564 0.204598 -5.51621 0
M  V30 8064 H 746.041 1.27724 -4.20218 0
M  V30 8065 H 746.647 -0.394649 -4.23465 0
M  V30 8066 N 744.962 1.50701 -0.461195 0
M  V30 8067 C 745.872 2.32069 0.343661 0
M  V30 8068 C 746.888 1.42016 1.00535 0
M  V30 8069 O 748.064 1.75077 0.995498 0
M  V30 8070 C 745.129 3.16424 1.41692 0
M  V30 8071 C 744.19 4.22286 0.772869 0
M  V30 8072 C 743.423 5.02609 1.79499 0
M  V30 8073 O 743.646 4.83874 3.0203 0
M  V30 8074 O 742.58 5.86047 1.3723 0
M  V30 8075 H 746.406 3.01996 -0.321268 0
M  V30 8076 H 743.991 1.47723 -0.223235 0
M  V30 8077 H 745.873 3.68795 2.03883 0
M  V30 8078 H 744.548 2.49236 2.0655 0
M  V30 8079 H 743.455 3.73931 0.112277 0
M  V30 8080 H 744.788 4.91915 0.167399 0
M  V30 8081 N 746.441 0.193421 1.56409 0
M  V30 8082 C 747.374 -0.767384 2.1491 0
M  V30 8083 C 748.352 -1.21075 1.08534 0
M  V30 8084 O 749.536 -1.29856 1.36637 0
M  V30 8085 C 746.663 -2.03615 2.70663 0
M  V30 8086 C 745.709 -1.73505 3.89613 0
M  V30 8087 S 746.542 -0.884645 5.28142 0
M  V30 8088 C 747.698 -2.1636 5.87315 0
M  V30 8089 H 747.931 -0.270053 2.96071 0
M  V30 8090 H 745.464 -0.0215546 1.54385 0
M  V30 8091 H 747.422 -2.7648 3.03429 0
M  V30 8092 H 746.083 -2.50461 1.89547 0
M  V30 8093 H 745.276 -2.67701 4.27027 0
M  V30 8094 H 744.878 -1.08723 3.57848 0
M  V30 8095 H 747.17 -3.11629 6.01576 0
M  V30 8096 H 748.113 -1.8338 6.83943 0
M  V30 8097 H 748.521 -2.29129 5.15907 0
M  V30 8098 N 747.919 -1.57396 -0.0801906 0
M  V30 8099 C 748.882 -2.02133 -1.0805 0
M  V30 8100 C 749.882 -0.91707 -1.32085 0
M  V30 8101 O 751.072 -1.18217 -1.27947 0
M  V30 8102 C 748.204 -2.39479 -2.42616 0
M  V30 8103 H 749.397 -2.91733 -0.6951 0
M  V30 8104 H 746.95 -1.52869 -0.325677 0
M  V30 8105 H 747.685 -1.52879 -2.86004 0
M  V30 8106 H 747.47 -3.20052 -2.26515 0
M  V30 8107 H 748.96 -2.74697 -3.14534 0
M  V30 8108 N 749.397 0.351382 -1.53633 0
M  V30 8109 C 750.307 1.45471 -1.84052 0
M  V30 8110 C 751.323 1.57945 -0.730015 0
M  V30 8111 O 752.499 1.73571 -1.02153 0
M  V30 8112 C 749.564 2.80562 -2.03681 0
M  V30 8113 C 748.625 2.77497 -3.27558 0
M  V30 8114 C 747.858 4.06144 -3.46241 0
M  V30 8115 O 748.081 5.03028 -2.68922 0
M  V30 8116 O 747.015 4.11092 -4.39645 0
M  V30 8117 H 750.841 1.22684 -2.77817 0
M  V30 8118 H 748.426 0.542827 -1.3919 0
M  V30 8119 H 750.308 3.6058 -2.18082 0
M  V30 8120 H 748.983 3.03296 -1.13106 0
M  V30 8121 H 747.89 1.96126 -3.18568 0
M  V30 8122 H 749.223 2.59716 -4.18101 0
M  V30 8123 N 750.875 1.45233 0.611969 0
M  V30 8124 C 751.838 1.53189 1.70487 0
M  V30 8125 C 752.838 0.411839 1.55437 0
M  V30 8126 O 754.028 0.675164 1.60584 0
M  V30 8127 C 751.16 1.42422 3.09723 0
M  V30 8128 H 752.353 2.5056 1.64802 0
M  V30 8129 H 749.906 1.32609 0.827318 0
M  V30 8130 H 750.641 0.462185 3.2099 0
M  V30 8131 H 750.426 2.23658 3.22055 0
M  V30 8132 H 751.916 1.51012 3.89339 0
M  V30 8133 N 752.353 -0.854086 1.3245 0
M  V30 8134 C 753.263 -1.99503 1.23434 0
M  V30 8135 C 754.279 -1.73371 0.147828 0
M  V30 8136 O 755.455 -1.97998 0.368609 0
M  V30 8137 C 752.52 -3.33192 0.958328 0
M  V30 8138 C 751.581 -3.72542 2.13333 0
M  V30 8139 C 750.814 -4.99852 1.8704 0
M  V30 8140 O 751.037 -5.64573 0.813239 0
M  V30 8141 O 749.971 -5.36345 2.73161 0
M  V30 8142 H 753.797 -2.10046 2.1935 0
M  V30 8143 H 751.382 -0.984823 1.12346 0
M  V30 8144 H 753.264 -4.13327 0.820918 0
M  V30 8145 H 751.939 -3.23687 0.0293299 0
M  V30 8146 H 750.846 -2.92981 2.32622 0
M  V30 8147 H 752.179 -3.86694 3.04514 0
M  V30 8148 N 753.831 -1.1567 -1.07043 0
M  V30 8149 C 755.061 -0.956083 -1.83146 0
M  V30 8150 C 755.469 0.498969 -1.82502 0
M  V30 8151 O 754.812 1.35791 -1.23719 0
M  V30 8152 C 754.874 -1.39704 -3.31245 0
M  V30 8153 C 754.538 -2.87045 -3.55604 0
M  V30 8154 C 755.535 -3.85092 -3.49285 0
M  V30 8155 C 753.22 -3.24787 -3.8317 0
M  V30 8156 C 755.214 -5.18885 -3.70185 0
M  V30 8157 C 752.901 -4.58751 -4.03721 0
M  V30 8158 C 753.899 -5.55609 -3.97224 0
M  V30 8159 O 753.587 -6.87154 -4.17223 0
M  V30 8160 H 753.319 -0.339473 -0.58458 0
M  V30 8161 H 755.873 -1.53922 -1.36005 0
M  V30 8162 H 754.103 -0.757326 -3.79212 0
M  V30 8163 H 755.792 -1.16503 -3.88821 0
M  V30 8164 H 756.558 -3.5728 -3.27988 0
M  V30 8165 H 752.437 -2.49979 -3.87339 0
M  V30 8166 H 755.981 -5.94473 -3.6503 0
M  V30 8167 H 751.878 -4.86277 -4.24505 0
M  V30 8168 H 752.646 -6.93618 -4.34553 0
M  V30 8169 N 755.309 1.25446 -0.953992 0
M  V30 8170 C 756.219 2.29632 -0.480264 0
M  V30 8171 C 757.235 1.68025 0.452071 0
M  V30 8172 O 758.411 1.98703 0.328472 0
M  V30 8173 C 755.476 3.45903 0.234974 0
M  V30 8174 C 754.537 4.22953 -0.735495 0
M  V30 8175 C 753.77 5.33672 -0.0542957 0
M  V30 8176 O 753.993 5.58477 1.16018 0
M  V30 8177 O 752.927 5.9734 -0.739509 0
M  V30 8178 H 756.753 2.72242 -1.34602 0
M  V30 8179 H 754.338 1.30883 -0.720419 0
M  V30 8180 H 756.22 4.16552 0.637341 0
M  V30 8181 H 754.895 3.05296 1.07592 0
M  V30 8182 H 753.802 3.54734 -1.18806 0
M  V30 8183 H 755.135 4.67341 -1.54444 0
M  V30 8184 N 756.787 0.722489 1.40064 0
M  V30 8185 C 757.697 0.0755984 2.34478 0
M  V30 8186 C 758.713 -0.736046 1.57665 0
M  V30 8187 O 759.889 -0.667407 1.9002 0
M  V30 8188 C 756.954 -0.830075 3.36616 0
M  V30 8189 C 756.015 -0.00759884 4.29299 0
M  V30 8190 C 755.248 -0.870139 5.26559 0
M  V30 8191 O 755.471 -2.10921 5.2997 0
M  V30 8192 O 754.405 -0.305454 6.01124 0
M  V30 8193 H 758.231 0.854545 2.9143 0
M  V30 8194 H 755.816 0.483032 1.41376 0
M  V30 8195 H 757.698 -1.34864 3.99236 0
M  V30 8196 H 756.373 -1.58805 2.82069 0
M  V30 8197 H 755.28 0.556199 3.69942 0
M  V30 8198 H 756.613 0.712312 4.87018 0
M  V30 8199 N 758.265 -1.50454 0.469181 0
M  V30 8200 C 759.213 -2.30101 -0.340033 0
M  V30 8201 C 760.207 -1.37306 -0.992135 0
M  V30 8202 O 761.413 -1.54506 -0.923458 0
M  V30 8203 H 757.788 -0.740941 -0.128495 0
M  V30 8204 H 759.759 -2.96315 0.352144 0
M  V30 8205 C 758.508 -3.17804 -1.41052 0
M  V30 8206 H 757.831 -3.89115 -0.918124 0
M  V30 8207 H 759.271 -3.76533 -1.94934 0
M  V30 8208 C 757.73 -2.35272 -2.4114 0
M  V30 8209 O 758.26 -2.03448 -3.4637 0
M  V30 8210 N 756.466 -1.97889 -2.1281 0
M  V30 8211 H 756.013 -2.2397 -1.27261 0
M  V30 8212 H 755.971 -1.42971 -2.80012 0
M  V30 8213 N 759.743 -0.201713 -1.56304 0
M  V30 8214 C 760.69 0.716499 -2.19397 0
M  V30 8215 C 761.66 1.20494 -1.14326 0
M  V30 8216 O 762.845 1.26763 -1.42604 0
M  V30 8217 C 759.985 1.92762 -2.86246 0
M  V30 8218 C 759.098 1.47993 -4.0586 0
M  V30 8219 C 758.233 2.64706 -4.60547 0
M  V30 8220 C 757.272 2.16576 -5.72504 0
M  V30 8221 N 756.409 3.26491 -6.21569 0
M  V30 8222 H 761.249 0.171724 -2.97505 0
M  V30 8223 H 758.786 0.073016 -1.46919 0
M  V30 8224 H 760.744 2.6384 -3.23178 0
M  V30 8225 H 759.374 2.44559 -2.10691 0
M  V30 8226 H 758.426 0.66477 -3.74546 0
M  V30 8227 H 759.738 1.08686 -4.86815 0
M  V30 8228 H 758.892 3.43898 -4.99819 0
M  V30 8229 H 757.631 3.0729 -3.78713 0
M  V30 8230 H 756.636 1.3584 -5.32755 0
M  V30 8231 H 757.861 1.75015 -6.56161 0
M  V30 8232 H 755.807 3.68594 -5.42655 0
M  V30 8233 H 755.724 2.91374 -6.97594 0
M  V30 8234 H 756.992 4.05877 -6.65495 0
M  V30 8235 N 761.222 1.57436 0.0718424 0
M  V30 8236 C 762.471 1.86431 0.769826 0
M  V30 8237 C 762.784 0.794355 1.78744 0
M  V30 8238 O 763.99 0.972148 2.53499 0
M  V30 8239 C 762.446 3.307 1.42006 0
M  V30 8240 C 762.054 4.45824 0.441017 0
M  V30 8241 C 763.798 3.68894 2.10041 0
M  V30 8242 C 761.705 5.81134 1.09717 0
M  V30 8243 H 760.635 0.695474 0.291259 0
M  V30 8244 H 763.286 1.83485 0.0231224 0
M  V30 8245 H 761.668 3.28257 2.21502 0
M  V30 8246 H 762.842 4.59659 -0.32413 0
M  V30 8247 H 761.157 4.16181 -0.134886 0
M  V30 8248 H 763.754 4.67281 2.59908 0
M  V30 8249 H 764.097 2.98692 2.89981 0
M  V30 8250 H 764.63 3.73326 1.37376 0
M  V30 8251 H 761.369 6.54628 0.338095 0
M  V30 8252 H 760.889 5.711 1.83317 0
M  V30 8253 H 762.568 6.26468 1.617 0
M  V30 8254 N 762.7 -0.34323 1.53817 0
M  V30 8255 C 763.949 -1.08086 1.70295 0
M  V30 8256 C 764.262 -1.89794 0.47302 0
M  V30 8257 O 765.468 -2.66498 0.518754 0
M  V30 8258 C 763.924 -1.97097 3.01133 0
M  V30 8259 C 763.532 -1.20594 4.31464 0
M  V30 8260 C 765.276 -2.70715 3.26976 0
M  V30 8261 C 763.183 -2.08636 5.53376 0
M  V30 8262 H 762.113 -0.407228 0.634572 0
M  V30 8263 H 764.764 -0.340328 1.80316 0
M  V30 8264 H 763.146 -2.74971 2.84969 0
M  V30 8265 H 764.32 -0.476282 4.58332 0
M  V30 8266 H 762.635 -0.587426 4.12236 0
M  V30 8267 H 765.232 -3.36857 4.15248 0
M  V30 8268 H 765.575 -3.37299 2.43998 0
M  V30 8269 H 766.108 -1.99914 3.43917 0
M  V30 8270 H 762.847 -1.46594 6.38898 0
M  V30 8271 H 762.367 -2.7939 5.30755 0
M  V30 8272 H 764.046 -2.67682 5.89029 0
M  V30 8273 N 764.178 -1.45556 -0.604258 0
M  V30 8274 C 765.108 -1.57327 -1.72541 0
M  V30 8275 C 766.089 -0.424637 -1.64714 0
M  V30 8276 O 767.274 -0.648196 -1.83063 0
M  V30 8277 C 764.404 -1.54279 -3.11152 0
M  V30 8278 C 763.358 -2.67893 -3.33792 0
M  V30 8279 C 762.684 -2.499 -4.72709 0
M  V30 8280 C 763.984 -4.0988 -3.23722 0
M  V30 8281 H 765.678 -2.51175 -1.62947 0
M  V30 8282 H 763.224 -1.20884 -0.782504 0
M  V30 8283 H 765.177 -1.6111 -3.89386 0
M  V30 8284 H 763.901 -0.569627 -3.21594 0
M  V30 8285 H 762.56 -2.60495 -2.57949 0
M  V30 8286 H 762.208 -1.50715 -4.79889 0
M  V30 8287 H 761.908 -3.26091 -4.88813 0
M  V30 8288 H 763.432 -2.5859 -5.5314 0
M  V30 8289 H 764.846 -4.18503 -3.91826 0
M  V30 8290 H 763.243 -4.86487 -3.51355 0
M  V30 8291 H 764.313 -4.31553 -2.21111 0
M  V30 8292 N 765.656 0.84705 -1.32902 0
M  V30 8293 C 766.881 1.63925 -1.27056 0
M  V30 8294 C 767.306 1.87443 0.157136 0
M  V30 8295 O 766.664 1.43266 1.11106 0
M  V30 8296 C 766.712 2.97134 -2.04313 0
M  V30 8297 O 765.816 3.88049 -1.39614 0
M  V30 8298 H 765.157 0.499477 -0.437514 0
M  V30 8299 H 767.687 1.05443 -1.75336 0
M  V30 8300 H 767.697 3.46896 -2.14772 0
M  V30 8301 H 766.372 2.79339 -3.08128 0
M  V30 8302 H 764.949 3.46525 -1.3775 0
M  V30 8303 N 767.134 1.16236 1.06428 0
M  V30 8304 C 768.066 0.825446 2.1382 0
M  V30 8305 C 769.079 -0.166707 1.61944 0
M  V30 8306 O 770.268 0.0578606 1.78406 0
M  V30 8307 C 767.368 0.208023 3.38261 0
M  V30 8308 C 766.541 1.23994 4.19457 0
M  V30 8309 C 765.6 0.642569 5.22262 0
M  V30 8310 O 764.626 1.31106 5.53895 0
M  V30 8311 N 765.828 -0.571327 5.77682 0
M  V30 8312 H 768.593 1.7497 2.43322 0
M  V30 8313 H 766.154 1.05951 1.22417 0
M  V30 8314 H 768.146 -0.204608 4.04182 0
M  V30 8315 H 766.716 -0.619752 3.06395 0
M  V30 8316 H 765.936 1.82879 3.49212 0
M  V30 8317 H 767.224 1.93638 4.70512 0
M  V30 8318 H 766.622 -1.13263 5.54245 0
M  V30 8319 H 765.179 -0.926187 6.45186 0
M  V30 8320 N 768.612 -1.24939 0.960631 0
M  V30 8321 C 769.522 -2.29374 0.492435 0
M  V30 8322 C 770.538 -1.68262 -0.443154 0
M  V30 8323 O 771.714 -1.98875 -0.31793 0
M  V30 8324 C 768.779 -3.46023 -0.216626 0
M  V30 8325 C 767.84 -4.22557 0.757915 0
M  V30 8326 C 767.073 -5.33636 0.0825969 0
M  V30 8327 O 767.296 -5.59084 -1.13054 0
M  V30 8328 O 766.23 -5.96939 0.771177 0
M  V30 8329 H 770.056 -2.71525 1.36044 0
M  V30 8330 H 767.641 -1.30499 0.72735 0
M  V30 8331 H 769.523 -4.16885 -0.615241 0
M  V30 8332 H 768.198 -3.05862 -1.05971 0
M  V30 8333 H 767.105 -3.54099 1.20685 0
M  V30 8334 H 768.438 -4.66516 1.5692 0
M  V30 8335 N 770.09 -0.729906 -1.39679 0
M  V30 8336 C 771.022 -0.0470588 -2.29152 0
M  V30 8337 C 772.035 0.708808 -1.4656 0
M  V30 8338 O 773.224 0.553815 -1.69691 0
M  V30 8339 C 770.324 0.957612 -3.25089 0
M  V30 8340 C 769.497 0.264321 -4.36601 0
M  V30 8341 C 768.556 1.17638 -5.12882 0
M  V30 8342 O 767.582 0.655777 -5.6541 0
M  V30 8343 N 768.784 2.50649 -5.23598 0
M  V30 8344 H 771.549 -0.815364 -2.88395 0
M  V30 8345 H 769.11 -0.578707 -1.51204 0
M  V30 8346 H 771.102 1.57026 -3.72995 0
M  V30 8347 H 769.672 1.62716 -2.66912 0
M  V30 8348 H 768.892 -0.528732 -3.90638 0
M  V30 8349 H 770.18 -0.216344 -5.0834 0
M  V30 8350 H 769.578 2.95427 -4.82431 0
M  V30 8351 H 768.135 3.07022 -5.74961 0
M  V30 8352 N 771.568 1.50203 -0.477153 0
M  V30 8353 C 772.478 2.32421 0.319027 0
M  V30 8354 C 773.494 1.43075 0.990233 0
M  V30 8355 O 774.67 1.76123 0.976873 0
M  V30 8356 C 771.735 3.17909 1.38328 0
M  V30 8357 C 770.796 4.23082 0.728036 0
M  V30 8358 C 770.029 5.04484 1.74158 0
M  V30 8359 O 770.252 4.8705 2.96881 0
M  V30 8360 O 769.186 5.8747 1.31006 0
M  V30 8361 H 773.012 3.01638 -0.353281 0
M  V30 8362 H 770.597 1.47478 -0.238891 0
M  V30 8363 H 772.479 3.70937 1.9996 0
M  V30 8364 H 771.154 2.51413 2.03895 0
M  V30 8365 H 770.061 3.7403 0.07261 0
M  V30 8366 H 771.394 4.92065 0.115216 0
M  V30 8367 N 773.046 0.209999 1.56195 0
M  V30 8368 C 774.294 -0.423974 1.97603 0
M  V30 8369 C 774.615 -1.61112 1.09854 0
M  V30 8370 O 773.885 -1.95134 0.173032 0
M  V30 8371 H 772.465 -0.159629 0.729745 0
M  V30 8372 H 775.127 0.300205 1.92574 0
M  V30 8373 H 774.223 -0.75809 3.02753 0
M  V30 8374 N 774.524 -1.57472 -0.0634922 0
M  V30 8375 C 775.764 -1.89491 -0.766312 0
M  V30 8376 C 776.128 -0.80475 -1.74321 0
M  V30 8377 O 777.329 -1.00825 -2.49174 0
M  V30 8378 C 775.6 -3.26731 -1.44851 0
M  V30 8379 S 777.159 -3.80516 -2.18525 0
M  V30 8380 H 773.977 -0.663832 -0.254653 0
M  V30 8381 H 776.579 -1.95488 -0.0220867 0
M  V30 8382 H 775.283 -4.03967 -0.723824 0
M  V30 8383 H 774.814 -3.23953 -2.232 0
M  V30 8384 H 776.829 -3.5647 -3.45172 0
M  V30 8385 N 776.003 0.335068 -1.53997 0
M  V30 8386 C 777.233 1.0926 -1.75345 0
M  V30 8387 C 777.641 1.82568 -0.496545 0
M  V30 8388 O 776.984 1.75525 0.541897 0
M  V30 8389 C 777.046 2.14473 -2.88516 0
M  V30 8390 C 776.71 1.60665 -4.27827 0
M  V30 8391 C 777.707 1.05448 -5.09094 0
M  V30 8392 C 775.392 1.65255 -4.74337 0
M  V30 8393 C 777.386 0.555372 -6.34976 0
M  V30 8394 C 775.073 1.14956 -6.0019 0
M  V30 8395 C 776.071 0.601907 -6.80343 0
M  V30 8396 O 775.759 0.106445 -8.0383 0
M  V30 8397 H 775.491 0.331329 -0.589234 0
M  V30 8398 H 778.045 0.39042 -2.01655 0
M  V30 8399 H 776.275 2.88274 -2.5775 0
M  V30 8400 H 777.964 2.75857 -2.97755 0
M  V30 8401 H 778.73 1.01218 -4.74321 0
M  V30 8402 H 774.609 2.06822 -4.12002 0
M  V30 8403 H 778.153 0.127245 -6.97484 0
M  V30 8404 H 774.05 1.18891 -6.34457 0
M  V30 8405 H 774.818 0.222944 -8.18196 0
M  V30 8406 N 777.481 1.45874 0.596531 0
M  V30 8407 C 778.711 1.5379 1.37958 0
M  V30 8408 C 779.119 0.173086 1.88407 0
M  V30 8409 O 778.462 -0.837498 1.63498 0
M  V30 8410 C 778.524 2.47044 2.61169 0
M  V30 8411 C 778.188 3.93565 2.32283 0
M  V30 8412 C 779.185 4.83162 1.91965 0
M  V30 8413 C 776.87 4.38579 2.44854 0
M  V30 8414 C 778.864 6.15782 1.64593 0
M  V30 8415 C 776.551 5.71238 2.17095 0
M  V30 8416 C 777.549 6.59659 1.77028 0
M  V30 8417 O 777.237 7.89857 1.49601 0
M  V30 8418 H 776.969 0.523 0.428307 0
M  V30 8419 H 779.523 1.91855 0.733529 0
M  V30 8420 H 777.753 2.0397 3.28532 0
M  V30 8421 H 779.442 2.4552 3.23226 0
M  V30 8422 H 780.208 4.49646 1.8178 0
M  V30 8423 H 776.087 3.6999 2.75006 0
M  V30 8424 H 779.631 6.84757 1.33245 0
M  V30 8425 H 775.528 6.04306 2.26901 0
M  V30 8426 H 776.296 8.01991 1.63561 0
M  V30 8427 N 778.959 -0.83999 1.33349 0
M  V30 8428 C 779.891 -1.95678 1.19344 0
M  V30 8429 C 780.904 -1.62322 0.124692 0
M  V30 8430 O 782.093 -1.74516 0.375012 0
M  V30 8431 C 779.193 -3.29133 0.807771 0
M  V30 8432 C 778.366 -3.9063 1.96792 0
M  V30 8433 C 777.425 -5.02438 1.56341 0
M  V30 8434 O 776.451 -5.21646 2.27759 0
M  V30 8435 N 777.653 -5.78612 0.467767 0
M  V30 8436 H 780.418 -2.08229 2.15548 0
M  V30 8437 H 777.979 -1.01566 1.26079 0
M  V30 8438 H 779.971 -4.01355 0.519282 0
M  V30 8439 H 778.541 -3.12535 -0.063555 0
M  V30 8440 H 777.761 -3.11011 2.4221 0
M  V30 8441 H 779.049 -4.2845 2.74422 0
M  V30 8442 H 778.447 -5.65559 -0.126324 0
M  V30 8443 H 777.004 -6.51362 0.238945 0
M  V30 8444 N 780.437 -1.16799 -1.0581 0
M  V30 8445 C 781.347 -0.893492 -2.16919 0
M  V30 8446 C 782.363 0.136061 -1.73467 0
M  V30 8447 O 783.539 -0.0417348 -2.01357 0
M  V30 8448 C 780.604 -0.403763 -3.44341 0
M  V30 8449 C 779.665 -1.49914 -4.02274 0
M  V30 8450 C 778.898 -1.03269 -5.23614 0
M  V30 8451 O 779.121 0.115647 -5.70283 0
M  V30 8452 O 778.055 -1.8231 -5.73626 0
M  V30 8453 H 781.881 -1.82274 -2.42919 0
M  V30 8454 H 779.466 -0.948361 -1.1544 0
M  V30 8455 H 781.348 -0.137874 -4.21174 0
M  V30 8456 H 780.023 0.497413 -3.19855 0
M  V30 8457 H 778.93 -1.81883 -3.26909 0
M  V30 8458 H 780.263 -2.3758 -4.31064 0
M  V30 8459 N 781.915 1.24427 -0.967243 0
M  V30 8460 C 783.163 1.92107 -0.627638 0
M  V30 8461 C 783.484 1.75991 0.83978 0
M  V30 8462 O 782.754 1.13118 1.59941 0
M  V30 8463 H 781.334 0.710986 -0.229145 0
M  V30 8464 H 783.996 1.51331 -1.22821 0
M  V30 8465 H 783.092 2.99791 -0.867844 0
M  V30 8466 N 783.393 0.737304 1.3929 0
M  V30 8467 C 784.34 0.0988364 2.30588 0
M  V30 8468 C 785.31 -0.727206 1.49335 0
M  V30 8469 O 786.495 -0.686694 1.78014 0
M  V30 8470 C 783.635 -0.800734 3.35682 0
M  V30 8471 C 782.748 0.0381731 4.31983 0
M  V30 8472 C 781.883 -0.862884 5.24145 0
M  V30 8473 C 780.922 -0.0193639 6.12097 0
M  V30 8474 N 780.059 -0.87648 6.96608 0
M  V30 8475 H 784.899 0.883031 2.84617 0
M  V30 8476 H 782.436 0.447111 1.4014 0
M  V30 8477 H 784.394 -1.33676 3.95205 0
M  V30 8478 H 783.024 -1.55088 2.83103 0
M  V30 8479 H 782.076 0.691641 3.74059 0
M  V30 8480 H 783.388 0.690294 4.94 0
M  V30 8481 H 782.542 -1.46667 5.88705 0
M  V30 8482 H 781.281 -1.54878 4.62454 0
M  V30 8483 H 780.286 0.597202 5.46547 0
M  V30 8484 H 781.511 0.663348 6.75852 0
M  V30 8485 H 779.457 -1.54762 6.37483 0
M  V30 8486 H 779.374 -0.280892 7.55478 0
M  V30 8487 H 780.642 -1.46575 7.65595 0
M  V30 8488 N 784.871 -1.49948 0.485112 0
M  V30 8489 C 786.282 -1.8667 0.0334041 0
M  V30 8490 C 786.633 -1.3988 -1.37579 0
M  V30 8491 O 785.758 -0.769788 -2.02245 0
M  V30 8492 C 786.353 -3.38757 0.0538426 0
M  V30 8493 C 784.912 -3.74839 -0.342453 0
M  V30 8494 C 784.059 -2.73894 0.433281 0
M  V30 8495 H 787.01 -1.42492 0.698699 0
M  V30 8496 H 787.031 -3.73132 -0.745146 0
M  V30 8497 H 786.543 -3.72782 1.07959 0
M  V30 8498 H 784.644 -3.46419 -1.37203 0
M  V30 8499 H 784.757 -4.79088 -0.0340503 0
M  V30 8500 H 783.121 -2.54441 -0.114849 0
M  V30 8501 H 783.904 -3.10763 1.45881 0
M  V30 8502 N 786.349 -0.21828 -1.56081 0
M  V30 8503 C 787.279 0.687922 -2.23136 0
M  V30 8504 C 788.26 1.20357 -1.202 0
M  V30 8505 O 789.445 1.24817 -1.48776 0
M  V30 8506 C 786.575 1.89762 -2.90874 0
M  V30 8507 C 785.529 1.51595 -4.00254 0
M  V30 8508 C 784.855 2.80415 -4.55271 0
M  V30 8509 C 786.155 0.708404 -5.17474 0
M  V30 8510 H 787.849 0.128854 -2.99123 0
M  V30 8511 H 785.395 0.0605354 -1.43873 0
M  V30 8512 H 787.348 2.53699 -3.36474 0
M  V30 8513 H 786.072 2.4816 -2.1233 0
M  V30 8514 H 784.731 0.900058 -3.55379 0
M  V30 8515 H 784.379 3.36951 -3.73461 0
M  V30 8516 H 784.079 2.55613 -5.2909 0
M  V30 8517 H 785.603 3.453 -5.03587 0
M  V30 8518 H 787.017 1.2514 -5.59476 0
M  V30 8519 H 785.414 0.557593 -5.97504 0
M  V30 8520 H 786.484 -0.285679 -4.84058 0
M  V30 8521 N 787.827 1.57504 0.0551401 0
M  V30 8522 C 788.737 2.08198 1.08124 0
M  V30 8523 C 789.753 1.01496 1.41331 0
M  V30 8524 O 790.929 1.33073 1.51174 0
M  V30 8525 C 787.994 2.52968 2.37083 0
M  V30 8526 C 787.055 3.7404 2.10696 0
M  V30 8527 C 786.288 4.16665 3.33505 0
M  V30 8528 O 786.511 3.59019 4.4324 0
M  V30 8529 O 785.445 5.09324 3.20737 0
M  V30 8530 H 789.271 2.95977 0.680518 0
M  V30 8531 H 786.856 1.46933 0.270401 0
M  V30 8532 H 788.738 2.82211 3.12946 0
M  V30 8533 H 787.413 1.6831 2.76502 0
M  V30 8534 H 786.32 3.49855 1.32484 0
M  V30 8535 H 787.653 4.59601 1.76148 0
M  V30 8536 N 789.305 -0.326896 1.54172 0
M  V30 8537 C 790.268 -1.38515 1.8261 0
M  V30 8538 C 791.268 -1.44872 0.697771 0
M  V30 8539 O 792.458 -1.44957 0.966078 0
M  V30 8540 C 789.59 -2.77281 1.98313 0
M  V30 8541 H 790.783 -1.14556 2.77159 0
M  V30 8542 H 788.336 -0.562199 1.45839 0
M  V30 8543 H 789.071 -3.065 1.05964 0
M  V30 8544 H 788.856 -2.74061 2.80416 0
M  V30 8545 H 790.346 -3.53845 2.21773 0
M  V30 8546 N 790.784 -1.46188 -0.588786 0
M  V30 8547 C 792.012 -1.54743 -1.37339 0
M  V30 8548 C 792.427 -0.186446 -1.87877 0
M  V30 8549 O 791.784 0.815247 -1.63279 0
M  V30 8550 C 791.835 -2.54727 -2.56508 0
M  V30 8551 O 791.556 -3.85539 -2.08066 0
M  V30 8552 C 793.057 -2.73163 -3.49137 0
M  V30 8553 H 790.277 -0.523484 -0.419768 0
M  V30 8554 H 792.821 -1.91543 -0.716345 0
M  V30 8555 H 790.976 -2.20948 -3.18215 0
M  V30 8556 H 791.39 -4.39905 -2.85629 0
M  V30 8557 H 792.864 -3.47057 -4.2925 0
M  V30 8558 H 793.341 -1.79856 -4.00685 0
M  V30 8559 H 793.947 -3.08014 -2.9327 0
M  V30 8560 N 792.262 0.832906 -1.33792 0
M  V30 8561 C 793.508 1.59089 -1.25772 0
M  V30 8562 C 793.841 1.93414 0.174601 0
M  V30 8563 O 793.116 1.59195 1.11746 0
M  V30 8564 C 793.399 2.89699 -2.13885 0
M  V30 8565 C 793.252 2.62017 -3.65605 0
M  V30 8566 C 794.571 3.91182 -2.01654 0
M  V30 8567 H 791.69 0.577232 -0.458227 0
M  V30 8568 H 794.332 0.960227 -1.6395 0
M  V30 8569 H 792.482 3.4352 -1.81456 0
M  V30 8570 H 794.154 2.14582 -4.08353 0
M  V30 8571 H 792.397 1.95621 -3.87189 0
M  V30 8572 H 793.068 3.55112 -4.2261 0
M  V30 8573 H 795.544 3.46684 -2.30107 0
M  V30 8574 H 794.42 4.80391 -2.65548 0
M  V30 8575 H 794.681 4.30861 -0.990536 0
M  V30 8576 N 793.74 1.17359 1.05189 0
M  V30 8577 C 794.989 0.956412 1.77583 0
M  V30 8578 C 795.302 -0.516018 1.88671 0
M  V30 8579 O 796.508 -0.851401 2.57805 0
M  V30 8580 C 794.964 1.66203 3.19225 0
M  V30 8581 C 794.572 3.17299 3.16267 0
M  V30 8582 C 796.316 1.52725 3.96075 0
M  V30 8583 C 794.223 3.8055 4.52698 0
M  V30 8584 H 793.153 0.354204 0.665624 0
M  V30 8585 H 795.804 1.40612 1.17901 0
M  V30 8586 H 794.186 1.14006 3.79234 0
M  V30 8587 H 795.36 3.76431 2.65776 0
M  V30 8588 H 793.675 3.3079 2.52917 0
M  V30 8589 H 796.272 1.97351 4.96947 0
M  V30 8590 H 796.615 0.477803 4.13549 0
M  V30 8591 H 797.148 2.02139 3.42614 0
M  V30 8592 H 793.887 4.85492 4.4043 0
M  V30 8593 H 793.407 3.26206 5.03339 0
M  V30 8594 H 795.086 3.82757 5.21638 0
M  V30 8595 N 795.218 -1.23913 0.973828 0
M  V30 8596 C 796.165 -2.25132 0.508366 0
M  V30 8597 C 797.135 -1.59908 -0.449307 0
M  V30 8598 O 798.32 -1.87405 -0.358313 0
M  V30 8599 C 795.46 -3.4458 -0.189422 0
M  V30 8600 C 794.573 -4.24381 0.807738 0
M  V30 8601 C 793.708 -5.31131 0.0854315 0
M  V30 8602 C 792.747 -6.02635 1.07225 0
M  V30 8603 N 791.884 -7.01073 0.379535 0
M  V30 8604 H 796.724 -2.64313 1.37632 0
M  V30 8605 H 794.261 -1.29924 0.689802 0
M  V30 8606 H 796.219 -4.12706 -0.610733 0
M  V30 8607 H 794.849 -3.06218 -1.02129 0
M  V30 8608 H 793.901 -3.55735 1.34747 0
M  V30 8609 H 795.213 -4.73778 1.55998 0
M  V30 8610 H 794.367 -6.05422 -0.393572 0
M  V30 8611 H 793.106 -4.82658 -0.699461 0
M  V30 8612 H 792.111 -5.27143 1.56207 0
M  V30 8613 H 793.336 -6.53197 1.85769 0
M  V30 8614 H 791.282 -6.54862 -0.386269 0
M  V30 8615 H 791.199 -7.48382 1.07054 0
M  V30 8616 H 792.467 -7.79462 -0.0772984 0
M  V30 8617 N 796.696 -0.74468 -1.38897 0
M  V30 8618 C 797.921 -0.306119 -2.05128 0
M  V30 8619 C 798.346 1.0541 -1.55789 0
M  V30 8620 O 797.704 1.66993 -0.705909 0
M  V30 8621 C 797.752 -0.328195 -3.59103 0
M  V30 8622 O 796.856 0.680876 -4.06741 0
M  V30 8623 H 796.197 -0.137209 -0.649669 0
M  V30 8624 H 798.727 -1.01331 -1.77745 0
M  V30 8625 H 798.737 -0.175956 -4.0762 0
M  V30 8626 H 797.412 -1.32067 -3.94374 0
M  V30 8627 H 795.989 0.49398 -3.69614 0
M  V30 8628 N 798.174 1.49689 -0.493057 0
M  V30 8629 C 799.106 2.26867 0.326195 0
M  V30 8630 C 800.119 1.33083 0.937697 0
M  V30 8631 O 801.308 1.58427 0.822382 0
M  V30 8632 C 798.408 3.0519 1.4735 0
M  V30 8633 C 797.581 4.26491 0.970767 0
M  V30 8634 C 796.64 4.86926 1.99473 0
M  V30 8635 O 795.666 5.47221 1.56647 0
M  V30 8636 N 796.868 4.75871 3.32456 0
M  V30 8637 H 799.633 2.97816 -0.335547 0
M  V30 8638 H 797.194 1.58602 -0.325129 0
M  V30 8639 H 799.186 3.42496 2.15589 0
M  V30 8640 H 797.756 2.369 2.03954 0
M  V30 8641 H 796.976 3.94036 0.113529 0
M  V30 8642 H 798.264 5.05092 0.613156 0
M  V30 8643 H 797.662 4.2797 3.69944 0
M  V30 8644 H 796.219 5.17383 3.96431 0
M  V30 8645 N 799.652 0.226554 1.55963 0
M  V30 8646 C 800.929 -0.453058 1.90281 0
M  V30 8647 C 801.309 -1.77377 1.14458 0
M  V30 8648 O 800.657 -2.27067 0.255496 0
M  V30 8649 C 800.867 -0.641108 3.43061 0
M  V30 8650 C 802.215 -0.946265 4.13921 0
M  V30 8651 O 803.239 -0.727713 3.48687 0
M  V30 8652 O 802.098 -1.36131 5.29274 0
M  V30 8653 H 799.192 -0.240242 0.791336 0
M  V30 8654 H 801.738 0.26911 1.67553 0
M  V30 8655 H 800.51 0.290283 3.90222 0
M  V30 8656 H 800.133 -1.41458 3.71585 0
M  V30 8657 N 801.13 -1.57531 -0.0467866 0
M  V30 8658 C 802.078 -2.06455 -1.0714 0
M  V30 8659 C 803.072 -0.974744 -1.38546 0
M  V30 8660 O 804.278 -1.15974 -1.37659 0
M  V30 8661 H 800.653 -0.658607 -0.362962 0
M  V30 8662 H 802.624 -2.91613 -0.632813 0
M  V30 8663 C 801.373 -2.54481 -2.36927 0
M  V30 8664 H 800.696 -3.37946 -2.13617 0
M  V30 8665 H 802.136 -2.92442 -3.07007 0
M  V30 8666 C 800.595 -1.43836 -3.04652 0
M  V30 8667 O 801.125 -0.794531 -3.93764 0
M  V30 8668 N 799.331 -1.17727 -2.65686 0
M  V30 8669 H 798.878 -1.70265 -1.93307 0
M  V30 8670 H 798.836 -0.439051 -3.11319 0
M  V30 8671 N 802.608 0.318715 -1.54344 0
M  V30 8672 C 803.54 1.41364 -1.80413 0
M  V30 8673 C 804.553 1.47627 -0.686294 0
M  V30 8674 O 805.742 1.50264 -0.963486 0
M  V30 8675 C 802.842 2.79867 -1.91123 0
M  V30 8676 C 802.015 2.96749 -3.21339 0
M  V30 8677 C 801.074 4.15642 -3.22689 0
M  V30 8678 O 800.1 4.08571 -3.96306 0
M  V30 8679 N 801.302 5.25416 -2.46817 0
M  V30 8680 H 804.067 1.19363 -2.74905 0
M  V30 8681 H 801.628 0.508722 -1.537 0
M  V30 8682 H 803.62 3.57619 -1.89448 0
M  V30 8683 H 802.19 2.94896 -1.03706 0
M  V30 8684 H 801.41 2.06257 -3.35934 0
M  V30 8685 H 802.698 3.04927 -4.07304 0
M  V30 8686 H 802.096 5.34037 -1.86605 0
M  V30 8687 H 800.653 6.01569 -2.50915 0
M  V30 8688 N 804.086 1.46499 0.581025 0
M  V30 8689 C 805.332 1.53108 1.33901 0
M  V30 8690 C 805.687 0.181007 1.91547 0
M  V30 8691 O 804.98 -0.810518 1.73612 0
M  V30 8692 C 805.174 2.56686 2.48691 0
M  V30 8693 C 805.003 4.01633 2.0229 0
M  V30 8694 C 803.773 4.69333 1.87228 0
M  V30 8695 C 805.971 4.89379 1.58154 0
M  V30 8696 N 803.953 5.98891 1.34917 0
M  V30 8697 C 805.324 6.08775 1.17445 0
M  V30 8698 C 807.379 4.76017 1.45987 0
M  V30 8699 C 806.082 7.16286 0.657805 0
M  V30 8700 C 808.108 5.83601 0.95726 0
M  V30 8701 C 807.47 7.02171 0.55996 0
M  V30 8702 H 803.569 0.61509 0.482896 0
M  V30 8703 H 806.153 1.83123 0.661361 0
M  V30 8704 H 804.324 2.28578 3.14017 0
M  V30 8705 H 806.056 2.5328 3.15644 0
M  V30 8706 H 802.811 4.24878 2.09226 0
M  V30 8707 H 803.235 6.67852 1.10917 0
M  V30 8708 H 807.877 3.84736 1.75322 0
M  V30 8709 H 805.595 8.07333 0.352047 0
M  V30 8710 H 809.181 5.75304 0.867007 0
M  V30 8711 H 808.061 7.84 0.177046 0
M  V30 8712 N 805.565 -0.825799 1.34232 0
M  V30 8713 C 806.79 -1.61883 1.29648 0
M  V30 8714 C 807.215 -1.87669 -0.127295 0
M  V30 8715 O 806.573 -1.45016 -1.08813 0
M  V30 8716 C 806.621 -2.93846 2.09014 0
M  V30 8717 O 805.725 -3.85778 1.4577 0
M  V30 8718 H 805.066 -0.492454 0.445405 0
M  V30 8719 H 807.596 -1.02641 1.76992 0
M  V30 8720 H 807.606 -3.43435 2.20264 0
M  V30 8721 H 806.281 -2.74401 3.12533 0
M  V30 8722 H 804.858 -3.4429 1.43245 0
M  V30 8723 N 807.043 -1.17915 -1.04565 0
M  V30 8724 C 808.273 -0.994716 -1.81077 0
M  V30 8725 C 808.681 0.460146 -1.83519 0
M  V30 8726 O 808.024 1.33136 -1.26572 0
M  V30 8727 C 808.086 -1.46698 -3.28207 0
M  V30 8728 C 807.75 -2.94523 -3.49436 0
M  V30 8729 C 808.747 -3.92414 -3.41038 0
M  V30 8730 C 806.432 -3.32841 -3.76194 0
M  V30 8731 C 808.426 -5.2662 -3.59096 0
M  V30 8732 C 806.113 -4.67212 -3.93899 0
M  V30 8733 C 807.111 -5.6391 -3.8535 0
M  V30 8734 O 806.799 -6.95849 -4.02554 0
M  V30 8735 H 806.531 -0.351797 -0.577248 0
M  V30 8736 H 809.085 -1.56772 -1.32709 0
M  V30 8737 H 807.315 -0.837592 -3.7752 0
M  V30 8738 H 809.004 -1.24724 -3.86263 0
M  V30 8739 H 809.77 -3.64157 -3.20336 0
M  V30 8740 H 805.649 -2.58139 -3.81949 0
M  V30 8741 H 809.193 -6.02082 -3.52339 0
M  V30 8742 H 805.09 -4.95172 -4.14095 0
M  V30 8743 H 805.858 -7.02679 -4.19743 0
M  V30 8744 N 808.521 1.23394 -0.980386 0
M  V30 8745 C 809.468 2.24859 -0.520298 0
M  V30 8746 C 810.438 1.60144 0.440821 0
M  V30 8747 O 811.623 1.87593 0.348369 0
M  V30 8748 C 808.763 3.44675 0.171145 0
M  V30 8749 C 807.876 4.23947 -0.830233 0
M  V30 8750 C 807.011 5.31079 -0.113597 0
M  V30 8751 C 806.05 6.02058 -1.10419 0
M  V30 8752 N 805.187 7.00862 -0.416709 0
M  V30 8753 H 810.027 2.63579 -1.39032 0
M  V30 8754 H 807.564 1.29556 -0.696682 0
M  V30 8755 H 809.522 4.13024 0.588838 0
M  V30 8756 H 808.152 3.06755 1.00504 0
M  V30 8757 H 807.204 3.55016 -1.36631 0
M  V30 8758 H 808.516 4.72945 -1.58508 0
M  V30 8759 H 807.67 6.05622 0.36146 0
M  V30 8760 H 806.409 4.83022 0.673854 0
M  V30 8761 H 805.414 5.26307 -1.59 0
M  V30 8762 H 806.639 6.52203 -1.8923 0
M  V30 8763 H 804.585 6.55057 0.351535 0
M  V30 8764 H 804.502 7.47804 -1.11021 0
M  V30 8765 H 805.77 7.79492 0.0359606 0
M  V30 8766 N 809.999 0.752036 1.385 0
M  V30 8767 C 811.248 0.304294 1.99391 0
M  V30 8768 C 811.561 -1.11982 1.60373 0
M  V30 8769 O 812.767 -1.66795 2.14223 0
M  V30 8770 C 811.223 0.493101 3.56506 0
M  V30 8771 C 810.831 1.9262 4.04477 0
M  V30 8772 C 812.575 0.107994 4.24363 0
M  V30 8773 C 810.482 2.06365 5.54227 0
M  V30 8774 H 809.412 0.110024 0.745929 0
M  V30 8775 H 812.063 0.928355 1.58284 0
M  V30 8776 H 810.445 -0.20012 3.95494 0
M  V30 8777 H 811.619 2.65276 3.76783 0
M  V30 8778 H 809.934 2.26608 3.49339 0
M  V30 8779 H 812.531 0.189474 5.34364 0
M  V30 8780 H 812.874 -0.939165 4.05568 0
M  V30 8781 H 813.407 0.753011 3.90608 0
M  V30 8782 H 810.146 3.0933 5.77923 0
M  V30 8783 H 809.666 1.38167 5.83669 0
M  V30 8784 H 811.345 1.85286 6.19902 0
M  V30 8785 N 811.477 -1.49425 0.500989 0
M  V30 8786 C 812.427 -2.26061 -0.296698 0
M  V30 8787 C 813.411 -1.30906 -0.935541 0
M  V30 8788 O 814.603 -1.55628 -0.843142 0
M  V30 8789 C 811.732 -3.15189 -1.36055 0
M  V30 8790 C 810.818 -4.17806 -0.727952 0
M  V30 8791 N 811.209 -5.05516 0.169408 0
M  V30 8792 C 809.507 -4.34907 -0.988535 0
M  V30 8793 C 810.208 -5.79267 0.531509 0
M  V30 8794 N 809.184 -5.43507 -0.100564 0
M  V30 8795 H 812.986 -2.91246 0.394103 0
M  V30 8796 H 810.5 -1.59275 0.317065 0
M  V30 8797 H 812.497 -3.68724 -1.94547 0
M  V30 8798 H 811.157 -2.51556 -2.05303 0
M  V30 8799 H 812.168 -5.15075 0.540218 0
M  V30 8800 H 808.845 -3.82481 -1.67376 0
M  V30 8801 H 810.235 -6.59872 1.26564 0
M  V30 8802 N 812.955 -0.234822 -1.55841 0
M  V30 8803 C 813.887 0.702346 -2.18174 0
M  V30 8804 C 814.9 1.14776 -1.15457 0
M  V30 8805 O 816.089 1.07662 -1.42377 0
M  V30 8806 C 813.189 1.96483 -2.76129 0
M  V30 8807 C 812.362 1.67283 -4.04148 0
M  V30 8808 C 811.421 2.7837 -4.46539 0
M  V30 8809 O 810.447 2.46272 -5.13166 0
M  V30 8810 N 811.649 4.07611 -4.1332 0
M  V30 8811 H 814.414 0.169074 -2.99223 0
M  V30 8812 H 811.975 -0.0543164 -1.61809 0
M  V30 8813 H 813.967 2.70016 -3.01452 0
M  V30 8814 H 812.537 2.40822 -1.99307 0
M  V30 8815 H 811.757 0.773278 -3.86541 0
M  V30 8816 H 813.045 1.45222 -4.87635 0
M  V30 8817 H 812.443 4.36527 -3.59806 0
M  V30 8818 H 811 4.77646 -4.43506 0
M  V30 8819 N 814.433 1.57553 0.0384317 0
M  V30 8820 C 815.343 2.09333 1.0591 0
M  V30 8821 C 816.359 1.0299 1.40247 0
M  V30 8822 O 817.535 1.34669 1.49754 0
M  V30 8823 C 814.6 2.55468 2.34386 0
M  V30 8824 C 813.661 3.76254 2.06716 0
M  V30 8825 C 812.894 4.20179 3.29067 0
M  V30 8826 O 813.117 3.637 4.39407 0
M  V30 8827 O 812.051 5.12697 3.15317 0
M  V30 8828 H 815.877 2.96683 0.649087 0
M  V30 8829 H 813.462 1.47211 0.254802 0
M  V30 8830 H 815.344 2.85514 3.09935 0
M  V30 8831 H 814.019 1.71234 2.74701 0
M  V30 8832 H 812.926 3.51241 1.28766 0
M  V30 8833 H 814.259 4.61443 1.71263 0
M  V30 8834 N 815.911 -0.310526 1.54511 0
M  V30 8835 C 817.188 -1.06593 1.64004 0
M  V30 8836 C 817.568 -2.05519 0.482216 0
M  V30 8837 O 816.916 -2.22455 -0.52212 0
M  V30 8838 C 817.126 -1.75627 3.01589 0
M  V30 8839 C 818.474 -2.28173 3.58081 0
M  V30 8840 O 819.498 -1.85674 3.03979 0
M  V30 8841 O 818.357 -3.06015 4.52788 0
M  V30 8842 H 815.451 -0.492109 0.664649 0
M  V30 8843 H 817.997 -0.309374 1.66856 0
M  V30 8844 H 816.769 -1.03743 3.77297 0
M  V30 8845 H 816.392 -2.58061 3.02473 0
M  V30 8846 N 817.389 -1.46805 -0.573248 0
M  V30 8847 C 818.336 -1.58084 -1.68161 0
M  V30 8848 C 819.306 -0.424636 -1.6058 0
M  V30 8849 O 820.491 -0.642623 -1.79652 0
M  V30 8850 C 817.631 -1.58601 -3.06496 0
M  V30 8851 C 816.744 -2.85023 -3.24632 0
M  V30 8852 C 815.879 -2.76981 -4.53271 0
M  V30 8853 C 814.918 -3.983 -4.64783 0
M  V30 8854 N 814.055 -3.88589 -5.84759 0
M  V30 8855 H 818.895 -2.52755 -1.57858 0
M  V30 8856 H 816.432 -1.25385 -0.769218 0
M  V30 8857 H 818.39 -1.56885 -3.86579 0
M  V30 8858 H 817.02 -0.674553 -3.15673 0
M  V30 8859 H 816.072 -2.96678 -2.38089 0
M  V30 8860 H 817.384 -3.7491 -3.29004 0
M  V30 8861 H 816.538 -2.73424 -5.41594 0
M  V30 8862 H 815.277 -1.84751 -4.51352 0
M  V30 8863 H 814.282 -4.02179 -3.74876 0
M  V30 8864 H 815.507 -4.91639 -4.68474 0
M  V30 8865 H 813.453 -2.99151 -5.83819 0
M  V30 8866 H 813.37 -4.7214 -5.90441 0
M  V30 8867 H 814.638 -3.89022 -6.75486 0
M  V30 8868 N 818.867 0.818669 -1.34668 0
M  V30 8869 C 820.116 1.57017 -1.26604 0
M  V30 8870 C 820.429 1.94936 0.161036 0
M  V30 8871 O 821.635 2.69051 0.36386 0
M  V30 8872 C 820.091 2.83305 -2.2196 0
M  V30 8873 C 819.699 2.52671 -3.69948 0
M  V30 8874 C 821.443 3.61324 -2.22813 0
M  V30 8875 C 819.35 3.75178 -4.5716 0
M  V30 8876 H 818.28 0.589323 -0.470335 0
M  V30 8877 H 820.931 0.900956 -1.59859 0
M  V30 8878 H 819.313 3.51874 -1.81661 0
M  V30 8879 H 820.487 1.92186 -4.18809 0
M  V30 8880 H 818.802 1.8792 -3.71584 0
M  V30 8881 H 821.399 4.52294 -2.85192 0
M  V30 8882 H 821.742 3.97759 -1.22857 0
M  V30 8883 H 822.275 2.99703 -2.61578 0
M  V30 8884 H 819.014 3.43861 -5.58068 0
M  V30 8885 H 818.534 4.34931 -4.13031 0
M  V30 8886 H 820.213 4.42542 -4.71981 0
M  V30 8887 N 820.346 1.18468 1.03938 0
M  V30 8888 C 821.276 0.936389 2.13902 0
M  V30 8889 C 822.257 -0.126381 1.6963 0
M  V30 8890 O 823.442 0.0264757 1.94182 0
M  V30 8891 C 820.572 0.462729 3.44204 0
M  V30 8892 C 819.526 1.46613 4.02105 0
M  V30 8893 C 818.852 0.84994 5.27902 0
M  V30 8894 C 820.152 2.84323 4.3813 0
M  V30 8895 H 821.846 1.85602 2.3493 0
M  V30 8896 H 819.392 0.893806 1.12903 0
M  V30 8897 H 821.345 0.276382 4.20493 0
M  V30 8898 H 820.069 -0.492477 3.22866 0
M  V30 8899 H 818.728 1.63944 3.27899 0
M  V30 8900 H 818.376 -0.112493 5.02874 0
M  V30 8901 H 818.076 1.51988 5.67603 0
M  V30 8902 H 819.6 0.674152 6.06867 0
M  V30 8903 H 821.014 2.70636 5.054 0
M  V30 8904 H 819.411 3.48012 4.88884 0
M  V30 8905 H 820.481 3.37776 3.47901 0
M  V30 8906 N 821.824 -1.22873 0.986916 0
M  V30 8907 C 822.771 -2.2458 0.532215 0
M  V30 8908 C 823.741 -1.60375 -0.432322 0
M  V30 8909 O 824.926 -1.87775 -0.338416 0
M  V30 8910 C 822.066 -3.44761 -0.152864 0
M  V30 8911 C 821.179 -4.23501 0.852704 0
M  V30 8912 C 820.314 -5.31011 0.14176 0
M  V30 8913 C 819.353 -6.01464 1.1361 0
M  V30 8914 N 818.49 -7.00631 0.453871 0
M  V30 8915 H 823.33 -2.62838 1.40428 0
M  V30 8916 H 820.867 -1.29185 0.703543 0
M  V30 8917 H 822.825 -4.1333 -0.566926 0
M  V30 8918 H 821.455 -3.07284 -0.988756 0
M  V30 8919 H 820.507 -3.54286 1.38512 0
M  V30 8920 H 821.819 -4.72097 1.61014 0
M  V30 8921 H 820.973 -6.05805 -0.329337 0
M  V30 8922 H 819.712 -4.83373 -0.648229 0
M  V30 8923 H 818.717 -5.25456 1.61789 0
M  V30 8924 H 819.942 -6.5119 1.92686 0
M  V30 8925 H 817.888 -6.55235 -0.316791 0
M  V30 8926 H 817.805 -7.47204 1.14986 0
M  V30 8927 H 819.073 -7.795 0.00537823 0
M  V30 8928 N 823.302 -0.75937 -1.38099 0
M  V30 8929 C 824.548 -0.318584 -2.00282 0
M  V30 8930 C 824.881 1.09854 -1.60143 0
M  V30 8931 O 824.156 1.75344 -0.841702 0
M  V30 8932 C 824.439 -0.448047 -3.57302 0
M  V30 8933 C 824.292 -1.9067 -4.07388 0
M  V30 8934 C 825.611 0.155119 -4.39827 0
M  V30 8935 H 822.73 -0.117233 -0.727616 0
M  V30 8936 H 825.372 -0.960097 -1.63958 0
M  V30 8937 H 823.522 0.0981003 -3.88376 0
M  V30 8938 H 825.194 -2.5116 -3.86932 0
M  V30 8939 H 823.437 -2.41979 -3.6004 0
M  V30 8940 H 824.108 -1.94841 -5.1647 0
M  V30 8941 H 826.584 -0.31073 -4.14938 0
M  V30 8942 H 825.46 0.0343264 -5.48889 0
M  V30 8943 H 825.721 1.24407 -4.24235 0
M  V30 8944 N 824.78 1.49157 -0.508906 0
M  V30 8945 C 826.028 2.02073 0.0327335 0
M  V30 8946 C 826.349 1.39012 1.3675 0
M  V30 8947 O 825.619 0.548153 1.88075 0
M  V30 8948 H 824.199 0.746848 0.0150864 0
M  V30 8949 H 826.861 1.83097 -0.667946 0
M  V30 8950 H 825.957 3.11707 0.1566 0
M  V30 8951 N 826.258 0.243083 1.55714 0
M  V30 8952 C 827.205 -0.658078 2.21219 0
M  V30 8953 C 828.175 -1.1742 1.17481 0
M  V30 8954 O 829.36 -1.22937 1.45915 0
M  V30 8955 C 826.5 -1.85104 2.91257 0
M  V30 8956 C 825.613 -1.3718 4.09641 0
M  V30 8957 C 824.748 -2.52403 4.67404 0
M  V30 8958 C 823.787 -2.01321 5.78045 0
M  V30 8959 N 822.924 -3.09896 6.30007 0
M  V30 8960 H 827.764 -0.0927854 2.97856 0
M  V30 8961 H 825.301 -0.0340375 1.47061 0
M  V30 8962 H 827.259 -2.55179 3.3006 0
M  V30 8963 H 825.889 -2.38887 2.17101 0
M  V30 8964 H 824.941 -0.565232 3.76177 0
M  V30 8965 H 826.253 -0.957409 4.89525 0
M  V30 8966 H 825.407 -3.30525 5.08761 0
M  V30 8967 H 824.146 -2.97142 3.86728 0
M  V30 8968 H 823.151 -1.21667 5.36169 0
M  V30 8969 H 824.376 -1.57556 6.6057 0
M  V30 8970 H 822.322 -3.54077 5.52237 0
M  V30 8971 H 822.239 -2.72776 7.05074 0
M  V30 8972 H 823.507 -3.8809 6.76023 0
M  V30 8973 N 827.736 -1.57571 -0.0300757 0
M  V30 8974 C 828.983 -1.89226 -0.721091 0
M  V30 8975 C 829.311 -0.840244 -1.75414 0
M  V30 8976 O 828.566 0.158906 -1.95054 0
M  V30 8977 C 828.865 -3.27624 -1.42818 0
M  V30 8978 C 828.531 -4.4776 -0.531208 0
M  V30 8979 C 827.193 -4.8036 -0.28415 0
M  V30 8980 C 829.545 -5.21125 0.0881582 0
M  V30 8981 C 826.873 -5.83715 0.591065 0
M  V30 8982 C 829.225 -6.2541 0.95107 0
M  V30 8983 C 827.889 -6.56486 1.2076 0
M  V30 8984 H 827.159 -0.692428 -0.263866 0
M  V30 8985 H 829.806 -1.91491 0.0189874 0
M  V30 8986 H 828.111 -3.21343 -2.24155 0
M  V30 8987 H 829.808 -3.49365 -1.96838 0
M  V30 8988 H 826.398 -4.2227 -0.73392 0
M  V30 8989 H 830.582 -4.96219 -0.0897496 0
M  V30 8990 H 825.838 -6.06168 0.798132 0
M  V30 8991 H 830.012 -6.81402 1.43751 0
M  V30 8992 H 827.639 -7.36395 1.88751 0
M  V30 8993 N 829.214 0.302327 -1.54673 0
M  V30 8994 C 830.177 1.35592 -1.8479 0
M  V30 8995 C 831.177 1.43743 -0.72073 0
M  V30 8996 O 832.367 1.43402 -0.989017 0
M  V30 8997 C 829.499 2.74091 -2.02699 0
M  V30 8998 H 830.692 1.10132 -2.78946 0
M  V30 8999 H 828.245 0.538926 -1.46715 0
M  V30 9000 H 828.98 3.04775 -1.10826 0
M  V30 9001 H 828.765 2.69565 -2.8474 0
M  V30 9002 H 830.255 3.50272 -2.27374 0
M  V30 9003 N 830.692 1.47107 0.565454 0
M  V30 9004 C 831.639 1.58974 1.6732 0
M  V30 9005 C 832.609 0.433146 1.60353 0
M  V30 9006 O 833.794 0.652141 1.79309 0
M  V30 9007 C 830.934 1.60224 3.05651 0
M  V30 9008 C 830.047 2.86741 3.23116 0
M  V30 9009 C 829.182 2.79381 4.51796 0
M  V30 9010 C 828.221 4.0076 4.62664 0
M  V30 9011 N 827.358 3.91685 5.8269 0
M  V30 9012 H 832.198 2.53588 1.56515 0
M  V30 9013 H 829.735 1.25791 0.762558 0
M  V30 9014 H 831.693 1.58933 3.85741 0
M  V30 9015 H 830.323 0.691285 3.15311 0
M  V30 9016 H 829.375 2.97936 2.36513 0
M  V30 9017 H 830.687 3.7665 3.27011 0
M  V30 9018 H 829.841 2.76293 5.40136 0
M  V30 9019 H 828.58 1.87142 4.50366 0
M  V30 9020 H 827.585 4.04162 3.72738 0
M  V30 9021 H 828.81 4.94117 4.6586 0
M  V30 9022 H 826.756 3.02243 5.82224 0
M  V30 9023 H 826.673 4.75264 5.87929 0
M  V30 9024 H 827.941 3.92599 6.73414 0
M  V30 9025 N 832.17 -0.811516 1.35101 0
M  V30 9026 C 833.419 -1.56343 1.27435 0
M  V30 9027 C 833.732 -1.95019 -0.150696 0
M  V30 9028 O 834.938 -2.6924 -0.349586 0
M  V30 9029 C 833.394 -2.82124 2.23459 0
M  V30 9030 C 833.002 -2.50706 3.71283 0
M  V30 9031 C 834.746 -3.60137 2.24726 0
M  V30 9032 C 832.653 -3.72748 4.59143 0
M  V30 9033 H 831.583 -0.58682 0.473453 0
M  V30 9034 H 834.234 -0.892465 1.60335 0
M  V30 9035 H 832.616 -3.50905 1.83525 0
M  V30 9036 H 833.79 -1.89962 4.19823 0
M  V30 9037 H 832.105 -1.85947 3.72576 0
M  V30 9038 H 834.702 -4.50775 2.87587 0
M  V30 9039 H 835.045 -3.97101 1.24965 0
M  V30 9040 H 835.578 -2.98311 2.63164 0
M  V30 9041 H 832.317 -3.40896 5.59884 0
M  V30 9042 H 831.837 -4.32735 4.15332 0
M  V30 9043 H 833.516 -4.40033 4.74321 0
M  V30 9044 N 833.648 -1.19017 -1.03309 0
M  V30 9045 C 834.595 -0.924088 -2.11493 0
M  V30 9046 C 835.565 0.139464 -1.65513 0
M  V30 9047 O 836.75 -0.00178761 -1.908 0
M  V30 9048 C 833.89 -0.464255 -3.41963 0
M  V30 9049 C 833.003 -1.5941 -4.01513 0
M  V30 9050 C 832.138 -1.08622 -5.19976 0
M  V30 9051 C 831.177 -2.19024 -5.71572 0
M  V30 9052 N 830.314 -1.69575 -6.81314 0
M  V30 9053 H 835.154 -1.85039 -2.33591 0
M  V30 9054 H 832.691 -0.922593 -1.14572 0
M  V30 9055 H 834.649 -0.179078 -4.16815 0
M  V30 9056 H 833.279 0.425062 -3.19989 0
M  V30 9057 H 832.331 -1.99458 -3.23915 0
M  V30 9058 H 833.643 -2.42604 -4.35826 0
M  V30 9059 H 832.797 -0.756022 -6.01971 0
M  V30 9060 H 831.536 -0.223955 -4.87186 0
M  V30 9061 H 830.541 -2.5288 -4.88193 0
M  V30 9062 H 831.766 -3.05699 -6.06403 0
M  V30 9063 H 829.712 -0.856494 -6.50385 0
M  V30 9064 H 829.629 -2.46361 -7.14732 0
M  V30 9065 H 830.897 -1.39505 -7.66915 0
M  V30 9066 N 835.127 1.22348 -0.993418 0
M  V30 9067 C 836.075 2.26315 -0.537052 0
M  V30 9068 C 837.069 1.643 0.412545 0
M  V30 9069 O 838.275 1.77729 0.285008 0
M  V30 9070 H 834.65 0.735792 -0.155286 0
M  V30 9071 H 836.621 2.62157 -1.42535 0
M  V30 9072 C 835.37 3.47449 0.132118 0
M  V30 9073 H 834.693 3.9543 -0.589519 0
M  V30 9074 H 836.133 4.21965 0.414884 0
M  V30 9075 C 834.592 3.07893 1.36761 0
M  V30 9076 O 835.122 3.17338 2.46291 0
M  V30 9077 N 833.328 2.62672 1.24305 0
M  V30 9078 H 832.875 2.55186 0.351826 0
M  V30 9079 H 832.833 2.36574 2.07076 0
M  V30 9080 N 836.605 0.766683 1.37694 0
M  V30 9081 C 837.833 0.339939 2.04088 0
M  V30 9082 C 838.248 -1.03617 1.57826 0
M  V30 9083 O 837.605 -1.6605 0.757214 0
M  V30 9084 C 837.656 0.368269 3.59619 0
M  V30 9085 O 837.377 1.69009 4.04188 0
M  V30 9086 C 838.878 -0.0707053 4.43244 0
M  V30 9087 H 836.098 0.143189 0.655544 0
M  V30 9088 H 838.642 1.03919 1.76128 0
M  V30 9089 H 836.797 -0.282359 3.8637 0
M  V30 9090 H 837.211 1.62523 4.98685 0
M  V30 9091 H 838.685 0.000273538 5.52 0
M  V30 9092 H 839.162 -1.1204 4.24669 0
M  V30 9093 H 839.768 0.551543 4.21709 0
M  V30 9094 N 838.083 -1.48885 0.516809 0
M  V30 9095 C 839.033 -2.26363 -0.272704 0
M  V30 9096 C 840.017 -1.31891 -0.921604 0
M  V30 9097 O 841.209 -1.56514 -0.826589 0
M  V30 9098 C 838.338 -3.16614 -1.32705 0
M  V30 9099 C 837.424 -4.18554 -0.683598 0
M  V30 9100 N 837.815 -5.05308 0.223015 0
M  V30 9101 C 836.113 -4.35931 -0.942351 0
M  V30 9102 C 836.814 -5.7867 0.592918 0
M  V30 9103 N 835.79 -5.43583 -0.042912 0
M  V30 9104 H 839.592 -2.90811 0.424971 0
M  V30 9105 H 837.106 -1.5893 0.333941 0
M  V30 9106 H 839.103 -3.70766 -1.90625 0
M  V30 9107 H 837.763 -2.5372 -2.02624 0
M  V30 9108 H 838.774 -5.14473 0.594818 0
M  V30 9109 H 835.451 -3.84234 -1.6331 0
M  V30 9110 H 836.841 -6.58493 1.33556 0
M  V30 9111 N 839.561 -0.251338 -1.55583 0
M  V30 9112 C 840.789 0.376187 -2.03451 0
M  V30 9113 C 841.204 1.51215 -1.13047 0
M  V30 9114 O 840.561 1.81917 -0.145769 0
M  V30 9115 C 840.612 0.879779 -3.50631 0
M  V30 9116 O 840.333 -0.210917 -4.37592 0
M  V30 9117 C 841.834 1.57754 -4.14281 0
M  V30 9118 H 839.054 0.0888722 -0.665089 0
M  V30 9119 H 841.598 -0.376497 -2.01004 0
M  V30 9120 H 839.753 1.58263 -3.53598 0
M  V30 9121 H 840.167 0.172203 -5.24217 0
M  V30 9122 H 841.641 1.88158 -5.18942 0
M  V30 9123 H 842.118 2.50103 -3.61034 0
M  V30 9124 H 842.724 0.919154 -4.15249 0
M  V30 9125 N 841.039 1.57585 0.0217189 0
M  V30 9126 C 841.987 2.08134 1.03842 0
M  V30 9127 C 842.981 0.996662 1.36978 0
M  V30 9128 O 844.187 1.18149 1.35797 0
M  V30 9129 H 840.562 0.664298 0.352438 0
M  V30 9130 H 842.533 2.92583 0.58634 0
M  V30 9131 C 841.282 2.58218 2.32849 0
M  V30 9132 H 840.605 3.41302 2.08214 0
M  V30 9133 H 842.045 2.97289 3.02316 0
M  V30 9134 C 840.504 1.48664 3.02325 0
M  V30 9135 O 841.034 0.857075 3.9245 0
M  V30 9136 N 839.24 1.21938 2.63779 0
M  V30 9137 H 838.787 1.73319 1.90574 0
M  V30 9138 H 838.745 0.488523 3.10581 0
M  V30 9139 N 842.517 -0.29412 1.54831 0
M  V30 9140 C 843.765 -1.02643 1.74094 0
M  V30 9141 C 844.086 -1.87563 0.533402 0
M  V30 9142 O 843.356 -1.9061 -0.452192 0
M  V30 9143 H 841.936 -0.381959 0.641963 0
M  V30 9144 H 844.598 -0.323444 1.92197 0
M  V30 9145 H 843.694 -1.67558 2.63307 0
M  V30 9146 N 843.995 -1.47404 -0.557645 0
M  V30 9147 C 845.241 -1.54235 -1.31679 0
M  V30 9148 C 845.574 -0.203782 -1.93128 0
M  V30 9149 O 844.849 0.787536 -1.77843 0
M  V30 9150 C 845.132 -2.66003 -2.42723 0
M  V30 9151 C 844.985 -4.09475 -1.86145 0
M  V30 9152 C 846.304 -2.73685 -3.44652 0
M  V30 9153 H 843.423 -0.561466 -0.477415 0
M  V30 9154 H 846.065 -1.79459 -0.624067 0
M  V30 9155 H 844.215 -2.44627 -3.01811 0
M  V30 9156 H 845.887 -4.42213 -1.31321 0
M  V30 9157 H 844.13 -4.17774 -1.16823 0
M  V30 9158 H 844.801 -4.83451 -2.66418 0
M  V30 9159 H 847.277 -2.92968 -2.95481 0
M  V30 9160 H 846.153 -3.53665 -4.19777 0
M  V30 9161 H 846.414 -1.80726 -4.03473 0
M  V30 9162 N 845.473 0.80434 -1.35529 0
M  V30 9163 C 846.889 1.10023 -1.15616 0
M  V30 9164 C 847.089 2.01478 0.0298535 0
M  V30 9165 O 846.145 2.42609 0.699778 0
M  V30 9166 C 847.458 1.72905 -2.46017 0
M  V30 9167 C 849.006 1.85315 -2.52245 0
M  V30 9168 C 849.481 2.51612 -3.82695 0
M  V30 9169 N 850.972 2.59095 -3.83958 0
M  V30 9170 C 851.707 3.11167 -4.81625 0
M  V30 9171 N 851.203 3.63659 -5.89681 0
M  V30 9172 N 852.996 3.09741 -4.6906 0
M  V30 9173 H 845.147 0.196428 -2.1149 0
M  V30 9174 H 847.41 0.149735 -0.9361 0
M  V30 9175 H 847.116 1.13171 -3.32994 0
M  V30 9176 H 846.99 2.72579 -2.6073 0
M  V30 9177 H 849.377 2.44191 -1.65695 0
M  V30 9178 H 849.458 0.844886 -2.41444 0
M  V30 9179 H 849.102 1.93385 -4.69643 0
M  V30 9180 H 849.032 3.5298 -3.90785 0
M  V30 9181 H 851.523 2.21908 -3.05884 0
M  V30 9182 H 851.836 4.01699 -6.60195 0
M  V30 9183 H 850.181 3.61852 -5.9337 0
M  V30 9184 H 853.372 2.68011 -3.83781 0
M  V30 9185 H 853.545 3.50016 -5.45338 0
M  V30 9186 N 846.951 1.19563 1.02676 0
M  V30 9187 C 847.881 0.959024 2.12897 0
M  V30 9188 C 848.862 -0.108382 1.69754 0
M  V30 9189 O 850.047 0.0470698 1.94143 0
M  V30 9190 C 847.177 0.499211 3.43693 0
M  V30 9191 C 846.131 1.5087 4.00528 0
M  V30 9192 C 845.457 0.905884 5.2697 0
M  V30 9193 C 846.757 2.88954 4.3509 0
M  V30 9194 H 848.451 1.88084 2.32948 0
M  V30 9195 H 845.997 0.905731 1.11949 0
M  V30 9196 H 847.95 0.320965 4.20176 0
M  V30 9197 H 846.674 -0.458205 3.2337 0
M  V30 9198 H 845.333 1.67413 3.26142 0
M  V30 9199 H 844.981 -0.0591506 5.02965 0
M  V30 9200 H 844.681 1.58 5.65959 0
M  V30 9201 H 846.205 0.73848 6.06118 0
M  V30 9202 H 847.619 2.75981 5.02501 0
M  V30 9203 H 846.016 3.53177 4.85166 0
M  V30 9204 H 847.086 3.41447 3.44299 0
M  V30 9205 N 848.429 -1.21819 0.999893 0
M  V30 9206 C 849.359 -2.26282 0.576096 0
M  V30 9207 C 850.34 -1.65317 -0.400537 0
M  V30 9208 O 851.525 -1.92028 -0.28964 0
M  V30 9209 C 848.655 -3.47147 -0.103145 0
M  V30 9210 C 847.609 -4.20594 0.792745 0
M  V30 9211 C 846.935 -5.34696 -0.0198026 0
M  V30 9212 C 848.235 -4.78533 2.09293 0
M  V30 9213 H 849.929 -2.61984 1.4493 0
M  V30 9214 H 847.475 -1.25935 0.698316 0
M  V30 9215 H 849.428 -4.1939 -0.411068 0
M  V30 9216 H 848.152 -3.1056 -1.01094 0
M  V30 9217 H 846.811 -3.50194 1.08442 0
M  V30 9218 H 846.459 -4.94352 -0.928729 0
M  V30 9219 H 846.159 -5.84764 0.576661 0
M  V30 9220 H 847.683 -6.09752 -0.321659 0
M  V30 9221 H 849.097 -5.42682 1.8485 0
M  V30 9222 H 847.494 -5.38968 2.63881 0
M  V30 9223 H 848.564 -3.98197 2.76708 0
M  V30 9224 N 849.908 -0.773975 -1.37286 0
M  V30 9225 C 850.871 -0.167974 -2.28584 0
M  V30 9226 C 851.871 0.625662 -1.48129 0
M  V30 9227 O 853.061 0.448924 -1.68316 0
M  V30 9228 C 850.193 0.769364 -3.32105 0
M  V30 9229 H 851.386 -0.972806 -2.83684 0
M  V30 9230 H 848.939 -0.542335 -1.46589 0
M  V30 9231 H 849.674 1.59912 -2.82132 0
M  V30 9232 H 849.459 0.202419 -3.91577 0
M  V30 9233 H 850.949 1.18872 -4.00324 0
M  V30 9234 N 851.386 1.48609 -0.524698 0
M  V30 9235 C 852.336 2.26505 0.260696 0
M  V30 9236 C 853.32 1.32378 0.914597 0
M  V30 9237 O 854.512 1.5695 0.818277 0
M  V30 9238 C 851.641 3.17313 1.31024 0
M  V30 9239 C 850.727 4.18911 0.661391 0
M  V30 9240 N 851.118 5.05183 -0.24981 0
M  V30 9241 C 849.416 4.36425 0.91922 0
M  V30 9242 C 850.117 5.78348 -0.623598 0
M  V30 9243 N 849.093 5.43598 0.0140839 0
M  V30 9244 H 852.895 2.90582 -0.440388 0
M  V30 9245 H 850.409 1.5875 -0.342364 0
M  V30 9246 H 852.406 3.71772 1.88656 0
M  V30 9247 H 851.066 2.54791 2.01275 0
M  V30 9248 H 852.077 5.1415 -0.622093 0
M  V30 9249 H 848.754 3.85095 1.6127 0
M  V30 9250 H 850.144 6.57775 -1.37046 0
M  V30 9251 N 852.864 0.259585 1.55447 0
M  V30 9252 C 854.11 -0.362143 1.9954 0
M  V30 9253 C 854.443 -1.5666 1.14767 0
M  V30 9254 O 853.718 -1.93319 0.214025 0
M  V30 9255 C 854.001 -0.759588 3.51998 0
M  V30 9256 C 853.854 0.451134 4.47532 0
M  V30 9257 C 855.173 -1.60186 4.09913 0
M  V30 9258 H 852.292 -0.130157 0.725416 0
M  V30 9259 H 854.934 0.363431 1.86492 0
M  V30 9260 H 853.084 -1.3778 3.63248 0
M  V30 9261 H 854.756 1.08965 4.48246 0
M  V30 9262 H 852.999 1.092 4.19831 0
M  V30 9263 H 853.67 0.129518 5.51848 0
M  V30 9264 H 856.146 -1.0799 4.01842 0
M  V30 9265 H 855.022 -1.84879 5.16828 0
M  V30 9266 H 855.283 -2.57787 3.59163 0
M  V30 9267 N 854.342 -1.57594 -0.0133615 0
M  V30 9268 C 855.591 -1.8916 -0.700103 0
M  V30 9269 C 855.904 -0.860147 -1.75673 0
M  V30 9270 O 857.11 -1.06556 -2.49716 0
M  V30 9271 C 855.566 -3.35742 -1.29635 0
M  V30 9272 C 855.174 -4.47154 -0.275249 0
M  V30 9273 C 856.918 -3.76436 -1.96205 0
M  V30 9274 C 854.825 -5.84805 -0.880726 0
M  V30 9275 H 853.755 -0.705805 -0.265247 0
M  V30 9276 H 856.406 -1.83445 0.044993 0
M  V30 9277 H 854.788 -3.36252 -2.09167 0
M  V30 9278 H 855.962 -4.58139 0.494506 0
M  V30 9279 H 854.277 -4.15394 0.289256 0
M  V30 9280 H 856.874 -4.76606 -2.42386 0
M  V30 9281 H 857.217 -3.09249 -2.78695 0
M  V30 9282 H 857.75 -3.78168 -1.23426 0
M  V30 9283 H 854.489 -6.55431 -0.0949013 0
M  V30 9284 H 854.009 -5.7751 -1.61995 0
M  V30 9285 H 855.688 -6.32038 -1.38338 0
M  V30 9286 N 855.82 0.285905 -1.54985 0
M  V30 9287 C 856.752 1.37505 -1.83371 0
M  V30 9288 C 857.765 1.46138 -0.717454 0
M  V30 9289 O 858.954 1.48186 -0.995142 0
M  V30 9290 C 856.054 2.7575 -1.97016 0
M  V30 9291 C 855.227 2.89866 -3.27561 0
M  V30 9292 C 854.286 4.08704 -3.31433 0
M  V30 9293 O 853.312 4.00073 -4.04883 0
M  V30 9294 N 854.514 5.20062 -2.57907 0
M  V30 9295 H 857.279 1.13505 -2.77375 0
M  V30 9296 H 854.84 0.476006 -1.54744 0
M  V30 9297 H 856.832 3.5352 -1.96991 0
M  V30 9298 H 855.402 2.9263 -1.09938 0
M  V30 9299 H 854.622 1.99085 -3.40234 0
M  V30 9300 H 855.91 2.96219 -4.13681 0
M  V30 9301 H 855.308 5.29958 -1.97891 0
M  V30 9302 H 853.865 5.96111 -2.63619 0
M  V30 9303 N 857.298 1.47698 0.54982 0
M  V30 9304 C 858.245 1.60739 1.65625 0
M  V30 9305 C 859.215 0.450129 1.59884 0
M  V30 9306 O 860.4 0.671123 1.78607 0
M  V30 9307 C 857.54 1.63457 3.03934 0
M  V30 9308 C 856.653 2.90152 3.20056 0
M  V30 9309 C 855.788 2.84157 4.48807 0
M  V30 9310 C 854.827 4.05644 4.58387 0
M  V30 9311 N 853.964 3.97843 5.78503 0
M  V30 9312 H 858.804 2.55234 1.53817 0
M  V30 9313 H 856.341 1.26593 0.749173 0
M  V30 9314 H 858.299 1.63015 3.84034 0
M  V30 9315 H 856.929 0.724689 3.1456 0
M  V30 9316 H 855.981 3.00428 2.33339 0
M  V30 9317 H 857.293 3.80097 3.22998 0
M  V30 9318 H 856.447 2.82006 5.37175 0
M  V30 9319 H 855.186 1.91908 4.48356 0
M  V30 9320 H 854.191 4.08092 3.6843 0
M  V30 9321 H 855.416 4.9903 4.60593 0
M  V30 9322 H 853.362 3.08401 5.78986 0
M  V30 9323 H 853.279 4.81473 5.82855 0
M  V30 9324 H 854.547 3.99719 6.69212 0
M  V30 9325 N 858.776 -0.797141 1.35954 0
M  V30 9326 C 860.025 -1.54983 1.29086 0
M  V30 9327 C 860.338 -1.95167 -0.130003 0
M  V30 9328 O 861.544 -2.69596 -0.32101 0
M  V30 9329 C 860 -2.79738 2.26439 0
M  V30 9330 C 859.608 -2.46753 3.73921 0
M  V30 9331 C 861.352 -3.57733 2.28533 0
M  V30 9332 C 859.259 -3.67858 4.63071 0
M  V30 9333 H 858.189 -0.581766 0.479651 0
M  V30 9334 H 860.84 -0.87541 1.61273 0
M  V30 9335 H 859.222 -3.48939 1.87236 0
M  V30 9336 H 860.396 -1.85499 4.21814 0
M  V30 9337 H 858.711 -1.81985 3.74527 0
M  V30 9338 H 861.308 -4.47699 2.92351 0
M  V30 9339 H 861.651 -3.95754 1.29169 0
M  V30 9340 H 862.184 -2.95504 2.66313 0
M  V30 9341 H 858.923 -3.34939 5.63468 0
M  V30 9342 H 858.443 -4.28305 4.19898 0
M  V30 9343 H 860.122 -4.34977 4.78961 0
M  V30 9344 N 860.254 -1.20106 -1.0204 0
M  V30 9345 C 861.502 -1.0069 -1.75231 0
M  V30 9346 C 861.823 0.462491 -1.89436 0
M  V30 9347 O 861.093 1.33455 -1.4341 0
M  V30 9348 H 859.673 -0.369576 -0.649171 0
M  V30 9349 H 862.335 -1.51149 -1.23044 0
M  V30 9350 H 861.431 -1.46205 -2.75736 0
M  V30 9351 N 861.732 1.21287 -1.00634 0
M  V30 9352 C 862.679 2.23705 -0.567876 0
M  V30 9353 C 863.649 1.61043 0.406753 0
M  V30 9354 O 864.834 1.88289 0.308499 0
M  V30 9355 C 861.974 3.44961 0.097996 0
M  V30 9356 C 861.087 4.22091 -0.919972 0
M  V30 9357 C 860.222 5.30718 -0.226222 0
M  V30 9358 C 859.261 5.99581 -1.23165 0
M  V30 9359 N 858.398 6.99821 -0.565278 0
M  V30 9360 H 863.238 2.60571 -1.44592 0
M  V30 9361 H 860.775 1.28049 -0.724006 0
M  V30 9362 H 862.733 4.1418 0.501097 0
M  V30 9363 H 861.363 3.08818 0.939744 0
M  V30 9364 H 860.415 3.52038 -1.44131 0
M  V30 9365 H 861.727 4.69476 -1.68505 0
M  V30 9366 H 860.881 6.06253 0.232917 0
M  V30 9367 H 859.62 4.84343 0.571247 0
M  V30 9368 H 858.625 5.22816 -1.70128 0
M  V30 9369 H 859.85 6.48042 -2.03022 0
M  V30 9370 H 857.796 6.55656 0.212508 0
M  V30 9371 H 857.713 7.4528 -1.26858 0
M  V30 9372 H 858.981 7.79393 -0.129389 0
M  V30 9373 N 863.21 0.781244 1.36873 0
M  V30 9374 C 864.12 0.174981 2.33947 0
M  V30 9375 C 865.136 -0.668512 1.60645 0
M  V30 9376 O 866.312 -0.586213 1.9268 0
M  V30 9377 C 863.377 -0.686557 3.39834 0
M  V30 9378 C 862.438 0.174489 4.28945 0
M  V30 9379 C 861.671 -0.646024 5.29776 0
M  V30 9380 O 861.894 -1.88254 5.38439 0
M  V30 9381 O 860.828 -0.0502214 6.01879 0
M  V30 9382 H 864.654 0.977382 2.87543 0
M  V30 9383 H 862.239 0.542559 1.392 0
M  V30 9384 H 864.121 -1.1781 4.04597 0
M  V30 9385 H 862.796 -1.46699 2.8855 0
M  V30 9386 H 861.703 0.712604 3.6725 0
M  V30 9387 H 863.036 0.918232 4.83559 0
M  V30 9388 N 864.689 -1.48329 0.532571 0
M  V30 9389 C 865.652 -2.2816 -0.218069 0
M  V30 9390 C 866.652 -1.35526 -0.865409 0
M  V30 9391 O 867.842 -1.58394 -0.725061 0
M  V30 9392 C 864.974 -3.1448 -1.31586 0
M  V30 9393 H 866.167 -2.95987 0.482865 0
M  V30 9394 H 863.72 -1.53612 0.288603 0
M  V30 9395 H 864.455 -2.5129 -2.04997 0
M  V30 9396 H 864.24 -3.82625 -0.856779 0
M  V30 9397 H 865.73 -3.74693 -1.84377 0
M  V30 9398 N 866.167 -0.267825 -1.55308 0
M  V30 9399 C 867.416 0.351635 -1.98611 0
M  V30 9400 C 867.729 1.57522 -1.15957 0
M  V30 9401 O 868.935 2.26717 -1.49371 0
M  V30 9402 C 867.391 0.676986 -3.53475 0
M  V30 9403 C 866.999 -0.526385 -4.44897 0
M  V30 9404 C 868.743 1.25948 -4.05386 0
M  V30 9405 C 866.65 -0.176026 -5.91138 0
M  V30 9406 H 865.58 0.13516 -0.741787 0
M  V30 9407 H 868.231 -0.371333 -1.79704 0
M  V30 9408 H 866.613 1.45866 -3.68156 0
M  V30 9409 H 867.787 -1.30339 -4.41982 0
M  V30 9410 H 866.102 -1.02522 -4.03582 0
M  V30 9411 H 868.699 1.53529 -5.12184 0
M  V30 9412 H 869.042 2.19094 -3.53982 0
M  V30 9413 H 869.575 0.540253 -3.94114 0
M  V30 9414 H 866.314 -1.07518 -6.46622 0
M  V30 9415 H 865.834 0.564363 -5.97139 0
M  V30 9416 H 867.513 0.234365 -6.46575 0
M  V30 9417 N 867.645 1.57599 0.00500368 0
M  V30 9418 C 868.891 1.90631 0.691919 0
M  V30 9419 C 869.224 0.868443 1.737 0
M  V30 9420 O 868.499 -0.113482 1.94169 0
M  V30 9421 C 868.782 3.34255 1.33961 0
M  V30 9422 C 868.635 4.48755 0.306413 0
M  V30 9423 C 869.954 3.77211 2.26715 0
M  V30 9424 H 867.073 0.693279 0.250066 0
M  V30 9425 H 869.715 1.89946 -0.0452634 0
M  V30 9426 H 867.865 3.3497 1.96793 0
M  V30 9427 H 869.537 4.60176 -0.321841 0
M  V30 9428 H 867.78 4.32203 -0.371852 0
M  V30 9429 H 868.451 5.46193 0.798554 0
M  V30 9430 H 870.927 3.78017 1.73904 0
M  V30 9431 H 869.803 4.78466 2.69002 0
M  V30 9432 H 870.064 3.10801 3.14413 0
M  V30 9433 N 869.123 -0.277682 1.55134 0
M  V30 9434 C 870.372 -1.00766 1.74726 0
M  V30 9435 C 870.685 -1.87617 0.553092 0
M  V30 9436 O 871.891 -2.64058 0.631318 0
M  V30 9437 C 870.347 -1.84147 3.09221 0
M  V30 9438 C 869.955 -1.02186 4.3619 0
M  V30 9439 C 871.699 -2.56604 3.38164 0
M  V30 9440 C 869.606 -1.84978 5.61727 0
M  V30 9441 H 868.536 -0.379948 0.651273 0
M  V30 9442 H 871.187 -0.263543 1.81598 0
M  V30 9443 H 869.569 -2.62637 2.96375 0
M  V30 9444 H 870.743 -0.281459 4.5994 0
M  V30 9445 H 869.058 -0.412054 4.14356 0
M  V30 9446 H 871.655 -3.18942 4.29162 0
M  V30 9447 H 871.998 -3.26647 2.58085 0
M  V30 9448 H 872.531 -1.85147 3.52087 0
M  V30 9449 H 869.27 -1.19365 6.4454 0
M  V30 9450 H 868.79 -2.56628 5.42128 0
M  V30 9451 H 870.469 -2.42458 5.99853 0
M  V30 9452 N 870.601 -1.47988 -0.541979 0
M  V30 9453 C 871.847 -1.56604 -1.29795 0
M  V30 9454 C 872.202 -0.231728 -1.90999 0
M  V30 9455 O 871.495 0.764203 -1.757 0
M  V30 9456 C 871.689 -2.63189 -2.41798 0
M  V30 9457 C 871.518 -4.06855 -1.9157 0
M  V30 9458 C 870.288 -4.74132 -1.74719 0
M  V30 9459 C 872.486 -4.934 -1.45123 0
M  V30 9460 N 870.468 -6.02258 -1.18991 0
M  V30 9461 C 871.839 -6.11675 -1.01263 0
M  V30 9462 C 873.894 -4.7972 -1.33315 0
M  V30 9463 C 872.597 -7.17778 -0.467663 0
M  V30 9464 C 874.623 -5.85934 -0.802192 0
M  V30 9465 C 873.985 -7.03409 -0.373595 0
M  V30 9466 H 870.084 -0.627677 -0.466418 0
M  V30 9467 H 872.668 -1.84812 -0.612576 0
M  V30 9468 H 870.839 -2.36823 -3.07846 0
M  V30 9469 H 872.571 -2.6156 -3.08818 0
M  V30 9470 H 869.326 -4.30276 -1.97887 0
M  V30 9471 H 869.75 -6.70558 -0.931715 0
M  V30 9472 H 874.392 -3.89249 -1.6506 0
M  V30 9473 H 872.11 -8.07982 -0.137874 0
M  V30 9474 H 875.696 -5.774 -0.714171 0
M  V30 9475 H 874.576 -7.84194 0.0308796 0
M  V30 9476 N 872.079 0.78992 -1.36375 0
M  V30 9477 C 873.327 1.54472 -1.30319 0
M  V30 9478 C 873.648 1.94647 0.117338 0
M  V30 9479 O 872.918 1.64906 1.05748 0
M  V30 9480 H 871.498 0.572879 -0.479394 0
M  V30 9481 H 874.16 0.941245 -1.70665 0
M  V30 9482 H 873.256 2.45252 -1.93024 0
M  V30 9483 N 873.557 1.20646 1.01402 0
M  V30 9484 C 874.489 0.915392 2.10127 0
M  V30 9485 C 875.502 -0.0978705 1.62506 0
M  V30 9486 O 876.691 0.133477 1.78 0
M  V30 9487 C 873.791 0.351304 3.37074 0
M  V30 9488 C 872.964 1.41673 4.13821 0
M  V30 9489 C 872.023 0.8635 5.19067 0
M  V30 9490 O 871.049 1.54481 5.47836 0
M  V30 9491 N 872.251 -0.325799 5.79585 0
M  V30 9492 H 875.016 1.85132 2.35682 0
M  V30 9493 H 872.577 1.11048 1.17813 0
M  V30 9494 H 874.569 -0.032996 4.04687 0
M  V30 9495 H 873.139 -0.489242 3.08748 0
M  V30 9496 H 872.359 1.97526 3.41141 0
M  V30 9497 H 873.647 2.1342 4.61876 0
M  V30 9498 H 873.045 -0.896534 5.58551 0
M  V30 9499 H 871.602 -0.651708 6.48534 0
M  V30 9500 N 875.035 -1.20752 1.01276 0
M  V30 9501 C 876.281 -1.90302 0.700924 0
M  V30 9502 C 876.614 -1.78406 -0.767142 0
M  V30 9503 O 875.889 -1.16575 -1.55694 0
M  V30 9504 C 876.172 -3.41831 1.13242 0
M  V30 9505 C 876.025 -3.6268 2.66051 0
M  V30 9506 C 877.344 -4.34486 0.700738 0
M  V30 9507 H 874.463 -0.69107 0.256107 0
M  V30 9508 H 877.105 -1.42227 1.25982 0
M  V30 9509 H 875.255 -3.82906 0.656902 0
M  V30 9510 H 876.927 -3.30882 3.21426 0
M  V30 9511 H 875.17 -3.06281 3.07204 0
M  V30 9512 H 875.841 -4.68882 2.91296 0
M  V30 9513 H 878.317 -4.01036 1.10948 0
M  V30 9514 H 877.193 -5.39136 1.03073 0
M  V30 9515 H 877.454 -4.40307 -0.39778 0
M  V30 9516 N 876.513 -0.788492 -1.36457 0
M  V30 9517 C 877.924 -0.423742 -1.81828 0
M  V30 9518 C 878.275 1.05221 -1.65599 0
M  V30 9519 O 877.4 1.8163 -1.17641 0
M  V30 9520 C 877.995 -0.762354 -3.30112 0
M  V30 9521 C 876.554 -0.450445 -3.73695 0
M  V30 9522 C 875.701 -0.997482 -2.58738 0
M  V30 9523 H 878.652 -0.981718 -1.24692 0
M  V30 9524 H 878.673 -0.0531136 -3.80463 0
M  V30 9525 H 878.185 -1.83662 -3.41891 0
M  V30 9526 H 876.286 0.615829 -3.67476 0
M  V30 9527 H 876.399 -0.970408 -4.69169 0
M  V30 9528 H 874.763 -0.420761 -2.51201 0
M  V30 9529 H 875.546 -2.07749 -2.73304 0
M  V30 9530 N 877.991 1.48044 -0.54043 0
M  V30 9531 C 878.938 2.29781 0.216597 0
M  V30 9532 C 879.908 1.38021 0.924094 0
M  V30 9533 O 881.093 1.66985 0.923078 0
M  V30 9534 C 878.233 3.21623 1.2511 0
M  V30 9535 C 877.346 4.28467 0.551384 0
M  V30 9536 C 876.481 5.07477 1.56972 0
M  V30 9537 C 875.52 6.06113 0.854048 0
M  V30 9538 N 874.657 6.78143 1.81842 0
M  V30 9539 H 879.497 2.94001 -0.486578 0
M  V30 9540 H 877.034 1.44929 -0.251789 0
M  V30 9541 H 878.992 3.73279 1.8633 0
M  V30 9542 H 877.622 2.59305 1.92252 0
M  V30 9543 H 876.674 3.79997 -0.174982 0
M  V30 9544 H 877.986 4.98799 -0.0100542 0
M  V30 9545 H 877.14 5.63199 2.25592 0
M  V30 9546 H 875.879 4.37008 2.16507 0
M  V30 9547 H 874.884 5.49585 0.153838 0
M  V30 9548 H 876.109 6.78584 0.264675 0
M  V30 9549 H 874.055 6.10417 2.40265 0
M  V30 9550 H 873.972 7.44587 1.3087 0
M  V30 9551 H 875.24 7.38448 2.49628 0
M  V30 9552 N 879.47 0.276058 1.55163 0
M  V30 9553 C 880.717 -0.340455 1.99618 0
M  V30 9554 C 881.045 -1.5579 1.16446 0
M  V30 9555 O 880.3 -1.94433 0.222359 0
M  V30 9556 C 880.599 -0.765744 3.491 0
M  V30 9557 C 880.265 0.347174 4.49561 0
M  V30 9558 C 878.927 0.65276 4.76752 0
M  V30 9559 C 881.279 1.09705 5.09523 0
M  V30 9560 C 878.607 1.71179 5.61173 0
M  V30 9561 C 880.959 2.14581 5.95095 0
M  V30 9562 C 879.623 2.45773 6.20606 0
M  V30 9563 H 878.893 -0.124581 0.730452 0
M  V30 9564 H 881.54 0.389966 1.87487 0
M  V30 9565 H 879.845 -1.57585 3.58712 0
M  V30 9566 H 881.542 -1.25352 3.80904 0
M  V30 9567 H 878.132 0.0988779 4.28486 0
M  V30 9568 H 882.316 0.874223 4.8854 0
M  V30 9569 H 877.572 1.95846 5.79184 0
M  V30 9570 H 881.746 2.7316 6.40591 0
M  V30 9571 H 879.373 3.27969 6.85813 0
M  V30 9572 N 880.948 -1.576 0.00335426 0
M  V30 9573 C 881.898 -2.05116 -0.995562 0
M  V30 9574 C 882.882 -0.946535 -1.30113 0
M  V30 9575 O 884.074 -1.21028 -1.29156 0
M  V30 9576 C 881.203 -2.56077 -2.28648 0
M  V30 9577 C 880.289 -3.73422 -2.0104 0
M  V30 9578 N 880.68 -4.84986 -1.43603 0
M  V30 9579 C 878.978 -3.81416 -2.31166 0
M  V30 9580 C 879.679 -5.66399 -1.32542 0
M  V30 9581 N 878.655 -5.12505 -1.81218 0
M  V30 9582 H 882.457 -2.88783 -0.546025 0
M  V30 9583 H 879.971 -1.61135 -0.202265 0
M  V30 9584 H 881.968 -2.88395 -3.01055 0
M  V30 9585 H 880.628 -1.73829 -2.74251 0
M  V30 9586 H 881.639 -5.05768 -1.11439 0
M  V30 9587 H 878.316 -3.1003 -2.7962 0
M  V30 9588 H 879.706 -6.66066 -0.88348 0
M  V30 9589 N 882.426 0.269451 -1.5528 0
M  V30 9590 C 883.356 1.33729 -1.91413 0
M  V30 9591 C 884.337 1.51348 -0.776391 0
M  V30 9592 O 885.522 1.64332 -1.03482 0
M  V30 9593 C 882.652 2.69618 -2.18914 0
M  V30 9594 C 881.606 2.66725 -3.34726 0
M  V30 9595 C 880.932 4.06199 -3.47716 0
M  V30 9596 C 882.232 2.25684 -4.71025 0
M  V30 9597 H 883.926 1.03736 -2.80854 0
M  V30 9598 H 881.472 0.497579 -1.3513 0
M  V30 9599 H 883.425 3.44436 -2.42779 0
M  V30 9600 H 882.149 3.01201 -1.26275 0
M  V30 9601 H 880.808 1.94365 -3.10834 0
M  V30 9602 H 880.456 4.3501 -2.52537 0
M  V30 9603 H 880.156 4.05157 -4.25583 0
M  V30 9604 H 881.68 4.8275 -3.73877 0
M  V30 9605 H 883.094 2.90225 -4.94411 0
M  V30 9606 H 881.491 2.35797 -5.51833 0
M  V30 9607 H 882.561 1.20819 -4.69607 0
M  V30 9608 N 883.904 1.48273 0.534124 0
M  V30 9609 C 885.315 1.49667 1.1161 0
M  V30 9610 C 885.666 0.264139 1.94414 0
M  V30 9611 O 884.791 -0.629084 2.07054 0
M  V30 9612 C 885.386 2.71191 2.03079 0
M  V30 9613 C 883.945 2.7547 2.56502 0
M  V30 9614 C 883.092 2.43119 1.33373 0
M  V30 9615 H 886.043 1.55449 0.319578 0
M  V30 9616 H 886.064 2.49473 2.87304 0
M  V30 9617 H 885.576 3.60879 1.42785 0
M  V30 9618 H 883.677 1.89979 3.20529 0
M  V30 9619 H 883.79 3.76787 2.95919 0
M  V30 9620 H 882.154 1.94187 1.64813 0
M  V30 9621 H 882.937 3.35044 0.748375 0
M  V30 9622 N 885.382 -0.782676 1.36792 0
M  V30 9623 C 886.628 -1.54311 1.3159 0
M  V30 9624 C 886.961 -1.93928 -0.102696 0
M  V30 9625 O 886.236 -1.63233 -1.05761 0
M  V30 9626 C 886.519 -2.81561 2.24489 0
M  V30 9627 C 886.372 -2.48268 3.75078 0
M  V30 9628 C 887.691 -3.83428 2.16034 0
M  V30 9629 H 884.81 -0.559828 0.479335 0
M  V30 9630 H 887.452 -0.898717 1.67401 0
M  V30 9631 H 885.602 -3.36549 1.9408 0
M  V30 9632 H 887.274 -1.99279 4.16036 0
M  V30 9633 H 885.517 -1.81116 3.94182 0
M  V30 9634 H 886.188 -3.39183 4.35499 0
M  V30 9635 H 888.664 -3.37905 2.42815 0
M  V30 9636 H 887.54 -4.70204 2.83194 0
M  V30 9637 H 887.801 -4.26887 1.14976 0
M  V30 9638 N 886.86 -1.21182 -1.00761 0
M  V30 9639 C 887.77 -0.984691 -2.12934 0
M  V30 9640 C 888.786 0.0623657 -1.73888 0
M  V30 9641 O 889.962 -0.1271 -2.00999 0
M  V30 9642 C 887.027 -0.549447 -3.42319 0
M  V30 9643 C 886.088 -1.66841 -3.95553 0
M  V30 9644 C 885.321 -1.25384 -5.18763 0
M  V30 9645 O 885.544 -0.126333 -5.7026 0
M  V30 9646 O 884.478 -2.06475 -5.65377 0
M  V30 9647 H 888.304 -1.92413 -2.3497 0
M  V30 9648 H 885.889 -0.99647 -1.11314 0
M  V30 9649 H 887.771 -0.316384 -4.20211 0
M  V30 9650 H 886.446 0.361304 -3.21677 0
M  V30 9651 H 885.353 -1.95585 -3.189 0
M  V30 9652 H 886.686 -2.55649 -4.206 0
M  V30 9653 N 888.338 1.20213 -1.01915 0
M  V30 9654 C 889.285 2.2309 -0.591571 0
M  V30 9655 C 890.255 1.61465 0.389649 0
M  V30 9656 O 891.44 1.88606 0.288511 0
M  V30 9657 C 888.58 3.45045 0.0614028 0
M  V30 9658 C 887.693 4.21091 -0.964688 0
M  V30 9659 C 886.828 5.30448 -0.282499 0
M  V30 9660 C 885.867 5.98241 -1.29517 0
M  V30 9661 N 885.004 6.99182 -0.639472 0
M  V30 9662 H 889.844 2.59023 -1.47347 0
M  V30 9663 H 887.381 1.27274 -0.737547 0
M  V30 9664 H 889.339 4.14688 0.45714 0
M  V30 9665 H 887.969 3.09797 0.906937 0
M  V30 9666 H 887.021 3.50489 -1.47857 0
M  V30 9667 H 888.333 4.67662 -1.73475 0
M  V30 9668 H 887.487 6.06466 0.168603 0
M  V30 9669 H 886.226 4.84922 0.519843 0
M  V30 9670 H 885.231 5.20982 -1.75663 0
M  V30 9671 H 886.456 6.45853 -2.09884 0
M  V30 9672 H 884.402 6.55844 0.142955 0
M  V30 9673 H 884.319 7.43893 -1.34756 0
M  V30 9674 H 885.587 7.79212 -0.212047 0
M  V30 9675 N 889.816 0.795718 1.36037 0
M  V30 9676 C 891.093 0.294743 1.93367 0
M  V30 9677 C 891.473 -1.21406 1.72696 0
M  V30 9678 O 890.821 -2.00849 1.08959 0
M  V30 9679 C 891.031 0.694254 3.42025 0
M  V30 9680 C 892.379 0.677566 4.19159 0
M  V30 9681 O 893.403 0.635119 3.50492 0
M  V30 9682 O 892.262 0.726127 5.41655 0
M  V30 9683 H 889.356 0.0745459 0.823633 0
M  V30 9684 H 891.902 0.878685 1.4518 0
M  V30 9685 H 890.674 1.73458 3.50753 0
M  V30 9686 H 890.297 0.0845338 3.9751 0
M  V30 9687 N 891.294 -1.47756 0.548274 0
M  V30 9688 C 892.54 -2.02789 0.0209265 0
M  V30 9689 C 892.873 -1.42268 -1.32187 0
M  V30 9690 O 892.148 -0.575001 -1.85806 0
M  V30 9691 C 892.431 -3.60007 -0.0816674 0
M  V30 9692 C 892.284 -4.30977 1.28759 0
M  V30 9693 C 893.603 -4.32777 -0.799515 0
M  V30 9694 H 890.722 -0.736944 0.00907884 0
M  V30 9695 H 893.364 -1.76282 0.708839 0
M  V30 9696 H 891.514 -3.82722 -0.667537 0
M  V30 9697 H 893.186 -4.19629 1.91597 0
M  V30 9698 H 891.429 -3.9168 1.86466 0
M  V30 9699 H 892.1 -5.39488 1.16861 0
M  V30 9700 H 894.576 -4.15001 -0.30216 0
M  V30 9701 H 893.452 -5.42431 -0.840239 0
M  V30 9702 H 893.713 -4.01358 -1.85375 0
M  V30 9703 N 892.772 -0.284283 -1.55015 0
M  V30 9704 C 894.018 0.3233 -2.00814 0
M  V30 9705 C 894.373 1.52796 -1.16923 0
M  V30 9706 O 893.666 1.90172 -0.233499 0
M  V30 9707 C 893.86 0.747219 -3.49502 0
M  V30 9708 C 893.689 -0.414821 -4.47783 0
M  V30 9709 C 892.459 -0.901531 -4.97193 0
M  V30 9710 C 894.657 -1.25433 -4.9877 0
M  V30 9711 N 892.639 -2.03208 -5.79292 0
M  V30 9712 C 894.01 -2.23262 -5.78406 0
M  V30 9713 C 896.065 -1.28662 -4.80989 0
M  V30 9714 C 894.768 -3.24077 -6.42158 0
M  V30 9715 C 896.794 -2.28326 -5.45547 0
M  V30 9716 C 896.156 -3.24887 -6.25002 0
M  V30 9717 H 892.255 0.0832226 -0.777559 0
M  V30 9718 H 894.839 -0.410393 -1.90326 0
M  V30 9719 H 893.01 1.45012 -3.60314 0
M  V30 9720 H 894.742 1.33292 -3.8212 0
M  V30 9721 H 891.497 -0.479291 -4.71169 0
M  V30 9722 H 891.921 -2.60125 -6.25031 0
M  V30 9723 H 896.563 -0.553858 -4.19157 0
M  V30 9724 H 894.281 -3.98281 -7.03134 0
M  V30 9725 H 897.867 -2.31578 -5.33726 0
M  V30 9726 H 896.747 -4.00745 -6.74072 0
M  V30 9727 N 894.251 1.57596 -0.0117121 0
M  V30 9728 C 895.161 2.12596 0.991964 0
M  V30 9729 C 896.177 1.07399 1.36899 0
M  V30 9730 O 897.353 1.39365 1.45394 0
M  V30 9731 C 894.418 2.62796 2.2614 0
M  V30 9732 C 893.479 3.8264 1.94642 0
M  V30 9733 C 892.712 4.30435 3.15533 0
M  V30 9734 O 892.935 3.77495 4.27614 0
M  V30 9735 O 891.869 5.22469 2.98847 0
M  V30 9736 H 895.695 2.98597 0.554371 0
M  V30 9737 H 893.28 1.47947 0.207839 0
M  V30 9738 H 895.162 2.9523 3.00695 0
M  V30 9739 H 893.837 1.79886 2.69114 0
M  V30 9740 H 892.744 3.5516 1.17526 0
M  V30 9741 H 894.077 4.66658 1.56496 0
M  V30 9742 N 895.729 -0.261212 1.5542 0
M  V30 9743 C 896.661 -1.34571 1.85535 0
M  V30 9744 C 897.674 -1.44979 0.740612 0
M  V30 9745 O 898.863 -1.46584 1.01859 0
M  V30 9746 C 895.963 -2.7258 2.01378 0
M  V30 9747 C 895.136 -2.84618 3.32131 0
M  V30 9748 C 894.195 -4.03379 3.37893 0
M  V30 9749 O 893.221 -3.93581 4.11197 0
M  V30 9750 N 894.423 -5.15893 2.66148 0
M  V30 9751 H 897.188 -1.09078 2.79145 0
M  V30 9752 H 894.749 -0.451327 1.55482 0
M  V30 9753 H 896.741 -3.50342 2.0259 0
M  V30 9754 H 895.311 -2.90844 1.14579 0
M  V30 9755 H 894.531 -1.93647 3.43358 0
M  V30 9756 H 895.819 -2.896 4.18341 0
M  V30 9757 H 895.217 -5.26743 2.06297 0
M  V30 9758 H 893.774 -5.91842 2.73069 0
M  V30 9759 N 897.207 -1.48554 -0.526253 0
M  V30 9760 C 898.453 -1.57972 -1.28127 0
M  V30 9761 C 898.808 -0.251973 -1.90743 0
M  V30 9762 O 898.101 0.745524 -1.76501 0
M  V30 9763 C 898.295 -2.65739 -2.38993 0
M  V30 9764 C 898.124 -4.08864 -1.87244 0
M  V30 9765 C 896.894 -4.75959 -1.6968 0
M  V30 9766 C 899.092 -4.94912 -1.39882 0
M  V30 9767 N 897.074 -6.03486 -1.12596 0
M  V30 9768 C 898.445 -6.12714 -0.947696 0
M  V30 9769 C 900.5 -4.81107 -1.2822 0
M  V30 9770 C 899.203 -7.18234 -0.391507 0
M  V30 9771 C 901.229 -5.86752 -0.740001 0
M  V30 9772 C 900.591 -7.03765 -0.298968 0
M  V30 9773 H 896.69 -0.632588 -0.459735 0
M  V30 9774 H 899.274 -1.85452 -0.59294 0
M  V30 9775 H 897.445 -2.40075 -3.05317 0
M  V30 9776 H 899.177 -2.64821 -3.06026 0
M  V30 9777 H 895.932 -4.32351 -1.93312 0
M  V30 9778 H 896.356 -6.71509 -0.860541 0
M  V30 9779 H 900.998 -3.90978 -1.60922 0
M  V30 9780 H 898.716 -8.08083 -0.0521685 0
M  V30 9781 H 902.302 -5.78125 -0.652889 0
M  V30 9782 H 901.182 -7.84117 0.114052 0
M  V30 9783 N 898.685 0.775411 -1.37205 0
M  V30 9784 C 899.931 1.53533 -1.33414 0
M  V30 9785 C 900.286 1.92225 0.0819435 0
M  V30 9786 O 899.579 1.60935 1.03974 0
M  V30 9787 C 899.773 2.81377 -2.20367 0
M  V30 9788 C 899.602 2.5518 -3.70288 0
M  V30 9789 C 898.372 2.49493 -4.3941 0
M  V30 9790 C 900.57 2.23425 -4.63234 0
M  V30 9791 N 898.552 2.15341 -5.74892 0
M  V30 9792 C 899.923 1.99381 -5.87067 0
M  V30 9793 C 901.978 2.09549 -4.51657 0
M  V30 9794 C 900.681 1.62863 -7.0062 0
M  V30 9795 C 902.707 1.74431 -5.65091 0
M  V30 9796 C 902.069 1.51245 -6.87971 0
M  V30 9797 H 898.168 0.562278 -0.543477 0
M  V30 9798 H 900.752 0.90495 -1.72391 0
M  V30 9799 H 898.923 3.42259 -1.83612 0
M  V30 9800 H 900.655 3.4724 -2.07861 0
M  V30 9801 H 897.41 2.65221 -3.9237 0
M  V30 9802 H 897.834 2.00972 -6.46482 0
M  V30 9803 H 902.476 2.26159 -3.57228 0
M  V30 9804 H 900.194 1.44991 -7.94986 0
M  V30 9805 H 903.78 1.64359 -5.58102 0
M  V30 9806 H 902.66 1.24472 -7.74259 0
M  V30 9807 N 900.163 1.21714 1.00117 0
M  V30 9808 C 901.391 1.06278 1.77518 0
M  V30 9809 C 901.806 -0.387193 1.84787 0
M  V30 9810 O 901.163 -1.26854 1.31203 0
M  V30 9811 C 901.214 1.65795 3.21239 0
M  V30 9812 O 900.935 3.05119 3.14378 0
M  V30 9813 C 902.436 1.55521 4.15124 0
M  V30 9814 H 899.656 0.373013 0.557765 0
M  V30 9815 H 902.2 1.61133 1.25922 0
M  V30 9816 H 900.355 1.15022 3.69931 0
M  V30 9817 H 900.769 3.33643 4.04701 0
M  V30 9818 H 902.243 2.01902 5.13751 0
M  V30 9819 H 902.72 0.510307 4.36225 0
M  V30 9820 H 903.326 2.0556 3.72324 0
M  V30 9821 N 901.641 -1.19671 1.02551 0
M  V30 9822 C 902.918 -1.85014 0.634771 0
M  V30 9823 C 903.298 -1.91574 -0.886706 0
M  V30 9824 O 902.646 -1.43022 -1.78205 0
M  V30 9825 C 902.856 -3.24167 1.29292 0
M  V30 9826 C 904.204 -4.00363 1.41402 0
M  V30 9827 O 905.228 -3.33553 1.24983 0
M  V30 9828 O 904.087 -5.2003 1.6802 0
M  V30 9829 H 901.181 -0.797147 0.220196 0
M  V30 9830 H 903.727 -1.27188 1.12345 0
M  V30 9831 H 902.499 -3.14208 2.33215 0
M  V30 9832 H 902.122 -3.89634 0.791895 0
M  V30 9833 N 903.119 -0.802921 -1.35613 0
M  V30 9834 C 904.349 -0.393359 -2.02821 0
M  V30 9835 C 904.757 0.999282 -1.60658 0
M  V30 9836 O 904.1 1.65463 -0.797977 0
M  V30 9837 C 904.162 -0.393102 -3.57344 0
M  V30 9838 C 903.826 -1.73563 -4.22759 0
M  V30 9839 C 904.823 -2.69333 -4.44698 0
M  V30 9840 C 902.508 -2.01863 -4.59953 0
M  V30 9841 C 904.502 -3.91589 -5.02928 0
M  V30 9842 C 902.189 -3.24383 -5.17898 0
M  V30 9843 C 903.187 -4.19064 -5.39328 0
M  V30 9844 O 902.875 -5.39422 -5.96053 0
M  V30 9845 H 902.607 -0.158431 -0.657172 0
M  V30 9846 H 905.161 -1.08682 -1.74291 0
M  V30 9847 H 903.391 0.356934 -3.85049 0
M  V30 9848 H 905.08 -0.00635596 -4.059 0
M  V30 9849 H 905.846 -2.48759 -4.16346 0
M  V30 9850 H 901.725 -1.28979 -4.42589 0
M  V30 9851 H 905.269 -4.65502 -5.1957 0
M  V30 9852 H 901.166 -3.44829 -5.45677 0
M  V30 9853 H 901.934 -5.40669 -6.14507 0
M  V30 9854 N 904.597 1.47463 -0.556102 0
M  V30 9855 C 905.843 2.03361 -0.039909 0
M  V30 9856 C 906.198 1.42292 1.29502 0
M  V30 9857 O 905.491 0.568813 1.82962 0
M  V30 9858 C 905.685 3.57224 0.112126 0
M  V30 9859 C 905.514 4.33213 -1.20652 0
M  V30 9860 C 904.284 4.73153 -1.77352 0
M  V30 9861 C 906.482 4.68415 -2.12348 0
M  V30 9862 N 904.464 5.33781 -3.03233 0
M  V30 9863 C 905.835 5.29334 -3.22808 0
M  V30 9864 C 907.89 4.50344 -2.12356 0
M  V30 9865 C 906.593 5.7409 -4.33374 0
M  V30 9866 C 908.619 4.96098 -3.21933 0
M  V30 9867 C 907.981 5.57065 -4.31112 0
M  V30 9868 H 904.08 0.779939 -0.0567407 0
M  V30 9869 H 906.664 1.79959 -0.743147 0
M  V30 9870 H 904.835 3.80395 0.784485 0
M  V30 9871 H 906.567 3.99762 0.630285 0
M  V30 9872 H 903.322 4.55074 -1.31165 0
M  V30 9873 H 903.746 5.6864 -3.67393 0
M  V30 9874 H 908.388 4.02566 -1.29229 0
M  V30 9875 H 906.106 6.2086 -5.17261 0
M  V30 9876 H 909.692 4.83887 -3.23024 0
M  V30 9877 H 908.572 5.91824 -5.14504 0
M  V30 9878 N 906.075 0.2925 1.54862 0
M  V30 9879 C 907.007 -0.620889 2.2063 0
M  V30 9880 C 908.02 -1.10412 1.19637 0
M  V30 9881 O 909.209 -1.02304 1.46274 0
M  V30 9882 C 906.309 -1.861 2.83232 0
M  V30 9883 C 905.482 -1.52168 4.10078 0
M  V30 9884 C 904.541 -2.61605 4.56562 0
M  V30 9885 O 903.567 -2.27056 5.21952 0
M  V30 9886 N 904.769 -3.9199 4.28163 0
M  V30 9887 H 907.534 -0.0579028 2.99644 0
M  V30 9888 H 905.095 0.114333 1.61496 0
M  V30 9889 H 907.087 -2.58642 3.11266 0
M  V30 9890 H 905.657 -2.33259 2.08108 0
M  V30 9891 H 904.877 -0.629283 3.89145 0
M  V30 9892 H 906.165 -1.27023 4.92689 0
M  V30 9893 H 905.563 -4.22872 3.7576 0
M  V30 9894 H 904.12 -4.60857 4.60928 0
M  V30 9895 N 907.553 -1.57587 0.0200696 0
M  V30 9896 C 908.799 -1.91708 -0.661503 0
M  V30 9897 C 909.132 -0.895968 -1.72296 0
M  V30 9898 O 908.407 0.082577 -1.94325 0
M  V30 9899 C 908.69 -3.36344 -1.28627 0
M  V30 9900 C 908.543 -4.49186 -0.234982 0
M  V30 9901 C 909.862 -3.80771 -2.20685 0
M  V30 9902 H 906.981 -0.69717 -0.239005 0
M  V30 9903 H 909.623 -1.8985 0.0754764 0
M  V30 9904 H 907.773 -3.38058 -1.91439 0
M  V30 9905 H 909.445 -4.59606 0.395011 0
M  V30 9906 H 907.688 -4.31557 0.440565 0
M  V30 9907 H 908.359 -5.47395 -0.711558 0
M  V30 9908 H 910.835 -3.80735 -1.67868 0
M  V30 9909 H 909.711 -4.82685 -2.61356 0
M  V30 9910 H 909.972 -3.15764 -3.09428 0
M  V30 9911 N 909.032 0.252966 -1.55557 0
M  V30 9912 C 910.26 0.999565 -1.81153 0
M  V30 9913 C 910.675 1.79181 -0.594955 0
M  V30 9914 O 910.032 1.77208 0.436311 0
M  V30 9915 C 910.083 1.94227 -3.04891 0
M  V30 9916 O 909.804 1.18209 -4.21851 0
M  V30 9917 C 911.305 2.80536 -3.43241 0
M  V30 9918 H 908.525 0.294402 -0.602966 0
M  V30 9919 H 911.069 0.277686 -2.02606 0
M  V30 9920 H 909.224 2.6185 -2.85505 0
M  V30 9921 H 909.638 1.81922 -4.9194 0
M  V30 9922 H 911.112 3.42442 -4.32941 0
M  V30 9923 H 911.589 3.51337 -2.6355 0
M  V30 9924 H 912.195 2.18373 -3.64956 0
M  V30 9925 N 910.51 1.48831 0.518367 0
M  V30 9926 C 911.756 1.58649 1.27287 0
M  V30 9927 C 912.111 0.262085 1.90607 0
M  V30 9928 O 911.404 -0.736154 1.76894 0
M  V30 9929 C 911.598 2.67003 2.3758 0
M  V30 9930 C 911.427 4.09851 1.85073 0
M  V30 9931 C 910.197 4.76852 1.67154 0
M  V30 9932 C 912.395 4.95646 1.37256 0
M  V30 9933 N 910.377 6.04075 1.09394 0
M  V30 9934 C 911.748 6.13208 0.915189 0
M  V30 9935 C 913.803 4.8178 1.25666 0
M  V30 9936 C 912.506 7.18431 0.353411 0
M  V30 9937 C 914.532 5.87136 0.708873 0
M  V30 9938 C 913.894 7.03914 0.261642 0
M  V30 9939 H 909.993 0.635017 0.456374 0
M  V30 9940 H 912.577 1.85763 0.583097 0
M  V30 9941 H 910.748 2.41691 3.04039 0
M  V30 9942 H 912.48 2.6644 3.04617 0
M  V30 9943 H 909.235 4.3337 1.91017 0
M  V30 9944 H 909.659 6.71955 0.824917 0
M  V30 9945 H 914.301 3.91826 1.58846 0
M  V30 9946 H 912.019 8.08099 0.00931313 0
M  V30 9947 H 915.605 5.78463 0.622221 0
M  V30 9948 H 914.485 7.84046 -0.155634 0
M  V30 9949 N 911.988 -0.768124 1.37614 0
M  V30 9950 C 913.237 -1.5221 1.32345 0
M  V30 9951 C 913.55 -1.95399 -0.0885761 0
M  V30 9952 O 914.756 -2.70216 -0.263752 0
M  V30 9953 C 913.212 -2.74872 2.32322 0
M  V30 9954 C 912.82 -2.38767 3.79071 0
M  V30 9955 C 914.564 -3.52805 2.36069 0
M  V30 9956 C 912.471 -3.57953 4.7077 0
M  V30 9957 H 911.401 -0.571461 0.491883 0
M  V30 9958 H 914.052 -0.841004 1.63093 0
M  V30 9959 H 912.434 -3.44889 1.94596 0
M  V30 9960 H 913.608 -1.7651 4.25654 0
M  V30 9961 H 911.923 -1.74 3.78303 0
M  V30 9962 H 914.52 -4.41397 3.01782 0
M  V30 9963 H 914.863 -3.92925 1.37535 0
M  V30 9964 H 915.396 -2.89788 2.72521 0
M  V30 9965 H 912.135 -3.22911 5.70446 0
M  V30 9966 H 911.655 -4.19302 4.28889 0
M  V30 9967 H 913.334 -4.2472 4.8808 0
M  V30 9968 N 913.466 -1.22244 -0.994698 0
M  V30 9969 C 914.877 -1.043 -1.5485 0
M  V30 9970 C 915.228 0.394102 -1.92201 0
M  V30 9971 O 914.353 1.27883 -1.74571 0
M  V30 9972 C 914.948 -1.88708 -2.8138 0
M  V30 9973 C 913.507 -1.75067 -3.3321 0
M  V30 9974 C 912.654 -1.85286 -2.06312 0
M  V30 9975 H 915.605 -1.36115 -0.815988 0
M  V30 9976 H 915.626 -1.40342 -3.53673 0
M  V30 9977 H 915.138 -2.93296 -2.54164 0
M  V30 9978 H 913.239 -0.732047 -3.65338 0
M  V30 9979 H 913.352 -2.57632 -4.03934 0
M  V30 9980 H 911.716 -1.28706 -2.19788 0
M  V30 9981 H 912.499 -2.91401 -1.81494 0
M  V30 9982 N 914.944 1.19125 -1.03184 0
M  V30 9983 C 915.854 2.26112 -0.625329 0
M  V30 9984 C 916.87 1.7056 0.344298 0
M  V30 9985 O 918.046 2.0039 0.20144 0
M  V30 9986 C 915.111 3.46697 0.0145169 0
M  V30 9987 C 914.172 4.17419 -1.00299 0
M  V30 9988 C 913.405 5.32247 -0.393581 0
M  V30 9989 O 913.628 5.64724 0.802659 0
M  V30 9990 O 912.562 5.91428 -1.1179 0
M  V30 9991 H 916.388 2.63131 -1.51643 0
M  V30 9992 H 913.973 1.26036 -0.802197 0
M  V30 9993 H 915.855 4.19762 0.371139 0
M  V30 9994 H 914.53 3.11521 0.879581 0
M  V30 9995 H 913.437 3.4646 -1.41125 0
M  V30 9996 H 914.77 4.56573 -1.83852 0
M  V30 9997 N 916.422 0.810101 1.35185 0
M  V30 9998 C 917.668 0.401839 1.99391 0
M  V30 9999 C 918.023 -1.02059 1.63101 0
M  V30 10000 O 917.316 -1.69889 0.8859 0
M  V30 10001 C 917.51 0.526561 3.535 0
M  V30 10002 C 917.339 1.95956 4.04761 0
M  V30 10003 C 916.109 2.58869 4.33953 0
M  V30 10004 C 918.307 2.92459 4.23051 0
M  V30 10005 N 916.289 3.93542 4.71166 0
M  V30 10006 C 917.66 4.12011 4.633 0
M  V30 10007 C 919.715 2.89244 4.05268 0
M  V30 10008 C 918.418 5.28784 4.87627 0
M  V30 10009 C 920.444 4.05223 4.30753 0
M  V30 10010 C 919.806 5.23524 4.71277 0
M  V30 10011 H 915.905 0.194886 0.757327 0
M  V30 10012 H 918.489 1.05209 1.63827 0
M  V30 10013 H 916.66 -0.0937151 3.88287 0
M  V30 10014 H 918.392 0.0925434 4.04594 0
M  V30 10015 H 915.147 2.10198 4.24398 0
M  V30 10016 H 915.571 4.62889 4.94027 0
M  V30 10017 H 920.213 1.98932 3.73076 0
M  V30 10018 H 917.931 6.19666 5.18691 0
M  V30 10019 H 921.517 4.04121 4.18542 0
M  V30 10020 H 920.397 6.11776 4.90612 0
M  V30 10021 N 917.9 -1.47166 0.563914 0
M  V30 10022 C 919.177 -1.95586 -0.0236172 0
M  V30 10023 C 919.557 -1.50655 -1.47872 0
M  V30 10024 O 918.905 -0.748479 -2.15894 0
M  V30 10025 C 919.115 -3.48762 0.128841 0
M  V30 10026 C 920.463 -4.24598 -0.0130544 0
M  V30 10027 O 921.487 -3.56155 0.0567242 0
M  V30 10028 O 920.346 -5.46253 -0.164332 0
M  V30 10029 H 917.44 -0.824793 -0.0603789 0
M  V30 10030 H 919.986 -1.57536 0.63091 0
M  V30 10031 H 918.758 -3.74291 1.14113 0
M  V30 10032 H 918.381 -3.93594 -0.56299 0
M  V30 10033 N 919.378 -0.300708 -1.54705 0
M  V30 10034 C 920.625 0.308654 -2.00134 0
M  V30 10035 C 920.953 1.53918 -1.1891 0
M  V30 10036 O 920.208 1.94054 -0.253263 0
M  V30 10037 C 920.507 0.710108 -3.50275 0
M  V30 10038 C 920.173 -0.418651 -4.48952 0
M  V30 10039 C 918.835 -0.728524 -4.75653 0
M  V30 10040 C 921.187 -1.17797 -5.07714 0
M  V30 10041 C 918.515 -1.80085 -5.58378 0
M  V30 10042 C 920.867 -2.24022 -5.91606 0
M  V30 10043 C 919.531 -2.55616 -6.16617 0
M  V30 10044 H 918.801 0.112945 -0.732342 0
M  V30 10045 H 921.448 -0.419744 -1.86843 0
M  V30 10046 H 919.753 1.51859 -3.61173 0
M  V30 10047 H 921.45 1.19277 -3.8285 0
M  V30 10048 H 918.04 -0.167034 -4.28274 0
M  V30 10049 H 922.224 -0.951835 -4.87087 0
M  V30 10050 H 917.48 -2.05036 -5.75995 0
M  V30 10051 H 921.654 -2.83317 -6.36164 0
M  V30 10052 H 919.281 -3.38839 -6.80509 0
M  V30 10053 N 920.856 1.57574 -0.0284266 0
M  V30 10054 C 922.105 1.9095 0.649704 0
M  V30 10055 C 922.418 0.906421 1.7333 0
M  V30 10056 O 923.624 1.1314 2.46803 0
M  V30 10057 C 922.08 3.39061 1.20687 0
M  V30 10058 C 921.688 4.47726 0.156597 0
M  V30 10059 C 923.432 3.81505 1.86156 0
M  V30 10060 C 921.339 5.86935 0.725365 0
M  V30 10061 H 920.269 0.712589 0.24644 0
M  V30 10062 H 922.92 1.83261 -0.0936143 0
M  V30 10063 H 921.302 3.41679 2.00178 0
M  V30 10064 H 922.476 4.56667 -0.6158 0
M  V30 10065 H 920.791 4.14481 -0.399288 0
M  V30 10066 H 923.388 4.82865 2.29665 0
M  V30 10067 H 923.731 3.16529 2.70398 0
M  V30 10068 H 924.264 3.81307 1.13356 0
M  V30 10069 H 921.003 6.55453 -0.0789081 0
M  V30 10070 H 920.523 5.81602 1.46627 0
M  V30 10071 H 922.202 6.35483 1.21532 0
M  V30 10072 N 922.334 -0.244713 1.55689 0
M  V30 10073 C 923.559 -0.994157 1.8202 0
M  V30 10074 C 923.984 -1.78079 0.60577 0
M  V30 10075 O 923.342 -1.75748 -0.445221 0
M  V30 10076 C 923.39 -1.90599 3.06111 0
M  V30 10077 O 922.494 -2.99804 2.8318 0
M  V30 10078 H 921.835 -0.282767 0.600782 0
M  V30 10079 H 924.365 -0.26504 2.02876 0
M  V30 10080 H 924.375 -2.32023 3.35603 0
M  V30 10081 H 923.05 -1.32763 3.9414 0
M  V30 10082 H 921.627 -2.62493 2.64862 0
M  V30 10083 N 923.813 -1.49104 -0.510467 0
M  V30 10084 C 925.041 -1.61806 -1.28944 0
M  V30 10085 C 925.456 -0.285774 -1.86625 0
M  V30 10086 O 924.813 0.727551 -1.67371 0
M  V30 10087 C 924.864 -2.67966 -2.42645 0
M  V30 10088 O 924.585 -3.96026 -1.87337 0
M  V30 10089 C 926.086 -2.91286 -3.34166 0
M  V30 10090 H 923.306 -0.544999 -0.391429 0
M  V30 10091 H 925.85 -1.95071 -0.613805 0
M  V30 10092 H 924.005 -2.37505 -3.06056 0
M  V30 10093 H 924.419 -4.54427 -2.61909 0
M  V30 10094 H 925.893 -3.69323 -4.1025 0
M  V30 10095 H 926.37 -2.00842 -3.90588 0
M  V30 10096 H 926.976 -3.23127 -2.76531 0
M  V30 10097 N 925.291 0.760815 -1.38019 0
M  V30 10098 C 926.702 1.33773 -1.30237 0
M  V30 10099 C 927.053 1.96148 0.0451153 0
M  V30 10100 O 926.178 1.94574 0.9471 0
M  V30 10101 C 926.773 2.43227 -2.35851 0
M  V30 10102 C 925.332 2.96659 -2.31669 0
M  V30 10103 C 924.479 1.69972 -2.191 0
M  V30 10104 H 927.43 0.560237 -1.48482 0
M  V30 10105 H 927.451 3.22985 -2.01149 0
M  V30 10106 H 926.963 1.978 -3.33911 0
M  V30 10107 H 925.064 3.46433 -1.37167 0
M  V30 10108 H 925.177 3.51529 -3.25521 0
M  V30 10109 H 923.541 1.9332 -1.65829 0
M  V30 10110 H 924.324 1.26633 -3.19091 0
M  V30 10111 N 926.769 1.22769 0.988202 0
M  V30 10112 C 928.18 1.0512 1.54294 0
M  V30 10113 C 928.531 -0.383904 1.92407 0
M  V30 10114 O 927.656 -1.26955 1.75246 0
M  V30 10115 C 928.251 1.90198 2.80375 0
M  V30 10116 C 926.81 1.76831 3.32276 0
M  V30 10117 C 925.957 1.86377 2.05326 0
M  V30 10118 H 928.908 1.36546 0.808758 0
M  V30 10119 H 928.929 1.42216 3.52923 0
M  V30 10120 H 928.441 2.9464 2.52605 0
M  V30 10121 H 926.542 0.751412 3.64945 0
M  V30 10122 H 926.655 2.59771 4.02562 0
M  V30 10123 H 925.019 1.2987 2.19103 0
M  V30 10124 H 925.802 2.9236 1.79946 0
M  V30 10125 N 928.247 -1.18576 1.03814 0
M  V30 10126 C 929.177 -2.24334 0.647795 0
M  V30 10127 C 930.158 -1.66508 -0.34774 0
M  V30 10128 O 931.343 -1.92852 -0.228401 0
M  V30 10129 C 928.473 -3.47299 0.00734922 0
M  V30 10130 C 927.427 -4.17859 0.926152 0
M  V30 10131 C 926.753 -5.34489 0.150317 0
M  V30 10132 C 928.053 -4.71632 2.24411 0
M  V30 10133 H 929.747 -2.57241 1.53191 0
M  V30 10134 H 927.293 -1.23649 0.738028 0
M  V30 10135 H 929.246 -4.20486 -0.277434 0
M  V30 10136 H 927.97 -3.13619 -0.911626 0
M  V30 10137 H 926.629 -3.46567 1.19528 0
M  V30 10138 H 926.277 -4.97056 -0.770985 0
M  V30 10139 H 925.977 -5.82633 0.762407 0
M  V30 10140 H 927.501 -6.10467 -0.127508 0
M  V30 10141 H 928.915 -5.36526 2.02021 0
M  V30 10142 H 927.312 -5.303 2.80894 0
M  V30 10143 H 928.382 -3.89192 2.89236 0
M  V30 10144 N 929.725 -0.817259 -1.34754 0
M  V30 10145 C 930.971 -0.403244 -1.98751 0
M  V30 10146 C 931.304 1.02963 -1.64658 0
M  V30 10147 O 930.579 1.71617 -0.915314 0
M  V30 10148 C 930.862 -0.599188 -3.5508 0
M  V30 10149 C 930.715 -2.07777 -3.98934 0
M  V30 10150 C 932.034 -0.0315656 -4.40089 0
M  V30 10151 H 929.153 -0.147988 -0.721989 0
M  V30 10152 H 931.795 -1.02877 -1.59738 0
M  V30 10153 H 929.945 -0.0667116 -3.88443 0
M  V30 10154 H 931.617 -2.67345 -3.75931 0
M  V30 10155 H 929.86 -2.57031 -3.49453 0
M  V30 10156 H 930.531 -2.16571 -5.07741 0
M  V30 10157 H 933.007 -0.48644 -4.13247 0
M  V30 10158 H 931.883 -0.198507 -5.48541 0
M  V30 10159 H 932.144 1.06302 -4.2913 0
M  V30 10160 N 931.203 1.46865 -0.571711 0
M  V30 10161 C 932.619 1.57897 -0.23255 0
M  V30 10162 C 932.819 1.56836 1.26509 0
M  V30 10163 O 931.875 1.47947 2.04617 0
M  V30 10164 C 933.188 2.87778 -0.872036 0
M  V30 10165 C 934.736 3.01389 -0.844605 0
M  V30 10166 C 935.211 4.33991 -1.46343 0
M  V30 10167 N 936.702 4.40662 -1.42727 0
M  V30 10168 C 937.437 5.41858 -1.87557 0
M  V30 10169 N 936.933 6.49787 -2.4031 0
M  V30 10170 N 938.726 5.32992 -1.7854 0
M  V30 10171 H 930.877 1.45798 -1.54457 0
M  V30 10172 H 933.14 0.694785 -0.644964 0
M  V30 10173 H 932.846 2.94332 -1.92513 0
M  V30 10174 H 932.72 3.75345 -0.373677 0
M  V30 10175 H 935.107 2.94423 0.19984 0
M  V30 10176 H 935.188 2.15327 -1.38087 0
M  V30 10177 H 934.832 4.41714 -2.50701 0
M  V30 10178 H 934.762 5.18809 -0.902479 0
M  V30 10179 H 937.253 3.63263 -1.04155 0
M  V30 10180 H 937.566 7.23199 -2.72403 0
M  V30 10181 H 935.911 6.50637 -2.44329 0
M  V30 10182 H 939.102 4.47575 -1.37093 0
M  V30 10183 H 939.275 6.11716 -2.13794 0
M  V30 10184 N 932.681 0.308908 1.54543 0
M  V30 10185 C 933.611 -0.556657 2.26768 0
M  V30 10186 C 934.592 -1.13145 1.27013 0
M  V30 10187 O 935.777 -1.15931 1.558 0
M  V30 10188 C 932.907 -1.72481 3.01443 0
M  V30 10189 C 931.861 -1.28001 4.08411 0
M  V30 10190 C 931.187 -2.53395 4.70845 0
M  V30 10191 C 932.487 -0.405497 5.20724 0
M  V30 10192 H 934.181 0.0457618 2.99365 0
M  V30 10193 H 931.727 0.0234495 1.43981 0
M  V30 10194 H 933.68 -2.3365 3.50693 0
M  V30 10195 H 932.404 -2.35359 2.26437 0
M  V30 10196 H 931.063 -0.69133 3.60022 0
M  V30 10197 H 930.711 -3.14604 3.92471 0
M  V30 10198 H 930.411 -2.2433 5.43093 0
M  V30 10199 H 931.935 -3.15352 5.22863 0
M  V30 10200 H 933.349 -0.923076 5.6582 0
M  V30 10201 H 931.746 -0.208282 5.99738 0
M  V30 10202 H 932.816 0.567412 4.81569 0
M  V30 10203 N 934.159 -1.57557 0.0367827 0
M  V30 10204 C 935.405 -1.92399 -0.641133 0
M  V30 10205 C 935.738 -0.914191 -1.71336 0
M  V30 10206 O 935.013 0.0619616 -1.94401 0
M  V30 10207 C 935.296 -3.37689 -1.25052 0
M  V30 10208 C 935.149 -4.4941 -0.187326 0
M  V30 10209 C 936.468 -3.8309 -2.16634 0
M  V30 10210 H 933.587 -0.699666 -0.231597 0
M  V30 10211 H 936.229 -1.89759 0.0956083 0
M  V30 10212 H 934.379 -3.40069 -1.87843 0
M  V30 10213 H 936.051 -4.59161 0.443736 0
M  V30 10214 H 934.294 -4.31065 0.486313 0
M  V30 10215 H 934.965 -5.48119 -0.653459 0
M  V30 10216 H 937.441 -3.82494 -1.63821 0
M  V30 10217 H 936.317 -4.85429 -2.56222 0
M  V30 10218 H 936.578 -3.19028 -3.06062 0
M  V30 10219 N 935.637 0.236453 -1.55816 0
M  V30 10220 C 936.884 0.963012 -1.78136 0
M  V30 10221 C 937.212 1.84918 -0.602952 0
M  V30 10222 O 936.467 1.91285 0.413325 0
M  V30 10223 C 936.766 1.84549 -3.06066 0
M  V30 10224 C 936.432 1.11381 -4.36927 0
M  V30 10225 C 935.094 0.911635 -4.72486 0
M  V30 10226 C 937.446 0.596 -5.17781 0
M  V30 10227 C 934.774 0.179515 -5.86425 0
M  V30 10228 C 937.126 -0.122702 -6.32481 0
M  V30 10229 C 935.79 -0.336263 -6.66652 0
M  V30 10230 H 935.06 0.352391 -0.651845 0
M  V30 10231 H 937.707 0.232295 -1.90086 0
M  V30 10232 H 936.012 2.6436 -2.89173 0
M  V30 10233 H 937.709 2.40953 -3.20535 0
M  V30 10234 H 934.299 1.28134 -4.08998 0
M  V30 10235 H 938.483 0.73971 -4.90757 0
M  V30 10236 H 933.739 0.00368224 -6.114 0
M  V30 10237 H 937.913 -0.531516 -6.94369 0
M  V30 10238 H 935.54 -0.905507 -7.54788 0
M  V30 10239 N 937.115 1.49373 0.502552 0
M  V30 10240 C 938.063 1.66411 1.62512 0
M  V30 10241 C 939.057 0.530062 1.60893 0
M  V30 10242 O 940.263 0.709648 1.65421 0
M  V30 10243 H 936.638 0.524707 0.538689 0
M  V30 10244 H 938.609 2.60639 1.45293 0
M  V30 10245 C 937.358 1.74648 3.00655 0
M  V30 10246 H 936.681 2.61285 3.02606 0
M  V30 10247 H 938.121 1.90605 3.78742 0
M  V30 10248 C 936.58 0.490963 3.33303 0
M  V30 10249 O 937.11 -0.384039 3.9986 0
M  V30 10250 N 935.316 0.354375 2.88431 0
M  V30 10251 H 934.863 1.06742 2.34444 0
M  V30 10252 H 934.821 -0.484593 3.10643 0
M  V30 10253 N 938.594 -0.753485 1.38421 0
M  V30 10254 C 939.524 -1.8808 1.38377 0
M  V30 10255 C 940.505 -1.68258 0.249664 0
M  V30 10256 O 941.69 -1.88848 0.45276 0
M  V30 10257 C 938.82 -3.25608 1.20818 0
M  V30 10258 C 937.774 -3.60032 2.31433 0
M  V30 10259 C 937.1 -4.96297 1.9898 0
M  V30 10260 C 938.4 -3.64898 3.73694 0
M  V30 10261 H 940.094 -1.88375 2.32713 0
M  V30 10262 H 937.64 -0.90489 1.12017 0
M  V30 10263 H 939.593 -4.04127 1.19412 0
M  V30 10264 H 938.317 -3.25793 0.229433 0
M  V30 10265 H 936.976 -2.83831 2.32025 0
M  V30 10266 H 936.624 -4.93043 0.995889 0
M  V30 10267 H 936.324 -5.20298 2.73063 0
M  V30 10268 H 937.848 -5.77196 1.99193 0
M  V30 10269 H 939.262 -4.33531 3.75132 0
M  V30 10270 H 937.659 -4.00407 4.46983 0
M  V30 10271 H 938.729 -2.65124 4.06002 0
M  V30 10272 N 940.072 -1.23292 -0.981677 0
M  V30 10273 C 941.318 -1.06582 -1.72535 0
M  V30 10274 C 941.651 0.396538 -1.90108 0
M  V30 10275 O 940.926 1.29363 -1.45243 0
M  V30 10276 C 941.209 -1.7904 -3.12437 0
M  V30 10277 C 941.062 -3.32941 -3.02441 0
M  V30 10278 C 942.381 -1.55185 -4.11832 0
M  V30 10279 H 939.5 -0.388585 -0.626236 0
M  V30 10280 H 942.142 -1.51779 -1.14293 0
M  V30 10281 H 940.292 -1.40619 -3.62158 0
M  V30 10282 H 941.964 -3.80875 -2.60254 0
M  V30 10283 H 940.207 -3.62039 -2.38977 0
M  V30 10284 H 940.878 -3.78827 -4.0149 0
M  V30 10285 H 943.354 -1.88581 -3.70913 0
M  V30 10286 H 942.23 -2.08362 -5.07815 0
M  V30 10287 H 942.491 -0.486925 -4.3941 0
M  V30 10288 N 941.55 1.18024 -1.04442 0
M  V30 10289 C 942.497 2.21785 -0.638759 0
M  V30 10290 C 943.467 1.62255 0.355312 0
M  V30 10291 O 944.652 1.89176 0.24844 0
M  V30 10292 C 941.792 3.45098 -0.0118002 0
M  V30 10293 C 940.905 4.1895 -1.05379 0
M  V30 10294 C 940.04 5.2973 -0.394951 0
M  V30 10295 C 939.079 5.95359 -1.42178 0
M  V30 10296 N 938.216 6.97668 -0.787635 0
M  V30 10297 H 943.056 2.55839 -1.52808 0
M  V30 10298 H 940.593 1.25681 -0.764378 0
M  V30 10299 H 942.551 4.15564 0.369075 0
M  V30 10300 H 941.181 3.11652 0.84102 0
M  V30 10301 H 940.233 3.47274 -1.55258 0
M  V30 10302 H 941.545 4.63877 -1.83355 0
M  V30 10303 H 940.699 6.06687 0.0399244 0
M  V30 10304 H 939.438 4.85915 0.416867 0
M  V30 10305 H 938.443 5.17139 -1.86675 0
M  V30 10306 H 939.668 6.41255 -2.23536 0
M  V30 10307 H 937.614 6.56 0.00380893 0
M  V30 10308 H 937.531 7.40867 -1.50505 0
M  V30 10309 H 938.799 7.78586 -0.377282 0
M  V30 10310 N 943.028 0.824394 1.34319 0
M  V30 10311 C 944.305 0.335692 1.92698 0
M  V30 10312 C 944.685 -1.17715 1.75232 0
M  V30 10313 O 944.033 -1.98493 1.13194 0
M  V30 10314 C 944.243 0.766647 3.40475 0
M  V30 10315 C 945.591 0.766323 4.17627 0
M  V30 10316 O 946.615 0.709321 3.49066 0
M  V30 10317 O 945.474 0.840856 5.39992 0
M  V30 10318 H 942.568 0.0919996 0.821867 0
M  V30 10319 H 945.114 0.909282 1.43283 0
M  V30 10320 H 943.886 1.80859 3.46995 0
M  V30 10321 H 943.509 0.168833 3.97241 0
M  V30 10322 N 944.506 -1.46559 0.579492 0
M  V30 10323 C 945.917 -1.8608 0.152052 0
M  V30 10324 C 946.268 -1.48346 -1.28405 0
M  V30 10325 O 945.393 -0.89685 -1.9694 0
M  V30 10326 C 945.988 -3.37729 0.269171 0
M  V30 10327 C 944.547 -3.76258 -0.103376 0
M  V30 10328 C 943.694 -2.70584 0.60659 0
M  V30 10329 H 946.645 -1.3776 0.787904 0
M  V30 10330 H 946.666 -3.77116 -0.506339 0
M  V30 10331 H 946.178 -3.65162 1.31448 0
M  V30 10332 H 944.279 -3.54443 -1.14895 0
M  V30 10333 H 944.392 -4.78335 0.270701 0
M  V30 10334 H 942.756 -2.54656 0.0471984 0
M  V30 10335 H 943.539 -3.00856 1.65349 0
M  V30 10336 N 945.984 -0.3171 -1.54377 0
M  V30 10337 C 947.233 0.288271 -1.99629 0
M  V30 10338 C 947.546 1.53754 -1.2091 0
M  V30 10339 O 948.752 2.2185 -1.56508 0
M  V30 10340 C 947.208 0.564188 -3.5545 0
M  V30 10341 C 946.816 -0.667659 -4.42997 0
M  V30 10342 C 948.56 1.12987 -4.09187 0
M  V30 10343 C 946.467 -0.364003 -5.90279 0
M  V30 10344 H 945.397 0.111492 -0.745711 0
M  V30 10345 H 948.048 -0.428317 -1.78431 0
M  V30 10346 H 946.43 1.34079 -3.72611 0
M  V30 10347 H 947.604 -1.44335 -4.37612 0
M  V30 10348 H 945.919 -1.1531 -4.00116 0
M  V30 10349 H 948.516 1.37157 -5.1681 0
M  V30 10350 H 948.859 2.07722 -3.60773 0
M  V30 10351 H 949.392 0.414595 -3.95634 0
M  V30 10352 H 946.131 -1.28035 -6.42874 0
M  V30 10353 H 945.651 0.374102 -5.98632 0
M  V30 10354 H 947.33 0.0285433 -6.46994 0
M  V30 10355 N 947.462 1.57535 -0.0451378 0
M  V30 10356 C 948.372 2.14653 0.946646 0
M  V30 10357 C 949.388 1.10279 1.3459 0
M  V30 10358 O 950.564 1.42417 1.42405 0
M  V30 10359 C 947.629 2.67533 2.20515 0
M  V30 10360 C 946.69 3.86682 1.86481 0
M  V30 10361 C 945.923 4.37031 3.06332 0
M  V30 10362 O 946.146 3.86481 4.1951 0
M  V30 10363 O 945.08 5.28691 2.87697 0
M  V30 10364 H 948.906 2.99706 0.49091 0
M  V30 10365 H 946.491 1.48355 0.17641 0
M  V30 10366 H 948.373 3.01542 2.94365 0
M  V30 10367 H 947.048 1.85554 2.65238 0
M  V30 10368 H 945.955 3.57573 1.09966 0
M  V30 10369 H 947.288 4.69873 1.46562 0
M  V30 10370 N 948.94 -0.228186 1.55939 0
M  V30 10371 C 950.188 -0.951668 1.78291 0
M  V30 10372 C 950.509 -1.85132 0.612474 0
M  V30 10373 O 949.779 -1.92356 -0.370942 0
M  V30 10374 H 948.359 -0.354388 0.657585 0
M  V30 10375 H 951.021 -0.241635 1.93396 0
M  V30 10376 H 950.117 -1.56239 2.70177 0
M  V30 10377 N 950.418 -1.49637 -0.494624 0
M  V30 10378 C 951.328 -1.69522 -1.62172 0
M  V30 10379 C 952.344 -0.577894 -1.64123 0
M  V30 10380 O 953.52 -0.853382 -1.82426 0
M  V30 10381 C 950.585 -1.7633 -2.9851 0
M  V30 10382 C 949.646 -2.99944 -3.07135 0
M  V30 10383 C 948.879 -3.06419 -4.36971 0
M  V30 10384 O 949.102 -2.20312 -5.26136 0
M  V30 10385 O 948.036 -3.9894 -4.507 0
M  V30 10386 H 951.862 -2.65017 -1.48324 0
M  V30 10387 H 949.447 -1.33454 -0.671603 0
M  V30 10388 H 951.329 -1.83125 -3.7953 0
M  V30 10389 H 950.004 -0.840155 -3.12607 0
M  V30 10390 H 948.911 -2.98664 -2.2528 0
M  V30 10391 H 950.244 -3.9176 -2.97968 0
M  V30 10392 N 951.896 0.746133 -1.38819 0
M  V30 10393 C 952.806 1.89063 -1.38897 0
M  V30 10394 C 953.822 1.71648 -0.28513 0
M  V30 10395 O 954.998 1.94443 -0.524783 0
M  V30 10396 C 952.063 3.24523 -1.22007 0
M  V30 10397 C 951.124 3.54411 -2.42263 0
M  V30 10398 C 950.357 4.83408 -2.26169 0
M  V30 10399 O 950.58 5.56325 -1.25931 0
M  V30 10400 O 949.514 5.12943 -3.14918 0
M  V30 10401 H 953.34 1.91951 -2.35347 0
M  V30 10402 H 950.925 0.892433 -1.19816 0
M  V30 10403 H 952.807 4.05496 -1.14677 0
M  V30 10404 H 951.482 3.2243 -0.286455 0
M  V30 10405 H 950.389 2.73569 -2.55168 0
M  V30 10406 H 951.722 3.61273 -3.3428 0
M  V30 10407 N 953.375 1.23811 0.975125 0
M  V30 10408 C 954.603 1.10019 1.75224 0
M  V30 10409 C 955.018 -0.34791 1.85567 0
M  V30 10410 O 954.375 -1.24043 1.33864 0
M  V30 10411 C 954.426 1.72572 3.1765 0
M  V30 10412 O 954.147 3.11719 3.07836 0
M  V30 10413 C 955.648 1.64292 4.11732 0
M  V30 10414 H 952.868 0.38476 0.549728 0
M  V30 10415 H 955.412 1.63768 1.22476 0
M  V30 10416 H 953.567 1.22843 3.67408 0
M  V30 10417 H 953.981 3.42152 3.97533 0
M  V30 10418 H 955.455 2.12754 5.09352 0
M  V30 10419 H 955.932 0.602722 4.35045 0
M  V30 10420 H 956.538 2.13411 3.6788 0
M  V30 10421 N 954.853 -1.17469 1.05066 0
M  V30 10422 C 956.083 -1.91343 0.779202 0
M  V30 10423 C 956.491 -1.76986 -0.668764 0
M  V30 10424 O 955.834 -1.1037 -1.46848 0
M  V30 10425 C 955.896 -3.42938 1.0786 0
M  V30 10426 C 955.56 -3.81076 2.52249 0
M  V30 10427 C 956.557 -3.84027 3.50456 0
M  V30 10428 C 954.242 -4.12076 2.87225 0
M  V30 10429 C 956.236 -4.17445 4.81683 0
M  V30 10430 C 953.923 -4.45163 4.18656 0
M  V30 10431 C 954.921 -4.47825 5.15696 0
M  V30 10432 O 954.609 -4.80133 6.44769 0
M  V30 10433 H 954.341 -0.613974 0.282863 0
M  V30 10434 H 956.895 -1.49907 1.40417 0
M  V30 10435 H 955.125 -3.84662 0.39653 0
M  V30 10436 H 956.814 -3.98071 0.793357 0
M  V30 10437 H 957.58 -3.60203 3.24775 0
M  V30 10438 H 953.459 -4.09176 2.12358 0
M  V30 10439 H 957.003 -4.19437 5.57421 0
M  V30 10440 H 952.9 -4.68449 4.44101 0
M  V30 10441 H 953.668 -4.97995 6.49571 0
M  V30 10442 N 956.331 -0.831506 -1.3388 0
M  V30 10443 C 957.561 -0.436292 -2.01941 0
M  V30 10444 C 957.969 0.964979 -1.62741 0
M  V30 10445 O 957.312 1.63733 -0.832894 0
M  V30 10446 C 957.374 -0.468811 -3.5643 0
M  V30 10447 C 957.038 -1.82491 -4.18982 0
M  V30 10448 C 958.035 -2.78705 -4.38885 0
M  V30 10449 C 955.72 -2.11574 -4.55568 0
M  V30 10450 C 957.714 -4.02168 -4.94509 0
M  V30 10451 C 955.401 -3.35296 -5.10901 0
M  V30 10452 C 956.399 -4.3041 -5.30317 0
M  V30 10453 O 956.087 -5.51944 -5.84477 0
M  V30 10454 H 955.819 -0.172335 -0.653664 0
M  V30 10455 H 958.373 -1.12354 -1.71947 0
M  V30 10456 H 956.603 0.275179 -3.8572 0
M  V30 10457 H 958.292 -0.0924518 -4.05795 0
M  V30 10458 H 959.058 -2.57534 -4.10976 0
M  V30 10459 H 954.937 -1.38338 -4.39754 0
M  V30 10460 H 958.481 -4.76418 -5.09579 0
M  V30 10461 H 954.378 -3.56326 -5.3824 0
M  V30 10462 H 955.146 -5.53582 -6.029 0
M  V30 10463 N 957.809 1.4625 -0.587256 0
M  V30 10464 C 959.037 2.06744 -0.08033 0
M  V30 10465 C 959.452 1.43527 1.2266 0
M  V30 10466 O 958.809 0.542168 1.74261 0
M  V30 10467 C 958.86 3.61394 0.0873469 0
M  V30 10468 O 958.581 4.22247 -1.16785 0
M  V30 10469 C 960.082 4.38828 0.628095 0
M  V30 10470 H 957.302 0.668354 -0.0595301 0
M  V30 10471 H 959.846 1.87808 -0.809217 0
M  V30 10472 H 958.001 3.79742 0.766473 0
M  V30 10473 H 958.415 5.15176 -0.984565 0
M  V30 10474 H 959.889 5.47613 0.694583 0
M  V30 10475 H 960.366 4.07188 1.64606 0
M  V30 10476 H 960.972 4.25297 -0.0163115 0
M  V30 10477 N 959.287 0.325282 1.54207 0
M  V30 10478 C 960.564 -0.33113 1.92777 0
M  V30 10479 C 960.944 -1.69739 1.25506 0
M  V30 10480 O 960.292 -2.24983 0.399385 0
M  V30 10481 C 960.502 -0.421636 3.46444 0
M  V30 10482 C 961.85 -0.681111 4.19101 0
M  V30 10483 O 962.874 -0.504488 3.52609 0
M  V30 10484 O 961.733 -1.02196 5.3686 0
M  V30 10485 H 958.827 -0.18943 0.805013 0
M  V30 10486 H 961.373 0.375123 1.65502 0
M  V30 10487 H 960.145 0.537862 3.87586 0
M  V30 10488 H 959.768 -1.1754 3.79829 0
M  V30 10489 N 960.765 -1.57509 0.0534917 0
M  V30 10490 C 962.013 -1.92402 -0.618548 0
M  V30 10491 C 962.334 -0.93273 -1.71246 0
M  V30 10492 O 961.604 0.0220495 -1.95888 0
M  V30 10493 H 960.184 -0.710233 -0.23147 0
M  V30 10494 H 962.846 -1.94606 0.10704 0
M  V30 10495 H 961.942 -2.93704 -1.05566 0
M  V30 10496 N 962.243 0.219913 -1.56058 0
M  V30 10497 C 963.468 0.965073 -1.83579 0
M  V30 10498 C 963.893 1.77092 -0.634024 0
M  V30 10499 O 963.251 1.76434 0.417205 0
M  V30 10500 C 963.299 1.85705 -3.09105 0
M  V30 10501 O 962.403 2.95261 -2.87914 0
M  V30 10502 H 961.744 0.273173 -0.605204 0
M  V30 10503 H 964.274 0.23273 -2.03272 0
M  V30 10504 H 964.284 2.26655 -3.39252 0
M  V30 10505 H 962.959 1.26476 -3.96203 0
M  V30 10506 H 961.536 2.58246 -2.69005 0
M  V30 10507 N 963.721 1.49897 0.486681 0
M  V30 10508 C 964.961 1.61732 1.24988 0
M  V30 10509 C 965.325 0.303724 1.89582 0
M  V30 10510 O 966.526 0.297373 2.6715 0
M  V30 10511 C 964.797 2.75429 2.27757 0
M  V30 10512 S 966.356 3.07304 3.13225 0
M  V30 10513 H 963.174 0.570316 0.424571 0
M  V30 10514 H 965.776 1.87617 0.549549 0
M  V30 10515 H 964.48 3.69376 1.78857 0
M  V30 10516 H 964.011 2.51582 3.0244 0
M  V30 10517 H 966.026 2.49928 4.28661 0
M  V30 10518 N 965.199 -0.738761 1.39212 0
M  V30 10519 C 966.147 -1.8741 1.3777 0
M  V30 10520 C 967.141 -1.67371 0.261375 0
M  V30 10521 O 968.347 -1.74759 0.431209 0
M  V30 10522 H 964.722 -0.616843 0.430126 0
M  V30 10523 H 966.693 -1.85742 2.33543 0
M  V30 10524 C 965.442 -3.25053 1.23433 0
M  V30 10525 H 964.765 -3.41066 2.086 0
M  V30 10526 H 966.205 -4.04696 1.2648 0
M  V30 10527 C 964.664 -3.36851 -0.0575624 0
M  V30 10528 O 965.194 -3.88293 -1.02915 0
M  V30 10529 N 963.4 -2.90355 -0.119364 0
M  V30 10530 H 962.947 -2.48681 0.671976 0
M  V30 10531 H 962.905 -2.98628 -0.983286 0
M  V30 10532 N 966.677 -1.24326 -0.968545 0
M  V30 10533 C 967.624 -1.0349 -2.06297 0
M  V30 10534 C 968.594 0.0515333 -1.6602 0
M  V30 10535 O 969.779 -0.102924 -1.90522 0
M  V30 10536 C 966.919 -0.64487 -3.39021 0
M  V30 10537 C 966.032 -1.80469 -3.92498 0
M  V30 10538 C 965.167 -1.36032 -5.13487 0
M  V30 10539 C 964.206 -2.49014 -5.59159 0
M  V30 10540 N 963.343 -2.05451 -6.71367 0
M  V30 10541 H 968.183 -1.97161 -2.23454 0
M  V30 10542 H 965.72 -0.982028 -1.0952 0
M  V30 10543 H 967.678 -0.399771 -4.1528 0
M  V30 10544 H 966.308 0.254845 -3.21792 0
M  V30 10545 H 965.36 -2.16348 -3.12886 0
M  V30 10546 H 966.672 -2.65365 -4.22354 0
M  V30 10547 H 965.826 -1.07405 -5.97117 0
M  V30 10548 H 964.565 -0.481887 -4.85313 0
M  V30 10549 H 963.57 -2.78402 -4.74102 0
M  V30 10550 H 964.795 -3.37413 -5.89346 0
M  V30 10551 H 962.741 -1.20004 -6.4493 0
M  V30 10552 H 962.658 -2.83901 -7.00668 0
M  V30 10553 H 963.926 -1.79962 -7.58442 0
M  V30 10554 N 968.156 1.1691 -1.05688 0
M  V30 10555 C 969.088 2.20648 -0.620237 0
M  V30 10556 C 970.101 1.59652 0.318604 0
M  V30 10557 O 971.29 1.78157 0.110553 0
M  V30 10558 C 968.39 3.38716 0.111729 0
M  V30 10559 C 967.563 4.29277 -0.839062 0
M  V30 10560 C 966.622 5.25993 -0.147453 0
M  V30 10561 O 965.648 5.63787 -0.783151 0
M  V30 10562 N 966.85 5.69725 1.11327 0
M  V30 10563 H 969.615 2.58731 -1.51256 0
M  V30 10564 H 967.176 1.31858 -0.939412 0
M  V30 10565 H 969.168 4.00455 0.584657 0
M  V30 10566 H 967.738 2.99189 0.905784 0
M  V30 10567 H 966.958 3.64894 -1.4915 0
M  V30 10568 H 968.246 4.86669 -1.48428 0
M  V30 10569 H 967.644 5.41103 1.64999 0
M  V30 10570 H 966.201 6.33584 1.53018 0
M  V30 10571 N 969.634 0.838594 1.33437 0
M  V30 10572 C 970.859 0.446701 2.02532 0
M  V30 10573 C 971.284 -0.944275 1.62681 0
M  V30 10574 O 970.642 -1.61733 0.81927 0
M  V30 10575 C 970.69 0.574794 3.55989 0
M  V30 10576 O 969.794 -0.399063 4.10465 0
M  V30 10577 H 969.135 0.181637 0.638674 0
M  V30 10578 H 971.665 1.13335 1.70342 0
M  V30 10579 H 971.675 0.456339 4.0544 0
M  V30 10580 H 970.35 1.58921 3.8434 0
M  V30 10581 H 968.927 -0.238187 3.72139 0
M  V30 10582 N 971.112 -1.45937 0.595003 0
M  V30 10583 C 972.059 -2.30427 -0.131165 0
M  V30 10584 C 973.029 -1.41355 -0.872232 0
M  V30 10585 O 974.214 -1.70296 -0.860467 0
M  V30 10586 C 971.354 -3.26045 -1.13087 0
M  V30 10587 C 970.467 -4.30218 -0.391982 0
M  V30 10588 C 969.602 -5.12953 -1.3803 0
M  V30 10589 C 968.641 -6.08865 -0.628505 0
M  V30 10590 N 967.778 -6.84425 -1.56548 0
M  V30 10591 H 972.618 -2.91992 0.595359 0
M  V30 10592 H 970.155 -1.43895 0.305405 0
M  V30 10593 H 972.113 -3.79937 -1.72348 0
M  V30 10594 H 970.743 -2.66261 -1.82496 0
M  V30 10595 H 969.795 -3.79086 0.315895 0
M  V30 10596 H 971.107 -4.98418 0.195173 0
M  V30 10597 H 970.261 -5.71184 -2.04534 0
M  V30 10598 H 969 -4.44743 -2.00138 0
M  V30 10599 H 968.005 -5.49777 0.0502431 0
M  V30 10600 H 969.23 -6.79099 -0.012641 0
M  V30 10601 H 967.176 -6.18913 -2.17444 0
M  V30 10602 H 967.093 -7.48931 -1.03145 0
M  V30 10603 H 968.361 -7.47204 -2.22049 0
M  V30 10604 N 972.59 -0.333456 -1.54032 0
M  V30 10605 C 973.5 0.536674 -2.28379 0
M  V30 10606 C 974.516 1.12068 -1.33104 0
M  V30 10607 O 975.692 1.13853 -1.66131 0
M  V30 10608 C 972.757 1.67677 -3.03456 0
M  V30 10609 C 971.818 1.12357 -4.14336 0
M  V30 10610 C 971.051 2.20933 -4.85823 0
M  V30 10611 O 971.274 3.41466 -4.569 0
M  V30 10612 O 970.208 1.85795 -5.72507 0
M  V30 10613 H 974.034 -0.0674003 -3.03625 0
M  V30 10614 H 971.619 -0.098823 -1.49073 0
M  V30 10615 H 973.501 2.34032 -3.50438 0
M  V30 10616 H 972.176 2.26684 -2.31076 0
M  V30 10617 H 971.083 0.424827 -3.7168 0
M  V30 10618 H 972.416 0.578497 -4.88789 0
M  V30 10619 N 974.068 1.57479 -0.061844 0
M  V30 10620 C 975.316 1.92727 0.608336 0
M  V30 10621 C 975.637 0.941799 1.70749 0
M  V30 10622 O 974.907 -0.0116608 1.95897 0
M  V30 10623 H 973.487 0.71145 0.2277 0
M  V30 10624 H 976.149 1.94546 -0.117359 0
M  V30 10625 H 975.245 2.9426 1.04007 0
M  V30 10626 N 975.546 -0.211634 1.56173 0
M  V30 10627 C 976.493 -1.26231 1.93221 0
M  V30 10628 C 977.463 -1.46076 0.790641 0
M  V30 10629 O 978.648 -1.59482 1.04739 0
M  V30 10630 C 975.788 -2.60559 2.26281 0
M  V30 10631 C 974.901 -2.48431 3.5342 0
M  V30 10632 C 974.036 -3.7535 3.7588 0
M  V30 10633 C 973.075 -3.57985 4.96501 0
M  V30 10634 N 972.212 -4.76877 5.15299 0
M  V30 10635 H 977.052 -0.939367 2.82807 0
M  V30 10636 H 974.589 -0.452511 1.39967 0
M  V30 10637 H 976.547 -3.38796 2.43461 0
M  V30 10638 H 975.177 -2.9093 1.39855 0
M  V30 10639 H 974.229 -1.61577 3.44379 0
M  V30 10640 H 975.541 -2.31526 4.41811 0
M  V30 10641 H 974.695 -4.62029 3.9321 0
M  V30 10642 H 973.434 -3.95191 2.85788 0
M  V30 10643 H 972.439 -2.69691 4.79111 0
M  V30 10644 H 973.664 -3.39605 5.88086 0
M  V30 10645 H 971.61 -4.97013 4.28152 0
M  V30 10646 H 971.527 -4.62735 5.9784 0
M  V30 10647 H 972.795 -5.64954 5.37073 0
M  V30 10648 N 977.024 -1.50153 -0.478725 0
M  V30 10649 C 977.987 -1.67916 -1.56003 0
M  V30 10650 C 978.987 -0.550111 -1.51097 0
M  V30 10651 O 980.177 -0.817001 -1.53853 0
M  V30 10652 C 977.309 -1.6973 -2.95643 0
M  V30 10653 H 978.502 -2.6438 -1.41573 0
M  V30 10654 H 976.055 -1.39519 -0.704565 0
M  V30 10655 H 976.79 -0.749306 -3.15525 0
M  V30 10656 H 976.575 -2.51745 -3.00611 0
M  V30 10657 H 978.065 -1.85453 -3.74162 0
M  V30 10658 N 978.502 0.731368 -1.39602 0
M  V30 10659 C 979.75 1.48805 -1.36753 0
M  V30 10660 C 980.071 1.94969 0.034676 0
M  V30 10661 O 979.341 1.69243 0.986591 0
M  V30 10662 H 977.921 0.55203 -0.503261 0
M  V30 10663 H 980.583 0.868013 -1.74504 0
M  V30 10664 H 979.679 2.36844 -2.03252 0
M  V30 10665 N 979.98 1.24838 0.961938 0
M  V30 10666 C 981.21 1.11709 1.73795 0
M  V30 10667 C 981.618 -0.33263 1.86253 0
M  V30 10668 O 980.961 -1.24101 1.35443 0
M  V30 10669 C 981.023 1.68959 3.17322 0
M  V30 10670 C 980.687 3.17895 3.28316 0
M  V30 10671 C 981.684 4.14975 3.13196 0
M  V30 10672 C 979.369 3.57966 3.52372 0
M  V30 10673 C 981.363 5.50107 3.21965 0
M  V30 10674 C 979.05 4.93237 3.60778 0
M  V30 10675 C 980.048 5.89116 3.45588 0
M  V30 10676 O 979.736 7.21927 3.53662 0
M  V30 10677 H 979.468 0.390726 0.551642 0
M  V30 10678 H 982.022 1.65541 1.21594 0
M  V30 10679 H 980.252 1.09567 3.70853 0
M  V30 10680 H 981.941 1.51036 3.76753 0
M  V30 10681 H 982.707 3.85359 2.94489 0
M  V30 10682 H 978.586 2.83837 3.63259 0
M  V30 10683 H 982.13 6.24924 3.10025 0
M  V30 10684 H 978.027 5.22522 3.79 0
M  V30 10685 H 978.795 7.29925 3.7034 0
M  V30 10686 N 981.458 -1.16348 1.06306 0
M  V30 10687 C 982.707 -1.8622 0.774909 0
M  V30 10688 C 983.02 -1.82598 -0.701245 0
M  V30 10689 O 984.226 -2.48051 -1.10377 0
M  V30 10690 C 982.682 -3.34182 1.33604 0
M  V30 10691 C 982.29 -3.46279 2.84245 0
M  V30 10692 C 984.034 -4.09309 1.12544 0
M  V30 10693 C 981.941 -4.88327 3.33602 0
M  V30 10694 H 980.871 -0.697574 0.286194 0
M  V30 10695 H 983.522 -1.31311 1.28179 0
M  V30 10696 H 981.904 -3.88698 0.756937 0
M  V30 10697 H 983.078 -3.01923 3.48108 0
M  V30 10698 H 981.393 -2.84585 3.03974 0
M  V30 10699 H 983.99 -5.14123 1.46909 0
M  V30 10700 H 984.333 -4.16251 0.0638129 0
M  V30 10701 H 984.866 -3.61032 1.67034 0
M  V30 10702 H 981.605 -4.86565 4.39244 0
M  V30 10703 H 981.125 -5.33307 2.74487 0
M  V30 10704 H 982.804 -5.57144 3.28937 0
M  V30 10705 N 982.937 -0.845659 -1.3299 0
M  V30 10706 C 984.165 -0.45835 -2.01759 0
M  V30 10707 C 984.58 0.94239 -1.63598 0
M  V30 10708 O 983.937 1.61353 -0.852738 0
M  V30 10709 C 983.988 -0.577311 -3.5686 0
M  V30 10710 O 983.709 -1.92287 -3.93646 0
M  V30 10711 C 985.21 -0.187839 -4.42902 0
M  V30 10712 H 982.43 -0.181165 -0.646081 0
M  V30 10713 H 984.974 -1.14011 -1.6977 0
M  V30 10714 H 983.129 0.0566146 -3.87359 0
M  V30 10715 H 983.543 -1.91322 -4.88361 0
M  V30 10716 H 985.017 -0.322105 -5.51059 0
M  V30 10717 H 985.494 0.870896 -4.30479 0
M  V30 10718 H 986.1 -0.796473 -4.17776 0
M  V30 10719 N 984.415 1.45619 -0.602734 0
M  V30 10720 C 985.692 1.9558 -0.0282472 0
M  V30 10721 C 986.072 1.54523 1.43826 0
M  V30 10722 O 985.42 0.805456 2.13833 0
M  V30 10723 C 985.63 3.48298 -0.221263 0
M  V30 10724 C 986.978 4.24483 -0.0995249 0
M  V30 10725 O 988.002 3.55879 -0.151132 0
M  V30 10726 O 986.861 5.46497 0.0194454 0
M  V30 10727 H 983.955 0.826104 0.0384897 0
M  V30 10728 H 986.501 1.55808 -0.672456 0
M  V30 10729 H 985.273 3.71134 -1.23997 0
M  V30 10730 H 984.896 3.94948 0.458437 0
M  V30 10731 N 985.893 0.34162 1.53853 0
M  V30 10732 C 987.309 -0.0103769 1.59597 0
M  V30 10733 C 987.509 -1.48897 1.35764 0
M  V30 10734 O 986.565 -2.24743 1.15095 0
M  V30 10735 C 987.878 0.424067 2.97695 0
M  V30 10736 C 989.426 0.376247 3.1073 0
M  V30 10737 C 989.901 0.786129 4.51203 0
M  V30 10738 N 991.392 0.74024 4.57247 0
M  V30 10739 C 992.127 1.02937 5.64085 0
M  V30 10740 N 991.623 1.38655 6.78783 0
M  V30 10741 N 993.416 0.953734 5.5395 0
M  V30 10742 H 985.567 1.30477 1.67599 0
M  V30 10743 H 987.83 0.531753 0.78482 0
M  V30 10744 H 987.536 1.45493 3.20195 0
M  V30 10745 H 987.41 -0.201713 3.7666 0
M  V30 10746 H 989.797 -0.645441 2.87955 0
M  V30 10747 H 989.878 1.0372 2.33828 0
M  V30 10748 H 989.522 1.80582 4.74713 0
M  V30 10749 H 989.452 0.102671 5.265 0
M  V30 10750 H 991.943 0.476763 3.7488 0
M  V30 10751 H 992.256 1.59206 7.56223 0
M  V30 10752 H 990.601 1.42498 6.80235 0
M  V30 10753 H 993.792 0.674044 4.63222 0
M  V30 10754 H 993.965 1.18241 6.37121 0
M  V30 10755 N 987.371 -1.57444 0.0701946 0
M  V30 10756 C 988.619 -1.93047 -0.598106 0
M  V30 10757 C 988.94 -0.950841 -1.70247 0
M  V30 10758 O 988.21 0.00127177 -1.959 0
M  V30 10759 H 986.79 -0.712648 -0.223924 0
M  V30 10760 H 989.452 -1.94481 0.127674 0
M  V30 10761 H 988.548 -2.94807 -1.02445 0
M  V30 10762 N 988.849 0.203349 -1.56283 0
M  V30 10763 C 989.796 1.25205 -1.93888 0
M  V30 10764 C 990.766 1.45654 -0.798376 0
M  V30 10765 O 991.951 1.58924 -1.05583 0
M  V30 10766 C 989.091 2.59355 -2.27659 0
M  V30 10767 C 988.204 2.46553 -3.54733 0
M  V30 10768 C 987.339 3.73351 -3.77865 0
M  V30 10769 C 986.378 3.55347 -4.98392 0
M  V30 10770 N 985.515 4.74137 -5.17821 0
M  V30 10771 H 990.355 0.924356 -2.83301 0
M  V30 10772 H 987.892 0.445082 -1.40205 0
M  V30 10773 H 989.85 3.375 -2.45254 0
M  V30 10774 H 988.48 2.90184 -1.41396 0
M  V30 10775 H 987.532 1.59749 -3.45231 0
M  V30 10776 H 988.844 2.2918 -4.43033 0
M  V30 10777 H 987.998 4.59937 -3.95655 0
M  V30 10778 H 986.737 3.9367 -2.8788 0
M  V30 10779 H 985.742 2.67146 -4.80534 0
M  V30 10780 H 986.967 3.36482 -5.89879 0
M  V30 10781 H 984.913 4.94735 -4.30782 0
M  V30 10782 H 984.83 4.59558 -6.00285 0
M  V30 10783 H 986.098 5.62098 -5.40061 0
M  V30 10784 N 990.327 1.50405 0.470755 0
M  V30 10785 C 991.604 1.51929 1.23195 0
M  V30 10786 C 991.984 0.264159 2.09441 0
M  V30 10787 O 991.332 -0.752395 2.15757 0
M  V30 10788 C 991.542 2.81521 2.06269 0
M  V30 10789 C 992.89 3.32195 2.64446 0
M  V30 10790 O 993.914 2.82845 2.16511 0
M  V30 10791 O 992.773 4.18221 3.51786 0
M  V30 10792 H 989.867 0.609411 0.559059 0
M  V30 10793 H 992.413 1.62695 0.482549 0
M  V30 10794 H 991.185 3.64346 1.42715 0
M  V30 10795 H 990.808 2.7376 2.88342 0
M  V30 10796 N 991.805 -0.723954 1.39988 0
M  V30 10797 C 992.752 -1.83803 1.39589 0
M  V30 10798 C 993.722 -1.64146 0.253996 0
M  V30 10799 O 994.907 -1.85398 0.450793 0
M  V30 10800 C 992.047 -3.21431 1.25604 0
M  V30 10801 C 991.16 -3.52717 2.49429 0
M  V30 10802 C 990.295 -4.79805 2.27949 0
M  V30 10803 C 989.334 -5.03968 3.47394 0
M  V30 10804 N 988.471 -6.22266 3.25161 0
M  V30 10805 H 993.311 -1.83479 2.34818 0
M  V30 10806 H 990.848 -0.896396 1.16633 0
M  V30 10807 H 992.806 -4.00892 1.15504 0
M  V30 10808 H 991.436 -3.21005 0.339986 0
M  V30 10809 H 990.488 -2.67872 2.7009 0
M  V30 10810 H 991.8 -3.66486 3.38363 0
M  V30 10811 H 990.954 -5.67268 2.15155 0
M  V30 10812 H 989.693 -4.68229 1.36428 0
M  V30 10813 H 988.698 -4.14963 3.60674 0
M  V30 10814 H 989.923 -5.17422 4.39831 0
M  V30 10815 H 987.869 -6.11957 2.36314 0
M  V30 10816 H 987.786 -6.36673 4.07656 0
M  V30 10817 H 989.054 -7.12539 3.16083 0
M  V30 10818 N 993.283 -1.25346 -0.955304 0
M  V30 10819 C 994.529 -1.10218 -1.70235 0
M  V30 10820 C 994.862 0.356124 -1.90907 0
M  V30 10821 O 994.137 1.26253 -1.47954 0
M  V30 10822 C 994.42 -1.85627 -3.08569 0
M  V30 10823 C 994.273 -3.39281 -2.95311 0
M  V30 10824 C 995.592 -1.63886 -4.08448 0
M  V30 10825 H 992.711 -0.401781 -0.617852 0
M  V30 10826 H 995.353 -1.5417 -1.11048 0
M  V30 10827 H 993.503 -1.48269 -3.59094 0
M  V30 10828 H 995.175 -3.8631 -2.52116 0
M  V30 10829 H 993.418 -3.67027 -2.31244 0
M  V30 10830 H 994.089 -3.87258 -3.93364 0
M  V30 10831 H 996.565 -1.96406 -3.6683 0
M  V30 10832 H 995.441 -2.19087 -5.03281 0
M  V30 10833 H 995.702 -0.580021 -4.38279 0
M  V30 10834 N 994.761 1.15782 -1.06922 0
M  V30 10835 C 995.708 2.2038 -0.685659 0
M  V30 10836 C 996.678 1.62972 0.320816 0
M  V30 10837 O 997.863 1.8966 0.208258 0
M  V30 10838 C 995.003 3.44995 -0.084998 0
M  V30 10839 C 994.116 4.16621 -1.14242 0
M  V30 10840 C 993.251 5.28773 -0.507226 0
M  V30 10841 C 992.29 5.92209 -1.54774 0
M  V30 10842 N 991.427 6.9584 -0.935443 0
M  V30 10843 H 996.267 2.5254 -1.58201 0
M  V30 10844 H 993.804 1.24031 -0.790864 0
M  V30 10845 H 995.762 4.16254 0.280845 0
M  V30 10846 H 994.392 3.13365 0.774725 0
M  V30 10847 H 993.444 3.43903 -1.62589 0
M  V30 10848 H 994.756 4.59884 -1.93154 0
M  V30 10849 H 993.91 6.06635 -0.0887719 0
M  V30 10850 H 992.649 4.8669 0.313704 0
M  V30 10851 H 991.654 5.13063 -1.97602 0
M  V30 10852 H 992.879 6.3637 -2.37088 0
M  V30 10853 H 990.825 6.5586 -0.135339 0
M  V30 10854 H 990.742 7.37508 -1.66186 0
M  V30 10855 H 992.01 7.77611 -0.542346 0
M  V30 10856 N 996.239 0.8527 1.3254 0
M  V30 10857 C 997.485 0.455798 1.97612 0
M  V30 10858 C 997.818 -0.985616 1.6733 0
M  V30 10859 O 997.093 -1.69129 0.960493 0
M  V30 10860 C 997.376 0.69312 3.53366 0
M  V30 10861 C 997.229 2.18281 3.93285 0
M  V30 10862 C 998.548 0.148236 4.3985 0
M  V30 10863 H 995.667 0.167078 0.717812 0
M  V30 10864 H 998.309 1.07076 1.56954 0
M  V30 10865 H 996.459 0.169677 3.88129 0
M  V30 10866 H 998.131 2.77218 3.68711 0
M  V30 10867 H 996.374 2.66206 3.42515 0
M  V30 10868 H 997.045 2.29957 5.01821 0
M  V30 10869 H 999.521 0.595834 4.11812 0
M  V30 10870 H 998.397 0.343873 5.47822 0
M  V30 10871 H 998.658 -0.948872 4.31797 0
M  V30 10872 N 997.718 -1.45297 0.610449 0
M  V30 10873 C 998.648 -2.33311 -0.0939698 0
M  V30 10874 C 999.629 -1.46999 -0.85588 0
M  V30 10875 O 1000.81 -1.75764 -0.825865 0
M  V30 10876 C 997.944 -3.29751 -1.09003 0
M  V30 10877 C 996.898 -4.2572 -0.441146 0
M  V30 10878 C 996.224 -5.11873 -1.54566 0
M  V30 10879 C 997.524 -5.1837 0.639489 0
M  V30 10880 H 999.218 -2.92459 0.640941 0
M  V30 10881 H 996.764 -1.40631 0.309675 0
M  V30 10882 H 998.717 -3.90195 -1.59141 0
M  V30 10883 H 997.441 -2.68768 -1.85557 0
M  V30 10884 H 996.1 -3.66579 0.0393908 0
M  V30 10885 H 995.748 -4.47256 -2.30155 0
M  V30 10886 H 995.448 -5.76886 -1.11698 0
M  V30 10887 H 996.972 -5.75185 -2.04925 0
M  V30 10888 H 998.386 -5.7287 0.22207 0
M  V30 10889 H 996.783 -5.91876 0.990089 0
M  V30 10890 H 997.853 -4.60627 1.51495 0
M  V30 10891 N 999.196 -0.349774 -1.5367 0
M  V30 10892 C 1000.11 0.512421 -2.28935 0
M  V30 10893 C 1001.12 1.1065 -1.34286 0
M  V30 10894 O 1002.3 1.12084 -1.67329 0
M  V30 10895 C 999.363 1.64449 -3.05217 0
M  V30 10896 C 998.424 1.07956 -4.15505 0
M  V30 10897 C 997.657 2.15768 -4.88139 0
M  V30 10898 O 997.88 3.366 -4.60496 0
M  V30 10899 O 996.814 1.79712 -5.74445 0
M  V30 10900 H 1000.64 -0.0996001 -3.03537 0
M  V30 10901 H 998.225 -0.114629 -1.4896 0
M  V30 10902 H 1000.11 2.30302 -3.52901 0
M  V30 10903 H 998.782 2.24221 -2.33467 0
M  V30 10904 H 997.689 0.385381 -3.7211 0
M  V30 10905 H 999.022 0.526621 -4.89375 0
M  V30 10906 N 1000.67 1.57404 -0.0785433 0
M  V30 10907 C 1001.61 2.101 0.916013 0
M  V30 10908 C 1002.62 1.03459 1.25698 0
M  V30 10909 O 1003.81 1.30954 1.21299 0
M  V30 10910 C 1000.91 2.55202 2.22992 0
M  V30 10911 C 1000.08 3.85491 2.06678 0
M  V30 10912 C 999.14 4.16614 3.21433 0
M  V30 10913 O 998.166 4.86105 2.96126 0
M  V30 10914 N 999.368 3.70697 4.46726 0
M  V30 10915 H 1002.13 2.96054 0.466059 0
M  V30 10916 H 999.694 1.61546 0.107006 0
M  V30 10917 H 1001.69 2.7308 2.9868 0
M  V30 10918 H 1000.26 1.74348 2.59464 0
M  V30 10919 H 999.476 3.76925 1.15417 0
M  V30 10920 H 1000.76 4.70759 1.93036 0
M  V30 10921 H 1000.16 3.14571 4.70172 0
M  V30 10922 H 998.719 3.93762 5.19418 0
M  V30 10923 N 1002.15 -0.195058 1.56388 0
M  V30 10924 C 1003.38 -0.931642 1.84738 0
M  V30 10925 C 1003.79 -1.76849 0.661046 0
M  V30 10926 O 1003.15 -1.78705 -0.370241 0
M  V30 10927 C 1003.2 -1.82777 3.11889 0
M  V30 10928 O 1002.92 -1.02471 4.25948 0
M  V30 10929 C 1004.42 -2.67603 3.53417 0
M  V30 10930 H 1001.64 -0.271821 0.613477 0
M  V30 10931 H 1004.19 -0.202299 2.03497 0
M  V30 10932 H 1002.34 -2.51074 2.95027 0
M  V30 10933 H 1002.76 -1.63539 4.98353 0
M  V30 10934 H 1004.23 -3.26138 4.45352 0
M  V30 10935 H 1004.71 -3.41314 2.76408 0
M  V30 10936 H 1005.31 -2.04678 3.7281 0
M  V30 10937 N 1003.63 -1.50653 -0.462772 0
M  V30 10938 C 1004.86 -1.65826 -1.23731 0
M  V30 10939 C 1005.27 -0.345002 -1.85621 0
M  V30 10940 O 1004.63 0.673935 -1.69601 0
M  V30 10941 C 1004.68 -2.7555 -2.33997 0
M  V30 10942 O 1004.4 -4.01785 -1.74643 0
M  V30 10943 C 1005.9 -3.0177 -3.2473 0
M  V30 10944 H 1003.12 -0.557177 -0.373892 0
M  V30 10945 H 1005.67 -1.96925 -0.551434 0
M  V30 10946 H 1003.82 -2.47122 -2.98345 0
M  V30 10947 H 1004.24 -4.62529 -2.4732 0
M  V30 10948 H 1005.71 -3.82188 -3.98292 0
M  V30 10949 H 1006.19 -2.13167 -3.84001 0
M  V30 10950 H 1006.79 -3.31761 -2.66111 0
M  V30 10951 N 1005.11 0.71652 -1.4037 0
M  V30 10952 C 1006.06 1.85194 -1.40734 0
M  V30 10953 C 1007.05 1.66934 -0.287969 0
M  V30 10954 O 1008.26 1.74051 -0.458957 0
M  V30 10955 H 1004.63 0.609922 -0.439885 0
M  V30 10956 H 1006.6 1.82003 -2.36468 0
M  V30 10957 C 1005.35 3.23048 -1.28589 0
M  V30 10958 H 1004.67 3.37704 -2.13999 0
M  V30 10959 H 1006.11 4.02633 -1.32902 0
M  V30 10960 C 1004.57 3.369 0.00396512 0
M  V30 10961 O 1005.1 3.89881 0.967243 0
M  V30 10962 N 1003.31 2.90508 0.0731565 0
M  V30 10963 H 1002.86 2.4758 -0.711454 0
M  V30 10964 H 1002.81 3.00155 0.935652 0
M  V30 10965 N 1006.59 1.25851 0.948643 0
M  V30 10966 C 1007.52 1.02549 2.04979 0
M  V30 10967 C 1008.53 -0.0115923 1.62796 0
M  V30 10968 O 1009.72 0.227643 1.77042 0
M  V30 10969 C 1006.82 0.529486 3.34738 0
M  V30 10970 C 1005.99 1.6341 4.05729 0
M  V30 10971 C 1005.05 1.13743 5.1376 0
M  V30 10972 O 1004.08 1.83303 5.38877 0
M  V30 10973 N 1005.28 -0.0181151 5.80497 0
M  V30 10974 H 1008.05 1.97365 2.25537 0
M  V30 10975 H 1005.61 1.17137 1.11761 0
M  V30 10976 H 1007.6 0.181566 4.04293 0
M  V30 10977 H 1006.17 -0.324893 3.10907 0
M  V30 10978 H 1005.39 2.15331 3.30191 0
M  V30 10979 H 1006.68 2.37603 4.49914 0
M  V30 10980 H 1006.07 -0.599198 5.62518 0
M  V30 10981 H 1004.63 -0.307019 6.51077 0
M  V30 10982 N 1008.06 -1.15214 1.07534 0
M  V30 10983 C 1009 -2.19634 0.655261 0
M  V30 10984 C 1010.01 -1.60139 -0.293165 0
M  V30 10985 O 1011.2 -1.78311 -0.0821957 0
M  V30 10986 C 1008.3 -3.38851 -0.0578281 0
M  V30 10987 C 1007.47 -4.27888 0.90725 0
M  V30 10988 C 1006.53 -5.25692 0.231115 0
M  V30 10989 O 1005.56 -5.62469 0.872746 0
M  V30 10990 N 1006.76 -5.71424 -1.0225 0
M  V30 10991 H 1009.52 -2.56292 1.55353 0
M  V30 10992 H 1007.08 -1.30347 0.960271 0
M  V30 10993 H 1009.08 -4.01334 -0.520874 0
M  V30 10994 H 1007.65 -3.00593 -0.858071 0
M  V30 10995 H 1006.87 -3.62475 1.54937 0
M  V30 10996 H 1008.15 -4.84246 1.56151 0
M  V30 10997 H 1007.55 -5.43659 -1.56369 0
M  V30 10998 H 1006.11 -6.35938 -1.42919 0
M  V30 10999 N 1009.54 -0.859717 -1.32086 0
M  V30 11000 C 1010.51 -0.313005 -2.27053 0
M  V30 11001 C 1011.51 0.530191 -1.51808 0
M  V30 11002 O 1012.7 0.340972 -1.7083 0
M  V30 11003 C 1009.83 0.5566 -3.36325 0
M  V30 11004 H 1011.02 -1.15125 -2.76923 0
M  V30 11005 H 1008.57 -0.634463 -1.42843 0
M  V30 11006 H 1009.31 1.41645 -2.91731 0
M  V30 11007 H 1009.09 -0.0470197 -3.92072 0
M  V30 11008 H 1010.58 0.931725 -4.07073 0
M  V30 11009 N 1011.02 1.44971 -0.618145 0
M  V30 11010 C 1011.93 2.34403 0.0960457 0
M  V30 11011 C 1012.95 1.51862 0.849355 0
M  V30 11012 O 1014.12 1.84632 0.804557 0
M  V30 11013 C 1011.19 3.29646 1.07397 0
M  V30 11014 C 1010.25 4.28095 0.321466 0
M  V30 11015 C 1009.48 5.18787 1.25281 0
M  V30 11016 O 1009.7 5.1313 2.49106 0
M  V30 11017 O 1008.64 5.97282 0.744156 0
M  V30 11018 H 1012.46 2.96898 -0.639176 0
M  V30 11019 H 1010.05 1.44529 -0.37837 0
M  V30 11020 H 1011.93 3.88307 1.63694 0
M  V30 11021 H 1010.61 2.69702 1.79004 0
M  V30 11022 H 1009.51 3.73019 -0.284223 0
M  V30 11023 H 1010.85 4.90923 -0.354315 0
M  V30 11024 N 1012.5 0.357919 1.53482 0
M  V30 11025 C 1013.43 -0.484231 2.28424 0
M  V30 11026 C 1014.41 -1.09046 1.30548 0
M  V30 11027 O 1015.59 -1.10916 1.59409 0
M  V30 11028 C 1012.72 -1.62803 3.06778 0
M  V30 11029 C 1011.68 -1.14943 4.12277 0
M  V30 11030 C 1011 -2.38287 4.78669 0
M  V30 11031 C 1012.3 -0.239627 5.2175 0
M  V30 11032 H 1014 0.140979 2.99068 0
M  V30 11033 H 1011.54 0.069244 1.43833 0
M  V30 11034 H 1013.5 -2.22374 3.57949 0
M  V30 11035 H 1012.22 -2.28036 2.3381 0
M  V30 11036 H 1010.88 -0.576442 3.6204 0
M  V30 11037 H 1010.53 -3.01959 4.02281 0
M  V30 11038 H 1010.23 -2.06939 5.49955 0
M  V30 11039 H 1011.75 -2.98558 5.32631 0
M  V30 11040 H 1013.17 -0.742597 5.6847 0
M  V30 11041 H 1011.56 -0.0173747 6.00097 0
M  V30 11042 H 1012.63 0.720333 4.7952 0
M  V30 11043 N 1013.98 -1.5736 0.0868897 0
M  V30 11044 C 1014.89 -2.17087 -0.889402 0
M  V30 11045 C 1015.9 -1.13809 -1.31619 0
M  V30 11046 O 1017.08 -1.46143 -1.38579 0
M  V30 11047 C 1014.14 -2.73286 -2.13344 0
M  V30 11048 C 1013.2 -3.91491 -1.76164 0
M  V30 11049 C 1012.44 -4.45 -2.94637 0
M  V30 11050 O 1012.66 -3.97467 -4.09116 0
M  V30 11051 O 1011.59 -5.36133 -2.73579 0
M  V30 11052 H 1015.42 -3.00902 -0.411275 0
M  V30 11053 H 1013.01 -1.4877 -0.137015 0
M  V30 11054 H 1014.89 -3.0924 -2.86266 0
M  V30 11055 H 1013.56 -1.92521 -2.60225 0
M  V30 11056 H 1012.47 -3.60363 -1.00447 0
M  V30 11057 H 1013.8 -4.73593 -1.34053 0
M  V30 11058 N 1015.45 0.186762 -1.56489 0
M  V30 11059 C 1016.42 1.21511 -1.94339 0
M  V30 11060 C 1017.42 1.38001 -0.82537 0
M  V30 11061 O 1018.61 1.3567 -1.09266 0
M  V30 11062 C 1015.74 2.583 -2.22472 0
M  V30 11063 H 1016.93 0.891371 -2.86347 0
M  V30 11064 H 1014.49 0.428612 -1.50308 0
M  V30 11065 H 1015.22 2.95715 -1.33129 0
M  V30 11066 H 1015.01 2.47701 -3.03951 0
M  V30 11067 H 1016.5 3.32441 -2.5273 0
M  V30 11068 N 1016.93 1.50896 0.454776 0
M  V30 11069 C 1018.18 1.62699 1.20562 0
M  V30 11070 C 1018.51 0.334943 1.91594 0
M  V30 11071 O 1017.76 -0.680106 1.83502 0
M  V30 11072 C 1018.06 2.76839 2.26042 0
M  V30 11073 C 1017.73 4.16745 1.72147 0
M  V30 11074 C 1016.39 4.54809 1.5717 0
M  V30 11075 C 1018.74 5.04118 1.32341 0
M  V30 11076 C 1016.07 5.7797 1.00835 0
M  V30 11077 C 1018.42 6.27842 0.774419 0
M  V30 11078 C 1017.09 6.64694 0.611415 0
M  V30 11079 H 1016.36 0.595358 0.441169 0
M  V30 11080 H 1019 1.84879 0.499202 0
M  V30 11081 H 1017.31 2.48812 3.02655 0
M  V30 11082 H 1019 2.83173 2.83926 0
M  V30 11083 H 1015.59 3.86725 1.84775 0
M  V30 11084 H 1019.78 4.75331 1.42739 0
M  V30 11085 H 1015.03 6.05183 0.869669 0
M  V30 11086 H 1019.21 6.94896 0.457389 0
M  V30 11087 H 1016.84 7.60004 0.172751 0
M  V30 11088 N 1018.41 -0.709066 1.40748 0
M  V30 11089 C 1019.34 -1.83583 1.4429 0
M  V30 11090 C 1020.32 -1.67378 0.303067 0
M  V30 11091 O 1021.51 -1.87312 0.512612 0
M  V30 11092 C 1018.64 -3.21599 1.31116 0
M  V30 11093 C 1017.59 -3.52486 2.4277 0
M  V30 11094 C 1016.92 -4.89716 2.14668 0
M  V30 11095 C 1018.22 -3.52824 3.85113 0
M  V30 11096 H 1019.91 -1.80876 2.38588 0
M  V30 11097 H 1017.46 -0.868795 1.14839 0
M  V30 11098 H 1019.41 -4.00123 1.32209 0
M  V30 11099 H 1018.13 -3.24898 0.332965 0
M  V30 11100 H 1016.79 -2.76305 2.40937 0
M  V30 11101 H 1016.44 -4.89625 1.15224 0
M  V30 11102 H 1016.14 -5.11347 2.89478 0
M  V30 11103 H 1017.66 -5.70566 2.17455 0
M  V30 11104 H 1019.08 -4.21377 3.88734 0
M  V30 11105 H 1017.48 -3.85984 4.59496 0
M  V30 11106 H 1018.55 -2.52073 4.14231 0
M  V30 11107 N 1019.89 -1.26353 -0.941956 0
M  V30 11108 C 1020.82 -1.02163 -2.04054 0
M  V30 11109 C 1021.8 0.0533514 -1.62512 0
M  V30 11110 O 1022.98 -0.0889063 -1.8829 0
M  V30 11111 C 1020.11 -0.546908 -3.34255 0
M  V30 11112 C 1019.16 -1.61433 -3.94768 0
M  V30 11113 S 1019.99 -3.20306 -4.29144 0
M  V30 11114 C 1021.15 -2.746 -5.62446 0
M  V30 11115 H 1021.38 -1.9518 -2.24259 0
M  V30 11116 H 1018.91 -1.10024 -1.08324 0
M  V30 11117 H 1020.87 -0.279673 -4.09546 0
M  V30 11118 H 1019.53 0.36297 -3.11996 0
M  V30 11119 H 1018.72 -1.23315 -4.88681 0
M  V30 11120 H 1018.33 -1.8329 -3.26007 0
M  V30 11121 H 1020.62 -2.19015 -6.41123 0
M  V30 11122 H 1021.56 -3.67202 -6.05449 0
M  V30 11123 H 1021.97 -2.1419 -5.22286 0
M  V30 11124 N 1021.37 1.14642 -1.08144 0
M  V30 11125 C 1022.33 2.17834 -0.712799 0
M  V30 11126 C 1023.33 1.58828 0.251041 0
M  V30 11127 O 1024.52 1.74173 0.0309381 0
M  V30 11128 C 1021.65 3.4086 -0.0519477 0
M  V30 11129 H 1022.85 2.51961 -1.62653 0
M  V30 11130 H 1020.4 1.29243 -0.878971 0
M  V30 11131 H 1021.13 3.12311 0.873636 0
M  V30 11132 H 1020.92 3.84952 -0.745286 0
M  V30 11133 H 1022.41 4.17163 0.191031 0
M  V30 11134 N 1022.85 0.866709 1.31628 0
M  V30 11135 C 1023.78 0.335762 2.31073 0
M  V30 11136 C 1024.76 -0.571597 1.60209 0
M  V30 11137 O 1025.94 -0.489306 1.87935 0
M  V30 11138 C 1023.07 -0.466416 3.44154 0
M  V30 11139 C 1022.03 0.347561 4.26586 0
M  V30 11140 C 1021.35 -0.5801 5.31544 0
M  V30 11141 C 1022.65 1.57986 4.97833 0
M  V30 11142 H 1024.35 1.16673 2.75731 0
M  V30 11143 H 1021.89 0.56248 1.3256 0
M  V30 11144 H 1023.84 -0.84836 4.12772 0
M  V30 11145 H 1022.57 -1.33086 2.98254 0
M  V30 11146 H 1021.23 0.71141 3.59631 0
M  V30 11147 H 1020.88 -1.44174 4.81895 0
M  V30 11148 H 1020.58 -0.0393965 5.87587 0
M  V30 11149 H 1022.1 -0.958958 6.03023 0
M  V30 11150 H 1023.51 1.26954 5.59067 0
M  V30 11151 H 1021.91 2.05939 5.63657 0
M  V30 11152 H 1022.98 2.3345 4.25005 0
M  V30 11153 N 1024.32 -1.44642 0.625825 0
M  V30 11154 C 1025.55 -2.06458 0.135116 0
M  V30 11155 C 1025.97 -1.46729 -1.18811 0
M  V30 11156 O 1025.32 -0.58818 -1.72762 0
M  V30 11157 C 1025.37 -3.61499 0.00850114 0
M  V30 11158 O 1025.1 -4.19002 1.2794 0
M  V30 11159 C 1026.6 -4.40339 -0.511527 0
M  V30 11160 H 1023.82 -0.666541 0.0772294 0
M  V30 11161 H 1026.36 -1.85597 0.858726 0
M  V30 11162 H 1024.52 -3.81641 -0.665522 0
M  V30 11163 H 1024.93 -5.12385 1.12081 0
M  V30 11164 H 1026.4 -5.49262 -0.549149 0
M  V30 11165 H 1026.88 -4.11409 -1.53752 0
M  V30 11166 H 1027.49 -4.25104 0.129066 0
M  V30 11167 N 1025.8 -0.366053 -1.5329 0
M  V30 11168 C 1027.08 0.279902 -1.93587 0
M  V30 11169 C 1027.46 1.66352 -1.29963 0
M  V30 11170 O 1026.81 2.23845 -0.458895 0
M  V30 11171 C 1027.02 0.329634 -3.4744 0
M  V30 11172 C 1028.36 0.569754 -4.2076 0
M  V30 11173 O 1029.39 0.410823 -3.53823 0
M  V30 11174 O 1028.25 0.879262 -5.3938 0
M  V30 11175 H 1025.34 0.16802 -0.809752 0
M  V30 11176 H 1027.89 -0.418871 -1.64449 0
M  V30 11177 H 1026.66 -0.640434 -3.86023 0
M  V30 11178 H 1026.28 1.07428 -3.82812 0
M  V30 11179 N 1027.28 1.57312 -0.0952337 0
M  V30 11180 C 1028.5 1.99119 0.580206 0
M  V30 11181 C 1028.93 0.973955 1.60922 0
M  V30 11182 O 1028.29 -0.0575338 1.81209 0
M  V30 11183 C 1028.34 3.39893 1.20438 0
M  V30 11184 O 1027.44 3.40941 2.32019 0
M  V30 11185 H 1026.78 0.64748 0.147195 0
M  V30 11186 H 1029.31 2.03836 -0.176686 0
M  V30 11187 H 1029.32 3.7759 1.54564 0
M  V30 11188 H 1028 4.13453 0.450514 0
M  V30 11189 H 1026.57 3.1504 1.9951 0
M  V30 11190 N 1028.76 -0.17846 1.56586 0
M  V30 11191 C 1030.01 -0.894464 1.81228 0
M  V30 11192 C 1030.33 -1.83089 0.671062 0
M  V30 11193 O 1029.6 -1.93439 -0.309557 0
M  V30 11194 H 1028.18 -0.333288 0.668527 0
M  V30 11195 H 1030.84 -0.179986 1.94067 0
M  V30 11196 H 1029.93 -1.47565 2.75011 0
M  V30 11197 N 1030.24 -1.51135 -0.446768 0
M  V30 11198 C 1031.65 -1.55919 -1.02694 0
M  V30 11199 C 1032 -0.377038 -1.92543 0
M  V30 11200 O 1031.12 0.507295 -2.1037 0
M  V30 11201 C 1031.72 -2.8257 -1.86922 0
M  V30 11202 C 1030.28 -2.89956 -2.40005 0
M  V30 11203 C 1029.42 -2.50482 -1.18971 0
M  V30 11204 H 1032.37 -1.57048 -0.228403 0
M  V30 11205 H 1032.4 -2.65799 -2.7227 0
M  V30 11206 H 1031.91 -3.6859 -1.21502 0
M  V30 11207 H 1030.01 -2.08343 -3.08907 0
M  V30 11208 H 1030.12 -3.93399 -2.73448 0
M  V30 11209 H 1028.49 -2.03466 -1.53211 0
M  V30 11210 H 1029.27 -3.38837 -0.551762 0
M  V30 11211 N 1031.71 0.701592 -1.41122 0
M  V30 11212 C 1032.66 1.81559 -1.42495 0
M  V30 11213 C 1033.63 1.63722 -0.280078 0
M  V30 11214 O 1034.82 1.84658 -0.480231 0
M  V30 11215 C 1031.96 3.19392 -1.30702 0
M  V30 11216 C 1031.07 3.48704 -2.55009 0
M  V30 11217 C 1030.2 4.76118 -2.35554 0
M  V30 11218 C 1029.24 4.98378 -3.55367 0
M  V30 11219 N 1028.38 6.17014 -3.3502 0
M  V30 11220 H 1033.22 1.7972 -2.37707 0
M  V30 11221 H 1030.76 0.877727 -1.18044 0
M  V30 11222 H 1032.71 3.99004 -1.21867 0
M  V30 11223 H 1031.34 3.20423 -0.391012 0
M  V30 11224 H 1030.4 2.63542 -2.74317 0
M  V30 11225 H 1031.71 3.61057 -3.44151 0
M  V30 11226 H 1030.86 5.63774 -2.24152 0
M  V30 11227 H 1029.6 4.66 -1.43859 0
M  V30 11228 H 1028.61 4.09172 -3.6723 0
M  V30 11229 H 1029.83 5.10359 -4.48007 0
M  V30 11230 H 1027.78 6.0812 -2.4602 0
M  V30 11231 H 1027.69 6.30107 -4.17733 0
M  V30 11232 H 1028.96 7.0742 -3.27379 0
M  V30 11233 N 1033.19 1.2685 0.935242 0
M  V30 11234 C 1034.15 1.08975 2.01636 0
M  V30 11235 C 1035.15 0.0361543 1.60759 0
M  V30 11236 O 1036.34 0.280087 1.71934 0
M  V30 11237 C 1033.48 0.658831 3.34473 0
M  V30 11238 H 1034.67 2.04968 2.18925 0
M  V30 11239 H 1032.22 1.09531 1.11501 0
M  V30 11240 H 1032.96 -0.302824 3.22883 0
M  V30 11241 H 1032.74 1.41967 3.65497 0
M  V30 11242 H 1034.23 0.555783 4.13885 0
M  V30 11243 N 1034.67 -1.14067 1.0875 0
M  V30 11244 C 1035.62 -2.21332 0.715195 0
M  V30 11245 C 1036.61 -1.67059 -0.280679 0
M  V30 11246 O 1037.82 -1.79432 -0.142874 0
M  V30 11247 H 1034.19 -0.721126 0.213264 0
M  V30 11248 H 1036.16 -2.50002 1.62916 0
M  V30 11249 C 1034.91 -3.474 0.144401 0
M  V30 11250 H 1034.24 -3.89495 0.901884 0
M  V30 11251 H 1035.68 -4.23928 -0.0782564 0
M  V30 11252 C 1034.14 -3.17787 -1.11862 0
M  V30 11253 O 1034.67 -3.35906 -2.20295 0
M  V30 11254 N 1032.87 -2.71719 -1.03039 0
M  V30 11255 H 1032.42 -2.57175 -0.14793 0
M  V30 11256 H 1032.38 -2.52281 -1.87621 0
M  V30 11257 N 1036.15 -0.873678 -1.31166 0
M  V30 11258 C 1037.4 -0.482577 -1.95842 0
M  V30 11259 C 1037.71 0.970881 -1.69804 0
M  V30 11260 O 1038.92 1.4683 -2.28371 0
M  V30 11261 C 1037.37 -0.812074 -3.50619 0
M  V30 11262 C 1036.98 -2.28254 -3.85492 0
M  V30 11263 C 1038.72 -0.489624 -4.21667 0
M  V30 11264 C 1036.63 -2.55426 -5.33396 0
M  V30 11265 H 1035.56 -0.176736 -0.732994 0
M  V30 11266 H 1038.21 -1.06709 -1.49283 0
M  V30 11267 H 1036.59 -0.156769 -3.9569 0
M  V30 11268 H 1037.77 -2.98122 -3.51369 0
M  V30 11269 H 1036.08 -2.5714 -3.27518 0
M  V30 11270 H 1038.68 -0.669811 -5.30488 0
M  V30 11271 H 1039.02 0.570204 -4.12376 0
M  V30 11272 H 1039.56 -1.10163 -3.82242 0
M  V30 11273 H 1036.3 -3.60106 -5.47726 0
M  V30 11274 H 1035.82 -1.90156 -5.68859 0
M  V30 11275 H 1037.49 -2.40345 -6.00702 0
M  V30 11276 N 1037.63 1.44308 -0.633487 0
M  V30 11277 C 1038.88 2.01239 -0.136356 0
M  V30 11278 C 1039.19 1.50438 1.25011 0
M  V30 11279 O 1040.39 1.99513 1.84138 0
M  V30 11280 C 1038.85 3.59382 -0.193011 0
M  V30 11281 C 1038.46 4.19178 -1.58093 0
M  V30 11282 C 1040.2 4.23778 0.247534 0
M  V30 11283 C 1038.11 5.69553 -1.59258 0
M  V30 11284 H 1037.04 0.752521 -0.0472109 0
M  V30 11285 H 1039.69 1.65498 -0.79263 0
M  V30 11286 H 1038.07 3.92432 0.530408 0
M  V30 11287 H 1039.25 3.97662 -2.32813 0
M  V30 11288 H 1037.56 3.67079 -1.96576 0
M  V30 11289 H 1040.16 5.34075 0.258401 0
M  V30 11290 H 1040.5 3.96285 1.27529 0
M  V30 11291 H 1041.03 3.9554 -0.423469 0
M  V30 11292 H 1037.77 6.01784 -2.59878 0
M  V30 11293 H 1037.29 5.93185 -0.888352 0
M  V30 11294 H 1038.97 6.33234 -1.32756 0
M  V30 11295 N 1039.1 0.374177 1.53094 0
M  V30 11296 C 1040.35 -0.213131 2.01677 0
M  V30 11297 C 1040.68 -1.47715 1.26071 0
M  V30 11298 O 1039.96 -1.91199 0.356834 0
M  V30 11299 C 1040.24 -0.496392 3.56662 0
M  V30 11300 C 1040.09 0.781859 4.42953 0
M  V30 11301 C 1041.41 -1.29339 4.20666 0
M  V30 11302 H 1038.53 -0.0759885 0.733072 0
M  V30 11303 H 1041.17 0.500765 1.83282 0
M  V30 11304 H 1039.32 -1.10455 3.72467 0
M  V30 11305 H 1041 1.41914 4.38928 0
M  V30 11306 H 1039.24 1.40041 4.10574 0
M  V30 11307 H 1039.91 0.538508 5.49367 0
M  V30 11308 H 1042.39 -0.778848 4.08746 0
M  V30 11309 H 1041.26 -1.46033 5.29118 0
M  V30 11310 H 1041.52 -2.30435 3.77296 0
M  V30 11311 N 1040.58 -1.57259 0.103575 0
M  V30 11312 C 1041.86 -1.86143 -0.600852 0
M  V30 11313 C 1042.24 -1.00198 -1.85805 0
M  V30 11314 O 1041.59 -0.0766791 -2.28371 0
M  V30 11315 C 1041.8 -3.36978 -0.908108 0
M  V30 11316 C 1043.15 -4.05228 -1.26788 0
M  V30 11317 O 1044.17 -3.41908 -0.998859 0
M  V30 11318 O 1043.03 -5.16971 -1.7721 0
M  V30 11319 H 1040.12 -0.770064 -0.301547 0
M  V30 11320 H 1042.67 -1.69147 0.136914 0
M  V30 11321 H 1041.44 -3.91296 -0.0165615 0
M  V30 11322 H 1041.06 -3.5935 -1.70156 0
M  V30 11323 N 1042.06 0.170153 -1.56679 0
M  V30 11324 C 1043.29 0.90618 -1.86556 0
M  V30 11325 C 1043.71 1.74986 -0.690044 0
M  V30 11326 O 1043.07 1.77672 0.360862 0
M  V30 11327 C 1043.12 1.75777 -3.14857 0
M  V30 11328 O 1042.22 2.85952 -2.97162 0
M  V30 11329 H 1041.56 0.253781 -0.613589 0
M  V30 11330 H 1044.09 0.167943 -2.0391 0
M  V30 11331 H 1044.1 2.15747 -3.46291 0
M  V30 11332 H 1042.78 1.13807 -4.00026 0
M  V30 11333 H 1041.35 2.49557 -2.77084 0
M  V30 11334 N 1043.54 1.5137 0.438746 0
M  V30 11335 C 1044.47 1.68774 1.55074 0
M  V30 11336 C 1045.48 0.568436 1.52554 0
M  V30 11337 O 1046.67 0.842707 1.57355 0
M  V30 11338 C 1043.77 1.68592 2.9399 0
M  V30 11339 C 1042.95 2.97084 3.2103 0
M  V30 11340 C 1042 2.89108 4.39663 0
M  V30 11341 O 1041.03 3.63052 4.38385 0
M  V30 11342 N 1042.23 2.04863 5.4315 0
M  V30 11343 H 1045 2.647 1.40549 0
M  V30 11344 H 1042.56 1.49238 0.627663 0
M  V30 11345 H 1044.55 1.60826 3.71372 0
M  V30 11346 H 1043.12 0.802657 3.02119 0
M  V30 11347 H 1042.34 3.18729 2.3196 0
M  V30 11348 H 1043.63 3.82143 3.35923 0
M  V30 11349 H 1043.03 1.4416 5.47023 0
M  V30 11350 H 1041.58 2.02977 6.1939 0
M  V30 11351 N 1045.02 -0.694098 1.41492 0
M  V30 11352 C 1046.25 -1.48071 1.44078 0
M  V30 11353 C 1046.65 -1.89147 0.0448984 0
M  V30 11354 O 1046 -1.57441 -0.946464 0
M  V30 11355 C 1046.06 -2.77324 2.28761 0
M  V30 11356 C 1045.72 -2.58443 3.76904 0
M  V30 11357 C 1046.72 -2.24294 4.69029 0
M  V30 11358 C 1044.41 -2.74037 4.20962 0
M  V30 11359 C 1046.4 -2.0598 6.03201 0
M  V30 11360 C 1044.09 -2.5534 5.55198 0
M  V30 11361 C 1045.08 -2.21362 6.46133 0
M  V30 11362 O 1044.77 -2.02829 7.77892 0
M  V30 11363 H 1044.5 -0.462794 0.492745 0
M  V30 11364 H 1047.06 -0.861968 1.86438 0
M  V30 11365 H 1045.29 -3.4161 1.81217 0
M  V30 11366 H 1046.98 -3.39134 2.23031 0
M  V30 11367 H 1047.74 -2.11859 4.36281 0
M  V30 11368 H 1043.62 -2.99467 3.50486 0
M  V30 11369 H 1047.17 -1.79382 6.74142 0
M  V30 11370 H 1043.06 -2.67366 5.87525 0
M  V30 11371 H 1043.83 -2.17581 7.89051 0
M  V30 11372 N 1046.49 -1.27344 -0.928501 0
M  V30 11373 C 1047.74 -1.13804 -1.67859 0
M  V30 11374 C 1048.07 0.31555 -1.91619 0
M  V30 11375 O 1047.35 1.23087 -1.50599 0
M  V30 11376 C 1047.63 -1.9213 -3.04562 0
M  V30 11377 C 1047.48 -3.45468 -2.88048 0
M  V30 11378 C 1048.8 -1.72513 -4.04879 0
M  V30 11379 H 1045.92 -0.414796 -0.609191 0
M  V30 11380 H 1048.56 -1.5649 -1.07753 0
M  V30 11381 H 1046.71 -1.55853 -3.55868 0
M  V30 11382 H 1048.39 -3.9157 -2.43865 0
M  V30 11383 H 1046.63 -3.71849 -2.23407 0
M  V30 11384 H 1047.3 -3.95515 -3.85061 0
M  V30 11385 H 1049.78 -2.04143 -3.62581 0
M  V30 11386 H 1048.65 -2.29713 -4.98521 0
M  V30 11387 H 1048.91 -0.672856 -4.3695 0
M  V30 11388 N 1047.97 1.13488 -1.09353 0
M  V30 11389 C 1048.91 2.17951 -0.67622 0
M  V30 11390 C 1049.88 1.59482 0.316906 0
M  V30 11391 O 1051.07 1.8723 0.218459 0
M  V30 11392 C 1048.19 3.387 0.00391024 0
M  V30 11393 C 1047.24 4.15764 -0.950906 0
M  V30 11394 S 1048.07 4.75517 -2.46259 0
M  V30 11395 C 1049.23 5.99613 -1.79485 0
M  V30 11396 H 1049.46 2.53012 -1.56115 0
M  V30 11397 H 1047 1.24773 -0.909447 0
M  V30 11398 H 1048.95 4.08643 0.39002 0
M  V30 11399 H 1047.61 3.01941 0.86548 0
M  V30 11400 H 1046.81 5.02229 -0.422086 0
M  V30 11401 H 1046.41 3.51473 -1.27838 0
M  V30 11402 H 1048.7 6.68204 -1.11846 0
M  V30 11403 H 1049.64 6.57102 -2.63862 0
M  V30 11404 H 1050.05 5.50165 -1.26409 0
M  V30 11405 N 1049.45 0.880621 1.30701 0
M  V30 11406 C 1050.7 0.495894 1.95922 0
M  V30 11407 C 1051.02 -0.957214 1.69889 0
M  V30 11408 O 1050.29 -1.67245 1.0201 0
M  V30 11409 H 1048.87 0.180394 0.724891 0
M  V30 11410 H 1051.53 1.12274 1.59313 0
M  V30 11411 H 1050.63 0.662508 3.04987 0
M  V30 11412 N 1050.93 -1.4397 0.641131 0
M  V30 11413 C 1052.18 -2.01163 0.147026 0
M  V30 11414 C 1052.49 -1.51099 -1.24211 0
M  V30 11415 O 1053.7 -2.00487 -1.83078 0
M  V30 11416 C 1052.15 -3.59275 0.212068 0
M  V30 11417 C 1051.76 -4.18334 1.60314 0
M  V30 11418 C 1053.51 -4.23903 -0.225057 0
M  V30 11419 C 1051.41 -5.68701 1.62276 0
M  V30 11420 H 1050.34 -0.75226 0.051201 0
M  V30 11421 H 1052.99 -1.65075 0.801396 0
M  V30 11422 H 1051.38 -3.92708 -0.509589 0
M  V30 11423 H 1052.55 -3.96422 2.34918 0
M  V30 11424 H 1050.86 -3.66031 1.9852 0
M  V30 11425 H 1053.46 -5.34205 -0.230074 0
M  V30 11426 H 1053.8 -3.96956 -1.25426 0
M  V30 11427 H 1054.34 -3.95309 0.44444 0
M  V30 11428 H 1051.08 -6.00397 2.63066 0
M  V30 11429 H 1050.6 -5.92705 0.919797 0
M  V30 11430 H 1052.28 -6.32521 1.36112 0
M  V30 11431 N 1052.41 -0.382291 -1.52893 0
M  V30 11432 C 1053.66 0.203342 -2.00672 0
M  V30 11433 C 1053.97 1.48487 -1.27322 0
M  V30 11434 O 1055.18 2.15013 -1.65776 0
M  V30 11435 C 1053.63 0.412922 -3.57523 0
M  V30 11436 C 1053.24 -0.854949 -4.39767 0
M  V30 11437 C 1054.98 0.955301 -4.13611 0
M  V30 11438 C 1052.89 -0.614033 -5.88204 0
M  V30 11439 H 1051.82 0.0797635 -0.749769 0
M  V30 11440 H 1054.47 -0.50361 -1.76454 0
M  V30 11441 H 1052.85 1.18155 -3.77962 0
M  V30 11442 H 1054.03 -1.62765 -4.31096 0
M  V30 11443 H 1052.34 -1.32176 -3.94865 0
M  V30 11444 H 1054.94 1.15114 -5.22162 0
M  V30 11445 H 1055.28 1.92233 -3.69259 0
M  V30 11446 H 1055.82 0.24642 -3.97036 0
M  V30 11447 H 1052.55 -1.55187 -6.36865 0
M  V30 11448 H 1052.07 0.119865 -5.9968 0
M  V30 11449 H 1053.75 -0.245895 -6.46533 0
M  V30 11450 N 1053.89 1.57202 -0.111913 0
M  V30 11451 C 1055.11 1.99297 0.555713 0
M  V30 11452 C 1055.53 0.991444 1.60673 0
M  V30 11453 O 1054.89 -0.0166672 1.82492 0
M  V30 11454 C 1054.94 3.41413 1.18826 0
M  V30 11455 O 1054.66 4.37733 0.179261 0
M  V30 11456 C 1056.16 3.98602 1.93989 0
M  V30 11457 H 1053.38 0.654543 0.147695 0
M  V30 11458 H 1055.92 2.03557 -0.196163 0
M  V30 11459 H 1054.08 3.38115 1.89096 0
M  V30 11460 H 1054.49 5.20606 0.637935 0
M  V30 11461 H 1055.97 5.00143 2.33584 0
M  V30 11462 H 1056.44 3.37349 2.81233 0
M  V30 11463 H 1057.05 4.05424 1.28497 0
M  V30 11464 N 1055.36 -0.161842 1.56767 0
M  V30 11465 C 1056.61 -0.875192 1.82167 0
M  V30 11466 C 1056.93 -1.82367 0.690444 0
M  V30 11467 O 1056.2 -1.93756 -0.289023 0
M  V30 11468 H 1054.78 -0.326178 0.672024 0
M  V30 11469 H 1057.44 -0.159392 1.94247 0
M  V30 11470 H 1056.54 -1.44639 2.76561 0
M  V30 11471 N 1056.84 -1.516 -0.430713 0
M  V30 11472 C 1058.08 -1.6626 -1.18899 0
M  V30 11473 C 1058.45 -0.373877 -1.88325 0
M  V30 11474 O 1059.65 -0.39632 -2.65862 0
M  V30 11475 C 1057.92 -2.83693 -2.17378 0
M  V30 11476 S 1059.48 -3.18717 -3.01604 0
M  V30 11477 H 1056.29 -0.585681 -0.403112 0
M  V30 11478 H 1058.9 -1.89528 -0.479538 0
M  V30 11479 H 1057.6 -3.75759 -1.65025 0
M  V30 11480 H 1057.13 -2.62634 -2.92894 0
M  V30 11481 H 1059.15 -2.65665 -4.1909 0
M  V30 11482 N 1058.32 0.686584 -1.41858 0
M  V30 11483 C 1059.73 1.26682 -1.37145 0
M  V30 11484 C 1060.08 1.96112 -0.058922 0
M  V30 11485 O 1059.21 1.99321 0.842629 0
M  V30 11486 C 1059.8 2.30383 -2.48413 0
M  V30 11487 C 1058.36 2.83961 -2.47069 0
M  V30 11488 C 1057.51 1.58119 -2.27802 0
M  V30 11489 H 1060.46 0.480742 -1.51243 0
M  V30 11490 H 1060.48 3.11868 -2.17987 0
M  V30 11491 H 1059.99 1.79822 -3.43927 0
M  V30 11492 H 1058.09 3.38675 -1.55338 0
M  V30 11493 H 1058.21 3.3378 -3.43697 0
M  V30 11494 H 1056.57 1.84258 -1.75844 0
M  V30 11495 H 1057.35 1.09541 -3.25355 0
M  V30 11496 N 1059.8 1.27835 0.921735 0
M  V30 11497 C 1061.03 1.17352 1.704 0
M  V30 11498 C 1061.44 -0.268892 1.86875 0
M  V30 11499 O 1060.8 -1.18253 1.39005 0
M  V30 11500 C 1060.85 1.85889 3.10045 0
M  V30 11501 O 1060.57 3.24495 2.94338 0
M  V30 11502 C 1062.07 1.81607 4.04393 0
M  V30 11503 H 1059.29 0.40773 0.532914 0
M  V30 11504 H 1061.83 1.68815 1.15419 0
M  V30 11505 H 1059.99 1.38316 3.61867 0
M  V30 11506 H 1060.4 3.58705 3.82663 0
M  V30 11507 H 1061.88 2.34165 4.99871 0
M  V30 11508 H 1062.35 0.786697 4.32097 0
M  V30 11509 H 1062.96 2.28822 3.58498 0
M  V30 11510 N 1061.28 -1.12907 1.09954 0
M  V30 11511 C 1062.19 -2.22082 0.756095 0
M  V30 11512 C 1063.2 -1.72277 -0.244272 0
M  V30 11513 O 1064.38 -2.01224 -0.0842637 0
M  V30 11514 C 1061.44 -3.46192 0.187642 0
M  V30 11515 C 1060.5 -4.10861 1.24465 0
M  V30 11516 C 1059.74 -5.29047 0.703227 0
M  V30 11517 O 1059.96 -5.68443 -0.472043 0
M  V30 11518 O 1058.89 -5.83904 1.46082 0
M  V30 11519 H 1062.72 -2.53842 1.66727 0
M  V30 11520 H 1060.3 -1.21145 0.874316 0
M  V30 11521 H 1062.19 -4.21212 -0.125774 0
M  V30 11522 H 1060.86 -3.16119 -0.696459 0
M  V30 11523 H 1059.77 -3.37643 1.61085 0
M  V30 11524 H 1061.1 -4.45078 2.10159 0
M  V30 11525 N 1062.75 -0.88754 -1.30232 0
M  V30 11526 C 1063.98 -0.521562 -2.00735 0
M  V30 11527 C 1064.4 0.883247 -1.66073 0
M  V30 11528 O 1063.76 1.58581 -0.878731 0
M  V30 11529 C 1063.81 -0.706521 -3.53611 0
M  V30 11530 O 1062.91 0.246447 -4.11663 0
M  V30 11531 H 1062.25 -0.205216 -0.631492 0
M  V30 11532 H 1064.78 -1.19579 -1.66018 0
M  V30 11533 H 1064.79 -0.606501 -4.03467 0
M  V30 11534 H 1063.47 -1.73076 -3.78177 0
M  V30 11535 H 1062.05 0.0999062 -3.72766 0
M  V30 11536 N 1064.23 1.43628 -0.648757 0
M  V30 11537 C 1065.14 2.34554 0.0463037 0
M  V30 11538 C 1066.16 1.53629 0.816952 0
M  V30 11539 O 1067.33 1.86297 0.765212 0
M  V30 11540 C 1064.4 3.3185 1.00381 0
M  V30 11541 C 1063.46 4.2868 0.230589 0
M  V30 11542 C 1062.69 5.21328 1.14249 0
M  V30 11543 O 1062.92 5.18298 2.38166 0
M  V30 11544 O 1061.85 5.98726 0.617296 0
M  V30 11545 H 1065.68 2.95475 -0.702008 0
M  V30 11546 H 1063.26 1.43694 -0.408942 0
M  V30 11547 H 1065.14 3.91692 1.5542 0
M  V30 11548 H 1063.82 2.73439 1.73243 0
M  V30 11549 H 1062.73 3.72332 -0.363282 0
M  V30 11550 H 1064.06 4.90061 -0.458368 0
M  V30 11551 N 1065.71 0.390394 1.52688 0
M  V30 11552 C 1066.94 -0.194013 2.06491 0
M  V30 11553 C 1067.36 -1.3965 1.26014 0
M  V30 11554 O 1066.72 -1.79038 0.285468 0
M  V30 11555 C 1066.77 -0.541306 3.56514 0
M  V30 11556 O 1065.87 -1.63509 3.78601 0
M  V30 11557 H 1065.21 -0.0223608 0.663623 0
M  V30 11558 H 1067.74 0.558179 1.96839 0
M  V30 11559 H 1067.75 -0.805301 3.99974 0
M  V30 11560 H 1066.43 0.337828 4.14526 0
M  V30 11561 H 1065 -1.36473 3.4703 0
M  V30 11562 N 1067.19 -1.57141 0.120249 0
M  V30 11563 C 1068.6 -1.5784 -0.236335 0
M  V30 11564 C 1068.8 -1.13304 -1.66626 0
M  V30 11565 O 1067.86 -0.821004 -2.3878 0
M  V30 11566 C 1069.17 -3.007 -0.00188211 0
M  V30 11567 C 1070.72 -3.12927 -0.0676838 0
M  V30 11568 C 1071.2 -4.57789 0.139092 0
M  V30 11569 N 1072.69 -4.63122 0.085104 0
M  V30 11570 C 1073.42 -5.72978 0.219983 0
M  V30 11571 N 1072.92 -6.91579 0.411102 0
M  V30 11572 N 1074.71 -5.61874 0.159469 0
M  V30 11573 H 1066.86 -1.84391 1.05422 0
M  V30 11574 H 1069.13 -0.852228 0.415225 0
M  V30 11575 H 1068.83 -3.37575 0.986718 0
M  V30 11576 H 1068.71 -3.70005 -0.733203 0
M  V30 11577 H 1071.09 -2.75909 -1.04681 0
M  V30 11578 H 1071.17 -2.46162 0.695538 0
M  V30 11579 H 1070.82 -4.95506 1.1152 0
M  V30 11580 H 1070.75 -5.22646 -0.644131 0
M  V30 11581 H 1073.24 -3.77854 -0.0590479 0
M  V30 11582 H 1073.55 -7.71149 0.504851 0
M  V30 11583 H 1071.9 -6.9356 0.447091 0
M  V30 11584 H 1075.09 -4.68099 0.0111131 0
M  V30 11585 H 1075.26 -6.47445 0.268028 0
M  V30 11586 N 1068.67 0.153526 -1.5685 0
M  V30 11587 C 1069.6 1.19162 -2.00805 0
M  V30 11588 C 1070.58 1.45172 -0.886518 0
M  V30 11589 O 1071.76 1.56203 -1.15387 0
M  V30 11590 C 1068.89 2.52637 -2.38311 0
M  V30 11591 C 1067.85 2.41161 -3.53589 0
M  V30 11592 C 1067.17 3.79287 -3.76889 0
M  V30 11593 C 1068.47 1.90122 -4.86468 0
M  V30 11594 H 1070.17 0.82617 -2.87776 0
M  V30 11595 H 1067.71 0.395972 -1.38449 0
M  V30 11596 H 1069.67 3.25478 -2.6766 0
M  V30 11597 H 1068.39 2.91005 -1.4827 0
M  V30 11598 H 1067.05 1.70772 -3.24395 0
M  V30 11599 H 1066.7 4.15079 -2.84109 0
M  V30 11600 H 1066.4 3.72472 -4.54465 0
M  V30 11601 H 1067.92 4.53687 -4.08657 0
M  V30 11602 H 1069.33 2.52752 -5.14577 0
M  V30 11603 H 1067.73 1.94214 -5.67804 0
M  V30 11604 H 1068.8 0.856517 -4.77275 0
M  V30 11605 N 1070.14 1.51827 0.422667 0
M  V30 11606 C 1071.39 1.65464 1.17258 0
M  V30 11607 C 1071.72 0.376834 1.90509 0
M  V30 11608 O 1071 -0.624219 1.84211 0
M  V30 11609 C 1071.28 2.86776 2.17788 0
M  V30 11610 C 1071.13 4.24571 1.48523 0
M  V30 11611 C 1072.45 3.03603 3.18611 0
M  V30 11612 H 1069.57 0.602169 0.424925 0
M  V30 11613 H 1072.21 1.84349 0.45996 0
M  V30 11614 H 1070.36 2.70806 2.78561 0
M  V30 11615 H 1072.04 4.5224 0.909739 0
M  V30 11616 H 1070.28 4.26595 0.787354 0
M  V30 11617 H 1070.95 5.05475 2.2181 0
M  V30 11618 H 1073.43 3.18381 2.67904 0
M  V30 11619 H 1072.3 3.90022 3.8623 0
M  V30 11620 H 1072.56 2.16318 3.85563 0
M  V30 11621 N 1071.62 -0.679052 1.4222 0
M  V30 11622 C 1072.57 -1.81398 1.45594 0
M  V30 11623 C 1073.56 -1.66112 0.332127 0
M  V30 11624 O 1074.77 -1.72772 0.504942 0
M  V30 11625 H 1071.15 -0.598045 0.455902 0
M  V30 11626 H 1073.12 -1.7567 2.41211 0
M  V30 11627 C 1071.87 -3.19525 1.37109 0
M  V30 11628 H 1071.19 -3.31912 2.22878 0
M  V30 11629 H 1072.63 -3.98967 1.43531 0
M  V30 11630 C 1071.09 -3.36792 0.0853593 0
M  V30 11631 O 1071.62 -3.92309 -0.863532 0
M  V30 11632 N 1069.82 -2.906 0.00389229 0
M  V30 11633 H 1069.37 -2.45607 0.776846 0
M  V30 11634 H 1069.33 -3.0253 -0.855742 0
M  V30 11635 N 1073.1 -1.28322 -0.914942 0
M  V30 11636 C 1074.03 -1.07947 -2.02188 0
M  V30 11637 C 1075.05 -0.0315743 -1.62769 0
M  V30 11638 O 1076.23 -0.274503 -1.76377 0
M  V30 11639 C 1073.33 -0.61805 -3.33217 0
M  V30 11640 C 1072.51 -1.74109 -4.01254 0
M  V30 11641 C 1071.57 -1.27325 -5.10563 0
M  V30 11642 O 1070.59 -1.97526 -5.33828 0
M  V30 11643 N 1071.79 -0.1358 -5.80341 0
M  V30 11644 H 1074.56 -2.03275 -2.20225 0
M  V30 11645 H 1072.12 -1.20059 -1.08616 0
M  V30 11646 H 1074.11 -0.288693 -4.03669 0
M  V30 11647 H 1072.68 0.242348 -3.11659 0
M  V30 11648 H 1071.9 -2.2401 -3.24366 0
M  V30 11649 H 1073.19 -2.49448 -4.43456 0
M  V30 11650 H 1072.59 0.449846 -5.63909 0
M  V30 11651 H 1071.15 0.134289 -6.51662 0
M  V30 11652 N 1074.58 1.12322 -1.10551 0
M  V30 11653 C 1075.83 1.83216 -0.84349 0
M  V30 11654 C 1076.14 1.85075 0.632992 0
M  V30 11655 O 1077.35 2.51976 1.01095 0
M  V30 11656 C 1075.8 3.28994 -1.45915 0
M  V30 11657 C 1075.41 3.3549 -2.96901 0
M  V30 11658 C 1077.15 4.0485 -1.27657 0
M  V30 11659 C 1075.06 4.7561 -3.51496 0
M  V30 11660 H 1073.99 0.686471 -0.311887 0
M  V30 11661 H 1076.64 1.26463 -1.32964 0
M  V30 11662 H 1075.02 3.85621 -0.900678 0
M  V30 11663 H 1076.2 2.88795 -3.59074 0
M  V30 11664 H 1074.51 2.73107 -3.14327 0
M  V30 11665 H 1077.11 5.08316 -1.65889 0
M  V30 11666 H 1077.45 4.15727 -0.218258 0
M  V30 11667 H 1077.99 3.54584 -1.80318 0
M  V30 11668 H 1074.73 4.69927 -4.56999 0
M  V30 11669 H 1074.25 5.22753 -2.94091 0
M  V30 11670 H 1075.92 5.44552 -3.49388 0
M  V30 11671 N 1076.06 0.894434 1.2976 0
M  V30 11672 C 1077.31 0.513673 1.95049 0
M  V30 11673 C 1077.62 -0.943744 1.71327 0
M  V30 11674 O 1078.82 -1.43179 2.30678 0
M  V30 11675 C 1077.28 0.867751 3.49282 0
M  V30 11676 C 1076.89 2.34358 3.81812 0
M  V30 11677 C 1078.63 0.556645 4.20835 0
M  V30 11678 C 1076.54 2.63879 5.29265 0
M  V30 11679 H 1075.47 0.188375 0.73009 0
M  V30 11680 H 1078.12 1.09071 1.47566 0
M  V30 11681 H 1076.5 0.2197 3.9539 0
M  V30 11682 H 1077.68 3.03674 3.46581 0
M  V30 11683 H 1075.99 2.62318 3.23386 0
M  V30 11684 H 1078.59 0.754123 5.29355 0
M  V30 11685 H 1078.93 -0.504526 4.13231 0
M  V30 11686 H 1079.46 1.1623 3.80441 0
M  V30 11687 H 1076.2 3.68774 5.41928 0
M  V30 11688 H 1075.72 1.99182 5.65762 0
M  V30 11689 H 1077.4 2.49871 5.96803 0
M  V30 11690 N 1077.53 -1.43282 0.656365 0
M  V30 11691 C 1078.44 -2.34576 -0.033864 0
M  V30 11692 C 1079.46 -1.5406 -0.808793 0
M  V30 11693 O 1080.64 -1.867 -0.755322 0
M  V30 11694 C 1077.7 -3.32378 -0.986197 0
M  V30 11695 C 1076.76 -4.28797 -0.207851 0
M  V30 11696 C 1076 -5.21927 -1.11482 0
M  V30 11697 O 1076.22 -5.19554 -2.35414 0
M  V30 11698 O 1075.15 -5.99045 -0.585536 0
M  V30 11699 H 1078.98 -2.95099 0.717668 0
M  V30 11700 H 1076.56 -1.43475 0.416556 0
M  V30 11701 H 1078.45 -3.9251 -1.53341 0
M  V30 11702 H 1077.12 -2.74354 -1.7179 0
M  V30 11703 H 1076.03 -3.72134 0.383022 0
M  V30 11704 H 1077.36 -4.89811 0.48435 0
M  V30 11705 N 1079.01 -0.398486 -1.52479 0
M  V30 11706 C 1079.92 0.439328 -2.3045 0
M  V30 11707 C 1080.94 1.06322 -1.37738 0
M  V30 11708 O 1082.12 1.06704 -1.7081 0
M  V30 11709 C 1079.18 1.54655 -3.10294 0
M  V30 11710 C 1078.24 0.946824 -4.18729 0
M  V30 11711 C 1077.47 2.00129 -4.94757 0
M  V30 11712 O 1077.7 3.2178 -4.70971 0
M  V30 11713 O 1076.63 1.61345 -5.79872 0
M  V30 11714 H 1080.46 -0.196118 -3.03066 0
M  V30 11715 H 1078.04 -0.161961 -1.4852 0
M  V30 11716 H 1079.92 2.18958 -3.60049 0
M  V30 11717 H 1078.6 2.1668 -2.40482 0
M  V30 11718 H 1077.51 0.266802 -3.73147 0
M  V30 11719 H 1078.84 0.370664 -4.90802 0
M  V30 11720 N 1080.49 1.57075 -0.12858 0
M  V30 11721 C 1081.42 2.11553 0.855593 0
M  V30 11722 C 1082.4 1.03435 1.25459 0
M  V30 11723 O 1083.59 1.3115 1.35395 0
M  V30 11724 C 1080.71 2.62012 2.14633 0
M  V30 11725 C 1079.76 3.82105 1.89467 0
M  V30 11726 S 1080.59 5.24033 1.10228 0
M  V30 11727 C 1081.75 5.77867 2.4046 0
M  V30 11728 H 1081.98 2.94701 0.392248 0
M  V30 11729 H 1079.51 1.54164 0.0853746 0
M  V30 11730 H 1081.47 2.91737 2.8879 0
M  V30 11731 H 1080.13 1.79029 2.58084 0
M  V30 11732 H 1079.33 4.15592 2.8513 0
M  V30 11733 H 1078.93 3.53047 1.23427 0
M  V30 11734 H 1081.22 5.88175 3.36238 0
M  V30 11735 H 1082.16 6.75775 2.11504 0
M  V30 11736 H 1082.57 5.05991 2.50266 0
M  V30 11737 N 1081.97 -0.145205 1.5693 0
M  V30 11738 C 1083.22 -0.855955 1.82637 0
M  V30 11739 C 1083.53 -1.82255 0.710109 0
M  V30 11740 O 1084.74 -2.57758 0.852837 0
M  V30 11741 C 1083.19 -1.57278 3.23715 0
M  V30 11742 C 1082.8 -0.648507 4.43281 0
M  V30 11743 C 1084.55 -2.27021 3.58695 0
M  V30 11744 C 1082.45 -1.36706 5.75383 0
M  V30 11745 H 1081.38 -0.323385 0.68113 0
M  V30 11746 H 1084.03 -0.10869 1.83178 0
M  V30 11747 H 1082.42 -2.36574 3.17567 0
M  V30 11748 H 1083.59 0.109355 4.6067 0
M  V30 11749 H 1081.9 -0.0594029 4.16358 0
M  V30 11750 H 1084.5 -2.81423 4.54648 0
M  V30 11751 H 1084.84 -3.03598 2.8484 0
M  V30 11752 H 1085.38 -1.54642 3.66512 0
M  V30 11753 H 1082.12 -0.6431 6.52338 0
M  V30 11754 H 1081.64 -2.09759 5.61926 0
M  V30 11755 H 1083.32 -1.90748 6.18243 0
M  V30 11756 N 1083.45 -1.52049 -0.414609 0
M  V30 11757 C 1084.39 -1.74998 -1.5048 0
M  V30 11758 C 1085.36 -0.592251 -1.55182 0
M  V30 11759 O 1086.55 -0.829203 -1.7184 0
M  V30 11760 C 1083.69 -1.90157 -2.87983 0
M  V30 11761 C 1082.8 -3.17789 -2.92633 0
M  V30 11762 C 1081.94 -3.23411 -4.21401 0
M  V30 11763 C 1080.98 -4.45267 -4.20004 0
M  V30 11764 N 1080.11 -4.48312 -5.40334 0
M  V30 11765 H 1084.95 -2.68046 -1.30212 0
M  V30 11766 H 1082.49 -1.32824 -0.632154 0
M  V30 11767 H 1084.45 -1.96929 -3.67797 0
M  V30 11768 H 1083.08 -1.00496 -3.06758 0
M  V30 11769 H 1082.13 -3.20216 -2.05343 0
M  V30 11770 H 1083.44 -4.07634 -2.87465 0
M  V30 11771 H 1082.6 -3.29224 -5.09604 0
M  V30 11772 H 1081.34 -2.31495 -4.29257 0
M  V30 11773 H 1080.34 -4.39606 -3.30192 0
M  V30 11774 H 1081.57 -5.38472 -4.13793 0
M  V30 11775 H 1079.51 -3.59277 -5.48868 0
M  V30 11776 H 1079.43 -5.31994 -5.37139 0
M  V30 11777 H 1080.7 -4.58347 -6.30506 0
M  V30 11778 N 1084.93 0.6715 -1.42579 0
M  V30 11779 C 1085.87 1.78496 -1.46314 0
M  V30 11780 C 1086.84 1.63091 -0.314743 0
M  V30 11781 O 1088.03 1.83597 -0.519292 0
M  V30 11782 C 1085.17 3.16548 -1.37447 0
M  V30 11783 C 1084.28 3.43216 -2.62348 0
M  V30 11784 C 1083.42 4.71014 -2.456 0
M  V30 11785 C 1082.45 4.90728 -3.65859 0
M  V30 11786 N 1081.59 6.09769 -3.48032 0
M  V30 11787 H 1086.43 1.74638 -2.41466 0
M  V30 11788 H 1083.97 0.852491 -1.19879 0
M  V30 11789 H 1085.93 3.96329 -1.30303 0
M  V30 11790 H 1084.56 3.19522 -0.458891 0
M  V30 11791 H 1083.61 2.57664 -2.79846 0
M  V30 11792 H 1084.92 3.53675 -3.51732 0
M  V30 11793 H 1084.07 5.58892 -2.3606 0
M  V30 11794 H 1082.81 4.62843 -1.53712 0
M  V30 11795 H 1081.82 4.01291 -3.75827 0
M  V30 11796 H 1083.04 5.00741 -4.58732 0
M  V30 11797 H 1080.99 6.02765 -2.58864 0
M  V30 11798 H 1080.91 6.21104 -4.31005 0
M  V30 11799 H 1082.17 7.00317 -3.42311 0
M  V30 11800 N 1086.4 1.28806 0.908124 0
M  V30 11801 C 1087.63 1.19271 1.69674 0
M  V30 11802 C 1088.05 -0.244403 1.86505 0
M  V30 11803 O 1087.41 -1.17668 1.37927 0
M  V30 11804 C 1087.46 1.9023 3.06341 0
M  V30 11805 O 1086.56 1.2136 3.94139 0
M  V30 11806 H 1085.9 0.413738 0.519343 0
M  V30 11807 H 1088.43 1.70227 1.13508 0
M  V30 11808 H 1088.44 1.98356 3.56537 0
M  V30 11809 H 1087.12 2.94762 2.93408 0
M  V30 11810 H 1085.7 1.21435 3.52573 0
M  V30 11811 N 1087.88 -1.11734 1.11145 0
M  V30 11812 C 1088.79 -2.21267 0.779607 0
M  V30 11813 C 1089.81 -1.72526 -0.225986 0
M  V30 11814 O 1090.98 -2.01302 -0.0629166 0
M  V30 11815 C 1088.05 -3.45973 0.22435 0
M  V30 11816 C 1087.11 -4.09518 1.28816 0
M  V30 11817 C 1086.34 -5.28271 0.7593 0
M  V30 11818 O 1086.57 -5.68912 -0.411725 0
M  V30 11819 O 1085.5 -5.82322 1.52266 0
M  V30 11820 H 1089.33 -2.5206 1.6941 0
M  V30 11821 H 1086.91 -1.20211 0.887115 0
M  V30 11822 H 1088.79 -4.21322 -0.0810921 0
M  V30 11823 H 1087.47 -3.1684 -0.662891 0
M  V30 11824 H 1086.37 -3.35915 1.64657 0
M  V30 11825 H 1087.71 -4.42824 2.14868 0
M  V30 11826 N 1089.36 -0.901303 -1.29284 0
M  V30 11827 C 1090.61 -0.52401 -1.94774 0
M  V30 11828 C 1090.92 0.934645 -1.71825 0
M  V30 11829 O 1092.13 1.41953 -2.31434 0
M  V30 11830 C 1090.58 -0.886262 -3.48817 0
M  V30 11831 C 1090.19 -2.3638 -3.80564 0
M  V30 11832 C 1091.94 -0.578955 -4.20533 0
M  V30 11833 C 1089.84 -2.66682 -5.27858 0
M  V30 11834 H 1088.77 -0.192244 -0.72908 0
M  V30 11835 H 1091.42 -1.09852 -1.46986 0
M  V30 11836 H 1089.81 -0.240666 -3.95268 0
M  V30 11837 H 1090.98 -3.05508 -3.44966 0
M  V30 11838 H 1089.29 -2.64029 -3.2199 0
M  V30 11839 H 1091.89 -0.782185 -5.28948 0
M  V30 11840 H 1092.23 0.482605 -4.13493 0
M  V30 11841 H 1092.77 -1.18246 -3.79819 0
M  V30 11842 H 1089.51 -3.71643 -5.39965 0
M  V30 11843 H 1089.03 -2.02179 -5.64698 0
M  V30 11844 H 1090.71 -2.53033 -5.95469 0
M  V30 11845 N 1090.84 1.42931 -0.663954 0
M  V30 11846 C 1092.07 2.05729 -0.189532 0
M  V30 11847 C 1092.48 1.49914 1.15423 0
M  V30 11848 O 1091.82 0.629324 1.72584 0
M  V30 11849 C 1091.88 3.59482 -0.0354748 0
M  V30 11850 C 1091.54 4.37935 -1.30622 0
M  V30 11851 C 1092.54 4.69297 -2.23733 0
M  V30 11852 C 1090.23 4.77761 -1.5508 0
M  V30 11853 C 1092.22 5.39407 -3.39586 0
M  V30 11854 C 1089.91 5.47613 -2.71224 0
M  V30 11855 C 1090.91 5.7836 -3.63302 0
M  V30 11856 O 1090.59 6.46783 -4.77417 0
M  V30 11857 H 1090.33 0.669678 -0.0922342 0
M  V30 11858 H 1092.88 1.84243 -0.907943 0
M  V30 11859 H 1091.11 3.79584 0.738412 0
M  V30 11860 H 1092.8 4.03947 0.397679 0
M  V30 11861 H 1093.56 4.39038 -2.06084 0
M  V30 11862 H 1089.44 4.53229 -0.842863 0
M  V30 11863 H 1092.99 5.63323 -4.11476 0
M  V30 11864 H 1088.88 5.77289 -2.88804 0
M  V30 11865 H 1089.65 6.6527 -4.76821 0
M  V30 11866 N 1092.32 0.406567 1.52266 0
M  V30 11867 C 1093.56 -0.170305 2.02084 0
M  V30 11868 C 1093.89 -1.45008 1.29176 0
M  V30 11869 O 1093.17 -1.90399 0.39731 0
M  V30 11870 C 1093.45 -0.420627 3.57635 0
M  V30 11871 C 1093.31 0.87564 4.41194 0
M  V30 11872 C 1094.62 -1.20387 4.23314 0
M  V30 11873 H 1091.74 -0.0604219 0.734519 0
M  V30 11874 H 1094.39 0.539529 1.82179 0
M  V30 11875 H 1092.54 -1.0253 3.74726 0
M  V30 11876 H 1094.21 1.51192 4.35819 0
M  V30 11877 H 1092.45 1.48718 4.07511 0
M  V30 11878 H 1093.12 0.654916 5.48101 0
M  V30 11879 H 1095.6 -0.691972 4.10306 0
M  V30 11880 H 1094.47 -1.34776 5.32096 0
M  V30 11881 H 1094.73 -2.2238 3.82099 0
M  V30 11882 N 1093.79 -1.57004 0.136909 0
M  V30 11883 C 1094.76 -2.15066 -0.792419 0
M  V30 11884 C 1095.76 -1.08991 -1.18226 0
M  V30 11885 O 1096.95 -1.34681 -1.10484 0
M  V30 11886 C 1094.08 -2.70554 -2.07397 0
M  V30 11887 H 1095.27 -2.98519 -0.28752 0
M  V30 11888 H 1092.83 -1.55895 -0.112469 0
M  V30 11889 H 1093.56 -1.90739 -2.62277 0
M  V30 11890 H 1093.35 -3.48149 -1.80374 0
M  V30 11891 H 1094.84 -3.15322 -2.73792 0
M  V30 11892 N 1095.27 0.136881 -1.57004 0
M  V30 11893 C 1096.52 0.844147 -1.85056 0
M  V30 11894 C 1096.87 1.78328 -0.722278 0
M  V30 11895 O 1096.17 1.89557 0.279059 0
M  V30 11896 C 1096.36 1.64711 -3.17183 0
M  V30 11897 C 1096.19 0.787229 -4.42756 0
M  V30 11898 C 1094.96 0.448938 -5.03302 0
M  V30 11899 C 1097.16 0.112947 -5.14176 0
M  V30 11900 N 1095.14 -0.423481 -6.12438 0
M  V30 11901 C 1096.51 -0.619195 -6.169 0
M  V30 11902 C 1098.57 0.0346687 -4.97888 0
M  V30 11903 C 1097.27 -1.42224 -7.05099 0
M  V30 11904 C 1099.29 -0.755143 -5.86559 0
M  V30 11905 C 1098.66 -1.47553 -6.88772 0
M  V30 11906 H 1094.76 0.286398 -0.727668 0
M  V30 11907 H 1097.34 0.108903 -1.94395 0
M  V30 11908 H 1095.51 2.35352 -3.08972 0
M  V30 11909 H 1097.24 2.29833 -3.33105 0
M  V30 11910 H 1094 0.787068 -4.67014 0
M  V30 11911 H 1094.42 -0.851013 -6.7163 0
M  V30 11912 H 1099.06 0.577271 -4.18841 0
M  V30 11913 H 1096.78 -1.97606 -7.83567 0
M  V30 11914 H 1100.37 -0.817835 -5.76023 0
M  V30 11915 H 1099.25 -2.07687 -7.56198 0
M  V30 11916 N 1096.75 1.52266 0.40654 0
M  V30 11917 C 1098 1.66699 1.15496 0
M  V30 11918 C 1098.33 0.397019 1.90098 0
M  V30 11919 O 1097.6 -0.604646 1.84863 0
M  V30 11920 C 1097.89 2.8907 2.14734 0
M  V30 11921 C 1097.74 4.26123 1.44012 0
M  V30 11922 C 1099.06 3.06966 3.15373 0
M  V30 11923 H 1096.18 0.606642 0.418515 0
M  V30 11924 H 1098.82 1.84826 0.440381 0
M  V30 11925 H 1096.97 2.73745 2.75673 0
M  V30 11926 H 1098.64 4.5318 0.861722 0
M  V30 11927 H 1096.89 4.27406 0.742064 0
M  V30 11928 H 1097.56 5.07799 2.16436 0
M  V30 11929 H 1100.03 3.21205 2.64512 0
M  V30 11930 H 1098.91 3.94097 3.82072 0
M  V30 11931 H 1099.17 2.20395 3.83247 0
M  V30 11932 N 1098.23 -0.663929 1.42933 0
M  V30 11933 C 1099.64 -1.24484 1.39143 0
M  V30 11934 C 1099.99 -1.95993 0.0901142 0
M  V30 11935 O 1099.12 -2.00636 -0.810812 0
M  V30 11936 C 1099.71 -2.26402 2.52047 0
M  V30 11937 C 1098.27 -2.79995 2.51555 0
M  V30 11938 C 1097.42 -1.54475 2.30289 0
M  V30 11939 H 1100.37 -0.456619 1.51989 0
M  V30 11940 H 1100.39 -3.08361 2.22921 0
M  V30 11941 H 1099.9 -1.74328 3.46744 0
M  V30 11942 H 1098 -3.36161 1.60707 0
M  V30 11943 H 1098.11 -3.2827 3.48964 0
M  V30 11944 H 1096.48 -1.81437 1.78753 0
M  V30 11945 H 1097.26 -1.04351 3.27056 0
M  V30 11946 N 1099.71 -1.29285 -0.901281 0
M  V30 11947 C 1100.67 -1.14283 -1.98676 0
M  V30 11948 C 1101.67 -0.0787641 -1.60607 0
M  V30 11949 O 1102.86 -0.325574 -1.71131 0
M  V30 11950 C 1099.99 -0.747279 -3.32609 0
M  V30 11951 H 1101.18 -2.10701 -2.13413 0
M  V30 11952 H 1098.74 -1.12449 -1.08558 0
M  V30 11953 H 1099.47 0.217111 -3.23572 0
M  V30 11954 H 1099.26 -1.51608 -3.61604 0
M  V30 11955 H 1100.75 -0.665322 -4.12266 0
M  V30 11956 N 1101.18 1.11143 -1.11736 0
M  V30 11957 C 1102.13 2.15396 -0.747566 0
M  V30 11958 C 1103.12 1.58948 0.249894 0
M  V30 11959 O 1104.31 1.7691 0.0565267 0
M  V30 11960 C 1101.44 3.42741 -0.195776 0
M  V30 11961 C 1100.53 4.06141 -1.22109 0
M  V30 11962 N 1100.92 4.44351 -2.41631 0
M  V30 11963 C 1099.21 4.33104 -1.06474 0
M  V30 11964 C 1099.92 4.94062 -3.07046 0
M  V30 11965 N 1098.89 4.90411 -2.34516 0
M  V30 11966 H 1102.69 2.42722 -1.6572 0
M  V30 11967 H 1100.21 1.28189 -0.997059 0
M  V30 11968 H 1102.2 4.16809 0.0872984 0
M  V30 11969 H 1100.86 3.16878 0.708406 0
M  V30 11970 H 1101.88 4.36283 -2.79065 0
M  V30 11971 H 1098.55 4.16934 -0.217246 0
M  V30 11972 H 1099.94 5.33234 -4.08792 0
M  V30 11973 N 1102.66 0.908147 1.28804 0
M  V30 11974 C 1103.61 0.390734 2.27468 0
M  V30 11975 C 1104.58 -0.531765 1.57358 0
M  V30 11976 O 1105.76 -0.455177 1.85291 0
M  V30 11977 C 1102.9 -0.368159 3.43131 0
M  V30 11978 C 1102.02 0.586202 4.28004 0
M  V30 11979 C 1101.15 -0.190581 5.30858 0
M  V30 11980 C 1100.19 0.757758 6.07391 0
M  V30 11981 N 1099.33 0.0148488 7.02098 0
M  V30 11982 H 1104.17 1.23717 2.71105 0
M  V30 11983 H 1101.71 0.621382 1.33331 0
M  V30 11984 H 1103.66 -0.824289 4.08976 0
M  V30 11985 H 1102.29 -1.17898 3.00499 0
M  V30 11986 H 1101.35 1.16086 3.62254 0
M  V30 11987 H 1102.66 1.31177 4.81242 0
M  V30 11988 H 1101.81 -0.707528 6.0256 0
M  V30 11989 H 1100.55 -0.949234 4.78373 0
M  V30 11990 H 1099.56 1.28613 5.34545 0
M  V30 11991 H 1100.78 1.51588 6.61965 0
M  V30 11992 H 1098.73 -0.725916 6.51971 0
M  V30 11993 H 1098.64 0.680347 7.52932 0
M  V30 11994 H 1099.91 -0.482086 7.78008 0
M  V30 11995 N 1104.14 -1.42577 0.671525 0
M  V30 11996 C 1105.39 -2.01185 0.192051 0
M  V30 11997 C 1105.71 -1.53349 -1.20454 0
M  V30 11998 O 1104.98 -0.753781 -1.80817 0
M  V30 11999 H 1103.56 -0.743898 0.0680106 0
M  V30 12000 H 1106.22 -1.74539 0.8673 0
M  V30 12001 H 1105.32 -3.11516 0.190796 0
M  V30 12002 N 1105.62 -0.414636 -1.52048 0
M  V30 12003 C 1106.87 0.16073 -2.01059 0
M  V30 12004 C 1107.18 1.45753 -1.30443 0
M  V30 12005 O 1108.39 2.11448 -1.703 0
M  V30 12006 C 1106.84 0.336993 -3.58319 0
M  V30 12007 C 1106.45 -0.948037 -4.37854 0
M  V30 12008 C 1108.19 0.867353 -4.15545 0
M  V30 12009 C 1106.1 -0.738662 -5.86769 0
M  V30 12010 H 1105.03 0.0638419 -0.751292 0
M  V30 12011 H 1107.68 -0.540925 -1.75346 0
M  V30 12012 H 1106.06 1.10111 -3.80383 0
M  V30 12013 H 1107.24 -1.71873 -4.27547 0
M  V30 12014 H 1105.55 -1.40522 -3.91972 0
M  V30 12015 H 1108.15 1.04012 -5.24486 0
M  V30 12016 H 1108.49 1.84358 -3.73253 0
M  V30 12017 H 1109.03 0.162148 -3.97469 0
M  V30 12018 H 1105.77 -1.6866 -6.3343 0
M  V30 12019 H 1105.29 -0.00736294 -5.998 0
M  V30 12020 H 1106.96 -0.382978 -6.45866 0
M  V30 12021 N 1107.1 1.56929 -0.145233 0
M  V30 12022 C 1108.34 1.95681 0.50532 0
M  V30 12023 C 1108.67 1.03098 1.65516 0
M  V30 12024 O 1107.94 0.0921961 1.95683 0
M  V30 12025 H 1106.52 0.72252 0.189668 0
M  V30 12026 H 1109.18 1.93651 -0.220318 0
M  V30 12027 H 1108.27 2.99359 0.882631 0
M  V30 12028 N 1108.58 -0.128553 1.57075 0
M  V30 12029 C 1109.82 -0.836355 1.83982 0
M  V30 12030 C 1110.14 -1.80862 0.728971 0
M  V30 12031 O 1109.41 -1.94326 -0.247859 0
M  V30 12032 H 1107.99 -0.31185 0.678792 0
M  V30 12033 H 1110.66 -0.118153 1.94542 0
M  V30 12034 H 1109.75 -1.38741 2.79567 0
M  V30 12035 N 1110.05 -1.5248 -0.398459 0
M  V30 12036 C 1111 -1.77211 -1.50662 0
M  V30 12037 C 1112 -0.639638 -1.5686 0
M  V30 12038 O 1113.2 -0.821917 -1.60139 0
M  V30 12039 H 1109.58 -0.56057 -0.501264 0
M  V30 12040 H 1111.55 -2.70028 -1.26993 0
M  V30 12041 C 1110.3 -1.94944 -2.8791 0
M  V30 12042 H 1109.62 -2.8151 -2.83888 0
M  V30 12043 H 1111.06 -2.16243 -3.64712 0
M  V30 12044 C 1109.52 -0.719402 -3.29129 0
M  V30 12045 O 1110.05 0.107671 -4.01556 0
M  V30 12046 N 1108.25 -0.552228 -2.85305 0
M  V30 12047 H 1107.8 -1.22638 -2.26534 0
M  V30 12048 H 1107.76 0.269447 -3.13243 0
M  V30 12049 N 1111.53 0.65634 -1.43283 0
M  V30 12050 C 1112.46 1.78184 -1.44164 0
M  V30 12051 C 1113.48 1.59249 -0.338177 0
M  V30 12052 O 1114.67 1.68027 -0.60242 0
M  V30 12053 C 1111.77 3.15566 -1.23577 0
M  V30 12054 C 1110.94 3.61187 -2.46704 0
M  V30 12055 C 1110 4.77361 -2.21388 0
M  V30 12056 O 1109.02 4.8696 -2.94718 0
M  V30 12057 N 1110.23 5.67351 -1.22855 0
M  V30 12058 H 1112.99 1.77907 -2.41183 0
M  V30 12059 H 1110.55 0.840076 -1.38399 0
M  V30 12060 H 1112.54 3.90968 -1.04529 0
M  V30 12061 H 1111.11 3.10633 -0.350155 0
M  V30 12062 H 1110.33 2.76263 -2.81198 0
M  V30 12063 H 1111.62 3.88413 -3.28652 0
M  V30 12064 H 1111.02 5.62265 -0.622417 0
M  V30 12065 H 1109.58 6.42487 -1.09791 0
M  V30 12066 N 1113.01 1.29761 0.894412 0
M  V30 12067 C 1113.92 1.1724 2.03204 0
M  V30 12068 C 1114.94 0.0944452 1.73743 0
M  V30 12069 O 1116.11 0.307549 1.99038 0
M  V30 12070 C 1113.18 0.855416 3.35981 0
M  V30 12071 C 1112.24 2.01777 3.78926 0
M  V30 12072 C 1111.47 1.71581 5.05367 0
M  V30 12073 O 1111.69 0.639245 5.66807 0
M  V30 12074 O 1110.63 2.56539 5.44492 0
M  V30 12075 H 1114.45 2.12787 2.16692 0
M  V30 12076 H 1112.04 1.09264 1.0189 0
M  V30 12077 H 1113.92 0.693429 4.15656 0
M  V30 12078 H 1112.6 -0.0702195 3.23624 0
M  V30 12079 H 1111.5 2.23502 2.99996 0
M  V30 12080 H 1112.84 2.92479 3.95875 0
M  V30 12081 N 1114.49 -1.10549 1.12324 0
M  V30 12082 C 1115.74 -1.81851 0.872531 0
M  V30 12083 C 1116.05 -1.86058 -0.603468 0
M  V30 12084 O 1117.26 -2.53553 -0.970736 0
M  V30 12085 C 1115.71 -3.26631 1.51131 0
M  V30 12086 C 1115.32 -3.30725 3.02201 0
M  V30 12087 C 1117.06 -4.02768 1.34082 0
M  V30 12088 C 1114.97 -4.69957 3.59018 0
M  V30 12089 H 1113.9 -0.681422 0.322769 0
M  V30 12090 H 1116.55 -1.24332 1.34959 0
M  V30 12091 H 1114.93 -3.8414 0.961913 0
M  V30 12092 H 1116.11 -2.83046 3.63623 0
M  V30 12093 H 1114.42 -2.68072 3.18632 0
M  V30 12094 H 1117.02 -5.05612 1.73955 0
M  V30 12095 H 1117.36 -4.15328 0.284369 0
M  V30 12096 H 1117.9 -3.51671 1.85937 0
M  V30 12097 H 1114.63 -4.62597 4.64418 0
M  V30 12098 H 1114.15 -5.18008 3.02371 0
M  V30 12099 H 1115.83 -5.38925 3.58007 0
M  V30 12100 N 1115.97 -0.914965 -1.28321 0
M  V30 12101 C 1117.24 -0.46764 -1.89928 0
M  V30 12102 C 1117.62 1.05364 -1.82925 0
M  V30 12103 O 1116.97 1.90223 -1.26599 0
M  V30 12104 C 1117.18 -0.999372 -3.34385 0
M  V30 12105 C 1118.53 -1.0522 -4.11356 0
M  V30 12106 O 1119.55 -0.9481 -3.4335 0
M  V30 12107 O 1118.41 -1.21085 -5.32917 0
M  V30 12108 H 1115.51 -0.148398 -0.813577 0
M  V30 12109 H 1118.05 -1.00583 -1.36679 0
M  V30 12110 H 1116.82 -2.04333 -3.33712 0
M  V30 12111 H 1116.45 -0.442083 -3.95135 0
M  V30 12112 N 1117.44 1.42219 -0.679077 0
M  V30 12113 C 1118.39 2.27992 0.0194379 0
M  V30 12114 C 1119.38 1.41317 0.769313 0
M  V30 12115 O 1120.57 1.64731 0.647521 0
M  V30 12116 C 1117.7 3.29401 0.966945 0
M  V30 12117 C 1116.78 4.23559 0.214187 0
M  V30 12118 N 1117.18 4.99699 -0.783226 0
M  V30 12119 C 1115.47 4.43703 0.452026 0
M  V30 12120 C 1116.17 5.68496 -1.23237 0
M  V30 12121 N 1115.15 5.40692 -0.561484 0
M  V30 12122 H 1118.95 2.84287 -0.745542 0
M  V30 12123 H 1116.47 1.54234 -0.508504 0
M  V30 12124 H 1118.46 3.89655 1.48238 0
M  V30 12125 H 1117.12 2.74667 1.7317 0
M  V30 12126 H 1118.13 5.04675 -1.16291 0
M  V30 12127 H 1114.81 4.00004 1.19595 0
M  V30 12128 H 1116.2 6.3957 -2.05912 0
M  V30 12129 N 1118.92 0.422693 1.51826 0
M  V30 12130 C 1119.85 -0.386913 2.30272 0
M  V30 12131 C 1120.83 -1.03411 1.35056 0
M  V30 12132 O 1122.02 -1.04055 1.6397 0
M  V30 12133 C 1119.15 -1.49645 3.13407 0
M  V30 12134 C 1118.1 -0.973532 4.16781 0
M  V30 12135 C 1117.43 -2.1777 4.88344 0
M  V30 12136 C 1118.73 -0.0181194 5.22297 0
M  V30 12137 H 1120.42 0.267697 2.98201 0
M  V30 12138 H 1117.97 0.130186 1.4341 0
M  V30 12139 H 1119.92 -2.06993 3.67059 0
M  V30 12140 H 1118.64 -2.17914 2.43272 0
M  V30 12141 H 1117.3 -0.42237 3.64159 0
M  V30 12142 H 1116.95 -2.84625 4.14726 0
M  V30 12143 H 1116.65 -1.83427 5.58237 0
M  V30 12144 H 1118.18 -2.75699 5.44814 0
M  V30 12145 H 1119.59 -0.500822 5.71108 0
M  V30 12146 H 1117.99 0.237163 5.99631 0
M  V30 12147 H 1119.06 0.923065 4.76033 0
M  V30 12148 N 1120.4 -1.5685 0.153553 0
M  V30 12149 C 1121.65 -1.96625 -0.49665 0
M  V30 12150 C 1121.98 -1.03877 -1.64083 0
M  V30 12151 O 1121.25 -0.0824112 -1.94325 0
M  V30 12152 C 1121.54 -3.46035 -0.996585 0
M  V30 12153 C 1121.39 -4.49561 0.146551 0
M  V30 12154 C 1122.71 -3.98104 -1.8762 0
M  V30 12155 H 1119.83 -0.714917 -0.179059 0
M  V30 12156 H 1122.47 -1.88527 0.236104 0
M  V30 12157 H 1120.62 -3.53066 -1.621 0
M  V30 12158 H 1122.29 -4.54604 0.783108 0
M  V30 12159 H 1120.53 -4.26271 0.804727 0
M  V30 12160 H 1121.21 -5.51456 -0.245078 0
M  V30 12161 H 1123.68 -3.93593 -1.34997 0
M  V30 12162 H 1122.56 -5.03098 -2.19508 0
M  V30 12163 H 1122.82 -3.40852 -2.81554 0
M  V30 12164 N 1121.88 0.120221 -1.57141 0
M  V30 12165 C 1123.1 0.84637 -1.89344 0
M  V30 12166 C 1123.53 1.72702 -0.745365 0
M  V30 12167 O 1122.89 1.7873 0.304155 0
M  V30 12168 C 1122.93 1.65671 -3.20289 0
M  V30 12169 O 1122.04 2.76353 -3.06109 0
M  V30 12170 H 1121.38 0.234132 -0.621352 0
M  V30 12171 H 1123.91 0.102986 -2.04341 0
M  V30 12172 H 1123.92 2.04621 -3.52979 0
M  V30 12173 H 1122.59 1.01023 -4.03444 0
M  V30 12174 H 1121.17 2.40615 -2.84884 0
M  V30 12175 N 1123.36 1.52689 0.390367 0
M  V30 12176 C 1124.29 1.73622 1.49626 0
M  V30 12177 C 1125.3 0.616682 1.50668 0
M  V30 12178 O 1126.49 0.892341 1.54595 0
M  V30 12179 C 1123.59 1.77859 2.88477 0
M  V30 12180 C 1122.76 3.07146 3.11416 0
M  V30 12181 C 1121.82 3.02949 4.30242 0
M  V30 12182 O 1120.85 3.76816 4.26613 0
M  V30 12183 N 1122.05 2.22039 5.36357 0
M  V30 12184 H 1124.82 2.69037 1.32057 0
M  V30 12185 H 1122.38 1.51159 0.579867 0
M  V30 12186 H 1124.37 1.72559 3.66067 0
M  V30 12187 H 1122.94 0.898367 2.99413 0
M  V30 12188 H 1122.16 3.25947 2.21703 0
M  V30 12189 H 1123.45 3.92637 3.23595 0
M  V30 12190 H 1122.84 1.6149 5.4216 0
M  V30 12191 H 1121.4 2.2258 6.12619 0
M  V30 12192 N 1124.83 -0.648732 1.43629 0
M  V30 12193 C 1126.08 -1.40579 1.45196 0
M  V30 12194 C 1126.4 -1.9484 0.0790556 0
M  V30 12195 O 1125.67 -1.74707 -0.886239 0
M  V30 12196 H 1124.25 -0.52175 0.53459 0
M  V30 12197 H 1126.92 -0.764796 1.79268 0
M  V30 12198 H 1126.01 -2.24591 2.16715 0
M  V30 12199 N 1126.31 -1.30234 -0.887518 0
M  V30 12200 C 1127.56 -1.18277 -1.63381 0
M  V30 12201 C 1127.87 0.262079 -1.93836 0
M  V30 12202 O 1129.08 0.503127 -2.66797 0
M  V30 12203 C 1127.54 -2.06944 -2.94452 0
M  V30 12204 C 1127.14 -3.56323 -2.71547 0
M  V30 12205 C 1128.89 -2.03743 -3.7241 0
M  V30 12206 C 1126.8 -4.37054 -3.98419 0
M  V30 12207 H 1125.73 -0.439087 -0.612959 0
M  V30 12208 H 1128.38 -1.54964 -0.982779 0
M  V30 12209 H 1126.76 -1.63138 -3.60835 0
M  V30 12210 H 1127.93 -4.08261 -2.13681 0
M  V30 12211 H 1126.25 -3.61321 -2.06969 0
M  V30 12212 H 1128.84 -2.61312 -4.66497 0
M  V30 12213 H 1129.19 -1.02029 -4.03603 0
M  V30 12214 H 1129.72 -2.45657 -3.12886 0
M  V30 12215 H 1126.46 -5.39453 -3.72385 0
M  V30 12216 H 1125.98 -3.89881 -4.55799 0
M  V30 12217 H 1127.66 -4.48356 -4.66462 0
M  V30 12218 N 1127.79 1.09952 -1.12909 0
M  V30 12219 C 1129.21 1.34051 -0.866172 0
M  V30 12220 C 1129.41 1.95169 0.501125 0
M  V30 12221 O 1128.46 2.19458 1.24878 0
M  V30 12222 C 1129.78 2.25738 -1.98653 0
M  V30 12223 C 1131.32 2.39261 -2.01799 0
M  V30 12224 C 1131.8 3.3428 -3.13083 0
M  V30 12225 N 1133.29 3.41851 -3.12558 0
M  V30 12226 C 1134.02 4.15358 -3.95304 0
M  V30 12227 N 1133.52 4.91709 -4.88051 0
M  V30 12228 N 1135.31 4.11027 -3.83423 0
M  V30 12229 H 1127.46 0.686521 -2.00999 0
M  V30 12230 H 1129.73 0.364913 -0.874953 0
M  V30 12231 H 1129.43 1.88048 -2.97205 0
M  V30 12232 H 1129.31 3.26085 -1.89601 0
M  V30 12233 H 1131.69 2.76218 -1.03864 0
M  V30 12234 H 1131.78 1.38712 -2.14925 0
M  V30 12235 H 1131.42 2.98048 -4.11254 0
M  V30 12236 H 1131.35 4.34721 -2.97195 0
M  V30 12237 H 1133.84 2.87405 -2.45371 0
M  V30 12238 H 1134.15 5.45212 -5.47689 0
M  V30 12239 H 1132.5 4.90816 -4.92061 0
M  V30 12240 H 1135.69 3.50477 -3.10296 0
M  V30 12241 H 1135.86 4.68054 -4.4814 0
M  V30 12242 N 1129.27 0.921757 1.27833 0
M  V30 12243 C 1130.2 0.373575 2.26135 0
M  V30 12244 C 1131.21 -0.492414 1.55174 0
M  V30 12245 O 1132.4 -0.305998 1.75858 0
M  V30 12246 C 1129.5 -0.483911 3.35427 0
M  V30 12247 C 1128.68 0.361411 4.35904 0
M  V30 12248 C 1127.73 -0.432461 5.2442 0
M  V30 12249 O 1126.76 0.15777 5.68981 0
M  V30 12250 N 1127.96 -1.73367 5.54007 0
M  V30 12251 H 1130.73 1.21856 2.73809 0
M  V30 12252 H 1128.29 0.788552 1.41398 0
M  V30 12253 H 1130.28 -1.02193 3.91585 0
M  V30 12254 H 1128.85 -1.22963 2.874 0
M  V30 12255 H 1128.07 1.08076 3.79095 0
M  V30 12256 H 1129.36 0.939528 5.0005 0
M  V30 12257 H 1128.76 -2.23561 5.19651 0
M  V30 12258 H 1127.31 -2.21834 6.12889 0
M  V30 12259 N 1130.75 -1.41857 0.686609 0
M  V30 12260 C 1131.99 -2.01666 0.214118 0
M  V30 12261 C 1132.33 -1.5422 -1.18025 0
M  V30 12262 O 1131.6 -0.749482 -1.7948 0
M  V30 12263 C 1131.88 -3.59147 0.261841 0
M  V30 12264 C 1131.74 -4.16742 1.69251 0
M  V30 12265 C 1133.06 -4.38427 -0.383378 0
M  V30 12266 H 1130.17 -0.732724 0.0792785 0
M  V30 12267 H 1132.82 -1.68724 0.873633 0
M  V30 12268 H 1130.97 -3.87342 -0.29971 0
M  V30 12269 H 1132.64 -3.99456 2.30722 0
M  V30 12270 H 1130.88 -3.72124 2.2295 0
M  V30 12271 H 1131.55 -5.25894 1.6775 0
M  V30 12272 H 1134.03 -4.15992 0.0947701 0
M  V30 12273 H 1132.9 -5.4797 -0.319401 0
M  V30 12274 H 1133.17 -4.172 -1.46276 0
M  V30 12275 N 1132.22 -0.430739 -1.51599 0
M  V30 12276 C 1133.15 0.374695 -2.30474 0
M  V30 12277 C 1134.14 1.02694 -1.35602 0
M  V30 12278 O 1135.32 1.03184 -1.6452 0
M  V30 12279 C 1132.45 1.47981 -3.14196 0
M  V30 12280 C 1131.4 0.951415 -4.17291 0
M  V30 12281 C 1130.73 2.15177 -4.89492 0
M  V30 12282 C 1132.03 -0.00957951 -5.22299 0
M  V30 12283 H 1133.72 -0.283508 -2.98055 0
M  V30 12284 H 1131.27 -0.13779 -1.43339 0
M  V30 12285 H 1133.22 2.05043 -3.68151 0
M  V30 12286 H 1131.95 2.16621 -2.44424 0
M  V30 12287 H 1130.61 0.403052 -3.64378 0
M  V30 12288 H 1130.25 2.82421 -4.1623 0
M  V30 12289 H 1129.95 1.80464 -5.59202 0
M  V30 12290 H 1131.48 2.72806 -5.46269 0
M  V30 12291 H 1132.89 0.470527 -5.71366 0
M  V30 12292 H 1131.29 -0.268959 -5.99497 0
M  V30 12293 H 1132.36 -0.948297 -4.75537 0
M  V30 12294 N 1133.7 1.56767 -0.161869 0
M  V30 12295 C 1134.95 1.96594 0.485496 0
M  V30 12296 C 1135.28 1.04743 1.63887 0
M  V30 12297 O 1134.53 0.079602 1.95538 0
M  V30 12298 C 1134.83 3.42567 1.01894 0
M  V30 12299 C 1134.5 4.50897 -0.0175419 0
M  V30 12300 C 1133.16 4.80249 -0.302429 0
M  V30 12301 C 1135.51 5.16181 -0.721572 0
M  V30 12302 C 1132.84 5.72187 -1.2969 0
M  V30 12303 C 1135.19 6.09191 -1.70496 0
M  V30 12304 C 1133.86 6.36915 -1.99739 0
M  V30 12305 H 1133.13 0.719388 0.177656 0
M  V30 12306 H 1135.77 1.89837 -0.251839 0
M  V30 12307 H 1134.08 3.4623 1.83391 0
M  V30 12308 H 1135.77 3.70719 1.52867 0
M  V30 12309 H 1132.36 4.28062 0.21468 0
M  V30 12310 H 1136.55 4.93624 -0.514681 0
M  V30 12311 H 1131.8 5.91953 -1.52974 0
M  V30 12312 H 1135.98 6.58849 -2.25591 0
M  V30 12313 H 1133.61 7.07958 -2.76948 0
M  V30 12314 N 1135.18 -0.111886 1.57202 0
M  V30 12315 C 1136.11 -1.13796 2.03894 0
M  V30 12316 C 1137.09 -1.4277 0.924696 0
M  V30 12317 O 1138.28 -1.53089 1.19488 0
M  V30 12318 C 1135.41 -2.46229 2.44925 0
M  V30 12319 C 1134.36 -2.31702 3.59859 0
M  V30 12320 C 1133.69 -3.69161 3.86813 0
M  V30 12321 C 1134.99 -1.77158 4.91337 0
M  V30 12322 H 1136.68 -0.749581 2.89865 0
M  V30 12323 H 1134.23 -0.359126 1.3945 0
M  V30 12324 H 1136.18 -3.18267 2.76195 0
M  V30 12325 H 1134.9 -2.86971 1.55933 0
M  V30 12326 H 1133.56 -1.62112 3.28809 0
M  V30 12327 H 1133.21 -4.07401 2.95015 0
M  V30 12328 H 1132.91 -3.60292 4.6418 0
M  V30 12329 H 1134.43 -4.42693 4.20542 0
M  V30 12330 H 1135.85 -2.3902 5.21097 0
M  V30 12331 H 1134.25 -1.79091 5.72753 0
M  V30 12332 H 1135.32 -0.729675 4.79379 0
M  V30 12333 N 1136.66 -1.52894 -0.382264 0
M  V30 12334 C 1137.57 -1.81084 -1.4915 0
M  V30 12335 C 1138.58 -0.698045 -1.59384 0
M  V30 12336 O 1139.76 -0.98635 -1.75594 0
M  V30 12337 C 1136.83 -1.97987 -2.84608 0
M  V30 12338 C 1135.89 -3.219 -2.8404 0
M  V30 12339 C 1135.12 -3.37988 -4.13037 0
M  V30 12340 O 1135.34 -2.58733 -5.08344 0
M  V30 12341 O 1134.28 -4.31273 -4.19866 0
M  V30 12342 H 1138.1 -2.75289 -1.28257 0
M  V30 12343 H 1135.69 -1.38068 -0.57076 0
M  V30 12344 H 1137.57 -2.10773 -3.64901 0
M  V30 12345 H 1136.24 -1.06972 -3.05514 0
M  V30 12346 H 1135.15 -3.14551 -2.02505 0
M  V30 12347 H 1136.48 -4.12783 -2.68087 0
M  V30 12348 N 1138.14 0.641106 -1.43971 0
M  V30 12349 C 1139.08 1.75352 -1.50068 0
M  V30 12350 C 1140.05 1.62386 -0.349266 0
M  V30 12351 O 1141.24 1.82455 -0.558118 0
M  V30 12352 C 1138.38 3.13561 -1.4413 0
M  V30 12353 C 1137.49 3.37574 -2.6957 0
M  V30 12354 C 1136.63 4.65698 -2.55535 0
M  V30 12355 C 1135.67 4.82857 -3.76186 0
M  V30 12356 N 1134.8 6.02249 -3.60888 0
M  V30 12357 H 1139.64 1.69477 -2.45116 0
M  V30 12358 H 1137.18 0.826871 -1.2166 0
M  V30 12359 H 1139.14 3.93476 -1.38681 0
M  V30 12360 H 1137.77 3.18476 -0.526563 0
M  V30 12361 H 1136.82 2.5167 -2.85248 0
M  V30 12362 H 1138.13 3.46135 -3.59154 0
M  V30 12363 H 1137.29 5.53759 -2.47862 0
M  V30 12364 H 1136.03 4.59479 -1.63495 0
M  V30 12365 H 1135.03 3.93229 -3.84254 0
M  V30 12366 H 1136.26 4.90898 -4.6925 0
M  V30 12367 H 1134.2 5.97138 -2.71591 0
M  V30 12368 H 1134.12 6.11822 -4.44083 0
M  V30 12369 H 1135.39 6.92898 -3.57088 0
M  V30 12370 N 1139.62 1.30703 0.880598 0
M  V30 12371 C 1140.86 1.19142 1.62752 0
M  V30 12372 C 1141.18 -0.251795 1.93973 0
M  V30 12373 O 1142.38 -0.488971 2.67061 0
M  V30 12374 C 1140.84 2.08503 2.93351 0
M  V30 12375 C 1140.45 3.57758 2.69653 0
M  V30 12376 C 1142.19 2.05715 3.71324 0
M  V30 12377 C 1140.1 4.39161 3.96096 0
M  V30 12378 H 1139.03 0.442332 0.610622 0
M  V30 12379 H 1141.68 1.55483 0.974547 0
M  V30 12380 H 1140.06 1.65049 3.59965 0
M  V30 12381 H 1141.24 4.09388 2.11513 0
M  V30 12382 H 1139.55 3.62414 2.0505 0
M  V30 12383 H 1142.15 2.63783 4.65105 0
M  V30 12384 H 1142.49 1.04168 4.03057 0
M  V30 12385 H 1143.02 2.47313 3.11579 0
M  V30 12386 H 1139.76 5.4142 3.69519 0
M  V30 12387 H 1139.28 3.92293 4.53725 0
M  V30 12388 H 1140.96 4.50823 4.64077 0
M  V30 12389 N 1141.09 -1.09351 1.1349 0
M  V30 12390 C 1142 -2.19564 0.826366 0
M  V30 12391 C 1143.02 -1.72967 -0.189339 0
M  V30 12392 O 1144.2 -2.0139 -0.0202033 0
M  V30 12393 C 1141.26 -3.4542 0.297685 0
M  V30 12394 C 1140.32 -4.06694 1.37473 0
M  V30 12395 C 1139.55 -5.26542 0.871183 0
M  V30 12396 O 1139.78 -5.69657 -0.290958 0
M  V30 12397 O 1138.71 -5.78961 1.64584 0
M  V30 12398 H 1142.54 -2.4841 1.74718 0
M  V30 12399 H 1140.12 -1.18302 0.912414 0
M  V30 12400 H 1142 -4.21399 0.00829479 0
M  V30 12401 H 1140.68 -3.18175 -0.595536 0
M  V30 12402 H 1139.59 -3.32347 1.71745 0
M  V30 12403 H 1140.92 -4.38166 2.24212 0
M  V30 12404 N 1142.57 -0.928524 -1.27343 0
M  V30 12405 C 1143.98 -0.613856 -1.7632 0
M  V30 12406 C 1144.33 0.870983 -1.75808 0
M  V30 12407 O 1143.46 1.68155 -1.36209 0
M  V30 12408 C 1144.05 -1.10755 -3.20186 0
M  V30 12409 C 1142.61 -0.843532 -3.66826 0
M  V30 12410 C 1141.76 -1.26579 -2.46724 0
M  V30 12411 H 1144.71 -1.10821 -1.13598 0
M  V30 12412 H 1144.73 -0.455598 -3.77763 0
M  V30 12413 H 1144.24 -2.18825 -3.20526 0
M  V30 12414 H 1142.34 0.223334 -3.7193 0
M  V30 12415 H 1142.46 -1.46165 -4.56259 0
M  V30 12416 H 1140.82 -0.684334 -2.45334 0
M  V30 12417 H 1141.6 -2.35516 -2.49774 0
M  V30 12418 N 1144.05 1.41491 -0.694123 0
M  V30 12419 C 1145.01 2.2917 -0.0368562 0
M  V30 12420 C 1146.01 1.44305 0.709426 0
M  V30 12421 O 1147.2 1.6547 0.544533 0
M  V30 12422 C 1144.33 3.27156 0.958201 0
M  V30 12423 H 1145.53 2.88787 -0.808829 0
M  V30 12424 H 1143.08 1.49453 -0.457538 0
M  V30 12425 H 1143.82 2.72516 1.75799 0
M  V30 12426 H 1143.6 3.89776 0.426227 0
M  V30 12427 H 1145.09 3.92863 1.41592 0
M  V30 12428 N 1145.53 0.438773 1.51369 0
M  V30 12429 C 1146.46 -0.407771 2.25543 0
M  V30 12430 C 1147.47 -0.985065 1.29616 0
M  V30 12431 O 1148.66 -0.878961 1.55359 0
M  V30 12432 C 1145.76 -1.58257 2.9968 0
M  V30 12433 C 1144.93 -1.12389 4.22714 0
M  V30 12434 C 1143.99 -2.16897 4.79418 0
M  V30 12435 O 1143.02 -1.76273 5.41218 0
M  V30 12436 N 1144.22 -3.49396 4.63576 0
M  V30 12437 H 1146.99 0.227963 2.98832 0
M  V30 12438 H 1144.55 0.267741 1.59671 0
M  V30 12439 H 1146.54 -2.27796 3.34501 0
M  V30 12440 H 1145.11 -2.12362 2.29393 0
M  V30 12441 H 1144.33 -0.255509 3.93371 0
M  V30 12442 H 1145.62 -0.794848 5.02553 0
M  V30 12443 H 1145.02 -3.85132 4.14355 0
M  V30 12444 H 1143.57 -4.14826 5.02755 0
M  V30 12445 N 1147.01 -1.56678 0.170181 0
M  V30 12446 C 1147.92 -2.21496 -0.773079 0
M  V30 12447 C 1148.93 -1.20626 -1.25401 0
M  V30 12448 O 1150.11 -1.53283 -1.30638 0
M  V30 12449 C 1147.17 -2.8421 -1.98558 0
M  V30 12450 C 1146.23 -4.00278 -1.55164 0
M  V30 12451 C 1145.47 -4.59992 -2.70634 0
M  V30 12452 O 1145.69 -4.18595 -3.87472 0
M  V30 12453 O 1144.62 -5.49881 -2.44775 0
M  V30 12454 H 1148.45 -3.02659 -0.251195 0
M  V30 12455 H 1146.03 -1.49288 -0.0579621 0
M  V30 12456 H 1147.92 -3.2398 -2.69472 0
M  V30 12457 H 1146.59 -2.06045 -2.49654 0
M  V30 12458 H 1145.5 -3.6518 -0.812038 0
M  V30 12459 H 1146.83 -4.80033 -1.0876 0
M  V30 12460 N 1148.48 0.103547 -1.57259 0
M  V30 12461 C 1149.39 1.14475 -2.04774 0
M  V30 12462 C 1150.41 1.44385 -0.971025 0
M  V30 12463 O 1151.59 1.55195 -1.28361 0
M  V30 12464 C 1148.65 2.4475 -2.45558 0
M  V30 12465 C 1147.71 2.22098 -3.67384 0
M  V30 12466 C 1146.94 3.4616 -4.06213 0
M  V30 12467 O 1147.17 4.5407 -3.45219 0
M  V30 12468 O 1146.1 3.36248 -4.9922 0
M  V30 12469 H 1149.93 0.771211 -2.93745 0
M  V30 12470 H 1147.51 0.315456 -1.46032 0
M  V30 12471 H 1149.39 3.21476 -2.72454 0
M  V30 12472 H 1148.07 2.81547 -1.59728 0
M  V30 12473 H 1146.98 1.43179 -3.45616 0
M  V30 12474 H 1148.31 1.90197 -4.53967 0
M  V30 12475 N 1149.96 1.53094 0.37415 0
M  V30 12476 C 1150.91 1.75307 1.45779 0
M  V30 12477 C 1151.9 0.607409 1.48994 0
M  V30 12478 O 1153.09 0.865777 1.5438 0
M  V30 12479 C 1150.22 1.93871 2.83318 0
M  V30 12480 C 1149.3 3.14413 2.84614 0
M  V30 12481 N 1149.69 4.36486 2.55565 0
M  V30 12482 C 1147.99 3.14961 3.15778 0
M  V30 12483 C 1148.69 5.18178 2.64322 0
M  V30 12484 N 1147.67 4.54196 2.98675 0
M  V30 12485 H 1151.47 2.67305 1.22169 0
M  V30 12486 H 1148.98 1.51603 0.582254 0
M  V30 12487 H 1150.98 2.0791 3.61357 0
M  V30 12488 H 1149.64 1.03096 3.07898 0
M  V30 12489 H 1150.65 4.64366 2.29314 0
M  V30 12490 H 1147.33 2.34048 3.45728 0
M  V30 12491 H 1148.72 6.25529 2.45282 0
M  V30 12492 N 1151.44 -0.633461 1.44309 0
M  V30 12493 C 1152.72 -1.3917 1.37444 0
M  V30 12494 C 1153.1 -2.11076 0.0319994 0
M  V30 12495 O 1152.44 -2.06164 -0.98533 0
M  V30 12496 C 1152.65 -2.36005 2.57104 0
M  V30 12497 C 1154 -2.99407 3.01065 0
M  V30 12498 O 1155.03 -2.46331 2.57292 0
M  V30 12499 O 1153.89 -3.95686 3.76954 0
M  V30 12500 H 1150.98 -0.622746 0.544166 0
M  V30 12501 H 1153.53 -0.658712 1.56394 0
M  V30 12502 H 1152.3 -1.81955 3.46422 0
M  V30 12503 H 1151.92 -3.16725 2.40356 0
M  V30 12504 N 1152.92 -1.31168 -0.873655 0
M  V30 12505 C 1153.87 -1.18507 -1.98052 0
M  V30 12506 C 1154.84 -0.0717583 -1.65945 0
M  V30 12507 O 1156.02 -0.243965 -1.89234 0
M  V30 12508 C 1153.16 -0.894571 -3.33304 0
M  V30 12509 C 1152.27 -2.09086 -3.7803 0
M  V30 12510 C 1151.41 -1.73747 -5.01982 0
M  V30 12511 C 1150.45 -2.89805 -5.39147 0
M  V30 12512 N 1149.58 -2.54686 -6.54278 0
M  V30 12513 H 1154.42 -2.13193 -2.08213 0
M  V30 12514 H 1151.96 -1.06056 -1.01934 0
M  V30 12515 H 1153.92 -0.706714 -4.11171 0
M  V30 12516 H 1152.55 0.0154449 -3.22796 0
M  V30 12517 H 1151.6 -2.38961 -2.95976 0
M  V30 12518 H 1152.91 -2.95963 -4.01506 0
M  V30 12519 H 1152.07 -1.51402 -5.87505 0
M  V30 12520 H 1150.81 -0.840553 -4.80402 0
M  V30 12521 H 1149.81 -3.12803 -4.52144 0
M  V30 12522 H 1151.04 -3.802 -5.62694 0
M  V30 12523 H 1148.98 -1.67513 -6.34252 0
M  V30 12524 H 1148.9 -3.35093 -6.77679 0
M  V30 12525 H 1150.17 -2.35725 -7.43003 0
M  V30 12526 N 1154.4 1.08748 -1.14068 0
M  V30 12527 C 1155.63 1.84546 -0.928789 0
M  V30 12528 C 1156.03 1.81741 0.526007 0
M  V30 12529 O 1155.38 1.2169 1.37613 0
M  V30 12530 C 1155.44 3.33282 -1.34771 0
M  V30 12531 C 1155.1 3.59826 -2.81734 0
M  V30 12532 C 1156.1 3.54964 -3.79864 0
M  V30 12533 C 1153.79 3.87949 -3.19063 0
M  V30 12534 C 1155.78 3.77847 -5.13332 0
M  V30 12535 C 1153.47 4.10487 -4.52707 0
M  V30 12536 C 1154.46 4.05429 -5.49651 0
M  V30 12537 O 1154.15 4.27378 -6.80884 0
M  V30 12538 H 1153.88 0.589555 -0.330758 0
M  V30 12539 H 1156.44 1.38275 -1.51886 0
M  V30 12540 H 1154.67 3.80294 -0.700948 0
M  V30 12541 H 1156.36 3.90508 -1.10718 0
M  V30 12542 H 1157.12 3.33256 -3.52371 0
M  V30 12543 H 1153 3.91007 -2.44201 0
M  V30 12544 H 1156.55 3.73815 -5.88989 0
M  V30 12545 H 1152.44 4.31677 -4.79922 0
M  V30 12546 H 1153.21 4.44802 -6.8709 0
M  V30 12547 N 1155.87 0.935264 1.26849 0
M  V30 12548 C 1156.82 0.411166 2.24262 0
M  V30 12549 C 1157.81 -0.488804 1.53296 0
M  V30 12550 O 1159 -0.325015 1.7399 0
M  V30 12551 C 1156.13 -0.327941 3.4173 0
M  V30 12552 C 1155.22 0.58898 4.1999 0
M  V30 12553 N 1155.61 1.71216 4.7594 0
M  V30 12554 C 1153.9 0.393431 4.44261 0
M  V30 12555 C 1154.61 2.28306 5.35024 0
M  V30 12556 N 1153.58 1.57176 5.20381 0
M  V30 12557 H 1157.38 1.26864 2.65109 0
M  V30 12558 H 1154.9 0.790429 1.41866 0
M  V30 12559 H 1156.89 -0.720404 4.10629 0
M  V30 12560 H 1155.55 -1.18225 3.02412 0
M  V30 12561 H 1156.57 2.09441 4.73661 0
M  V30 12562 H 1153.24 -0.419596 4.15386 0
M  V30 12563 H 1154.63 3.22909 5.89219 0
M  V30 12564 N 1157.35 -1.41121 0.701616 0
M  V30 12565 C 1158.58 -2.05973 0.242896 0
M  V30 12566 C 1159 -1.52474 -1.10151 0
M  V30 12567 O 1158.36 -0.654224 -1.69085 0
M  V30 12568 C 1158.41 -3.59943 0.217614 0
M  V30 12569 O 1157.51 -4.04454 -0.805629 0
M  V30 12570 H 1156.85 -0.653581 0.117166 0
M  V30 12571 H 1159.38 -1.80777 0.958175 0
M  V30 12572 H 1159.39 -4.07969 0.0505267 0
M  V30 12573 H 1158.07 -3.98249 1.19877 0
M  V30 12574 H 1156.65 -3.6792 -0.607404 0
M  V30 12575 N 1158.83 -0.446794 -1.51134 0
M  V30 12576 C 1159.78 0.374154 -2.29571 0
M  V30 12577 C 1160.77 1.01241 -1.35818 0
M  V30 12578 O 1161.98 0.946293 -1.53119 0
M  V30 12579 H 1158.35 0.13948 -0.738951 0
M  V30 12580 H 1160.32 -0.308117 -2.96805 0
M  V30 12581 C 1159.07 1.45754 -3.15675 0
M  V30 12582 H 1158.4 0.975787 -3.87709 0
M  V30 12583 H 1159.84 2.00502 -3.73597 0
M  V30 12584 C 1158.3 2.44606 -2.31667 0
M  V30 12585 O 1158.83 3.49352 -1.98284 0
M  V30 12586 N 1157.03 2.15725 -1.94708 0
M  V30 12587 H 1156.58 1.30572 -2.22056 0
M  V30 12588 H 1156.54 2.82103 -1.38798 0
M  V30 12589 N 1160.31 1.56586 -0.178487 0
M  V30 12590 C 1161.55 1.9739 0.465306 0
M  V30 12591 C 1161.89 1.06474 1.6241 0
M  V30 12592 O 1161.16 0.113316 1.9417 0
M  V30 12593 C 1161.45 3.47577 0.941408 0
M  V30 12594 C 1161.3 4.49271 -0.218054 0
M  V30 12595 C 1162.62 4.01038 1.81263 0
M  V30 12596 H 1159.74 0.717676 0.167663 0
M  V30 12597 H 1162.38 1.88128 -0.266067 0
M  V30 12598 H 1160.53 3.556 1.56463 0
M  V30 12599 H 1162.2 4.53301 -0.855332 0
M  V30 12600 H 1160.44 4.24936 -0.872441 0
M  V30 12601 H 1161.11 5.51776 0.157315 0
M  V30 12602 H 1163.59 3.9569 1.28718 0
M  V30 12603 H 1162.47 5.06526 2.11476 0
M  V30 12604 H 1162.73 3.45288 2.76096 0
M  V30 12605 N 1161.79 -0.095206 1.57312 0
M  V30 12606 C 1162.73 -1.11551 2.02052 0
M  V30 12607 C 1163.7 -1.39808 0.896818 0
M  V30 12608 O 1164.89 -1.51273 1.1628 0
M  V30 12609 C 1162.03 -2.43056 2.44985 0
M  V30 12610 C 1161.14 -2.21531 3.70875 0
M  V30 12611 C 1160.28 -3.46434 4.02687 0
M  V30 12612 C 1159.32 -3.2017 5.21687 0
M  V30 12613 N 1158.45 -4.37339 5.49253 0
M  V30 12614 H 1163.29 -0.727 2.88996 0
M  V30 12615 H 1160.83 -0.347441 1.42938 0
M  V30 12616 H 1162.79 -3.19803 2.67921 0
M  V30 12617 H 1161.42 -2.79754 1.61051 0
M  V30 12618 H 1160.47 -1.35587 3.55416 0
M  V30 12619 H 1161.78 -1.98116 4.57768 0
M  V30 12620 H 1160.94 -4.31589 4.26399 0
M  V30 12621 H 1159.67 -3.72904 3.14315 0
M  V30 12622 H 1158.68 -2.33409 4.97796 0
M  V30 12623 H 1159.9 -2.95047 6.11657 0
M  V30 12624 H 1157.85 -4.63885 4.6384 0
M  V30 12625 H 1157.77 -4.17114 6.30517 0
M  V30 12626 H 1159.04 -5.23559 5.775 0
M  V30 12627 N 1163.26 -1.53291 -0.366026 0
M  V30 12628 C 1164.17 -1.82656 -1.47221 0
M  V30 12629 C 1165.19 -0.71491 -1.58635 0
M  V30 12630 O 1166.37 -1.00492 -1.74538 0
M  V30 12631 C 1163.43 -2.00995 -2.82492 0
M  V30 12632 C 1162.49 -3.24895 -2.8061 0
M  V30 12633 C 1161.73 -3.4235 -4.09429 0
M  V30 12634 O 1161.95 -2.6411 -5.05571 0
M  V30 12635 O 1160.88 -4.35702 -4.15268 0
M  V30 12636 H 1164.71 -2.76634 -1.2533 0
M  V30 12637 H 1162.29 -1.38665 -0.556084 0
M  V30 12638 H 1164.18 -2.14632 -3.62645 0
M  V30 12639 H 1162.85 -1.10207 -3.04362 0
M  V30 12640 H 1161.76 -3.16682 -1.99157 0
M  V30 12641 H 1163.09 -4.15604 -2.63694 0
M  V30 12642 N 1164.74 0.6258 -1.44643 0
M  V30 12643 C 1165.67 1.74858 -1.54748 0
M  V30 12644 C 1166.65 1.65327 -0.400138 0
M  V30 12645 O 1167.84 1.84005 -0.620948 0
M  V30 12646 C 1164.97 3.13408 -1.49643 0
M  V30 12647 C 1163.92 3.37733 -2.62908 0
M  V30 12648 C 1163.25 4.76367 -2.42855 0
M  V30 12649 C 1164.55 3.29771 -4.05029 0
M  V30 12650 H 1166.24 1.66658 -2.48728 0
M  V30 12651 H 1163.79 0.800363 -1.19709 0
M  V30 12652 H 1165.74 3.91735 -1.55312 0
M  V30 12653 H 1164.47 3.22404 -0.521824 0
M  V30 12654 H 1163.12 2.61788 -2.56637 0
M  V30 12655 H 1162.77 4.82074 -1.43575 0
M  V30 12656 H 1162.47 4.936 -3.18799 0
M  V30 12657 H 1164 5.56917 -2.50351 0
M  V30 12658 H 1165.41 3.97996 -4.12641 0
M  V30 12659 H 1163.81 3.58538 -4.81218 0
M  V30 12660 H 1164.88 2.27493 -4.28223 0
M  V30 12661 N 1166.22 1.31629 0.866686 0
M  V30 12662 C 1167.47 1.21683 1.62238 0
M  V30 12663 C 1167.8 -0.223767 1.92907 0
M  V30 12664 O 1167.07 -1.15761 1.563 0
M  V30 12665 C 1167.36 2.06443 2.95048 0
M  V30 12666 C 1167.21 3.58818 2.71237 0
M  V30 12667 C 1168.53 1.91634 3.96187 0
M  V30 12668 H 1165.65 0.443389 0.588707 0
M  V30 12669 H 1168.29 1.61453 1.00164 0
M  V30 12670 H 1166.44 1.72654 3.48027 0
M  V30 12671 H 1168.11 4.0276 2.24905 0
M  V30 12672 H 1166.36 3.82085 2.05411 0
M  V30 12673 H 1167.03 4.13436 3.65752 0
M  V30 12674 H 1169.5 2.21209 3.52428 0
M  V30 12675 H 1168.38 2.53236 4.86993 0
M  V30 12676 H 1168.64 0.880564 4.33242 0
M  V30 12677 N 1167.7 -1.08142 1.14644 0
M  V30 12678 C 1168.95 -1.80582 0.916327 0
M  V30 12679 C 1169.27 -1.86355 -0.556969 0
M  V30 12680 O 1168.53 -1.33736 -1.42875 0
M  V30 12681 C 1168.83 -3.25962 1.46573 0
M  V30 12682 C 1168.49 -3.40302 2.95814 0
M  V30 12683 C 1167.16 -3.43922 3.36557 0
M  V30 12684 C 1169.51 -3.43758 3.91765 0
M  V30 12685 C 1166.84 -3.48594 4.7191 0
M  V30 12686 C 1169.19 -3.49965 5.26979 0
M  V30 12687 C 1167.85 -3.5186 5.67231 0
M  V30 12688 H 1167.12 -0.660795 0.335308 0
M  V30 12689 H 1169.77 -1.27309 1.43055 0
M  V30 12690 H 1168.07 -3.81961 0.872507 0
M  V30 12691 H 1169.77 -3.80571 1.2636 0
M  V30 12692 H 1166.36 -3.38176 2.63315 0
M  V30 12693 H 1170.55 -3.40189 3.61366 0
M  V30 12694 H 1165.8 -3.48355 5.02453 0
M  V30 12695 H 1169.98 -3.51585 6.01133 0
M  V30 12696 H 1167.6 -3.55233 6.72097 0
M  V30 12697 N 1169.18 -0.941978 -1.26351 0
M  V30 12698 C 1170.12 -0.450906 -2.26353 0
M  V30 12699 C 1171.09 0.489857 -1.58712 0
M  V30 12700 O 1172.28 0.40589 -1.86433 0
M  V30 12701 C 1169.42 0.277054 -3.43986 0
M  V30 12702 C 1168.53 -0.699474 -4.263 0
M  V30 12703 C 1167.67 0.0497661 -5.31177 0
M  V30 12704 C 1166.71 -0.918531 -6.05169 0
M  V30 12705 N 1165.84 -0.200993 -7.01812 0
M  V30 12706 H 1170.68 -1.30861 -2.6773 0
M  V30 12707 H 1168.22 -0.656514 -1.31637 0
M  V30 12708 H 1170.18 0.715567 -4.11018 0
M  V30 12709 H 1168.81 1.09889 -3.0352 0
M  V30 12710 H 1167.86 -1.2565 -3.59049 0
M  V30 12711 H 1169.17 -1.4389 -4.77595 0
M  V30 12712 H 1168.33 0.547521 -6.04224 0
M  V30 12713 H 1167.07 0.822068 -4.80722 0
M  V30 12714 H 1166.07 -1.4274 -5.30947 0
M  V30 12715 H 1167.3 -1.69085 -6.57713 0
M  V30 12716 H 1165.24 0.552803 -6.53667 0
M  V30 12717 H 1165.16 -0.879735 -7.50864 0
M  V30 12718 H 1166.43 0.275642 -7.79012 0
M  V30 12719 N 1170.66 1.40747 -0.709091 0
M  V30 12720 C 1171.9 2.01003 -0.24581 0
M  V30 12721 C 1172.23 1.56203 1.15891 0
M  V30 12722 O 1171.49 0.770166 1.79908 0
M  V30 12723 C 1171.78 3.56404 -0.266685 0
M  V30 12724 C 1171.45 4.20762 -1.6208 0
M  V30 12725 C 1170.11 4.38056 -1.99148 0
M  V30 12726 C 1172.46 4.56723 -2.51105 0
M  V30 12727 C 1169.79 4.88591 -3.248 0
M  V30 12728 C 1172.14 5.08654 -3.76103 0
M  V30 12729 C 1170.81 5.24158 -4.13297 0
M  V30 12730 H 1170.08 0.73552 -0.0899481 0
M  V30 12731 H 1172.73 1.68451 -0.910844 0
M  V30 12732 H 1171.03 3.88825 0.481915 0
M  V30 12733 H 1172.73 4.0085 0.109509 0
M  V30 12734 H 1169.32 4.07685 -1.32252 0
M  V30 12735 H 1173.5 4.43004 -2.23744 0
M  V30 12736 H 1168.76 4.98779 -3.53595 0
M  V30 12737 H 1172.93 5.35457 -4.45262 0
M  V30 12738 H 1170.56 5.63079 -5.10731 0
M  V30 12739 N 1172.13 0.454803 1.50895 0
M  V30 12740 C 1173.38 -0.105562 2.01824 0
M  V30 12741 C 1173.7 -1.41673 1.33992 0
M  V30 12742 O 1172.97 -1.89929 0.479994 0
M  V30 12743 H 1171.55 -0.0420011 0.745818 0
M  V30 12744 H 1174.21 0.601504 1.85386 0
M  V30 12745 H 1173.31 -0.268872 3.1094 0
M  V30 12746 N 1173.61 -1.56489 0.186789 0
M  V30 12747 C 1174.54 -2.21705 -0.732739 0
M  V30 12748 C 1175.52 -1.17751 -1.22755 0
M  V30 12749 O 1176.71 -1.46231 -1.27789 0
M  V30 12750 C 1173.84 -2.86992 -1.95584 0
M  V30 12751 C 1172.79 -3.97118 -1.59628 0
M  V30 12752 C 1172.12 -4.49529 -2.89531 0
M  V30 12753 C 1173.42 -5.15941 -0.812518 0
M  V30 12754 H 1175.11 -2.98802 -0.189094 0
M  V30 12755 H 1172.66 -1.43722 -0.0895099 0
M  V30 12756 H 1174.61 -3.31295 -2.60426 0
M  V30 12757 H 1173.33 -2.07287 -2.52388 0
M  V30 12758 H 1171.99 -3.53494 -0.971475 0
M  V30 12759 H 1171.64 -3.66596 -3.44407 0
M  V30 12760 H 1171.34 -5.23832 -2.66221 0
M  V30 12761 H 1172.87 -4.96528 -3.55376 0
M  V30 12762 H 1174.28 -5.56841 -1.36386 0
M  V30 12763 H 1172.68 -5.96259 -0.677862 0
M  V30 12764 H 1173.75 -4.84535 0.188095 0
M  V30 12765 N 1175.09 0.086862 -1.5736 0
M  V30 12766 C 1176.5 0.640442 -1.75372 0
M  V30 12767 C 1176.85 1.78693 -0.81014 0
M  V30 12768 O 1175.98 2.16398 0.00940712 0
M  V30 12769 C 1176.57 1.16856 -3.1801 0
M  V30 12770 C 1175.13 1.66813 -3.37417 0
M  V30 12771 C 1174.28 0.58116 -2.71142 0
M  V30 12772 H 1177.23 -0.139249 -1.58088 0
M  V30 12773 H 1177.25 2.03772 -3.21337 0
M  V30 12774 H 1176.76 0.333909 -3.86661 0
M  V30 12775 H 1174.86 2.52652 -2.73858 0
M  V30 12776 H 1174.98 1.75545 -4.45781 0
M  V30 12777 H 1173.34 1.0226 -2.3327 0
M  V30 12778 H 1174.12 -0.243047 -3.42439 0
M  V30 12779 N 1176.57 1.53483 0.357892 0
M  V30 12780 C 1177.98 1.43426 0.700073 0
M  V30 12781 C 1178.18 0.579493 1.92987 0
M  V30 12782 O 1177.24 0.0649086 2.52417 0
M  V30 12783 C 1178.55 2.86723 0.906099 0
M  V30 12784 C 1180.1 2.96405 1.00563 0
M  V30 12785 C 1180.58 4.4078 1.24407 0
M  V30 12786 N 1182.07 4.44243 1.3116 0
M  V30 12787 C 1182.8 5.53069 1.51333 0
M  V30 12788 N 1182.3 6.71928 1.68774 0
M  V30 12789 N 1184.09 5.40659 1.53765 0
M  V30 12790 H 1176.24 2.07559 -0.450894 0
M  V30 12791 H 1178.5 0.937649 -0.139711 0
M  V30 12792 H 1178.21 3.51622 0.0741579 0
M  V30 12793 H 1178.08 3.30827 1.81199 0
M  V30 12794 H 1180.47 2.31656 1.8281 0
M  V30 12795 H 1180.55 2.55684 0.0769512 0
M  V30 12796 H 1180.2 5.06105 0.426575 0
M  V30 12797 H 1180.13 4.7908 2.18608 0
M  V30 12798 H 1182.62 3.58587 1.19265 0
M  V30 12799 H 1182.93 7.50634 1.83762 0
M  V30 12800 H 1181.28 6.749 1.65937 0
M  V30 12801 H 1184.47 4.46764 1.39713 0
M  V30 12802 H 1184.64 6.25535 1.69146 0
M  V30 12803 N 1178.05 -0.61812 1.44973 0
M  V30 12804 C 1179.29 -1.37343 1.47715 0
M  V30 12805 C 1179.61 -1.95239 0.118784 0
M  V30 12806 O 1180.81 -2.7149 0.0237981 0
M  V30 12807 C 1179.27 -2.48732 2.60116 0
M  V30 12808 C 1178.88 -1.97294 4.02218 0
M  V30 12809 C 1180.62 -3.25831 2.72093 0
M  V30 12810 C 1178.53 -3.06102 5.06019 0
M  V30 12811 H 1177.46 -0.516175 0.549617 0
M  V30 12812 H 1180.11 -0.663617 1.7108 0
M  V30 12813 H 1178.49 -3.2235 2.30014 0
M  V30 12814 H 1179.67 -1.30455 4.41948 0
M  V30 12815 H 1177.98 -1.32972 3.94598 0
M  V30 12816 H 1180.58 -4.06968 3.46815 0
M  V30 12817 H 1180.92 -3.76156 1.7836 0
M  V30 12818 H 1181.45 -2.59309 3.01668 0
M  V30 12819 H 1178.19 -2.60706 6.01426 0
M  V30 12820 H 1177.71 -3.71541 4.70869 0
M  V30 12821 H 1179.39 -3.70662 5.30301 0
M  V30 12822 N 1179.52 -1.32087 -0.859693 0
M  V30 12823 C 1180.77 -1.22542 -1.6159 0
M  V30 12824 C 1181.1 0.213533 -1.93022 0
M  V30 12825 O 1180.38 1.14931 -1.56911 0
M  V30 12826 C 1180.66 -2.08004 -2.93949 0
M  V30 12827 C 1180.51 -3.60252 -2.6933 0
M  V30 12828 C 1181.83 -1.93732 -3.95166 0
M  V30 12829 H 1178.95 -0.446504 -0.586347 0
M  V30 12830 H 1181.59 -1.61982 -0.993064 0
M  V30 12831 H 1179.74 -1.74498 -3.47106 0
M  V30 12832 H 1181.42 -4.03947 -2.22766 0
M  V30 12833 H 1179.66 -3.83169 -2.03382 0
M  V30 12834 H 1180.33 -4.1537 -3.63555 0
M  V30 12835 H 1182.81 -2.23075 -3.5125 0
M  V30 12836 H 1181.68 -2.55815 -4.85644 0
M  V30 12837 H 1181.94 -0.903528 -4.32769 0
M  V30 12838 N 1181 1.07532 -1.15215 0
M  V30 12839 C 1181.96 2.1286 -0.84989 0
M  V30 12840 C 1182.96 1.60103 0.149524 0
M  V30 12841 O 1184.15 1.74017 -0.0798918 0
M  V30 12842 C 1181.29 3.3984 -0.268617 0
M  V30 12843 H 1182.48 2.41106 -1.78347 0
M  V30 12844 H 1180.03 1.23392 -0.959386 0
M  V30 12845 H 1180.77 3.17235 0.67325 0
M  V30 12846 H 1180.55 3.79433 -0.988592 0
M  V30 12847 H 1182.04 4.17533 -0.0746554 0
M  V30 12848 N 1182.48 0.948665 1.2585 0
M  V30 12849 C 1183.9 0.652147 1.45668 0
M  V30 12850 C 1184.1 -0.792217 1.85273 0
M  V30 12851 O 1183.15 -1.56812 1.97905 0
M  V30 12852 C 1184.47 1.61998 2.53332 0
M  V30 12853 C 1186.01 1.6305 2.67178 0
M  V30 12854 C 1186.49 2.58582 3.78021 0
M  V30 12855 N 1187.98 2.56911 3.85423 0
M  V30 12856 C 1188.71 3.27511 4.70664 0
M  V30 12857 N 1188.21 4.07563 5.60236 0
M  V30 12858 N 1190 3.16427 4.64576 0
M  V30 12859 H 1182.15 1.88215 0.984325 0
M  V30 12860 H 1184.42 0.809251 0.493778 0
M  V30 12861 H 1184.12 2.65137 2.31075 0
M  V30 12862 H 1184 1.37784 3.51134 0
M  V30 12863 H 1186.38 0.606315 2.88804 0
M  V30 12864 H 1186.47 1.9132 1.69795 0
M  V30 12865 H 1186.11 3.61122 3.57146 0
M  V30 12866 H 1186.04 2.27598 4.74875 0
M  V30 12867 H 1188.53 1.9879 3.21389 0
M  V30 12868 H 1188.84 4.58367 6.22189 0
M  V30 12869 H 1187.19 4.11662 5.59964 0
M  V30 12870 H 1190.38 2.53364 3.93604 0
M  V30 12871 H 1190.55 3.71714 5.30785 0
M  V30 12872 N 1183.96 -1.40369 0.716545 0
M  V30 12873 C 1184.89 -2.29186 0.0251905 0
M  V30 12874 C 1185.9 -1.45877 -0.722761 0
M  V30 12875 O 1187.09 -1.69155 -0.569982 0
M  V30 12876 C 1184.19 -3.24161 -0.988589 0
M  V30 12877 C 1183.37 -4.36329 -0.30597 0
M  V30 12878 C 1182.42 -5.11736 -1.22527 0
M  V30 12879 O 1181.45 -5.64758 -0.7097 0
M  V30 12880 N 1182.65 -5.21183 -2.55634 0
M  V30 12881 H 1185.42 -2.8916 0.787808 0
M  V30 12882 H 1182.98 -1.51749 0.564253 0
M  V30 12883 H 1184.97 -3.71479 -1.60578 0
M  V30 12884 H 1183.54 -2.65347 -1.65256 0
M  V30 12885 H 1182.76 -3.91125 0.491432 0
M  V30 12886 H 1184.05 -5.08523 0.167827 0
M  V30 12887 H 1183.45 -4.7959 -3.00017 0
M  V30 12888 H 1182 -5.72005 -3.12495 0
M  V30 12889 N 1185.44 -0.462799 -1.50652 0
M  V30 12890 C 1186.69 0.0966838 -2.01468 0
M  V30 12891 C 1187 1.41529 -1.35014 0
M  V30 12892 O 1188.2 2.05923 -1.76941 0
M  V30 12893 C 1186.66 0.222826 -3.5921 0
M  V30 12894 C 1186.27 -1.08686 -4.34616 0
M  V30 12895 C 1188.01 0.734711 -4.18094 0
M  V30 12896 C 1185.92 -0.924964 -5.84122 0
M  V30 12897 H 1184.85 0.0399078 -0.752943 0
M  V30 12898 H 1187.5 -0.596437 -1.73536 0
M  V30 12899 H 1185.88 0.979539 -3.83694 0
M  V30 12900 H 1187.06 -1.85388 -4.21862 0
M  V30 12901 H 1185.37 -1.52922 -3.87303 0
M  V30 12902 H 1187.97 0.872734 -5.2753 0
M  V30 12903 H 1188.31 1.72389 -3.7893 0
M  V30 12904 H 1188.84 0.0356139 -3.97784 0
M  V30 12905 H 1185.58 -1.88727 -6.27744 0
M  V30 12906 H 1185.1 -0.198181 -5.99473 0
M  V30 12907 H 1186.78 -0.588262 -6.4432 0
M  V30 12908 N 1186.91 1.56388 -0.195085 0
M  V30 12909 C 1188.16 1.97872 0.444344 0
M  V30 12910 C 1188.49 1.0819 1.61271 0
M  V30 12911 O 1187.77 0.133904 1.94039 0
M  V30 12912 C 1188.05 3.48556 0.90449 0
M  V30 12913 C 1187.9 4.49015 -0.265693 0
M  V30 12914 C 1189.22 4.02938 1.76999 0
M  V30 12915 H 1186.34 0.719413 0.160041 0
M  V30 12916 H 1188.98 1.87835 -0.286005 0
M  V30 12917 H 1187.13 3.5724 1.52682 0
M  V30 12918 H 1188.81 4.52368 -0.903363 0
M  V30 12919 H 1187.05 4.23987 -0.917462 0
M  V30 12920 H 1187.72 5.51912 0.0987834 0
M  V30 12921 H 1190.2 3.97033 1.24514 0
M  V30 12922 H 1189.07 5.08741 2.06092 0
M  V30 12923 H 1189.33 3.48197 2.72418 0
M  V30 12924 N 1188.39 -0.0785156 1.57404 0
M  V30 12925 C 1189.67 -0.811557 1.77969 0
M  V30 12926 C 1190.05 -1.96123 0.780966 0
M  V30 12927 O 1189.4 -2.27731 -0.18726 0
M  V30 12928 C 1189.61 -1.29075 3.24254 0
M  V30 12929 C 1190.96 -1.72685 3.87898 0
M  V30 12930 O 1191.98 -1.38658 3.28104 0
M  V30 12931 O 1190.84 -2.3566 4.93079 0
M  V30 12932 H 1187.93 -0.388361 0.73014 0
M  V30 12933 H 1190.48 -0.0591118 1.69597 0
M  V30 12934 H 1189.25 -0.467813 3.88494 0
M  V30 12935 H 1188.87 -2.10472 3.37324 0
M  V30 12936 N 1189.87 -1.5367 -0.349747 0
M  V30 12937 C 1191.1 -1.74547 -1.11089 0
M  V30 12938 C 1191.51 -0.481741 -1.82551 0
M  V30 12939 O 1190.87 0.546272 -1.74132 0
M  V30 12940 C 1190.92 -2.92148 -2.12913 0
M  V30 12941 O 1190.64 -4.13633 -1.44358 0
M  V30 12942 C 1192.14 -3.25027 -3.01451 0
M  V30 12943 H 1189.36 -0.583376 -0.331532 0
M  V30 12944 H 1191.91 -2.00473 -0.403841 0
M  V30 12945 H 1190.06 -2.68572 -2.79192 0
M  V30 12946 H 1190.48 -4.79601 -2.12329 0
M  V30 12947 H 1191.95 -4.10679 -3.68845 0
M  V30 12948 H 1192.43 -2.41064 -3.67131 0
M  V30 12949 H 1193.03 -3.50586 -2.40768 0
M  V30 12950 N 1191.35 0.610423 -1.45298 0
M  V30 12951 C 1192.59 1.38085 -1.50705 0
M  V30 12952 C 1192.95 1.91459 -0.143997 0
M  V30 12953 O 1194.15 2.68702 -0.0727521 0
M  V30 12954 C 1192.42 2.50009 -2.55402 0
M  V30 12955 S 1193.98 3.37844 -2.80012 0
M  V30 12956 H 1190.8 0.470812 -0.532783 0
M  V30 12957 H 1193.4 0.704638 -1.8236 0
M  V30 12958 H 1192.11 2.09143 -3.53111 0
M  V30 12959 H 1191.64 3.22434 -2.25388 0
M  V30 12960 H 1193.65 4.48074 -2.13176 0
M  V30 12961 N 1192.83 1.32541 0.852676 0
M  V30 12962 C 1194.1 1.1383 1.59067 0
M  V30 12963 C 1194.48 -0.300584 2.08949 0
M  V30 12964 O 1193.83 -1.29751 1.88088 0
M  V30 12965 C 1194.04 2.16758 2.73527 0
M  V30 12966 C 1195.39 2.50194 3.43057 0
M  V30 12967 O 1196.41 2.15319 2.83754 0
M  V30 12968 O 1195.27 3.09985 4.50079 0
M  V30 12969 H 1192.37 0.439379 0.700625 0
M  V30 12970 H 1194.91 1.44078 0.896632 0
M  V30 12971 H 1193.68 3.13469 2.34207 0
M  V30 12972 H 1193.31 1.87515 3.50605 0
M  V30 12973 N 1194.3 -1.0692 1.15784 0
M  V30 12974 C 1195.25 -2.14235 0.858616 0
M  V30 12975 C 1196.22 -1.65006 -0.190295 0
M  V30 12976 O 1197.41 -1.90715 -0.0568853 0
M  V30 12977 C 1194.55 -3.43229 0.35888 0
M  V30 12978 C 1193.66 -4.06225 1.46987 0
M  V30 12979 C 1192.79 -5.2307 0.925812 0
M  V30 12980 C 1191.83 -5.78037 2.01345 0
M  V30 12981 N 1190.97 -6.86206 1.48544 0
M  V30 12982 H 1195.81 -2.3917 1.77769 0
M  V30 12983 H 1193.35 -1.17354 0.886925 0
M  V30 12984 H 1195.31 -4.17169 0.0508198 0
M  V30 12985 H 1193.94 -3.18531 -0.523259 0
M  V30 12986 H 1192.99 -3.29895 1.89403 0
M  V30 12987 H 1194.3 -4.43081 2.29088 0
M  V30 12988 H 1193.45 -6.04011 0.570555 0
M  V30 12989 H 1192.19 -4.87644 0.0740371 0
M  V30 12990 H 1191.2 -4.95738 2.37748 0
M  V30 12991 H 1192.42 -6.15517 2.86907 0
M  V30 12992 H 1190.37 -6.52711 0.656092 0
M  V30 12993 H 1190.29 -7.2197 2.24266 0
M  V30 12994 H 1191.55 -7.70842 1.15856 0
M  V30 12995 N 1195.78 -0.955326 -1.25345 0
M  V30 12996 C 1197.02 -0.618161 -1.94828 0
M  V30 12997 C 1197.39 0.829532 -1.73155 0
M  V30 12998 O 1198.59 1.27632 -2.36566 0
M  V30 12999 C 1196.86 -0.967887 -3.44045 0
M  V30 13000 S 1198.42 -0.743401 -4.32457 0
M  V30 13001 H 1195.24 -0.227189 -0.673726 0
M  V30 13002 H 1197.84 -1.22965 -1.51986 0
M  V30 13003 H 1196.54 -2.01864 -3.57322 0
M  V30 13004 H 1196.07 -0.346677 -3.9187 0
M  V30 13005 H 1198.09 0.385467 -4.94701 0
M  V30 13006 N 1197.26 1.39987 -0.723979 0
M  V30 13007 C 1198.21 2.27938 -0.0531058 0
M  V30 13008 C 1199.2 1.43693 0.723965 0
M  V30 13009 O 1200.39 1.66707 0.594785 0
M  V30 13010 C 1197.52 3.32311 0.861659 0
M  V30 13011 C 1196.6 4.24026 0.079327 0
M  V30 13012 N 1196.99 4.96954 -0.941805 0
M  V30 13013 C 1195.29 4.44917 0.310637 0
M  V30 13014 C 1195.99 5.64287 -1.41261 0
M  V30 13015 N 1194.97 5.38632 -0.733217 0
M  V30 13016 H 1198.77 2.81771 -0.835608 0
M  V30 13017 H 1196.28 1.52538 -0.557315 0
M  V30 13018 H 1198.28 3.94174 1.35766 0
M  V30 13019 H 1196.94 2.80038 1.64344 0
M  V30 13020 H 1197.95 5.0072 -1.32288 0
M  V30 13021 H 1194.63 4.03606 1.06809 0
M  V30 13022 H 1196.02 6.32695 -2.26155 0
M  V30 13023 N 1198.74 0.470782 1.50404 0
M  V30 13024 C 1199.67 -0.359838 2.26358 0
M  V30 13025 C 1200.68 -0.95735 1.31676 0
M  V30 13026 O 1201.87 -0.84581 1.57189 0
M  V30 13027 C 1198.97 -1.51864 3.02969 0
M  V30 13028 C 1198.15 -1.03397 4.25003 0
M  V30 13029 C 1197.21 -2.06679 4.83911 0
M  V30 13030 O 1196.23 -1.64754 5.44835 0
M  V30 13031 N 1197.43 -3.39484 4.70883 0
M  V30 13032 H 1200.2 0.291299 2.98281 0
M  V30 13033 H 1197.76 0.301549 1.59067 0
M  V30 13034 H 1199.75 -2.2065 3.39258 0
M  V30 13035 H 1198.32 -2.07448 2.33846 0
M  V30 13036 H 1197.54 -0.172012 3.93825 0
M  V30 13037 H 1198.83 -0.68807 5.04126 0
M  V30 13038 H 1198.23 -3.76256 4.22431 0
M  V30 13039 H 1196.78 -4.04068 5.11441 0
M  V30 13040 N 1200.22 -1.56282 0.203376 0
M  V30 13041 C 1201.16 -2.19473 -0.714164 0
M  V30 13042 C 1202.13 -1.14454 -1.20372 0
M  V30 13043 O 1203.32 -1.42739 -1.26611 0
M  V30 13044 C 1200.46 -2.86451 -1.92457 0
M  V30 13045 C 1199.57 -4.06017 -1.47561 0
M  V30 13046 C 1198.71 -4.60829 -2.64216 0
M  V30 13047 C 1197.75 -5.72734 -2.15967 0
M  V30 13048 N 1196.88 -6.21916 -3.25829 0
M  V30 13049 H 1201.72 -2.97523 -0.168558 0
M  V30 13050 H 1199.26 -1.46926 -0.0714525 0
M  V30 13051 H 1201.22 -3.23459 -2.63496 0
M  V30 13052 H 1199.85 -2.10951 -2.44335 0
M  V30 13053 H 1198.9 -3.74617 -0.660784 0
M  V30 13054 H 1200.21 -4.8693 -1.08168 0
M  V30 13055 H 1199.37 -5.00185 -3.43366 0
M  V30 13056 H 1198.11 -3.7904 -3.06887 0
M  V30 13057 H 1197.11 -5.32899 -1.35273 0
M  V30 13058 H 1198.34 -6.56346 -1.74316 0
M  V30 13059 H 1196.28 -5.43047 -3.68016 0
M  V30 13060 H 1196.2 -6.97904 -2.90631 0
M  V30 13061 H 1197.47 -6.65927 -4.05168 0
M  V30 13062 N 1201.7 0.070167 -1.57444 0
M  V30 13063 C 1202.94 0.767495 -1.8696 0
M  V30 13064 C 1203.26 1.78032 -0.795595 0
M  V30 13065 O 1202.53 1.95112 0.175566 0
M  V30 13066 H 1201.11 0.286443 -0.689898 0
M  V30 13067 H 1203.78 0.0458692 -1.94846 0
M  V30 13068 H 1202.87 1.28269 -2.84523 0
M  V30 13069 N 1203.17 1.53854 0.341593 0
M  V30 13070 C 1204.08 1.84975 1.44297 0
M  V30 13071 C 1205.1 0.740057 1.57477 0
M  V30 13072 O 1206.28 1.03256 1.72917 0
M  V30 13073 C 1203.34 2.05464 2.79259 0
M  V30 13074 C 1202.4 3.29318 2.75405 0
M  V30 13075 C 1201.63 3.4882 4.03931 0
M  V30 13076 O 1201.86 2.7212 5.01305 0
M  V30 13077 O 1200.79 4.42253 4.08284 0
M  V30 13078 H 1204.62 2.78592 1.20913 0
M  V30 13079 H 1202.2 1.39532 0.533953 0
M  V30 13080 H 1204.08 2.20374 3.59184 0
M  V30 13081 H 1202.76 1.15035 3.0257 0
M  V30 13082 H 1201.67 3.1981 1.94094 0
M  V30 13083 H 1203 4.19746 2.57049 0
M  V30 13084 N 1204.65 -0.602709 1.4562 0
M  V30 13085 C 1205.61 -1.69508 1.54271 0
M  V30 13086 C 1206.61 -1.55171 0.421727 0
M  V30 13087 O 1207.8 -1.60151 0.685375 0
M  V30 13088 C 1204.94 -3.0881 1.44392 0
M  V30 13089 H 1206.13 -1.63203 2.51605 0
M  V30 13090 H 1203.68 -0.818857 1.33133 0
M  V30 13091 H 1204.42 -3.20689 0.482614 0
M  V30 13092 H 1204.2 -3.20625 2.25704 0
M  V30 13093 H 1205.69 -3.8837 1.53488 0
M  V30 13094 N 1206.13 -1.32992 -0.845635 0
M  V30 13095 C 1207.38 -1.23415 -1.59536 0
M  V30 13096 C 1207.69 0.200278 -1.94572 0
M  V30 13097 O 1208.9 0.417993 -2.68263 0
M  V30 13098 C 1207.35 -2.16207 -2.8772 0
M  V30 13099 C 1206.96 -3.64782 -2.60073 0
M  V30 13100 C 1208.71 -2.15488 -3.65739 0
M  V30 13101 C 1206.61 -4.49508 -3.84313 0
M  V30 13102 H 1205.54 -0.458366 -0.598679 0
M  V30 13103 H 1208.19 -1.58012 -0.932981 0
M  V30 13104 H 1206.58 -1.74535 -3.55462 0
M  V30 13105 H 1207.75 -4.14852 -2.00585 0
M  V30 13106 H 1206.06 -3.67723 -1.95369 0
M  V30 13107 H 1208.66 -2.76021 -4.57948 0
M  V30 13108 H 1209 -1.14818 -4.00153 0
M  V30 13109 H 1209.54 -2.55487 -3.04912 0
M  V30 13110 H 1206.28 -5.51027 -3.55035 0
M  V30 13111 H 1205.8 -4.04185 -4.43165 0
M  V30 13112 H 1207.48 -4.62969 -4.51961 0
M  V30 13113 N 1207.61 1.06304 -1.1635 0
M  V30 13114 C 1208.56 2.12032 -0.83825 0
M  V30 13115 C 1209.54 1.59864 0.182254 0
M  V30 13116 O 1210.73 1.7699 -0.0185576 0
M  V30 13117 C 1207.86 3.41603 -0.340968 0
M  V30 13118 C 1206.95 4.00596 -1.39225 0
M  V30 13119 N 1207.34 4.33703 -2.6026 0
M  V30 13120 C 1205.64 4.28199 -1.24748 0
M  V30 13121 C 1206.34 4.80595 -3.27725 0
M  V30 13122 N 1205.31 4.80023 -2.55105 0
M  V30 13123 H 1209.12 2.35475 -1.75866 0
M  V30 13124 H 1206.63 1.23845 -1.05053 0
M  V30 13125 H 1208.63 4.16804 -0.0895629 0
M  V30 13126 H 1207.29 3.19598 0.57337 0
M  V30 13127 H 1208.3 4.24055 -2.97318 0
M  V30 13128 H 1204.98 4.15638 -0.393887 0
M  V30 13129 H 1206.37 5.15416 -4.31041 0
M  V30 13130 N 1209.09 0.96196 1.24836 0
M  V30 13131 C 1210.33 0.619489 1.92371 0
M  V30 13132 C 1210.65 -0.847233 1.75633 0
M  V30 13133 O 1209.92 -1.60419 1.12439 0
M  V30 13134 H 1208.5 0.226129 0.711951 0
M  V30 13135 H 1211.17 1.22179 1.5185 0
M  V30 13136 H 1210.26 0.855128 3.00157 0
M  V30 13137 N 1210.56 -1.39601 0.731392 0
M  V30 13138 C 1211.5 -2.29147 0.0494974 0
M  V30 13139 C 1212.51 -1.46635 -0.707248 0
M  V30 13140 O 1213.7 -1.6975 -0.552008 0
M  V30 13141 C 1210.8 -3.25191 -0.954152 0
M  V30 13142 C 1209.97 -4.36629 -0.259674 0
M  V30 13143 C 1209.03 -5.13007 -1.17092 0
M  V30 13144 O 1208.06 -5.65479 -0.64976 0
M  V30 13145 N 1209.26 -5.23865 -2.50092 0
M  V30 13146 H 1212.02 -2.88308 0.818433 0
M  V30 13147 H 1209.58 -1.51142 0.580316 0
M  V30 13148 H 1211.58 -3.73161 -1.56629 0
M  V30 13149 H 1210.15 -2.67085 -1.62432 0
M  V30 13150 H 1209.37 -3.90582 0.532888 0
M  V30 13151 H 1210.65 -5.08317 0.221753 0
M  V30 13152 H 1210.05 -4.82745 -2.94913 0
M  V30 13153 H 1208.61 -5.75288 -3.0641 0
M  V30 13154 N 1212.04 -0.478751 -1.50152 0
M  V30 13155 C 1213.01 0.300181 -2.27226 0
M  V30 13156 C 1214.01 0.913705 -1.32318 0
M  V30 13157 O 1215.2 0.781692 -1.55677 0
M  V30 13158 C 1212.33 1.42838 -3.09532 0
M  V30 13159 H 1213.52 -0.375845 -2.97536 0
M  V30 13160 H 1211.07 -0.233037 -1.54553 0
M  V30 13161 H 1211.81 2.13923 -2.43737 0
M  V30 13162 H 1211.59 0.994161 -3.79287 0
M  V30 13163 H 1213.08 1.97765 -3.67802 0
M  V30 13164 N 1213.52 1.56172 -0.211661 0
M  V30 13165 C 1214.47 2.21206 0.719063 0
M  V30 13166 C 1215.46 1.18835 1.20725 0
M  V30 13167 O 1216.67 1.36939 1.16823 0
M  V30 13168 H 1213.04 0.709129 0.250279 0
M  V30 13169 H 1215.01 2.98038 0.147022 0
M  V30 13170 C 1213.76 2.89826 1.92084 0
M  V30 13171 H 1213.09 3.68351 1.55428 0
M  V30 13172 H 1214.53 3.38744 2.55006 0
M  V30 13173 C 1212.99 1.91756 2.77004 0
M  V30 13174 O 1213.52 1.42826 3.75451 0
M  V30 13175 N 1211.72 1.59622 2.42836 0
M  V30 13176 H 1211.27 1.99606 1.62835 0
M  V30 13177 H 1211.23 0.942641 2.99936 0
M  V30 13178 N 1215 -0.0618163 1.57479 0
M  V30 13179 C 1216.22 -0.775513 1.92355 0
M  V30 13180 C 1216.65 -1.69816 0.808949 0
M  V30 13181 O 1216.01 -1.79736 -0.23761 0
M  V30 13182 C 1216.05 -1.5367 3.26218 0
M  V30 13183 O 1215.16 -2.64802 3.16155 0
M  V30 13184 H 1214.5 -0.210909 0.629614 0
M  V30 13185 H 1217.03 -0.0270752 2.04582 0
M  V30 13186 H 1217.04 -1.91379 3.6033 0
M  V30 13187 H 1215.71 -0.859798 4.06916 0
M  V30 13188 H 1214.29 -2.29876 2.93618 0
M  V30 13189 N 1216.48 -1.54033 -0.333429 0
M  V30 13190 C 1217.75 -1.62404 -1.09015 0
M  V30 13191 C 1218.13 -0.451653 -2.06212 0
M  V30 13192 O 1217.48 0.555086 -2.21655 0
M  V30 13193 C 1217.69 -2.98949 -1.80085 0
M  V30 13194 C 1219.04 -3.54655 -2.33464 0
M  V30 13195 O 1220.06 -3.0119 -1.90166 0
M  V30 13196 O 1218.92 -4.48195 -3.12703 0
M  V30 13197 H 1216.02 -0.65727 -0.501921 0
M  V30 13198 H 1218.56 -1.66378 -0.33411 0
M  V30 13199 H 1217.33 -3.75716 -1.09332 0
M  V30 13200 H 1216.96 -2.98609 -2.62523 0
M  V30 13201 N 1217.95 0.594978 -1.45938 0
M  V30 13202 C 1218.88 1.71536 -1.58422 0
M  V30 13203 C 1219.87 1.64441 -0.435116 0
M  V30 13204 O 1221.05 1.82647 -0.659839 0
M  V30 13205 C 1218.18 3.10163 -1.56257 0
M  V30 13206 C 1217.13 3.3208 -2.70013 0
M  V30 13207 C 1216.46 4.71108 -2.52905 0
M  V30 13208 C 1217.76 3.21105 -4.11933 0
M  V30 13209 H 1219.45 1.61344 -2.52207 0
M  V30 13210 H 1217 0.774791 -1.2138 0
M  V30 13211 H 1218.95 3.88352 -1.63587 0
M  V30 13212 H 1217.68 3.21225 -0.590093 0
M  V30 13213 H 1216.34 2.56286 -2.62132 0
M  V30 13214 H 1215.98 4.7892 -1.53768 0
M  V30 13215 H 1215.68 4.86727 -3.29197 0
M  V30 13216 H 1217.21 5.51482 -2.62107 0
M  V30 13217 H 1218.62 3.89153 -4.2099 0
M  V30 13218 H 1217.02 3.4825 -4.88715 0
M  V30 13219 H 1218.09 2.18359 -4.32952 0
M  V30 13220 N 1219.43 1.33438 0.838571 0
M  V30 13221 C 1220.68 1.24665 1.59069 0
M  V30 13222 C 1221 -0.187433 1.94097 0
M  V30 13223 O 1220.27 -1.11625 1.60987 0
M  V30 13224 H 1218.85 0.45843 0.589789 0
M  V30 13225 H 1221.51 1.67161 1.00216 0
M  V30 13226 H 1220.61 1.84057 2.52051 0
M  V30 13227 N 1220.91 -1.05686 1.16912 0
M  V30 13228 C 1222.14 -1.82282 0.978811 0
M  V30 13229 C 1222.55 -1.8278 -0.472972 0
M  V30 13230 O 1221.91 -1.25143 -1.32836 0
M  V30 13231 C 1221.96 -3.28623 1.50629 0
M  V30 13232 O 1221.68 -3.28269 2.90122 0
M  V30 13233 C 1223.18 -4.21927 1.35987 0
M  V30 13234 H 1220.4 -0.574558 0.346588 0
M  V30 13235 H 1222.95 -1.33301 1.55084 0
M  V30 13236 H 1221.1 -3.74893 0.976404 0
M  V30 13237 H 1221.52 -4.19824 3.14401 0
M  V30 13238 H 1222.99 -5.2261 1.77716 0
M  V30 13239 H 1223.47 -4.38131 0.30626 0
M  V30 13240 H 1224.07 -3.81508 1.87968 0
M  V30 13241 N 1222.39 -0.968567 -1.24324 0
M  V30 13242 C 1223.63 -0.641458 -1.9302 0
M  V30 13243 C 1223.99 0.814553 -1.74307 0
M  V30 13244 O 1223.28 1.57848 -1.08603 0
M  V30 13245 C 1223.48 -0.952762 -3.44467 0
M  V30 13246 C 1223.31 -2.43748 -3.77911 0
M  V30 13247 C 1222.08 -3.09746 -3.99231 0
M  V30 13248 C 1224.27 -3.4176 -3.84324 0
M  V30 13249 N 1222.26 -4.47947 -4.19782 0
M  V30 13250 C 1223.63 -4.65321 -4.09728 0
M  V30 13251 C 1225.68 -3.36406 -3.67064 0
M  V30 13252 C 1224.38 -5.84186 -4.19665 0
M  V30 13253 C 1226.41 -4.54624 -3.78248 0
M  V30 13254 C 1225.77 -5.76976 -4.04077 0
M  V30 13255 H 1221.87 -0.285584 -0.727987 0
M  V30 13256 H 1224.46 -1.2436 -1.49808 0
M  V30 13257 H 1222.63 -0.379421 -3.86542 0
M  V30 13258 H 1224.36 -0.584137 -4.00462 0
M  V30 13259 H 1221.11 -2.60274 -3.95669 0
M  V30 13260 H 1221.54 -5.19559 -4.34036 0
M  V30 13261 H 1226.18 -2.42847 -3.461 0
M  V30 13262 H 1223.9 -6.78172 -4.3944 0
M  V30 13263 H 1227.48 -4.52043 -3.66262 0
M  V30 13264 H 1226.36 -6.66925 -4.1253 0
M  V30 13265 N 1223.87 1.39211 -0.738786 0
M  V30 13266 C 1224.8 2.29117 -0.0616489 0
M  V30 13267 C 1225.81 1.47008 0.699462 0
M  V30 13268 O 1227 1.70041 0.542998 0
M  V30 13269 C 1224.1 3.25692 0.936893 0
M  V30 13270 C 1223.27 4.3676 0.236515 0
M  V30 13271 C 1222.33 5.1362 1.1437 0
M  V30 13272 O 1221.36 5.65816 0.619762 0
M  V30 13273 N 1222.56 5.25184 2.4731 0
M  V30 13274 H 1225.33 2.8787 -0.833711 0
M  V30 13275 H 1222.89 1.50832 -0.588323 0
M  V30 13276 H 1224.88 3.73987 1.54648 0
M  V30 13277 H 1223.45 2.67943 1.61014 0
M  V30 13278 H 1222.67 3.90293 -0.553594 0
M  V30 13279 H 1223.96 5.08192 -0.248707 0
M  V30 13280 H 1223.35 4.84302 2.92349 0
M  V30 13281 H 1221.91 5.76905 3.03355 0
M  V30 13282 N 1225.34 0.486708 1.49896 0
M  V30 13283 C 1226.28 -0.345627 2.25567 0
M  V30 13284 C 1227.26 -0.982794 1.29537 0
M  V30 13285 O 1228.44 -1.01569 1.58796 0
M  V30 13286 C 1225.57 -1.48555 3.04383 0
M  V30 13287 C 1224.61 -0.964196 4.15458 0
M  V30 13288 S 1225.45 0.133631 5.35333 0
M  V30 13289 C 1226.6 -1.00979 6.17701 0
M  V30 13290 H 1226.83 0.296677 2.95816 0
M  V30 13291 H 1224.37 0.271798 1.51989 0
M  V30 13292 H 1226.33 -2.13878 3.50381 0
M  V30 13293 H 1224.99 -2.09942 2.33631 0
M  V30 13294 H 1224.18 -1.81804 4.70067 0
M  V30 13295 H 1223.78 -0.388419 3.71978 0
M  V30 13296 H 1226.07 -1.91812 6.4978 0
M  V30 13297 H 1227.02 -0.502633 7.06314 0
M  V30 13298 H 1227.42 -1.27067 5.50013 0
M  V30 13299 N 1226.82 -1.56058 0.219941 0
M  V30 13300 C 1228.1 -1.90087 -0.46112 0
M  V30 13301 C 1228.48 -1.13705 -1.77861 0
M  V30 13302 O 1227.83 -0.245868 -2.27173 0
M  V30 13303 C 1228.04 -3.42786 -0.655644 0
M  V30 13304 C 1229.39 -4.13517 -0.963803 0
M  V30 13305 O 1230.41 -3.48376 -0.742488 0
M  V30 13306 O 1229.27 -5.28692 -1.38374 0
M  V30 13307 H 1226.36 -0.790311 -0.243595 0
M  V30 13308 H 1228.91 -1.67665 0.262005 0
M  V30 13309 H 1227.68 -3.90341 0.273738 0
M  V30 13310 H 1227.3 -3.70982 -1.43032 0
M  V30 13311 N 1228.3 0.053464 -1.57509 0
M  V30 13312 C 1229.54 0.754231 -1.89976 0
M  V30 13313 C 1229.91 1.73805 -0.815833 0
M  V30 13314 O 1231.11 2.48527 -1.0241 0
M  V30 13315 C 1229.38 1.42768 -3.27646 0
M  V30 13316 S 1230.94 2.16098 -3.81899 0
M  V30 13317 H 1227.75 0.250421 -0.66544 0
M  V30 13318 H 1230.36 0.00963883 -1.95498 0
M  V30 13319 H 1229.06 0.698087 -4.04419 0
M  V30 13320 H 1228.59 2.21133 -3.25367 0
M  V30 13321 H 1230.61 3.42895 -3.5866 0
M  V30 13322 N 1229.78 1.54207 0.325255 0
M  V30 13323 C 1231.01 1.76293 1.08298 0
M  V30 13324 C 1231.42 0.510722 1.81761 0
M  V30 13325 O 1230.78 -0.5185 1.7498 0
M  V30 13326 C 1230.83 2.95498 2.08238 0
M  V30 13327 O 1230.55 4.15877 1.37759 0
M  V30 13328 C 1232.05 3.29781 2.96242 0
M  V30 13329 H 1229.27 0.588576 0.322209 0
M  V30 13330 H 1231.82 2.0109 0.371896 0
M  V30 13331 H 1229.97 2.72979 2.74884 0
M  V30 13332 H 1230.39 4.82918 2.04672 0
M  V30 13333 H 1231.86 4.16495 3.62265 0
M  V30 13334 H 1232.34 2.46874 3.63249 0
M  V30 13335 H 1232.94 3.54372 2.3516 0
M  V30 13336 N 1231.26 -0.58723 1.46251 0
M  V30 13337 C 1232.21 -1.69141 1.5289 0
M  V30 13338 C 1233.19 -1.56096 0.39024 0
M  V30 13339 O 1234.38 -1.65087 0.638373 0
M  V30 13340 C 1231.51 -3.07922 1.51785 0
M  V30 13341 C 1230.6 -3.2628 2.70928 0
M  V30 13342 N 1230.99 -3.14815 3.95885 0
M  V30 13343 C 1229.29 -3.57207 2.67056 0
M  V30 13344 C 1229.99 -3.35055 4.75514 0
M  V30 13345 N 1228.96 -3.59999 4.0731 0
M  V30 13346 H 1232.77 -1.588 2.47305 0
M  V30 13347 H 1230.28 -0.791124 1.41827 0
M  V30 13348 H 1232.28 -3.87164 1.54628 0
M  V30 13349 H 1230.94 -3.19397 0.584435 0
M  V30 13350 H 1231.95 -2.92778 4.27202 0
M  V30 13351 H 1228.63 -3.75394 1.82717 0
M  V30 13352 H 1230.02 -3.31412 5.84479 0
M  V30 13353 N 1232.74 -1.33881 -0.831482 0
M  V30 13354 C 1233.67 -1.27384 -1.95693 0
M  V30 13355 C 1234.65 -0.152943 -1.69411 0
M  V30 13356 O 1235.83 -0.34392 -1.9113 0
M  V30 13357 C 1232.96 -1.01982 -3.31989 0
M  V30 13358 C 1231.92 -2.10445 -3.72689 0
M  V30 13359 C 1231.24 -1.70245 -5.06873 0
M  V30 13360 C 1232.54 -3.52194 -3.8569 0
M  V30 13361 H 1234.24 -2.21549 -2.01386 0
M  V30 13362 H 1231.78 -1.06653 -0.967526 0
M  V30 13363 H 1233.73 -0.960841 -4.103 0
M  V30 13364 H 1232.46 -0.0425709 -3.26572 0
M  V30 13365 H 1231.12 -2.15398 -2.96647 0
M  V30 13366 H 1230.77 -0.712036 -4.97935 0
M  V30 13367 H 1230.47 -2.42834 -5.35075 0
M  V30 13368 H 1231.99 -1.65827 -5.87651 0
M  V30 13369 H 1233.4 -3.49701 -4.54293 0
M  V30 13370 H 1231.8 -4.23331 -4.25336 0
M  V30 13371 H 1232.87 -3.9016 -2.87929 0
M  V30 13372 N 1234.21 1.05064 -1.1747 0
M  V30 13373 C 1235.12 2.16346 -0.907286 0
M  V30 13374 C 1236.14 1.7355 0.125013 0
M  V30 13375 O 1237.32 2.01326 -0.0545551 0
M  V30 13376 C 1234.38 3.44077 -0.425681 0
M  V30 13377 C 1233.44 4.01311 -1.52473 0
M  V30 13378 C 1232.67 5.22946 -1.06601 0
M  V30 13379 O 1232.9 5.70345 0.0793329 0
M  V30 13380 O 1231.83 5.72454 -1.85958 0
M  V30 13381 H 1235.66 2.41754 -1.83817 0
M  V30 13382 H 1233.24 1.14834 -0.955693 0
M  V30 13383 H 1235.12 4.21078 -0.164689 0
M  V30 13384 H 1233.8 3.20166 0.477037 0
M  V30 13385 H 1232.71 3.25744 -1.83961 0
M  V30 13386 H 1234.04 4.29543 -2.4032 0
M  V30 13387 N 1235.69 0.975146 1.23809 0
M  V30 13388 C 1236.94 0.639858 1.91704 0
M  V30 13389 C 1237.26 -0.828557 1.76522 0
M  V30 13390 O 1236.53 -1.59217 1.14135 0
M  V30 13391 H 1235.11 0.233667 0.709513 0
M  V30 13392 H 1237.77 1.23782 1.50545 0
M  V30 13393 H 1236.87 0.886915 2.99233 0
M  V30 13394 N 1237.17 -1.38817 0.746158 0
M  V30 13395 C 1238.12 -2.30521 0.113517 0
M  V30 13396 C 1239.09 -1.49795 -0.717682 0
M  V30 13397 O 1240.27 -1.78448 -0.675345 0
M  V30 13398 C 1237.41 -3.36185 -0.779343 0
M  V30 13399 C 1236.52 -4.3195 0.0656784 0
M  V30 13400 C 1235.66 -5.24684 -0.829492 0
M  V30 13401 C 1234.7 -6.12097 0.0196112 0
M  V30 13402 N 1233.84 -6.97152 -0.832107 0
M  V30 13403 H 1238.68 -2.84048 0.901136 0
M  V30 13404 H 1236.21 -1.39853 0.456025 0
M  V30 13405 H 1238.17 -3.96048 -1.31156 0
M  V30 13406 H 1236.8 -2.84085 -1.53282 0
M  V30 13407 H 1235.85 -3.73611 0.715445 0
M  V30 13408 H 1237.16 -4.93551 0.721735 0
M  V30 13409 H 1236.32 -5.89627 -1.42915 0
M  V30 13410 H 1235.06 -4.63431 -1.5193 0
M  V30 13411 H 1234.06 -5.46156 0.631991 0
M  V30 13412 H 1235.29 -6.75416 0.706369 0
M  V30 13413 H 1233.23 -6.38456 -1.507 0
M  V30 13414 H 1233.15 -7.55642 -0.232782 0
M  V30 13415 H 1234.42 -7.66513 -1.41697 0
M  V30 13416 N 1238.65 -0.49465 -1.49636 0
M  V30 13417 C 1239.9 0.0539277 -2.01628 0
M  V30 13418 C 1240.21 1.38634 -1.37986 0
M  V30 13419 O 1241.42 2.02123 -1.81269 0
M  V30 13420 C 1239.87 0.146582 -3.59601 0
M  V30 13421 C 1239.48 -1.1788 -4.32213 0
M  V30 13422 C 1241.22 0.645862 -4.19558 0
M  V30 13423 C 1239.13 -1.04866 -5.82028 0
M  V30 13424 H 1238.06 0.0239278 -0.75362 0
M  V30 13425 H 1240.71 -0.633112 -1.72232 0
M  V30 13426 H 1239.09 0.897931 -3.85685 0
M  V30 13427 H 1240.27 -1.94295 -4.17835 0
M  V30 13428 H 1238.58 -1.61102 -3.83973 0
M  V30 13429 H 1241.18 0.76064 -5.29262 0
M  V30 13430 H 1241.52 1.64313 -3.82501 0
M  V30 13431 H 1242.06 -0.04877 -3.9777 0
M  V30 13432 H 1238.79 -2.02 -6.23599 0
M  V30 13433 H 1238.31 -0.325293 -5.98917 0
M  V30 13434 H 1239.99 -0.724799 -6.42927 0
M  V30 13435 N 1240.13 1.55939 -0.228214 0
M  V30 13436 C 1241.37 1.97652 0.402067 0
M  V30 13437 C 1241.69 1.11911 1.60422 0
M  V30 13438 O 1242.89 1.43552 2.30445 0
M  V30 13439 C 1241.35 3.51638 0.766724 0
M  V30 13440 C 1240.96 4.46092 -0.412991 0
M  V30 13441 C 1242.7 4.02049 1.36224 0
M  V30 13442 C 1240.61 5.91394 -0.0255281 0
M  V30 13443 H 1239.54 0.738107 0.153994 0
M  V30 13444 H 1242.19 1.8059 -0.32548 0
M  V30 13445 H 1240.57 3.64325 1.55188 0
M  V30 13446 H 1241.75 4.45156 -1.19049 0
M  V30 13447 H 1240.06 4.0606 -0.92218 0
M  V30 13448 H 1242.66 5.08111 1.66514 0
M  V30 13449 H 1243 3.48292 2.28032 0
M  V30 13450 H 1243.53 3.92612 0.640378 0
M  V30 13451 H 1240.27 6.49149 -0.910269 0
M  V30 13452 H 1239.79 5.95509 0.716149 0
M  V30 13453 H 1241.47 6.4577 0.398839 0
M  V30 13454 N 1241.6 -0.0451101 1.57535 0
M  V30 13455 C 1242.85 -0.738072 1.87711 0
M  V30 13456 C 1243.17 -1.7737 0.824579 0
M  V30 13457 O 1244.37 -2.51812 1.01503 0
M  V30 13458 C 1242.83 -1.36373 3.33062 0
M  V30 13459 C 1242.44 -0.365283 4.46508 0
M  V30 13460 C 1244.18 -2.0375 3.72406 0
M  V30 13461 C 1242.09 -0.998371 5.82912 0
M  V30 13462 H 1241.02 -0.279413 0.700317 0
M  V30 13463 H 1243.67 0.00802425 1.83498 0
M  V30 13464 H 1242.05 -2.15899 3.31969 0
M  V30 13465 H 1243.22 0.402102 4.59042 0
M  V30 13466 H 1241.54 0.205505 4.15893 0
M  V30 13467 H 1244.14 -2.51939 4.71625 0
M  V30 13468 H 1244.48 -2.84869 3.03571 0
M  V30 13469 H 1245.01 -1.3102 3.75604 0
M  V30 13470 H 1241.75 -0.226935 6.55107 0
M  V30 13471 H 1241.27 -1.73598 5.74129 0
M  V30 13472 H 1242.95 -1.51044 6.29122 0
M  V30 13473 N 1243.08 -1.54377 -0.317073 0
M  V30 13474 C 1244.33 -1.73149 -1.05581 0
M  V30 13475 C 1244.66 -0.507176 -1.8746 0
M  V30 13476 O 1243.94 0.495837 -1.88074 0
M  V30 13477 C 1244.22 -3.01098 -1.97515 0
M  V30 13478 C 1244.07 -4.33794 -1.18922 0
M  V30 13479 C 1245.39 -3.24831 -2.9694 0
M  V30 13480 H 1242.51 -0.630011 -0.382434 0
M  V30 13481 H 1245.15 -1.87079 -0.331873 0
M  V30 13482 H 1243.3 -2.89352 -2.59244 0
M  V30 13483 H 1244.97 -4.57433 -0.596039 0
M  V30 13484 H 1243.22 -4.31005 -0.491612 0
M  V30 13485 H 1243.89 -5.19554 -1.86462 0
M  V30 13486 H 1246.36 -3.3608 -2.45335 0
M  V30 13487 H 1245.24 -4.15702 -3.58445 0
M  V30 13488 H 1245.5 -2.42365 -3.69745 0
M  V30 13489 N 1244.56 0.579466 -1.4656 0
M  V30 13490 C 1245.52 1.67033 -1.56948 0
M  V30 13491 C 1246.52 1.54481 -0.446361 0
M  V30 13492 O 1247.71 1.5904 -0.710767 0
M  V30 13493 C 1244.85 3.06474 -1.49286 0
M  V30 13494 H 1246.04 1.59179 -2.54169 0
M  V30 13495 H 1243.59 0.797573 -1.34419 0
M  V30 13496 H 1244.33 3.1988 -0.533572 0
M  V30 13497 H 1244.11 3.16993 -2.30776 0
M  V30 13498 H 1245.6 3.85879 -1.59648 0
M  V30 13499 N 1246.04 1.3432 0.824371 0
M  V30 13500 C 1247.28 1.26783 1.58284 0
M  V30 13501 C 1247.62 -0.162282 1.93521 0
M  V30 13502 O 1246.89 -1.1073 1.59903 0
M  V30 13503 C 1247.18 2.15725 2.88331 0
M  V30 13504 C 1247.03 3.67266 2.59684 0
M  V30 13505 C 1248.35 2.04141 3.8989 0
M  V30 13506 H 1245.47 0.461893 0.574303 0
M  V30 13507 H 1248.11 1.64558 0.949769 0
M  V30 13508 H 1246.26 1.83639 3.42358 0
M  V30 13509 H 1247.93 4.09711 2.11978 0
M  V30 13510 H 1246.17 3.88426 1.93151 0
M  V30 13511 H 1246.84 4.24863 3.52414 0
M  V30 13512 H 1249.32 2.3231 3.45212 0
M  V30 13513 H 1248.2 2.68601 4.7869 0
M  V30 13514 H 1248.46 1.01795 4.30221 0
M  V30 13515 N 1247.52 -1.0444 1.18026 0
M  V30 13516 C 1248.47 -2.10671 0.871877 0
M  V30 13517 C 1249.45 -1.60134 -0.156798 0
M  V30 13518 O 1250.64 -1.76938 0.0467129 0
M  V30 13519 C 1247.77 -3.41017 0.395271 0
M  V30 13520 C 1246.86 -3.98331 1.4558 0
M  V30 13521 N 1247.25 -4.29508 2.67127 0
M  V30 13522 C 1245.55 -4.2616 1.31544 0
M  V30 13523 C 1246.25 -4.7532 3.35329 0
M  V30 13524 N 1245.22 -4.75904 2.6271 0
M  V30 13525 H 1249.03 -2.32647 1.79589 0
M  V30 13526 H 1246.54 -1.22158 1.0701 0
M  V30 13527 H 1248.54 -4.16609 0.155861 0
M  V30 13528 H 1247.2 -3.20469 -0.522452 0
M  V30 13529 H 1248.21 -4.19271 3.04027 0
M  V30 13530 H 1244.88 -4.14959 0.459962 0
M  V30 13531 H 1246.27 -5.08493 4.39186 0
M  V30 13532 N 1248.99 -0.981699 -1.2329 0
M  V30 13533 C 1250.24 -0.652266 -1.92024 0
M  V30 13534 C 1250.57 0.812297 -1.76396 0
M  V30 13535 O 1249.85 1.5861 -1.12575 0
M  V30 13536 C 1250.13 -1.04506 -3.44602 0
M  V30 13537 C 1249.98 -2.56735 -3.69333 0
M  V30 13538 C 1251.3 -0.589937 -4.36128 0
M  V30 13539 H 1248.42 -0.238437 -0.697364 0
M  V30 13540 H 1251.06 -1.22322 -1.45387 0
M  V30 13541 H 1249.21 -0.559242 -3.84454 0
M  V30 13542 H 1250.89 -3.12901 -3.38955 0
M  V30 13543 H 1249.13 -2.9931 -3.14 0
M  V30 13544 H 1249.8 -2.79269 -4.76144 0
M  V30 13545 H 1252.28 -1.00706 -4.0373 0
M  V30 13546 H 1251.15 -0.893192 -5.41584 0
M  V30 13547 H 1251.41 0.509707 -4.39152 0
M  V30 13548 N 1250.47 1.3842 -0.753509 0
M  V30 13549 C 1251.44 2.28808 -0.134022 0
M  V30 13550 C 1252.44 1.47184 0.647583 0
M  V30 13551 O 1253.63 1.67631 0.473861 0
M  V30 13552 C 1250.76 3.30926 0.81858 0
M  V30 13553 H 1251.95 2.85097 -0.930586 0
M  V30 13554 H 1249.5 1.47378 -0.520514 0
M  V30 13555 H 1250.24 2.79728 1.64082 0
M  V30 13556 H 1250.02 3.91234 0.260526 0
M  V30 13557 H 1251.51 3.98515 1.24802 0
M  V30 13558 N 1251.95 0.502579 1.49372 0
M  V30 13559 C 1253.18 -0.0403087 2.07361 0
M  V30 13560 C 1253.6 -1.29918 1.36026 0
M  V30 13561 O 1252.96 -1.76428 0.417488 0
M  V30 13562 C 1253.01 -0.275362 3.59547 0
M  V30 13563 O 1252.11 -1.34975 3.89686 0
M  V30 13564 H 1251.45 0.0269268 0.663454 0
M  V30 13565 H 1253.98 0.702652 1.92156 0
M  V30 13566 H 1253.99 -0.506392 4.04845 0
M  V30 13567 H 1252.67 0.644382 4.10878 0
M  V30 13568 H 1251.24 -1.10355 3.56197 0
M  V30 13569 N 1253.43 -1.55816 0.23648 0
M  V30 13570 C 1254.68 -1.98294 -0.390373 0
M  V30 13571 C 1255 -1.12573 -1.59224 0
M  V30 13572 O 1254.27 -0.206128 -1.94813 0
M  V30 13573 H 1252.85 -0.732349 -0.14722 0
M  V30 13574 H 1255.51 -1.92037 0.332848 0
M  V30 13575 H 1254.61 -3.03996 -0.706595 0
M  V30 13576 N 1254.91 0.036755 -1.57557 0
M  V30 13577 C 1256.15 0.729106 -1.88919 0
M  V30 13578 C 1256.48 1.75769 -0.832801 0
M  V30 13579 O 1255.74 1.94985 0.167173 0
M  V30 13580 C 1256.04 1.44206 -3.27016 0
M  V30 13581 C 1255.7 0.550184 -4.47531 0
M  V30 13582 C 1254.36 0.304511 -4.80236 0
M  V30 13583 C 1256.72 -0.0660664 -5.21158 0
M  V30 13584 C 1254.04 -0.566316 -5.8396 0
M  V30 13585 C 1256.4 -0.92455 -6.25807 0
M  V30 13586 C 1255.06 -1.17976 -6.56992 0
M  V30 13587 H 1254.33 0.266799 -0.691303 0
M  V30 13588 H 1256.98 -0.0108698 -1.91497 0
M  V30 13589 H 1255.28 2.25516 -3.2039 0
M  V30 13590 H 1256.98 1.98317 -3.48527 0
M  V30 13591 H 1253.57 0.751814 -4.21955 0
M  V30 13592 H 1257.75 0.110784 -4.96176 0
M  V30 13593 H 1253.01 -0.772428 -6.06501 0
M  V30 13594 H 1257.18 -1.40861 -6.82005 0
M  V30 13595 H 1254.81 -1.85627 -7.37188 0
M  V30 13596 N 1256.39 1.54543 0.308881 0
M  V30 13597 C 1257.63 1.7266 1.04266 0
M  V30 13598 C 1257.95 0.51518 1.88694 0
M  V30 13599 O 1259.15 0.577988 2.65276 0
M  V30 13600 C 1257.61 3.05448 1.9034 0
M  V30 13601 C 1257.22 4.34043 1.10953 0
M  V30 13602 C 1258.96 3.32925 2.63365 0
M  V30 13603 C 1256.87 5.57886 1.96258 0
M  V30 13604 H 1255.8 0.643485 0.392992 0
M  V30 13605 H 1258.45 1.8103 0.300077 0
M  V30 13606 H 1256.83 2.91023 2.68555 0
M  V30 13607 H 1258.01 4.59279 0.374069 0
M  V30 13608 H 1256.32 4.13442 0.495453 0
M  V30 13609 H 1258.92 4.22649 3.27524 0
M  V30 13610 H 1259.26 2.51451 3.3178 0
M  V30 13611 H 1259.79 3.48285 1.92204 0
M  V30 13612 H 1256.53 6.42005 1.32326 0
M  V30 13613 H 1256.05 5.36847 2.67498 0
M  V30 13614 H 1257.73 5.94846 2.54494 0
M  V30 13615 N 1257.86 -0.571685 1.46866 0
M  V30 13616 C 1258.77 -1.70758 1.60869 0
M  V30 13617 C 1259.79 -1.66903 0.49186 0
M  V30 13618 O 1260.97 -1.86613 0.757468 0
M  V30 13619 C 1258.03 -3.07267 1.60586 0
M  V30 13620 C 1257.09 -3.22301 2.83585 0
M  V30 13621 C 1256.32 -4.52298 2.83306 0
M  V30 13622 O 1256.55 -5.36869 1.92685 0
M  V30 13623 O 1255.48 -4.70814 3.7499 0
M  V30 13624 H 1259.31 -1.6189 2.56954 0
M  V30 13625 H 1256.89 -0.740018 1.29785 0
M  V30 13626 H 1258.77 -3.8853 1.63163 0
M  V30 13627 H 1257.45 -3.16549 0.676637 0
M  V30 13628 H 1256.36 -2.4049 2.86558 0
M  V30 13629 H 1257.69 -3.17916 3.75753 0
M  V30 13630 N 1259.34 -1.34755 -0.817236 0
M  V30 13631 C 1260.3 -1.26687 -1.91006 0
M  V30 13632 C 1261.3 -0.180745 -1.59781 0
M  V30 13633 O 1262.49 -0.433748 -1.68714 0
M  V30 13634 C 1259.63 -0.957293 -3.27183 0
M  V30 13635 H 1260.82 -2.23846 -1.99582 0
M  V30 13636 H 1258.37 -1.19125 -1.01187 0
M  V30 13637 H 1259.11 0.0108917 -3.24298 0
M  V30 13638 H 1258.89 -1.74297 -3.5123 0
M  V30 13639 H 1260.38 -0.926161 -4.072 0
M  V30 13640 N 1260.82 1.03812 -1.18578 0
M  V30 13641 C 1261.73 2.15371 -0.930182 0
M  V30 13642 C 1262.75 1.73673 0.106599 0
M  V30 13643 O 1263.92 2.01257 -0.0759054 0
M  V30 13644 C 1260.99 3.43606 -0.462151 0
M  V30 13645 C 1260.05 3.99671 -1.5672 0
M  V30 13646 C 1259.28 5.21785 -1.12141 0
M  V30 13647 O 1259.5 5.70397 0.0188357 0
M  V30 13648 O 1258.44 5.70449 -1.9202 0
M  V30 13649 H 1262.26 2.39791 -1.86371 0
M  V30 13650 H 1259.85 1.13814 -0.967819 0
M  V30 13651 H 1261.73 4.2088 -0.20934 0
M  V30 13652 H 1260.41 3.20654 0.443052 0
M  V30 13653 H 1259.31 3.23774 -1.87406 0
M  V30 13654 H 1260.65 4.2697 -2.44862 0
M  V30 13655 N 1262.3 0.988223 1.22768 0
M  V30 13656 C 1263.54 0.662441 1.91676 0
M  V30 13657 C 1263.88 -0.802931 1.76824 0
M  V30 13658 O 1263.15 -1.58011 1.13415 0
M  V30 13659 C 1263.43 1.06332 3.44043 0
M  V30 13660 C 1263.29 2.5869 3.67967 0
M  V30 13661 C 1264.61 0.613058 4.35809 0
M  V30 13662 H 1261.73 0.242132 0.69609 0
M  V30 13663 H 1264.37 1.23091 1.44736 0
M  V30 13664 H 1262.52 0.579623 3.84152 0
M  V30 13665 H 1264.19 3.14694 3.37291 0
M  V30 13666 H 1262.43 3.00971 3.12408 0
M  V30 13667 H 1263.1 2.8179 4.74656 0
M  V30 13668 H 1265.58 1.02846 4.0319 0
M  V30 13669 H 1264.46 0.921901 5.41103 0
M  V30 13670 H 1264.72 -0.48641 4.39416 0
M  V30 13671 N 1263.78 -1.38018 0.760839 0
M  V30 13672 C 1265.02 -1.99194 0.316984 0
M  V30 13673 C 1265.34 -1.61083 -1.10958 0
M  V30 13674 O 1266.54 -2.15281 -1.65428 0
M  V30 13675 C 1265 -3.56185 0.515792 0
M  V30 13676 C 1264.61 -4.03242 1.95191 0
M  V30 13677 C 1266.35 -4.24285 0.135013 0
M  V30 13678 C 1264.26 -5.52902 2.0989 0
M  V30 13679 H 1263.19 -0.745214 0.114771 0
M  V30 13680 H 1265.84 -1.5769 0.938415 0
M  V30 13681 H 1264.22 -3.95613 -0.174934 0
M  V30 13682 H 1265.4 -3.75086 2.6767 0
M  V30 13683 H 1263.71 -3.47889 2.28827 0
M  V30 13684 H 1266.31 -5.34233 0.223495 0
M  V30 13685 H 1266.65 -4.06158 -0.913322 0
M  V30 13686 H 1267.18 -3.90121 0.777868 0
M  V30 13687 H 1263.92 -5.75942 3.13003 0
M  V30 13688 H 1263.44 -5.82778 1.41881 0
M  V30 13689 H 1265.12 -6.18709 1.89229 0
M  V30 13690 N 1265.25 -0.510493 -1.49103 0
M  V30 13691 C 1266.66 -0.0650831 -1.86587 0
M  V30 13692 C 1267.02 1.35185 -1.42195 0
M  V30 13693 O 1266.14 2.0091 -0.804004 0
M  V30 13694 C 1266.74 -0.111333 -3.38617 0
M  V30 13695 C 1265.29 0.278782 -3.75366 0
M  V30 13696 C 1264.44 -0.479707 -2.73119 0
M  V30 13697 H 1267.39 -0.722784 -1.41285 0
M  V30 13698 H 1267.41 0.681706 -3.74343 0
M  V30 13699 H 1266.93 -1.14271 -3.70896 0
M  V30 13700 H 1265.03 1.31304 -3.48698 0
M  V30 13701 H 1265.14 -0.047271 -4.79077 0
M  V30 13702 H 1263.5 0.0716459 -2.54599 0
M  V30 13703 H 1264.29 -1.51135 -3.08242 0
M  V30 13704 N 1266.73 1.55688 -0.24474 0
M  V30 13705 C 1267.66 2.18616 0.68844 0
M  V30 13706 C 1268.68 1.16185 1.14039 0
M  V30 13707 O 1269.87 1.43059 1.06754 0
M  V30 13708 C 1266.97 2.77375 1.94721 0
M  V30 13709 C 1266.14 4.05204 1.64706 0
M  V30 13710 C 1265.2 4.48302 2.75521 0
M  V30 13711 O 1264.22 5.14723 2.42999 0
M  V30 13712 N 1265.43 4.15907 4.04971 0
M  V30 13713 H 1268.19 2.99324 0.150018 0
M  V30 13714 H 1265.75 1.61771 -0.0646183 0
M  V30 13715 H 1267.74 3.03165 2.68091 0
M  V30 13716 H 1266.31 2.00837 2.39548 0
M  V30 13717 H 1265.53 3.87026 0.74865 0
M  V30 13718 H 1266.82 4.8855 1.42114 0
M  V30 13719 H 1266.22 3.62579 4.34227 0
M  V30 13720 H 1264.78 4.46538 4.74813 0
M  V30 13721 N 1268.21 -0.0283989 1.57574 0
M  V30 13722 C 1269.12 -1.04575 2.10003 0
M  V30 13723 C 1270.14 -1.39588 1.03881 0
M  V30 13724 O 1271.31 -1.48894 1.35619 0
M  V30 13725 C 1268.38 -2.32755 2.56955 0
M  V30 13726 C 1267.44 -2.04317 3.77562 0
M  V30 13727 C 1266.67 -3.26385 4.22266 0
M  V30 13728 O 1266.89 -4.37082 3.66491 0
M  V30 13729 O 1265.83 -3.12046 5.14695 0
M  V30 13730 H 1269.65 -0.630183 2.9709 0
M  V30 13731 H 1267.24 -0.245423 1.4737 0
M  V30 13732 H 1269.12 -3.08111 2.87482 0
M  V30 13733 H 1267.8 -2.73605 1.72979 0
M  V30 13734 H 1266.7 -1.26527 3.52054 0
M  V30 13735 H 1268.04 -1.68321 4.62524 0
M  V30 13736 N 1269.69 -1.54705 -0.300681 0
M  V30 13737 C 1270.92 -1.77993 -1.0548 0
M  V30 13738 C 1271.33 -0.539574 -1.80926 0
M  V30 13739 O 1270.69 0.490597 -1.75782 0
M  V30 13740 C 1270.74 -2.98774 -2.0351 0
M  V30 13741 O 1270.46 -4.18016 -1.31126 0
M  V30 13742 C 1271.96 -3.34452 -2.90958 0
M  V30 13743 H 1269.18 -0.593628 -0.312805 0
M  V30 13744 H 1271.72 -2.01656 -0.339858 0
M  V30 13745 H 1269.88 -2.77318 -2.70506 0
M  V30 13746 H 1270.29 -4.86113 -1.96963 0
M  V30 13747 H 1271.77 -4.22206 -3.55593 0
M  V30 13748 H 1272.24 -2.52622 -3.59275 0
M  V30 13749 H 1272.85 -3.58069 -2.29493 0
M  V30 13750 N 1271.17 0.563888 -1.47167 0
M  V30 13751 C 1272.41 1.31875 -1.53145 0
M  V30 13752 C 1272.74 1.94047 -0.192518 0
M  V30 13753 O 1272.01 1.79577 0.782872 0
M  V30 13754 H 1270.59 0.489694 -0.5641 0
M  V30 13755 H 1273.25 0.658976 -1.83422 0
M  V30 13756 H 1272.34 2.11574 -2.2944 0
M  V30 13757 N 1272.64 1.35187 0.810078 0
M  V30 13758 C 1274.06 1.15149 1.10512 0
M  V30 13759 C 1274.26 -0.038394 2.01463 0
M  V30 13760 O 1273.32 -0.710056 2.42311 0
M  V30 13761 C 1274.63 2.45282 1.73946 0
M  V30 13762 C 1276.18 2.51457 1.86382 0
M  V30 13763 C 1276.65 3.81625 2.53232 0
M  V30 13764 N 1278.14 3.82856 2.6072 0
M  V30 13765 C 1278.88 4.80302 3.13206 0
M  V30 13766 N 1278.37 5.88134 3.66156 0
M  V30 13767 N 1280.17 4.67743 3.11726 0
M  V30 13768 H 1272.32 2.11405 0.205391 0
M  V30 13769 H 1274.58 0.935457 0.153702 0
M  V30 13770 H 1274.29 3.32512 1.14582 0
M  V30 13771 H 1274.16 2.59573 2.73682 0
M  V30 13772 H 1276.55 1.64659 2.44891 0
M  V30 13773 H 1276.63 2.41084 0.855113 0
M  V30 13774 H 1276.27 4.68819 1.95375 0
M  V30 13775 H 1276.2 3.89285 3.54633 0
M  V30 13776 H 1278.69 3.04941 2.23203 0
M  V30 13777 H 1279.01 6.58487 4.04494 0
M  V30 13778 H 1277.35 5.91831 3.64364 0
M  V30 13779 H 1280.54 3.82642 2.69635 0
M  V30 13780 H 1280.72 5.43849 3.52324 0
M  V30 13781 N 1274.12 -1.03182 1.19127 0
M  V30 13782 C 1275.05 -2.11462 0.884098 0
M  V30 13783 C 1276.07 -1.62342 -0.121984 0
M  V30 13784 O 1277.26 -1.78179 0.107038 0
M  V30 13785 C 1274.36 -3.37559 0.301227 0
M  V30 13786 C 1273.53 -4.15878 1.35514 0
M  V30 13787 C 1272.59 -5.20291 0.786349 0
M  V30 13788 O 1271.61 -5.50069 1.46331 0
M  V30 13789 N 1272.82 -5.79038 -0.411803 0
M  V30 13790 H 1275.58 -2.38405 1.81613 0
M  V30 13791 H 1273.14 -1.19449 1.09287 0
M  V30 13792 H 1275.13 -4.04593 -0.0930685 0
M  V30 13793 H 1273.7 -3.07987 -0.535022 0
M  V30 13794 H 1272.92 -3.44036 1.9244 0
M  V30 13795 H 1274.21 -4.64993 2.06539 0
M  V30 13796 H 1273.61 -5.57158 -0.979353 0
M  V30 13797 H 1272.17 -6.47495 -0.747912 0
M  V30 13798 N 1275.6 -0.99472 -1.22242 0
M  V30 13799 C 1276.83 -0.690097 -1.95052 0
M  V30 13800 C 1277.24 0.745543 -1.73456 0
M  V30 13801 O 1276.6 1.50329 -1.03477 0
M  V30 13802 C 1276.65 -0.988798 -3.47714 0
M  V30 13803 O 1276.37 -2.36803 -3.68587 0
M  V30 13804 C 1277.87 -0.702132 -4.37704 0
M  V30 13805 H 1275.09 -0.255142 -0.620599 0
M  V30 13806 H 1277.64 -1.32998 -1.55344 0
M  V30 13807 H 1275.79 -0.394684 -3.85384 0
M  V30 13808 H 1276.21 -2.4687 -4.62769 0
M  V30 13809 H 1277.68 -0.961389 -5.43564 0
M  V30 13810 H 1278.16 0.363866 -4.3769 0
M  V30 13811 H 1278.76 -1.27738 -4.05664 0
M  V30 13812 N 1277.08 1.37613 -0.768148 0
M  V30 13813 C 1278.04 2.28653 -0.158283 0
M  V30 13814 C 1279.04 1.47862 0.631936 0
M  V30 13815 O 1280.23 1.68124 0.456055 0
M  V30 13816 C 1277.36 3.31776 0.783435 0
M  V30 13817 H 1278.56 2.84094 -0.960772 0
M  V30 13818 H 1276.11 1.46818 -0.536116 0
M  V30 13819 H 1276.84 2.81452 1.61106 0
M  V30 13820 H 1276.63 3.91488 0.219016 0
M  V30 13821 H 1278.12 3.99816 1.20568 0
M  V30 13822 N 1278.56 0.518393 1.4883 0
M  V30 13823 C 1279.49 -0.239685 2.32267 0
M  V30 13824 C 1280.47 -0.94613 1.41359 0
M  V30 13825 O 1281.65 -0.934162 1.70256 0
M  V30 13826 C 1278.78 -1.29411 3.22289 0
M  V30 13827 C 1277.74 -0.706504 4.22129 0
M  V30 13828 C 1277.06 -1.86273 5.01205 0
M  V30 13829 C 1278.36 0.314079 5.21355 0
M  V30 13830 H 1280.06 0.4568 2.95895 0
M  V30 13831 H 1277.6 0.221126 1.42292 0
M  V30 13832 H 1279.56 -1.8323 3.7948 0
M  V30 13833 H 1278.28 -2.02001 2.56638 0
M  V30 13834 H 1276.94 -0.189924 3.66108 0
M  V30 13835 H 1276.59 -2.57674 4.31988 0
M  V30 13836 H 1276.29 -1.47554 5.68772 0
M  V30 13837 H 1277.81 -2.40492 5.61245 0
M  V30 13838 H 1279.22 -0.136604 5.73137 0
M  V30 13839 H 1277.62 0.618026 5.96909 0
M  V30 13840 H 1278.69 1.22394 4.69199 0
M  V30 13841 N 1280.03 -1.55556 0.252993 0
M  V30 13842 C 1281.28 -1.9909 -0.37005 0
M  V30 13843 C 1281.61 -1.1412 -1.57502 0
M  V30 13844 O 1280.86 -0.193471 -1.94741 0
M  V30 13845 C 1281.16 -3.47925 -0.817484 0
M  V30 13846 C 1280.83 -4.50027 0.280398 0
M  V30 13847 C 1279.49 -4.77669 0.581914 0
M  V30 13848 C 1281.84 -5.11096 1.02129 0
M  V30 13849 C 1279.17 -5.63652 1.62829 0
M  V30 13850 C 1281.52 -5.98215 2.05723 0
M  V30 13851 C 1280.19 -6.24186 2.36533 0
M  V30 13852 H 1279.46 -0.728522 -0.135411 0
M  V30 13853 H 1282.1 -1.88046 0.36209 0
M  V30 13854 H 1280.41 -3.56333 -1.62893 0
M  V30 13855 H 1282.11 -3.79001 -1.30993 0
M  V30 13856 H 1278.7 -4.28585 0.0352579 0
M  V30 13857 H 1282.88 -4.89784 0.801603 0
M  V30 13858 H 1278.14 -5.82028 1.87227 0
M  V30 13859 H 1282.31 -6.44575 2.6362 0
M  V30 13860 H 1279.94 -6.90607 3.17752 0
M  V30 13861 N 1281.51 0.0200419 -1.57587 0
M  V30 13862 C 1282.44 1.01715 -2.10181 0
M  V30 13863 C 1283.42 1.37136 -1.00636 0
M  V30 13864 O 1284.61 1.45862 -1.2821 0
M  V30 13865 C 1281.74 2.31531 -2.58865 0
M  V30 13866 C 1280.69 2.10327 -3.72755 0
M  V30 13867 C 1280.02 3.45981 -4.07678 0
M  V30 13868 C 1281.32 1.4821 -5.0083 0
M  V30 13869 H 1283.01 0.579307 -2.93742 0
M  V30 13870 H 1280.56 0.277211 -1.41307 0
M  V30 13871 H 1282.51 3.01623 -2.94281 0
M  V30 13872 H 1281.24 2.77392 -1.72399 0
M  V30 13873 H 1279.89 1.42665 -3.37701 0
M  V30 13874 H 1279.54 3.89508 -3.18265 0
M  V30 13875 H 1279.24 3.32616 -4.84397 0
M  V30 13876 H 1280.77 4.17421 -4.45637 0
M  V30 13877 H 1282.18 2.08232 -5.34146 0
M  V30 13878 H 1280.58 1.45393 -5.82221 0
M  V30 13879 H 1281.65 0.448942 -4.82817 0
M  V30 13880 N 1282.99 1.54862 0.292472 0
M  V30 13881 C 1283.92 1.89406 1.36556 0
M  V30 13882 C 1284.9 0.753838 1.52484 0
M  V30 13883 O 1286.09 1.01031 1.6585 0
M  V30 13884 C 1283.22 2.14888 2.72838 0
M  V30 13885 C 1282.17 3.3073 2.71665 0
M  V30 13886 C 1281.5 3.41648 4.11316 0
M  V30 13887 C 1282.8 4.67622 2.32651 0
M  V30 13888 H 1284.49 2.79284 1.07894 0
M  V30 13889 H 1282.04 1.34377 0.517585 0
M  V30 13890 H 1283.99 2.3764 3.48002 0
M  V30 13891 H 1282.71 1.2179 3.03042 0
M  V30 13892 H 1281.37 3.07915 1.98958 0
M  V30 13893 H 1281.02 2.46051 4.38711 0
M  V30 13894 H 1280.72 4.19522 4.11431 0
M  V30 13895 H 1282.24 3.6667 4.88248 0
M  V30 13896 H 1283.66 4.90048 2.97533 0
M  V30 13897 H 1282.06 5.48272 2.43963 0
M  V30 13898 H 1283.13 4.67762 1.27777 0
M  V30 13899 N 1284.47 -0.556076 1.47464 0
M  V30 13900 C 1285.42 -1.66304 1.60036 0
M  V30 13901 C 1286.39 -1.60074 0.443348 0
M  V30 13902 O 1287.57 -1.7889 0.663545 0
M  V30 13903 C 1284.71 -3.04624 1.62167 0
M  V30 13904 C 1283.82 -3.21283 2.88793 0
M  V30 13905 C 1282.96 -4.50008 2.82252 0
M  V30 13906 C 1282 -4.60103 4.03698 0
M  V30 13907 N 1281.13 -5.80184 3.95387 0
M  V30 13908 H 1285.97 -1.54897 2.5458 0
M  V30 13909 H 1283.51 -0.754533 1.26274 0
M  V30 13910 H 1285.47 -3.84721 1.61386 0
M  V30 13911 H 1284.1 -3.14865 0.711348 0
M  V30 13912 H 1283.15 -2.34611 2.99436 0
M  V30 13913 H 1284.46 -3.24607 3.78724 0
M  V30 13914 H 1283.62 -5.38366 2.79726 0
M  V30 13915 H 1282.36 -4.49165 1.90005 0
M  V30 13916 H 1281.36 -3.70157 4.06527 0
M  V30 13917 H 1282.59 -4.62704 4.97073 0
M  V30 13918 H 1280.53 -5.80288 3.05944 0
M  V30 13919 H 1280.45 -5.8489 4.78998 0
M  V30 13920 H 1281.72 -6.709 3.96879 0
M  V30 13921 N 1285.95 -1.35615 -0.802897 0
M  V30 13922 C 1286.88 -1.31506 -1.92947 0
M  V30 13923 C 1287.86 -0.188843 -1.69048 0
M  V30 13924 O 1289.04 -0.384384 -1.90358 0
M  V30 13925 C 1286.17 -1.09001 -3.29752 0
M  V30 13926 C 1285.13 -2.18303 -3.68141 0
M  V30 13927 C 1284.45 -1.80959 -5.03148 0
M  V30 13928 C 1285.75 -3.60296 -3.78132 0
M  V30 13929 H 1287.45 -2.25771 -1.96642 0
M  V30 13930 H 1284.99 -1.08682 -0.944685 0
M  V30 13931 H 1286.95 -1.04766 -4.08169 0
M  V30 13932 H 1285.67 -0.111832 -3.26408 0
M  V30 13933 H 1284.33 -2.21642 -2.92011 0
M  V30 13934 H 1283.98 -0.817495 -4.96312 0
M  V30 13935 H 1283.68 -2.54129 -5.29804 0
M  V30 13936 H 1285.2 -1.78255 -5.84001 0
M  V30 13937 H 1286.62 -3.59259 -4.46773 0
M  V30 13938 H 1285.01 -4.32258 -4.16261 0
M  V30 13939 H 1286.08 -3.9618 -2.79588 0
M  V30 13940 N 1287.43 1.02549 -1.19673 0
M  V30 13941 C 1288.39 2.09064 -0.939407 0
M  V30 13942 C 1289.39 1.60593 0.0814837 0
M  V30 13943 O 1290.58 1.73521 -0.153626 0
M  V30 13944 C 1287.71 3.38395 -0.412513 0
M  V30 13945 H 1288.9 2.33325 -1.88413 0
M  V30 13946 H 1286.46 1.19211 -1.01086 0
M  V30 13947 H 1287.19 3.19805 0.538094 0
M  V30 13948 H 1286.98 3.74898 -1.14863 0
M  V30 13949 H 1288.47 4.16841 -0.251678 0
M  V30 13950 N 1288.9 1.00119 1.21713 0
M  V30 13951 C 1290.15 0.680377 1.90303 0
M  V30 13952 C 1290.47 -0.790927 1.7824 0
M  V30 13953 O 1289.74 -1.5676 1.17486 0
M  V30 13954 H 1288.32 0.248665 0.704397 0
M  V30 13955 H 1290.98 1.26948 1.47886 0
M  V30 13956 H 1290.08 0.950188 2.97284 0
M  V30 13957 N 1290.38 -1.37203 0.775435 0
M  V30 13958 C 1291.8 -1.52962 0.455488 0
M  V30 13959 C 1292 -1.73284 -1.02834 0
M  V30 13960 O 1291.05 -1.75631 -1.81411 0
M  V30 13961 C 1292.37 -2.72389 1.27377 0
M  V30 13962 C 1293.91 -2.86252 1.26604 0
M  V30 13963 C 1294.39 -4.08666 2.06775 0
M  V30 13964 N 1295.88 -4.15786 2.04148 0
M  V30 13965 C 1296.62 -5.09548 2.6296 0
M  V30 13966 N 1296.11 -6.08845 3.30574 0
M  V30 13967 N 1297.9 -5.02059 2.5277 0
M  V30 13968 H 1290.06 -1.22265 1.73681 0
M  V30 13969 H 1292.32 -0.595638 0.737509 0
M  V30 13970 H 1292.02 -2.63849 2.32544 0
M  V30 13971 H 1291.9 -3.66171 0.905467 0
M  V30 13972 H 1294.29 -2.94261 0.222345 0
M  V30 13973 H 1294.37 -1.93418 1.67401 0
M  V30 13974 H 1294.01 -4.01419 3.11168 0
M  V30 13975 H 1293.94 -5.00621 1.63358 0
M  V30 13976 H 1296.43 -3.44683 1.54926 0
M  V30 13977 H 1296.74 -6.76926 3.72815 0
M  V30 13978 H 1295.09 -6.09113 3.34674 0
M  V30 13979 H 1298.28 -4.23431 1.99559 0
M  V30 13980 H 1298.45 -5.74947 2.98898 0
M  V30 13981 N 1291.86 -0.526279 -1.48553 0
M  V30 13982 C 1293.11 0.00107127 -2.034 0
M  V30 13983 C 1293.46 1.32343 -1.39654 0
M  V30 13984 O 1292.75 1.84071 -0.531835 0
M  V30 13985 C 1292.95 0.184075 -3.56926 0
M  V30 13986 C 1292.78 -1.11899 -4.35556 0
M  V30 13987 C 1291.55 -1.67784 -4.76631 0
M  V30 13988 C 1293.74 -2.02868 -4.72598 0
M  V30 13989 N 1291.73 -2.92418 -5.39783 0
M  V30 13990 C 1293.1 -3.12078 -5.35731 0
M  V30 13991 C 1295.15 -2.03239 -4.54531 0
M  V30 13992 C 1293.86 -4.21719 -5.82705 0
M  V30 13993 C 1295.88 -3.11872 -5.02484 0
M  V30 13994 C 1295.24 -4.19801 -5.65638 0
M  V30 13995 H 1291.34 -0.0410153 -0.780924 0
M  V30 13996 H 1293.93 -0.706739 -1.8142 0
M  V30 13997 H 1292.1 0.860966 -3.78737 0
M  V30 13998 H 1293.83 0.710699 -3.98411 0
M  V30 13999 H 1290.58 -1.2197 -4.57625 0
M  V30 14000 H 1291.01 -3.55862 -5.75927 0
M  V30 14001 H 1295.65 -1.21092 -4.05088 0
M  V30 14002 H 1293.37 -5.04647 -6.31155 0
M  V30 14003 H 1296.95 -3.1321 -4.90297 0
M  V30 14004 H 1295.83 -5.02475 -6.0207 0
M  V30 14005 N 1293.34 1.5542 -0.261239 0
M  V30 14006 C 1294.75 1.85161 0.239195 0
M  V30 14007 C 1295.1 1.18319 1.56509 0
M  V30 14008 O 1294.22 0.4666 2.1131 0
M  V30 14009 C 1294.82 3.3592 0.440781 0
M  V30 14010 C 1293.38 3.65837 0.885461 0
M  V30 14011 C 1292.53 2.77285 -0.0291982 0
M  V30 14012 H 1295.48 1.51158 -0.483417 0
M  V30 14013 H 1295.5 3.58276 1.28136 0
M  V30 14014 H 1295.01 3.84541 -0.524382 0
M  V30 14015 H 1293.11 3.22705 1.86259 0
M  V30 14016 H 1293.22 4.73469 0.732394 0
M  V30 14017 H 1291.59 2.50045 0.484701 0
M  V30 14018 H 1292.37 3.28716 -0.989992 0
M  V30 14019 N 1294.82 -0.0116844 1.57596 0
M  V30 14020 C 1296.06 -0.698089 1.89234 0
M  V30 14021 C 1296.38 -1.75581 0.862016 0
M  V30 14022 O 1297.58 -2.49602 1.06822 0
M  V30 14023 C 1296.04 -1.29277 3.3588 0
M  V30 14024 C 1295.65 -0.27049 4.47183 0
M  V30 14025 C 1297.39 -1.95805 3.76644 0
M  V30 14026 C 1295.3 -0.874502 5.84899 0
M  V30 14027 H 1294.23 -0.264495 0.706087 0
M  V30 14028 H 1296.88 0.0469451 1.8344 0
M  V30 14029 H 1295.26 -2.08809 3.36474 0
M  V30 14030 H 1296.44 0.499381 4.58086 0
M  V30 14031 H 1294.75 0.293676 4.15363 0
M  V30 14032 H 1297.35 -2.41879 4.76863 0
M  V30 14033 H 1297.69 -2.78366 3.09545 0
M  V30 14034 H 1298.22 -1.23023 3.78299 0
M  V30 14035 H 1294.96 -0.0879263 6.55441 0
M  V30 14036 H 1294.48 -1.61381 5.77682 0
M  V30 14037 H 1296.16 -1.37665 6.32185 0
M  V30 14038 N 1296.29 -1.55015 -0.284256 0
M  V30 14039 C 1297.52 -1.79102 -1.03586 0
M  V30 14040 C 1297.94 -0.558733 -1.80343 0
M  V30 14041 O 1297.29 0.471925 -1.76293 0
M  V30 14042 C 1297.34 -3.00915 -2.0033 0
M  V30 14043 O 1297.07 -4.19384 -1.26685 0
M  V30 14044 C 1298.57 -3.3752 -2.87394 0
M  V30 14045 H 1295.79 -0.596912 -0.306491 0
M  V30 14046 H 1298.33 -2.02005 -0.31845 0
M  V30 14047 H 1296.49 -2.80171 -2.67549 0
M  V30 14048 H 1296.9 -4.88175 -1.91796 0
M  V30 14049 H 1298.37 -4.25953 -3.51095 0
M  V30 14050 H 1298.85 -2.56418 -3.56576 0
M  V30 14051 H 1299.46 -3.60483 -2.25682 0
M  V30 14052 N 1297.77 0.548248 -1.47757 0
M  V30 14053 C 1298.72 1.65028 -1.57321 0
M  V30 14054 C 1299.71 1.55006 -0.431489 0
M  V30 14055 O 1300.9 1.63337 -0.681919 0
M  V30 14056 C 1298.03 3.0379 -1.59896 0
M  V30 14057 C 1297.11 3.18982 -2.79484 0
M  V30 14058 N 1297.5 3.04208 -4.04093 0
M  V30 14059 C 1295.8 3.50001 -2.76433 0
M  V30 14060 C 1296.5 3.2233 -4.8423 0
M  V30 14061 N 1295.48 3.49073 -4.16712 0
M  V30 14062 H 1299.28 1.52187 -2.51428 0
M  V30 14063 H 1296.79 0.753242 -1.43875 0
M  V30 14064 H 1298.79 3.82928 -1.64839 0
M  V30 14065 H 1297.45 3.17735 -0.668912 0
M  V30 14066 H 1298.46 2.81348 -4.34814 0
M  V30 14067 H 1295.14 3.70418 -1.92606 0
M  V30 14068 H 1296.53 3.15799 -5.9306 0
M  V30 14069 N 1299.25 1.36039 0.795694 0
M  V30 14070 C 1300.18 1.32528 1.92246 0
M  V30 14071 C 1301.16 0.197805 1.68946 0
M  V30 14072 O 1302.35 0.394474 1.90151 0
M  V30 14073 C 1299.48 1.10748 3.29169 0
M  V30 14074 C 1298.43 2.20253 3.66978 0
M  V30 14075 C 1297.76 1.83624 5.02181 0
M  V30 14076 C 1299.06 3.62296 3.76216 0
M  V30 14077 H 1300.75 2.2681 1.95442 0
M  V30 14078 H 1298.3 1.09181 0.938908 0
M  V30 14079 H 1300.25 1.06929 4.07608 0
M  V30 14080 H 1298.97 0.129141 3.26345 0
M  V30 14081 H 1297.63 2.23187 2.90832 0
M  V30 14082 H 1297.28 0.843804 4.95872 0
M  V30 14083 H 1296.98 2.56935 5.28449 0
M  V30 14084 H 1298.5 1.81349 5.83048 0
M  V30 14085 H 1299.92 3.61623 4.44861 0
M  V30 14086 H 1298.31 4.34459 4.13963 0
M  V30 14087 H 1299.38 3.97657 2.77483 0
M  V30 14088 N 1300.73 -1.01913 1.20215 0
M  V30 14089 C 1301.68 -2.08774 0.916367 0
M  V30 14090 C 1302.66 -1.60431 -0.122796 0
M  V30 14091 O 1303.85 -1.76799 0.0842336 0
M  V30 14092 C 1300.98 -3.40102 0.467517 0
M  V30 14093 C 1300.07 -3.95153 1.53997 0
M  V30 14094 N 1300.46 -4.23745 2.76178 0
M  V30 14095 C 1298.76 -4.23274 1.40554 0
M  V30 14096 C 1299.46 -4.681 3.45336 0
M  V30 14097 N 1298.44 -4.70224 2.72745 0
M  V30 14098 H 1302.24 -2.28786 1.84484 0
M  V30 14099 H 1299.75 -1.19861 1.09577 0
M  V30 14100 H 1301.75 -4.16184 0.244195 0
M  V30 14101 H 1300.41 -3.21505 -0.454358 0
M  V30 14102 H 1301.42 -4.12728 3.12852 0
M  V30 14103 H 1298.1 -4.1389 0.547877 0
M  V30 14104 H 1299.49 -4.99063 4.49873 0
M  V30 14105 N 1302.21 -1.00763 -1.2118 0
M  V30 14106 C 1303.43 -0.710746 -1.94309 0
M  V30 14107 C 1303.85 0.727103 -1.74237 0
M  V30 14108 O 1303.21 1.49223 -1.05065 0
M  V30 14109 C 1303.26 -1.02562 -3.46646 0
M  V30 14110 O 1302.98 -2.40699 -3.66054 0
M  V30 14111 C 1304.48 -0.748517 -4.36935 0
M  V30 14112 H 1301.7 -0.26171 -0.617858 0
M  V30 14113 H 1304.24 -1.34639 -1.53924 0
M  V30 14114 H 1302.4 -0.435537 -3.84944 0
M  V30 14115 H 1302.81 -2.51764 -4.60125 0
M  V30 14116 H 1304.29 -1.01899 -5.42513 0
M  V30 14117 H 1304.76 0.317423 -4.38051 0
M  V30 14118 H 1305.37 -1.32033 -4.04286 0
M  V30 14119 N 1303.68 1.3679 -0.7827 0
M  V30 14120 C 1304.96 1.93639 -0.276278 0
M  V30 14121 C 1305.34 1.7153 1.23048 0
M  V30 14122 O 1304.69 1.07037 2.01879 0
M  V30 14123 C 1304.9 3.42672 -0.661586 0
M  V30 14124 C 1306.25 4.19786 -0.637538 0
M  V30 14125 O 1307.27 3.51082 -0.601645 0
M  V30 14126 O 1306.13 5.42323 -0.674408 0
M  V30 14127 H 1303.22 0.824307 -0.0666832 0
M  V30 14128 H 1305.77 1.46012 -0.864792 0
M  V30 14129 H 1304.54 3.52393 -1.70103 0
M  V30 14130 H 1304.17 3.97573 -0.0465987 0
M  V30 14131 N 1305.16 0.53415 1.48272 0
M  V30 14132 C 1306.11 -0.239672 2.31362 0
M  V30 14133 C 1307.1 -0.931501 1.4149 0
M  V30 14134 O 1308.31 -0.855411 1.58375 0
M  V30 14135 H 1304.69 -0.09616 0.745827 0
M  V30 14136 H 1306.66 0.480638 2.94504 0
M  V30 14137 C 1305.41 -1.27102 3.23636 0
M  V30 14138 H 1304.73 -0.748082 3.92739 0
M  V30 14139 H 1306.17 -1.78379 3.84652 0
M  V30 14140 C 1304.63 -2.30683 2.45534 0
M  V30 14141 O 1305.16 -3.37197 2.18314 0
M  V30 14142 N 1303.36 -2.04006 2.06954 0
M  V30 14143 H 1302.91 -1.17403 2.29291 0
M  V30 14144 H 1302.87 -2.73531 1.5501 0
M  V30 14145 N 1306.64 -1.55279 0.269478 0
M  V30 14146 C 1307.89 -1.99077 -0.348224 0
M  V30 14147 C 1308.21 -1.15925 -1.568 0
M  V30 14148 O 1307.48 -0.247404 -1.94331 0
M  V30 14149 H 1306.06 -0.735307 -0.131653 0
M  V30 14150 H 1308.72 -1.91288 0.373506 0
M  V30 14151 H 1307.82 -3.05427 -0.641953 0
M  V30 14152 N 1308.12 0.00332656 -1.576 0
M  V30 14153 C 1309.08 0.980628 -2.07163 0
M  V30 14154 C 1310.08 1.27455 -0.980402 0
M  V30 14155 O 1311.27 1.22029 -1.24317 0
M  V30 14156 C 1308.4 2.30647 -2.51028 0
M  V30 14157 H 1309.6 0.551982 -2.94776 0
M  V30 14158 H 1307.15 0.250728 -1.54276 0
M  V30 14159 H 1307.88 2.78207 -1.66647 0
M  V30 14160 H 1307.67 2.10635 -3.30719 0
M  V30 14161 H 1309.16 3.00761 -2.89711 0
M  V30 14162 N 1309.6 1.55164 0.276031 0
M  V30 14163 C 1310.54 1.88623 1.36104 0
M  V30 14164 C 1311.54 0.762265 1.51281 0
M  V30 14165 O 1312.74 0.946573 1.53101 0
M  V30 14166 H 1309.12 0.59863 0.455133 0
M  V30 14167 H 1311.09 2.79266 1.05134 0
M  V30 14168 C 1309.84 2.17207 2.71508 0
M  V30 14169 H 1309.16 3.03179 2.6062 0
M  V30 14170 H 1310.6 2.44541 3.46375 0
M  V30 14171 C 1309.06 0.978671 3.22372 0
M  V30 14172 O 1309.59 0.211766 4.01141 0
M  V30 14173 N 1307.8 0.777199 2.80014 0
M  V30 14174 H 1307.34 1.40252 2.16072 0
M  V30 14175 H 1307.3 -0.0196754 3.14394 0
M  V30 14176 N 1311.07 -0.540404 1.48045 0
M  V30 14177 C 1312.32 -1.29678 1.55531 0
M  V30 14178 C 1312.65 -1.93197 0.224725 0
M  V30 14179 O 1311.9 -1.79308 -0.784028 0
M  V30 14180 C 1312.2 -2.41517 2.63447 0
M  V30 14181 C 1311.87 -1.95719 4.06208 0
M  V30 14182 C 1310.53 -1.82946 4.45067 0
M  V30 14183 C 1312.88 -1.6098 4.95717 0
M  V30 14184 C 1310.21 -1.33753 5.7125 0
M  V30 14185 C 1312.56 -1.13253 6.2238 0
M  V30 14186 C 1311.23 -0.990886 6.60104 0
M  V30 14187 H 1310.5 -0.474525 0.569129 0
M  V30 14188 H 1313.14 -0.604209 1.81718 0
M  V30 14189 H 1311.45 -3.16401 2.3108 0
M  V30 14190 H 1313.15 -2.9967 2.66457 0
M  V30 14191 H 1309.74 -2.06609 3.75514 0
M  V30 14192 H 1313.92 -1.69713 4.66381 0
M  V30 14193 H 1309.18 -1.21465 5.99213 0
M  V30 14194 H 1313.35 -0.854401 6.91139 0
M  V30 14195 H 1310.98 -0.607497 7.57769 0
M  V30 14196 N 1312.55 -1.36459 -0.788468 0
M  V30 14197 C 1313.52 -1.3071 -1.88275 0
M  V30 14198 C 1314.52 -0.214596 -1.59362 0
M  V30 14199 O 1315.71 -0.469437 -1.67756 0
M  V30 14200 C 1312.84 -1.02648 -3.25079 0
M  V30 14201 H 1314.03 -2.28029 -1.94788 0
M  V30 14202 H 1311.58 -1.21245 -0.986375 0
M  V30 14203 H 1312.32 -0.0578992 -3.24248 0
M  V30 14204 H 1312.1 -1.81708 -3.47454 0
M  V30 14205 H 1313.59 -1.01233 -4.05144 0
M  V30 14206 N 1314.03 1.01274 -1.20754 0
M  V30 14207 C 1315.26 1.7906 -1.04653 0
M  V30 14208 C 1315.68 1.83806 0.399632 0
M  V30 14209 O 1315.04 1.27596 1.28798 0
M  V30 14210 C 1315.09 3.21187 -1.63925 0
M  V30 14211 O 1314.19 4.02913 -0.879486 0
M  V30 14212 H 1313.53 0.552147 -0.368823 0
M  V30 14213 H 1316.06 1.27356 -1.6013 0
M  V30 14214 H 1316.07 3.71887 -1.67822 0
M  V30 14215 H 1314.75 3.17048 -2.69172 0
M  V30 14216 H 1313.32 3.61499 -0.915019 0
M  V30 14217 N 1315.51 1.01404 1.20644 0
M  V30 14218 C 1316.44 0.540288 2.22741 0
M  V30 14219 C 1317.45 -0.375953 1.584 0
M  V30 14220 O 1318.64 -0.174708 1.77643 0
M  V30 14221 C 1315.74 -0.233766 3.38093 0
M  V30 14222 C 1314.92 0.683759 4.32023 0
M  V30 14223 C 1313.98 -0.0422681 5.26183 0
M  V30 14224 O 1313 0.579392 5.66243 0
M  V30 14225 N 1314.2 -1.31794 5.65341 0
M  V30 14226 H 1316.97 1.41831 2.64015 0
M  V30 14227 H 1314.53 0.891265 1.35159 0
M  V30 14228 H 1316.52 -0.728645 3.98087 0
M  V30 14229 H 1315.09 -1.01306 2.9573 0
M  V30 14230 H 1314.31 1.35899 3.70034 0
M  V30 14231 H 1315.6 1.30786 4.91704 0
M  V30 14232 H 1315 -1.84399 5.34802 0
M  V30 14233 H 1313.55 -1.7576 6.27656 0
M  V30 14234 N 1316.99 -1.36373 0.789944 0
M  V30 14235 C 1317.9 -2.3383 0.189873 0
M  V30 14236 C 1318.91 -1.61068 -0.65827 0
M  V30 14237 O 1320.09 -1.93049 -0.573932 0
M  V30 14238 C 1317.15 -3.40264 -0.664905 0
M  V30 14239 C 1316.22 -4.28825 0.201798 0
M  V30 14240 C 1315.45 -5.30176 -0.612278 0
M  V30 14241 O 1315.67 -5.39627 -1.84821 0
M  V30 14242 O 1314.61 -6.01899 -0.0118964 0
M  V30 14243 H 1318.43 -2.86915 0.995671 0
M  V30 14244 H 1316.02 -1.38852 0.551412 0
M  V30 14245 H 1317.9 -4.05339 -1.15231 0
M  V30 14246 H 1316.57 -2.89478 -1.44858 0
M  V30 14247 H 1315.48 -3.66789 0.735974 0
M  V30 14248 H 1316.81 -4.82965 0.949003 0
M  V30 14249 N 1318.47 -0.542005 -1.47987 0
M  V30 14250 C 1319.71 -0.0123299 -2.02796 0
M  V30 14251 C 1320.04 1.32789 -1.41707 0
M  V30 14252 O 1319.32 1.86048 -0.567119 0
M  V30 14253 C 1319.6 0.0969277 -3.5997 0
M  V30 14254 C 1319.46 -1.26931 -4.31519 0
M  V30 14255 C 1320.77 0.817854 -4.32434 0
M  V30 14256 H 1317.89 -0.00595479 -0.736976 0
M  V30 14257 H 1320.54 -0.70136 -1.76581 0
M  V30 14258 H 1318.69 0.683755 -3.82436 0
M  V30 14259 H 1320.36 -1.89817 -4.20437 0
M  V30 14260 H 1318.6 -1.84804 -3.92467 0
M  V30 14261 H 1319.27 -1.14573 -5.39979 0
M  V30 14262 H 1321.75 0.319749 -4.1487 0
M  V30 14263 H 1320.62 0.863225 -5.4207 0
M  V30 14264 H 1320.88 1.87075 -4.00569 0
M  V30 14265 N 1319.94 1.55134 -0.277709 0
M  V30 14266 C 1320.89 2.2263 0.608637 0
M  V30 14267 C 1321.86 1.20067 1.14774 0
M  V30 14268 O 1323.05 1.48617 1.19657 0
M  V30 14269 C 1320.19 2.95308 1.78571 0
M  V30 14270 C 1319.3 4.12595 1.28021 0
M  V30 14271 C 1318.43 4.7291 2.41929 0
M  V30 14272 C 1317.47 5.82386 1.88395 0
M  V30 14273 N 1316.61 6.36754 2.95786 0
M  V30 14274 H 1321.45 2.97988 0.0264138 0
M  V30 14275 H 1318.99 1.471 0.00127068 0
M  V30 14276 H 1320.94 3.35662 2.47764 0
M  V30 14277 H 1319.57 2.22368 2.33992 0
M  V30 14278 H 1318.63 3.77343 0.481297 0
M  V30 14279 H 1319.94 4.91537 0.848128 0
M  V30 14280 H 1319.09 5.15997 3.1911 0
M  V30 14281 H 1317.83 3.93251 2.88453 0
M  V30 14282 H 1316.84 5.38746 1.09694 0
M  V30 14283 H 1318.06 6.63916 1.42803 0
M  V30 14284 H 1316.01 5.59987 3.41687 0
M  V30 14285 H 1315.92 7.10975 2.57002 0
M  V30 14286 H 1317.19 6.845 3.72935 0
M  V30 14287 N 1321.42 0.00503138 1.57599 0
M  V30 14288 C 1322.35 -1.01883 2.04194 0
M  V30 14289 C 1323.33 -1.33183 0.9328 0
M  V30 14290 O 1324.52 -1.45261 1.20131 0
M  V30 14291 C 1321.64 -2.34515 2.44377 0
M  V30 14292 C 1320.69 -2.18843 3.66074 0
M  V30 14293 S 1321.52 -1.50975 5.13777 0
M  V30 14294 C 1322.68 -2.85027 5.57235 0
M  V30 14295 H 1322.91 -0.622099 2.90718 0
M  V30 14296 H 1320.44 -0.205983 1.5302 0
M  V30 14297 H 1322.4 -3.10775 2.68196 0
M  V30 14298 H 1321.06 -2.71327 1.58243 0
M  V30 14299 H 1320.26 -3.16836 3.91958 0
M  V30 14300 H 1319.86 -1.50727 3.42283 0
M  V30 14301 H 1322.15 -3.81318 5.60002 0
M  V30 14302 H 1323.09 -2.63837 6.57112 0
M  V30 14303 H 1323.5 -2.89168 4.84812 0
M  V30 14304 N 1322.9 -1.55308 -0.267798 0
M  V30 14305 C 1324.15 -1.7642 -1.00019 0
M  V30 14306 C 1324.48 -0.566559 -1.85752 0
M  V30 14307 O 1323.75 0.435752 -1.89556 0
M  V30 14308 C 1324.04 -3.07229 -1.87836 0
M  V30 14309 C 1323.89 -4.37358 -1.05061 0
M  V30 14310 C 1325.21 -3.34113 -2.86455 0
M  V30 14311 H 1322.33 -0.641859 -0.362197 0
M  V30 14312 H 1324.97 -1.8804 -0.272188 0
M  V30 14313 H 1323.12 -2.97454 -2.49907 0
M  V30 14314 H 1324.79 -4.59098 -0.450208 0
M  V30 14315 H 1323.03 -4.32351 -0.354242 0
M  V30 14316 H 1323.71 -5.25223 -1.69838 0
M  V30 14317 H 1326.18 -3.43715 -2.34519 0
M  V30 14318 H 1325.06 -4.26896 -3.45038 0
M  V30 14319 H 1325.32 -2.54005 -3.61848 0
M  V30 14320 N 1324.38 0.532545 -1.4833 0
M  V30 14321 C 1325.34 1.61955 -1.62183 0
M  V30 14322 C 1326.34 1.52982 -0.495281 0
M  V30 14323 O 1327.53 1.56698 -0.761005 0
M  V30 14324 C 1324.66 3.0157 -1.58961 0
M  V30 14325 H 1325.86 1.51013 -2.59105 0
M  V30 14326 H 1323.41 0.754405 -1.36888 0
M  V30 14327 H 1324.14 3.18021 -0.635069 0
M  V30 14328 H 1323.93 3.09491 -2.40744 0
M  V30 14329 H 1325.42 3.80604 -1.71843 0
M  V30 14330 N 1325.86 1.36875 0.78122 0
M  V30 14331 C 1327.1 1.32761 1.54097 0
M  V30 14332 C 1327.46 -0.0900914 1.92189 0
M  V30 14333 O 1326.75 -1.04655 1.60492 0
M  V30 14334 C 1326.94 2.19173 2.82309 0
M  V30 14335 C 1326.77 3.69203 2.56747 0
M  V30 14336 C 1325.54 4.38349 2.51353 0
M  V30 14337 C 1327.74 4.62283 2.25386 0
M  V30 14338 N 1325.72 5.73974 2.17776 0
M  V30 14339 C 1327.09 5.86216 2.01867 0
M  V30 14340 C 1329.15 4.50764 2.11462 0
M  V30 14341 C 1327.85 6.99923 1.65832 0
M  V30 14342 C 1329.88 5.64346 1.76825 0
M  V30 14343 C 1329.24 6.87324 1.5416 0
M  V30 14344 H 1325.34 0.541089 0.564577 0
M  V30 14345 H 1327.92 1.72006 0.912249 0
M  V30 14346 H 1326.09 1.82159 3.43034 0
M  V30 14347 H 1327.83 2.06388 3.48118 0
M  V30 14348 H 1324.58 3.91243 2.66882 0
M  V30 14349 H 1325 6.45624 2.03711 0
M  V30 14350 H 1329.65 3.56266 2.27672 0
M  V30 14351 H 1327.36 7.94364 1.4836 0
M  V30 14352 H 1330.95 5.574 1.66723 0
M  V30 14353 H 1329.83 7.73724 1.27753 0
M  V30 14354 N 1327.33 -1.00632 1.21289 0
M  V30 14355 C 1328.58 -1.74749 1.04089 0
M  V30 14356 C 1328.93 -1.8773 -0.421349 0
M  V30 14357 O 1328.23 -1.39958 -1.30852 0
M  V30 14358 C 1328.42 -3.1598 1.67007 0
M  V30 14359 C 1328.25 -3.1677 3.19197 0
M  V30 14360 C 1327.02 -3.23425 3.88233 0
M  V30 14361 C 1329.22 -3.01991 4.163 0
M  V30 14362 N 1327.2 -3.13827 5.27623 0
M  V30 14363 C 1328.57 -3.00276 5.42433 0
M  V30 14364 C 1330.63 -2.86284 4.07365 0
M  V30 14365 C 1329.33 -2.84463 6.60661 0
M  V30 14366 C 1331.36 -2.71827 5.25228 0
M  V30 14367 C 1330.72 -2.70787 6.50272 0
M  V30 14368 H 1326.82 -0.649702 0.435213 0
M  V30 14369 H 1329.4 -1.19617 1.53622 0
M  V30 14370 H 1327.57 -3.69384 1.20042 0
M  V30 14371 H 1329.3 -3.78584 1.43025 0
M  V30 14372 H 1326.06 -3.30566 3.3915 0
M  V30 14373 H 1326.48 -3.12374 6.00626 0
M  V30 14374 H 1331.12 -2.85894 3.11487 0
M  V30 14375 H 1328.84 -2.836 7.56701 0
M  V30 14376 H 1332.43 -2.60675 5.20134 0
M  V30 14377 H 1331.31 -2.59732 7.39938 0
M  V30 14378 N 1328.81 -1.02043 -1.20104 0
M  V30 14379 C 1329.77 -0.598682 -2.21243 0
M  V30 14380 C 1330.77 0.333205 -1.5731 0
M  V30 14381 O 1331.96 0.12137 -1.73777 0
M  V30 14382 C 1329.1 0.125183 -3.4067 0
M  V30 14383 H 1330.29 -1.49345 -2.60069 0
M  V30 14384 H 1327.84 -0.810649 -1.33634 0
M  V30 14385 H 1328.58 1.03469 -3.07351 0
M  V30 14386 H 1328.36 -0.544316 -3.88304 0
M  V30 14387 H 1329.85 0.407469 -4.15607 0
M  V30 14388 N 1330.29 1.35952 -0.797165 0
M  V30 14389 C 1331.54 1.98639 -0.372405 0
M  V30 14390 C 1331.86 1.63571 1.06158 0
M  V30 14391 O 1331.13 0.913516 1.73297 0
M  V30 14392 H 1329.71 0.734753 -0.13471 0
M  V30 14393 H 1332.37 1.66022 -1.02092 0
M  V30 14394 H 1331.47 3.08533 -0.47049 0
M  V30 14395 N 1331.77 0.549846 1.47697 0
M  V30 14396 C 1333.02 0.0209424 2.01689 0
M  V30 14397 C 1333.33 -1.33417 1.43036 0
M  V30 14398 O 1334.54 -1.95257 1.88646 0
M  V30 14399 C 1332.99 -0.0130171 3.59898 0
M  V30 14400 C 1332.6 1.3384 4.2754 0
M  V30 14401 C 1334.34 -0.489701 4.21666 0
M  V30 14402 C 1332.25 1.26395 5.77735 0
M  V30 14403 H 1331.18 0.00405885 0.753989 0
M  V30 14404 H 1333.83 0.696599 1.69764 0
M  V30 14405 H 1332.21 -0.754168 3.88752 0
M  V30 14406 H 1333.39 2.09668 4.10336 0
M  V30 14407 H 1331.7 1.75242 3.77729 0
M  V30 14408 H 1334.3 -0.563684 5.31721 0
M  V30 14409 H 1334.64 -1.50004 3.88336 0
M  V30 14410 H 1335.18 0.196366 3.97315 0
M  V30 14411 H 1331.92 2.25005 6.15673 0
M  V30 14412 H 1331.44 0.547353 5.97297 0
M  V30 14413 H 1333.11 0.962918 6.39794 0
M  V30 14414 N 1333.25 -1.54984 0.285932 0
M  V30 14415 C 1334.16 -2.26621 -0.606648 0
M  V30 14416 C 1335.17 -1.29595 -1.16108 0
M  V30 14417 O 1336.35 -1.62551 -1.18908 0
M  V30 14418 C 1333.41 -2.98156 -1.76929 0
M  V30 14419 C 1332.47 -4.10685 -1.25045 0
M  V30 14420 C 1331.71 -4.788 -2.35768 0
M  V30 14421 O 1331.93 -4.46183 -3.55354 0
M  V30 14422 O 1330.86 -5.66523 -2.03312 0
M  V30 14423 H 1334.69 -3.03689 -0.0259981 0
M  V30 14424 H 1332.28 -1.49306 0.0529355 0
M  V30 14425 H 1334.16 -3.43076 -2.44697 0
M  V30 14426 H 1332.83 -2.23996 -2.33683 0
M  V30 14427 H 1331.74 -3.70198 -0.538919 0
M  V30 14428 H 1333.07 -4.86778 -0.728528 0
M  V30 14429 N 1334.72 -0.0133892 -1.57594 0
M  V30 14430 C 1335.67 0.982482 -2.05746 0
M  V30 14431 C 1336.66 1.29508 -0.954801 0
M  V30 14432 O 1337.85 1.28382 -1.21848 0
M  V30 14433 C 1334.98 2.27012 -2.57527 0
M  V30 14434 C 1334.07 1.98658 -3.74694 0
M  V30 14435 N 1334.46 1.40512 -4.85891 0
M  V30 14436 C 1332.75 2.28732 -3.82881 0
M  V30 14437 C 1333.46 1.28933 -5.67231 0
M  V30 14438 N 1332.43 1.77951 -5.13648 0
M  V30 14439 H 1336.23 0.527626 -2.89125 0
M  V30 14440 H 1333.75 0.192001 -1.61261 0
M  V30 14441 H 1335.74 2.99212 -2.90306 0
M  V30 14442 H 1334.4 2.73139 -1.75572 0
M  V30 14443 H 1335.42 1.08217 -5.06468 0
M  V30 14444 H 1332.09 2.77641 -3.11804 0
M  V30 14445 H 1333.48 0.841051 -6.66615 0
M  V30 14446 N 1336.2 1.55448 0.259558 0
M  V30 14447 C 1337.43 1.80727 1.00723 0
M  V30 14448 C 1337.85 0.587354 1.79431 0
M  V30 14449 O 1337.2 -0.443819 1.77021 0
M  V30 14450 C 1337.25 3.04064 1.95517 0
M  V30 14451 O 1336.97 4.21346 1.19996 0
M  V30 14452 C 1338.48 3.42049 2.81988 0
M  V30 14453 H 1335.7 0.601713 0.296956 0
M  V30 14454 H 1338.24 2.02486 0.286273 0
M  V30 14455 H 1336.39 2.84392 2.63058 0
M  V30 14456 H 1336.81 4.91164 1.84006 0
M  V30 14457 H 1338.28 4.31485 3.44274 0
M  V30 14458 H 1338.76 2.62059 3.52451 0
M  V30 14459 H 1339.37 3.64027 2.19918 0
M  V30 14460 N 1337.68 -0.524672 1.4861 0
M  V30 14461 C 1338.93 -1.28021 1.56898 0
M  V30 14462 C 1339.26 -1.92948 0.245203 0
M  V30 14463 O 1338.51 -1.8013 -0.764966 0
M  V30 14464 C 1338.81 -2.3871 2.65993 0
M  V30 14465 C 1338.48 -1.914 4.08261 0
M  V30 14466 C 1337.14 -1.78215 4.46982 0
M  V30 14467 C 1339.49 -1.55713 4.97396 0
M  V30 14468 C 1336.82 -1.27687 5.72637 0
M  V30 14469 C 1339.17 -1.06645 6.23546 0
M  V30 14470 C 1337.83 -0.920818 6.61118 0
M  V30 14471 H 1337.1 -0.468461 0.57413 0
M  V30 14472 H 1339.75 -0.584901 1.82349 0
M  V30 14473 H 1338.06 -3.13932 2.34422 0
M  V30 14474 H 1339.75 -2.96827 2.6962 0
M  V30 14475 H 1336.34 -2.02614 3.77684 0
M  V30 14476 H 1340.53 -1.64757 4.68155 0
M  V30 14477 H 1335.78 -1.15103 6.00468 0
M  V30 14478 H 1339.96 -0.781048 6.92006 0
M  V30 14479 H 1337.58 -0.527091 7.5837 0
M  V30 14480 N 1339.16 -1.37287 -0.77395 0
M  V30 14481 C 1340.41 -1.32112 -1.5294 0
M  V30 14482 C 1340.73 0.0946137 -1.9477 0
M  V30 14483 O 1340 1.03817 -1.66129 0
M  V30 14484 H 1338.58 -0.486047 -0.567245 0
M  V30 14485 H 1341.24 -1.71752 -0.921263 0
M  V30 14486 H 1340.34 -1.95873 -2.42982 0
M  V30 14487 N 1340.64 0.999871 -1.21821 0
M  V30 14488 C 1341.88 1.74098 -1.04009 0
M  V30 14489 C 1342.22 1.89499 0.424716 0
M  V30 14490 O 1341.49 1.43306 1.31505 0
M  V30 14491 C 1341.77 3.1506 -1.74382 0
M  V30 14492 C 1341.63 3.0735 -3.28414 0
M  V30 14493 C 1342.95 4.1409 -1.49055 0
M  V30 14494 H 1340.06 0.631935 -0.379245 0
M  V30 14495 H 1342.71 1.16534 -1.50066 0
M  V30 14496 H 1340.86 3.64206 -1.35227 0
M  V30 14497 H 1342.53 2.65879 -3.76969 0
M  V30 14498 H 1340.77 2.44325 -3.58452 0
M  V30 14499 H 1341.44 4.07069 -3.72825 0
M  V30 14500 H 1343.92 3.73672 -1.83054 0
M  V30 14501 H 1342.79 5.10853 -2.008 0
M  V30 14502 H 1343.06 4.40085 -0.421641 0
M  V30 14503 N 1342.11 1.02678 1.19562 0
M  V30 14504 C 1343.53 0.752027 1.70884 0
M  V30 14505 C 1343.88 -0.728523 1.82173 0
M  V30 14506 O 1343 -1.56799 1.49141 0
M  V30 14507 C 1343.6 1.35848 3.10372 0
M  V30 14508 C 1342.16 1.13236 3.58963 0
M  V30 14509 C 1341.3 1.45785 2.35886 0
M  V30 14510 H 1344.25 1.19497 1.04432 0
M  V30 14511 H 1344.27 0.754347 3.72948 0
M  V30 14512 H 1343.79 2.43604 3.02124 0
M  V30 14513 H 1341.89 0.0729271 3.72529 0
M  V30 14514 H 1342 1.81959 4.43202 0
M  V30 14515 H 1340.36 0.877125 2.3912 0
M  V30 14516 H 1341.15 2.54619 2.30269 0
M  V30 14517 N 1343.59 -1.35528 0.804364 0
M  V30 14518 C 1344.82 -2.02779 0.395517 0
M  V30 14519 C 1345.23 -1.60764 -0.997572 0
M  V30 14520 O 1344.57 -0.799737 -1.65378 0
M  V30 14521 C 1344.64 -3.57302 0.396904 0
M  V30 14522 C 1344.3 -4.22574 1.74012 0
M  V30 14523 C 1345.3 -4.44411 2.69806 0
M  V30 14524 C 1342.98 -4.59738 2.02352 0
M  V30 14525 C 1344.98 -5.02511 3.92124 0
M  V30 14526 C 1342.66 -5.17553 3.24934 0
M  V30 14527 C 1343.66 -5.38881 4.19638 0
M  V30 14528 O 1343.35 -5.95478 5.40056 0
M  V30 14529 H 1343.08 -0.657003 0.15913 0
M  V30 14530 H 1345.63 -1.74176 1.08867 0
M  V30 14531 H 1343.86 -3.85087 -0.352836 0
M  V30 14532 H 1345.55 -4.05899 0.0106754 0
M  V30 14533 H 1346.32 -4.16081 2.49202 0
M  V30 14534 H 1342.2 -4.42452 1.2945 0
M  V30 14535 H 1345.74 -5.19075 4.66055 0
M  V30 14536 H 1341.64 -5.4531 3.45409 0
M  V30 14537 H 1342.41 -6.13931 5.41323 0
M  V30 14538 N 1345.07 -0.557671 -1.47404 0
M  V30 14539 C 1346.02 0.202834 -2.31714 0
M  V30 14540 C 1347.01 0.908873 -1.42954 0
M  V30 14541 O 1348.22 0.830106 -1.59716 0
M  V30 14542 H 1344.59 0.0842824 -0.747262 0
M  V30 14543 H 1346.57 -0.527431 -2.93702 0
M  V30 14544 C 1345.31 1.21937 -3.25617 0
M  V30 14545 H 1344.64 0.685506 -3.93879 0
M  V30 14546 H 1346.08 1.72237 -3.87441 0
M  V30 14547 C 1344.54 2.26748 -2.49173 0
M  V30 14548 O 1345.07 3.33681 -2.23651 0
M  V30 14549 N 1343.27 2.00687 -2.10174 0
M  V30 14550 H 1342.82 1.13741 -2.3113 0
M  V30 14551 H 1342.78 2.71031 -1.59342 0
M  V30 14552 N 1346.55 1.54831 -0.294147 0
M  V30 14553 C 1347.96 1.85627 0.199866 0
M  V30 14554 C 1348.31 1.21613 1.53964 0
M  V30 14555 O 1347.44 0.511317 2.10272 0
M  V30 14556 C 1348.03 3.3678 0.369428 0
M  V30 14557 C 1346.59 3.67633 0.807663 0
M  V30 14558 C 1345.74 2.7716 -0.0880078 0
M  V30 14559 H 1348.69 1.50099 -0.515371 0
M  V30 14560 H 1348.71 3.60913 1.20508 0
M  V30 14561 H 1348.22 3.83342 -0.605831 0
M  V30 14562 H 1346.32 3.26583 1.79372 0
M  V30 14563 H 1346.44 4.74916 0.631799 0
M  V30 14564 H 1344.8 2.51017 0.431553 0
M  V30 14565 H 1345.58 3.26542 -1.0595 0
M  V30 14566 N 1348.03 0.0217466 1.57585 0
M  V30 14567 C 1348.96 -0.99116 2.06661 0
M  V30 14568 C 1349.97 -1.29346 0.988604 0
M  V30 14569 O 1351.16 -1.25941 1.26496 0
M  V30 14570 C 1348.26 -2.32047 2.46997 0
M  V30 14571 C 1347.43 -2.20441 3.77789 0
M  V30 14572 C 1346.49 -3.36243 4.04755 0
M  V30 14573 O 1345.52 -3.13458 4.75114 0
M  V30 14574 N 1346.72 -4.598 3.54351 0
M  V30 14575 H 1349.49 -0.572486 2.94181 0
M  V30 14576 H 1347.05 -0.165175 1.61055 0
M  V30 14577 H 1349.04 -3.0833 2.62135 0
M  V30 14578 H 1347.61 -2.65581 1.64881 0
M  V30 14579 H 1346.83 -1.28931 3.72519 0
M  V30 14580 H 1348.12 -2.09882 4.63494 0
M  V30 14581 H 1347.52 -4.81207 2.97416 0
M  V30 14582 H 1346.07 -5.33276 3.7478 0
M  V30 14583 N 1349.51 -1.55583 -0.251311 0
M  V30 14584 C 1350.73 -1.81597 -1.00186 0
M  V30 14585 C 1351.16 -0.598216 -1.78334 0
M  V30 14586 O 1350.51 0.452667 -1.75558 0
M  V30 14587 C 1350.56 -3.05301 -1.91895 0
M  V30 14588 O 1349.67 -2.81907 -3.01002 0
M  V30 14589 H 1349.01 -0.599578 -0.285311 0
M  V30 14590 H 1351.54 -2.02762 -0.273638 0
M  V30 14591 H 1351.55 -3.34616 -2.33444 0
M  V30 14592 H 1350.22 -3.93574 -1.34433 0
M  V30 14593 H 1348.8 -2.63747 -2.63613 0
M  V30 14594 N 1350.98 0.516783 -1.48886 0
M  V30 14595 C 1351.92 1.63632 -1.60491 0
M  V30 14596 C 1352.93 1.55301 -0.488424 0
M  V30 14597 O 1354.12 1.6152 -0.75983 0
M  V30 14598 C 1351.22 3.02351 -1.53093 0
M  V30 14599 C 1350.39 3.36028 -2.80006 0
M  V30 14600 C 1349.45 4.54087 -2.65879 0
M  V30 14601 O 1348.48 4.56652 -3.3979 0
M  V30 14602 N 1349.68 5.53058 -1.76372 0
M  V30 14603 H 1352.44 1.54109 -2.57042 0
M  V30 14604 H 1350 0.704338 -1.45776 0
M  V30 14605 H 1352 3.79225 -1.41318 0
M  V30 14606 H 1350.57 3.05881 -0.644637 0
M  V30 14607 H 1349.79 2.48204 -3.06249 0
M  V30 14608 H 1351.07 3.5532 -3.64177 0
M  V30 14609 H 1350.47 5.53773 -1.1555 0
M  V30 14610 H 1349.03 6.29097 -1.70529 0
M  V30 14611 N 1352.46 1.37696 0.766659 0
M  V30 14612 C 1353.71 1.32922 1.52237 0
M  V30 14613 C 1354.03 -0.0842833 1.94818 0
M  V30 14614 O 1353.3 -1.02934 1.66677 0
M  V30 14615 H 1351.88 0.489049 0.564659 0
M  V30 14616 H 1354.54 1.72238 0.912142 0
M  V30 14617 H 1353.64 1.97158 2.4194 0
M  V30 14618 N 1353.94 -0.993397 1.22349 0
M  V30 14619 C 1355.19 -1.73544 1.04931 0
M  V30 14620 C 1355.52 -1.89721 -0.414661 0
M  V30 14621 O 1354.79 -1.44001 -1.30743 0
M  V30 14622 C 1355.08 -3.14131 1.7605 0
M  V30 14623 C 1354.93 -3.05604 3.30039 0
M  V30 14624 C 1356.25 -4.13294 1.51249 0
M  V30 14625 H 1353.37 -0.629915 0.382591 0
M  V30 14626 H 1356.01 -1.15737 1.50682 0
M  V30 14627 H 1354.16 -3.63483 1.37157 0
M  V30 14628 H 1355.83 -2.63876 3.78374 0
M  V30 14629 H 1354.07 -2.42421 3.59742 0
M  V30 14630 H 1354.75 -4.05086 3.74979 0
M  V30 14631 H 1357.22 -3.72696 1.85033 0
M  V30 14632 H 1356.1 -5.09781 2.03507 0
M  V30 14633 H 1356.36 -4.39855 0.444973 0
M  V30 14634 N 1355.42 -1.03311 -1.19015 0
M  V30 14635 C 1356.66 -0.733124 -1.89085 0
M  V30 14636 C 1357 0.73675 -1.79682 0
M  V30 14637 O 1356.27 1.53692 -1.19201 0
M  V30 14638 C 1356.55 -1.19028 -3.39859 0
M  V30 14639 C 1356.41 -2.72169 -3.58112 0
M  V30 14640 C 1357.73 -0.774383 -4.33234 0
M  V30 14641 H 1354.85 -0.2678 -0.686624 0
M  V30 14642 H 1357.49 -1.28378 -1.40068 0
M  V30 14643 H 1355.64 -0.721799 -3.81736 0
M  V30 14644 H 1357.31 -3.26996 -3.25379 0
M  V30 14645 H 1355.55 -3.12358 -3.01023 0
M  V30 14646 H 1356.22 -2.99213 -4.6387 0
M  V30 14647 H 1358.7 -1.17739 -3.99095 0
M  V30 14648 H 1357.58 -1.12209 -5.37308 0
M  V30 14649 H 1357.84 0.322989 -4.40919 0
M  V30 14650 N 1356.9 1.35099 -0.81154 0
M  V30 14651 C 1357.81 2.33499 -0.22705 0
M  V30 14652 C 1358.82 1.62095 0.632562 0
M  V30 14653 O 1360 1.93938 0.543147 0
M  V30 14654 C 1357.06 3.41279 0.610687 0
M  V30 14655 C 1356.12 4.2845 -0.269994 0
M  V30 14656 C 1355.36 5.31083 0.527854 0
M  V30 14657 O 1355.58 5.42499 1.76213 0
M  V30 14658 O 1354.51 6.01842 -0.083862 0
M  V30 14659 H 1358.34 2.85294 -1.04119 0
M  V30 14660 H 1355.92 1.37957 -0.573432 0
M  V30 14661 H 1357.81 4.07121 1.08768 0
M  V30 14662 H 1356.48 2.91746 1.40235 0
M  V30 14663 H 1355.39 3.65572 -0.794234 0
M  V30 14664 H 1356.72 4.81394 -1.02572 0
M  V30 14665 N 1358.37 0.56548 1.47106 0
M  V30 14666 C 1359.34 -0.167191 2.28589 0
M  V30 14667 C 1360.34 -0.835005 1.3742 0
M  V30 14668 O 1361.53 -0.689598 1.59969 0
M  V30 14669 C 1358.66 -1.24548 3.17333 0
M  V30 14670 H 1359.85 0.548677 2.94838 0
M  V30 14671 H 1357.4 0.322749 1.52931 0
M  V30 14672 H 1358.14 -1.99348 2.55794 0
M  V30 14673 H 1357.92 -0.771335 3.84438 0
M  V30 14674 H 1359.41 -1.75985 3.78707 0
M  V30 14675 N 1359.85 -1.54672 0.302354 0
M  V30 14676 C 1360.79 -2.19752 -0.615175 0
M  V30 14677 C 1361.76 -1.16737 -1.13186 0
M  V30 14678 O 1362.95 -1.45385 -1.19981 0
M  V30 14679 C 1360.07 -2.84243 -1.84184 0
M  V30 14680 C 1359.12 -4.00795 -1.45827 0
M  V30 14681 S 1359.95 -5.33037 -0.513046 0
M  V30 14682 C 1361.11 -6.01011 -1.74747 0
M  V30 14683 H 1361.34 -2.97235 -0.0622917 0
M  V30 14684 H 1358.88 -1.54158 0.0864897 0
M  V30 14685 H 1360.83 -3.22025 -2.54578 0
M  V30 14686 H 1359.49 -2.06603 -2.36589 0
M  V30 14687 H 1358.69 -4.44707 -2.37175 0
M  V30 14688 H 1358.29 -3.64577 -0.83425 0
M  V30 14689 H 1360.58 -6.21901 -2.68786 0
M  V30 14690 H 1361.52 -6.95095 -1.35089 0
M  V30 14691 H 1361.93 -5.30671 -1.9248 0
M  V30 14692 N 1361.33 -0.0301034 -1.57571 0
M  V30 14693 C 1362.28 0.969425 -2.11435 0
M  V30 14694 C 1363.27 1.33627 -1.04116 0
M  V30 14695 O 1364.48 1.31839 -1.2255 0
M  V30 14696 H 1360.85 0.330407 -0.675526 0
M  V30 14697 H 1362.82 0.489828 -2.94352 0
M  V30 14698 C 1361.57 2.24233 -2.65734 0
M  V30 14699 H 1360.9 1.9688 -3.47963 0
M  V30 14700 H 1362.34 2.92378 -3.07068 0
M  V30 14701 C 1360.8 2.97274 -1.58524 0
M  V30 14702 O 1361.33 3.8942 -0.985641 0
M  V30 14703 N 1359.53 2.59627 -1.30545 0
M  V30 14704 H 1359.08 1.84773 -1.79491 0
M  V30 14705 H 1359.04 3.08807 -0.590372 0
M  V30 14706 N 1362.81 1.55714 0.243056 0
M  V30 14707 C 1363.76 1.87031 1.30397 0
M  V30 14708 C 1364.74 0.731497 1.43311 0
M  V30 14709 O 1365.93 0.9935 1.46487 0
M  V30 14710 C 1363.06 2.17185 2.65868 0
M  V30 14711 C 1362.15 3.37403 2.56944 0
M  V30 14712 N 1362.54 4.56575 2.17653 0
M  V30 14713 C 1360.84 3.4059 2.87949 0
M  V30 14714 C 1361.54 5.38715 2.19455 0
M  V30 14715 N 1360.52 4.77875 2.59108 0
M  V30 14716 H 1364.32 2.76697 0.990755 0
M  V30 14717 H 1361.83 1.55992 0.451675 0
M  V30 14718 H 1363.83 2.37787 3.42437 0
M  V30 14719 H 1362.49 1.28819 2.98053 0
M  V30 14720 H 1363.5 4.82129 1.89134 0
M  V30 14721 H 1360.18 2.62506 3.24648 0
M  V30 14722 H 1361.57 6.44066 1.91385 0
M  V30 14723 N 1364.29 -0.50888 1.49158 0
M  V30 14724 C 1365.24 -1.60799 1.61641 0
M  V30 14725 C 1366.22 -1.53808 0.472434 0
M  V30 14726 O 1367.41 -1.61471 0.724985 0
M  V30 14727 C 1364.54 -2.99444 1.67894 0
M  V30 14728 C 1363.63 -3.1146 2.87843 0
M  V30 14729 N 1364.02 -2.93387 4.12016 0
M  V30 14730 C 1362.32 -3.42549 2.85616 0
M  V30 14731 C 1363.02 -3.09378 4.92606 0
M  V30 14732 N 1361.99 -3.37902 4.2582 0
M  V30 14733 H 1365.8 -1.45468 2.55375 0
M  V30 14734 H 1363.31 -0.714832 1.45822 0
M  V30 14735 H 1365.31 -3.78423 1.74934 0
M  V30 14736 H 1363.97 -3.1585 0.752919 0
M  V30 14737 H 1364.98 -2.69721 4.42121 0
M  V30 14738 H 1361.65 -3.65181 2.02359 0
M  V30 14739 H 1363.04 -2.99964 6.01225 0
M  V30 14740 N 1365.76 -1.381 -0.759346 0
M  V30 14741 C 1366.69 -1.37578 -1.88665 0
M  V30 14742 C 1367.68 -0.242529 -1.68362 0
M  V30 14743 O 1368.86 -0.444751 -1.89039 0
M  V30 14744 C 1365.99 -1.19437 -3.26117 0
M  V30 14745 C 1364.94 -2.29905 -3.61009 0
M  V30 14746 C 1364.27 -1.96874 -4.97136 0
M  V30 14747 C 1365.57 -3.72143 -3.66479 0
M  V30 14748 H 1367.26 -2.31912 -1.89359 0
M  V30 14749 H 1364.81 -1.11632 -0.909631 0
M  V30 14750 H 1366.76 -1.17698 -4.0463 0
M  V30 14751 H 1365.49 -0.21562 -3.25887 0
M  V30 14752 H 1364.15 -2.3082 -2.84812 0
M  V30 14753 H 1363.79 -0.974979 -4.9346 0
M  V30 14754 H 1363.49 -2.70855 -5.21451 0
M  V30 14755 H 1365.02 -1.96744 -5.78035 0
M  V30 14756 H 1366.43 -3.73291 -4.35117 0
M  V30 14757 H 1364.83 -4.45282 -4.02299 0
M  V30 14758 H 1365.9 -4.04874 -2.66843 0
M  V30 14759 N 1367.24 0.986894 -1.22875 0
M  V30 14760 C 1368.19 2.07811 -1.00416 0
M  V30 14761 C 1369.16 1.65925 0.0761734 0
M  V30 14762 O 1370.34 1.90654 -0.0746294 0
M  V30 14763 C 1367.48 3.39941 -0.594471 0
M  V30 14764 C 1366.6 3.95134 -1.74622 0
M  V30 14765 C 1365.73 5.1545 -1.28394 0
M  V30 14766 C 1364.77 5.62794 -2.40686 0
M  V30 14767 N 1363.91 6.74343 -1.95462 0
M  V30 14768 H 1368.75 2.26356 -1.93822 0
M  V30 14769 H 1366.29 1.10966 -0.965661 0
M  V30 14770 H 1368.24 4.15828 -0.338078 0
M  V30 14771 H 1366.87 3.21379 0.302587 0
M  V30 14772 H 1365.93 3.16064 -2.11679 0
M  V30 14773 H 1367.24 4.26247 -2.59066 0
M  V30 14774 H 1366.39 5.98646 -0.98529 0
M  V30 14775 H 1365.13 4.85975 -0.409789 0
M  V30 14776 H 1364.14 4.78182 -2.71333 0
M  V30 14777 H 1365.36 5.9429 -3.28627 0
M  V30 14778 H 1363.31 6.46641 -1.10417 0
M  V30 14779 H 1363.22 7.04806 -2.73469 0
M  V30 14780 H 1364.49 7.6103 -1.68683 0
M  V30 14781 N 1368.72 1.0394 1.18466 0
M  V30 14782 C 1369.67 0.623063 2.241 0
M  V30 14783 C 1370.66 -0.349518 1.65755 0
M  V30 14784 O 1371.87 -0.216947 1.78688 0
M  V30 14785 H 1368.24 0.183263 0.729327 0
M  V30 14786 H 1370.21 1.52439 2.56524 0
M  V30 14787 C 1368.96 0.000626805 3.477 0
M  V30 14788 H 1368.29 0.740056 3.92891 0
M  V30 14789 H 1369.73 -0.253484 4.23242 0
M  V30 14790 C 1368.19 -1.24907 3.1289 0
M  V30 14791 O 1368.72 -2.33996 3.2651 0
M  V30 14792 N 1366.92 -1.14187 2.67226 0
M  V30 14793 H 1366.47 -0.254146 2.56343 0
M  V30 14794 H 1366.43 -1.97893 2.44307 0
M  V30 14795 N 1370.2 -1.34667 0.818693 0
M  V30 14796 C 1371.13 -2.28368 0.195126 0
M  V30 14797 C 1372.14 -1.50836 -0.612562 0
M  V30 14798 O 1373.33 -1.72917 -0.442936 0
M  V30 14799 C 1370.43 -3.30601 -0.745411 0
M  V30 14800 C 1369.61 -4.37396 0.0185308 0
M  V30 14801 C 1368.66 -5.19415 -0.842298 0
M  V30 14802 O 1367.69 -5.68467 -0.288821 0
M  V30 14803 N 1368.89 -5.38709 -2.1627 0
M  V30 14804 H 1371.66 -2.8252 1.00013 0
M  V30 14805 H 1369.22 -1.47146 0.675262 0
M  V30 14806 H 1371.21 -3.82367 -1.3258 0
M  V30 14807 H 1369.78 -2.76875 -1.45118 0
M  V30 14808 H 1369 -3.86402 0.780205 0
M  V30 14809 H 1370.29 -5.05877 0.544575 0
M  V30 14810 H 1369.69 -5.00523 -2.63616 0
M  V30 14811 H 1368.24 -5.9361 -2.69204 0
M  V30 14812 N 1371.68 -0.573274 -1.46804 0
M  V30 14813 C 1372.93 -0.0530267 -2.0163 0
M  V30 14814 C 1373.24 1.31124 -1.45141 0
M  V30 14815 O 1374.44 1.92231 -1.91728 0
M  V30 14816 C 1372.9 -0.0442411 -3.59873 0
M  V30 14817 C 1372.51 -1.40625 -4.25357 0
M  V30 14818 C 1374.25 0.422556 -4.22392 0
M  V30 14819 C 1372.16 -1.3557 -5.75652 0
M  V30 14820 H 1371.09 -0.0160537 -0.753829 0
M  V30 14821 H 1373.74 -0.723518 -1.68634 0
M  V30 14822 H 1372.12 0.692225 -3.89903 0
M  V30 14823 H 1373.3 -2.1617 -4.06949 0
M  V30 14824 H 1371.61 -1.81229 -3.74893 0
M  V30 14825 H 1374.21 0.479021 -5.3255 0
M  V30 14826 H 1374.55 1.43806 -3.90673 0
M  V30 14827 H 1375.08 -0.259551 -3.96952 0
M  V30 14828 H 1371.82 -2.34772 -6.12015 0
M  V30 14829 H 1371.34 -0.642309 -5.96351 0
M  V30 14830 H 1373.02 -1.06458 -6.38182 0
M  V30 14831 N 1373.15 1.5451 -0.310553 0
M  V30 14832 C 1374.43 1.92452 0.34951 0
M  V30 14833 C 1374.81 1.23881 1.70929 0
M  V30 14834 O 1374.16 0.377898 2.25353 0
M  V30 14835 C 1374.37 3.46026 0.454675 0
M  V30 14836 C 1375.72 4.18432 0.721071 0
M  V30 14837 O 1376.74 3.52112 0.538112 0
M  V30 14838 O 1375.6 5.3586 1.07314 0
M  V30 14839 H 1372.69 0.803168 0.197103 0
M  V30 14840 H 1375.24 1.65852 -0.359313 0
M  V30 14841 H 1374.01 3.88081 -0.500853 0
M  V30 14842 H 1373.64 3.7869 1.21159 0
M  V30 14843 N 1374.63 0.0384594 1.57553 0
M  V30 14844 C 1376.05 -0.318006 1.564 0
M  V30 14845 C 1376.25 -1.72287 1.04496 0
M  V30 14846 O 1375.31 -2.42722 0.695861 0
M  V30 14847 C 1376.62 -0.158079 3.00284 0
M  V30 14848 C 1378.17 -0.230143 3.12153 0
M  V30 14849 C 1378.64 -0.0988948 4.57893 0
M  V30 14850 N 1380.13 -0.15558 4.62939 0
M  V30 14851 C 1380.87 -0.077948 5.73347 0
M  V30 14852 N 1380.36 0.0513054 6.92781 0
M  V30 14853 N 1382.16 -0.132612 5.61944 0
M  V30 14854 H 1374.31 0.957014 1.89618 0
M  V30 14855 H 1376.57 0.370396 0.872646 0
M  V30 14856 H 1376.28 0.810032 3.42245 0
M  V30 14857 H 1376.15 -0.924413 3.65697 0
M  V30 14858 H 1378.54 -1.18872 2.70099 0
M  V30 14859 H 1378.62 0.56673 2.49443 0
M  V30 14860 H 1378.26 0.856301 5.00629 0
M  V30 14861 H 1378.19 -0.91475 5.18594 0
M  V30 14862 H 1380.68 -0.255245 3.77037 0
M  V30 14863 H 1381 0.103595 7.72731 0
M  V30 14864 H 1379.34 0.0862166 6.94947 0
M  V30 14865 H 1382.53 -0.232056 4.67524 0
M  V30 14866 H 1382.71 -0.0686506 6.47964 0
M  V30 14867 N 1376.11 -1.55841 -0.234795 0
M  V30 14868 C 1377.36 -1.77438 -0.959094 0
M  V30 14869 C 1377.67 -0.604621 -1.86021 0
M  V30 14870 O 1378.88 -0.703897 -2.62217 0
M  V30 14871 C 1377.34 -3.14182 -1.7555 0
M  V30 14872 C 1376.94 -4.38843 -0.90118 0
M  V30 14873 C 1378.69 -3.45112 -2.47181 0
M  V30 14874 C 1376.59 -5.66614 -1.69417 0
M  V30 14875 H 1375.52 -0.661503 -0.361843 0
M  V30 14876 H 1378.18 -1.82255 -0.213364 0
M  V30 14877 H 1376.56 -3.03505 -2.54364 0
M  V30 14878 H 1377.73 -4.60541 -0.154515 0
M  V30 14879 H 1376.05 -4.15335 -0.297631 0
M  V30 14880 H 1378.64 -4.37794 -3.06986 0
M  V30 14881 H 1378.99 -2.66995 -3.19405 0
M  V30 14882 H 1379.52 -3.57059 -1.75368 0
M  V30 14883 H 1376.26 -6.47587 -1.01545 0
M  V30 14884 H 1375.78 -5.48998 -2.4158 0
M  V30 14885 H 1377.46 -6.06311 -2.25824 0
M  V30 14886 N 1377.59 0.500963 -1.49426 0
M  V30 14887 C 1379.01 0.832142 -1.36189 0
M  V30 14888 C 1379.21 1.9759 -0.395014 0
M  V30 14889 O 1378.26 2.51905 0.173294 0
M  V30 14890 C 1379.57 1.17232 -2.76907 0
M  V30 14891 C 1381.12 1.28052 -2.85607 0
M  V30 14892 C 1381.6 1.65399 -4.27092 0
M  V30 14893 N 1383.09 1.72448 -4.29902 0
M  V30 14894 C 1383.82 2.02789 -5.36343 0
M  V30 14895 N 1383.32 2.31354 -6.53029 0
M  V30 14896 N 1385.11 2.0404 -5.23759 0
M  V30 14897 H 1377.26 -0.253253 -2.10885 0
M  V30 14898 H 1379.53 -0.0507111 -0.946643 0
M  V30 14899 H 1379.23 0.405247 -3.49357 0
M  V30 14900 H 1379.11 2.11574 -3.12276 0
M  V30 14901 H 1381.49 2.03831 -2.13394 0
M  V30 14902 H 1381.57 0.317603 -2.53821 0
M  V30 14903 H 1381.22 0.901704 -4.99832 0
M  V30 14904 H 1381.15 2.6279 -4.56343 0
M  V30 14905 H 1383.64 1.52532 -3.45749 0
M  V30 14906 H 1383.95 2.53695 -7.29972 0
M  V30 14907 H 1382.3 2.28811 -6.56255 0
M  V30 14908 H 1385.49 1.812 -4.31606 0
M  V30 14909 H 1385.66 2.27353 -6.06807 0
M  V30 14910 N 1379.07 1.38501 0.752011 0
M  V30 14911 C 1379.98 1.38094 1.8965 0
M  V30 14912 C 1380.99 0.277851 1.71767 0
M  V30 14913 O 1382.17 0.516536 1.94663 0
M  V30 14914 C 1379.23 1.2063 3.25037 0
M  V30 14915 C 1378.3 2.40758 3.55435 0
M  V30 14916 C 1377.53 2.24118 4.84362 0
M  V30 14917 O 1377.75 1.23571 5.56854 0
M  V30 14918 O 1376.69 3.12741 5.14273 0
M  V30 14919 H 1380.51 2.34532 1.92947 0
M  V30 14920 H 1378.1 1.19437 0.897504 0
M  V30 14921 H 1379.98 1.12957 4.05979 0
M  V30 14922 H 1378.65 0.272785 3.22549 0
M  V30 14923 H 1377.56 2.54006 2.74648 0
M  V30 14924 H 1378.89 3.32745 3.62686 0
M  V30 14925 N 1380.55 -0.980364 1.23396 0
M  V30 14926 C 1381.48 -2.07522 0.972991 0
M  V30 14927 C 1382.49 -1.62714 -0.0530191 0
M  V30 14928 O 1383.68 -1.77564 0.182513 0
M  V30 14929 C 1380.78 -3.35977 0.444126 0
M  V30 14930 C 1379.95 -4.09756 1.53031 0
M  V30 14931 C 1379.01 -5.16488 1.00631 0
M  V30 14932 O 1378.04 -5.43368 1.69529 0
M  V30 14933 N 1379.24 -5.80263 -0.165842 0
M  V30 14934 H 1382 -2.30487 1.91561 0
M  V30 14935 H 1379.57 -1.14706 1.14255 0
M  V30 14936 H 1381.56 -4.04624 0.078617 0
M  V30 14937 H 1380.13 -3.0998 -0.403912 0
M  V30 14938 H 1379.35 -3.35564 2.06858 0
M  V30 14939 H 1380.64 -4.55815 2.26076 0
M  V30 14940 H 1380.03 -5.60811 -0.742162 0
M  V30 14941 H 1378.59 -6.50084 -0.472614 0
M  V30 14942 N 1382.02 -1.04567 -1.17913 0
M  V30 14943 C 1382.99 -0.645476 -2.19923 0
M  V30 14944 C 1383.99 0.299763 -1.57981 0
M  V30 14945 O 1385.18 0.0844825 -1.73995 0
M  V30 14946 C 1382.31 0.0528935 -3.40859 0
M  V30 14947 H 1383.5 -1.54828 -2.56843 0
M  V30 14948 H 1381.05 -0.838812 -1.31885 0
M  V30 14949 H 1381.79 0.969261 -3.09477 0
M  V30 14950 H 1381.57 -0.626558 -3.87062 0
M  V30 14951 H 1383.06 0.319221 -4.16378 0
M  V30 14952 N 1383.5 1.34231 -0.825823 0
M  V30 14953 C 1384.45 2.31378 -0.23809 0
M  V30 14954 C 1385.44 1.57537 0.622767 0
M  V30 14955 O 1386.65 1.72512 0.513783 0
M  V30 14956 H 1383.02 0.74974 -0.0582516 0
M  V30 14957 H 1385 2.78471 -1.07221 0
M  V30 14958 C 1383.74 3.42778 0.582969 0
M  V30 14959 H 1383.07 3.99739 -0.0701208 0
M  V30 14960 H 1384.51 4.12983 0.960266 0
M  V30 14961 C 1382.97 2.87486 1.75651 0
M  V30 14962 O 1383.5 2.82603 2.85479 0
M  V30 14963 N 1381.7 2.4427 1.57418 0
M  V30 14964 H 1381.25 2.48441 0.680792 0
M  V30 14965 H 1381.21 2.07626 2.36091 0
M  V30 14966 N 1384.98 0.581051 1.46498 0
M  V30 14967 C 1386.2 0.0696654 2.07283 0
M  V30 14968 C 1386.63 -1.22525 1.42721 0
M  V30 14969 O 1385.99 -1.73967 0.510421 0
M  V30 14970 C 1386.04 -0.0843864 3.60501 0
M  V30 14971 O 1385.14 -1.14129 3.96293 0
M  V30 14972 H 1384.48 0.0620572 0.661094 0
M  V30 14973 H 1387.01 0.803522 1.88161 0
M  V30 14974 H 1387.02 -0.29108 4.0696 0
M  V30 14975 H 1385.7 0.861274 4.06884 0
M  V30 14976 H 1384.27 -0.913186 3.61546 0
M  V30 14977 N 1386.46 -1.54343 0.318742 0
M  V30 14978 C 1387.7 -2.00777 -0.285699 0
M  V30 14979 C 1388.04 -1.20664 -1.52164 0
M  V30 14980 O 1387.31 -0.287674 -1.92361 0
M  V30 14981 C 1387.59 -3.54641 -0.624649 0
M  V30 14982 C 1387.45 -4.45483 0.621663 0
M  V30 14983 C 1388.77 -4.15729 -1.4442 0
M  V30 14984 H 1385.89 -0.729856 -0.102367 0
M  V30 14985 H 1388.53 -1.84968 0.434364 0
M  V30 14986 H 1386.68 -3.68243 -1.23811 0
M  V30 14987 H 1388.35 -4.43759 1.25998 0
M  V30 14988 H 1386.59 -4.15356 1.25148 0
M  V30 14989 H 1387.26 -5.50951 0.340106 0
M  V30 14990 H 1389.74 -4.05672 -0.925699 0
M  V30 14991 H 1388.62 -5.23509 -1.65013 0
M  V30 14992 H 1388.88 -3.68743 -2.43887 0
M  V30 14993 N 1387.94 -0.0468143 -1.5753 0
M  V30 14994 C 1388.85 0.944362 -2.14753 0
M  V30 14995 C 1389.86 1.34473 -1.10422 0
M  V30 14996 O 1391.04 1.42254 -1.42569 0
M  V30 14997 C 1388.1 2.2023 -2.67768 0
M  V30 14998 C 1387.16 1.8607 -3.8688 0
M  V30 14999 C 1386.4 3.05867 -4.37357 0
M  V30 15000 O 1386.62 4.19099 -3.86927 0
M  V30 15001 O 1385.55 2.87134 -5.28997 0
M  V30 15002 H 1389.38 0.48772 -2.99758 0
M  V30 15003 H 1386.96 0.174831 -1.48374 0
M  V30 15004 H 1388.85 2.94044 -3.01855 0
M  V30 15005 H 1387.52 2.65041 -1.85836 0
M  V30 15006 H 1386.43 1.09586 -3.5769 0
M  V30 15007 H 1387.76 1.46062 -4.70028 0
M  V30 15008 N 1389.41 1.55964 0.226527 0
M  V30 15009 C 1390.64 1.82823 0.968673 0
M  V30 15010 C 1391.06 0.625281 1.78145 0
M  V30 15011 O 1390.41 -0.40617 1.77923 0
M  V30 15012 C 1390.47 3.08143 1.89024 0
M  V30 15013 O 1390.19 4.23797 1.11032 0
M  V30 15014 C 1391.69 3.47954 2.74669 0
M  V30 15015 H 1388.91 0.607876 0.284126 0
M  V30 15016 H 1391.45 2.03048 0.243258 0
M  V30 15017 H 1389.61 2.89908 2.56967 0
M  V30 15018 H 1390.02 4.94957 1.73546 0
M  V30 15019 H 1391.49 4.38691 3.35044 0
M  V30 15020 H 1391.97 2.69476 3.46813 0
M  V30 15021 H 1392.58 3.6861 2.12147 0
M  V30 15022 N 1390.89 -0.493031 1.4969 0
M  V30 15023 C 1392.14 -1.2433 1.58823 0
M  V30 15024 C 1392.45 -1.9353 0.283823 0
M  V30 15025 O 1393.66 -2.70311 0.253801 0
M  V30 15026 C 1392.12 -2.25792 2.8026 0
M  V30 15027 C 1391.72 -1.62496 4.17491 0
M  V30 15028 C 1393.47 -3.01598 2.98729 0
M  V30 15029 C 1391.38 -2.62115 5.30141 0
M  V30 15030 H 1390.31 -0.467738 0.591386 0
M  V30 15031 H 1392.96 -0.516238 1.76089 0
M  V30 15032 H 1391.34 -3.01696 2.56506 0
M  V30 15033 H 1392.51 -0.925305 4.51414 0
M  V30 15034 H 1390.83 -0.990516 4.04447 0
M  V30 15035 H 1393.42 -3.76111 3.80058 0
M  V30 15036 H 1393.77 -3.59687 2.09597 0
M  V30 15037 H 1394.3 -2.32809 3.2256 0
M  V30 15038 H 1391.04 -2.08797 6.21357 0
M  V30 15039 H 1390.56 -3.30298 5.00663 0
M  V30 15040 H 1392.24 -3.24385 5.59807 0
M  V30 15041 N 1392.37 -1.38898 -0.744656 0
M  V30 15042 C 1393.62 -1.35795 -1.50623 0
M  V30 15043 C 1393.95 0.0491775 -1.94138 0
M  V30 15044 O 1393.22 1.01219 -1.66087 0
M  V30 15045 C 1393.51 -2.32168 -2.75263 0
M  V30 15046 C 1393.36 -3.81781 -2.3783 0
M  V30 15047 C 1394.68 -2.26526 -3.77325 0
M  V30 15048 H 1391.8 -0.494591 -0.546396 0
M  V30 15049 H 1394.44 -1.69816 -0.852211 0
M  V30 15050 H 1392.59 -2.03287 -3.31069 0
M  V30 15051 H 1394.26 -4.21373 -1.8773 0
M  V30 15052 H 1392.51 -3.99027 -1.70176 0
M  V30 15053 H 1393.18 -4.44687 -3.27044 0
M  V30 15054 H 1395.65 -2.52041 -3.31081 0
M  V30 15055 H 1394.53 -2.96053 -4.62216 0
M  V30 15056 H 1394.79 -1.26705 -4.23554 0
M  V30 15057 N 1393.85 0.973806 -1.23914 0
M  V30 15058 C 1394.78 2.08526 -1.05068 0
M  V30 15059 C 1395.76 1.70065 0.0344761 0
M  V30 15060 O 1396.94 1.93755 -0.131432 0
M  V30 15061 C 1394.07 3.41198 -0.648165 0
M  V30 15062 C 1393.03 3.9359 -1.6814 0
M  V30 15063 C 1392.35 5.22534 -1.13414 0
M  V30 15064 C 1393.65 4.22116 -3.07597 0
M  V30 15065 H 1395.35 2.24551 -1.98034 0
M  V30 15066 H 1392.89 1.07905 -0.953546 0
M  V30 15067 H 1394.85 4.18383 -0.50334 0
M  V30 15068 H 1393.57 3.25056 0.317182 0
M  V30 15069 H 1392.23 3.18555 -1.81434 0
M  V30 15070 H 1391.88 5.02747 -0.159578 0
M  V30 15071 H 1391.58 5.58555 -1.82456 0
M  V30 15072 H 1393.1 6.02334 -1.0013 0
M  V30 15073 H 1394.52 4.90027 -2.97567 0
M  V30 15074 H 1392.91 4.69352 -3.73937 0
M  V30 15075 H 1393.98 3.29128 -3.56094 0
M  V30 15076 N 1395.33 1.05191 1.17357 0
M  V30 15077 C 1396.26 0.597207 2.20247 0
M  V30 15078 C 1397.24 -0.374194 1.58236 0
M  V30 15079 O 1398.42 -0.285815 1.86321 0
M  V30 15080 C 1395.55 -0.126012 3.38466 0
M  V30 15081 C 1394.59 0.800401 4.18922 0
M  V30 15082 S 1395.43 2.28956 4.84086 0
M  V30 15083 C 1396.58 1.57751 6.05694 0
M  V30 15084 H 1396.82 1.46893 2.58476 0
M  V30 15085 H 1394.35 0.863874 1.27971 0
M  V30 15086 H 1396.31 -0.537086 4.06971 0
M  V30 15087 H 1394.97 -0.97377 2.98624 0
M  V30 15088 H 1394.16 0.240754 5.03425 0
M  V30 15089 H 1393.76 1.15084 3.55853 0
M  V30 15090 H 1396.06 0.876839 6.71802 0
M  V30 15091 H 1397 2.40001 6.66187 0
M  V30 15092 H 1397.41 1.06493 5.54364 0
M  V30 15093 N 1396.8 -1.33791 0.83293 0
M  V30 15094 C 1397.77 -2.27637 0.267196 0
M  V30 15095 C 1398.77 -1.50709 -0.560669 0
M  V30 15096 O 1399.96 -1.70109 -0.375321 0
M  V30 15097 C 1397.09 -3.35136 -0.624248 0
M  V30 15098 H 1398.28 -2.79186 1.09522 0
M  V30 15099 H 1395.84 -1.44093 0.605554 0
M  V30 15100 H 1396.57 -2.88818 -1.47494 0
M  V30 15101 H 1396.36 -3.92087 -0.0319827 0
M  V30 15102 H 1397.85 -4.05113 -1.01355 0
M  V30 15103 N 1398.28 -0.588812 -1.46187 0
M  V30 15104 C 1399.53 -0.0768417 -2.02654 0
M  V30 15105 C 1399.86 1.28213 -1.4586 0
M  V30 15106 O 1399.14 1.8415 -0.626022 0
M  V30 15107 C 1399.42 -0.0176429 -3.60096 0
M  V30 15108 C 1399.27 -1.40595 -4.27262 0
M  V30 15109 C 1400.59 0.679864 -4.34817 0
M  V30 15110 H 1397.71 -0.0293981 -0.736413 0
M  V30 15111 H 1400.35 -0.757183 -1.74261 0
M  V30 15112 H 1398.5 0.56174 -3.84417 0
M  V30 15113 H 1400.17 -2.03097 -4.14185 0
M  V30 15114 H 1398.42 -1.97196 -3.86388 0
M  V30 15115 H 1399.09 -1.31694 -5.3606 0
M  V30 15116 H 1401.56 0.1876 -4.15677 0
M  V30 15117 H 1400.44 0.690333 -5.44542 0
M  V30 15118 H 1400.7 1.74237 -4.06318 0
M  V30 15119 N 1399.76 1.54172 -0.326923 0
M  V30 15120 C 1400.71 2.21189 0.553126 0
M  V30 15121 C 1401.69 1.19356 1.07903 0
M  V30 15122 O 1402.89 1.44972 1.01549 0
M  V30 15123 C 1400.02 2.97573 1.71188 0
M  V30 15124 C 1399.1 4.06748 1.20071 0
M  V30 15125 N 1399.49 5.0414 0.409473 0
M  V30 15126 C 1397.79 4.20759 1.47913 0
M  V30 15127 C 1398.49 5.81546 0.134036 0
M  V30 15128 N 1397.47 5.38796 0.721097 0
M  V30 15129 H 1401.27 2.93841 -0.0586462 0
M  V30 15130 H 1398.78 1.61855 -0.132947 0
M  V30 15131 H 1400.78 3.44072 2.35415 0
M  V30 15132 H 1399.44 2.26443 2.32709 0
M  V30 15133 H 1400.45 5.17874 0.0520181 0
M  V30 15134 H 1397.13 3.60844 2.09995 0
M  V30 15135 H 1398.52 6.70013 -0.503156 0
M  V30 15136 N 1401.24 0.0551678 1.57503 0
M  V30 15137 C 1402.48 -0.621569 1.9472 0
M  V30 15138 C 1402.84 -1.67772 0.933626 0
M  V30 15139 O 1404.04 -2.40882 1.19287 0
M  V30 15140 C 1402.31 -1.19858 3.36703 0
M  V30 15141 S 1403.87 -1.89276 3.95879 0
M  V30 15142 H 1400.69 -0.203985 0.68111 0
M  V30 15143 H 1403.29 0.125058 1.951 0
M  V30 15144 H 1402 -0.417833 4.08267 0
M  V30 15145 H 1401.53 -1.98193 3.39828 0
M  V30 15146 H 1403.54 -3.17373 3.8143 0
M  V30 15147 N 1402.72 -1.56081 -0.218252 0
M  V30 15148 C 1403.65 -1.87704 -1.29779 0
M  V30 15149 C 1404.63 -0.734747 -1.45053 0
M  V30 15150 O 1405.81 -0.98344 -1.60813 0
M  V30 15151 C 1402.94 -2.08695 -2.66766 0
M  V30 15152 C 1401.98 -3.31385 -2.68489 0
M  V30 15153 S 1402.82 -4.87212 -2.22227 0
M  V30 15154 C 1403.97 -5.11243 -3.61083 0
M  V30 15155 H 1404.21 -2.78975 -1.02762 0
M  V30 15156 H 1401.74 -1.48559 -0.420653 0
M  V30 15157 H 1403.7 -2.21472 -3.4563 0
M  V30 15158 H 1402.36 -1.18215 -2.91005 0
M  V30 15159 H 1401.55 -3.43127 -3.69161 0
M  V30 15160 H 1401.15 -3.17482 -1.9769 0
M  V30 15161 H 1403.45 -5.00344 -4.56796 0
M  V30 15162 H 1404.39 -6.13115 -3.54254 0
M  V30 15163 H 1404.8 -4.38964 -3.54924 0
M  V30 15164 N 1404.2 0.485086 -1.49949 0
M  V30 15165 C 1405.14 1.60559 -1.68296 0
M  V30 15166 C 1406.14 1.60264 -0.548802 0
M  V30 15167 O 1407.34 1.64581 -0.728905 0
M  V30 15168 H 1403.72 0.532529 -0.530958 0
M  V30 15169 H 1405.69 1.42242 -2.62316 0
M  V30 15170 C 1404.44 2.98596 -1.78145 0
M  V30 15171 H 1403.76 2.99536 -2.64799 0
M  V30 15172 H 1405.2 3.76492 -1.95012 0
M  V30 15173 C 1403.66 3.32708 -0.529828 0
M  V30 15174 O 1404.19 4.00281 0.337347 0
M  V30 15175 N 1402.4 2.87998 -0.388012 0
M  V30 15176 H 1401.94 2.33182 -1.0947 0
M  V30 15177 H 1401.9 3.11187 0.448307 0
M  V30 15178 N 1405.67 1.39291 0.737279 0
M  V30 15179 C 1406.92 1.3639 1.49679 0
M  V30 15180 C 1407.25 -0.0408859 1.94457 0
M  V30 15181 O 1406.5 -1.02127 1.66939 0
M  V30 15182 C 1406.8 2.28043 2.75193 0
M  V30 15183 C 1406.47 3.75717 2.49294 0
M  V30 15184 C 1405.13 4.15955 2.41941 0
M  V30 15185 C 1407.48 4.69127 2.27088 0
M  V30 15186 C 1404.81 5.47669 2.10419 0
M  V30 15187 C 1407.16 6.01116 1.97084 0
M  V30 15188 C 1405.83 6.4042 1.88197 0
M  V30 15189 H 1405.1 0.499088 0.547716 0
M  V30 15190 H 1407.74 1.71779 0.846416 0
M  V30 15191 H 1406.05 1.85765 3.44962 0
M  V30 15192 H 1407.75 2.23093 3.33212 0
M  V30 15193 H 1404.34 3.43825 2.55896 0
M  V30 15194 H 1408.52 4.38875 2.31739 0
M  V30 15195 H 1403.78 5.77046 2.02059 0
M  V30 15196 H 1407.95 6.73026 1.78909 0
M  V30 15197 H 1405.58 7.42401 1.63537 0
M  V30 15198 N 1407.15 -0.967221 1.24429 0
M  V30 15199 C 1408.1 -2.06187 1.03709 0
M  V30 15200 C 1409.07 -1.66025 -0.0497665 0
M  V30 15201 O 1410.25 -1.90511 0.104951 0
M  V30 15202 C 1407.39 -3.38952 0.648477 0
M  V30 15203 C 1406.51 -3.92306 1.80886 0
M  V30 15204 C 1405.64 -5.13342 1.36579 0
M  V30 15205 C 1404.68 -5.58893 2.49609 0
M  V30 15206 N 1403.82 -6.71148 2.06165 0
M  V30 15207 H 1408.66 -2.23244 1.97399 0
M  V30 15208 H 1406.19 -1.09415 0.983192 0
M  V30 15209 H 1408.15 -4.15237 0.40419 0
M  V30 15210 H 1406.78 -3.21819 -0.25142 0
M  V30 15211 H 1405.83 -3.12656 2.1668 0
M  V30 15212 H 1407.15 -4.22071 2.65815 0
M  V30 15213 H 1406.3 -5.97003 1.0804 0
M  V30 15214 H 1405.04 -4.85262 0.487051 0
M  V30 15215 H 1404.04 -4.73805 2.78906 0
M  V30 15216 H 1405.27 -5.88987 3.3804 0
M  V30 15217 H 1403.22 -6.44802 1.20691 0
M  V30 15218 H 1403.13 -7.00366 2.84647 0
M  V30 15219 H 1404.4 -7.5825 1.80769 0
M  V30 15220 N 1408.63 -1.05812 -1.16797 0
M  V30 15221 C 1410.05 -0.780649 -1.39205 0
M  V30 15222 C 1410.25 0.622191 -1.91653 0
M  V30 15223 O 1409.3 1.38357 -2.11219 0
M  V30 15224 C 1410.61 -1.84148 -2.37718 0
M  V30 15225 C 1412.16 -1.86442 -2.51413 0
M  V30 15226 C 1412.64 -2.91566 -3.53204 0
M  V30 15227 N 1414.13 -2.90568 -3.60727 0
M  V30 15228 C 1414.86 -3.68556 -4.39265 0
M  V30 15229 N 1414.36 -4.56348 -5.21266 0
M  V30 15230 N 1416.15 -3.56969 -4.342 0
M  V30 15231 H 1408.3 -1.96313 -0.810871 0
M  V30 15232 H 1410.57 -0.850421 -0.418913 0
M  V30 15233 H 1410.27 -2.84864 -2.06265 0
M  V30 15234 H 1410.15 -1.68838 -3.37303 0
M  V30 15235 H 1412.53 -0.863873 -2.82172 0
M  V30 15236 H 1412.61 -2.0583 -1.5188 0
M  V30 15237 H 1412.26 -3.91811 -3.23182 0
M  V30 15238 H 1412.19 -2.69429 -4.52455 0
M  V30 15239 H 1414.68 -2.26918 -3.02186 0
M  V30 15240 H 1414.99 -5.12523 -5.78394 0
M  V30 15241 H 1413.34 -4.60406 -5.20626 0
M  V30 15242 H 1416.53 -2.87772 -3.69195 0
M  V30 15243 H 1416.7 -4.17993 -4.95162 0
M  V30 15244 N 1410.11 1.33347 -0.840014 0
M  V30 15245 C 1411.52 1.50615 -0.52795 0
M  V30 15246 C 1411.72 1.77993 0.944493 0
M  V30 15247 O 1410.78 1.84087 1.72824 0
M  V30 15248 C 1412.09 2.66001 -1.40228 0
M  V30 15249 C 1413.64 2.79886 -1.40117 0
M  V30 15250 C 1414.12 3.98335 -2.26038 0
M  V30 15251 N 1415.61 4.05572 -2.23753 0
M  V30 15252 C 1416.34 4.96422 -2.86972 0
M  V30 15253 N 1415.84 5.9238 -3.59247 0
M  V30 15254 N 1417.63 4.89428 -2.76436 0
M  V30 15255 H 1409.78 1.13839 -1.79317 0
M  V30 15256 H 1412.04 0.559772 -0.765088 0
M  V30 15257 H 1411.75 2.52453 -2.44868 0
M  V30 15258 H 1411.62 3.61434 -1.07914 0
M  V30 15259 H 1414.01 2.92865 -0.362487 0
M  V30 15260 H 1414.09 1.85211 -1.76439 0
M  V30 15261 H 1413.74 3.86115 -3.29966 0
M  V30 15262 H 1413.67 4.92257 -1.87057 0
M  V30 15263 H 1416.16 3.36899 -1.71195 0
M  V30 15264 H 1416.47 6.58367 -4.04688 0
M  V30 15265 H 1414.82 5.92451 -3.63354 0
M  V30 15266 H 1418.01 4.13428 -2.19534 0
M  V30 15267 H 1418.18 5.60032 -3.25989 0
M  V30 15268 N 1411.59 0.596556 1.45873 0
M  V30 15269 C 1412.83 0.0872856 2.01911 0
M  V30 15270 C 1413.15 -1.28257 1.46885 0
M  V30 15271 O 1412.42 -1.84489 0.658837 0
M  V30 15272 H 1411 0.0292769 0.746426 0
M  V30 15273 H 1413.67 0.775464 1.78809 0
M  V30 15274 H 1412.76 0.0287213 3.12087 0
M  V30 15275 N 1413.06 -1.53996 0.335095 0
M  V30 15276 C 1414.31 -2.00375 -0.263475 0
M  V30 15277 C 1414.63 -1.22471 -1.51742 0
M  V30 15278 O 1413.9 -0.329604 -1.93107 0
M  V30 15279 H 1412.48 -0.740229 -0.100347 0
M  V30 15280 H 1415.14 -1.89531 0.454302 0
M  V30 15281 H 1414.24 -3.07874 -0.511834 0
M  V30 15282 N 1414.54 -0.0635198 -1.57472 0
M  V30 15283 C 1415.79 0.607008 -1.92349 0
M  V30 15284 C 1416.1 1.71268 -0.944806 0
M  V30 15285 O 1417.31 2.44221 -1.18609 0
M  V30 15286 C 1415.77 1.13105 -3.41666 0
M  V30 15287 C 1415.37 0.0568256 -4.47964 0
M  V30 15288 C 1417.12 1.77611 -3.85557 0
M  V30 15289 C 1415.02 0.594443 -5.88405 0
M  V30 15290 H 1413.95 0.230506 -0.717902 0
M  V30 15291 H 1416.61 -0.134413 -1.83007 0
M  V30 15292 H 1414.99 1.92517 -3.46054 0
M  V30 15293 H 1416.16 -0.717371 -4.55182 0
M  V30 15294 H 1414.48 -0.491517 -4.13489 0
M  V30 15295 H 1417.07 2.18852 -4.87861 0
M  V30 15296 H 1417.42 2.6328 -3.22474 0
M  V30 15297 H 1417.95 1.04834 -3.83738 0
M  V30 15298 H 1414.69 -0.224893 -6.55114 0
M  V30 15299 H 1414.21 1.33635 -5.84724 0
M  V30 15300 H 1415.89 1.07346 -6.38033 0
M  V30 15301 N 1416.02 1.56195 0.209972 0
M  V30 15302 C 1417.27 1.7939 0.930796 0
M  V30 15303 C 1417.59 0.634038 1.84404 0
M  V30 15304 O 1416.86 -0.348467 1.92776 0
M  V30 15305 H 1415.44 0.661676 0.346689 0
M  V30 15306 H 1418.1 1.93665 0.219049 0
M  V30 15307 H 1417.2 2.71982 1.53075 0
M  V30 15308 N 1417.5 -0.477127 1.50204 0
M  V30 15309 C 1418.77 -1.23837 1.51406 0
M  V30 15310 C 1419.15 -2.09551 0.255278 0
M  V30 15311 O 1418.5 -2.15437 -0.761535 0
M  V30 15312 C 1418.71 -2.0746 2.80644 0
M  V30 15313 C 1420.06 -2.65852 3.31071 0
M  V30 15314 O 1421.08 -2.17708 2.81925 0
M  V30 15315 O 1419.94 -3.53556 4.16726 0
M  V30 15316 H 1417.04 -0.561638 0.607036 0
M  V30 15317 H 1419.58 -0.489442 1.62489 0
M  V30 15318 H 1418.36 -1.44258 3.63738 0
M  V30 15319 H 1417.98 -2.895 2.72536 0
M  V30 15320 N 1418.98 -1.3968 -0.729882 0
M  V30 15321 C 1419.91 -1.33201 -1.85291 0
M  V30 15322 C 1420.89 -0.204787 -1.61305 0
M  V30 15323 O 1422.07 -0.386087 -1.84504 0
M  V30 15324 C 1419.2 -1.06955 -3.21369 0
M  V30 15325 C 1418.24 -2.21937 -3.64207 0
M  V30 15326 S 1419.08 -3.84249 -3.72979 0
M  V30 15327 C 1420.23 -3.60239 -5.11839 0
M  V30 15328 H 1420.47 -2.28244 -1.90504 0
M  V30 15329 H 1418 -1.25796 -0.895252 0
M  V30 15330 H 1419.96 -0.924975 -3.99943 0
M  V30 15331 H 1418.62 -0.135902 -3.13806 0
M  V30 15332 H 1417.81 -1.99179 -4.62973 0
M  V30 15333 H 1417.41 -2.32624 -2.92852 0
M  V30 15334 H 1419.71 -3.17821 -5.98328 0
M  V30 15335 H 1420.65 -4.58485 -5.39627 0
M  V30 15336 H 1421.06 -2.94229 -4.81757 0
M  V30 15337 N 1420.45 0.960609 -1.2494 0
M  V30 15338 C 1421.68 1.73928 -1.12057 0
M  V30 15339 C 1422.1 1.8596 0.32623 0
M  V30 15340 O 1421.45 1.35303 1.22472 0
M  V30 15341 C 1421.51 3.15614 -1.76267 0
M  V30 15342 O 1421.23 3.04177 -3.15291 0
M  V30 15343 C 1422.73 4.09786 -1.69086 0
M  V30 15344 H 1419.95 0.5452 -0.39115 0
M  V30 15345 H 1422.49 1.20556 -1.65186 0
M  V30 15346 H 1420.65 3.65949 -1.27123 0
M  V30 15347 H 1421.06 3.93513 -3.46768 0
M  V30 15348 H 1422.53 5.06835 -2.18683 0
M  V30 15349 H 1423.01 4.34312 -0.653453 0
M  V30 15350 H 1423.62 3.65365 -2.1769 0
M  V30 15351 N 1421.93 1.0643 1.16234 0
M  V30 15352 C 1423.34 0.806012 1.68405 0
M  V30 15353 C 1423.69 -0.670197 1.84398 0
M  V30 15354 O 1422.82 -1.51975 1.54054 0
M  V30 15355 C 1423.41 1.45654 3.05893 0
M  V30 15356 C 1421.97 1.24599 3.55179 0
M  V30 15357 C 1421.12 1.53216 2.31128 0
M  V30 15358 H 1424.07 1.22759 1.00578 0
M  V30 15359 H 1424.09 0.872616 3.70359 0
M  V30 15360 H 1423.6 2.53092 2.94221 0
M  V30 15361 H 1421.71 0.191407 3.72108 0
M  V30 15362 H 1421.82 1.95967 4.37188 0
M  V30 15363 H 1420.18 0.952755 2.36209 0
M  V30 15364 H 1420.97 2.61816 2.22052 0
M  V30 15365 N 1423.41 -1.329 0.847073 0
M  V30 15366 C 1424.37 -2.27341 0.291324 0
M  V30 15367 C 1425.37 -1.51295 -0.544653 0
M  V30 15368 O 1426.56 -1.70497 -0.357258 0
M  V30 15369 C 1423.7 -3.35779 -0.588668 0
M  V30 15370 H 1424.89 -2.78009 1.12477 0
M  V30 15371 H 1422.44 -1.43442 0.620803 0
M  V30 15372 H 1423.18 -2.90366 -1.44423 0
M  V30 15373 H 1422.96 -3.92099 0.00960515 0
M  V30 15374 H 1424.45 -4.06166 -0.970526 0
M  V30 15375 N 1424.89 -0.604284 -1.45555 0
M  V30 15376 C 1425.8 0.118409 -2.34301 0
M  V30 15377 C 1426.81 0.863807 -1.51044 0
M  V30 15378 O 1427.99 0.822138 -1.83856 0
M  V30 15379 C 1425.06 1.10538 -3.28606 0
M  V30 15380 C 1424.12 0.362301 -4.27768 0
M  V30 15381 C 1423.35 1.30226 -5.17568 0
M  V30 15382 O 1423.57 2.53991 -5.10729 0
M  V30 15383 O 1422.51 0.801116 -5.96545 0
M  V30 15384 H 1426.33 -0.610816 -2.97494 0
M  V30 15385 H 1423.92 -0.364562 -1.44884 0
M  V30 15386 H 1425.8 1.67392 -3.86727 0
M  V30 15387 H 1424.47 1.81569 -2.67982 0
M  V30 15388 H 1423.38 -0.248616 -3.73273 0
M  V30 15389 H 1424.71 -0.307454 -4.91239 0
M  V30 15390 N 1426.37 1.53816 -0.343257 0
M  V30 15391 C 1427.78 1.59598 0.00867849 0
M  V30 15392 C 1427.98 1.35922 1.48753 0
M  V30 15393 O 1427.04 1.15334 2.2462 0
M  V30 15394 C 1428.35 2.97649 -0.427234 0
M  V30 15395 C 1429.9 3.1069 -0.379554 0
M  V30 15396 C 1430.37 4.51119 -0.79093 0
M  V30 15397 N 1431.87 4.57168 -0.745105 0
M  V30 15398 C 1432.6 5.63975 -1.03537 0
M  V30 15399 N 1432.1 6.78635 -1.39377 0
M  V30 15400 N 1433.89 5.53848 -0.959628 0
M  V30 15401 H 1426.04 1.6746 -1.30656 0
M  V30 15402 H 1428.3 0.784254 -0.532588 0
M  V30 15403 H 1428.01 3.2004 -1.45834 0
M  V30 15404 H 1427.88 3.76682 0.197704 0
M  V30 15405 H 1430.27 2.88024 0.642376 0
M  V30 15406 H 1430.35 2.33718 -1.03969 0
M  V30 15407 H 1430 4.74521 -1.81087 0
M  V30 15408 H 1429.93 5.26489 -0.108274 0
M  V30 15409 H 1432.42 3.7483 -0.480752 0
M  V30 15410 H 1432.73 7.56053 -1.60011 0
M  V30 15411 H 1431.07 6.80083 -1.43222 0
M  V30 15412 H 1434.27 4.6315 -0.678974 0
M  V30 15413 H 1434.44 6.36995 -1.18919 0
M  V30 15414 N 1427.84 0.0718701 1.57436 0
M  V30 15415 C 1428.77 -0.89288 2.15754 0
M  V30 15416 C 1429.76 -1.31036 1.0846 0
M  V30 15417 O 1430.94 -1.38139 1.36496 0
M  V30 15418 C 1428.07 -2.16044 2.71923 0
M  V30 15419 C 1427.02 -1.88236 3.84384 0
M  V30 15420 C 1426.35 -3.21624 4.27156 0
M  V30 15421 C 1427.65 -1.18758 5.0862 0
M  V30 15422 H 1429.34 -0.407061 2.9662 0
M  V30 15423 H 1426.89 -0.194354 1.42682 0
M  V30 15424 H 1428.84 -2.83952 3.11366 0
M  V30 15425 H 1427.57 -2.66868 1.88279 0
M  V30 15426 H 1426.23 -1.22734 3.45445 0
M  V30 15427 H 1425.87 -3.70289 3.40433 0
M  V30 15428 H 1425.57 -3.03809 5.02965 0
M  V30 15429 H 1427.1 -3.90729 4.69215 0
M  V30 15430 H 1428.51 -1.76735 5.45378 0
M  V30 15431 H 1426.91 -1.11201 5.89707 0
M  V30 15432 H 1427.98 -0.166682 4.84613 0
M  V30 15433 N 1429.32 -1.56304 -0.201686 0
M  V30 15434 C 1430.57 -1.79433 -0.921241 0
M  V30 15435 C 1430.88 -0.643943 -1.84696 0
M  V30 15436 O 1432.09 -0.759359 -2.60665 0
M  V30 15437 C 1430.55 -3.17835 -1.68846 0
M  V30 15438 C 1430.15 -4.40655 -0.807892 0
M  V30 15439 C 1431.9 -3.50277 -2.39805 0
M  V30 15440 C 1429.81 -5.7008 -1.5736 0
M  V30 15441 H 1428.74 -0.669029 -0.34773 0
M  V30 15442 H 1431.39 -1.82667 -0.174657 0
M  V30 15443 H 1429.77 -3.08832 -2.47869 0
M  V30 15444 H 1430.94 -4.60765 -0.0567923 0
M  V30 15445 H 1429.26 -4.15873 -0.209465 0
M  V30 15446 H 1431.85 -4.44207 -2.97631 0
M  V30 15447 H 1432.2 -2.7371 -3.1367 0
M  V30 15448 H 1432.73 -3.60698 -1.67754 0
M  V30 15449 H 1429.47 -6.49595 -0.877855 0
M  V30 15450 H 1428.99 -5.53999 -2.2988 0
M  V30 15451 H 1430.67 -6.10964 -2.12912 0
M  V30 15452 N 1430.8 0.469154 -1.50455 0
M  V30 15453 C 1431.75 1.58765 -1.6999 0
M  V30 15454 C 1432.74 1.59673 -0.56577 0
M  V30 15455 O 1433.95 1.63799 -0.74632 0
M  V30 15456 H 1430.32 0.526868 -0.536577 0
M  V30 15457 H 1432.29 1.39451 -2.6381 0
M  V30 15458 C 1431.04 2.9669 -1.81302 0
M  V30 15459 H 1430.37 2.96711 -2.67961 0
M  V30 15460 H 1431.81 3.74403 -1.98994 0
M  V30 15461 C 1430.27 3.32127 -0.565086 0
M  V30 15462 O 1430.8 4.00616 0.294873 0
M  V30 15463 N 1429 2.8757 -0.418537 0
M  V30 15464 H 1428.55 2.32008 -1.11938 0
M  V30 15465 H 1428.51 3.11645 0.415276 0
M  V30 15466 N 1432.28 1.40065 0.722464 0
M  V30 15467 C 1433.21 1.34182 1.84582 0
M  V30 15468 C 1434.19 0.213339 1.61194 0
M  V30 15469 O 1435.37 0.395867 1.84296 0
M  V30 15470 C 1432.5 1.08658 3.20798 0
M  V30 15471 C 1431.55 2.23865 3.63024 0
M  V30 15472 S 1432.38 3.86221 3.70936 0
M  V30 15473 C 1433.54 3.62948 5.09921 0
M  V30 15474 H 1433.77 2.29251 1.89291 0
M  V30 15475 H 1431.3 1.26269 0.888568 0
M  V30 15476 H 1433.26 0.946172 3.99447 0
M  V30 15477 H 1431.92 0.152542 3.13729 0
M  V30 15478 H 1431.11 2.01631 4.6191 0
M  V30 15479 H 1430.72 2.34174 2.91614 0
M  V30 15480 H 1433.01 3.20989 5.96634 0
M  V30 15481 H 1433.95 4.6134 5.37188 0
M  V30 15482 H 1434.36 2.9678 4.8019 0
M  V30 15483 N 1433.76 -0.95397 1.25448 0
M  V30 15484 C 1435.01 -1.69305 1.09631 0
M  V30 15485 C 1435.32 -1.92213 -0.362413 0
M  V30 15486 O 1436.53 -2.63824 -0.641036 0
M  V30 15487 C 1434.98 -3.04805 1.91369 0
M  V30 15488 C 1434.59 -2.8969 3.41737 0
M  V30 15489 C 1436.33 -3.82491 1.84123 0
M  V30 15490 C 1434.24 -4.20584 4.15768 0
M  V30 15491 H 1433.17 -0.63494 0.406654 0
M  V30 15492 H 1435.82 -1.06195 1.49649 0
M  V30 15493 H 1434.2 -3.68822 1.44174 0
M  V30 15494 H 1435.38 -2.346 3.9661 0
M  V30 15495 H 1433.69 -2.25458 3.50082 0
M  V30 15496 H 1436.29 -4.79442 2.36727 0
M  V30 15497 H 1436.63 -4.08358 0.809265 0
M  V30 15498 H 1437.17 -3.25224 2.29072 0
M  V30 15499 H 1433.9 -3.99905 5.19381 0
M  V30 15500 H 1433.42 -4.75436 3.65678 0
M  V30 15501 H 1435.1 -4.89122 4.2352 0
M  V30 15502 N 1435.24 -1.07045 -1.15668 0
M  V30 15503 C 1436.46 -0.812746 -1.90268 0
M  V30 15504 C 1436.88 0.633722 -1.77847 0
M  V30 15505 O 1436.24 1.43444 -1.12828 0
M  V30 15506 C 1436.29 -1.20793 -3.40722 0
M  V30 15507 O 1436.01 -2.59764 -3.52781 0
M  V30 15508 C 1437.51 -0.979074 -4.32353 0
M  V30 15509 H 1434.73 -0.294093 -0.603117 0
M  V30 15510 H 1437.27 -1.42609 -1.46571 0
M  V30 15511 H 1435.43 -0.638975 -3.82094 0
M  V30 15512 H 1435.84 -2.75801 -4.46133 0
M  V30 15513 H 1437.32 -1.30513 -5.36349 0
M  V30 15514 H 1437.79 0.0847752 -4.39118 0
M  V30 15515 H 1438.4 -1.53278 -3.96719 0
M  V30 15516 N 1436.71 1.32449 -0.85411 0
M  V30 15517 C 1437.94 2.01463 -0.471188 0
M  V30 15518 C 1438.36 1.64195 0.931954 0
M  V30 15519 O 1437.71 0.862994 1.60806 0
M  V30 15520 C 1437.76 3.56486 -0.600022 0
M  V30 15521 O 1437.49 3.92414 -1.94789 0
M  V30 15522 C 1438.99 4.42773 -0.216036 0
M  V30 15523 H 1436.21 0.644914 -0.185275 0
M  V30 15524 H 1438.75 1.6904 -1.1509 0
M  V30 15525 H 1436.91 3.87387 0.0319488 0
M  V30 15526 H 1437.32 4.87133 -1.94427 0
M  V30 15527 H 1438.79 5.50843 -0.357186 0
M  V30 15528 H 1439.27 4.31025 0.843468 0
M  V30 15529 H 1439.88 4.1726 -0.823058 0
M  V30 15530 N 1438.19 0.611994 1.45232 0
M  V30 15531 C 1439.1 -0.105981 2.3436 0
M  V30 15532 C 1440.12 -0.855785 1.515 0
M  V30 15533 O 1441.29 -0.812376 1.84289 0
M  V30 15534 C 1438.36 -1.08794 3.29188 0
M  V30 15535 C 1437.42 -0.339611 4.27955 0
M  V30 15536 C 1436.65 -1.27479 5.18252 0
M  V30 15537 O 1436.88 -2.51279 5.12069 0
M  V30 15538 O 1435.81 -0.769469 5.96961 0
M  V30 15539 H 1439.64 0.626584 2.97166 0
M  V30 15540 H 1437.22 0.37224 1.44688 0
M  V30 15541 H 1439.1 -1.65338 3.8761 0
M  V30 15542 H 1437.78 -1.80145 2.68941 0
M  V30 15543 H 1436.68 0.268408 3.73136 0
M  V30 15544 H 1438.02 0.333501 4.91069 0
M  V30 15545 N 1439.67 -1.53632 0.351409 0
M  V30 15546 C 1440.6 -2.2284 -0.536204 0
M  V30 15547 C 1441.61 -1.23765 -1.05764 0
M  V30 15548 O 1442.8 -1.50073 -0.966449 0
M  V30 15549 C 1439.9 -2.9013 -1.75151 0
M  V30 15550 C 1439.08 -4.15588 -1.36401 0
M  V30 15551 C 1438.14 -4.66217 -2.43984 0
M  V30 15552 O 1437.16 -5.3024 -2.06964 0
M  V30 15553 N 1438.36 -4.42817 -3.75358 0
M  V30 15554 H 1441.13 -2.99647 0.0565368 0
M  V30 15555 H 1438.69 -1.60942 0.175905 0
M  V30 15556 H 1440.68 -3.20913 -2.4657 0
M  V30 15557 H 1439.25 -2.16862 -2.25144 0
M  V30 15558 H 1438.47 -3.91264 -0.480258 0
M  V30 15559 H 1439.76 -4.97179 -1.08121 0
M  V30 15560 H 1439.16 -3.9163 -4.08218 0
M  V30 15561 H 1437.71 -4.78186 -4.42924 0
M  V30 15562 N 1441.15 -0.0802183 -1.57396 0
M  V30 15563 C 1442.06 0.898597 -2.16708 0
M  V30 15564 C 1443.07 1.321 -1.1325 0
M  V30 15565 O 1444.25 1.39197 -1.45554 0
M  V30 15566 C 1441.31 2.14501 -2.72379 0
M  V30 15567 C 1440.38 1.77822 -3.9074 0
M  V30 15568 C 1439.61 2.96521 -4.43747 0
M  V30 15569 O 1439.83 4.10797 -3.9573 0
M  V30 15570 O 1438.77 2.75849 -5.34968 0
M  V30 15571 H 1442.59 0.424027 -3.00725 0
M  V30 15572 H 1440.18 0.14332 -1.48711 0
M  V30 15573 H 1442.06 2.87575 -3.08024 0
M  V30 15574 H 1440.73 2.61039 -1.91416 0
M  V30 15575 H 1439.64 1.01974 -3.59934 0
M  V30 15576 H 1440.97 1.36059 -4.73021 0
M  V30 15577 N 1442.63 1.56409 0.193394 0
M  V30 15578 C 1443.87 1.79919 0.911712 0
M  V30 15579 C 1444.19 0.653729 1.84352 0
M  V30 15580 O 1445.39 0.773172 2.60258 0
M  V30 15581 C 1443.85 3.18726 1.67158 0
M  V30 15582 C 1443.46 4.41078 0.784512 0
M  V30 15583 C 1445.2 3.51544 2.37944 0
M  V30 15584 C 1443.11 5.70907 1.54335 0
M  V30 15585 H 1442.04 0.670864 0.344177 0
M  V30 15586 H 1444.69 1.82757 0.164967 0
M  V30 15587 H 1443.07 3.10142 2.46227 0
M  V30 15588 H 1444.25 4.60789 0.032356 0
M  V30 15589 H 1442.56 4.15978 0.187407 0
M  V30 15590 H 1445.16 4.45779 2.95271 0
M  V30 15591 H 1445.5 2.75369 3.12214 0
M  V30 15592 H 1446.03 3.61583 1.65839 0
M  V30 15593 H 1442.77 6.50052 0.843393 0
M  V30 15594 H 1442.29 5.5521 2.26939 0
M  V30 15595 H 1443.97 6.12085 2.09669 0
M  V30 15596 N 1444.1 -0.461169 1.50702 0
M  V30 15597 C 1445.04 -1.57562 1.66453 0
M  V30 15598 C 1446.05 -1.53381 0.545726 0
M  V30 15599 O 1447.24 -1.58589 0.819254 0
M  V30 15600 C 1444.34 -2.9646 1.64209 0
M  V30 15601 C 1443.51 -3.25405 2.92285 0
M  V30 15602 C 1442.57 -4.43906 2.82549 0
M  V30 15603 O 1441.6 -4.43726 3.56505 0
M  V30 15604 N 1442.8 -5.46131 1.96777 0
M  V30 15605 H 1445.56 -1.44463 2.62584 0
M  V30 15606 H 1443.12 -0.649749 1.4829 0
M  V30 15607 H 1445.12 -3.73719 1.55295 0
M  V30 15608 H 1443.69 -3.03278 0.757718 0
M  V30 15609 H 1442.91 -2.36666 3.1525 0
M  V30 15610 H 1444.19 -3.41559 3.77114 0
M  V30 15611 H 1443.59 -5.49103 1.36023 0
M  V30 15612 H 1442.15 -6.22335 1.9376 0
M  V30 15613 N 1445.58 -1.40446 -0.715026 0
M  V30 15614 C 1446.83 -1.38754 -1.47491 0
M  V30 15615 C 1447.16 0.0099443 -1.94497 0
M  V30 15616 O 1446.41 0.99458 -1.68543 0
M  V30 15617 C 1446.71 -2.32392 -2.7153 0
M  V30 15618 C 1446.38 -3.79635 -2.43286 0
M  V30 15619 C 1445.04 -4.19751 -2.35293 0
M  V30 15620 C 1447.39 -4.72681 -2.19596 0
M  V30 15621 C 1444.72 -5.50947 -2.01679 0
M  V30 15622 C 1447.07 -6.04176 -1.87495 0
M  V30 15623 C 1445.73 -6.43333 -1.77985 0
M  V30 15624 H 1445 -0.507738 -0.539706 0
M  V30 15625 H 1447.65 -1.73104 -0.81898 0
M  V30 15626 H 1445.96 -1.91229 -3.41963 0
M  V30 15627 H 1447.65 -2.28366 -3.29621 0
M  V30 15628 H 1444.24 -3.47852 -2.50393 0
M  V30 15629 H 1448.43 -4.42506 -2.24727 0
M  V30 15630 H 1443.68 -5.80187 -1.92854 0
M  V30 15631 H 1447.86 -6.75788 -1.68179 0
M  V30 15632 H 1445.48 -7.44909 -1.51706 0
M  V30 15633 N 1447.06 0.947303 -1.25952 0
M  V30 15634 C 1447.99 2.0487 -1.02767 0
M  V30 15635 C 1449 1.62797 0.00985984 0
M  V30 15636 O 1450.19 1.77018 -0.229527 0
M  V30 15637 C 1447.29 3.34682 -0.533048 0
M  V30 15638 C 1446.47 4.05555 -1.63841 0
M  V30 15639 C 1445.53 5.13638 -1.1429 0
M  V30 15640 O 1444.55 5.38682 -1.83876 0
M  V30 15641 N 1445.75 5.80499 0.0119377 0
M  V30 15642 H 1448.52 2.25327 -1.97605 0
M  V30 15643 H 1446.08 1.11636 -1.17256 0
M  V30 15644 H 1448.07 4.04273 -0.185868 0
M  V30 15645 H 1446.64 3.10941 0.321585 0
M  V30 15646 H 1445.86 3.29962 -2.15683 0
M  V30 15647 H 1447.15 4.49661 -2.38081 0
M  V30 15648 H 1446.55 5.62581 0.593212 0
M  V30 15649 H 1445.1 6.51109 0.30009 0
M  V30 15650 N 1448.54 1.07657 1.15099 0
M  V30 15651 C 1449.47 0.657598 2.19564 0
M  V30 15652 C 1450.48 -0.29146 1.6017 0
M  V30 15653 O 1451.67 -0.0802981 1.78319 0
M  V30 15654 C 1448.77 -0.0542221 3.38857 0
M  V30 15655 C 1447.95 0.911803 4.27791 0
M  V30 15656 C 1447 0.236709 5.25667 0
M  V30 15657 O 1446.03 0.878731 5.62376 0
M  V30 15658 N 1447.23 -1.01641 5.71532 0
M  V30 15659 H 1450 1.55626 2.56126 0
M  V30 15660 H 1447.56 0.961657 1.30245 0
M  V30 15661 H 1449.55 -0.516603 4.01389 0
M  V30 15662 H 1448.12 -0.854871 3.00684 0
M  V30 15663 H 1447.34 1.55322 3.6231 0
M  V30 15664 H 1448.63 1.56667 4.8408 0
M  V30 15665 H 1448.03 -1.55791 5.43825 0
M  V30 15666 H 1446.58 -1.42242 6.3609 0
M  V30 15667 N 1450.02 -1.31994 0.861122 0
M  V30 15668 C 1451.24 -2.01745 0.481013 0
M  V30 15669 C 1451.67 -1.6426 -0.916527 0
M  V30 15670 O 1451.02 -0.846603 -1.60319 0
M  V30 15671 C 1451.07 -3.54963 0.635134 0
M  V30 15672 O 1450.18 -4.11083 -0.329337 0
M  V30 15673 H 1449.52 -0.635499 0.192452 0
M  V30 15674 H 1452.05 -1.68394 1.1621 0
M  V30 15675 H 1452.06 -4.04607 0.525089 0
M  V30 15676 H 1450.73 -3.81587 1.65422 0
M  V30 15677 H 1449.31 -3.72489 -0.174989 0
M  V30 15678 N 1451.49 -0.619688 -1.44906 0
M  V30 15679 C 1452.44 0.0920359 -2.30616 0
M  V30 15680 C 1453.41 0.848114 -1.42815 0
M  V30 15681 O 1454.6 0.831439 -1.71732 0
M  V30 15682 C 1451.74 1.07537 -3.27917 0
M  V30 15683 C 1450.85 0.318904 -4.30821 0
M  V30 15684 C 1449.98 1.29303 -5.15222 0
M  V30 15685 C 1449.02 0.525071 -6.09844 0
M  V30 15686 N 1448.16 1.44909 -6.86983 0
M  V30 15687 H 1453 -0.644834 -2.9094 0
M  V30 15688 H 1450.54 -0.329785 -1.43356 0
M  V30 15689 H 1452.5 1.65874 -3.82808 0
M  V30 15690 H 1451.13 1.7795 -2.6932 0
M  V30 15691 H 1450.18 -0.380192 -3.78495 0
M  V30 15692 H 1451.49 -0.279742 -4.98015 0
M  V30 15693 H 1450.64 1.94809 -5.74573 0
M  V30 15694 H 1449.38 1.92561 -4.48076 0
M  V30 15695 H 1448.39 -0.14355 -5.49613 0
M  V30 15696 H 1449.61 -0.102625 -6.79022 0
M  V30 15697 H 1447.56 2.06908 -6.22515 0
M  V30 15698 H 1447.48 0.90418 -7.50574 0
M  V30 15699 H 1448.74 2.09335 -7.50866 0
M  V30 15700 N 1452.97 1.53444 -0.359552 0
M  V30 15701 C 1453.92 2.27053 0.504949 0
M  V30 15702 C 1454.91 1.29801 1.08849 0
M  V30 15703 O 1456.12 1.47451 1.03239 0
M  V30 15704 H 1452.5 0.729756 0.181549 0
M  V30 15705 H 1454.47 2.98082 -0.137719 0
M  V30 15706 C 1453.22 3.06815 1.63585 0
M  V30 15707 H 1452.54 3.81488 1.19611 0
M  V30 15708 H 1453.98 3.61508 2.21558 0
M  V30 15709 C 1452.44 2.17286 2.57466 0
M  V30 15710 O 1452.97 1.77961 3.60129 0
M  V30 15711 N 1451.17 1.82041 2.26516 0
M  V30 15712 H 1450.72 2.14218 1.43068 0
M  V30 15713 H 1450.68 1.22423 2.89586 0
M  V30 15714 N 1454.45 0.0885642 1.57351 0
M  V30 15715 C 1455.68 -0.588641 1.98871 0
M  V30 15716 C 1456.1 -1.61333 0.967125 0
M  V30 15717 O 1455.46 -1.81183 -0.0652149 0
M  V30 15718 C 1455.51 -1.21877 3.39379 0
M  V30 15719 O 1454.61 -2.33462 3.39955 0
M  V30 15720 H 1453.95 -0.149938 0.64685 0
M  V30 15721 H 1456.48 0.168043 2.03909 0
M  V30 15722 H 1456.49 -1.56163 3.76931 0
M  V30 15723 H 1455.17 -0.468037 4.13258 0
M  V30 15724 H 1453.74 -2.00844 3.14191 0
M  V30 15725 N 1455.93 -1.56509 -0.185096 0
M  V30 15726 C 1456.88 -1.95336 -1.22934 0
M  V30 15727 C 1457.85 -0.81532 -1.44713 0
M  V30 15728 O 1459.03 -1.07431 -1.57681 0
M  V30 15729 C 1456.17 -2.30671 -2.56681 0
M  V30 15730 C 1455.28 -3.57586 -2.42397 0
M  V30 15731 C 1454.42 -3.82197 -3.68916 0
M  V30 15732 C 1453.46 -5.02505 -3.49507 0
M  V30 15733 N 1452.59 -5.23319 -4.68062 0
M  V30 15734 H 1457.43 -2.84361 -0.89123 0
M  V30 15735 H 1454.97 -1.40715 -0.428689 0
M  V30 15736 H 1456.93 -2.49176 -3.34615 0
M  V30 15737 H 1455.56 -1.44773 -2.88514 0
M  V30 15738 H 1454.61 -3.47072 -1.55709 0
M  V30 15739 H 1455.92 -4.45677 -2.23994 0
M  V30 15740 H 1455.08 -4.00996 -4.55288 0
M  V30 15741 H 1453.82 -2.92455 -3.90284 0
M  V30 15742 H 1452.82 -4.83619 -2.6152 0
M  V30 15743 H 1454.05 -5.93765 -3.29574 0
M  V30 15744 H 1451.99 -4.36526 -4.89674 0
M  V30 15745 H 1451.91 -6.05608 -4.52521 0
M  V30 15746 H 1453.18 -5.46585 -5.55757 0
M  V30 15747 N 1457.41 0.45317 -1.50944 0
M  V30 15748 C 1458.65 1.20389 -1.62827 0
M  V30 15749 C 1458.98 1.91559 -0.336982 0
M  V30 15750 O 1458.24 1.83574 0.678153 0
M  V30 15751 C 1458.54 2.25747 -2.7708 0
M  V30 15752 C 1458.2 1.71703 -4.16928 0
M  V30 15753 C 1456.86 1.56686 -4.54976 0
M  V30 15754 C 1459.22 1.31804 -5.04259 0
M  V30 15755 C 1456.54 1.0022 -5.78077 0
M  V30 15756 C 1458.9 0.767738 -6.27924 0
M  V30 15757 C 1457.56 0.604341 -6.64759 0
M  V30 15758 H 1456.83 0.440536 -0.595827 0
M  V30 15759 H 1459.48 0.497234 -1.84932 0
M  V30 15760 H 1457.78 3.0239 -2.49134 0
M  V30 15761 H 1459.48 2.83625 -2.83475 0
M  V30 15762 H 1456.07 1.84364 -3.86921 0
M  V30 15763 H 1460.25 1.42233 -4.75482 0
M  V30 15764 H 1455.51 0.863228 -6.05275 0
M  V30 15765 H 1459.68 0.449994 -6.94945 0
M  V30 15766 H 1457.31 0.164663 -7.60022 0
M  V30 15767 N 1458.88 1.40823 0.707568 0
M  V30 15768 C 1459.83 1.41724 1.82162 0
M  V30 15769 C 1460.8 0.273135 1.63839 0
M  V30 15770 O 1461.99 0.472399 1.84859 0
M  V30 15771 C 1459.13 1.29347 3.19943 0
M  V30 15772 C 1458.24 2.53529 3.49782 0
M  V30 15773 C 1457.37 2.33533 4.77112 0
M  V30 15774 C 1456.41 3.53252 4.9988 0
M  V30 15775 N 1455.55 3.32401 6.18429 0
M  V30 15776 H 1460.39 2.36943 1.80726 0
M  V30 15777 H 1457.93 1.17671 0.882723 0
M  V30 15778 H 1459.89 1.20175 3.99517 0
M  V30 15779 H 1458.52 0.377426 3.20586 0
M  V30 15780 H 1457.57 2.73198 2.64702 0
M  V30 15781 H 1458.88 3.42617 3.62512 0
M  V30 15782 H 1458.03 2.2176 5.64719 0
M  V30 15783 H 1456.77 1.41883 4.66605 0
M  V30 15784 H 1455.78 3.65492 4.10725 0
M  V30 15785 H 1457 4.4584 5.12253 0
M  V30 15786 H 1454.95 2.4344 6.09158 0
M  V30 15787 H 1454.87 4.15059 6.31872 0
M  V30 15788 H 1456.13 3.24377 7.08802 0
M  V30 15789 N 1460.36 -0.94061 1.26453 0
M  V30 15790 C 1461.31 -2.06073 1.07873 0
M  V30 15791 C 1462.3 -1.69399 0.0055001 0
M  V30 15792 O 1463.51 -1.79267 0.162224 0
M  V30 15793 H 1459.89 -0.674748 0.331993 0
M  V30 15794 H 1461.86 -2.18895 2.02799 0
M  V30 15795 C 1460.61 -3.39971 0.729054 0
M  V30 15796 H 1459.93 -3.68667 1.54675 0
M  V30 15797 H 1461.37 -4.1916 0.638844 0
M  V30 15798 C 1459.83 -3.32114 -0.565835 0
M  V30 15799 O 1460.36 -3.68287 -1.60399 0
M  V30 15800 N 1458.56 -2.85218 -0.556679 0
M  V30 15801 H 1458.11 -2.55979 0.288541 0
M  V30 15802 H 1458.07 -2.80344 -1.42318 0
M  V30 15803 N 1461.84 -1.08266 -1.14527 0
M  V30 15804 C 1463.09 -0.811459 -1.85531 0
M  V30 15805 C 1463.42 0.662726 -1.82861 0
M  V30 15806 O 1462.67 1.50296 -1.25338 0
M  V30 15807 C 1462.97 -1.27675 -3.33817 0
M  V30 15808 C 1462.64 -2.7585 -3.56676 0
M  V30 15809 C 1461.3 -3.16319 -3.62623 0
M  V30 15810 C 1463.65 -3.71446 -3.65619 0
M  V30 15811 C 1460.98 -4.51183 -3.75035 0
M  V30 15812 C 1463.33 -5.06083 -3.79556 0
M  V30 15813 C 1461.99 -5.4616 -3.83752 0
M  V30 15814 H 1461.26 -0.296934 -0.678904 0
M  V30 15815 H 1463.91 -1.35533 -1.35288 0
M  V30 15816 H 1462.22 -0.65244 -3.86329 0
M  V30 15817 H 1463.91 -1.04369 -3.8718 0
M  V30 15818 H 1460.5 -2.43526 -3.52694 0
M  V30 15819 H 1464.69 -3.41301 -3.60316 0
M  V30 15820 H 1459.94 -4.81689 -3.76545 0
M  V30 15821 H 1464.12 -5.80022 -3.85418 0
M  V30 15822 H 1461.74 -6.50661 -3.93121 0
M  V30 15823 N 1463.32 1.31536 -0.86811 0
M  V30 15824 C 1464.74 1.49461 -0.559778 0
M  V30 15825 C 1464.94 1.79957 0.906525 0
M  V30 15826 O 1463.99 1.87711 1.68881 0
M  V30 15827 C 1465.3 2.62967 -1.45839 0
M  V30 15828 C 1466.85 2.76851 -1.46023 0
M  V30 15829 C 1467.33 3.93451 -2.34436 0
M  V30 15830 N 1468.82 4.00735 -2.32306 0
M  V30 15831 C 1469.55 4.90223 -2.97437 0
M  V30 15832 N 1469.05 5.84626 -3.71731 0
M  V30 15833 N 1470.84 4.83454 -2.86755 0
M  V30 15834 H 1462.99 1.1001 -1.81691 0
M  V30 15835 H 1465.26 0.543418 -0.776789 0
M  V30 15836 H 1464.96 2.47203 -2.50168 0
M  V30 15837 H 1464.84 3.59063 -1.15556 0
M  V30 15838 H 1467.22 2.9203 -0.424527 0
M  V30 15839 H 1467.3 1.81427 -1.80327 0
M  V30 15840 H 1466.95 3.79029 -3.38082 0
M  V30 15841 H 1466.88 4.88179 -1.97457 0
M  V30 15842 H 1469.37 3.33191 -1.78303 0
M  V30 15843 H 1469.68 6.49635 -4.18562 0
M  V30 15844 H 1468.03 5.84611 -3.75839 0
M  V30 15845 H 1471.22 4.08678 -2.28254 0
M  V30 15846 H 1471.39 5.52991 -3.37795 0
M  V30 15847 N 1464.8 0.627364 1.44575 0
M  V30 15848 C 1466.04 0.130545 2.02379 0
M  V30 15849 C 1466.38 -1.24301 1.49208 0
M  V30 15850 O 1465.65 -1.82425 0.674626 0
M  V30 15851 C 1465.93 0.11311 3.59922 0
M  V30 15852 C 1465.79 1.51874 4.23385 0
M  V30 15853 C 1467.11 -0.564341 4.36467 0
M  V30 15854 H 1464.23 0.0489125 0.735375 0
M  V30 15855 H 1466.87 0.803118 1.72192 0
M  V30 15856 H 1465.02 -0.459621 3.85772 0
M  V30 15857 H 1466.69 2.14007 4.08655 0
M  V30 15858 H 1464.93 2.07371 3.81024 0
M  V30 15859 H 1465.6 1.4586 5.3238 0
M  V30 15860 H 1468.08 -0.0773244 4.16028 0
M  V30 15861 H 1466.96 -0.545715 5.46181 0
M  V30 15862 H 1467.22 -1.63403 4.10794 0
M  V30 15863 N 1466.28 -1.53251 0.367684 0
M  V30 15864 C 1467.51 -2.05407 -0.221725 0
M  V30 15865 C 1467.91 -1.24081 -1.4283 0
M  V30 15866 O 1467.26 -0.275005 -1.8163 0
M  V30 15867 C 1467.32 -3.53063 -0.677281 0
M  V30 15868 C 1466.98 -4.55131 0.412894 0
M  V30 15869 C 1467.98 -5.04315 1.26343 0
M  V30 15870 C 1465.66 -4.99013 0.573739 0
M  V30 15871 C 1467.66 -5.95984 2.26014 0
M  V30 15872 C 1465.35 -5.90487 1.57381 0
M  V30 15873 C 1466.34 -6.38863 2.41544 0
M  V30 15874 O 1466.03 -7.28533 3.39845 0
M  V30 15875 H 1465.76 -0.674679 -0.0422413 0
M  V30 15876 H 1468.32 -1.98577 0.52501 0
M  V30 15877 H 1466.55 -3.57437 -1.47565 0
M  V30 15878 H 1468.24 -3.88066 -1.18993 0
M  V30 15879 H 1469 -4.7116 1.15037 0
M  V30 15880 H 1464.88 -4.60944 -0.0715806 0
M  V30 15881 H 1468.43 -6.33666 2.91742 0
M  V30 15882 H 1464.32 -6.23056 1.68734 0
M  V30 15883 H 1465.09 -7.46536 3.35598 0
M  V30 15884 N 1467.75 -0.0969077 -1.57302 0
M  V30 15885 C 1468.98 0.573872 -1.9847 0
M  V30 15886 C 1469.39 1.62149 -0.974894 0
M  V30 15887 O 1468.73 1.83649 0.0434873 0
M  V30 15888 C 1468.8 1.2781 -3.36013 0
M  V30 15889 C 1468.46 0.381022 -4.55409 0
M  V30 15890 C 1469.46 -0.371559 -5.18571 0
M  V30 15891 C 1467.14 0.29855 -5.01412 0
M  V30 15892 C 1469.14 -1.19457 -6.26106 0
M  V30 15893 C 1466.82 -0.528116 -6.08814 0
M  V30 15894 C 1467.82 -1.27333 -6.71026 0
M  V30 15895 O 1467.51 -2.08631 -7.76356 0
M  V30 15896 H 1467.24 0.158369 -0.657187 0
M  V30 15897 H 1469.8 -0.173415 -2.04667 0
M  V30 15898 H 1468.03 2.07199 -3.26505 0
M  V30 15899 H 1469.71 1.84359 -3.61617 0
M  V30 15900 H 1470.48 -0.317586 -4.83959 0
M  V30 15901 H 1466.36 0.868247 -4.5275 0
M  V30 15902 H 1469.9 -1.77673 -6.74595 0
M  V30 15903 H 1465.8 -0.583563 -6.42857 0
M  V30 15904 H 1466.57 -2.01333 -7.93352 0
M  V30 15905 N 1469.23 1.56605 0.176793 0
M  V30 15906 C 1470.65 1.50601 0.528354 0
M  V30 15907 C 1470.85 0.800205 1.8493 0
M  V30 15908 O 1469.9 0.358299 2.49945 0
M  V30 15909 C 1471.22 2.95322 0.566172 0
M  V30 15910 C 1472.76 3.06097 0.653751 0
M  V30 15911 C 1473.24 4.52265 0.722511 0
M  V30 15912 N 1474.73 4.5649 0.785548 0
M  V30 15913 C 1475.47 5.66926 0.859232 0
M  V30 15914 N 1474.96 6.87006 0.894088 0
M  V30 15915 N 1476.75 5.54883 0.897832 0
M  V30 15916 H 1468.91 2.00899 -0.689442 0
M  V30 15917 H 1471.17 0.915011 -0.24791 0
M  V30 15918 H 1470.87 3.50095 -0.33566 0
M  V30 15919 H 1470.75 3.49671 1.41456 0
M  V30 15920 H 1473.14 2.51361 1.54601 0
M  V30 15921 H 1473.22 2.54842 -0.221207 0
M  V30 15922 H 1472.86 5.0763 -0.165469 0
M  V30 15923 H 1472.79 5.01271 1.61353 0
M  V30 15924 H 1475.28 3.70032 0.767117 0
M  V30 15925 H 1475.59 7.66922 0.951333 0
M  V30 15926 H 1473.94 6.89628 0.862457 0
M  V30 15927 H 1477.13 4.5999 0.867564 0
M  V30 15928 H 1477.3 6.40972 0.951795 0
M  V30 15929 N 1470.71 -0.445159 1.51182 0
M  V30 15930 C 1471.62 -1.5651 1.74762 0
M  V30 15931 C 1472.64 -1.62134 0.631542 0
M  V30 15932 O 1473.81 -1.79522 0.912898 0
M  V30 15933 C 1470.88 -2.92552 1.86049 0
M  V30 15934 C 1469.94 -2.97108 3.0988 0
M  V30 15935 C 1469.17 -4.2666 3.2062 0
M  V30 15936 O 1469.39 -5.18608 2.37491 0
M  V30 15937 O 1468.33 -4.3734 4.13542 0
M  V30 15938 H 1472.15 -1.3953 2.6975 0
M  V30 15939 H 1469.74 -0.627363 1.3559 0
M  V30 15940 H 1471.62 -3.73304 1.95504 0
M  V30 15941 H 1470.3 -3.09676 0.94248 0
M  V30 15942 H 1469.2 -2.15338 3.05909 0
M  V30 15943 H 1470.54 -2.84927 4.01345 0
M  V30 15944 N 1472.19 -1.41197 -0.700089 0
M  V30 15945 C 1473.44 -1.40034 -1.45722 0
M  V30 15946 C 1473.76 -0.00876281 -1.94998 0
M  V30 15947 O 1473.03 0.948647 -1.71399 0
M  V30 15948 H 1471.61 -0.515433 -0.540683 0
M  V30 15949 H 1474.27 -1.76394 -0.828926 0
M  V30 15950 H 1473.36 -2.08477 -2.32258 0
M  V30 15951 N 1473.67 0.933891 -1.2695 0
M  V30 15952 C 1475.08 1.20873 -1.0422 0
M  V30 15953 C 1475.28 2.00205 0.228112 0
M  V30 15954 O 1474.34 2.34539 0.935284 0
M  V30 15955 C 1475.65 1.9629 -2.27795 0
M  V30 15956 C 1477.2 2.09254 -2.3277 0
M  V30 15957 C 1477.67 2.88075 -3.56057 0
M  V30 15958 N 1479.16 2.95646 -3.56578 0
M  V30 15959 C 1479.9 3.57082 -4.48642 0
M  V30 15960 N 1479.4 4.1996 -5.51004 0
M  V30 15961 N 1481.19 3.54425 -4.36279 0
M  V30 15962 H 1473.34 0.403735 -2.08528 0
M  V30 15963 H 1475.6 0.241189 -0.916805 0
M  V30 15964 H 1475.31 1.45412 -3.20231 0
M  V30 15965 H 1475.18 2.9693 -2.32621 0
M  V30 15966 H 1477.57 2.5932 -1.40844 0
M  V30 15967 H 1477.65 1.07854 -2.31951 0
M  V30 15968 H 1477.29 2.38693 -4.48317 0
M  V30 15969 H 1477.22 3.89746 -3.54126 0
M  V30 15970 H 1479.72 2.50951 -2.82545 0
M  V30 15971 H 1480.03 4.64758 -6.1743 0
M  V30 15972 H 1478.37 4.18525 -5.54853 0
M  V30 15973 H 1481.56 3.045 -3.55524 0
M  V30 15974 H 1481.74 4.02016 -5.0822 0
M  V30 15975 N 1475.14 1.08871 1.13951 0
M  V30 15976 C 1476.42 0.73388 1.81311 0
M  V30 15977 C 1476.8 -0.781824 1.96089 0
M  V30 15978 O 1476.15 -1.70211 1.52448 0
M  V30 15979 C 1476.36 1.46631 3.16702 0
M  V30 15980 C 1477.71 1.62843 3.92132 0
M  V30 15981 O 1478.73 1.42836 3.26307 0
M  V30 15982 O 1477.59 1.95893 5.10185 0
M  V30 15983 H 1474.68 0.262976 0.784074 0
M  V30 15984 H 1477.23 1.19057 1.20927 0
M  V30 15985 H 1476 2.49863 3.01138 0
M  V30 15986 H 1475.62 1.00141 3.84782 0
M  V30 15987 N 1476.62 -1.31073 0.875073 0
M  V30 15988 C 1477.55 -2.27335 0.291809 0
M  V30 15989 C 1478.57 -1.53298 -0.548036 0
M  V30 15990 O 1479.76 -1.7464 -0.369198 0
M  V30 15991 C 1476.86 -3.33465 -0.604521 0
M  V30 15992 C 1476.03 -4.36924 0.204029 0
M  V30 15993 C 1475.09 -5.2252 -0.621238 0
M  V30 15994 O 1474.11 -5.6918 -0.0474551 0
M  V30 15995 N 1475.32 -5.47397 -1.93227 0
M  V30 15996 H 1478.08 -2.78024 1.11906 0
M  V30 15997 H 1475.64 -1.44149 0.737064 0
M  V30 15998 H 1477.63 -3.87646 -1.16243 0
M  V30 15999 H 1476.2 -2.8278 -1.33244 0
M  V30 16000 H 1475.42 -3.82745 0.943389 0
M  V30 16001 H 1476.71 -5.03112 0.758644 0
M  V30 16002 H 1476.11 -5.11253 -2.4215 0
M  V30 16003 H 1474.67 -6.04493 -2.43785 0
M  V30 16004 N 1478.1 -0.635022 -1.4424 0
M  V30 16005 C 1479.03 0.0543561 -2.33437 0
M  V30 16006 C 1480.01 0.830807 -1.48431 0
M  V30 16007 O 1481.2 0.795913 -1.77141 0
M  V30 16008 C 1478.33 1.03391 -3.31553 0
M  V30 16009 C 1477.28 0.368824 -4.26408 0
M  V30 16010 C 1476.61 1.45855 -5.14422 0
M  V30 16011 C 1477.91 -0.727381 -5.1721 0
M  V30 16012 H 1479.6 -0.690489 -2.91329 0
M  V30 16013 H 1477.15 -0.3335 -1.40085 0
M  V30 16014 H 1479.1 1.52495 -3.9284 0
M  V30 16015 H 1477.82 1.80969 -2.71878 0
M  V30 16016 H 1476.48 -0.101605 -3.66459 0
M  V30 16017 H 1476.13 2.22531 -4.51098 0
M  V30 16018 H 1475.83 1.0189 -5.78699 0
M  V30 16019 H 1477.35 1.95132 -5.78581 0
M  V30 16020 H 1478.77 -0.319272 -5.7241 0
M  V30 16021 H 1477.17 -1.09041 -5.9011 0
M  V30 16022 H 1478.24 -1.59292 -4.57989 0
M  V30 16023 N 1479.58 1.53054 -0.375806 0
M  V30 16024 C 1480.82 2.02379 0.203516 0
M  V30 16025 C 1481.18 1.25788 1.45586 0
M  V30 16026 O 1480.47 0.345983 1.8845 0
M  V30 16027 C 1480.67 3.53321 0.538419 0
M  V30 16028 C 1480.5 4.4453 -0.679917 0
M  V30 16029 C 1479.27 4.90964 -1.1951 0
M  V30 16030 C 1481.46 4.90444 -1.54821 0
M  V30 16031 N 1479.45 5.66207 -2.37239 0
M  V30 16032 C 1480.82 5.64132 -2.57206 0
M  V30 16033 C 1482.87 4.72503 -1.56989 0
M  V30 16034 C 1481.57 6.21786 -3.61627 0
M  V30 16035 C 1483.6 5.3103 -2.6031 0
M  V30 16036 C 1482.96 6.04613 -3.61417 0
M  V30 16037 H 1479.06 0.781128 0.0369159 0
M  V30 16038 H 1481.65 1.87554 -0.522657 0
M  V30 16039 H 1479.82 3.68287 1.23366 0
M  V30 16040 H 1481.55 3.89359 1.10372 0
M  V30 16041 H 1478.3 4.67492 -0.758156 0
M  V30 16042 H 1478.73 6.08487 -2.96771 0
M  V30 16043 H 1483.37 4.15129 -0.801715 0
M  V30 16044 H 1481.09 6.7825 -4.39321 0
M  V30 16045 H 1484.67 5.19037 -2.62854 0
M  V30 16046 H 1483.55 6.49093 -4.40054 0
M  V30 16047 N 1481.06 0.105248 1.57248 0
M  V30 16048 C 1482 -0.850012 2.14577 0
M  V30 16049 C 1482.97 -1.27294 1.06703 0
M  V30 16050 O 1484.16 -1.35289 1.34542 0
M  V30 16051 C 1481.3 -2.09993 2.73856 0
M  V30 16052 C 1480.41 -1.72662 3.95995 0
M  V30 16053 C 1479.55 -2.92517 4.43404 0
M  V30 16054 C 1478.59 -2.5136 5.58108 0
M  V30 16055 N 1477.72 -3.64082 6.00324 0
M  V30 16056 H 1482.56 -0.354282 2.95887 0
M  V30 16057 H 1480.1 -0.163192 1.46192 0
M  V30 16058 H 1482.06 -2.83208 3.06348 0
M  V30 16059 H 1480.69 -2.57048 1.95259 0
M  V30 16060 H 1479.74 -0.893754 3.69752 0
M  V30 16061 H 1481.05 -1.38406 4.79213 0
M  V30 16062 H 1480.21 -3.73973 4.77734 0
M  V30 16063 H 1478.94 -3.2999 3.59107 0
M  V30 16064 H 1477.95 -1.68333 5.23397 0
M  V30 16065 H 1479.17 -2.15019 6.44161 0
M  V30 16066 H 1477.12 -4.01255 5.18971 0
M  V30 16067 H 1477.04 -3.33705 6.78363 0
M  V30 16068 H 1478.31 -4.46019 6.39287 0
M  V30 16069 N 1482.53 -1.56697 -0.168486 0
M  V30 16070 C 1483.78 -1.81794 -0.882907 0
M  V30 16071 C 1484.1 -0.682707 -1.82658 0
M  V30 16072 O 1483.37 0.297234 -1.93632 0
M  V30 16073 H 1481.95 -0.670636 -0.329024 0
M  V30 16074 H 1484.62 -1.94178 -0.167625 0
M  V30 16075 H 1483.71 -2.75945 -1.45811 0
M  V30 16076 N 1484.01 0.437135 -1.51416 0
M  V30 16077 C 1485.42 1.01699 -1.5657 0
M  V30 16078 C 1485.77 1.92299 -0.389291 0
M  V30 16079 O 1484.9 2.10689 0.49389 0
M  V30 16080 C 1485.49 1.85119 -2.83754 0
M  V30 16081 C 1484.05 2.38154 -2.91478 0
M  V30 16082 C 1483.2 1.17374 -2.51234 0
M  V30 16083 H 1486.15 0.218399 -1.5719 0
M  V30 16084 H 1486.17 2.70572 -2.67528 0
M  V30 16085 H 1485.68 1.19153 -3.69357 0
M  V30 16086 H 1483.79 3.07575 -2.10306 0
M  V30 16087 H 1483.9 2.70937 -3.95133 0
M  V30 16088 H 1482.26 1.51913 -2.04437 0
M  V30 16089 H 1483.05 0.530176 -3.39181 0
M  V30 16090 N 1485.49 1.41566 0.692592 0
M  V30 16091 C 1486.74 1.40805 1.44978 0
M  V30 16092 C 1487.06 0.0191039 1.94991 0
M  V30 16093 O 1486.33 -0.939544 1.71899 0
M  V30 16094 H 1484.91 0.518293 0.537942 0
M  V30 16095 H 1487.57 1.76831 0.81956 0
M  V30 16096 H 1486.67 2.09706 2.31149 0
M  V30 16097 N 1486.97 -0.927146 1.27443 0
M  V30 16098 C 1487.88 -2.06122 1.12031 0
M  V30 16099 C 1488.89 -1.73928 0.0501979 0
M  V30 16100 O 1490.07 -1.99756 0.256796 0
M  V30 16101 C 1487.14 -3.3805 0.769634 0
M  V30 16102 C 1486.2 -3.83938 1.92068 0
M  V30 16103 C 1485.43 -5.0957 1.58664 0
M  V30 16104 O 1485.65 -5.6825 0.494789 0
M  V30 16105 O 1484.59 -5.50844 2.42599 0
M  V30 16106 H 1488.41 -2.22037 2.07203 0
M  V30 16107 H 1486 -1.04638 1.06636 0
M  V30 16108 H 1487.88 -4.17286 0.587423 0
M  V30 16109 H 1486.55 -3.2334 -0.152557 0
M  V30 16110 H 1485.46 -3.05587 2.15795 0
M  V30 16111 H 1486.79 -4.0319 2.8231 0
M  V30 16112 N 1488.45 -1.09474 -1.13372 0
M  V30 16113 C 1489.38 -0.756441 -2.20908 0
M  V30 16114 C 1490.36 0.266113 -1.68006 0
M  V30 16115 O 1491.54 0.134067 -1.93737 0
M  V30 16116 C 1488.67 -0.176733 -3.4685 0
M  V30 16117 C 1487.63 -1.12886 -4.12845 0
M  V30 16118 C 1486.95 -0.410831 -5.33119 0
M  V30 16119 C 1488.25 -2.47148 -4.60125 0
M  V30 16120 H 1489.95 -1.65555 -2.49463 0
M  V30 16121 H 1487.49 -0.797458 -1.19902 0
M  V30 16122 H 1489.45 0.0720151 -4.21338 0
M  V30 16123 H 1488.17 0.757576 -3.17692 0
M  V30 16124 H 1486.83 -1.36289 -3.40325 0
M  V30 16125 H 1486.48 0.527632 -5.00225 0
M  V30 16126 H 1486.18 -1.04567 -5.78221 0
M  V30 16127 H 1487.7 -0.170394 -6.10362 0
M  V30 16128 H 1489.11 -2.27949 -5.26034 0
M  V30 16129 H 1487.51 -3.06425 -5.15969 0
M  V30 16130 H 1488.58 -3.07874 -3.74622 0
M  V30 16131 N 1489.92 1.30607 -0.882012 0
M  V30 16132 C 1490.85 2.30666 -0.362706 0
M  V30 16133 C 1491.84 1.60865 0.552861 0
M  V30 16134 O 1493.02 1.88493 0.467339 0
M  V30 16135 C 1490.15 3.44675 0.42622 0
M  V30 16136 C 1489.1 4.26152 -0.397322 0
M  V30 16137 C 1488.43 5.32185 0.518027 0
M  V30 16138 C 1489.73 4.95955 -1.63785 0
M  V30 16139 H 1491.42 2.74351 -1.19883 0
M  V30 16140 H 1488.97 1.31895 -0.577912 0
M  V30 16141 H 1490.92 4.13734 0.80013 0
M  V30 16142 H 1489.65 2.99787 1.29597 0
M  V30 16143 H 1488.31 3.58776 -0.753332 0
M  V30 16144 H 1487.95 4.83545 1.3854 0
M  V30 16145 H 1487.65 5.87593 -0.0291802 0
M  V30 16146 H 1489.18 6.04101 0.888518 0
M  V30 16147 H 1490.59 5.57547 -1.3347 0
M  V30 16148 H 1488.99 5.61215 -2.12504 0
M  V30 16149 H 1490.06 4.22252 -2.38394 0
M  V30 16150 N 1491.4 0.642663 1.43901 0
M  V30 16151 C 1492.65 0.160564 2.02765 0
M  V30 16152 C 1493 -1.20827 1.49729 0
M  V30 16153 O 1492.3 -1.79263 0.676425 0
M  V30 16154 C 1492.49 0.100139 3.5726 0
M  V30 16155 C 1492.32 1.46157 4.25286 0
M  V30 16156 C 1491.09 2.05128 4.6179 0
M  V30 16157 C 1493.29 2.39781 4.54983 0
M  V30 16158 N 1491.27 3.34387 5.14839 0
M  V30 16159 C 1492.64 3.53663 5.09237 0
M  V30 16160 C 1494.7 2.38716 4.36943 0
M  V30 16161 C 1493.4 4.66691 5.4735 0
M  V30 16162 C 1495.42 3.50816 4.76112 0
M  V30 16163 C 1494.79 4.63422 5.30489 0
M  V30 16164 H 1490.89 0.102942 0.775195 0
M  V30 16165 H 1493.47 0.84867 1.7523 0
M  V30 16166 H 1491.64 -0.557279 3.84381 0
M  V30 16167 H 1493.37 -0.391854 4.02798 0
M  V30 16168 H 1490.13 1.57949 4.46485 0
M  V30 16169 H 1490.55 4.00502 5.45827 0
M  V30 16170 H 1495.19 1.529 3.94185 0
M  V30 16171 H 1492.91 5.53206 5.89057 0
M  V30 16172 H 1496.5 3.51181 4.63857 0
M  V30 16173 H 1495.38 5.4873 5.60237 0
M  V30 16174 N 1492.88 -1.52852 0.383918 0
M  V30 16175 C 1493.83 -2.26294 -0.453826 0
M  V30 16176 C 1494.8 -1.27688 -1.0623 0
M  V30 16177 O 1495.98 -1.56507 -1.09134 0
M  V30 16178 C 1493.12 -3.06907 -1.57803 0
M  V30 16179 C 1492.24 -4.20434 -0.992943 0
M  V30 16180 C 1491.37 -4.88453 -2.08776 0
M  V30 16181 C 1490.41 -5.93981 -1.47828 0
M  V30 16182 N 1489.55 -6.55617 -2.51218 0
M  V30 16183 H 1494.39 -2.97462 0.178927 0
M  V30 16184 H 1491.92 -1.46759 0.100066 0
M  V30 16185 H 1493.88 -3.51933 -2.24052 0
M  V30 16186 H 1492.51 -2.37959 -2.18118 0
M  V30 16187 H 1491.56 -3.79762 -0.22021 0
M  V30 16188 H 1492.88 -4.96211 -0.507504 0
M  V30 16189 H 1492.03 -5.36755 -2.82806 0
M  V30 16190 H 1490.77 -4.12187 -2.60678 0
M  V30 16191 H 1489.77 -5.45023 -0.723202 0
M  V30 16192 H 1491 -6.72176 -0.967278 0
M  V30 16193 H 1488.95 -5.82195 -3.02299 0
M  V30 16194 H 1488.86 -7.26991 -2.07414 0
M  V30 16195 H 1490.13 -7.08564 -3.24895 0
M  V30 16196 N 1494.36 -0.113586 -1.5719 0
M  V30 16197 C 1495.61 0.544642 -1.94623 0
M  V30 16198 C 1495.93 1.6756 -0.997428 0
M  V30 16199 O 1495.2 1.95829 -0.0527521 0
M  V30 16200 H 1493.78 0.204186 -0.718552 0
M  V30 16201 H 1496.44 -0.181258 -1.94055 0
M  V30 16202 H 1495.54 0.942765 -2.9752 0
M  V30 16203 N 1495.84 1.56784 0.160173 0
M  V30 16204 C 1496.75 2.00514 1.21783 0
M  V30 16205 C 1497.76 0.918341 1.47792 0
M  V30 16206 O 1498.94 1.22683 1.59721 0
M  V30 16207 C 1496 2.36575 2.53443 0
M  V30 16208 C 1495.07 3.59138 2.35198 0
M  V30 16209 C 1494.3 3.93469 3.6058 0
M  V30 16210 O 1494.52 3.28625 4.6622 0
M  V30 16211 O 1493.46 4.86774 3.54027 0
M  V30 16212 H 1497.28 2.90774 0.876607 0
M  V30 16213 H 1494.87 1.44799 0.367897 0
M  V30 16214 H 1496.75 2.60687 3.31089 0
M  V30 16215 H 1495.42 1.49474 2.87122 0
M  V30 16216 H 1494.33 3.4023 1.55546 0
M  V30 16217 H 1495.66 4.46815 2.0644 0
M  V30 16218 N 1497.32 -0.429099 1.51646 0
M  V30 16219 C 1498.56 -1.17551 1.64396 0
M  V30 16220 C 1498.88 -1.91526 0.366444 0
M  V30 16221 O 1498.15 -1.85896 -0.618013 0
M  V30 16222 H 1496.73 -0.436918 0.605898 0
M  V30 16223 H 1499.4 -0.491159 1.8861 0
M  V30 16224 H 1498.49 -1.90057 2.47557 0
M  V30 16225 N 1498.79 -1.41931 -0.685074 0
M  V30 16226 C 1499.76 -1.44315 -1.78061 0
M  V30 16227 C 1500.76 -0.332215 -1.57331 0
M  V30 16228 O 1501.95 -0.59258 -1.63811 0
M  V30 16229 C 1499.08 -1.26479 -3.16569 0
M  V30 16230 H 1500.27 -2.4185 -1.77337 0
M  V30 16231 H 1497.82 -1.28228 -0.893721 0
M  V30 16232 H 1498.56 -0.298259 -3.22926 0
M  V30 16233 H 1498.34 -2.06981 -3.33018 0
M  V30 16234 H 1499.83 -1.31006 -3.96519 0
M  V30 16235 N 1500.27 0.920374 -1.27933 0
M  V30 16236 C 1501.52 1.67131 -1.1487 0
M  V30 16237 C 1501.85 1.91816 0.303343 0
M  V30 16238 O 1501.13 1.51379 1.22125 0
M  V30 16239 C 1501.41 3.03332 -1.94066 0
M  V30 16240 C 1501.26 2.85842 -3.47296 0
M  V30 16241 C 1502.58 4.03773 -1.75087 0
M  V30 16242 H 1499.7 0.606537 -0.418666 0
M  V30 16243 H 1502.34 1.06755 -1.57173 0
M  V30 16244 H 1500.49 3.54869 -1.58116 0
M  V30 16245 H 1502.16 2.41367 -3.93115 0
M  V30 16246 H 1500.41 2.21035 -3.73264 0
M  V30 16247 H 1501.08 3.82535 -3.97958 0
M  V30 16248 H 1503.55 3.61274 -2.06447 0
M  V30 16249 H 1502.43 4.97048 -2.32882 0
M  V30 16250 H 1502.69 4.36512 -0.700665 0
M  V30 16251 N 1501.75 1.10074 1.1279 0
M  V30 16252 C 1503 0.835715 1.83572 0
M  V30 16253 C 1503.31 -0.640831 1.84805 0
M  V30 16254 O 1504.52 -1.02162 2.51545 0
M  V30 16255 C 1502.97 1.44519 3.29609 0
M  V30 16256 C 1502.58 2.95476 3.36746 0
M  V30 16257 C 1504.33 1.2594 4.05388 0
M  V30 16258 C 1502.23 3.49477 4.77095 0
M  V30 16259 H 1501.16 0.308974 0.687787 0
M  V30 16260 H 1503.81 1.32427 1.27025 0
M  V30 16261 H 1502.2 0.884323 3.86 0
M  V30 16262 H 1503.37 3.57846 2.90315 0
M  V30 16263 H 1501.68 3.13166 2.74437 0
M  V30 16264 H 1504.28 1.63732 5.09015 0
M  V30 16265 H 1504.62 0.200633 4.15816 0
M  V30 16266 H 1505.16 1.78814 3.55346 0
M  V30 16267 H 1501.9 4.55003 4.7186 0
M  V30 16268 H 1501.42 2.91873 5.23995 0
M  V30 16269 H 1503.1 3.47077 5.46028 0
M  V30 16270 N 1503.23 -1.30138 0.888926 0
M  V30 16271 C 1504.16 -2.3047 0.374934 0
M  V30 16272 C 1505.14 -1.61156 -0.544322 0
M  V30 16273 O 1506.32 -1.88738 -0.457337 0
M  V30 16274 C 1503.45 -3.44896 -0.407935 0
M  V30 16275 C 1502.41 -4.25935 0.419916 0
M  V30 16276 C 1501.73 -5.32452 -0.489797 0
M  V30 16277 C 1503.03 -4.9508 1.66413 0
M  V30 16278 H 1504.73 -2.73711 1.21337 0
M  V30 16279 H 1502.27 -1.31586 0.584899 0
M  V30 16280 H 1504.23 -4.14153 -0.778177 0
M  V30 16281 H 1502.95 -3.0047 -1.28005 0
M  V30 16282 H 1501.61 -3.58372 0.772348 0
M  V30 16283 H 1501.26 -4.84273 -1.35974 0
M  V30 16284 H 1500.96 -5.87569 0.0603412 0
M  V30 16285 H 1502.48 -6.04563 -0.856468 0
M  V30 16286 H 1503.9 -5.56831 1.36425 0
M  V30 16287 H 1502.29 -5.6008 2.15477 0
M  V30 16288 H 1503.36 -4.20981 2.4063 0
M  V30 16289 N 1504.71 -0.650285 -1.43559 0
M  V30 16290 C 1505.65 0.043098 -2.3076 0
M  V30 16291 C 1506.62 0.81763 -1.44582 0
M  V30 16292 O 1507.81 0.794825 -1.73457 0
M  V30 16293 C 1504.95 1.00557 -3.30125 0
M  V30 16294 C 1504.06 0.227448 -4.31401 0
M  V30 16295 C 1503.2 1.18345 -5.17849 0
M  V30 16296 C 1502.23 0.395596 -6.1082 0
M  V30 16297 N 1501.37 1.30304 -6.89902 0
M  V30 16298 H 1506.21 -0.706402 -2.89506 0
M  V30 16299 H 1503.75 -0.360118 -1.42624 0
M  V30 16300 H 1505.71 1.57717 -3.8624 0
M  V30 16301 H 1504.34 1.72198 -2.73034 0
M  V30 16302 H 1503.39 -0.460391 -3.77604 0
M  V30 16303 H 1504.7 -0.385316 -4.9731 0
M  V30 16304 H 1503.85 1.82578 -5.78576 0
M  V30 16305 H 1502.59 1.83013 -4.52059 0
M  V30 16306 H 1501.6 -0.260099 -5.49184 0
M  V30 16307 H 1502.82 -0.246633 -6.78652 0
M  V30 16308 H 1500.77 1.93657 -6.26764 0
M  V30 16309 H 1500.69 0.744768 -7.52323 0
M  V30 16310 H 1501.95 1.93361 -7.55137 0
M  V30 16311 N 1506.18 1.52647 -0.392018 0
M  V30 16312 C 1507.43 2.01912 0.18958 0
M  V30 16313 C 1507.76 1.27786 1.46234 0
M  V30 16314 O 1507.04 0.379124 1.90769 0
M  V30 16315 C 1507.32 3.57217 0.454734 0
M  V30 16316 C 1507.17 4.4201 -0.833501 0
M  V30 16317 C 1508.49 4.22146 1.24421 0
M  V30 16318 H 1505.61 0.733909 0.0674281 0
M  V30 16319 H 1508.25 1.82685 -0.52212 0
M  V30 16320 H 1506.4 3.73731 1.06101 0
M  V30 16321 H 1508.08 4.37242 -1.47027 0
M  V30 16322 H 1506.32 4.08912 -1.44823 0
M  V30 16323 H 1506.99 5.48701 -0.602585 0
M  V30 16324 H 1509.47 4.09627 0.731093 0
M  V30 16325 H 1508.34 5.30786 1.39848 0
M  V30 16326 H 1508.6 3.7996 2.26016 0
M  V30 16327 N 1507.66 0.121921 1.57128 0
M  V30 16328 C 1508.91 -0.534313 1.94909 0
M  V30 16329 C 1509.23 -1.67029 1.0063 0
M  V30 16330 O 1508.5 -1.95798 0.0631366 0
M  V30 16331 H 1507.08 -0.200372 0.719625 0
M  V30 16332 H 1509.74 0.191546 1.93956 0
M  V30 16333 H 1508.84 -0.926974 2.98016 0
M  V30 16334 N 1509.14 -1.56867 -0.151857 0
M  V30 16335 C 1510.37 -1.87237 -0.880343 0
M  V30 16336 C 1510.78 -0.709565 -1.74959 0
M  V30 16337 O 1510.14 0.320818 -1.79658 0
M  V30 16338 C 1510.19 -3.16811 -1.74107 0
M  V30 16339 O 1509.91 -4.28611 -0.906858 0
M  V30 16340 C 1511.41 -3.60662 -2.57755 0
M  V30 16341 H 1508.63 -0.62074 -0.254799 0
M  V30 16342 H 1511.18 -2.03977 -0.146104 0
M  V30 16343 H 1509.33 -3.01838 -2.42842 0
M  V30 16344 H 1509.75 -5.02673 -1.49733 0
M  V30 16345 H 1511.22 -4.54176 -3.13732 0
M  V30 16346 H 1511.7 -2.85716 -3.33561 0
M  V30 16347 H 1512.3 -3.78312 -1.94319 0
M  V30 16348 N 1510.62 0.421051 -1.51871 0
M  V30 16349 C 1511.9 1.18133 -1.55897 0
M  V30 16350 C 1512.28 2.08459 -0.332876 0
M  V30 16351 O 1511.62 2.18114 0.681052 0
M  V30 16352 C 1511.83 1.96902 -2.88151 0
M  V30 16353 C 1513.18 2.53382 -3.4071 0
M  V30 16354 O 1514.21 2.07095 -2.89811 0
M  V30 16355 O 1513.06 3.37846 -4.29561 0
M  V30 16356 H 1510.16 0.538721 -0.627462 0
M  V30 16357 H 1512.7 0.428798 -1.64193 0
M  V30 16358 H 1511.48 1.30659 -3.68841 0
M  V30 16359 H 1511.1 2.79185 -2.83093 0
M  V30 16360 N 1512.1 1.42293 0.677538 0
M  V30 16361 C 1513.35 1.41909 1.43334 0
M  V30 16362 C 1513.66 0.037951 1.95563 0
M  V30 16363 O 1514.86 -0.0884836 2.71356 0
M  V30 16364 C 1513.32 2.49608 2.59275 0
M  V30 16365 C 1512.93 3.93716 2.13757 0
M  V30 16366 C 1514.67 2.58387 3.36803 0
M  V30 16367 C 1512.58 4.92929 3.26764 0
M  V30 16368 H 1511.51 0.527803 0.538461 0
M  V30 16369 H 1514.16 1.6819 0.733791 0
M  V30 16370 H 1512.54 2.16488 3.31585 0
M  V30 16371 H 1513.72 4.36176 1.48618 0
M  V30 16372 H 1512.03 3.88762 1.49175 0
M  V30 16373 H 1514.63 3.29691 4.20961 0
M  V30 16374 H 1514.97 1.62653 3.8321 0
M  V30 16375 H 1515.5 2.90688 2.71561 0
M  V30 16376 H 1512.24 5.90131 2.85352 0
M  V30 16377 H 1511.76 4.55103 3.90694 0
M  V30 16378 H 1513.44 5.1452 3.92273 0
M  V30 16379 N 1513.57 -0.913576 1.28419 0
M  V30 16380 C 1514.52 -2.01603 1.12361 0
M  V30 16381 C 1515.49 -1.66087 0.0206953 0
M  V30 16382 O 1516.68 -1.89895 0.185659 0
M  V30 16383 C 1513.82 -3.35897 0.791655 0
M  V30 16384 C 1512.93 -3.84281 1.97363 0
M  V30 16385 C 1512.06 -5.07087 1.58228 0
M  V30 16386 C 1511.1 -5.47804 2.73089 0
M  V30 16387 N 1510.24 -6.618 2.34446 0
M  V30 16388 H 1515.08 -2.1467 2.0669 0
M  V30 16389 H 1512.62 -1.05147 1.02871 0
M  V30 16390 H 1514.58 -4.13149 0.579943 0
M  V30 16391 H 1513.21 -3.22596 -0.114699 0
M  V30 16392 H 1512.26 -3.03184 2.29746 0
M  V30 16393 H 1513.57 -4.10417 2.83477 0
M  V30 16394 H 1512.72 -5.91883 1.33264 0
M  V30 16395 H 1511.46 -4.82759 0.692429 0
M  V30 16396 H 1510.47 -4.61549 2.98751 0
M  V30 16397 H 1511.69 -5.74119 3.62717 0
M  V30 16398 H 1509.64 -6.39103 1.4793 0
M  V30 16399 H 1509.56 -6.87663 3.14096 0
M  V30 16400 H 1510.82 -7.49901 2.12766 0
M  V30 16401 N 1515.05 -1.1067 -1.12204 0
M  V30 16402 C 1516.3 -0.85189 -1.8404 0
M  V30 16403 C 1516.63 0.620988 -1.84004 0
M  V30 16404 O 1515.91 1.45801 -1.28734 0
M  V30 16405 C 1516.19 -1.40401 -3.31602 0
M  V30 16406 C 1516.04 -2.94392 -3.40078 0
M  V30 16407 C 1517.36 -1.04834 -4.27432 0
M  V30 16408 H 1514.48 -0.310924 -0.668203 0
M  V30 16409 H 1517.12 -1.37026 -1.3162 0
M  V30 16410 H 1515.27 -0.963107 -3.76373 0
M  V30 16411 H 1516.94 -3.47027 -3.03924 0
M  V30 16412 H 1515.19 -3.3087 -2.80548 0
M  V30 16413 H 1515.86 -3.28107 -4.43903 0
M  V30 16414 H 1518.33 -1.42882 -3.90799 0
M  V30 16415 H 1517.21 -1.46153 -5.29085 0
M  V30 16416 H 1517.47 0.0419272 -4.4208 0
M  V30 16417 N 1516.53 1.29665 -0.895815 0
M  V30 16418 C 1517.78 1.96006 -0.520522 0
M  V30 16419 C 1518.11 1.7048 0.930068 0
M  V30 16420 O 1517.38 1.01558 1.6588 0
M  V30 16421 C 1517.67 3.50897 -0.808925 0
M  V30 16422 C 1517.52 3.85896 -2.31093 0
M  V30 16423 C 1518.84 4.39125 -0.292769 0
M  V30 16424 H 1515.96 0.711931 -0.190588 0
M  V30 16425 H 1518.6 1.53349 -1.12179 0
M  V30 16426 H 1516.75 3.87362 -0.297194 0
M  V30 16427 H 1518.42 3.59397 -2.89191 0
M  V30 16428 H 1516.67 3.33578 -2.77323 0
M  V30 16429 H 1517.34 4.93989 -2.46331 0
M  V30 16430 H 1519.81 4.0963 -0.730906 0
M  V30 16431 H 1518.69 5.46395 -0.523799 0
M  V30 16432 H 1518.95 4.34683 0.806393 0
M  V30 16433 N 1518.01 0.657889 1.43212 0
M  V30 16434 C 1519.42 0.252443 1.84985 0
M  V30 16435 C 1519.77 -1.20196 1.55072 0
M  V30 16436 O 1518.9 -1.91803 1.00202 0
M  V30 16437 C 1519.49 0.451388 3.3578 0
M  V30 16438 C 1518.05 0.100219 3.76267 0
M  V30 16439 C 1517.2 0.752009 2.66908 0
M  V30 16440 H 1520.15 0.861239 1.33298 0
M  V30 16441 H 1520.17 -0.30169 3.79302 0
M  V30 16442 H 1519.68 1.51001 3.5752 0
M  V30 16443 H 1517.78 -0.955618 3.60137 0
M  V30 16444 H 1517.89 0.528942 4.76171 0
M  V30 16445 H 1516.26 0.184823 2.54029 0
M  V30 16446 H 1517.04 1.81375 2.91476 0
M  V30 16447 N 1519.49 -1.52437 0.400108 0
M  V30 16448 C 1520.9 -1.5952 0.0505611 0
M  V30 16449 C 1521.1 -1.4135 -1.43606 0
M  V30 16450 O 1520.16 -1.23591 -2.20185 0
M  V30 16451 C 1521.47 -2.95859 0.537411 0
M  V30 16452 C 1523.02 -3.09067 0.494603 0
M  V30 16453 C 1523.49 -4.47873 0.957815 0
M  V30 16454 N 1524.99 -4.54087 0.914267 0
M  V30 16455 C 1525.72 -5.59744 1.24397 0
M  V30 16456 N 1525.22 -6.72995 1.64469 0
M  V30 16457 N 1527.01 -5.49905 1.16452 0
M  V30 16458 H 1519.16 -1.62496 1.36781 0
M  V30 16459 H 1521.42 -0.763947 0.561328 0
M  V30 16460 H 1521.13 -3.14407 1.57611 0
M  V30 16461 H 1521 -3.77156 -0.0577652 0
M  V30 16462 H 1523.39 -2.90209 -0.535035 0
M  V30 16463 H 1523.47 -2.29698 1.12572 0
M  V30 16464 H 1523.12 -4.67473 1.98574 0
M  V30 16465 H 1523.05 -5.25724 0.303602 0
M  V30 16466 H 1525.54 -3.72787 0.619536 0
M  V30 16467 H 1525.85 -7.49594 1.87961 0
M  V30 16468 H 1524.19 -6.74298 1.68364 0
M  V30 16469 H 1527.39 -4.60311 0.850401 0
M  V30 16470 H 1527.56 -6.32142 1.42478 0
M  V30 16471 N 1520.96 -0.130252 -1.57061 0
M  V30 16472 C 1522.38 0.226279 -1.57988 0
M  V30 16473 C 1522.58 1.65902 -1.14363 0
M  V30 16474 O 1521.64 2.38252 -0.836191 0
M  V30 16475 C 1522.95 -0.0172647 -3.00695 0
M  V30 16476 C 1524.5 0.0477572 -3.12964 0
M  V30 16477 C 1524.97 -0.168238 -4.57691 0
M  V30 16478 N 1526.46 -0.114591 -4.63058 0
M  V30 16479 C 1527.2 -0.256462 -5.72826 0
M  V30 16480 N 1526.69 -0.455129 -6.91303 0
M  V30 16481 N 1528.49 -0.195243 -5.61761 0
M  V30 16482 H 1520.64 -1.06594 -1.83716 0
M  V30 16483 H 1522.9 -0.420643 -0.849567 0
M  V30 16484 H 1522.61 -1.00819 -3.3694 0
M  V30 16485 H 1522.48 0.709629 -3.70465 0
M  V30 16486 H 1524.87 1.02922 -2.7657 0
M  V30 16487 H 1524.95 -0.711198 -2.45714 0
M  V30 16488 H 1524.59 -1.14673 -4.94785 0
M  V30 16489 H 1524.52 0.610839 -5.23045 0
M  V30 16490 H 1527.01 0.0349873 -3.77884 0
M  V30 16491 H 1527.33 -0.553943 -7.70812 0
M  V30 16492 H 1525.67 -0.491244 -6.93262 0
M  V30 16493 H 1528.86 -0.0409186 -4.68082 0
M  V30 16494 H 1529.04 -0.309248 -6.47262 0
M  V30 16495 N 1522.44 1.56945 0.143535 0
M  V30 16496 C 1523.39 1.98526 1.17711 0
M  V30 16497 C 1524.36 0.853402 1.425 0
M  V30 16498 O 1525.55 1.11574 1.54777 0
M  V30 16499 C 1522.69 2.37395 2.50475 0
M  V30 16500 C 1521.8 3.63887 2.32831 0
M  V30 16501 C 1520.93 3.91844 3.58653 0
M  V30 16502 C 1519.97 5.11595 3.36061 0
M  V30 16503 N 1519.11 5.35545 4.54022 0
M  V30 16504 H 1523.95 2.86624 0.815524 0
M  V30 16505 H 1521.49 1.41802 0.391231 0
M  V30 16506 H 1523.44 2.5796 3.27891 0
M  V30 16507 H 1522.07 1.52372 2.84575 0
M  V30 16508 H 1521.13 3.51078 1.46452 0
M  V30 16509 H 1522.44 4.51459 2.12098 0
M  V30 16510 H 1521.59 4.12926 4.44497 0
M  V30 16511 H 1520.33 3.027 3.82393 0
M  V30 16512 H 1519.34 4.90383 2.48606 0
M  V30 16513 H 1520.56 6.02295 3.13716 0
M  V30 16514 H 1518.51 4.49355 4.77929 0
M  V30 16515 H 1518.42 6.17393 4.36305 0
M  V30 16516 H 1519.69 5.61127 5.4107 0
M  V30 16517 N 1523.92 -0.412991 1.52093 0
M  V30 16518 C 1524.88 -1.48555 1.7454 0
M  V30 16519 C 1525.88 -1.48563 0.615283 0
M  V30 16520 O 1527.07 -1.50155 0.883119 0
M  V30 16521 C 1524.21 -2.87984 1.82423 0
M  V30 16522 H 1525.4 -1.29945 2.70285 0
M  V30 16523 H 1522.95 -0.643241 1.4245 0
M  V30 16524 H 1523.69 -3.11969 0.885777 0
M  V30 16525 H 1523.47 -2.89381 2.64577 0
M  V30 16526 H 1524.96 -3.65745 2.01545 0
M  V30 16527 N 1525.4 -1.4265 -0.669982 0
M  V30 16528 C 1526.35 -1.46504 -1.7834 0
M  V30 16529 C 1527.32 -0.316478 -1.63057 0
M  V30 16530 O 1528.5 -0.521245 -1.83542 0
M  V30 16531 C 1525.64 -1.37784 -3.16401 0
M  V30 16532 C 1524.75 -2.62714 -3.42937 0
M  V30 16533 C 1523.89 -2.46101 -4.70752 0
M  V30 16534 C 1522.93 -3.66381 -4.90338 0
M  V30 16535 N 1522.07 -3.48681 -6.09398 0
M  V30 16536 H 1526.91 -2.41651 -1.74381 0
M  V30 16537 H 1524.44 -1.1997 -0.851215 0
M  V30 16538 H 1526.4 -1.30725 -3.9619 0
M  V30 16539 H 1525.03 -0.462291 -3.19473 0
M  V30 16540 H 1524.08 -2.8012 -2.57366 0
M  V30 16541 H 1525.39 -3.52108 -3.53301 0
M  V30 16542 H 1524.55 -2.36655 -5.58641 0
M  V30 16543 H 1523.29 -1.54204 -4.6268 0
M  V30 16544 H 1522.29 -3.76254 -4.00891 0
M  V30 16545 H 1523.52 -4.59265 -5.00253 0
M  V30 16546 H 1521.46 -2.59505 -6.02489 0
M  V30 16547 H 1521.38 -4.31666 -6.20645 0
M  V30 16548 H 1522.65 -3.43056 -6.99952 0
M  V30 16549 N 1526.88 0.906753 -1.28902 0
M  V30 16550 C 1528.13 1.65119 -1.15839 0
M  V30 16551 C 1528.44 1.93426 0.290825 0
M  V30 16552 O 1529.65 2.66021 0.542678 0
M  V30 16553 C 1528.1 2.97492 -2.0255 0
M  V30 16554 C 1527.71 2.76807 -3.52253 0
M  V30 16555 C 1529.45 3.75393 -1.98192 0
M  V30 16556 C 1527.36 4.04863 -4.31091 0
M  V30 16557 H 1526.29 0.619409 -0.429939 0
M  V30 16558 H 1528.94 1.00567 -1.53488 0
M  V30 16559 H 1527.32 3.63217 -1.57763 0
M  V30 16560 H 1528.5 2.19719 -4.05044 0
M  V30 16561 H 1526.81 2.1231 -3.58209 0
M  V30 16562 H 1529.41 4.70325 -2.54358 0
M  V30 16563 H 1529.75 4.05074 -0.960267 0
M  V30 16564 H 1530.29 3.16498 -2.40985 0
M  V30 16565 H 1527.02 3.80353 -5.33865 0
M  V30 16566 H 1526.54 4.61537 -3.83072 0
M  V30 16567 H 1528.22 4.73066 -4.41381 0
M  V30 16568 N 1528.36 1.11264 1.11616 0
M  V30 16569 C 1529.6 0.855139 1.82675 0
M  V30 16570 C 1529.92 -0.621194 1.85474 0
M  V30 16571 O 1531.12 -0.994886 2.52615 0
M  V30 16572 C 1529.58 1.48007 3.28058 0
M  V30 16573 C 1529.19 2.99031 3.33593 0
M  V30 16574 C 1530.93 1.30233 4.04029 0
M  V30 16575 C 1528.84 3.54517 4.73362 0
M  V30 16576 H 1527.77 0.316252 0.684471 0
M  V30 16577 H 1530.42 1.33766 1.25614 0
M  V30 16578 H 1528.8 0.925214 3.8504 0
M  V30 16579 H 1529.98 3.60905 2.86503 0
M  V30 16580 H 1528.29 3.16059 2.711 0
M  V30 16581 H 1530.89 1.69122 5.07249 0
M  V30 16582 H 1531.23 0.244724 4.1558 0
M  V30 16583 H 1531.76 1.82573 3.53429 0
M  V30 16584 H 1528.5 4.59982 4.67008 0
M  V30 16585 H 1528.02 2.97414 5.20869 0
M  V30 16586 H 1529.7 3.52848 5.42316 0
M  V30 16587 N 1529.83 -1.29188 0.902679 0
M  V30 16588 C 1530.78 -2.27632 0.381088 0
M  V30 16589 C 1531.75 -1.57131 -0.538431 0
M  V30 16590 O 1532.94 -1.85096 -0.463027 0
M  V30 16591 C 1530.08 -3.42971 -0.382701 0
M  V30 16592 C 1529.19 -4.28249 0.568054 0
M  V30 16593 C 1528.32 -5.30772 -0.213082 0
M  V30 16594 C 1527.36 -6.07707 0.732004 0
M  V30 16595 N 1526.5 -7.02098 -0.0149139 0
M  V30 16596 H 1531.34 -2.71628 1.22566 0
M  V30 16597 H 1528.88 -1.33594 0.615724 0
M  V30 16598 H 1530.83 -4.08623 -0.841619 0
M  V30 16599 H 1529.46 -2.99997 -1.19171 0
M  V30 16600 H 1528.52 -3.62743 1.14549 0
M  V30 16601 H 1529.83 -4.81794 1.29136 0
M  V30 16602 H 1528.98 -6.02255 -0.733065 0
M  V30 16603 H 1527.72 -4.77966 -0.969504 0
M  V30 16604 H 1526.73 -5.35086 1.26346 0
M  V30 16605 H 1527.95 -6.62602 1.4878 0
M  V30 16606 H 1525.9 -6.51658 -0.753548 0
M  V30 16607 H 1525.81 -7.53214 0.648423 0
M  V30 16608 H 1527.08 -7.77796 -0.515062 0
M  V30 16609 N 1531.31 -0.665475 -1.42861 0
M  V30 16610 C 1532.59 -0.113252 -1.95272 0
M  V30 16611 C 1532.97 1.36972 -1.6063 0
M  V30 16612 O 1532.32 2.10129 -0.897662 0
M  V30 16613 C 1532.53 -0.372482 -3.47007 0
M  V30 16614 C 1533.87 -0.283982 -4.23649 0
M  V30 16615 O 1534.9 -0.305714 -3.54886 0
M  V30 16616 O 1533.76 -0.218171 -5.46064 0
M  V30 16617 H 1530.85 0.00253712 -0.826996 0
M  V30 16618 H 1533.4 -0.739561 -1.52737 0
M  V30 16619 H 1532.17 -1.40015 -3.65392 0
M  V30 16620 H 1531.79 0.286294 -3.96568 0
M  V30 16621 N 1532.79 1.52222 -0.408187 0
M  V30 16622 C 1534.02 2.05922 0.167187 0
M  V30 16623 C 1534.43 1.27824 1.3949 0
M  V30 16624 O 1533.77 0.323065 1.80837 0
M  V30 16625 C 1533.83 3.54734 0.583435 0
M  V30 16626 C 1533.5 4.53876 -0.533419 0
M  V30 16627 C 1534.49 5.00788 -1.3967 0
M  V30 16628 C 1532.18 4.97316 -0.705841 0
M  V30 16629 C 1534.17 5.89782 -2.41736 0
M  V30 16630 C 1531.86 5.86106 -1.72981 0
M  V30 16631 C 1532.86 6.32234 -2.58397 0
M  V30 16632 O 1532.55 7.19267 -3.59041 0
M  V30 16633 H 1532.28 0.675562 0.0243385 0
M  V30 16634 H 1534.83 1.97115 -0.577475 0
M  V30 16635 H 1533.06 3.61224 1.38036 0
M  V30 16636 H 1534.75 3.91085 1.08662 0
M  V30 16637 H 1535.52 4.67944 -1.27489 0
M  V30 16638 H 1531.4 4.60972 -0.0506558 0
M  V30 16639 H 1534.94 6.25708 -3.0844 0
M  V30 16640 H 1530.84 6.18364 -1.85193 0
M  V30 16641 H 1531.6 7.37376 -3.55274 0
M  V30 16642 N 1534.27 0.138579 1.5699 0
M  V30 16643 C 1535.52 -0.513611 1.95465 0
M  V30 16644 C 1535.84 -1.65952 1.02396 0
M  V30 16645 O 1535.11 -1.9572 0.0839001 0
M  V30 16646 H 1533.69 -0.192729 0.72171 0
M  V30 16647 H 1536.35 0.212107 1.93742 0
M  V30 16648 H 1535.44 -0.895313 2.98983 0
M  V30 16649 N 1535.75 -1.57019 -0.13521 0
M  V30 16650 C 1536.99 -1.83626 -0.844147 0
M  V30 16651 C 1537.31 -0.721298 -1.81169 0
M  V30 16652 O 1536.58 0.256095 -1.94219 0
M  V30 16653 H 1535.16 -0.677464 -0.314725 0
M  V30 16654 H 1537.83 -1.9449 -0.126399 0
M  V30 16655 H 1536.92 -2.78976 -1.39925 0
M  V30 16656 N 1537.22 0.404919 -1.52309 0
M  V30 16657 C 1538.47 1.14921 -1.66246 0
M  V30 16658 C 1538.79 1.90919 -0.396868 0
M  V30 16659 O 1538.06 1.86856 0.588361 0
M  V30 16660 H 1536.64 0.427223 -0.612772 0
M  V30 16661 H 1539.31 0.461091 -1.89367 0
M  V30 16662 H 1538.4 1.86095 -2.5055 0
M  V30 16663 N 1538.7 1.43003 0.662408 0
M  V30 16664 C 1539.65 1.47448 1.77561 0
M  V30 16665 C 1540.62 0.325121 1.62887 0
M  V30 16666 O 1541.8 0.530971 1.83263 0
M  V30 16667 C 1538.94 1.3946 3.15666 0
M  V30 16668 C 1538.06 2.64529 3.41539 0
M  V30 16669 C 1537.19 2.48594 4.69441 0
M  V30 16670 C 1536.23 3.68976 4.88388 0
M  V30 16671 N 1535.37 3.51908 6.0754 0
M  V30 16672 H 1540.21 2.42573 1.73097 0
M  V30 16673 H 1537.75 1.2042 0.84484 0
M  V30 16674 H 1539.7 1.32824 3.95492 0
M  V30 16675 H 1538.33 0.479227 3.19223 0
M  V30 16676 H 1537.39 2.81481 2.55877 0
M  V30 16677 H 1538.7 3.53977 3.51429 0
M  V30 16678 H 1537.85 2.39614 5.57378 0
M  V30 16679 H 1536.59 1.56656 4.61855 0
M  V30 16680 H 1535.6 3.78374 3.9889 0
M  V30 16681 H 1536.82 4.61911 4.9781 0
M  V30 16682 H 1534.77 2.62697 6.01104 0
M  V30 16683 H 1534.68 4.34951 6.18347 0
M  V30 16684 H 1535.95 3.46763 6.98123 0
M  V30 16685 N 1540.18 -0.899904 1.29381 0
M  V30 16686 C 1541.09 -2.03699 1.16378 0
M  V30 16687 C 1542.11 -1.73782 0.0870792 0
M  V30 16688 O 1543.28 -1.99167 0.299109 0
M  V30 16689 C 1540.35 -3.36341 0.841166 0
M  V30 16690 C 1539.41 -3.79778 2.00168 0
M  V30 16691 C 1538.64 -5.0609 1.69437 0
M  V30 16692 O 1538.86 -5.67073 0.615212 0
M  V30 16693 O 1537.8 -5.45574 2.54229 0
M  V30 16694 H 1541.62 -2.17592 2.11866 0
M  V30 16695 H 1539.21 -1.02353 1.08831 0
M  V30 16696 H 1541.09 -4.15946 0.675803 0
M  V30 16697 H 1539.77 -3.23591 -0.0839376 0
M  V30 16698 H 1538.67 -3.00941 2.22229 0
M  V30 16699 H 1540.01 -3.97111 2.90798 0
M  V30 16700 N 1541.66 -1.11854 -1.11024 0
M  V30 16701 C 1542.9 -0.871362 -1.83126 0
M  V30 16702 C 1543.24 0.601437 -1.84652 0
M  V30 16703 O 1542.51 1.44427 -1.30273 0
M  V30 16704 C 1542.8 -1.4391 -3.30094 0
M  V30 16705 C 1542.65 -2.97983 -3.36937 0
M  V30 16706 C 1543.97 -1.09361 -4.26296 0
M  V30 16707 H 1541.09 -0.317994 -0.664867 0
M  V30 16708 H 1543.73 -1.38414 -1.3016 0
M  V30 16709 H 1541.88 -1.00297 -3.7533 0
M  V30 16710 H 1543.55 -3.50231 -3.00227 0
M  V30 16711 H 1541.79 -3.33827 -2.77023 0
M  V30 16712 H 1542.46 -3.32797 -4.40398 0
M  V30 16713 H 1544.94 -1.47018 -3.89262 0
M  V30 16714 H 1543.82 -1.51756 -5.27505 0
M  V30 16715 H 1544.08 -0.0049637 -4.421 0
M  V30 16716 N 1543.14 1.28707 -0.909517 0
M  V30 16717 C 1544.41 1.90124 -0.459585 0
M  V30 16718 C 1544.79 1.82477 1.06139 0
M  V30 16719 O 1544.14 1.25792 1.90758 0
M  V30 16720 C 1544.35 3.34806 -0.985188 0
M  V30 16721 C 1545.7 4.11799 -1.03475 0
M  V30 16722 O 1546.72 3.43749 -0.933536 0
M  V30 16723 O 1545.58 5.33426 -1.18825 0
M  V30 16724 H 1542.68 0.814199 -0.144948 0
M  V30 16725 H 1545.22 1.37104 -1.00002 0
M  V30 16726 H 1543.99 3.34575 -2.02917 0
M  V30 16727 H 1543.62 3.95318 -0.425329 0
M  V30 16728 N 1544.61 0.673042 1.42506 0
M  V30 16729 C 1545.84 0.201349 2.0642 0
M  V30 16730 C 1546.26 -1.132 1.50224 0
M  V30 16731 O 1545.62 -1.70368 0.620024 0
M  V30 16732 C 1545.67 0.14505 3.60308 0
M  V30 16733 O 1544.77 -0.886953 4.02749 0
M  V30 16734 H 1544.12 0.103975 0.655809 0
M  V30 16735 H 1546.65 0.921559 1.8267 0
M  V30 16736 H 1546.66 -0.0316792 4.07988 0
M  V30 16737 H 1545.33 1.11829 4.00583 0
M  V30 16738 H 1543.91 -0.681408 3.66621 0
M  V30 16739 N 1546.09 -1.52004 0.416254 0
M  V30 16740 C 1547.32 -2.0679 -0.158937 0
M  V30 16741 C 1547.74 -1.28366 -1.37491 0
M  V30 16742 O 1547.1 -0.315815 -1.78528 0
M  V30 16743 C 1547.15 -3.57381 -0.480717 0
M  V30 16744 O 1546.25 -3.81321 -1.5706 0
M  V30 16745 H 1545.59 -0.663907 -0.0110938 0
M  V30 16746 H 1548.12 -1.95863 0.591509 0
M  V30 16747 H 1548.13 -4.01283 -0.737297 0
M  V30 16748 H 1546.81 -4.13893 0.408137 0
M  V30 16749 H 1545.39 -3.49296 -1.30563 0
M  V30 16750 N 1547.57 -0.146903 -1.56914 0
M  V30 16751 C 1548.8 0.514426 -2.00919 0
M  V30 16752 C 1549.22 1.57632 -1.02634 0
M  V30 16753 O 1548.58 1.813 -0.00207478 0
M  V30 16754 C 1548.63 1.09197 -3.43669 0
M  V30 16755 O 1547.73 2.20684 -3.48385 0
M  V30 16756 H 1547.07 0.125827 -0.651969 0
M  V30 16757 H 1549.6 -0.243607 -2.03145 0
M  V30 16758 H 1549.61 1.42066 -3.82467 0
M  V30 16759 H 1548.29 0.314336 -4.1471 0
M  V30 16760 H 1546.86 1.89045 -3.21429 0
M  V30 16761 N 1549.05 1.57088 0.126881 0
M  V30 16762 C 1550 1.96188 1.16164 0
M  V30 16763 C 1550.98 0.835786 1.3749 0
M  V30 16764 O 1552.17 1.09942 1.38714 0
M  V30 16765 C 1549.3 2.36308 2.49025 0
M  V30 16766 C 1548.39 3.55533 2.31208 0
M  V30 16767 N 1548.78 4.71462 1.83186 0
M  V30 16768 C 1547.08 3.61011 2.61891 0
M  V30 16769 C 1547.78 5.5351 1.7889 0
M  V30 16770 N 1546.76 4.95778 2.22946 0
M  V30 16771 H 1550.56 2.83284 0.782778 0
M  V30 16772 H 1548.07 1.58913 0.334719 0
M  V30 16773 H 1550.07 2.62533 3.23855 0
M  V30 16774 H 1548.73 1.50573 2.87677 0
M  V30 16775 H 1549.74 4.94831 1.5285 0
M  V30 16776 H 1546.42 2.85865 3.04282 0
M  V30 16777 H 1547.81 6.56488 1.43083 0
M  V30 16778 N 1550.53 -0.396836 1.52522 0
M  V30 16779 C 1551.46 -1.50564 1.71481 0
M  V30 16780 C 1552.44 -1.5256 0.562524 0
M  V30 16781 O 1553.62 -1.71083 0.791378 0
M  V30 16782 C 1550.75 -2.89058 1.76531 0
M  V30 16783 C 1549.79 -3.04922 2.98202 0
M  V30 16784 S 1550.63 -2.76944 4.58326 0
M  V30 16785 C 1551.78 -4.17645 4.66179 0
M  V30 16786 H 1552.02 -1.34256 2.6526 0
M  V30 16787 H 1549.55 -0.589208 1.42715 0
M  V30 16788 H 1551.51 -3.6887 1.80125 0
M  V30 16789 H 1550.17 -3.02699 0.838582 0
M  V30 16790 H 1549.36 -4.06277 2.98254 0
M  V30 16791 H 1548.96 -2.32992 2.92559 0
M  V30 16792 H 1551.26 -5.11461 4.44312 0
M  V30 16793 H 1552.2 -4.22612 5.68159 0
M  V30 16794 H 1552.61 -4.03189 3.95093 0
M  V30 16795 N 1552.01 -1.43353 -0.654814 0
M  V30 16796 C 1552.92 -1.50831 -1.79687 0
M  V30 16797 C 1553.93 -0.395518 -1.69445 0
M  V30 16798 O 1555.11 -0.649408 -1.90643 0
M  V30 16799 C 1552.17 -1.42735 -3.15955 0
M  V30 16800 C 1551.23 -2.64671 -3.38005 0
M  V30 16801 C 1550.47 -2.56952 -4.67773 0
M  V30 16802 O 1550.69 -1.61638 -5.47019 0
M  V30 16803 O 1549.62 -3.47425 -4.91507 0
M  V30 16804 H 1553.45 -2.47266 -1.76333 0
M  V30 16805 H 1551.03 -1.25336 -0.813095 0
M  V30 16806 H 1552.92 -1.40656 -3.97233 0
M  V30 16807 H 1551.59 -0.494334 -3.19903 0
M  V30 16808 H 1550.5 -2.72323 -2.56498 0
M  V30 16809 H 1551.83 -3.5694 -3.38903 0
M  V30 16810 N 1553.48 0.89303 -1.29857 0
M  V30 16811 C 1554.76 1.62492 -1.08884 0
M  V30 16812 C 1555.14 2.07926 0.364695 0
M  V30 16813 O 1554.49 1.84009 1.35473 0
M  V30 16814 C 1554.7 2.80063 -2.08245 0
M  V30 16815 C 1556.05 3.50589 -2.39526 0
M  V30 16816 O 1557.07 2.90241 -2.06492 0
M  V30 16817 O 1555.93 4.59399 -2.95998 0
M  V30 16818 H 1553.02 0.713805 -0.417626 0
M  V30 16819 H 1555.57 0.940513 -1.41253 0
M  V30 16820 H 1554.34 2.43735 -3.06119 0
M  V30 16821 H 1553.96 3.56205 -1.76645 0
M  V30 16822 N 1554.96 1.12442 1.10429 0
M  V30 16823 C 1556.19 0.902599 1.86174 0
M  V30 16824 C 1556.6 -0.548147 1.80668 0
M  V30 16825 O 1555.96 -1.37898 1.19543 0
M  V30 16826 C 1556.01 1.36912 3.34571 0
M  V30 16827 O 1555.73 2.763 3.39985 0
M  V30 16828 C 1557.23 1.18424 4.27189 0
M  V30 16829 H 1554.45 0.322534 0.588399 0
M  V30 16830 H 1557 1.49439 1.396 0
M  V30 16831 H 1555.15 0.82055 3.7861 0
M  V30 16832 H 1555.57 2.96772 4.32466 0
M  V30 16833 H 1557.04 1.55954 5.29511 0
M  V30 16834 H 1557.52 0.12483 4.39023 0
M  V30 16835 H 1558.12 1.72032 3.88954 0
M  V30 16836 N 1556.44 -1.28223 0.91633 0
M  V30 16837 C 1557.69 -1.9448 0.549734 0
M  V30 16838 C 1558.01 -1.72465 -0.909999 0
M  V30 16839 O 1557.28 -1.06583 -1.64368 0
M  V30 16840 H 1555.86 -0.719641 0.200315 0
M  V30 16841 H 1558.52 -1.56156 1.16625 0
M  V30 16842 H 1557.62 -3.03044 0.746363 0
M  V30 16843 N 1557.92 -0.68059 -1.42147 0
M  V30 16844 C 1558.83 -0.00595573 -2.34599 0
M  V30 16845 C 1559.84 0.782528 -1.55411 0
M  V30 16846 O 1561.02 0.723524 -1.87955 0
M  V30 16847 C 1558.08 0.92964 -3.34004 0
M  V30 16848 C 1557.15 0.135041 -4.29088 0
M  V30 16849 C 1556.38 1.02607 -5.23744 0
M  V30 16850 O 1556.6 2.26562 -5.23475 0
M  V30 16851 O 1555.54 0.483774 -5.99953 0
M  V30 16852 H 1559.36 -0.767652 -2.93838 0
M  V30 16853 H 1556.95 -0.440849 -1.42748 0
M  V30 16854 H 1558.83 1.46657 -3.95057 0
M  V30 16855 H 1557.5 1.67109 -2.7723 0
M  V30 16856 H 1556.41 -0.44613 -3.7143 0
M  V30 16857 H 1557.74 -0.567417 -4.88918 0
M  V30 16858 N 1559.4 1.51781 -0.424309 0
M  V30 16859 C 1560.36 2.25996 0.381903 0
M  V30 16860 C 1561.36 1.28938 0.960813 0
M  V30 16861 O 1562.55 1.52757 0.837306 0
M  V30 16862 C 1559.68 3.04181 1.53904 0
M  V30 16863 H 1560.87 2.98697 -0.268336 0
M  V30 16864 H 1558.43 1.55293 -0.177167 0
M  V30 16865 H 1559.16 2.35866 2.22571 0
M  V30 16866 H 1558.95 3.75457 1.13025 0
M  V30 16867 H 1560.44 3.60434 2.10896 0
M  V30 16868 N 1560.87 0.155222 1.56834 0
M  V30 16869 C 1562.29 -0.201116 1.58328 0
M  V30 16870 C 1562.49 -1.64061 1.16988 0
M  V30 16871 O 1561.55 -2.36892 0.873989 0
M  V30 16872 C 1562.86 0.0651005 3.0063 0
M  V30 16873 C 1564.41 0.00203866 3.13 0
M  V30 16874 C 1564.88 0.241032 4.57365 0
M  V30 16875 N 1566.37 0.188245 4.62817 0
M  V30 16876 C 1567.11 0.347562 5.72346 0
M  V30 16877 N 1566.6 0.565052 6.90492 0
M  V30 16878 N 1568.4 0.284589 5.61379 0
M  V30 16879 H 1560.55 1.09503 1.81997 0
M  V30 16880 H 1562.81 0.434106 0.842767 0
M  V30 16881 H 1562.52 1.06167 3.35293 0
M  V30 16882 H 1562.39 -0.650601 3.71547 0
M  V30 16883 H 1564.78 -0.98509 2.78173 0
M  V30 16884 H 1564.86 0.750199 2.44552 0
M  V30 16885 H 1564.5 1.2253 4.92898 0
M  V30 16886 H 1564.43 -0.52755 5.23951 0
M  V30 16887 H 1566.92 0.0251352 3.77892 0
M  V30 16888 H 1567.24 0.676502 7.69833 0
M  V30 16889 H 1565.58 0.601473 6.92392 0
M  V30 16890 H 1568.77 0.115381 4.67958 0
M  V30 16891 H 1568.95 0.412182 6.46688 0
M  V30 16892 N 1562.35 -1.57153 -0.118549 0
M  V30 16893 C 1563.26 -2.03673 -1.16424 0
M  V30 16894 C 1564.28 -0.957203 -1.45305 0
M  V30 16895 O 1565.45 -1.26874 -1.56413 0
M  V30 16896 C 1562.52 -2.43211 -2.47082 0
M  V30 16897 C 1561.58 -3.65248 -2.25593 0
M  V30 16898 C 1560.81 -4.02891 -3.50021 0
M  V30 16899 O 1561.04 -3.40871 -4.57344 0
M  V30 16900 O 1559.97 -4.95989 -3.40996 0
M  V30 16901 H 1563.8 -2.92996 -0.799206 0
M  V30 16902 H 1561.38 -1.45724 -0.329376 0
M  V30 16903 H 1563.26 -2.69374 -3.24061 0
M  V30 16904 H 1561.94 -1.57034 -2.83058 0
M  V30 16905 H 1560.84 -3.44234 -1.46471 0
M  V30 16906 H 1562.18 -4.52131 -1.94521 0
M  V30 16907 N 1563.83 0.388742 -1.5273 0
M  V30 16908 C 1565.08 1.13543 -1.68035 0
M  V30 16909 C 1565.41 1.89622 -0.419177 0
M  V30 16910 O 1564.68 1.85556 0.583031 0
M  V30 16911 C 1564.97 2.11346 -2.91556 0
M  V30 16912 C 1564.82 1.39029 -4.27775 0
M  V30 16913 C 1566.14 3.11769 -3.10625 0
M  V30 16914 H 1563.26 0.411406 -0.611485 0
M  V30 16915 H 1565.9 0.418781 -1.85327 0
M  V30 16916 H 1564.05 2.7246 -2.76944 0
M  V30 16917 H 1565.72 0.808775 -4.54155 0
M  V30 16918 H 1563.96 0.692133 -4.28243 0
M  V30 16919 H 1564.64 2.10495 -5.1029 0
M  V30 16920 H 1567.11 2.60745 -3.2427 0
M  V30 16921 H 1565.99 3.77447 -3.98529 0
M  V30 16922 H 1566.25 3.80649 -2.24853 0
M  V30 16923 N 1565.31 1.43698 0.647203 0
M  V30 16924 C 1566.27 1.48986 1.74172 0
M  V30 16925 C 1567.27 0.373812 1.56395 0
M  V30 16926 O 1568.46 0.635804 1.62183 0
M  V30 16927 C 1565.59 1.34827 3.13104 0
M  V30 16928 H 1566.79 2.46467 1.70863 0
M  V30 16929 H 1564.34 1.30552 0.859409 0
M  V30 16930 H 1565.07 0.383772 3.22021 0
M  V30 16931 H 1564.86 2.15738 3.27414 0
M  V30 16932 H 1566.35 1.41473 3.92906 0
M  V30 16933 O 1566.82 -0.790355 1.40839 0
M  V30 16934 H 1567.52 -1.43639 1.29952 0
M  V30 END ATOM
M  V30 BEGIN BOND
M  V30 END BOND
M  V30 END CTAB
M  END
$$$$
