drugbank_target|P21283 V-type proton ATPase subunit C 1 (DB01694; DB09552)
 OpenBabel12092120543D

  0  0  0     0  0            999 V3000
M  V30 BEGIN CTAB
M  V30 COUNTS 6242 6300 0 0 0
M  V30 BEGIN ATOM
M  V30 1 H -0.908 1.98254 -0.117106 0
M  V30 2 N 0 1.576 0 0
M  V30 3 C 0.933 2.03868 1.02534 0
M  V30 4 C 1.911 0.928543 1.3348 0
M  V30 5 O 3.095 1.19667 1.45644 0
M  V30 6 C 0.222 2.43627 2.35294 0
M  V30 7 C -0.732 3.65373 2.2001 0
M  V30 8 S 0.101 5.13292 1.52614 0
M  V30 9 C 1.257 5.56322 2.86805 0
M  V30 10 H 1.49 2.90518 0.631377 0
M  V30 11 H -0.977 1.52953 0.210867 0
M  V30 12 H 0.981 2.67203 3.11629 0
M  V30 13 H -0.358 1.57376 2.7183 0
M  V30 14 H -1.165 3.90944 3.18086 0
M  V30 15 H -1.563 3.418 1.51819 0
M  V30 16 H 0.729 5.58782 3.83104 0
M  V30 17 H 1.672 6.56266 2.65933 0
M  V30 18 H 2.08 4.83886 2.90714 0
M  V30 19 N 1.4781 -0.272755 1.55222 0
M  V30 20 C 2.7061 -1.02255 1.79865 0
M  V30 21 C 3.1211 -1.79924 0.572088 0
M  V30 22 O 2.4781 -1.76638 -0.458842 0
M  V30 23 C 2.5291 -1.98094 3.02392 0
M  V30 24 O 2.2501 -1.23572 4.20311 0
M  V30 25 C 3.7511 -2.84884 3.39641 0
M  V30 26 H 0.9711 -0.302057 0.599168 0
M  V30 27 H 3.5151 -0.303465 2.02236 0
M  V30 28 H 1.6701 -2.65465 2.82147 0
M  V30 29 H 2.0841 -1.88172 4.89583 0
M  V30 30 H 3.5581 -3.47927 4.28545 0
M  V30 31 H 4.0351 -3.54665 2.59055 0
M  V30 32 H 4.6411 -2.23003 3.62146 0
M  V30 33 N 2.9562 -1.48159 -0.537278 0
M  V30 34 C 3.8662 -1.64807 -1.6696 0
M  V30 35 C 4.8822 -0.530651 -1.65711 0
M  V30 36 O 6.0582 -0.800784 -1.84796 0
M  V30 37 C 3.1232 -1.67708 -3.03438 0
M  V30 38 C 2.1842 -2.91025 -3.156 0
M  V30 39 C 1.4172 -2.93778 -4.45567 0
M  V30 40 O 1.6402 -2.05153 -5.3223 0
M  V30 41 O 0.5742 -3.85868 -4.61941 0
M  V30 42 H 4.4002 -2.6066 -1.55853 0
M  V30 43 H 1.9852 -1.31475 -0.709549 0
M  V30 44 H 3.8672 -1.7218 -3.84619 0
M  V30 45 H 2.5422 -0.750278 -3.14885 0
M  V30 46 H 1.4492 -2.92089 -2.33741 0
M  V30 47 H 2.7822 -3.83065 -3.09066 0
M  V30 48 N 4.4343 0.785586 -1.36625 0
M  V30 49 C 5.6813 1.54362 -1.31067 0
M  V30 50 C 6.0093 1.94195 0.10893 0
M  V30 51 O 5.2643 1.63262 1.07908 0
M  V30 52 C 5.5633 2.83007 -2.1827 0
M  V30 53 C 5.2293 2.62294 -3.6676 0
M  V30 54 C 3.8913 2.56353 -4.0723 0
M  V30 55 C 6.2433 2.43371 -4.6089 0
M  V30 56 C 3.5713 2.29461 -5.39967 0
M  V30 57 C 5.9233 2.18005 -5.93849 0
M  V30 58 C 4.5873 2.105 -6.3344 0
M  V30 59 H 3.8573 0.564851 -0.479609 0
M  V30 60 H 6.5043 0.906028 -1.68711 0
M  V30 61 H 4.8093 3.51253 -1.73576 0
M  V30 62 H 6.5063 3.40817 -2.11292 0
M  V30 63 H 3.0963 2.67774 -3.34656 0
M  V30 64 H 7.2803 2.46959 -4.30494 0
M  V30 65 H 2.5363 2.22135 -5.69619 0
M  V30 66 H 6.7103 2.02359 -6.66351 0
M  V30 67 H 4.3373 1.89425 -7.36222 0
M  V30 68 N 5.9124 1.20967 1.01018 0
M  V30 69 C 7.1584 1.0353 1.7508 0
M  V30 70 C 7.5134 -0.42734 1.87594 0
M  V30 71 O 6.8064 -1.31298 1.3954 0
M  V30 72 C 7.0004 1.65997 3.16512 0
M  V30 73 C 6.8294 3.18184 3.17788 0
M  V30 74 C 5.5994 3.87198 3.24662 0
M  V30 75 C 7.7974 4.15334 3.03319 0
M  V30 76 N 5.7794 5.26618 3.15509 0
M  V30 77 C 7.1504 5.41472 3.02007 0
M  V30 78 C 9.2054 4.06449 2.87583 0
M  V30 79 C 7.9084 6.5975 2.86571 0
M  V30 80 C 9.9344 5.24357 2.73503 0
M  V30 81 C 9.2964 6.49404 2.72862 0
M  V30 82 H 5.3954 0.433137 0.651089 0
M  V30 83 H 7.9794 1.5324 1.20107 0
M  V30 84 H 6.1504 1.18863 3.69765 0
M  V30 85 H 7.8824 1.41816 3.79039 0
M  V30 86 H 4.6374 3.38093 3.31648 0
M  V30 87 H 5.0614 5.99626 3.14289 0
M  V30 88 H 9.7034 3.10573 2.86887 0
M  V30 89 H 7.4214 7.55792 2.86015 0
M  V30 90 H 11.0074 5.19299 2.62334 0
M  V30 91 H 9.8874 7.39105 2.62093 0
M  V30 92 N 7.3905 -1.2043 1.01659 0
M  V30 93 C 8.3205 -2.25466 0.607226 0
M  V30 94 C 9.3015 -1.65853 -0.377716 0
M  V30 95 O 10.4865 -1.92409 -0.263149 0
M  V30 96 C 7.6165 -3.47256 -0.0552949 0
M  V30 97 C 6.5705 -4.19462 0.850632 0
M  V30 98 C 5.8965 -5.34673 0.0538859 0
M  V30 99 C 7.1965 -4.75603 2.15868 0
M  V30 100 H 8.8905 -2.59962 1.48526 0
M  V30 101 H 6.4365 -1.2496 0.715605 0
M  V30 102 H 8.3895 -4.19917 -0.353233 0
M  V30 103 H 7.1135 -3.11924 -0.968045 0
M  V30 104 H 5.7725 -3.48667 1.13257 0
M  V30 105 H 5.4205 -4.95585 -0.860514 0
M  V30 106 H 5.1205 -5.83913 0.657192 0
M  V30 107 H 6.6445 -6.10138 -0.237598 0
M  V30 108 H 8.0585 -5.40083 1.92311 0
M  V30 109 H 6.4555 -5.3528 2.71284 0
M  V30 110 H 7.5255 -3.94346 2.82169 0
M  V30 111 N 8.8686 -0.792821 -1.36206 0
M  V30 112 C 10.1176 -0.363353 -1.984 0
M  V30 113 C 10.4306 1.07172 -1.63626 0
M  V30 114 O 11.6366 1.60362 -2.19081 0
M  V30 115 C 10.0926 -0.59872 -3.54885 0
M  V30 116 C 9.7006 -2.04543 -3.9858 0
M  V30 117 C 11.4446 -0.233926 -4.23855 0
M  V30 118 C 9.3516 -2.22727 -5.47856 0
M  V30 119 H 8.2816 -0.13212 -0.742334 0
M  V30 120 H 10.9326 -0.974935 -1.55458 0
M  V30 121 H 9.3146 0.0826222 -3.95914 0
M  V30 122 H 10.4886 -2.76345 -3.68741 0
M  V30 123 H 8.8036 -2.36879 -3.42458 0
M  V30 124 H 11.4006 -0.348027 -5.33566 0
M  V30 125 H 11.7436 0.818351 -4.08177 0
M  V30 126 H 12.2766 -0.868639 -3.882 0
M  V30 127 H 9.0156 -3.2635 -5.68486 0
M  V30 128 H 8.5356 -1.55434 -5.7931 0
M  V30 129 H 10.2146 -2.03607 -6.14128 0
M  V30 130 N 10.3467 1.47872 -0.545128 0
M  V30 131 C 11.5717 2.07391 -0.0190611 0
M  V30 132 C 11.9967 1.39688 1.25971 0
M  V30 133 O 11.3547 0.467816 1.7516 0
M  V30 134 C 11.4027 3.60188 0.172335 0
M  V30 135 O 10.5067 3.9339 1.23766 0
M  V30 136 H 9.8477 0.662411 -0.0459059 0
M  V30 137 H 12.3777 1.90066 -0.757365 0
M  V30 138 H 12.3877 4.06129 0.390305 0
M  V30 139 H 11.0627 4.08865 -0.761725 0
M  V30 140 H 9.6397 3.5921 1.00114 0
M  V30 141 N 11.8248 0.280983 1.55075 0
M  V30 142 C 12.7878 -0.590896 2.21452 0
M  V30 143 C 13.7878 -1.07682 1.19421 0
M  V30 144 O 14.9778 -0.97605 1.44288 0
M  V30 145 C 12.1098 -1.81587 2.88511 0
M  V30 146 H 13.3028 -0.0112554 2.99898 0
M  V30 147 H 10.8558 0.0316438 1.56268 0
M  V30 148 H 11.5908 -2.43587 2.14093 0
M  V30 149 H 11.3758 -1.4753 3.63287 0
M  V30 150 H 12.8658 -2.43575 3.39206 0
M  V30 151 N 13.3029 -1.57598 0.00835791 0
M  V30 152 C 14.7139 -1.7892 -0.53333 0
M  V30 153 C 15.0649 -0.916609 -1.73473 0
M  V30 154 O 14.1899 -0.121336 -2.1606 0
M  V30 155 C 14.7849 -3.24488 -0.974313 0
M  V30 156 C 13.3439 -3.46878 -1.46125 0
M  V30 157 C 12.4909 -2.74157 -0.416302 0
M  V30 158 H 15.4419 -1.56958 0.234495 0
M  V30 159 H 15.4629 -3.3306 -1.83988 0
M  V30 160 H 14.9749 -3.87972 -0.099718 0
M  V30 161 H 13.0759 -2.8862 -2.35646 0
M  V30 162 H 13.1889 -4.55572 -1.48295 0
M  V30 163 H 11.5529 -2.39022 -0.87981 0
M  V30 164 H 12.3359 -3.40345 0.44947 0
M  V30 165 N 14.781 0.264519 -1.55364 0
M  V30 166 C 16.029 0.993021 -1.76021 0
M  V30 167 C 16.35 1.86511 -0.569099 0
M  V30 168 O 15.62 1.91438 0.415735 0
M  V30 169 H 14.2 0.369639 -0.649135 0
M  V30 170 H 16.862 0.286707 -1.9278 0
M  V30 171 H 15.958 1.62502 -2.66457 0
M  V30 172 N 16.2591 1.48442 0.529413 0
M  V30 173 C 17.1691 1.6569 1.66084 0
M  V30 174 C 18.1851 0.539432 1.65427 0
M  V30 175 O 19.3611 0.810572 1.84368 0
M  V30 176 C 16.4261 1.69315 3.02545 0
M  V30 177 C 15.4871 2.92694 3.14052 0
M  V30 178 C 14.7201 2.96137 4.44003 0
M  V30 179 O 14.9431 2.07973 5.31134 0
M  V30 180 O 13.8771 3.88312 4.59888 0
M  V30 181 H 17.7031 2.61483 1.54469 0
M  V30 182 H 15.2881 1.3185 0.702567 0
M  V30 183 H 17.1701 1.74217 3.83701 0
M  V30 184 H 15.8451 0.766966 3.14483 0
M  V30 185 H 14.7521 2.93324 2.32189 0
M  V30 186 H 16.0851 3.84699 3.0703 0
M  V30 187 N 17.7372 -0.778329 1.37039 0
M  V30 188 C 18.6842 -1.89139 1.32269 0
M  V30 189 C 19.6542 -1.65017 0.189387 0
M  V30 190 O 20.8392 -1.87024 0.377693 0
M  V30 191 C 17.9792 -3.26112 1.12894 0
M  V30 192 C 17.0922 -3.62233 2.35396 0
M  V30 193 C 16.2272 -4.8838 2.08946 0
M  V30 194 C 15.2662 -5.17212 3.2735 0
M  V30 195 N 14.4032 -6.34546 3.00492 0
M  V30 196 H 19.2432 -1.92552 2.27437 0
M  V30 197 H 16.7802 -0.941473 1.13025 0
M  V30 198 H 18.7382 -4.05116 0.996835 0
M  V30 199 H 17.3682 -3.22091 0.213758 0
M  V30 200 H 16.4202 -2.78265 2.5937 0
M  V30 201 H 17.7322 -3.79481 3.23721 0
M  V30 202 H 16.8862 -5.75274 1.92729 0
M  V30 203 H 15.6252 -4.73222 1.17949 0
M  V30 204 H 14.6302 -4.28796 3.44113 0
M  V30 205 H 15.8552 -5.34283 4.19188 0
M  V30 206 H 13.8012 -6.20759 2.12118 0
M  V30 207 H 13.7182 -6.52179 3.82358 0
M  V30 208 H 14.9862 -7.24394 2.87879 0
M  V30 209 N 19.2153 -1.21501 -1.00376 0
M  V30 210 C 20.4433 -1.059 -1.77744 0
M  V30 211 C 20.8583 0.391125 -1.84704 0
M  V30 212 O 20.2153 1.27133 -1.30933 0
M  V30 213 C 20.2663 -1.65111 -3.21591 0
M  V30 214 O 19.9873 -3.0445 -3.15027 0
M  V30 215 C 21.4883 -1.54637 -4.15454 0
M  V30 216 H 18.7083 -0.371825 -0.558558 0
M  V30 217 H 21.2523 -1.60865 -1.26264 0
M  V30 218 H 19.4073 -1.14235 -3.70175 0
M  V30 219 H 19.8213 -3.3278 -4.0541 0
M  V30 220 H 21.2953 -2.00808 -5.14179 0
M  V30 221 H 21.7723 -0.501022 -4.36333 0
M  V30 222 H 22.3783 -2.04767 -3.72761 0
M  V30 223 N 20.6934 1.19889 -1.02296 0
M  V30 224 C 21.9334 1.91125 -0.724602 0
M  V30 225 C 22.2974 1.77464 0.732835 0
M  V30 226 O 23.4984 2.43241 1.144 0
M  V30 227 C 21.7694 3.38187 -1.15604 0
M  V30 228 S 23.3284 4.27702 -0.980621 0
M  V30 229 H 20.1464 0.66018 -0.263976 0
M  V30 230 H 22.7484 1.44978 -1.31155 0
M  V30 231 H 21.4524 3.45653 -2.21251 0
M  V30 232 H 20.9834 3.89363 -0.562131 0
M  V30 233 H 22.9984 4.96073 0.112225 0
M  V30 234 N 22.1715 0.800033 1.35784 0
M  V30 235 C 23.1035 0.163596 2.28615 0
M  V30 236 C 24.1165 -0.633317 1.49976 0
M  V30 237 O 25.3055 -0.466754 1.72289 0
M  V30 238 C 22.4055 -0.790958 3.29541 0
M  V30 239 C 21.5785 -0.0418255 4.3738 0
M  V30 240 C 20.6375 -0.91389 5.18203 0
M  V30 241 O 19.6635 -0.367234 5.68014 0
M  V30 242 N 20.8655 -2.23682 5.35674 0
M  V30 243 H 23.6305 0.96105 2.83873 0
M  V30 244 H 21.1915 0.654894 1.48063 0
M  V30 245 H 23.1835 -1.37844 3.80501 0
M  V30 246 H 21.7535 -1.48925 2.74846 0
M  V30 247 H 20.9735 0.726813 3.87442 0
M  V30 248 H 22.2615 0.474719 5.06581 0
M  V30 249 H 21.6595 -2.70497 4.96838 0
M  V30 250 H 20.2165 -2.77369 5.89839 0
M  V30 251 N 23.6496 -1.47581 0.552962 0
M  V30 252 C 24.5816 -2.27997 -0.234533 0
M  V30 253 C 25.5946 -1.36753 -0.883321 0
M  V30 254 O 26.7836 -1.61612 -0.757889 0
M  V30 255 C 23.8836 -3.10879 -1.34935 0
M  V30 256 C 23.0566 -4.30056 -0.798158 0
M  V30 257 C 22.1156 -4.94567 -1.79694 0
M  V30 258 O 21.1416 -5.53087 -1.34474 0
M  V30 259 N 22.3436 -4.88878 -3.13015 0
M  V30 260 H 25.1086 -2.96222 0.455255 0
M  V30 261 H 22.6696 -1.57163 0.388761 0
M  V30 262 H 24.6616 -3.50903 -2.01616 0
M  V30 263 H 23.2316 -2.44924 -1.94244 0
M  V30 264 H 22.4516 -3.94174 0.0453079 0
M  V30 265 H 23.7396 -5.07152 -0.409173 0
M  V30 266 H 23.1376 -4.42526 -3.52402 0
M  V30 267 H 21.6946 -5.32934 -3.75266 0
M  V30 268 N 25.1277 -0.289203 -1.54924 0
M  V30 269 C 26.3557 0.326463 -2.04308 0
M  V30 270 C 26.7707 1.48413 -1.16701 0
M  V30 271 O 26.1277 1.81507 -0.190087 0
M  V30 272 C 26.1787 0.794014 -3.52672 0
M  V30 273 O 25.8997 -0.317564 -4.36948 0
M  V30 274 C 27.4007 1.47605 -4.18004 0
M  V30 275 H 24.6207 0.0726272 -0.667058 0
M  V30 276 H 27.1647 -0.425401 -2.00026 0
M  V30 277 H 25.3197 1.49593 -3.57352 0
M  V30 278 H 25.7337 0.0443186 -5.24481 0
M  V30 279 H 27.2077 1.75447 -5.23376 0
M  V30 280 H 27.6847 2.41224 -3.67025 0
M  V30 281 H 28.2907 0.81762 -4.17367 0
M  V30 282 N 26.6058 1.57591 -0.0167156 0
M  V30 283 C 27.8518 1.92399 0.659861 0
M  V30 284 C 28.2068 0.892561 1.70444 0
M  V30 285 O 27.4998 -0.0930755 1.91374 0
M  V30 286 C 27.6938 3.3172 1.33029 0
M  V30 287 C 27.5228 4.48319 0.352174 0
M  V30 288 C 26.2928 5.05281 -0.0434883 0
M  V30 289 C 28.4908 5.12831 -0.388474 0
M  V30 290 N 26.4728 6.05399 -1.01807 0
M  V30 291 C 27.8438 6.07934 -1.2172 0
M  V30 292 C 29.8988 4.95858 -0.450513 0
M  V30 293 C 28.6018 6.87891 -2.10235 0
M  V30 294 C 30.6278 5.76413 -1.32295 0
M  V30 295 C 29.9898 6.71123 -2.13948 0
M  V30 296 H 26.0888 0.752106 0.21415 0
M  V30 297 H 28.6728 1.94532 -0.0809846 0
M  V30 298 H 26.8438 3.3043 2.04134 0
M  V30 299 H 28.5758 3.5391 1.9629 0
M  V30 300 H 25.3308 4.7246 0.328384 0
M  V30 301 H 25.7548 6.60145 -1.50123 0
M  V30 302 H 30.3968 4.22472 0.166512 0
M  V30 303 H 28.1148 7.60591 -2.72997 0
M  V30 304 H 31.7008 5.65317 -1.37508 0
M  V30 305 H 30.5808 7.3237 -2.80364 0
M  V30 306 N 28.0839 -0.256276 1.55502 0
M  V30 307 C 28.9939 -1.33882 1.92647 0
M  V30 308 C 30.0099 -1.53159 0.825727 0
M  V30 309 O 31.1859 -1.66963 1.12629 0
M  V30 310 C 28.2509 -2.6751 2.20543 0
M  V30 311 C 27.3119 -2.56836 3.43997 0
M  V30 312 C 26.5449 -3.84092 3.70553 0
M  V30 313 O 26.7679 -4.85545 2.99336 0
M  V30 314 O 25.7019 -3.83288 4.64084 0
M  V30 315 H 29.5279 -1.05374 2.84833 0
M  V30 316 H 27.1129 -0.456237 1.42263 0
M  V30 317 H 28.9949 -3.46492 2.39835 0
M  V30 318 H 27.6699 -2.9577 1.31536 0
M  V30 319 H 26.5769 -1.76172 3.30021 0
M  V30 320 H 27.9099 -2.33523 4.33275 0
M  V30 321 N 29.562 -1.4872 -0.521534 0
M  V30 322 C 30.509 -1.63871 -1.62527 0
M  V30 323 C 31.479 -0.480559 -1.58996 0
M  V30 324 O 32.664 -0.705085 -1.77294 0
M  V30 325 C 29.804 -1.69227 -3.00759 0
M  V30 326 C 28.917 -2.96207 -3.14461 0
M  V30 327 C 28.052 -2.92671 -4.43303 0
M  V30 328 C 27.091 -4.14318 -4.50563 0
M  V30 329 N 26.228 -4.0881 -5.70805 0
M  V30 330 H 31.068 -2.58123 -1.48918 0
M  V30 331 H 28.605 -1.28 -0.724878 0
M  V30 332 H 30.563 -1.70314 -3.80853 0
M  V30 333 H 29.193 -0.784586 -3.1312 0
M  V30 334 H 28.245 -3.04826 -2.27564 0
M  V30 335 H 29.557 -3.86192 -3.15686 0
M  V30 336 H 28.711 -2.92206 -5.31696 0
M  V30 337 H 27.45 -2.00429 -4.44612 0
M  V30 338 H 26.455 -4.15049 -3.60575 0
M  V30 339 H 27.68 -5.07729 -4.50986 0
M  V30 340 H 25.626 -3.19394 -5.72995 0
M  V30 341 H 25.543 -4.92509 -5.7356 0
M  V30 342 H 26.811 -4.12418 -6.61462 0
M  V30 343 N 31.0401 0.771051 -1.3745 0
M  V30 344 C 31.9701 1.89827 -1.3597 0
M  V30 345 C 32.9511 1.68562 -0.228216 0
M  V30 346 O 34.1361 1.8941 -0.428675 0
M  V30 347 C 31.2661 3.2712 -1.16662 0
M  V30 348 C 30.2201 3.6295 -2.2683 0
M  V30 349 C 29.5461 4.98791 -1.92644 0
M  V30 350 C 30.8461 3.69627 -3.69017 0
M  V30 351 H 32.5401 1.91323 -2.30295 0
M  V30 352 H 30.0861 0.919082 -1.10855 0
M  V30 353 H 32.0391 4.05615 -1.14256 0
M  V30 354 H 30.7631 3.26059 -0.187926 0
M  V30 355 H 29.4221 2.86763 -2.28392 0
M  V30 356 H 29.0701 4.94271 -0.933021 0
M  V30 357 H 28.7701 5.23733 -2.66416 0
M  V30 358 H 30.2941 5.79685 -1.91826 0
M  V30 359 H 31.7081 4.38273 -3.69581 0
M  V30 360 H 30.1051 4.06067 -4.41848 0
M  V30 361 H 31.1751 2.70273 -4.02592 0
M  V30 362 N 32.5182 1.22032 0.997298 0
M  V30 363 C 33.4682 0.953838 2.07089 0
M  V30 364 C 34.4522 -0.0938669 1.60626 0
M  V30 365 O 35.6442 0.116078 1.76619 0
M  V30 366 C 32.7732 0.528726 3.39204 0
M  V30 367 C 31.8592 1.61092 3.92314 0
M  V30 368 N 32.2502 2.83768 4.18699 0
M  V30 369 C 30.5482 1.48158 4.20672 0
M  V30 370 C 31.2492 3.53715 4.61802 0
M  V30 371 N 30.2252 2.81174 4.65233 0
M  V30 372 H 34.0272 1.88577 2.25424 0
M  V30 373 H 31.5412 1.11719 1.17867 0
M  V30 374 H 33.5382 0.31915 4.15677 0
M  V30 375 H 32.1982 -0.39635 3.22272 0
M  V30 376 H 33.2092 3.20238 4.07023 0
M  V30 377 H 29.8862 0.622369 4.12835 0
M  V30 378 H 31.2762 4.58793 4.90875 0
M  V30 379 N 33.9963 -1.19345 1.0293 0
M  V30 380 C 34.9593 -2.20793 0.615069 0
M  V30 381 C 35.9593 -1.57553 -0.321533 0
M  V30 382 O 37.1493 -1.73862 -0.108483 0
M  V30 383 C 34.2813 -3.40754 -0.0999222 0
M  V30 384 H 35.4743 -2.58955 1.51269 0
M  V30 385 H 33.0273 -1.3303 0.820534 0
M  V30 386 H 33.7623 -3.0811 -1.01187 0
M  V30 387 H 33.5473 -3.87889 0.57309 0
M  V30 388 H 35.0373 -4.15898 -0.376645 0
M  V30 389 N 35.4744 -0.807222 -1.35358 0
M  V30 390 C 36.4374 -0.223665 -2.28106 0
M  V30 391 C 37.4374 0.589354 -1.4961 0
M  V30 392 O 38.6274 0.407745 -1.69361 0
M  V30 393 C 35.7594 0.688149 -3.33882 0
M  V30 394 H 36.9524 -1.04169 -2.81227 0
M  V30 395 H 34.5054 -0.577921 -1.45223 0
M  V30 396 H 35.2404 1.52984 -2.85948 0
M  V30 397 H 35.0254 0.10687 -3.91954 0
M  V30 398 H 36.5154 1.09075 -4.03104 0
M  V30 399 N 36.9525 1.47285 -0.560781 0
M  V30 400 C 38.1805 2.06855 -0.0430262 0
M  V30 401 C 38.5955 1.41291 1.25229 0
M  V30 402 O 37.9525 0.510648 1.7521 0
M  V30 403 C 38.0035 3.61178 0.152518 0
M  V30 404 O 37.7245 4.24285 -1.0915 0
M  V30 405 C 39.2255 4.37624 0.707145 0
M  V30 406 H 36.4455 0.669319 -0.0474652 0
M  V30 407 H 38.9895 1.89237 -0.77521 0
M  V30 408 H 37.1445 3.78298 0.834843 0
M  V30 409 H 37.5585 5.16868 -0.891482 0
M  V30 410 H 39.0325 5.46271 0.793244 0
M  V30 411 H 39.5095 4.04152 1.71923 0
M  V30 412 H 40.1155 4.25257 0.0604027 0
M  V30 413 N 38.4306 0.297415 1.54768 0
M  V30 414 C 39.6556 -0.318435 2.04941 0
M  V30 415 C 40.0806 -1.4701 1.17345 0
M  V30 416 O 39.4386 -1.80436 0.176758 0
M  V30 417 C 39.4866 -0.755749 3.52592 0
M  V30 418 O 38.5906 -1.86088 3.68028 0
M  V30 419 H 37.9316 -0.062421 0.661059 0
M  V30 420 H 40.4616 0.438215 1.99852 0
M  V30 421 H 40.4716 -1.04552 3.94376 0
M  V30 422 H 39.1466 0.0867233 4.1581 0
M  V30 423 H 37.7236 -1.57193 3.38149 0
M  V30 424 N 39.9087 -1.5758 0.0250728 0
M  V30 425 C 40.8557 -2.09973 -0.958129 0
M  V30 426 C 41.8257 -1.00085 -1.3256 0
M  V30 427 O 43.0107 -1.27481 -1.41962 0
M  V30 428 C 40.1507 -2.62812 -2.2366 0
M  V30 429 C 39.2637 -3.86693 -1.92594 0
M  V30 430 C 38.3987 -4.27941 -3.14707 0
M  V30 431 C 37.4377 -5.44591 -2.79442 0
M  V30 432 N 36.5747 -5.81014 -3.94167 0
M  V30 433 H 41.4147 -2.937 -0.504428 0
M  V30 434 H 38.9517 -1.45172 -0.237392 0
M  V30 435 H 40.9097 -2.91536 -2.98434 0
M  V30 436 H 39.5397 -1.81922 -2.66654 0
M  V30 437 H 38.5917 -3.64723 -1.0808 0
M  V30 438 H 39.9037 -4.71547 -1.62619 0
M  V30 439 H 39.0577 -4.58079 -3.97804 0
M  V30 440 H 37.7967 -3.41845 -3.4784 0
M  V30 441 H 36.8017 -5.1415 -1.94755 0
M  V30 442 H 38.0267 -6.32382 -2.47528 0
M  V30 443 H 35.9727 -4.97874 -4.2715 0
M  V30 444 H 35.8897 -6.60498 -3.67801 0
M  V30 445 H 37.1577 -6.15756 -4.7798 0
M  V30 446 N 41.3868 0.248026 -1.55636 0
M  V30 447 C 42.3348 1.32683 -1.91045 0
M  V30 448 C 43.3288 1.49883 -0.789401 0
M  V30 449 O 44.5348 1.51371 -0.974007 0
M  V30 450 H 40.9098 0.444272 -0.606734 0
M  V30 451 H 42.8808 1.00085 -2.81115 0
M  V30 452 C 41.6298 2.6755 -2.22064 0
M  V30 453 H 40.9528 2.55114 -3.07826 0
M  V30 454 H 42.3928 3.41912 -2.50743 0
M  V30 455 C 40.8518 3.20556 -1.0366 0
M  V30 456 O 41.3818 4.00695 -0.284016 0
M  V30 457 N 39.5878 2.78568 -0.82753 0
M  V30 458 H 39.1348 2.1351 -1.44123 0
M  V30 459 H 39.0928 3.14378 -0.0369803 0
M  V30 460 N 42.8649 1.48995 0.513639 0
M  V30 461 C 43.8129 1.65199 1.63744 0
M  V30 462 C 44.8069 0.51809 1.61283 0
M  V30 463 O 46.0129 0.697335 1.65943 0
M  V30 464 H 42.3879 0.52069 0.542574 0
M  V30 465 H 44.3589 2.59552 1.47226 0
M  V30 466 C 43.1079 1.72409 3.01945 0
M  V30 467 H 42.4309 2.59029 3.04539 0
M  V30 468 H 43.8709 1.87785 3.80148 0
M  V30 469 C 42.3299 0.46618 3.33659 0
M  V30 470 O 42.8599 -0.413744 3.99564 0
M  V30 471 N 41.0659 0.332931 2.88687 0
M  V30 472 H 40.6129 1.04996 2.35231 0
M  V30 473 H 40.5709 -0.507665 3.10274 0
M  V30 474 N 44.343 -0.763751 1.37857 0
M  V30 475 C 45.291 -1.89864 1.34367 0
M  V30 476 C 46.285 -1.67816 0.231143 0
M  V30 477 O 47.491 -1.75508 0.399617 0
M  V30 478 H 43.866 -0.624501 0.41893 0
M  V30 479 H 45.837 -1.89925 2.30155 0
M  V30 480 C 44.586 -3.27227 1.1755 0
M  V30 481 H 43.909 -3.44773 2.02414 0
M  V30 482 H 45.349 -4.06911 1.1916 0
M  V30 483 C 43.808 -3.36692 -0.118311 0
M  V30 484 O 44.338 -3.86374 -1.09902 0
M  V30 485 N 42.544 -2.90092 -0.171717 0
M  V30 486 H 42.091 -2.49853 0.627012 0
M  V30 487 H 42.049 -2.96806 -1.03699 0
M  V30 488 N 45.8211 -1.22559 -0.990812 0
M  V30 489 C 46.7511 -1.0218 -2.09956 0
M  V30 490 C 47.7321 0.0579394 -1.70001 0
M  V30 491 O 48.9171 -0.104684 -1.93918 0
M  V30 492 C 46.0471 -0.601023 -3.4206 0
M  V30 493 C 45.0011 -1.62694 -3.95872 0
M  V30 494 C 44.3271 -1.06193 -5.24049 0
M  V30 495 C 45.6271 -3.01743 -4.2632 0
M  V30 496 H 47.3211 -1.94916 -2.27262 0
M  V30 497 H 44.8671 -0.938566 -1.09211 0
M  V30 498 H 46.8201 -0.445561 -4.19038 0
M  V30 499 H 45.5441 0.362005 -3.24588 0
M  V30 500 H 44.2031 -1.77021 -3.21028 0
M  V30 501 H 43.8511 -0.0901903 -5.02919 0
M  V30 502 H 43.5511 -1.74732 -5.61019 0
M  V30 503 H 45.0751 -0.918092 -6.03658 0
M  V30 504 H 46.4891 -2.90777 -4.94087 0
M  V30 505 H 44.8861 -3.67425 -4.74467 0
M  V30 506 H 45.9561 -3.51518 -3.34011 0
M  V30 507 N 47.2992 1.18797 -1.03562 0
M  V30 508 C 48.2622 2.20464 -0.626769 0
M  V30 509 C 49.2622 1.57721 0.313173 0
M  V30 510 O 50.4522 1.73917 0.0992615 0
M  V30 511 C 47.5842 3.40802 0.0818498 0
M  V30 512 H 48.7772 2.58149 -1.5264 0
M  V30 513 H 46.3302 1.32593 -0.827578 0
M  V30 514 H 47.0652 3.08642 0.995518 0
M  V30 515 H 46.8502 3.8758 -0.593652 0
M  V30 516 H 48.3402 4.16092 0.354584 0
M  V30 517 N 48.7773 0.814389 1.34928 0
M  V30 518 C 50.0233 0.399013 1.98836 0
M  V30 519 C 50.3563 -1.03314 1.64438 0
M  V30 520 O 49.6313 -1.71811 0.911659 0
M  V30 521 C 49.9143 0.591629 3.55207 0
M  V30 522 C 49.7673 2.06928 3.99376 0
M  V30 523 C 51.0863 0.022199 4.40094 0
M  V30 524 H 48.2053 0.146451 0.722303 0
M  V30 525 H 50.8473 1.02537 1.59957 0
M  V30 526 H 48.9973 0.0584441 3.88456 0
M  V30 527 H 50.6693 2.66544 3.76499 0
M  V30 528 H 48.9123 2.56287 3.49999 0
M  V30 529 H 49.5833 2.1549 5.08201 0
M  V30 530 H 52.0593 0.477643 4.13349 0
M  V30 531 H 50.9353 0.186832 5.48582 0
M  V30 532 H 51.1963 -1.07215 4.28902 0
M  V30 533 N 50.2554 -1.46986 0.568584 0
M  V30 534 C 51.4834 -2.0683 0.0539956 0
M  V30 535 C 51.8984 -1.41953 -1.24478 0
M  V30 536 O 51.2554 -0.519933 -1.74937 0
M  V30 537 C 51.3064 -3.61254 -0.133362 0
M  V30 538 O 51.0274 -4.237 1.11399 0
M  V30 539 C 52.5284 -4.37992 -0.683927 0
M  V30 540 H 49.7484 -0.669058 0.0510141 0
M  V30 541 H 52.2924 -1.88824 0.785234 0
M  V30 542 H 50.4474 -3.78735 -0.81477 0
M  V30 543 H 50.8614 -5.16388 0.91888 0
M  V30 544 H 52.3354 -5.46684 -0.764263 0
M  V30 545 H 52.8124 -4.05058 -1.69778 0
M  V30 546 H 53.4184 -4.25283 -0.0378494 0
M  V30 547 N 51.7335 -0.305618 -1.54608 0
M  V30 548 C 52.9585 0.307562 -2.05107 0
M  V30 549 C 53.3835 1.46385 -1.18123 0
M  V30 550 O 52.7415 1.8034 -0.186324 0
M  V30 551 C 52.7895 0.73704 -3.52987 0
M  V30 552 O 51.8935 1.84134 -3.6901 0
M  V30 553 H 51.2345 0.0589143 -0.661381 0
M  V30 554 H 53.7645 -0.448807 -1.99617 0
M  V30 555 H 53.7745 1.02459 -3.94925 0
M  V30 556 H 52.4495 -0.108773 -4.15758 0
M  V30 557 H 51.0265 1.55398 -3.38978 0
M  V30 558 N 53.2116 1.57565 -0.0334293 0
M  V30 559 C 54.1586 2.10478 0.946981 0
M  V30 560 C 55.1286 1.00787 1.32027 0
M  V30 561 O 56.3136 1.28232 1.41284 0
M  V30 562 C 53.4536 2.63994 2.22263 0
M  V30 563 C 52.5666 3.87709 1.90541 0
M  V30 564 C 51.7016 4.29604 3.12433 0
M  V30 565 C 50.7406 5.46065 2.76549 0
M  V30 566 N 49.8776 5.83096 3.9108 0
M  V30 567 H 54.7176 2.93963 0.488846 0
M  V30 568 H 52.2546 1.45296 0.22969 0
M  V30 569 H 54.2126 2.93114 2.96884 0
M  V30 570 H 52.8426 1.83333 2.65685 0
M  V30 571 H 51.8946 3.65291 1.06144 0
M  V30 572 H 53.2066 4.72403 1.60116 0
M  V30 573 H 52.3606 4.60182 3.9537 0
M  V30 574 H 51.0996 3.43685 3.46023 0
M  V30 575 H 50.1046 5.15176 1.92026 0
M  V30 576 H 51.3296 6.33685 2.44171 0
M  V30 577 H 49.2756 5.00132 4.24504 0
M  V30 578 H 49.1926 6.6244 3.64293 0
M  V30 579 H 50.4606 6.18282 4.74708 0
M  V30 580 N 54.6897 -0.239769 1.55765 0
M  V30 581 C 55.9367 -0.966801 1.7793 0
M  V30 582 C 56.2647 -1.85046 0.599015 0
M  V30 583 O 55.5197 -1.91197 -0.417395 0
M  V30 584 C 55.8187 -1.852 3.05672 0
M  V30 585 C 55.4847 -1.1231 4.36689 0
M  V30 586 C 54.1467 -0.921689 4.72291 0
M  V30 587 C 56.4987 -0.607019 5.17653 0
M  V30 588 C 53.8267 -0.191996 5.86386 0
M  V30 589 C 56.1787 0.109241 6.32506 0
M  V30 590 C 54.8427 0.322073 6.66723 0
M  V30 591 H 54.1127 -0.353778 0.651093 0
M  V30 592 H 56.7597 -0.23634 1.90036 0
M  V30 593 H 55.0647 -2.64975 2.8861 0
M  V30 594 H 56.7617 -2.41635 3.20021 0
M  V30 595 H 53.3517 -1.29004 4.08725 0
M  V30 596 H 57.5357 -0.750153 4.90598 0
M  V30 597 H 52.7917 -0.0166949 6.11398 0
M  V30 598 H 56.9657 0.516737 6.9448 0
M  V30 599 H 54.5927 0.88944 7.54979 0
M  V30 600 N 56.1678 -1.49265 -0.50573 0
M  V30 601 C 57.1158 -1.66065 -1.62866 0
M  V30 602 C 58.1098 -0.526636 -1.61006 0
M  V30 603 O 59.3158 -0.706126 -1.65571 0
M  V30 604 H 55.6908 -0.52356 -0.539805 0
M  V30 605 H 57.6618 -2.60329 -1.45848 0
M  V30 606 C 56.4108 -1.74008 -3.01026 0
M  V30 607 H 55.7338 -2.6064 -3.03161 0
M  V30 608 H 57.1738 -1.89798 -3.79147 0
M  V30 609 C 55.6328 -0.483868 -3.33407 0
M  V30 610 O 56.1628 0.392548 -3.99777 0
M  V30 611 N 54.3688 -0.348236 -2.88506 0
M  V30 612 H 53.9158 -1.06242 -2.34671 0
M  V30 613 H 53.8738 0.491204 -3.10539 0
M  V30 614 N 57.6459 0.756429 -1.3826 0
M  V30 615 C 58.8949 1.51082 -1.3363 0
M  V30 616 C 59.2079 1.95467 0.0720068 0
M  V30 617 O 60.4139 2.7043 0.240834 0
M  V30 618 C 58.8699 2.72893 -2.34644 0
M  V30 619 C 58.4779 2.35544 -3.81081 0
M  V30 620 C 60.2219 3.50791 -2.39052 0
M  V30 621 C 58.1289 3.53948 -4.73787 0
M  V30 622 H 57.0589 0.56727 -0.49671 0
M  V30 623 H 59.7099 0.827147 -1.638 0
M  V30 624 H 58.0919 3.43227 -1.97513 0
M  V30 625 H 59.2659 1.72894 -4.27135 0
M  V30 626 H 57.5809 1.70786 -3.79764 0
M  V30 627 H 60.1779 4.38823 -3.05513 0
M  V30 628 H 60.5209 3.91745 -1.40861 0
M  V30 629 H 61.0539 2.87467 -2.74968 0
M  V30 630 H 57.7929 3.18064 -5.73163 0
M  V30 631 H 57.3129 4.15651 -4.32428 0
M  V30 632 H 58.9919 4.20566 -4.91663 0
M  V30 633 N 59.124 1.23083 0.984299 0
M  V30 634 C 60.535 1.05609 1.5396 0
M  V30 635 C 60.886 -0.377793 1.92528 0
M  V30 636 O 60.011 -1.26398 1.75649 0
M  V30 637 C 60.606 1.91087 2.7977 0
M  V30 638 C 59.165 1.77885 3.31713 0
M  V30 639 C 58.312 1.87028 2.04733 0
M  V30 640 H 61.263 1.36802 0.804419 0
M  V30 641 H 61.284 1.43336 3.5247 0
M  V30 642 H 60.796 2.9544 2.51668 0
M  V30 643 H 58.897 0.762995 3.64704 0
M  V30 644 H 59.01 2.61047 4.01735 0
M  V30 645 H 57.374 1.30565 2.18689 0
M  V30 646 H 58.157 2.92929 1.79017 0
M  V30 647 N 60.6021 -1.18246 1.0419 0
M  V30 648 C 61.8791 -1.84121 0.660208 0
M  V30 649 C 62.2591 -1.92778 -0.860221 0
M  V30 650 O 61.6071 -1.45464 -1.76217 0
M  V30 651 C 61.8171 -3.22355 1.33747 0
M  V30 652 C 63.1651 -3.98376 1.46906 0
M  V30 653 O 64.1891 -3.31799 1.29568 0
M  V30 654 O 63.0481 -5.17665 1.75171 0
M  V30 655 H 60.1421 -0.794036 0.231161 0
M  V30 656 H 62.6881 -1.25628 1.14087 0
M  V30 657 H 61.4601 -3.10964 2.37522 0
M  V30 658 H 61.0831 -3.88506 0.845515 0
M  V30 659 N 62.0802 -0.821533 -1.34494 0
M  V30 660 C 63.0102 -0.257138 -2.3208 0
M  V30 661 C 63.9912 0.625645 -1.58176 0
M  V30 662 O 65.1762 0.552811 -1.86166 0
M  V30 663 C 62.3062 0.582958 -3.42372 0
M  V30 664 C 61.2602 -0.202571 -4.2752 0
M  V30 665 C 60.5862 0.760179 -5.29269 0
M  V30 666 C 61.8862 -1.40998 -5.02908 0
M  V30 667 H 63.5802 -1.07247 -2.79532 0
M  V30 668 H 61.1262 -0.517163 -1.34393 0
M  V30 669 H 63.0792 0.987972 -4.09655 0
M  V30 670 H 61.8032 1.43133 -2.93565 0
M  V30 671 H 60.4622 -0.588936 -3.61838 0
M  V30 672 H 60.1102 1.60447 -4.76724 0
M  V30 673 H 59.8102 0.238809 -5.87115 0
M  V30 674 H 61.3342 1.16308 -5.9942 0
M  V30 675 H 62.7482 -1.07905 -5.63054 0
M  V30 676 H 61.1452 -1.86689 -5.70322 0
M  V30 677 H 62.2152 -2.1889 -4.32684 0
M  V30 678 N 63.5583 1.46682 -0.576371 0
M  V30 679 C 64.5053 2.30241 0.160499 0
M  V30 680 C 65.4753 1.40233 0.890162 0
M  V30 681 O 66.6603 1.69186 0.882084 0
M  V30 682 C 63.8003 3.24578 1.1723 0
M  V30 683 C 62.9133 4.29684 0.446736 0
M  V30 684 C 62.0483 5.11154 1.44551 0
M  V30 685 C 61.0873 6.08015 0.70599 0
M  V30 686 N 60.2243 6.82376 1.65251 0
M  V30 687 H 65.0643 2.92727 -0.558127 0
M  V30 688 H 62.6013 1.44272 -0.287056 0
M  V30 689 H 64.5593 3.77711 1.77172 0
M  V30 690 H 63.1893 2.63916 1.85872 0
M  V30 691 H 62.2413 3.79458 -0.267594 0
M  V30 692 H 63.5533 4.98626 -0.131686 0
M  V30 693 H 62.7073 5.68533 2.11791 0
M  V30 694 H 61.4463 4.42158 2.05786 0
M  V30 695 H 60.4513 5.49796 0.0197725 0
M  V30 696 H 61.6763 6.79028 0.09912 0
M  V30 697 H 59.6223 6.16094 2.25308 0
M  V30 698 H 59.5393 7.47556 1.12673 0
M  V30 699 H 60.8073 7.44316 2.31546 0
M  V30 700 N 65.0364 0.313813 1.54444 0
M  V30 701 C 66.2824 -0.292108 2.00685 0
M  V30 702 C 66.6154 -1.52548 1.20177 0
M  V30 703 O 65.8904 -1.92452 0.281531 0
M  V30 704 C 66.1734 -0.635968 3.5444 0
M  V30 705 C 66.0264 0.607437 4.4568 0
M  V30 706 C 67.3454 -1.45747 4.15266 0
M  V30 707 H 64.4644 -0.104697 0.729526 0
M  V30 708 H 67.1064 0.428457 1.85106 0
M  V30 709 H 65.2564 -1.24986 3.67846 0
M  V30 710 H 66.9284 1.24581 4.44159 0
M  V30 711 H 65.1714 1.23822 4.15753 0
M  V30 712 H 65.8424 0.322515 5.51057 0
M  V30 713 H 68.3184 -0.938645 4.05375 0
M  V30 714 H 67.1944 -1.66683 5.2298 0
M  V30 715 H 67.4554 -2.45063 3.67963 0
M  V30 716 N 66.5145 -1.57545 0.0417849 0
M  V30 717 C 67.7625 -1.91937 -0.632829 0
M  V30 718 C 68.0835 -0.919978 -1.71934 0
M  V30 719 O 67.3535 0.0366064 -1.95866 0
M  V30 720 H 65.9335 -0.708493 -0.236742 0
M  V30 721 H 68.5955 -1.9468 0.0925745 0
M  V30 722 H 67.6915 -2.92912 -1.07746 0
M  V30 723 N 67.9926 0.231505 -1.5589 0
M  V30 724 C 69.2206 0.974505 -1.82513 0
M  V30 725 C 69.6356 1.78344 -0.619591 0
M  V30 726 O 68.9926 1.77792 0.411848 0
M  V30 727 C 69.0436 1.90007 -3.07538 0
M  V30 728 O 68.7646 1.12385 -4.2344 0
M  V30 729 C 70.2656 2.75779 -3.47075 0
M  V30 730 H 67.4856 0.286065 -0.606966 0
M  V30 731 H 70.0296 0.249739 -2.02969 0
M  V30 732 H 68.1846 2.57891 -2.89086 0
M  V30 733 H 68.5986 1.75125 -4.944 0
M  V30 734 H 70.0726 3.36443 -4.37619 0
M  V30 735 H 70.5496 3.47672 -2.68367 0
M  V30 736 H 71.1556 2.13323 -3.67931 0
M  V30 737 N 69.4707 1.49531 0.497807 0
M  V30 738 C 70.4007 1.6935 1.60757 0
M  V30 739 C 71.3817 0.542218 1.61227 0
M  V30 740 O 72.5667 0.778417 1.77917 0
M  V30 741 C 69.6967 1.76298 2.99226 0
M  V30 742 C 68.6507 2.91248 3.13622 0
M  V30 743 C 67.9767 2.83312 4.53474 0
M  V30 744 C 69.2767 4.3214 2.93346 0
M  V30 745 H 70.9707 2.62263 1.44425 0
M  V30 746 H 68.5167 1.26208 0.693367 0
M  V30 747 H 70.4697 1.88749 3.76765 0
M  V30 748 H 69.1937 0.799871 3.16654 0
M  V30 749 H 67.8527 2.78404 2.38509 0
M  V30 750 H 67.5007 1.84902 4.67782 0
M  V30 751 H 67.2007 3.60465 4.64046 0
M  V30 752 H 68.7247 2.97775 5.33069 0
M  V30 753 H 70.1387 4.45649 3.60652 0
M  V30 754 H 68.5357 5.1054 3.15387 0
M  V30 755 H 69.6057 4.46363 1.89441 0
M  V30 756 N 70.9488 -0.749086 1.3866 0
M  V30 757 C 72.2258 -1.4992 1.25632 0
M  V30 758 C 72.6058 -2.10633 -0.140317 0
M  V30 759 O 71.9538 -1.97437 -1.15025 0
M  V30 760 C 72.1638 -2.56195 2.36992 0
M  V30 761 C 73.5118 -3.22972 2.75634 0
M  V30 762 O 74.5358 -2.66502 2.36337 0
M  V30 763 O 73.3948 -4.25122 3.43415 0
M  V30 764 H 70.4888 -0.665067 0.491544 0
M  V30 765 H 73.0348 -0.784113 1.50498 0
M  V30 766 H 71.8068 -2.09612 3.30422 0
M  V30 767 H 71.4298 -3.35279 2.13714 0
M  V30 768 N 72.4269 -1.23603 -0.977757 0
M  V30 769 C 73.6729 -1.07129 -1.72195 0
M  V30 770 C 74.0059 0.390501 -1.90233 0
M  V30 771 O 73.2809 1.28902 -1.45653 0
M  V30 772 C 73.5639 -1.80031 -3.11867 0
M  V30 773 C 73.4169 -3.33899 -3.01383 0
M  V30 774 C 74.7359 -1.56492 -4.11337 0
M  V30 775 H 71.8549 -0.390571 -0.624999 0
M  V30 776 H 74.4969 -1.52142 -1.13811 0
M  V30 777 H 72.6469 -1.41768 -3.6171 0
M  V30 778 H 74.3189 -3.81699 -2.59043 0
M  V30 779 H 72.5619 -3.62796 -2.37827 0
M  V30 780 H 73.2329 -3.801 -4.00285 0
M  V30 781 H 75.7089 -1.89757 -3.70313 0
M  V30 782 H 74.5849 -2.09973 -5.07151 0
M  V30 783 H 74.8459 -0.500874 -4.39254 0
M  V30 784 N 73.905 1.17692 -1.04816 0
M  V30 785 C 74.835 2.23777 -0.666791 0
M  V30 786 C 75.816 1.66796 0.33361 0
M  V30 787 O 77.001 1.93039 0.212042 0
M  V30 788 C 74.131 3.47281 -0.0367933 0
M  V30 789 C 73.085 4.17059 -0.961546 0
M  V30 790 C 72.411 5.34342 -0.195626 0
M  V30 791 C 73.711 4.69713 -2.28402 0
M  V30 792 H 75.405 2.55933 -1.55367 0
M  V30 793 H 72.951 1.23019 -0.748484 0
M  V30 794 H 74.904 4.20706 0.241775 0
M  V30 795 H 73.628 3.14381 0.885004 0
M  V30 796 H 72.287 3.45541 -1.22462 0
M  V30 797 H 71.935 4.97692 0.728816 0
M  V30 798 H 71.635 5.81966 -0.811775 0
M  V30 799 H 73.159 6.10553 0.0757473 0
M  V30 800 H 74.573 5.34794 -2.06563 0
M  V30 801 H 72.97 5.279 -2.8538 0
M  V30 802 H 74.04 3.86726 -2.92525 0
M  V30 803 N 75.3831 0.828654 1.34056 0
M  V30 804 C 76.6291 0.42008 1.98402 0
M  V30 805 C 76.9621 -1.01564 1.65525 0
M  V30 806 O 76.2371 -1.70834 0.929831 0
M  V30 807 C 76.5201 0.62927 3.54559 0
M  V30 808 C 76.3731 2.11152 3.97159 0
M  V30 809 C 77.6921 0.0688756 4.40046 0
M  V30 810 H 74.8111 0.154104 0.720709 0
M  V30 811 H 77.4531 1.04228 1.5886 0
M  V30 812 H 75.6031 0.0996418 3.88372 0
M  V30 813 H 77.2751 2.70522 3.73651 0
M  V30 814 H 75.5181 2.59985 3.47261 0
M  V30 815 H 76.1891 2.20868 5.05887 0
M  V30 816 H 78.6651 0.521458 4.1282 0
M  V30 817 H 77.5411 0.245006 5.48353 0
M  V30 818 H 77.8021 -1.0266 4.30015 0
M  V30 819 N 76.8612 -1.46375 0.584142 0
M  V30 820 C 78.1092 -2.01978 0.0701287 0
M  V30 821 C 78.4302 -1.4579 -1.295 0
M  V30 822 O 77.7002 -0.64314 -1.85042 0
M  V30 823 H 76.2802 -0.746648 0.0229345 0
M  V30 824 H 78.9422 -1.79461 0.760245 0
M  V30 825 H 78.0382 -3.121 0.0022064 0
M  V30 826 N 78.3393 -0.321999 -1.54275 0
M  V30 827 C 79.2693 0.537411 -2.27231 0
M  V30 828 C 80.2503 1.12064 -1.27968 0
M  V30 829 O 81.4353 1.14606 -1.56777 0
M  V30 830 C 78.5653 1.69919 -3.02894 0
M  V30 831 C 77.5193 1.24534 -4.09482 0
M  V30 832 C 76.8453 2.49394 -4.72977 0
M  V30 833 C 78.1453 0.361335 -5.21049 0
M  V30 834 H 79.8393 -0.0711406 -2.99315 0
M  V30 835 H 77.3853 -0.0356555 -1.43956 0
M  V30 836 H 79.3383 2.30668 -3.52662 0
M  V30 837 H 78.0623 2.33431 -2.28424 0
M  V30 838 H 76.7213 0.660782 -3.60596 0
M  V30 839 H 76.3693 3.11265 -3.95124 0
M  V30 840 H 76.0693 2.19718 -5.44975 0
M  V30 841 H 77.5933 3.10908 -5.25517 0
M  V30 842 H 79.0073 0.875072 -5.66582 0
M  V30 843 H 77.4043 0.157428 -5.99893 0
M  V30 844 H 78.4743 -0.60822 -4.8107 0
M  V30 845 N 79.8174 1.5752 -0.0501392 0
M  V30 846 C 81.0424 1.97376 0.636997 0
M  V30 847 C 81.4674 0.927466 1.63645 0
M  V30 848 O 80.8254 -0.10941 1.8097 0
M  V30 849 C 80.8734 3.36304 1.30123 0
M  V30 850 O 79.9774 3.34156 2.41689 0
M  V30 851 H 79.3184 0.642998 0.165679 0
M  V30 852 H 81.8484 2.04258 -0.118233 0
M  V30 853 H 81.8584 3.73008 1.65315 0
M  V30 854 H 80.5334 4.11993 0.568746 0
M  V30 855 H 79.1104 3.09196 2.08451 0
M  V30 856 N 81.2955 -0.223234 1.56011 0
M  V30 857 C 82.5725 -0.972108 1.69733 0
M  V30 858 C 82.9525 -2.02485 0.59691 0
M  V30 859 O 82.3005 -2.25037 -0.396324 0
M  V30 860 C 82.5105 -1.58407 3.10979 0
M  V30 861 C 83.8585 -2.07696 3.70334 0
M  V30 862 O 84.8825 -1.68304 3.1393 0
M  V30 863 O 83.7415 -2.80096 4.69264 0
M  V30 864 H 80.8355 -0.453993 0.691245 0
M  V30 865 H 83.3815 -0.215149 1.68331 0
M  V30 866 H 82.1535 -0.823831 3.82529 0
M  V30 867 H 81.7765 -2.40661 3.16493 0
M  V30 868 N 82.7736 -1.49793 -0.48987 0
M  V30 869 C 83.6836 -1.70036 -1.61632 0
M  V30 870 C 84.6996 -0.583102 -1.63939 0
M  V30 871 O 85.8756 -0.859169 -1.82154 0
M  V30 872 C 82.9406 -1.77277 -2.97949 0
M  V30 873 C 82.0016 -3.00918 -3.06181 0
M  V30 874 C 81.2346 -3.07804 -4.35996 0
M  V30 875 O 81.4576 -2.21982 -5.25433 0
M  V30 876 O 80.3916 -4.00369 -4.49431 0
M  V30 877 H 84.2176 -2.65486 -1.47482 0
M  V30 878 H 81.8026 -1.33666 -0.667362 0
M  V30 879 H 83.6846 -1.84329 -3.78947 0
M  V30 880 H 82.3596 -0.850076 -3.12339 0
M  V30 881 H 81.2666 -2.99377 -2.2433 0
M  V30 882 H 82.5996 -3.92704 -2.96723 0
M  V30 883 N 84.2517 0.741722 -1.39055 0
M  V30 884 C 85.1817 1.869 -1.39966 0
M  V30 885 C 86.1627 1.6804 -0.26392 0
M  V30 886 O 87.3477 1.88458 -0.468755 0
M  V30 887 C 84.4777 3.24572 -1.23574 0
M  V30 888 C 83.4317 3.58056 -2.34477 0
M  V30 889 C 82.7577 4.94593 -2.0318 0
M  V30 890 C 84.0577 3.61716 -3.76774 0
M  V30 891 H 85.7517 1.86395 -2.34302 0
M  V30 892 H 83.2977 0.895361 -1.1278 0
M  V30 893 H 85.2507 4.031 -1.22834 0
M  V30 894 H 83.9747 3.25587 -0.257045 0
M  V30 895 H 82.6337 2.81854 -2.34423 0
M  V30 896 H 82.2817 4.92181 -1.03765 0
M  V30 897 H 81.9817 5.17964 -2.77465 0
M  V30 898 H 83.5057 5.75486 -2.04079 0
M  V30 899 H 84.9197 4.30335 -3.78794 0
M  V30 900 H 83.3167 3.96603 -4.50362 0
M  V30 901 H 84.3867 2.61672 -4.08235 0
M  V30 902 N 85.7298 1.2412 0.971189 0
M  V30 903 C 86.6928 1.03156 2.04674 0
M  V30 904 C 87.6928 -0.00990322 1.60797 0
M  V30 905 O 88.8828 0.230729 1.72665 0
M  V30 906 C 86.0148 0.562765 3.36223 0
M  V30 907 H 87.2078 1.98614 2.24705 0
M  V30 908 H 84.7608 1.06293 1.14593 0
M  V30 909 H 85.4958 -0.395176 3.21883 0
M  V30 910 H 85.2808 1.31441 3.69413 0
M  V30 911 H 86.7708 0.437015 4.15307 0
M  V30 912 N 87.2079 -1.17134 1.05439 0
M  V30 913 C 88.1549 -2.21235 0.657539 0
M  V30 914 C 89.1249 -1.62551 -0.341543 0
M  V30 915 O 90.3099 -1.89379 -0.232393 0
M  V30 916 C 87.4499 -3.45076 0.0410575 0
M  V30 917 C 86.5629 -4.18042 1.08927 0
M  V30 918 C 85.6979 -5.29376 0.439848 0
M  V30 919 C 84.7369 -5.94132 1.4722 0
M  V30 920 N 83.8739 -6.96975 0.846756 0
M  V30 921 H 88.7139 -2.54534 1.54972 0
M  V30 922 H 86.2509 -1.25028 0.775006 0
M  V30 923 H 88.2089 -4.15862 -0.33383 0
M  V30 924 H 86.8389 -3.12353 -0.814568 0
M  V30 925 H 85.8909 -3.45945 1.58196 0
M  V30 926 H 87.2029 -4.62306 1.87282 0
M  V30 927 H 86.3569 -6.06699 0.0115125 0
M  V30 928 H 85.0959 -4.86251 -0.375656 0
M  V30 929 H 84.1009 -5.15538 1.91052 0
M  V30 930 H 85.3259 -6.39337 2.28965 0
M  V30 931 H 83.2719 -6.5598 0.0518075 0
M  V30 932 H 83.1889 -7.39565 1.5678 0
M  V30 933 H 84.4569 -7.78239 0.443277 0
M  V30 934 N 88.686 -0.835752 -1.33615 0
M  V30 935 C 89.616 -0.281739 -2.31794 0
M  V30 936 C 90.597 0.608833 -1.58831 0
M  V30 937 O 91.782 0.533035 -1.86741 0
M  V30 938 C 88.912 0.546612 -3.42971 0
M  V30 939 C 87.866 -0.247904 -4.27281 0
M  V30 940 C 87.192 0.704001 -5.30045 0
M  V30 941 C 88.492 -1.46324 -5.01385 0
M  V30 942 H 90.186 -1.10206 -2.78379 0
M  V30 943 H 87.732 -0.531388 -1.33837 0
M  V30 944 H 89.685 0.944467 -4.1068 0
M  V30 945 H 88.409 1.40011 -2.95067 0
M  V30 946 H 87.068 -0.627281 -3.61194 0
M  V30 947 H 86.716 1.55381 -4.78399 0
M  V30 948 H 86.416 0.176524 -5.87335 0
M  V30 949 H 87.94 1.09944 -6.0062 0
M  V30 950 H 89.354 -1.13871 -5.61877 0
M  V30 951 H 87.751 -1.92728 -5.6831 0
M  V30 952 H 88.821 -2.23467 -4.30338 0
M  V30 953 N 90.1641 1.46063 -0.591896 0
M  V30 954 C 91.4411 1.95595 -0.0137119 0
M  V30 955 C 91.8211 1.5345 1.4497 0
M  V30 956 O 91.1691 0.789543 2.14426 0
M  V30 957 C 91.3791 3.48453 -0.195373 0
M  V30 958 C 92.7271 4.24546 -0.0679765 0
M  V30 959 O 93.7511 3.55982 -0.124681 0
M  V30 960 O 92.6101 5.46467 0.0600579 0
M  V30 961 H 89.7041 0.825795 0.0446279 0
M  V30 962 H 92.2501 1.56303 -0.660859 0
M  V30 963 H 91.0221 3.72045 -1.21235 0
M  V30 964 H 90.6451 3.94597 0.487775 0
M  V30 965 N 91.6422 0.330177 1.54103 0
M  V30 966 C 92.6052 -0.520144 2.2322 0
M  V30 967 C 93.6052 -1.03828 1.22786 0
M  V30 968 O 94.7952 -0.929652 1.4732 0
M  V30 969 C 91.9272 -1.72317 2.94142 0
M  V30 970 H 93.1202 0.0841605 2.99782 0
M  V30 971 H 90.6732 0.0813433 1.56088 0
M  V30 972 H 91.4082 -2.36653 2.21734 0
M  V30 973 H 91.1932 -1.35898 3.67796 0
M  V30 974 H 92.6832 -2.3266 3.46784 0
M  V30 975 N 93.1203 -1.57491 0.0584922 0
M  V30 976 C 94.3673 -1.92978 -0.613648 0
M  V30 977 C 94.6953 -0.937461 -1.70417 0
M  V30 978 O 93.9503 0.049078 -1.95638 0
M  V30 979 C 94.2493 -3.3513 -1.24188 0
M  V30 980 C 93.9153 -4.50037 -0.278826 0
M  V30 981 C 92.5773 -4.81198 -0.0138447 0
M  V30 982 C 94.9293 -5.19807 0.380777 0
M  V30 983 C 92.2573 -5.79473 0.918052 0
M  V30 984 C 94.6093 -6.19079 1.30091 0
M  V30 985 C 93.2733 -6.48665 1.57449 0
M  V30 986 H 92.5433 -0.706157 -0.22455 0
M  V30 987 H 95.1903 -1.91082 0.126533 0
M  V30 988 H 93.4953 -3.33429 -2.05749 0
M  V30 989 H 95.1923 -3.59871 -1.769 0
M  V30 990 H 91.7823 -4.25726 -0.495539 0
M  V30 991 H 95.9663 -4.95939 0.189158 0
M  V30 992 H 91.2223 -6.00727 1.1374 0
M  V30 993 H 95.3963 -6.7225 1.81804 0
M  V30 994 H 93.0233 -7.24628 2.29822 0
M  V30 995 N 94.5984 0.214957 -1.56127 0
M  V30 996 C 95.8444 0.939762 -1.79712 0
M  V30 997 C 96.1774 1.83723 -0.629247 0
M  V30 998 O 95.4524 1.90925 0.371197 0
M  V30 999 C 95.7354 1.77306 -3.13424 0
M  V30 1000 C 95.5884 0.90164 -4.40671 0
M  V30 1001 C 96.9074 2.74956 -3.43638 0
M  V30 1002 H 94.0264 0.340214 -0.653776 0
M  V30 1003 H 96.6684 0.20824 -1.88855 0
M  V30 1004 H 94.8184 2.39673 -3.0576 0
M  V30 1005 H 96.4904 0.294206 -4.60361 0
M  V30 1006 H 94.7334 0.207368 -4.33304 0
M  V30 1007 H 95.4044 1.51923 -5.30682 0
M  V30 1008 H 97.8804 2.22724 -3.51473 0
M  V30 1009 H 96.7564 3.30358 -4.38355 0
M  V30 1010 H 97.0174 3.53023 -2.66134 0
M  V30 1011 N 96.0765 1.50051 0.48192 0
M  V30 1012 C 96.9865 1.7089 1.60728 0
M  V30 1013 C 98.0025 0.591788 1.63627 0
M  V30 1014 O 99.1785 0.868817 1.81696 0
M  V30 1015 C 96.2435 1.78855 2.97005 0
M  V30 1016 C 95.3045 3.02537 3.04581 0
M  V30 1017 C 94.5375 3.10112 4.34357 0
M  V30 1018 O 94.7605 2.24765 5.24249 0
M  V30 1019 O 93.6945 4.02747 4.47301 0
M  V30 1020 H 97.5205 2.66264 1.46072 0
M  V30 1021 H 95.1055 1.34018 0.660264 0
M  V30 1022 H 96.9875 1.86336 3.77964 0
M  V30 1023 H 95.6625 0.866628 3.11883 0
M  V30 1024 H 94.5695 3.00563 2.22739 0
M  V30 1025 H 95.9025 3.94272 2.94636 0
M  V30 1026 N 97.5546 -0.734337 1.39446 0
M  V30 1027 C 98.8026 -1.49096 1.36436 0
M  V30 1028 C 99.1236 -1.94961 -0.0388255 0
M  V30 1029 O 98.3936 -1.69033 -0.990191 0
M  V30 1030 H 96.9736 -0.5531 0.502085 0
M  V30 1031 H 99.6356 -0.871725 1.74319 0
M  V30 1032 H 98.7316 -2.37276 2.02747 0
M  V30 1033 N 99.0327 -1.24633 -0.964593 0
M  V30 1034 C 100.279 -1.08949 -1.71049 0
M  V30 1035 C 100.612 0.370302 -1.90637 0
M  V30 1036 O 99.8867 1.27349 -1.47011 0
M  V30 1037 C 100.17 -1.83329 -3.0994 0
M  V30 1038 C 100.023 -3.37077 -2.97824 0
M  V30 1039 C 101.342 -1.60846 -4.09654 0
M  V30 1040 H 98.4607 -0.397178 -0.620821 0
M  V30 1041 H 101.103 -1.5334 -1.12191 0
M  V30 1042 H 99.2527 -1.45597 -3.60186 0
M  V30 1043 H 100.925 -3.84425 -2.5498 0
M  V30 1044 H 99.1677 -3.65298 -2.33965 0
M  V30 1045 H 99.8387 -3.84324 -3.96231 0
M  V30 1046 H 102.315 -1.93674 -3.68279 0
M  V30 1047 H 101.191 -2.1534 -5.04896 0
M  V30 1048 H 101.452 -0.547434 -4.38698 0
M  V30 1049 N 100.511 1.16574 -1.06058 0
M  V30 1050 C 101.757 1.87324 -0.777022 0
M  V30 1051 C 102.09 1.81351 0.694645 0
M  V30 1052 O 101.365 1.22753 1.50871 0
M  V30 1053 C 101.648 3.36991 -1.26922 0
M  V30 1054 C 101.501 3.51667 -2.80447 0
M  V30 1055 C 102.82 4.3131 -0.87521 0
M  V30 1056 H 99.9388 0.680191 -0.28374 0
M  V30 1057 H 102.581 1.37036 -1.3161 0
M  V30 1058 H 100.731 3.79949 -0.81063 0
M  V30 1059 H 102.403 3.17664 -3.34495 0
M  V30 1060 H 100.646 2.93656 -3.19294 0
M  V30 1061 H 101.317 4.56766 -3.0995 0
M  V30 1062 H 103.793 3.9624 -1.27014 0
M  V30 1063 H 102.669 5.34545 -1.2471 0
M  V30 1064 H 102.93 4.41552 0.220071 0
M  V30 1065 N 101.989 0.842826 1.3317 0
M  V30 1066 C 102.936 0.276885 2.29133 0
M  V30 1067 C 103.906 -0.609527 1.54512 0
M  V30 1068 O 105.091 -0.546955 1.82792 0
M  V30 1069 C 102.231 -0.538707 3.40869 0
M  V30 1070 C 101.344 0.372169 4.30394 0
M  V30 1071 C 100.479 -0.454908 5.29249 0
M  V30 1072 C 99.5179 0.45411 6.10413 0
M  V30 1073 N 98.6549 -0.335075 7.013 0
M  V30 1074 H 103.495 1.10052 2.76934 0
M  V30 1075 H 101.032 0.554161 1.36262 0
M  V30 1076 H 102.99 -1.02709 4.0436 0
M  V30 1077 H 101.62 -1.32727 2.9425 0
M  V30 1078 H 100.672 0.97888 3.6759 0
M  V30 1079 H 101.984 1.0703 4.87182 0
M  V30 1080 H 101.138 -1.00695 5.98285 0
M  V30 1081 H 99.8769 -1.18646 4.73048 0
M  V30 1082 H 98.8819 1.01813 5.40291 0
M  V30 1083 H 100.107 1.18409 6.68697 0
M  V30 1084 H 98.0529 -1.04994 6.47543 0
M  V30 1085 H 97.9699 0.304262 7.55387 0
M  V30 1086 H 99.2379 -0.869224 7.74638 0
M  V30 1087 N 103.467 -1.45747 0.599634 0
M  V30 1088 C 104.414 -2.30467 -0.123849 0
M  V30 1089 C 105.384 -1.41632 -0.86774 0
M  V30 1090 O 106.569 -1.70568 -0.855056 0
M  V30 1091 C 103.709 -3.26402 -1.12051 0
M  V30 1092 C 102.822 -4.3034 -0.37832 0
M  V30 1093 C 101.957 -5.13389 -1.364 0
M  V30 1094 C 100.996 -6.09061 -0.609171 0
M  V30 1095 N 100.133 -6.84918 -1.54374 0
M  V30 1096 H 104.973 -2.91802 0.604627 0
M  V30 1097 H 102.51 -1.43797 0.309972 0
M  V30 1098 H 104.468 -3.80482 -1.7114 0
M  V30 1099 H 103.098 -2.66839 -1.8165 0
M  V30 1100 H 102.15 -3.78984 0.327929 0
M  V30 1101 H 103.462 -4.98354 0.210997 0
M  V30 1102 H 102.616 -5.7183 -2.02719 0
M  V30 1103 H 101.355 -4.45376 -1.98725 0
M  V30 1104 H 100.36 -5.49758 0.0676979 0
M  V30 1105 H 101.585 -6.79099 0.00891991 0
M  V30 1106 H 99.531 -6.19601 -2.15478 0
M  V30 1107 H 99.448 -7.49254 -1.00766 0
M  V30 1108 H 100.716 -7.47906 -2.19676 0
M  V30 1109 N 104.945 -0.338344 -1.53925 0
M  V30 1110 C 106.191 0.260143 -2.01125 0
M  V30 1111 C 106.524 1.50617 -1.22589 0
M  V30 1112 O 105.799 1.91979 -0.312113 0
M  V30 1113 C 106.082 0.579499 -3.55407 0
M  V30 1114 C 105.935 -0.678264 -4.44657 0
M  V30 1115 C 107.254 1.39122 -4.17532 0
M  V30 1116 H 104.373 0.0930772 -0.731099 0
M  V30 1117 H 107.015 -0.457852 -1.84401 0
M  V30 1118 H 105.165 1.19118 -3.69788 0
M  V30 1119 H 106.837 -1.31631 -4.42121 0
M  V30 1120 H 105.08 -1.3042 -4.13731 0
M  V30 1121 H 105.751 -0.410143 -5.50474 0
M  V30 1122 H 108.227 0.874035 -4.06817 0
M  V30 1123 H 107.103 1.58342 -5.25565 0
M  V30 1124 H 107.364 2.39178 -3.71815 0
M  V30 1125 N 106.423 1.57458 -0.0668435 0
M  V30 1126 C 107.386 2.11323 0.887422 0
M  V30 1127 C 108.386 1.03618 1.22964 0
M  V30 1128 O 109.576 1.29626 1.16373 0
M  V30 1129 C 106.708 2.61048 2.19242 0
M  V30 1130 H 107.901 2.96942 0.420194 0
M  V30 1131 H 105.454 1.55239 0.181793 0
M  V30 1132 H 106.189 1.78868 2.70512 0
M  V30 1133 H 105.974 3.39769 1.95702 0
M  V30 1134 H 107.464 3.02814 2.87565 0
M  V30 1135 N 107.901 -0.206675 1.56239 0
M  V30 1136 C 108.833 -1.27997 1.9013 0
M  V30 1137 C 109.846 -1.42299 0.790883 0
M  V30 1138 O 111.035 -1.42931 1.06925 0
M  V30 1139 C 108.135 -2.65368 2.10792 0
M  V30 1140 C 107.308 -2.72824 3.41886 0
M  V30 1141 C 106.367 -3.9131 3.51799 0
M  V30 1142 O 105.393 -3.78953 4.24716 0
M  V30 1143 N 106.595 -5.06265 2.84035 0
M  V30 1144 H 109.36 -0.992444 2.82791 0
M  V30 1145 H 106.921 -0.396652 1.56966 0
M  V30 1146 H 108.913 -3.43039 2.14724 0
M  V30 1147 H 107.483 -2.86657 1.24685 0
M  V30 1148 H 106.703 -1.81515 3.49923 0
M  V30 1149 H 107.991 -2.74786 4.28217 0
M  V30 1150 H 107.389 -5.19203 2.246 0
M  V30 1151 H 105.946 -5.81925 2.93609 0
M  V30 1152 N 109.379 -1.50304 -0.473955 0
M  V30 1153 C 110.609 -1.64663 -1.24778 0
M  V30 1154 C 111.017 -0.328174 -1.86332 0
M  V30 1155 O 110.36 0.699536 -1.69859 0
M  V30 1156 C 110.422 -2.6778 -2.39863 0
M  V30 1157 C 110.086 -4.11413 -1.98969 0
M  V30 1158 C 111.083 -4.97372 -1.51385 0
M  V30 1159 C 108.768 -4.57312 -2.07777 0
M  V30 1160 C 110.762 -6.27277 -1.13148 0
M  V30 1161 C 108.449 -5.87223 -1.69152 0
M  V30 1162 C 109.447 -6.72031 -1.21915 0
M  V30 1163 O 109.135 -7.99518 -0.838237 0
M  V30 1164 H 108.867 -0.556602 -0.383627 0
M  V30 1165 H 111.421 -1.9726 -0.572491 0
M  V30 1166 H 109.651 -2.30419 -3.10554 0
M  V30 1167 H 111.34 -2.71388 -3.01833 0
M  V30 1168 H 112.106 -4.63128 -1.44004 0
M  V30 1169 H 107.985 -3.91449 -2.43493 0
M  V30 1170 H 111.529 -6.93425 -0.762077 0
M  V30 1171 H 107.426 -6.20989 -1.76191 0
M  V30 1172 H 108.194 -8.12764 -0.967339 0
M  V30 1173 N 110.857 0.726932 -1.39834 0
M  V30 1174 C 111.79 1.8501 -1.33592 0
M  V30 1175 C 112.768 1.61262 -0.208191 0
M  V30 1176 O 113.952 1.84422 -0.389981 0
M  V30 1177 C 111.079 3.21143 -1.07633 0
M  V30 1178 C 110.125 3.63737 -2.22705 0
M  V30 1179 S 110.958 3.72167 -3.85035 0
M  V30 1180 C 112.114 5.11077 -3.61318 0
M  V30 1181 H 112.347 1.90022 -2.28646 0
M  V30 1182 H 109.88 0.892595 -1.25985 0
M  V30 1183 H 111.838 3.99747 -0.933415 0
M  V30 1184 H 110.499 3.13776 -0.142526 0
M  V30 1185 H 109.692 4.62551 -2.00155 0
M  V30 1186 H 109.294 2.9236 -2.33242 0
M  V30 1187 H 111.586 5.97656 -3.19083 0
M  V30 1188 H 112.529 5.38658 -4.59623 0
M  V30 1189 H 112.937 4.81135 -2.95245 0
M  V30 1190 N 112.336 1.25143 0.95797 0
M  V30 1191 C 113.299 1.05321 2.03569 0
M  V30 1192 C 114.299 0.007152 1.60798 0
M  V30 1193 O 115.489 0.24903 1.72411 0
M  V30 1194 C 112.621 0.598394 3.35607 0
M  V30 1195 H 113.814 2.00986 2.22586 0
M  V30 1196 H 111.367 1.07502 1.13459 0
M  V30 1197 H 112.102 -0.361014 3.22284 0
M  V30 1198 H 111.887 1.35351 3.67998 0
M  V30 1199 H 113.377 0.48104 4.1482 0
M  V30 1200 N 113.814 -1.1601 1.06675 0
M  V30 1201 C 115.091 -1.82679 0.699114 0
M  V30 1202 C 115.471 -1.94559 -0.819137 0
M  V30 1203 O 114.819 -1.49169 -1.73092 0
M  V30 1204 C 115.029 -3.19445 1.40555 0
M  V30 1205 C 116.377 -3.95171 1.55323 0
M  V30 1206 O 117.401 -3.28976 1.36577 0
M  V30 1207 O 116.26 -5.13833 1.86112 0
M  V30 1208 H 113.354 -0.788954 0.247951 0
M  V30 1209 H 115.9 -1.23179 1.16726 0
M  V30 1210 H 114.672 -3.05856 2.44065 0
M  V30 1211 H 114.295 -3.86625 0.927733 0
M  V30 1212 N 115.292 -0.849877 -1.32721 0
M  V30 1213 C 116.538 -0.451591 -1.97708 0
M  V30 1214 C 116.871 0.989175 -1.6712 0
M  V30 1215 O 116.146 1.69334 -0.956891 0
M  V30 1216 C 116.429 -0.685598 -3.53513 0
M  V30 1217 C 116.282 -2.17444 -3.93749 0
M  V30 1218 C 117.601 -0.138874 -4.39881 0
M  V30 1219 H 114.72 -0.16555 -0.718166 0
M  V30 1220 H 117.362 -1.06742 -1.57182 0
M  V30 1221 H 115.512 -0.161416 -3.88165 0
M  V30 1222 H 117.184 -2.76433 -3.693 0
M  V30 1223 H 115.427 -2.65476 -3.43081 0
M  V30 1224 H 116.098 -2.28888 -5.02309 0
M  V30 1225 H 118.574 -0.587068 -4.11938 0
M  V30 1226 H 117.45 -0.332213 -5.47894 0
M  V30 1227 H 117.711 0.95806 -4.31594 0
M  V30 1228 N 116.77 1.45427 -0.607355 0
M  V30 1229 C 117.7 2.3329 0.0989352 0
M  V30 1230 C 118.681 1.46816 0.859007 0
M  V30 1231 O 119.866 1.75588 0.829604 0
M  V30 1232 C 116.996 3.29518 1.09705 0
M  V30 1233 C 115.95 4.25626 0.450206 0
M  V30 1234 C 115.276 5.11542 1.55655 0
M  V30 1235 C 116.576 5.18505 -0.628455 0
M  V30 1236 H 118.27 2.92595 -0.634716 0
M  V30 1237 H 115.816 1.40696 -0.306681 0
M  V30 1238 H 117.769 3.89855 1.59971 0
M  V30 1239 H 116.493 2.68372 1.86129 0
M  V30 1240 H 115.152 3.66586 -0.0315886 0
M  V30 1241 H 114.8 4.46765 2.31107 0
M  V30 1242 H 114.5 5.76647 1.12925 0
M  V30 1243 H 116.024 5.74748 2.06148 0
M  V30 1244 H 117.438 5.72916 -0.209877 0
M  V30 1245 H 115.835 5.92085 -0.977489 0
M  V30 1246 H 116.905 4.60948 -1.50514 0
M  V30 1247 N 118.248 0.346503 1.53744 0
M  V30 1248 C 119.158 -0.517293 2.28826 0
M  V30 1249 C 120.174 -1.10935 1.3405 0
M  V30 1250 O 121.35 -1.1244 1.6709 0
M  V30 1251 C 118.415 -1.65098 3.04866 0
M  V30 1252 C 117.476 -1.0884 4.15274 0
M  V30 1253 C 116.709 -2.16806 4.87679 0
M  V30 1254 O 116.932 -3.3758 4.59778 0
M  V30 1255 O 115.866 -1.80934 5.74061 0
M  V30 1256 H 119.692 0.0931396 3.03557 0
M  V30 1257 H 117.277 0.111458 1.48984 0
M  V30 1258 H 119.159 -2.31053 3.5241 0
M  V30 1259 H 117.834 -2.24717 2.32989 0
M  V30 1260 H 116.741 -0.3933 3.72027 0
M  V30 1261 H 118.074 -0.537036 4.89261 0
M  V30 1262 N 119.726 -1.57421 0.075193 0
M  V30 1263 C 121.003 -1.85029 -0.634329 0
M  V30 1264 C 121.383 -0.968305 -1.87582 0
M  V30 1265 O 120.731 -0.0354749 -2.28472 0
M  V30 1266 C 120.941 -3.35286 -0.968742 0
M  V30 1267 C 122.289 -4.02875 -1.34077 0
M  V30 1268 O 123.313 -3.40051 -1.06037 0
M  V30 1269 O 122.172 -5.13691 -1.86506 0
M  V30 1270 H 119.266 -0.7645 -0.315387 0
M  V30 1271 H 121.812 -1.69366 0.106382 0
M  V30 1272 H 120.584 -3.91203 -0.0871376 0
M  V30 1273 H 120.207 -3.56223 -1.7661 0
M  V30 1274 N 121.204 0.198386 -1.56346 0
M  V30 1275 C 122.429 0.939682 -1.84891 0
M  V30 1276 C 122.854 1.76202 -0.658369 0
M  V30 1277 O 122.212 1.76993 0.392851 0
M  V30 1278 C 122.26 1.81428 -3.11635 0
M  V30 1279 O 121.364 2.91265 -2.91956 0
M  V30 1280 H 120.705 0.264807 -0.608912 0
M  V30 1281 H 123.235 0.204695 -2.03573 0
M  V30 1282 H 123.245 2.21958 -3.42343 0
M  V30 1283 H 121.92 1.21004 -3.97908 0
M  V30 1284 H 120.497 2.54514 -2.72538 0
M  V30 1285 N 122.682 1.50554 0.465978 0
M  V30 1286 C 123.629 1.6979 1.56333 0
M  V30 1287 C 124.599 0.539239 1.57103 0
M  V30 1288 O 125.784 0.770401 1.74555 0
M  V30 1289 C 122.924 1.80273 2.94271 0
M  V30 1290 C 122.037 3.07674 3.0325 0
M  V30 1291 C 121.172 3.08922 4.32135 0
M  V30 1292 C 120.211 4.30755 4.34875 0
M  V30 1293 N 119.348 4.29714 5.55239 0
M  V30 1294 H 124.188 2.63472 1.39235 0
M  V30 1295 H 121.725 1.30602 0.676873 0
M  V30 1296 H 123.683 1.84332 3.74269 0
M  V30 1297 H 122.313 0.900258 3.09992 0
M  V30 1298 H 121.365 3.13062 2.16094 0
M  V30 1299 H 122.677 3.97642 3.01135 0
M  V30 1300 H 121.831 3.11738 5.20485 0
M  V30 1301 H 120.57 2.16792 4.36866 0
M  V30 1302 H 119.575 4.28146 3.44922 0
M  V30 1303 H 120.8 5.24117 4.31831 0
M  V30 1304 H 118.746 3.4044 5.60746 0
M  V30 1305 H 118.663 5.13456 5.54886 0
M  V30 1306 H 119.931 4.36683 6.457 0
M  V30 1307 N 124.16 -0.719506 1.40217 0
M  V30 1308 C 125.437 -1.47221 1.28784 0
M  V30 1309 C 125.817 -2.10883 -0.0956067 0
M  V30 1310 O 125.165 -1.99833 -1.10811 0
M  V30 1311 C 125.375 -2.5111 2.42373 0
M  V30 1312 C 126.723 -3.17053 2.82423 0
M  V30 1313 O 127.747 -2.61429 2.41937 0
M  V30 1314 O 126.606 -4.17742 3.52355 0
M  V30 1315 H 123.7 -0.654491 0.50554 0
M  V30 1316 H 126.246 -0.752014 1.52128 0
M  V30 1317 H 125.018 -2.02556 3.34793 0
M  V30 1318 H 124.641 -3.3067 2.20778 0
M  V30 1319 N 125.638 -1.25649 -0.95132 0
M  V30 1320 C 126.585 -1.06323 -2.04851 0
M  V30 1321 C 127.555 0.0286491 -1.66075 0
M  V30 1322 O 128.74 -0.12917 -1.90362 0
M  V30 1323 C 125.88 -0.691529 -3.381 0
M  V30 1324 C 124.993 -1.85861 -3.89974 0
M  V30 1325 C 124.128 -1.43096 -5.11563 0
M  V30 1326 C 123.167 -2.56696 -5.55674 0
M  V30 1327 N 122.304 -2.14684 -6.68472 0
M  V30 1328 H 127.144 -2.00222 -2.20715 0
M  V30 1329 H 124.681 -0.997027 -1.08156 0
M  V30 1330 H 126.639 -0.456963 -4.1469 0
M  V30 1331 H 125.269 0.210474 -3.22113 0
M  V30 1332 H 124.321 -2.20639 -3.09875 0
M  V30 1333 H 125.633 -2.71161 -4.18657 0
M  V30 1334 H 124.787 -1.15624 -5.9558 0
M  V30 1335 H 123.526 -0.548722 -4.84603 0
M  V30 1336 H 122.531 -2.84909 -4.7022 0
M  V30 1337 H 123.756 -3.45503 -5.8464 0
M  V30 1338 H 121.702 -1.28881 -6.43215 0
M  V30 1339 H 121.619 -2.9353 -6.96689 0
M  V30 1340 H 122.887 -1.90397 -7.5589 0
M  V30 1341 N 127.117 1.15442 -1.07289 0
M  V30 1342 C 128.363 1.86489 -0.796846 0
M  V30 1343 C 128.696 1.82078 0.675371 0
M  V30 1344 O 127.971 1.24346 1.4956 0
M  V30 1345 C 128.254 3.35626 -1.30489 0
M  V30 1346 C 128.107 3.48673 -2.84161 0
M  V30 1347 C 129.426 4.30357 -0.920907 0
M  V30 1348 H 126.545 0.677144 -0.290939 0
M  V30 1349 H 129.187 1.35633 -1.33056 0
M  V30 1350 H 127.337 3.79068 -0.850883 0
M  V30 1351 H 129.009 3.14099 -3.37846 0
M  V30 1352 H 127.252 2.90253 -3.22391 0
M  V30 1353 H 127.923 4.53453 -3.14777 0
M  V30 1354 H 130.399 3.94871 -1.3121 0
M  V30 1355 H 129.275 5.33193 -1.30372 0
M  V30 1356 H 129.536 4.4176 0.173226 0
M  V30 1357 N 128.595 0.856903 1.32268 0
M  V30 1358 C 129.527 0.260412 2.27716 0
M  V30 1359 C 130.54 -0.569137 1.52528 0
M  V30 1360 O 131.729 -0.39326 1.74114 0
M  V30 1361 C 128.829 -0.650477 3.32599 0
M  V30 1362 C 128.002 0.14372 4.37164 0
M  V30 1363 C 127.061 -0.69328 5.21613 0
M  V30 1364 O 126.087 -0.12599 5.69061 0
M  V30 1365 N 127.289 -2.00761 5.44679 0
M  V30 1366 H 130.054 1.08059 2.79541 0
M  V30 1367 H 127.615 0.717103 1.45152 0
M  V30 1368 H 129.607 -1.21581 3.86005 0
M  V30 1369 H 128.177 -1.37133 2.80915 0
M  V30 1370 H 127.397 0.890486 3.8401 0
M  V30 1371 H 128.685 0.68915 5.04111 0
M  V30 1372 H 128.083 -2.49181 5.07863 0
M  V30 1373 H 126.64 -2.52103 6.01072 0
M  V30 1374 N 130.073 -1.45103 0.615059 0
M  V30 1375 C 130.983 -2.34382 -0.101034 0
M  V30 1376 C 131.999 -1.51681 -0.852585 0
M  V30 1377 O 133.175 -1.8446 -0.808484 0
M  V30 1378 C 130.24 -3.29417 -1.08099 0
M  V30 1379 C 129.301 -4.28025 -0.330577 0
M  V30 1380 C 128.534 -5.1852 -1.26385 0
M  V30 1381 O 128.757 -5.12598 -2.50198 0
M  V30 1382 O 127.691 -5.97122 -0.756866 0
M  V30 1383 H 131.517 -2.97033 0.632855 0
M  V30 1384 H 129.102 -1.4461 0.375293 0
M  V30 1385 H 130.984 -3.87958 -1.6452 0
M  V30 1386 H 129.659 -2.69321 -1.79577 0
M  V30 1387 H 128.566 -3.73078 0.276283 0
M  V30 1388 H 129.899 -4.90997 0.343866 0
M  V30 1389 N 131.551 -0.354651 -1.53558 0
M  V30 1390 C 132.499 0.512195 -2.26891 0
M  V30 1391 C 133.493 1.09263 -1.29452 0
M  V30 1392 O 134.699 1.03709 -1.47121 0
M  V30 1393 H 131.074 0.183878 -0.729173 0
M  V30 1394 H 133.045 -0.128202 -2.98124 0
M  V30 1395 C 131.794 1.64563 -3.06291 0
M  V30 1396 H 131.117 1.20829 -3.81104 0
M  V30 1397 H 132.557 2.22711 -3.60799 0
M  V30 1398 C 131.016 2.58158 -2.16462 0
M  V30 1399 O 131.546 3.60695 -1.76811 0
M  V30 1400 N 129.752 2.27096 -1.81317 0
M  V30 1401 H 129.299 1.43751 -2.1376 0
M  V30 1402 H 129.257 2.89975 -1.21498 0
M  V30 1403 N 133.029 1.57378 -0.0835403 0
M  V30 1404 C 133.959 2.1641 0.87686 0
M  V30 1405 C 134.94 1.09429 1.30228 0
M  V30 1406 O 136.125 1.37516 1.37124 0
M  V30 1407 C 133.255 2.73517 2.14022 0
M  V30 1408 C 132.209 3.85769 1.85381 0
M  V30 1409 C 131.535 4.29529 3.18448 0
M  V30 1410 C 132.835 5.09486 1.14984 0
M  V30 1411 H 134.529 2.96914 0.385059 0
M  V30 1412 H 132.075 1.42823 0.18377 0
M  V30 1413 H 134.028 3.13463 2.81636 0
M  V30 1414 H 132.752 1.90252 2.65465 0
M  V30 1415 H 131.411 3.46345 1.20169 0
M  V30 1416 H 131.059 3.43169 3.67755 0
M  V30 1417 H 130.759 5.05204 3.00071 0
M  V30 1418 H 132.283 4.72099 3.8724 0
M  V30 1419 H 133.697 5.46674 1.72687 0
M  V30 1420 H 132.094 5.90515 1.06826 0
M  V30 1421 H 133.164 4.84724 0.130749 0
M  V30 1422 N 134.507 -0.190092 1.56449 0
M  V30 1423 C 135.437 -1.23816 1.97969 0
M  V30 1424 C 136.418 -1.47201 0.852395 0
M  V30 1425 O 137.603 -1.58854 1.1171 0
M  V30 1426 C 134.733 -2.5813 2.3235 0
M  V30 1427 C 133.687 -2.49348 3.47864 0
M  V30 1428 C 133.013 -3.8798 3.67934 0
M  V30 1429 C 134.313 -2.01424 4.81898 0
M  V30 1430 H 136.007 -0.89311 2.85769 0
M  V30 1431 H 133.553 -0.428177 1.37487 0
M  V30 1432 H 135.506 -3.31637 2.59991 0
M  V30 1433 H 134.23 -2.94386 1.41438 0
M  V30 1434 H 132.889 -1.78297 3.20321 0
M  V30 1435 H 132.537 -4.21597 2.74344 0
M  V30 1436 H 132.237 -3.82978 4.45648 0
M  V30 1437 H 133.761 -4.63101 3.97957 0
M  V30 1438 H 135.175 -2.64693 5.08538 0
M  V30 1439 H 133.572 -2.07413 5.63116 0
M  V30 1440 H 134.642 -0.967677 4.75146 0
M  V30 1441 N 135.985 -1.50799 -0.457987 0
M  V30 1442 C 136.948 -1.7005 -1.53674 0
M  V30 1443 C 137.948 -0.570881 -1.50325 0
M  V30 1444 O 139.138 -0.838126 -1.52712 0
M  V30 1445 C 136.27 -1.73788 -2.93276 0
M  V30 1446 H 137.463 -2.66306 -1.37917 0
M  V30 1447 H 135.016 -1.40477 -0.685271 0
M  V30 1448 H 135.751 -0.792717 -3.14462 0
M  V30 1449 H 135.536 -2.55864 -2.97113 0
M  V30 1450 H 137.026 -1.90591 -3.71571 0
M  V30 1451 N 137.463 0.71206 -1.40597 0
M  V30 1452 C 138.411 1.84746 -1.41321 0
M  V30 1453 C 139.405 1.66842 -0.293268 0
M  V30 1454 O 140.611 1.73904 -0.464481 0
M  V30 1455 H 136.986 0.608522 -0.441819 0
M  V30 1456 H 138.957 1.81252 -2.37045 0
M  V30 1457 C 137.706 3.22638 -1.29614 0
M  V30 1458 H 137.029 3.37023 -2.15071 0
M  V30 1459 H 138.469 4.02209 -1.3418 0
M  V30 1460 C 136.928 3.36899 -0.00673121 0
M  V30 1461 O 137.458 3.90186 0.954859 0
M  V30 1462 N 135.664 2.9053 0.0639327 0
M  V30 1463 H 135.211 2.47353 -0.719311 0
M  V30 1464 H 135.169 3.0045 0.926118 0
M  V30 1465 N 138.941 1.26152 0.944643 0
M  V30 1466 C 140.189 1.11271 1.6871 0
M  V30 1467 C 140.51 -0.345166 1.91921 0
M  V30 1468 O 139.78 -1.24387 1.51343 0
M  V30 1469 H 138.36 0.408783 0.625224 0
M  V30 1470 H 141.022 1.58427 1.1352 0
M  V30 1471 H 140.118 1.62879 2.66227 0
M  V30 1472 N 140.419 -1.14872 1.07899 0
M  V30 1473 C 141.665 -1.86064 0.806725 0
M  V30 1474 C 141.998 -1.82434 -0.665706 0
M  V30 1475 O 141.273 -1.25138 -1.48899 0
M  V30 1476 C 141.556 -3.34929 1.32267 0
M  V30 1477 C 141.409 -3.47161 2.86006 0
M  V30 1478 C 142.728 -4.29863 0.943717 0
M  V30 1479 H 139.847 -0.675591 0.294526 0
M  V30 1480 H 142.489 -1.34925 1.33773 0
M  V30 1481 H 140.639 -3.78611 0.870974 0
M  V30 1482 H 142.311 -3.12302 3.39507 0
M  V30 1483 H 140.554 -2.88539 3.23925 0
M  V30 1484 H 141.225 -4.51777 3.17177 0
M  V30 1485 H 143.701 -3.9417 1.33302 0
M  V30 1486 H 142.577 -5.32494 1.33198 0
M  V30 1487 H 142.838 -4.41846 -0.149796 0
M  V30 1488 N 141.898 -0.863906 -1.31812 0
M  V30 1489 C 143.175 -0.39275 -1.91616 0
M  V30 1490 C 143.555 1.12461 -1.7865 0
M  V30 1491 O 142.903 1.95045 -1.19037 0
M  V30 1492 C 143.113 -0.867385 -3.38049 0
M  V30 1493 C 144.461 -0.889966 -4.15168 0
M  V30 1494 O 145.485 -0.812635 -3.46806 0
M  V30 1495 O 144.344 -1.00079 -5.37258 0
M  V30 1496 H 141.438 -0.116358 -0.818773 0
M  V30 1497 H 143.984 -0.951418 -1.40521 0
M  V30 1498 H 142.756 -1.91081 -3.41473 0
M  V30 1499 H 142.379 -0.286687 -3.96565 0
M  V30 1500 N 143.376 1.44774 -0.622745 0
M  V30 1501 C 144.306 2.33382 0.0741861 0
M  V30 1502 C 145.287 1.47719 0.843387 0
M  V30 1503 O 146.472 1.76458 0.810934 0
M  V30 1504 C 143.602 3.30663 1.06204 0
M  V30 1505 C 142.556 4.26079 0.405037 0
M  V30 1506 C 141.882 5.13165 1.5022 0
M  V30 1507 C 143.182 5.1781 -0.683414 0
M  V30 1508 H 144.876 2.91905 -0.665713 0
M  V30 1509 H 142.422 1.40363 -0.321587 0
M  V30 1510 H 144.375 3.9153 1.55827 0
M  V30 1511 H 143.099 2.70331 1.83272 0
M  V30 1512 H 141.758 3.66532 -0.0704683 0
M  V30 1513 H 141.406 4.49191 2.26355 0
M  V30 1514 H 141.106 5.77812 1.06803 0
M  V30 1515 H 142.63 5.76902 2.00041 0
M  V30 1516 H 144.044 5.72661 -0.270631 0
M  V30 1517 H 142.441 5.91015 -1.04023 0
M  V30 1518 H 143.511 4.59326 -1.55395 0
M  V30 1519 N 144.854 0.36279 1.53368 0
M  V30 1520 C 146.1 -0.228113 2.01513 0
M  V30 1521 C 146.433 -1.48648 1.2497 0
M  V30 1522 O 145.708 -1.91459 0.342616 0
M  V30 1523 C 145.991 -0.522884 3.56284 0
M  V30 1524 C 145.844 0.74892 4.43521 0
M  V30 1525 C 147.163 -1.32461 4.19693 0
M  V30 1526 H 144.282 -0.0814343 0.732487 0
M  V30 1527 H 146.924 0.48713 1.83649 0
M  V30 1528 H 145.074 -1.1322 3.71636 0
M  V30 1529 H 146.746 1.38648 4.39971 0
M  V30 1530 H 144.989 1.36986 4.11603 0
M  V30 1531 H 145.66 0.497667 5.49752 0
M  V30 1532 H 148.136 -0.809203 4.08156 0
M  V30 1533 H 147.012 -1.49961 5.28018 0
M  V30 1534 H 147.273 -2.33232 3.75573 0
M  V30 1535 N 146.332 -1.57332 0.0918853 0
M  V30 1536 C 147.56 -1.98574 -0.581048 0
M  V30 1537 C 147.975 -0.970903 -1.61923 0
M  V30 1538 O 147.332 0.0399054 -1.82456 0
M  V30 1539 C 147.383 -3.39872 -1.23164 0
M  V30 1540 O 147.104 -4.37469 -0.234989 0
M  V30 1541 C 148.605 -3.96099 -1.99049 0
M  V30 1542 H 145.825 -0.65261 -0.156018 0
M  V30 1543 H 148.369 -2.0379 0.170225 0
M  V30 1544 H 146.524 -3.35679 -1.93386 0
M  V30 1545 H 146.938 -5.19751 -0.70418 0
M  V30 1546 H 148.412 -4.97127 -2.39934 0
M  V30 1547 H 148.889 -3.3374 -2.85507 0
M  V30 1548 H 149.495 -4.03755 -1.3365 0
M  V30 1549 N 147.81 0.181792 -1.56548 0
M  V30 1550 C 149.04 0.914618 -1.85252 0
M  V30 1551 C 149.448 1.76791 -0.673914 0
M  V30 1552 O 148.791 1.80009 0.366416 0
M  V30 1553 C 148.853 1.85019 -3.08234 0
M  V30 1554 C 148.517 1.17754 -4.41569 0
M  V30 1555 C 149.514 0.548035 -5.17003 0
M  V30 1556 C 147.199 1.17742 -4.88305 0
M  V30 1557 C 149.193 -0.0726128 -6.37359 0
M  V30 1558 C 146.88 0.552946 -6.08593 0
M  V30 1559 C 147.878 -0.070978 -6.82963 0
M  V30 1560 O 147.566 -0.685635 -8.00971 0
M  V30 1561 H 147.298 0.271695 -0.618998 0
M  V30 1562 H 149.852 0.189944 -2.0452 0
M  V30 1563 H 148.082 2.61491 -2.84885 0
M  V30 1564 H 149.771 2.45195 -3.23472 0
M  V30 1565 H 150.537 0.540174 -4.81982 0
M  V30 1566 H 146.416 1.65246 -4.30366 0
M  V30 1567 H 149.96 -0.560213 -6.95347 0
M  V30 1568 H 145.857 0.558354 -6.43081 0
M  V30 1569 H 146.625 -0.58385 -8.16415 0
M  V30 1570 N 149.288 1.51039 0.449983 0
M  V30 1571 C 150.537 1.62317 1.19733 0
M  V30 1572 C 150.85 0.339101 1.92638 0
M  V30 1573 O 152.056 0.331069 2.69474 0
M  V30 1574 C 150.512 2.86608 2.17678 0
M  V30 1575 C 150.12 4.21972 1.50479 0
M  V30 1576 C 151.864 3.07239 2.92924 0
M  V30 1577 C 149.771 5.37426 2.46834 0
M  V30 1578 H 148.701 0.604532 0.450619 0
M  V30 1579 H 151.352 1.77494 0.465625 0
M  V30 1580 H 149.734 2.65037 2.94231 0
M  V30 1581 H 150.908 4.53878 0.795716 0
M  V30 1582 H 149.223 4.07117 0.874344 0
M  V30 1583 H 151.82 3.90668 3.65079 0
M  V30 1584 H 152.163 2.19807 3.5354 0
M  V30 1585 H 152.696 3.29091 2.23481 0
M  V30 1586 H 149.435 6.27079 1.90926 0
M  V30 1587 H 148.955 5.09912 3.15832 0
M  V30 1588 H 150.634 5.68862 3.08228 0
M  V30 1589 N 150.766 -0.704594 1.40972 0
M  V30 1590 C 151.994 -1.49354 1.43182 0
M  V30 1591 C 152.409 -1.88768 0.0345508 0
M  V30 1592 O 151.766 -1.56184 -0.944081 0
M  V30 1593 C 151.817 -2.76187 2.33244 0
M  V30 1594 O 151.538 -2.38436 3.67532 0
M  V30 1595 C 153.039 -3.7 2.44162 0
M  V30 1596 H 150.259 -0.460559 0.487982 0
M  V30 1597 H 152.803 -0.868261 1.85153 0
M  V30 1598 H 150.958 -3.34974 1.94606 0
M  V30 1599 H 151.372 -3.20126 4.15475 0
M  V30 1600 H 152.846 -4.55803 3.11364 0
M  V30 1601 H 153.323 -4.13867 1.47006 0
M  V30 1602 H 153.929 -3.17121 2.83398 0
M  V30 1603 N 152.244 -1.26651 -0.937939 0
M  V30 1604 C 153.66 -1.03834 -1.21205 0
M  V30 1605 C 153.86 0.234502 -2.00131 0
M  V30 1606 O 152.916 0.942767 -2.3424 0
M  V30 1607 C 154.229 -2.27167 -1.97017 0
M  V30 1608 C 155.777 -2.32101 -2.09996 0
M  V30 1609 C 156.252 -3.55136 -2.8921 0
M  V30 1610 N 157.743 -3.55632 -2.96783 0
M  V30 1611 C 158.478 -4.475 -3.58512 0
M  V30 1612 N 157.974 -5.4966 -4.21717 0
M  V30 1613 N 159.767 -4.35145 -3.55816 0
M  V30 1614 H 151.918 -2.08398 -0.410391 0
M  V30 1615 H 154.181 -0.916031 -0.244114 0
M  V30 1616 H 153.887 -3.19765 -1.46434 0
M  V30 1617 H 153.761 -2.31672 -2.97671 0
M  V30 1618 H 156.148 -1.40015 -2.59769 0
M  V30 1619 H 156.229 -2.31605 -1.08594 0
M  V30 1620 H 155.873 -4.47553 -2.40123 0
M  V30 1621 H 155.803 -3.5288 -3.90875 0
M  V30 1622 H 158.294 -2.81743 -2.51852 0
M  V30 1623 H 158.607 -6.15943 -4.66727 0
M  V30 1624 H 156.952 -5.53514 -4.20294 0
M  V30 1625 H 160.143 -3.5455 -3.05634 0
M  V30 1626 H 160.316 -5.06934 -4.03636 0
M  V30 1627 N 153.722 1.14298 -1.08507 0
M  V30 1628 C 154.969 1.85359 -0.815373 0
M  V30 1629 C 155.297 1.83001 0.658865 0
M  V30 1630 O 154.552 1.25655 1.50031 0
M  V30 1631 C 154.851 3.33547 -1.28379 0
M  V30 1632 C 154.517 3.56093 -2.76602 0
M  V30 1633 C 153.179 3.61955 -3.17084 0
M  V30 1634 C 155.531 3.64834 -3.72217 0
M  V30 1635 C 152.859 3.74082 -4.51973 0
M  V30 1636 C 155.211 3.78487 -5.06883 0
M  V30 1637 C 153.875 3.82598 -5.46969 0
M  V30 1638 H 153.145 0.678276 -0.298366 0
M  V30 1639 H 155.792 1.35002 -1.35819 0
M  V30 1640 H 154.097 3.86191 -0.660593 0
M  V30 1641 H 155.794 3.86959 -1.05186 0
M  V30 1642 H 152.384 3.52179 -2.4427 0
M  V30 1643 H 156.568 3.59595 -3.42061 0
M  V30 1644 H 151.824 3.75527 -4.82483 0
M  V30 1645 H 155.998 3.84193 -5.80834 0
M  V30 1646 H 153.625 3.91747 -6.51489 0
M  V30 1647 N 155.201 0.870884 1.31352 0
M  V30 1648 C 156.133 0.28455 2.27427 0
M  V30 1649 C 157.146 -0.552927 1.53123 0
M  V30 1650 O 158.335 -0.374771 1.74521 0
M  V30 1651 C 155.435 -0.615164 3.3327 0
M  V30 1652 C 154.608 0.190079 4.36987 0
M  V30 1653 C 153.667 -0.637917 5.22319 0
M  V30 1654 O 152.693 -0.065626 5.69162 0
M  V30 1655 N 153.895 -1.94973 5.46778 0
M  V30 1656 H 156.66 1.11017 2.7838 0
M  V30 1657 H 154.221 0.732458 1.44384 0
M  V30 1658 H 156.213 -1.1748 3.87273 0
M  V30 1659 H 154.783 -1.34146 2.82354 0
M  V30 1660 H 154.003 0.931165 3.83044 0
M  V30 1661 H 155.291 0.742579 5.03352 0
M  V30 1662 H 154.689 -2.4378 5.10478 0
M  V30 1663 H 153.246 -2.45713 6.03712 0
M  V30 1664 N 156.679 -1.44442 0.630414 0
M  V30 1665 C 157.925 -2.02894 0.143332 0
M  V30 1666 C 158.28 -1.48697 -1.22094 0
M  V30 1667 O 157.573 -0.661171 -1.79831 0
M  V30 1668 C 157.767 -3.57332 0.0697835 0
M  V30 1669 C 157.596 -4.26512 1.42539 0
M  V30 1670 C 156.366 -4.63516 2.01198 0
M  V30 1671 C 158.564 -4.57004 2.35907 0
M  V30 1672 N 156.546 -5.17661 3.30001 0
M  V30 1673 C 157.917 -5.12223 3.49324 0
M  V30 1674 C 159.972 -4.38955 2.34995 0
M  V30 1675 C 158.675 -5.51295 4.62024 0
M  V30 1676 C 160.701 -4.79075 3.46758 0
M  V30 1677 C 160.063 -5.34407 4.58899 0
M  V30 1678 H 156.162 -0.776041 0.0963523 0
M  V30 1679 H 158.746 -1.75945 0.833752 0
M  V30 1680 H 156.917 -3.83894 -0.589915 0
M  V30 1681 H 158.649 -4.02451 -0.42606 0
M  V30 1682 H 155.404 -4.47811 1.54151 0
M  V30 1683 H 155.828 -5.4921 3.95851 0
M  V30 1684 H 160.47 -3.95469 1.49545 0
M  V30 1685 H 158.188 -5.93736 5.48182 0
M  V30 1686 H 161.774 -4.66824 3.47227 0
M  V30 1687 H 160.654 -5.64878 5.4395 0
M  V30 1688 N 158.157 -0.370918 -1.53173 0
M  V30 1689 C 159.434 0.273754 -1.93675 0
M  V30 1690 C 159.814 1.65938 -1.3049 0
M  V30 1691 O 159.162 2.23698 -0.465999 0
M  V30 1692 C 159.372 0.318602 -3.47543 0
M  V30 1693 C 160.72 0.556392 -4.20939 0
M  V30 1694 O 161.744 0.399587 -3.53952 0
M  V30 1695 O 160.603 0.862133 -5.39657 0
M  V30 1696 H 157.697 0.165448 -0.810281 0
M  V30 1697 H 160.243 -0.42409 -1.64315 0
M  V30 1698 H 159.015 -0.652687 -3.85818 0
M  V30 1699 H 158.638 1.06212 -3.83151 0
M  V30 1700 N 159.635 1.57281 -0.100228 0
M  V30 1701 C 160.568 2.09976 0.893612 0
M  V30 1702 C 161.546 1.01155 1.27304 0
M  V30 1703 O 162.73 1.28687 1.37739 0
M  V30 1704 C 159.857 2.58098 2.19324 0
M  V30 1705 C 158.903 3.78626 1.96328 0
M  V30 1706 S 159.736 5.21959 1.19662 0
M  V30 1707 C 160.892 5.73435 2.50844 0
M  V30 1708 H 161.125 2.93946 0.44534 0
M  V30 1709 H 158.658 1.53985 0.113167 0
M  V30 1710 H 160.616 2.8648 2.94005 0
M  V30 1711 H 159.277 1.74344 2.61272 0
M  V30 1712 H 158.47 4.10382 2.92579 0
M  V30 1713 H 158.072 3.50763 1.29775 0
M  V30 1714 H 160.364 5.82015 3.46792 0
M  V30 1715 H 161.307 6.7185 2.23659 0
M  V30 1716 H 161.715 5.01395 2.59352 0
M  V30 1717 N 161.113 -0.173488 1.56642 0
M  V30 1718 C 162.076 -1.19859 1.95362 0
M  V30 1719 C 163.076 -1.37296 0.83704 0
M  V30 1720 O 164.266 -1.34739 1.10413 0
M  V30 1721 C 161.398 -2.56405 2.24654 0
M  V30 1722 H 162.591 -0.867062 2.87092 0
M  V30 1723 H 160.144 -0.415853 1.50666 0
M  V30 1724 H 160.879 -2.94576 1.35631 0
M  V30 1725 H 160.664 -2.45115 3.06041 0
M  V30 1726 H 162.154 -3.30287 2.5554 0
M  V30 1727 N 162.591 -1.51276 -0.441967 0
M  V30 1728 C 163.538 -1.72256 -1.53612 0
M  V30 1729 C 164.508 -0.564164 -1.56225 0
M  V30 1730 O 165.693 -0.798074 -1.73307 0
M  V30 1731 C 162.833 -1.84932 -2.91366 0
M  V30 1732 C 161.946 -3.12459 -2.98317 0
M  V30 1733 C 161.081 -3.15758 -4.27166 0
M  V30 1734 C 160.12 -4.37619 -4.27967 0
M  V30 1735 N 159.257 -4.38493 -5.48333 0
M  V30 1736 H 164.097 -2.65654 -1.35026 0
M  V30 1737 H 161.634 -1.31662 -0.656009 0
M  V30 1738 H 163.592 -1.90263 -3.7129 0
M  V30 1739 H 162.222 -0.949461 -3.08521 0
M  V30 1740 H 161.274 -3.1646 -2.11086 0
M  V30 1741 H 162.586 -4.02382 -2.94771 0
M  V30 1742 H 161.74 -3.19979 -5.15459 0
M  V30 1743 H 160.479 -2.23715 -4.33362 0
M  V30 1744 H 159.484 -4.33579 -3.38067 0
M  V30 1745 H 160.709 -5.30921 -4.23438 0
M  V30 1746 H 158.655 -3.49318 -5.55259 0
M  V30 1747 H 158.572 -5.22219 -5.46647 0
M  V30 1748 H 159.84 -4.469 -6.38671 0
M  V30 1749 N 164.069 0.697108 -1.41344 0
M  V30 1750 C 165.299 1.48377 -1.43763 0
M  V30 1751 C 165.707 1.89156 -0.0408726 0
M  V30 1752 O 165.05 1.57239 0.949812 0
M  V30 1753 C 165.112 2.7781 -2.2817 0
M  V30 1754 C 164.776 2.59244 -3.76353 0
M  V30 1755 C 165.773 2.25292 -4.68551 0
M  V30 1756 C 163.458 2.74933 -4.20378 0
M  V30 1757 C 165.452 2.07264 -6.02761 0
M  V30 1758 C 163.139 2.56521 -5.54653 0
M  V30 1759 C 164.137 2.22737 -6.4566 0
M  V30 1760 O 163.825 2.04485 -7.77458 0
M  V30 1761 H 163.557 0.463842 -0.491759 0
M  V30 1762 H 166.111 0.865934 -1.86255 0
M  V30 1763 H 164.341 3.41995 -1.8049 0
M  V30 1764 H 166.03 3.39608 -2.22309 0
M  V30 1765 H 166.796 2.12787 -4.35829 0
M  V30 1766 H 162.675 3.00213 -3.49848 0
M  V30 1767 H 166.219 1.80817 -6.73759 0
M  V30 1768 H 162.116 2.68616 -5.86955 0
M  V30 1769 H 162.884 2.1926 -7.88586 0
M  V30 1770 N 165.547 1.27147 0.931209 0
M  V30 1771 C 166.958 1.12044 1.49342 0
M  V30 1772 C 167.309 -0.295795 1.93957 0
M  V30 1773 O 166.434 -1.18835 1.80852 0
M  V30 1774 C 167.029 2.02781 2.71414 0
M  V30 1775 C 165.588 1.91794 3.2387 0
M  V30 1776 C 164.735 1.95543 1.96617 0
M  V30 1777 H 167.686 1.40091 0.745672 0
M  V30 1778 H 167.707 1.58156 3.46074 0
M  V30 1779 H 167.219 3.05848 2.38911 0
M  V30 1780 H 165.32 0.916992 3.6114 0
M  V30 1781 H 165.433 2.77852 3.90302 0
M  V30 1782 H 163.797 1.39722 2.12955 0
M  V30 1783 H 164.58 3.00259 1.66432 0
M  V30 1784 N 167.025 -1.13721 1.09112 0
M  V30 1785 C 168.274 -1.84275 0.82009 0
M  V30 1786 C 168.587 -1.84253 -0.656509 0
M  V30 1787 O 169.793 -2.50668 -1.04296 0
M  V30 1788 C 168.249 -3.30825 1.41714 0
M  V30 1789 C 167.857 -3.39244 2.92605 0
M  V30 1790 C 169.601 -4.06443 1.22492 0
M  V30 1791 C 167.508 -4.80047 3.45411 0
M  V30 1792 H 166.438 -0.690387 0.30312 0
M  V30 1793 H 169.089 -1.28146 1.31343 0
M  V30 1794 H 167.471 -3.86737 0.851498 0
M  V30 1795 H 168.645 -2.93344 3.55367 0
M  V30 1796 H 166.96 -2.77088 3.10823 0
M  V30 1797 H 169.557 -5.10387 1.59402 0
M  V30 1798 H 169.9 -4.15972 0.165299 0
M  V30 1799 H 170.433 -3.56852 1.75788 0
M  V30 1800 H 167.172 -4.75709 4.50978 0
M  V30 1801 H 166.692 -5.26455 2.87411 0
M  V30 1802 H 168.371 -5.48957 3.42425 0
M  V30 1803 N 168.503 -0.877838 -1.30888 0
M  V30 1804 C 169.45 -0.337538 -2.28318 0
M  V30 1805 C 170.42 0.568346 -1.56074 0
M  V30 1806 O 171.605 0.498298 -1.84178 0
M  V30 1807 C 168.745 0.448142 -3.42178 0
M  V30 1808 C 167.858 -0.48615 -4.29256 0
M  V30 1809 C 166.993 0.314427 -5.30269 0
M  V30 1810 C 166.032 -0.615791 -6.08995 0
M  V30 1811 N 165.169 0.14902 -7.01942 0
M  V30 1812 H 170.009 -1.17356 -2.73919 0
M  V30 1813 H 167.546 -0.590094 -1.34745 0
M  V30 1814 H 169.504 0.919517 -4.06941 0
M  V30 1815 H 168.134 1.24879 -2.97666 0
M  V30 1816 H 167.186 -1.076 -3.64865 0
M  V30 1817 H 168.498 -1.19909 -4.84173 0
M  V30 1818 H 167.652 0.847969 -6.00745 0
M  V30 1819 H 166.391 1.06062 -4.76027 0
M  V30 1820 H 165.396 -1.16102 -5.37401 0
M  V30 1821 H 166.621 -1.36097 -6.65323 0
M  V30 1822 H 164.567 0.877884 -6.50099 0
M  V30 1823 H 164.484 -0.504433 -7.54315 0
M  V30 1824 H 165.752 0.663537 -7.76671 0
M  V30 1825 N 169.982 1.44106 -0.638065 0
M  V30 1826 C 170.914 2.28976 0.101205 0
M  V30 1827 C 171.927 1.4167 0.802088 0
M  V30 1828 O 173.116 1.65755 0.662375 0
M  V30 1829 C 170.216 3.18217 1.16581 0
M  V30 1830 C 169.389 4.33978 0.546066 0
M  V30 1831 C 168.448 5.04202 1.50554 0
M  V30 1832 O 167.474 5.59986 1.01999 0
M  V30 1833 N 168.676 5.06296 2.8398 0
M  V30 1834 H 171.441 2.93064 -0.627186 0
M  V30 1835 H 169.002 1.54629 -0.479731 0
M  V30 1836 H 170.994 3.62061 1.80815 0
M  V30 1837 H 169.564 2.55833 1.79634 0
M  V30 1838 H 168.784 3.93239 -0.275046 0
M  V30 1839 H 170.072 5.08675 0.112793 0
M  V30 1840 H 169.47 4.62319 3.26002 0
M  V30 1841 H 168.027 5.53907 3.43556 0
M  V30 1842 N 171.46 0.379036 1.52974 0
M  V30 1843 C 172.685 -0.209353 2.06341 0
M  V30 1844 C 173.11 -1.40583 1.24972 0
M  V30 1845 O 172.468 -1.79246 0.272155 0
M  V30 1846 C 172.516 -0.567786 3.56102 0
M  V30 1847 O 171.62 -1.66318 3.77375 0
M  V30 1848 H 170.961 -0.0272919 0.663439 0
M  V30 1849 H 173.491 0.543536 1.97248 0
M  V30 1850 H 173.501 -0.835003 3.99364 0
M  V30 1851 H 172.176 0.307013 4.14765 0
M  V30 1852 H 170.753 -1.39048 3.46006 0
M  V30 1853 N 172.938 -1.57226 0.108567 0
M  V30 1854 C 173.868 -2.17778 -0.84232 0
M  V30 1855 C 174.849 -1.11487 -1.2847 0
M  V30 1856 O 176.034 -1.39681 -1.34918 0
M  V30 1857 C 173.164 -2.76888 -2.09644 0
M  V30 1858 C 172.118 -3.88669 -1.79221 0
M  V30 1859 C 171.444 -4.34541 -3.11574 0
M  V30 1860 C 172.744 -5.11251 -1.06864 0
M  V30 1861 H 174.438 -2.97489 -0.337774 0
M  V30 1862 H 171.984 -1.43097 -0.161025 0
M  V30 1863 H 173.937 -3.17904 -2.76614 0
M  V30 1864 H 172.661 -1.94451 -2.62405 0
M  V30 1865 H 171.32 -3.48213 -1.14644 0
M  V30 1866 H 170.968 -3.48977 -3.62249 0
M  V30 1867 H 170.668 -5.09914 -2.91996 0
M  V30 1868 H 172.192 -4.782 -3.7968 0
M  V30 1869 H 173.606 -5.49352 -1.63968 0
M  V30 1870 H 172.003 -5.9214 -0.974178 0
M  V30 1871 H 173.073 -4.8487 -0.0536168 0
M  V30 1872 N 174.416 0.165178 -1.56732 0
M  V30 1873 C 175.363 1.2044 -1.96883 0
M  V30 1874 C 176.333 1.43664 -0.833657 0
M  V30 1875 O 177.518 1.56302 -1.09427 0
M  V30 1876 C 174.658 2.53727 -2.33916 0
M  V30 1877 C 173.771 2.3783 -3.6064 0
M  V30 1878 C 172.906 3.64026 -3.86857 0
M  V30 1879 C 171.945 3.43088 -5.06909 0
M  V30 1880 N 171.082 4.61369 -5.29229 0
M  V30 1881 H 175.922 0.854996 -2.85471 0
M  V30 1882 H 173.459 0.41076 -1.41249 0
M  V30 1883 H 175.417 3.31419 -2.53411 0
M  V30 1884 H 174.047 2.8665 -1.48431 0
M  V30 1885 H 173.099 1.51282 -3.49024 0
M  V30 1886 H 174.411 2.18308 -4.4849 0
M  V30 1887 H 173.565 4.50152 -4.06753 0
M  V30 1888 H 172.304 3.86533 -2.97394 0
M  V30 1889 H 171.309 2.55349 -4.86906 0
M  V30 1890 H 172.534 3.21997 -5.97909 0
M  V30 1891 H 170.48 4.84084 -4.42718 0
M  V30 1892 H 170.397 4.44783 -6.11313 0
M  V30 1893 H 171.665 5.48761 -5.53608 0
M  V30 1894 N 175.894 1.51508 0.433938 0
M  V30 1895 C 176.842 1.73646 1.54757 0
M  V30 1896 C 177.836 0.602854 1.5831 0
M  V30 1897 O 179.042 0.784318 1.62014 0
M  V30 1898 H 175.417 0.548718 0.51421 0
M  V30 1899 H 177.388 2.66991 1.33261 0
M  V30 1900 C 176.137 1.88172 2.92381 0
M  V30 1901 H 175.46 2.74808 2.90381 0
M  V30 1902 H 176.9 2.07672 3.6966 0
M  V30 1903 C 175.359 0.64239 3.30719 0
M  V30 1904 O 175.889 -0.201362 4.01195 0
M  V30 1905 N 174.095 0.485489 2.86516 0
M  V30 1906 H 173.642 1.17318 2.29334 0
M  V30 1907 H 173.6 -0.342482 3.12529 0
M  V30 1908 N 177.372 -0.689602 1.41712 0
M  V30 1909 C 178.621 -1.44534 1.40686 0
M  V30 1910 C 178.934 -1.95588 0.0213352 0
M  V30 1911 O 180.14 -2.71271 -0.111534 0
M  V30 1912 C 178.596 -2.61387 2.47396 0
M  V30 1913 C 178.204 -2.17094 3.91885 0
M  V30 1914 C 179.948 -3.38986 2.55517 0
M  V30 1915 C 177.855 -3.3094 4.90135 0
M  V30 1916 H 176.785 -0.542925 0.52321 0
M  V30 1917 H 179.436 -0.748054 1.6756 0
M  V30 1918 H 177.818 -3.33412 2.13664 0
M  V30 1919 H 178.992 -1.52318 4.34897 0
M  V30 1920 H 177.307 -1.52473 3.8748 0
M  V30 1921 H 179.904 -4.23747 3.26102 0
M  V30 1922 H 180.247 -3.84578 1.59391 0
M  V30 1923 H 180.78 -2.74021 2.8837 0
M  V30 1924 H 177.519 -2.90355 5.87685 0
M  V30 1925 H 177.039 -3.94546 4.51767 0
M  V30 1926 H 178.718 -3.9663 5.11169 0
M  V30 1927 N 178.85 -1.27639 -0.924453 0
M  V30 1928 C 180.075 -1.17101 -1.71179 0
M  V30 1929 C 180.5 0.268134 -1.86179 0
M  V30 1930 O 179.858 1.19415 -1.36418 0
M  V30 1931 C 179.906 -1.86313 -3.08739 0
M  V30 1932 O 179.01 -1.16331 -3.95652 0
M  V30 1933 H 178.351 -0.407091 -0.524569 0
M  V30 1934 H 180.881 -1.68767 -1.15666 0
M  V30 1935 H 180.891 -1.938 -3.59034 0
M  V30 1936 H 179.566 -2.91001 -2.97138 0
M  V30 1937 H 178.143 -1.16935 -3.54091 0
M  V30 1938 N 180.328 1.1314 -1.09713 0
M  V30 1939 C 181.238 2.22242 -0.751367 0
M  V30 1940 C 182.254 1.72224 0.247938 0
M  V30 1941 O 183.43 2.01205 0.0885463 0
M  V30 1942 C 180.495 3.46231 -0.180274 0
M  V30 1943 C 179.556 4.11125 -1.2359 0
M  V30 1944 C 178.789 5.29195 -0.691966 0
M  V30 1945 O 179.012 5.68342 0.48414 0
M  V30 1946 O 177.946 5.84214 -1.44838 0
M  V30 1947 H 181.772 2.54197 -1.66186 0
M  V30 1948 H 179.357 1.21331 -0.871735 0
M  V30 1949 H 181.239 4.21185 0.134739 0
M  V30 1950 H 179.914 3.1597 0.703185 0
M  V30 1951 H 178.821 3.37985 -1.60366 0
M  V30 1952 H 180.154 4.45524 -2.09211 0
M  V30 1953 N 181.806 0.884767 1.30421 0
M  V30 1954 C 183.055 0.499164 1.95426 0
M  V30 1955 C 183.368 -0.95645 1.70621 0
M  V30 1956 O 184.574 -1.44889 2.29607 0
M  V30 1957 C 183.03 0.84177 3.49917 0
M  V30 1958 C 182.638 2.31514 3.83543 0
M  V30 1959 C 184.382 0.525355 4.21237 0
M  V30 1960 C 182.289 2.59939 5.31212 0
M  V30 1961 H 181.219 0.182944 0.73147 0
M  V30 1962 H 183.87 1.07971 1.48373 0
M  V30 1963 H 182.252 0.190311 3.95542 0
M  V30 1964 H 183.426 3.0109 3.48829 0
M  V30 1965 H 181.741 2.59907 3.25326 0
M  V30 1966 H 184.338 0.714762 5.29901 0
M  V30 1967 H 184.681 -0.535222 4.12845 0
M  V30 1968 H 185.214 1.134 3.81294 0
M  V30 1969 H 181.953 3.64736 5.44654 0
M  V30 1970 H 181.473 1.94972 5.67227 0
M  V30 1971 H 183.152 2.45429 5.98643 0
M  V30 1972 N 183.284 -1.43765 0.645699 0
M  V30 1973 C 184.533 -2.01116 0.153412 0
M  V30 1974 C 184.846 -1.51493 -1.23731 0
M  V30 1975 O 186.052 -2.01067 -1.8244 0
M  V30 1976 C 184.508 -3.59206 0.223473 0
M  V30 1977 C 184.116 -4.17823 1.61642 0
M  V30 1978 C 185.86 -4.23972 -0.211597 0
M  V30 1979 C 183.767 -5.68183 1.64081 0
M  V30 1980 H 182.697 -0.752093 0.0535891 0
M  V30 1981 H 185.348 -1.6482 0.806633 0
M  V30 1982 H 183.73 -3.92867 -0.497118 0
M  V30 1983 H 184.904 -3.95674 2.36176 0
M  V30 1984 H 183.219 -3.65399 1.99681 0
M  V30 1985 H 185.816 -5.34275 -0.213112 0
M  V30 1986 H 186.159 -3.97352 -1.24165 0
M  V30 1987 H 186.692 -3.95166 0.456988 0
M  V30 1988 H 183.431 -5.99559 2.64971 0
M  V30 1989 H 182.951 -5.9241 0.938611 0
M  V30 1990 H 184.63 -6.32085 1.3812 0
M  V30 1991 N 184.763 -0.387143 -1.52771 0
M  V30 1992 C 185.726 0.436939 -2.24997 0
M  V30 1993 C 186.726 0.991991 -1.26555 0
M  V30 1994 O 187.916 0.874335 -1.50669 0
M  V30 1995 C 185.048 1.61281 -3.00335 0
M  V30 1996 H 186.241 -0.195365 -2.99263 0
M  V30 1997 H 183.794 -0.139218 -1.55679 0
M  V30 1998 H 184.529 2.2826 -2.30364 0
M  V30 1999 H 184.314 1.22154 -3.72587 0
M  V30 2000 H 185.804 2.19629 -3.5518 0
M  V30 2001 N 186.241 1.57166 -0.116904 0
M  V30 2002 C 187.188 2.15202 0.83408 0
M  V30 2003 C 188.158 1.07644 1.26499 0
M  V30 2004 O 189.343 1.35541 1.34288 0
M  V30 2005 C 186.483 2.75405 2.07957 0
M  V30 2006 C 185.596 3.97264 1.69721 0
M  V30 2007 C 184.731 4.45561 2.89221 0
M  V30 2008 C 183.77 5.59956 2.47215 0
M  V30 2009 N 182.907 6.03006 3.59622 0
M  V30 2010 H 187.747 2.96141 0.332335 0
M  V30 2011 H 185.284 1.46309 0.152349 0
M  V30 2012 H 187.242 3.08439 2.80929 0
M  V30 2013 H 185.872 1.97159 2.55594 0
M  V30 2014 H 184.924 3.70404 0.866316 0
M  V30 2015 H 186.236 4.80226 1.34849 0
M  V30 2016 H 185.39 4.80493 3.7042 0
M  V30 2017 H 184.129 3.61544 3.27318 0
M  V30 2018 H 183.134 5.2463 1.64448 0
M  V30 2019 H 184.359 6.45738 2.10238 0
M  V30 2020 H 182.305 5.21931 3.97396 0
M  V30 2021 H 182.222 6.80819 3.28667 0
M  V30 2022 H 183.49 6.42576 4.41267 0
M  V30 2023 N 187.719 -0.156864 1.56817 0
M  V30 2024 C 188.967 -0.869404 1.82444 0
M  V30 2025 C 189.288 -1.82147 0.69623 0
M  V30 2026 O 188.558 -1.93847 -0.28287 0
M  V30 2027 H 187.138 -0.324043 0.673056 0
M  V30 2028 H 189.8 -0.153224 1.94297 0
M  V30 2029 H 188.896 -1.43761 2.77019 0
M  V30 2030 N 189.197 -1.51736 -0.425897 0
M  V30 2031 C 190.443 -1.65214 -1.1761 0
M  V30 2032 C 190.776 -0.372778 -1.90589 0
M  V30 2033 O 190.051 0.628139 -1.84078 0
M  V30 2034 C 190.334 -2.86312 -2.18398 0
M  V30 2035 C 190.187 -4.24254 -1.49426 0
M  V30 2036 C 191.506 -3.02925 -3.19256 0
M  V30 2037 H 188.625 -0.601263 -0.426206 0
M  V30 2038 H 191.267 -1.8425 -0.463882 0
M  V30 2039 H 189.417 -2.70213 -2.79137 0
M  V30 2040 H 191.089 -4.52046 -0.919362 0
M  V30 2041 H 189.332 -4.26426 -0.796432 0
M  V30 2042 H 190.003 -5.05001 -2.22885 0
M  V30 2043 H 192.479 -3.1781 -2.68581 0
M  V30 2044 H 191.355 -3.89199 -3.8706 0
M  V30 2045 H 191.616 -2.15497 -3.86023 0
M  V30 2046 N 190.675 0.682077 -1.42076 0
M  V30 2047 C 191.903 1.47057 -1.4554 0
M  V30 2048 C 192.318 1.8869 -0.0645779 0
M  V30 2049 O 191.675 1.57666 0.919115 0
M  V30 2050 C 191.726 2.72442 -2.37609 0
M  V30 2051 O 191.447 2.32559 -3.71279 0
M  V30 2052 C 192.948 3.66069 -2.50017 0
M  V30 2053 H 190.168 0.452737 -0.495248 0
M  V30 2054 H 192.712 0.838695 -1.8651 0
M  V30 2055 H 190.867 3.31835 -1.9991 0
M  V30 2056 H 191.281 3.13475 -4.20516 0
M  V30 2057 H 192.755 4.50792 -3.18576 0
M  V30 2058 H 193.232 4.11476 -1.53572 0
M  V30 2059 H 193.838 3.12572 -2.88407 0
M  V30 2060 N 192.153 1.28127 0.917671 0
M  V30 2061 C 193.085 1.07517 2.02417 0
M  V30 2062 C 194.098 0.0281099 1.62776 0
M  V30 2063 O 195.287 0.270748 1.76435 0
M  V30 2064 C 192.387 0.610957 3.33347 0
M  V30 2065 C 191.56 1.73255 4.01624 0
M  V30 2066 C 190.619 1.26238 5.10833 0
M  V30 2067 O 189.645 1.96389 5.34247 0
M  V30 2068 N 190.847 0.123448 5.80369 0
M  V30 2069 H 193.612 2.02806 2.20658 0
M  V30 2070 H 191.173 1.19827 1.08871 0
M  V30 2071 H 193.165 0.280101 4.0373 0
M  V30 2072 H 191.735 -0.24898 3.11607 0
M  V30 2073 H 190.955 2.23319 3.24842 0
M  V30 2074 H 192.243 2.48503 4.43986 0
M  V30 2075 H 191.641 -0.461847 5.63812 0
M  V30 2076 H 190.198 -0.148158 6.51632 0
M  V30 2077 N 193.631 -1.12557 1.10312 0
M  V30 2078 C 194.88 -1.83395 0.839588 0
M  V30 2079 C 195.193 -1.84939 -0.636929 0
M  V30 2080 O 196.399 -2.51761 -1.01631 0
M  V30 2081 C 194.855 -3.29303 1.45215 0
M  V30 2082 C 194.463 -3.36122 2.96186 0
M  V30 2083 C 196.207 -4.05121 1.26796 0
M  V30 2084 C 194.114 -4.76357 3.50483 0
M  V30 2085 H 193.044 -0.687133 0.310425 0
M  V30 2086 H 195.695 -1.26746 1.32694 0
M  V30 2087 H 194.077 -3.85812 0.892469 0
M  V30 2088 H 195.251 -2.89559 3.58458 0
M  V30 2089 H 193.566 -2.73776 3.13745 0
M  V30 2090 H 196.163 -5.08668 1.64806 0
M  V30 2091 H 196.506 -4.15773 0.209409 0
M  V30 2092 H 197.039 -3.54967 1.79563 0
M  V30 2093 H 193.778 -4.70899 4.55998 0
M  V30 2094 H 193.298 -5.23377 2.92978 0
M  V30 2095 H 194.977 -5.45294 3.48228 0
M  V30 2096 N 195.109 -0.891671 -1.2995 0
M  V30 2097 C 196.386 -0.433307 -1.9074 0
M  V30 2098 C 196.766 1.08646 -1.80995 0
M  V30 2099 O 196.114 1.92476 -1.23147 0
M  V30 2100 C 196.324 -0.938895 -3.36134 0
M  V30 2101 C 197.672 -0.977829 -4.13187 0
M  V30 2102 O 198.696 -0.886015 -3.45005 0
M  V30 2103 O 197.555 -1.11453 -5.35015 0
M  V30 2104 H 194.649 -0.133699 -0.816121 0
M  V30 2105 H 197.195 -0.981011 -1.38471 0
M  V30 2106 H 195.967 -1.98281 -3.37343 0
M  V30 2107 H 195.59 -0.37074 -3.95868 0
M  V30 2108 N 196.587 1.43421 -0.653314 0
M  V30 2109 C 197.535 2.32546 0.0501531 0
M  V30 2110 C 198.529 1.48617 0.812985 0
M  V30 2111 O 199.735 1.64825 0.723375 0
M  V30 2112 H 196.11 0.751185 0.0350032 0
M  V30 2113 H 198.081 2.89602 -0.719261 0
M  V30 2114 C 196.83 3.32925 1.00279 0
M  V30 2115 H 196.153 3.97532 0.425236 0
M  V30 2116 H 197.593 3.9792 1.46409 0
M  V30 2117 C 196.052 2.63532 2.09886 0
M  V30 2118 O 196.582 2.45092 3.18265 0
M  V30 2119 N 194.788 2.22905 1.86445 0
M  V30 2120 H 194.335 2.38103 0.98309 0
M  V30 2121 H 194.293 1.76805 2.59976 0
M  V30 2122 N 198.065 0.39524 1.52563 0
M  V30 2123 C 199.342 -0.242908 1.94086 0
M  V30 2124 C 199.722 -1.63841 1.33114 0
M  V30 2125 O 199.07 -2.22928 0.501529 0
M  V30 2126 C 199.28 -0.26327 3.48006 0
M  V30 2127 C 200.628 -0.489354 4.21771 0
M  V30 2128 O 201.652 -0.343226 3.54543 0
M  V30 2129 O 200.511 -0.776169 5.4096 0
M  V30 2130 H 197.605 -0.152536 0.812811 0
M  V30 2131 H 200.151 0.450178 1.6362 0
M  V30 2132 H 198.923 0.713985 3.84731 0
M  V30 2133 H 198.546 -1.00103 3.84792 0
M  V30 2134 N 199.544 -1.57102 0.125237 0
M  V30 2135 C 200.474 -2.18659 -0.819174 0
M  V30 2136 C 201.455 -1.12843 -1.27281 0
M  V30 2137 O 202.64 -1.41104 -1.33429 0
M  V30 2138 C 199.77 -2.79096 -2.06695 0
M  V30 2139 C 198.724 -3.90548 -1.75088 0
M  V30 2140 C 198.05 -4.37821 -3.06948 0
M  V30 2141 C 199.35 -5.12356 -1.01435 0
M  V30 2142 H 201.044 -2.9783 -0.306202 0
M  V30 2143 H 198.59 -1.4326 -0.145839 0
M  V30 2144 H 200.543 -3.2082 -2.73226 0
M  V30 2145 H 199.267 -1.97223 -2.60328 0
M  V30 2146 H 197.926 -3.49409 -1.10944 0
M  V30 2147 H 197.574 -3.52799 -3.58527 0
M  V30 2148 H 197.274 -5.12982 -2.86571 0
M  V30 2149 H 198.798 -4.822 -3.74587 0
M  V30 2150 H 200.212 -5.5106 -1.58132 0
M  V30 2151 H 198.609 -5.9314 -0.911319 0
M  V30 2152 H 199.679 -4.849 -0.00218681 0
M  V30 2153 N 201.022 0.148545 -1.56898 0
M  V30 2154 C 201.969 1.18345 -1.98149 0
M  V30 2155 C 202.939 1.42772 -0.848848 0
M  V30 2156 O 204.124 1.55132 -1.11079 0
M  V30 2157 C 201.264 2.51231 -2.36594 0
M  V30 2158 C 200.377 2.33991 -3.63142 0
M  V30 2159 C 199.512 3.59902 -3.90697 0
M  V30 2160 C 198.551 3.37692 -5.1052 0
M  V30 2161 N 197.688 4.5573 -5.34092 0
M  V30 2162 H 202.528 0.82467 -2.86362 0
M  V30 2163 H 200.065 0.395756 -1.41676 0
M  V30 2164 H 202.023 3.28713 -2.56912 0
M  V30 2165 H 200.653 2.85059 -1.51463 0
M  V30 2166 H 199.705 1.47572 -3.50609 0
M  V30 2167 H 201.017 2.13539 -4.5078 0
M  V30 2168 H 200.171 4.45813 -4.11505 0
M  V30 2169 H 198.91 3.83357 -3.01477 0
M  V30 2170 H 197.915 2.5017 -4.89587 0
M  V30 2171 H 199.14 3.15637 -6.0129 0
M  V30 2172 H 197.086 4.79361 -4.47827 0
M  V30 2173 H 197.003 4.38274 -6.15996 0
M  V30 2174 H 198.271 5.42858 -5.59397 0
M  V30 2175 N 202.5 1.5196 0.417844 0
M  V30 2176 C 203.725 1.69717 1.1921 0
M  V30 2177 C 204.15 0.402148 1.83751 0
M  V30 2178 O 203.508 -0.639593 1.69643 0
M  V30 2179 C 203.556 2.82794 2.2374 0
M  V30 2180 O 202.66 2.47756 3.29683 0
M  V30 2181 H 202.001 0.565263 0.348387 0
M  V30 2182 H 204.531 1.98621 0.490985 0
M  V30 2183 H 204.541 3.07452 2.68212 0
M  V30 2184 H 203.216 3.76756 1.76146 0
M  V30 2185 H 201.793 2.33739 2.90552 0
M  V30 2186 N 203.978 -0.674533 1.42435 0
M  V30 2187 C 205.394 -0.98769 1.25367 0
M  V30 2188 C 205.594 -2.00879 0.158044 0
M  V30 2189 O 204.65 -2.48075 -0.470633 0
M  V30 2190 C 205.963 -1.49224 2.6106 0
M  V30 2191 C 207.511 -1.61 2.68417 0
M  V30 2192 C 207.986 -2.14852 4.04478 0
M  V30 2193 N 209.477 -2.22185 4.06434 0
M  V30 2194 C 210.212 -2.64928 5.08528 0
M  V30 2195 N 209.708 -3.07121 6.21006 0
M  V30 2196 N 211.501 -2.64679 4.95885 0
M  V30 2197 H 203.652 0.00152503 2.124 0
M  V30 2198 H 205.915 -0.0618434 0.945981 0
M  V30 2199 H 205.621 -0.816453 3.42092 0
M  V30 2200 H 205.495 -2.47094 2.84999 0
M  V30 2201 H 207.882 -2.27686 1.87732 0
M  V30 2202 H 207.963 -0.616195 2.48267 0
M  V30 2203 H 207.607 -1.48775 4.85622 0
M  V30 2204 H 207.537 -3.15024 4.2198 0
M  V30 2205 H 210.028 -1.92435 3.25234 0
M  V30 2206 H 210.341 -3.38423 6.94759 0
M  V30 2207 H 208.686 -3.04978 6.24511 0
M  V30 2208 H 211.877 -2.31078 4.07088 0
M  V30 2209 H 212.05 -2.9767 5.75584 0
M  V30 2210 N 205.456 -1.28612 -0.910864 0
M  V30 2211 C 206.419 -1.12803 -1.9952 0
M  V30 2212 C 207.419 -0.0668264 -1.60661 0
M  V30 2213 O 208.609 -0.312847 -1.71368 0
M  V30 2214 C 205.741 -0.72254 -3.33155 0
M  V30 2215 H 206.934 -2.09109 -2.14973 0
M  V30 2216 H 204.487 -1.11639 -1.09391 0
M  V30 2217 H 205.222 0.241152 -3.23402 0
M  V30 2218 H 205.007 -1.48916 -3.62721 0
M  V30 2219 H 206.497 -0.634666 -4.12749 0
M  V30 2220 N 206.934 1.1197 -1.10907 0
M  V30 2221 C 208.159 1.87942 -0.877064 0
M  V30 2222 C 208.584 1.79341 0.567314 0
M  V30 2223 O 207.942 1.15184 1.40009 0
M  V30 2224 C 207.99 3.34926 -1.33629 0
M  V30 2225 O 207.094 4.09303 -0.504447 0
M  V30 2226 H 206.435 0.583785 -0.316371 0
M  V30 2227 H 208.965 1.4157 -1.47712 0
M  V30 2228 H 208.975 3.8577 -1.32837 0
M  V30 2229 H 207.65 3.40504 -2.3881 0
M  V30 2230 H 206.227 3.68393 -0.577993 0
M  V30 2231 N 208.412 0.89855 1.29475 0
M  V30 2232 C 209.375 0.380272 2.26023 0
M  V30 2233 C 210.375 -0.484891 1.53315 0
M  V30 2234 O 211.565 -0.290108 1.71767 0
M  V30 2235 C 208.697 -0.45651 3.3783 0
M  V30 2236 H 209.89 1.23295 2.73383 0
M  V30 2237 H 207.443 0.676589 1.40897 0
M  V30 2238 H 208.178 -1.32922 2.95808 0
M  V30 2239 H 207.963 0.163393 3.91759 0
M  V30 2240 H 209.453 -0.810466 4.0966 0
M  V30 2241 N 209.89 -1.43072 0.660911 0
M  V30 2242 C 211.12 -2.05769 0.185153 0
M  V30 2243 C 211.528 -1.49668 -1.15742 0
M  V30 2244 O 210.871 -0.625649 -1.72717 0
M  V30 2245 C 210.933 -3.59489 0.0278237 0
M  V30 2246 C 210.597 -4.38212 1.2969 0
M  V30 2247 C 211.594 -4.69772 2.22734 0
M  V30 2248 C 209.279 -4.7809 1.54063 0
M  V30 2249 C 211.273 -5.40129 3.38437 0
M  V30 2250 C 208.96 -5.4819 2.70058 0
M  V30 2251 C 209.958 -5.79132 3.62071 0
M  V30 2252 O 209.646 -6.47798 4.76039 0
M  V30 2253 H 209.378 -0.669873 0.0908086 0
M  V30 2254 H 211.932 -1.84436 0.90402 0
M  V30 2255 H 210.162 -3.79426 -0.746489 0
M  V30 2256 H 211.851 -4.03862 -0.406275 0
M  V30 2257 H 212.617 -4.39476 2.05149 0
M  V30 2258 H 208.496 -4.53408 0.833215 0
M  V30 2259 H 212.04 -5.64198 4.10277 0
M  V30 2260 H 207.937 -5.77902 2.87574 0
M  V30 2261 H 208.705 -6.66283 4.75404 0
M  V30 2262 N 211.368 -0.403325 -1.52352 0
M  V30 2263 C 212.316 0.439752 -2.28405 0
M  V30 2264 C 213.31 1.05089 -1.32863 0
M  V30 2265 O 214.516 0.989759 -1.50345 0
M  V30 2266 H 210.891 0.160587 -0.734653 0
M  V30 2267 H 212.862 -0.222983 -2.97566 0
M  V30 2268 C 211.611 1.54736 -3.11371 0
M  V30 2269 H 210.934 1.08643 -3.84755 0
M  V30 2270 H 212.374 2.1112 -3.67701 0
M  V30 2271 C 210.833 2.51141 -2.24566 0
M  V30 2272 O 211.363 3.54887 -1.88196 0
M  V30 2273 N 209.569 2.21213 -1.8845 0
M  V30 2274 H 209.116 1.36878 -2.18225 0
M  V30 2275 H 209.074 2.85963 -1.30662 0
M  V30 2276 N 212.846 1.57033 -0.133567 0
M  V30 2277 C 213.794 2.17348 0.828412 0
M  V30 2278 C 214.788 1.12671 1.26498 0
M  V30 2279 O 215.994 1.30947 1.23502 0
M  V30 2280 H 212.369 0.695775 0.285309 0
M  V30 2281 H 214.34 2.96935 0.295372 0
M  V30 2282 C 213.089 2.79893 2.06289 0
M  V30 2283 H 212.412 3.60147 1.73592 0
M  V30 2284 H 213.852 3.25615 2.71572 0
M  V30 2285 C 212.311 1.77713 2.86216 0
M  V30 2286 O 212.841 1.23937 3.82103 0
M  V30 2287 N 211.047 1.47321 2.50489 0
M  V30 2288 H 210.594 1.91243 1.7258 0
M  V30 2289 H 210.552 0.79199 3.04261 0
M  V30 2290 N 214.325 -0.140222 1.56975 0
M  V30 2291 C 215.255 -1.17456 2.01808 0
M  V30 2292 C 216.236 -1.44415 0.898794 0
M  V30 2293 O 217.421 -1.5522 1.16707 0
M  V30 2294 C 214.551 -2.50607 2.40444 0
M  V30 2295 C 213.505 -2.38155 3.55621 0
M  V30 2296 C 212.831 -3.76078 3.80091 0
M  V30 2297 C 214.131 -1.85991 4.88062 0
M  V30 2298 H 215.825 -0.801743 2.88466 0
M  V30 2299 H 213.371 -0.38422 1.38779 0
M  V30 2300 H 215.324 -3.23197 2.7041 0
M  V30 2301 H 214.048 -2.89737 1.50732 0
M  V30 2302 H 212.707 -1.68016 3.25832 0
M  V30 2303 H 212.355 -4.12656 2.87618 0
M  V30 2304 H 212.055 -3.68606 4.57606 0
M  V30 2305 H 213.579 -4.50206 4.12488 0
M  V30 2306 H 214.993 -2.4838 5.16701 0
M  V30 2307 H 213.39 -1.89393 5.6943 0
M  V30 2308 H 214.46 -0.816023 4.77984 0
M  V30 2309 N 215.803 -1.52179 -0.40978 0
M  V30 2310 C 216.75 -1.75475 -1.49924 0
M  V30 2311 C 217.72 -0.597175 -1.54994 0
M  V30 2312 O 218.905 -0.834655 -1.71575 0
M  V30 2313 C 216.045 -1.9107 -2.87378 0
M  V30 2314 C 215.158 -3.18717 -2.91622 0
M  V30 2315 C 214.293 -3.24747 -4.20372 0
M  V30 2316 C 213.332 -4.46598 -4.18588 0
M  V30 2317 N 212.469 -4.50025 -5.38908 0
M  V30 2318 H 217.309 -2.68458 -1.29361 0
M  V30 2319 H 214.846 -1.33024 -0.627934 0
M  V30 2320 H 216.804 -1.98096 -3.6717 0
M  V30 2321 H 215.434 -1.01469 -3.06437 0
M  V30 2322 H 214.486 -3.20866 -2.04326 0
M  V30 2323 H 215.798 -4.08544 -2.86169 0
M  V30 2324 H 214.952 -3.30841 -5.08556 0
M  V30 2325 H 213.691 -2.32857 -4.28519 0
M  V30 2326 H 212.696 -4.40652 -3.28794 0
M  V30 2327 H 213.921 -5.39783 -4.12081 0
M  V30 2328 H 211.867 -3.61017 -5.47725 0
M  V30 2329 H 211.784 -5.33697 -5.35447 0
M  V30 2330 H 213.052 -4.60347 -6.29048 0
M  V30 2331 N 217.281 0.66697 -1.42791 0
M  V30 2332 C 218.529 1.42417 -1.43394 0
M  V30 2333 C 218.85 1.94925 -0.0542373 0
M  V30 2334 O 218.12 1.73564 0.908415 0
M  V30 2335 H 216.7 0.528515 -0.527902 0
M  V30 2336 H 219.362 0.787562 -1.78279 0
M  V30 2337 H 218.458 2.27333 -2.13837 0
M  V30 2338 N 218.759 1.29093 0.90403 0
M  V30 2339 C 219.707 1.13727 2.02901 0
M  V30 2340 C 220.701 0.0539853 1.69314 0
M  V30 2341 O 221.907 0.213469 1.7873 0
M  V30 2342 H 218.282 0.35117 0.664969 0
M  V30 2343 H 220.253 2.08982 2.13001 0
M  V30 2344 C 219.002 0.826066 3.37745 0
M  V30 2345 H 218.325 1.65164 3.64089 0
M  V30 2346 H 219.765 0.758559 4.17159 0
M  V30 2347 C 218.224 -0.470541 3.33598 0
M  V30 2348 O 218.754 -1.49792 3.72727 0
M  V30 2349 N 216.96 -0.474812 2.86695 0
M  V30 2350 H 216.507 0.361692 2.55048 0
M  V30 2351 H 216.465 -1.34236 2.84303 0
M  V30 2352 N 220.237 -1.11381 1.11499 0
M  V30 2353 C 221.167 -2.19509 0.796125 0
M  V30 2354 C 222.148 -1.68458 -0.235796 0
M  V30 2355 O 223.333 -1.93947 -0.0991344 0
M  V30 2356 C 220.463 -3.46475 0.239205 0
M  V30 2357 C 219.417 -4.10744 1.20307 0
M  V30 2358 C 218.743 -5.32293 0.50683 0
M  V30 2359 C 220.043 -4.55597 2.55399 0
M  V30 2360 H 221.737 -2.46439 1.70024 0
M  V30 2361 H 219.283 -1.18446 0.818935 0
M  V30 2362 H 221.236 -4.214 0.00392006 0
M  V30 2363 H 219.96 -3.19006 -0.700206 0
M  V30 2364 H 218.619 -3.37813 1.42399 0
M  V30 2365 H 218.267 -5.01095 -0.437408 0
M  V30 2366 H 217.967 -5.76243 1.1497 0
M  V30 2367 H 219.491 -6.09956 0.280351 0
M  V30 2368 H 220.905 -5.21841 2.37391 0
M  V30 2369 H 219.302 -5.10363 3.15673 0
M  V30 2370 H 220.372 -3.69013 3.14575 0
M  V30 2371 N 221.715 -0.905404 -1.28997 0
M  V30 2372 C 222.647 -0.344748 -2.26592 0
M  V30 2373 C 223.66 0.512135 -1.54535 0
M  V30 2374 O 224.849 0.328368 -1.75454 0
M  V30 2375 C 221.949 0.526587 -3.34784 0
M  V30 2376 C 221.122 -0.305871 -4.36329 0
M  V30 2377 C 220.181 0.499209 -5.23827 0
M  V30 2378 O 219.207 -0.0853004 -5.69136 0
M  V30 2379 N 220.409 1.80408 -5.51755 0
M  V30 2380 H 223.174 -1.18359 -2.75338 0
M  V30 2381 H 220.735 -0.770481 -1.42391 0
M  V30 2382 H 222.727 1.07171 -3.90252 0
M  V30 2383 H 221.297 1.26613 -2.85811 0
M  V30 2384 H 220.517 -1.0324 -3.80441 0
M  V30 2385 H 221.805 -0.875773 -5.01206 0
M  V30 2386 H 221.203 2.3016 -5.16762 0
M  V30 2387 H 219.76 2.29621 -6.10014 0
M  V30 2388 N 223.193 1.4272 -0.668489 0
M  V30 2389 C 224.141 2.32586 0.0254857 0
M  V30 2390 C 225.135 1.49471 0.797176 0
M  V30 2391 O 226.341 1.65583 0.705853 0
M  V30 2392 H 222.716 0.751514 0.0270339 0
M  V30 2393 H 224.687 2.88823 -0.749936 0
M  V30 2394 C 223.436 3.3397 0.967427 0
M  V30 2395 H 222.759 3.97961 0.383048 0
M  V30 2396 H 224.199 3.9945 1.42181 0
M  V30 2397 C 222.658 2.65744 2.0708 0
M  V30 2398 O 223.188 2.48454 3.15648 0
M  V30 2399 N 221.394 2.2487 1.8407 0
M  V30 2400 H 220.941 2.39132 0.95778 0
M  V30 2401 H 220.899 1.79552 2.58086 0
M  V30 2402 N 224.671 0.411399 1.52136 0
M  V30 2403 C 225.601 -0.404015 2.29978 0
M  V30 2404 C 226.582 -1.04412 1.34284 0
M  V30 2405 O 227.767 -1.0527 1.63192 0
M  V30 2406 C 224.897 -1.5197 3.12286 0
M  V30 2407 C 223.851 -1.00448 4.16046 0
M  V30 2408 C 223.177 -2.21393 4.86712 0
M  V30 2409 C 224.477 -0.0569336 5.22269 0
M  V30 2410 H 226.171 0.245529 2.98392 0
M  V30 2411 H 223.717 0.119525 1.43503 0
M  V30 2412 H 225.67 -2.09715 3.6551 0
M  V30 2413 H 224.394 -2.19716 2.41646 0
M  V30 2414 H 223.053 -0.449421 3.63835 0
M  V30 2415 H 222.701 -2.87699 4.12599 0
M  V30 2416 H 222.401 -1.87571 5.56858 0
M  V30 2417 H 223.925 -2.7974 5.4275 0
M  V30 2418 H 225.339 -0.54325 5.7072 0
M  V30 2419 H 223.736 0.192594 5.99791 0
M  V30 2420 H 224.806 0.887663 4.76706 0
M  V30 2421 N 226.149 -1.5696 0.141893 0
M  V30 2422 C 227.059 -2.20066 -0.812905 0
M  V30 2423 C 228.075 -1.18344 -1.27557 0
M  V30 2424 O 229.251 -1.50902 -1.33381 0
M  V30 2425 C 226.316 -2.80583 -2.03652 0
M  V30 2426 C 225.377 -3.97414 -1.62359 0
M  V30 2427 C 224.61 -4.55036 -2.78887 0
M  V30 2428 O 224.833 -4.11538 -3.94959 0
M  V30 2429 O 223.767 -5.45376 -2.54653 0
M  V30 2430 H 227.593 -3.02157 -0.305746 0
M  V30 2431 H 225.178 -1.49159 -0.0848799 0
M  V30 2432 H 227.06 -3.19067 -2.75272 0
M  V30 2433 H 225.735 -2.01508 -2.5333 0
M  V30 2434 H 224.642 -3.63656 -0.877775 0
M  V30 2435 H 225.975 -4.77994 -1.17401 0
M  V30 2436 N 227.627 0.131896 -1.57047 0
M  V30 2437 C 229.043 0.485031 -1.52051 0
M  V30 2438 C 229.243 1.82563 -0.85281 0
M  V30 2439 O 228.299 2.48817 -0.429694 0
M  V30 2440 C 229.612 0.481409 -2.96821 0
M  V30 2441 C 231.16 0.565868 -3.07842 0
M  V30 2442 C 231.635 0.592762 -4.54148 0
M  V30 2443 N 233.126 0.654564 -4.58552 0
M  V30 2444 C 233.861 0.696608 -5.69153 0
M  V30 2445 N 233.357 0.697078 -6.89284 0
M  V30 2446 N 235.15 0.738639 -5.57226 0
M  V30 2447 H 227.301 -0.746664 -1.98843 0
M  V30 2448 H 229.564 -0.273999 -0.90754 0
M  V30 2449 H 229.27 -0.435731 -3.4899 0
M  V30 2450 H 229.144 1.3139 -3.53577 0
M  V30 2451 H 231.531 1.47343 -2.55684 0
M  V30 2452 H 231.612 -0.29406 -2.54104 0
M  V30 2453 H 231.256 -0.310701 -5.06949 0
M  V30 2454 H 231.186 1.46939 -5.05684 0
M  V30 2455 H 233.677 0.660887 -3.72076 0
M  V30 2456 H 233.99 0.731426 -7.69331 0
M  V30 2457 H 232.335 0.66471 -6.91814 0
M  V30 2458 H 235.526 0.735545 -4.62285 0
M  V30 2459 H 235.699 0.767938 -6.43434 0
M  V30 2460 N 229.106 1.52395 0.401703 0
M  V30 2461 C 230.053 1.76268 1.48991 0
M  V30 2462 C 231.023 0.605386 1.54675 0
M  V30 2463 O 232.208 0.843742 1.7113 0
M  V30 2464 C 229.348 1.92592 2.86361 0
M  V30 2465 C 228.461 3.20259 2.89928 0
M  V30 2466 C 227.596 3.26972 4.18644 0
M  V30 2467 C 226.635 4.48812 4.16214 0
M  V30 2468 N 225.772 4.52877 5.36514 0
M  V30 2469 H 230.612 2.6914 1.27935 0
M  V30 2470 H 228.149 1.33355 0.620871 0
M  V30 2471 H 230.107 2.0004 3.66115 0
M  V30 2472 H 228.737 1.03093 3.05895 0
M  V30 2473 H 227.789 3.21945 2.02621 0
M  V30 2474 H 229.101 4.10056 2.83999 0
M  V30 2475 H 228.255 3.33533 5.06794 0
M  V30 2476 H 226.994 2.35126 4.27278 0
M  V30 2477 H 225.999 4.4239 3.26453 0
M  V30 2478 H 227.224 5.41961 4.09213 0
M  V30 2479 H 225.17 3.63917 5.45802 0
M  V30 2480 H 225.087 5.36529 5.32609 0
M  V30 2481 H 226.355 4.63676 6.26597 0
M  V30 2482 N 230.584 -0.659388 1.43143 0
M  V30 2483 C 231.532 -1.79374 1.4808 0
M  V30 2484 C 232.526 -1.65639 0.354988 0
M  V30 2485 O 233.732 -1.7206 0.528704 0
M  V30 2486 H 230.107 -0.591705 0.4641 0
M  V30 2487 H 232.078 -1.72329 2.43609 0
M  V30 2488 C 230.827 -3.17606 1.41499 0
M  V30 2489 H 230.15 -3.28809 2.27431 0
M  V30 2490 H 231.59 -3.96951 1.49015 0
M  V30 2491 C 230.049 -3.36642 0.131765 0
M  V30 2492 O 230.579 -3.93461 -0.809386 0
M  V30 2493 N 228.785 -2.90567 0.0439396 0
M  V30 2494 H 228.332 -2.44513 0.810619 0
M  V30 2495 H 228.29 -3.03681 -0.813969 0
M  V30 2496 N 232.062 -1.29571 -0.897171 0
M  V30 2497 C 233.025 -1.14913 -1.98312 0
M  V30 2498 C 234.025 -0.0838629 -1.60581 0
M  V30 2499 O 235.215 -0.331006 -1.71026 0
M  V30 2500 C 232.347 -0.757835 -3.3237 0
M  V30 2501 H 233.54 -2.11377 -2.12743 0
M  V30 2502 H 231.093 -1.12793 -1.08201 0
M  V30 2503 H 231.828 0.206837 -3.2364 0
M  V30 2504 H 231.613 -1.52755 -3.61121 0
M  V30 2505 H 233.103 -0.678408 -4.12053 0
M  V30 2506 N 233.54 1.10788 -1.12088 0
M  V30 2507 C 234.788 1.8231 -0.872205 0
M  V30 2508 C 235.109 1.85419 0.603709 0
M  V30 2509 O 234.379 1.32963 1.43867 0
M  V30 2510 H 232.959 0.675137 -0.319686 0
M  V30 2511 H 235.621 1.34068 -1.41463 0
M  V30 2512 H 234.717 2.85955 -1.25045 0
M  V30 2513 N 235.018 0.912232 1.28515 0
M  V30 2514 C 236.243 0.559774 1.99703 0
M  V30 2515 C 236.668 -0.851393 1.67729 0
M  V30 2516 O 236.026 -1.56875 0.908834 0
M  V30 2517 C 236.074 0.773874 3.52198 0
M  V30 2518 O 235.178 -0.167842 4.12058 0
M  V30 2519 H 234.519 0.21723 0.627461 0
M  V30 2520 H 237.049 1.22725 1.63706 0
M  V30 2521 H 237.059 0.683386 4.02236 0
M  V30 2522 H 235.734 1.80261 3.74805 0
M  V30 2523 H 234.311 -0.0287509 3.72889 0
M  V30 2524 N 236.496 -1.42363 0.676048 0
M  V30 2525 C 237.426 -2.33497 0.0124832 0
M  V30 2526 C 238.407 -1.50748 -0.787981 0
M  V30 2527 O 239.592 -1.79346 -0.744884 0
M  V30 2528 C 236.722 -3.34377 -0.938582 0
M  V30 2529 C 235.676 -4.27289 -0.246622 0
M  V30 2530 C 235.002 -5.18386 -1.31071 0
M  V30 2531 C 236.302 -5.14916 0.875125 0
M  V30 2532 H 237.996 -2.89233 0.773593 0
M  V30 2533 H 235.542 -1.39073 0.37346 0
M  V30 2534 H 237.495 -3.97044 -1.41188 0
M  V30 2535 H 236.219 -2.76947 -1.73113 0
M  V30 2536 H 234.878 -3.66018 0.206456 0
M  V30 2537 H 234.526 -4.57282 -2.09528 0
M  V30 2538 H 234.226 -5.81378 -0.852839 0
M  V30 2539 H 235.75 -5.83929 -1.78492 0
M  V30 2540 H 237.164 -5.71262 0.482983 0
M  V30 2541 H 235.561 -5.86747 1.25887 0
M  V30 2542 H 236.631 -4.53242 1.72335 0
M  V30 2543 N 237.974 -0.419461 -1.51915 0
M  V30 2544 C 238.904 0.391813 -2.30189 0
M  V30 2545 C 239.885 1.03699 -1.34836 0
M  V30 2546 O 241.07 1.04403 -1.63748 0
M  V30 2547 C 238.2 1.50312 -3.13087 0
M  V30 2548 C 237.154 0.9824 -4.16573 0
M  V30 2549 C 236.48 2.18809 -4.8788 0
M  V30 2550 C 237.78 0.0292356 -5.22292 0
M  V30 2551 H 239.474 -0.26135 -2.98257 0
M  V30 2552 H 237.02 -0.127134 -1.43438 0
M  V30 2553 H 238.973 2.07773 -3.66617 0
M  V30 2554 H 237.697 2.18431 -2.42807 0
M  V30 2555 H 236.356 0.430119 -3.64068 0
M  V30 2556 H 236.004 2.85507 -4.14119 0
M  V30 2557 H 235.704 1.84615 -5.57845 0
M  V30 2558 H 237.228 2.76858 -5.44226 0
M  V30 2559 H 238.642 0.512976 -5.71 0
M  V30 2560 H 237.039 -0.2244 -5.9968 0
M  V30 2561 H 238.109 -0.912931 -4.76228 0
M  V30 2562 N 239.452 1.56882 -0.150215 0
M  V30 2563 C 240.68 2.00593 0.506948 0
M  V30 2564 C 241.095 1.03033 1.58208 0
M  V30 2565 O 240.452 0.0278396 1.82479 0
M  V30 2566 C 240.503 3.44209 1.10465 0
M  V30 2567 O 240.224 4.3804 0.0724636 0
M  V30 2568 C 241.725 4.03214 1.84211 0
M  V30 2569 H 238.945 0.65795 0.13169 0
M  V30 2570 H 241.489 2.03018 -0.245743 0
M  V30 2571 H 239.644 3.42625 1.80795 0
M  V30 2572 H 240.058 5.22007 0.510793 0
M  V30 2573 H 241.532 5.0569 2.21318 0
M  V30 2574 H 242.009 3.44107 2.72923 0
M  V30 2575 H 242.615 4.08437 1.18572 0
M  V30 2576 N 240.93 -0.123565 1.57115 0
M  V30 2577 C 242.346 -0.476961 1.52306 0
M  V30 2578 C 242.546 -1.82109 0.86248 0
M  V30 2579 O 241.602 -2.48586 0.442884 0
M  V30 2580 C 242.915 -0.465661 2.97073 0
M  V30 2581 C 244.463 -0.549534 3.08138 0
M  V30 2582 C 244.938 -0.568669 4.54456 0
M  V30 2583 N 246.429 -0.630237 4.58892 0
M  V30 2584 C 247.164 -0.666415 5.69514 0
M  V30 2585 N 246.66 -0.660514 6.89644 0
M  V30 2586 N 248.453 -0.709077 5.5761 0
M  V30 2587 H 240.604 0.757198 1.98445 0
M  V30 2588 H 242.867 0.278808 0.906074 0
M  V30 2589 H 242.573 0.454232 3.48754 0
M  V30 2590 H 242.447 -1.29513 3.54269 0
M  V30 2591 H 244.834 -1.45985 2.56461 0
M  V30 2592 H 244.915 0.307532 2.53945 0
M  V30 2593 H 244.559 0.337581 5.06777 0
M  V30 2594 H 244.489 -1.44256 5.06456 0
M  V30 2595 H 246.98 -0.641146 3.72421 0
M  V30 2596 H 247.293 -0.690616 7.69708 0
M  V30 2597 H 245.638 -0.628012 6.92157 0
M  V30 2598 H 248.829 -0.711019 4.62668 0
M  V30 2599 H 249.002 -0.733804 6.43832 0
M  V30 2600 N 242.408 -1.52605 -0.393616 0
M  V30 2601 C 243.633 -1.71592 -1.16495 0
M  V30 2602 C 244.058 -0.43133 -1.83088 0
M  V30 2603 O 243.416 0.612523 -1.7064 0
M  V30 2604 C 243.464 -2.86318 -2.19213 0
M  V30 2605 O 242.568 -2.52969 -3.257 0
M  V30 2606 H 241.909 -0.570734 -0.33935 0
M  V30 2607 H 244.439 -1.99377 -0.459324 0
M  V30 2608 H 244.449 -3.1168 -2.63286 0
M  V30 2609 H 243.124 -3.79511 -1.7013 0
M  V30 2610 H 241.701 -2.38332 -2.86797 0
M  V30 2611 N 243.887 0.651787 -1.4349 0
M  V30 2612 C 244.817 1.77621 -1.51569 0
M  V30 2613 C 245.798 1.66022 -0.370253 0
M  V30 2614 O 246.983 1.85095 -0.587658 0
M  V30 2615 C 244.113 3.16056 -1.43966 0
M  V30 2616 C 243.067 3.4242 -2.56774 0
M  V30 2617 C 242.393 4.8067 -2.34223 0
M  V30 2618 C 243.693 3.37023 -3.99015 0
M  V30 2619 H 245.387 1.71117 -2.45681 0
M  V30 2620 H 242.933 0.821825 -1.18246 0
M  V30 2621 H 244.886 3.94472 -1.48221 0
M  V30 2622 H 243.61 3.23293 -0.463586 0
M  V30 2623 H 242.269 2.66375 -2.51873 0
M  V30 2624 H 241.917 4.84585 -1.34856 0
M  V30 2625 H 241.617 4.9927 -3.09844 0
M  V30 2626 H 243.141 5.61342 -2.40265 0
M  V30 2627 H 244.555 4.05374 -4.05395 0
M  V30 2628 H 242.952 3.67159 -4.74673 0
M  V30 2629 H 244.022 2.3518 -4.2405 0
M  V30 2630 N 245.365 1.30045 0.890287 0
M  V30 2631 C 246.328 1.15963 1.977 0
M  V30 2632 C 247.328 0.0923777 1.60534 0
M  V30 2633 O 248.518 0.340071 1.70848 0
M  V30 2634 C 245.65 0.775451 3.31963 0
M  V30 2635 H 246.843 2.12502 2.11619 0
M  V30 2636 H 244.396 1.13366 1.07601 0
M  V30 2637 H 245.131 -0.189671 3.23745 0
M  V30 2638 H 244.916 1.54668 3.60306 0
M  V30 2639 H 246.406 0.700251 4.11687 0
M  V30 2640 N 246.843 -1.10192 1.12674 0
M  V30 2641 C 247.753 -2.20172 0.810026 0
M  V30 2642 C 248.769 -1.72821 -0.202188 0
M  V30 2643 O 249.945 -2.01369 -0.0351691 0
M  V30 2644 C 247.01 -3.45631 0.272007 0
M  V30 2645 C 246.071 -4.07704 1.34447 0
M  V30 2646 C 245.304 -5.27175 0.832029 0
M  V30 2647 O 245.527 -5.69425 -0.333284 0
M  V30 2648 O 244.461 -5.80168 1.60277 0
M  V30 2649 H 248.287 -2.49701 1.72867 0
M  V30 2650 H 245.872 -1.18977 0.903597 0
M  V30 2651 H 247.754 -4.21394 -0.0230219 0
M  V30 2652 H 246.429 -3.17723 -0.619164 0
M  V30 2653 H 245.336 -3.33614 1.6927 0
M  V30 2654 H 246.669 -4.3982 2.2095 0
M  V30 2655 N 248.321 -0.919034 -1.28029 0
M  V30 2656 C 249.57 -0.550802 -1.94034 0
M  V30 2657 C 249.883 0.910877 -1.73096 0
M  V30 2658 O 251.089 1.3875 -2.33368 0
M  V30 2659 C 249.545 -0.934249 -3.47563 0
M  V30 2660 C 249.153 -2.41602 -3.7727 0
M  V30 2661 C 250.897 -0.636854 -4.19696 0
M  V30 2662 C 248.804 -2.73932 -5.24133 0
M  V30 2663 H 247.734 -0.202273 -0.726362 0
M  V30 2664 H 250.385 -1.11867 -1.45458 0
M  V30 2665 H 248.767 -0.295115 -3.94899 0
M  V30 2666 H 249.941 -3.10233 -3.40723 0
M  V30 2667 H 248.256 -2.68441 -3.18321 0
M  V30 2668 H 250.853 -0.855005 -5.2782 0
M  V30 2669 H 251.196 0.425575 -4.14119 0
M  V30 2670 H 251.729 -1.23469 -3.78154 0
M  V30 2671 H 248.468 -3.79049 -5.34792 0
M  V30 2672 H 247.988 -2.09942 -5.61858 0
M  V30 2673 H 249.667 -2.61215 -5.91925 0
M  V30 2674 N 249.799 1.42003 -0.683588 0
M  V30 2675 C 251.045 2.01712 -0.209825 0
M  V30 2676 C 251.378 1.53968 1.18353 0
M  V30 2677 O 250.653 0.745661 1.79639 0
M  V30 2678 C 250.936 3.59202 -0.254197 0
M  V30 2679 C 250.789 4.17102 -1.68363 0
M  V30 2680 C 252.108 4.38344 0.392709 0
M  V30 2681 H 249.227 0.732891 -0.0777189 0
M  V30 2682 H 251.869 1.68909 -0.87004 0
M  V30 2683 H 250.019 3.87278 0.307954 0
M  V30 2684 H 251.691 3.99946 -2.29871 0
M  V30 2685 H 249.934 3.72597 -2.22157 0
M  V30 2686 H 250.605 5.26249 -1.6663 0
M  V30 2687 H 253.081 4.16011 -0.0859162 0
M  V30 2688 H 251.957 5.47901 0.331063 0
M  V30 2689 H 252.218 4.16887 1.47164 0
M  V30 2690 N 251.277 0.427512 1.51691 0
M  V30 2691 C 252.224 -0.388867 2.275 0
M  V30 2692 C 253.194 -1.02532 1.30677 0
M  V30 2693 O 254.379 -1.0461 1.59566 0
M  V30 2694 C 251.519 -1.48954 3.11298 0
M  V30 2695 C 250.632 -0.872194 4.23104 0
M  V30 2696 C 249.767 -1.94709 4.94228 0
M  V30 2697 C 248.806 -1.30766 5.97969 0
M  V30 2698 N 247.943 -2.32349 6.62539 0
M  V30 2699 H 252.783 0.263997 2.96828 0
M  V30 2700 H 250.32 0.142033 1.46413 0
M  V30 2701 H 252.278 -2.13887 3.58201 0
M  V30 2702 H 250.908 -2.11217 2.44105 0
M  V30 2703 H 249.96 -0.111419 3.80237 0
M  V30 2704 H 251.272 -0.365264 4.97461 0
M  V30 2705 H 250.426 -2.67327 5.44629 0
M  V30 2706 H 249.165 -2.48773 4.1948 0
M  V30 2707 H 248.17 -0.566902 5.4687 0
M  V30 2708 H 249.395 -0.774483 6.74669 0
M  V30 2709 H 247.341 -2.85511 5.90609 0
M  V30 2710 H 247.258 -1.8652 7.3263 0
M  V30 2711 H 248.526 -3.04481 7.17574 0
M  V30 2712 N 252.755 -1.56801 0.158532 0
M  V30 2713 C 253.702 -2.17337 -0.776729 0
M  V30 2714 C 254.672 -1.1096 -1.23601 0
M  V30 2715 O 255.857 -1.39054 -1.30647 0
M  V30 2716 C 252.997 -2.80822 -2.00582 0
M  V30 2717 C 252.11 -4.01624 -1.59129 0
M  V30 2718 C 251.245 -4.53072 -2.77306 0
M  V30 2719 C 250.284 -5.66314 -2.32282 0
M  V30 2720 N 249.421 -6.12329 -3.43508 0
M  V30 2721 H 254.261 -2.96918 -0.253701 0
M  V30 2722 H 251.798 -1.46661 -0.113504 0
M  V30 2723 H 253.756 -3.15779 -2.72652 0
M  V30 2724 H 252.386 -2.03866 -2.50277 0
M  V30 2725 H 251.438 -3.72571 -0.767806 0
M  V30 2726 H 252.75 -4.83633 -1.2207 0
M  V30 2727 H 251.904 -4.90145 -3.57551 0
M  V30 2728 H 250.643 -3.70095 -3.17617 0
M  V30 2729 H 249.648 -5.28806 -1.5048 0
M  V30 2730 H 250.873 -6.51085 -1.93043 0
M  V30 2731 H 248.819 -5.32284 -3.83418 0
M  V30 2732 H 248.736 -6.89293 -3.105 0
M  V30 2733 H 250.004 -6.5405 -4.24075 0
M  V30 2734 N 254.233 0.115231 -1.57178 0
M  V30 2735 C 255.51 0.852873 -1.76027 0
M  V30 2736 C 255.89 1.97892 -0.73498 0
M  V30 2737 O 255.238 2.27232 0.24036 0
M  V30 2738 C 255.448 1.36608 -3.21153 0
M  V30 2739 C 256.796 1.81692 -3.83762 0
M  V30 2740 O 257.82 1.46278 -3.24779 0
M  V30 2741 O 256.679 2.47104 -4.87444 0
M  V30 2742 H 253.773 0.405296 -0.720877 0
M  V30 2743 H 256.319 0.0986785 -1.69413 0
M  V30 2744 H 255.091 0.558357 -3.87296 0
M  V30 2745 H 254.714 2.18287 -3.3232 0
M  V30 2746 N 255.711 1.52812 0.385517 0
M  V30 2747 C 256.988 1.5861 1.14465 0
M  V30 2748 C 257.368 0.381402 2.07626 0
M  V30 2749 O 256.716 -0.629999 2.19643 0
M  V30 2750 C 256.926 2.92664 1.90128 0
M  V30 2751 C 258.274 3.46526 2.45367 0
M  V30 2752 O 259.298 2.94562 2.0028 0
M  V30 2753 O 258.157 4.37323 3.27736 0
M  V30 2754 H 255.251 0.639855 0.523941 0
M  V30 2755 H 257.797 1.65149 0.390389 0
M  V30 2756 H 256.569 3.71788 1.22022 0
M  V30 2757 H 256.192 2.89527 2.72507 0
M  V30 2758 N 257.189 -0.644168 1.43834 0
M  V30 2759 C 258.436 -1.40395 1.4593 0
M  V30 2760 C 258.764 -1.94305 0.0869658 0
M  V30 2761 O 258.019 -1.73288 -0.909378 0
M  V30 2762 C 258.318 -2.59615 2.45631 0
M  V30 2763 C 257.984 -2.2407 3.91284 0
M  V30 2764 C 256.646 -2.14089 4.30952 0
M  V30 2765 C 258.998 -1.95775 4.83034 0
M  V30 2766 C 256.326 -1.73981 5.6031 0
M  V30 2767 C 258.678 -1.57163 6.12766 0
M  V30 2768 C 257.342 -1.45713 6.51402 0
M  V30 2769 H 256.612 -0.513741 0.533995 0
M  V30 2770 H 259.259 -0.731724 1.76969 0
M  V30 2771 H 257.564 -3.32011 2.08028 0
M  V30 2772 H 259.261 -3.17834 2.44504 0
M  V30 2773 H 255.851 -2.32753 3.59895 0
M  V30 2774 H 260.035 -2.02403 4.53152 0
M  V30 2775 H 255.291 -1.63709 5.89075 0
M  V30 2776 H 259.465 -1.34303 6.83327 0
M  V30 2777 H 257.092 -1.14406 7.51542 0
M  V30 2778 N 258.668 -1.30515 -0.883378 0
M  V30 2779 C 259.914 -1.19607 -1.63774 0
M  V30 2780 C 260.247 0.248314 -1.92606 0
M  V30 2781 O 259.522 1.17742 -1.54813 0
M  V30 2782 C 259.805 -2.02669 -2.97653 0
M  V30 2783 C 259.658 -3.55335 -2.75784 0
M  V30 2784 C 260.977 -1.86573 -3.98596 0
M  V30 2785 H 258.096 -0.435856 -0.594305 0
M  V30 2786 H 260.738 -1.60165 -1.02212 0
M  V30 2787 H 258.888 -1.68208 -3.50197 0
M  V30 2788 H 260.56 -3.99863 -2.30016 0
M  V30 2789 H 258.803 -3.79438 -2.1026 0
M  V30 2790 H 259.474 -4.08745 -3.70988 0
M  V30 2791 H 261.95 -2.16703 -3.55217 0
M  V30 2792 H 260.826 -2.47014 -4.90179 0
M  V30 2793 H 261.087 -0.825321 -4.34328 0
M  V30 2794 N 260.146 1.09593 -1.13257 0
M  V30 2795 C 261.076 2.18214 -0.830946 0
M  V30 2796 C 262.057 1.68812 0.208966 0
M  V30 2797 O 263.242 1.9408 0.0682666 0
M  V30 2798 C 260.372 3.46051 -0.294296 0
M  V30 2799 C 259.326 4.08778 -1.26826 0
M  V30 2800 C 258.652 5.31419 -0.591449 0
M  V30 2801 C 259.952 4.51476 -2.62615 0
M  V30 2802 H 261.646 2.43703 -1.73923 0
M  V30 2803 H 259.192 1.17128 -0.837675 0
M  V30 2804 H 261.145 4.2134 -0.0709606 0
M  V30 2805 H 259.869 3.20079 0.649366 0
M  V30 2806 H 258.528 3.35505 -1.47756 0
M  V30 2807 H 258.176 5.01727 0.357633 0
M  V30 2808 H 257.876 5.74341 -1.24123 0
M  V30 2809 H 259.4 6.09433 -0.377355 0
M  V30 2810 H 260.814 5.17999 -2.45663 0
M  V30 2811 H 259.211 5.05277 -3.23752 0
M  V30 2812 H 260.281 3.63962 -3.20406 0
M  V30 2813 N 261.624 0.925811 1.2754 0
M  V30 2814 C 262.901 0.483726 1.89524 0
M  V30 2815 C 263.281 -1.03809 1.83812 0
M  V30 2816 O 262.629 -1.89143 1.28207 0
M  V30 2817 C 262.839 1.02769 3.33526 0
M  V30 2818 C 264.187 1.08703 4.10449 0
M  V30 2819 O 265.211 0.977175 3.42534 0
M  V30 2820 O 264.07 1.25599 5.31871 0
M  V30 2821 H 261.164 0.15529 0.812289 0
M  V30 2822 H 263.71 1.01738 1.35822 0
M  V30 2823 H 262.482 2.07155 3.31967 0
M  V30 2824 H 262.105 0.475567 3.94746 0
M  V30 2825 N 263.102 -1.41638 0.69111 0
M  V30 2826 C 264.327 -2.06148 0.227583 0
M  V30 2827 C 264.752 -1.51652 -1.11281 0
M  V30 2828 O 264.11 -0.64164 -1.69566 0
M  V30 2829 C 264.158 -3.60095 0.190858 0
M  V30 2830 O 263.262 -4.03845 -0.835664 0
M  V30 2831 H 262.603 -0.654434 0.112306 0
M  V30 2832 H 265.133 -1.81484 0.944714 0
M  V30 2833 H 265.143 -4.07995 0.020207 0
M  V30 2834 H 263.818 -3.99129 1.16915 0
M  V30 2835 H 262.395 -3.67458 -0.63473 0
M  V30 2836 N 264.58 -0.43555 -1.51462 0
M  V30 2837 C 265.49 0.383001 -2.31453 0
M  V30 2838 C 266.506 1.02931 -1.4029 0
M  V30 2839 O 267.682 1.02507 -1.73362 0
M  V30 2840 C 264.747 1.47043 -3.13973 0
M  V30 2841 C 263.808 0.844433 -4.20913 0
M  V30 2842 C 263.041 1.88004 -4.9949 0
M  V30 2843 O 263.264 3.10199 -4.78678 0
M  V30 2844 O 262.198 1.47157 -5.83634 0
M  V30 2845 H 266.024 -0.269964 -3.02498 0
M  V30 2846 H 263.609 -0.19813 -1.4808 0
M  V30 2847 H 265.491 2.10113 -3.65281 0
M  V30 2848 H 264.166 2.10751 -2.45695 0
M  V30 2849 H 263.073 0.175729 -3.73687 0
M  V30 2850 H 264.406 0.250869 -4.9156 0
M  V30 2851 N 266.058 1.56714 -0.166846 0
M  V30 2852 C 267.288 2.00828 0.48494 0
M  V30 2853 C 267.696 1.04612 1.57648 0
M  V30 2854 O 267.039 0.0383201 1.8366 0
M  V30 2855 C 267.101 3.4137 1.12723 0
M  V30 2856 C 266.765 4.56654 0.177886 0
M  V30 2857 C 267.762 5.16402 -0.60207 0
M  V30 2858 C 265.447 5.02244 0.0750139 0
M  V30 2859 C 267.441 6.20167 -1.47215 0
M  V30 2860 C 265.128 6.05859 -0.798649 0
M  V30 2861 C 266.126 6.64691 -1.57082 0
M  V30 2862 O 265.814 7.66297 -2.42989 0
M  V30 2863 H 265.546 0.663587 0.128953 0
M  V30 2864 H 268.1 2.03692 -0.264365 0
M  V30 2865 H 266.33 3.35406 1.92457 0
M  V30 2866 H 268.019 3.69466 1.68076 0
M  V30 2867 H 268.785 4.82065 -0.53274 0
M  V30 2868 H 264.664 4.56167 0.665812 0
M  V30 2869 H 268.208 6.66016 -2.07531 0
M  V30 2870 H 264.105 6.39621 -0.869199 0
M  V30 2871 H 264.873 7.83601 -2.36455 0
M  V30 2872 N 267.536 -0.106894 1.57237 0
M  V30 2873 C 268.466 -1.13148 2.04254 0
M  V30 2874 C 269.447 -1.42476 0.929224 0
M  V30 2875 O 270.632 -1.52709 1.19973 0
M  V30 2876 C 267.762 -2.4545 2.45706 0
M  V30 2877 C 266.716 -2.30558 3.60592 0
M  V30 2878 C 266.042 -3.67931 3.87983 0
M  V30 2879 C 267.342 -1.75597 4.91897 0
M  V30 2880 H 269.036 -0.740374 2.90101 0
M  V30 2881 H 266.582 -0.354696 1.39563 0
M  V30 2882 H 268.535 -3.17389 2.77205 0
M  V30 2883 H 267.259 -2.86475 1.56843 0
M  V30 2884 H 265.918 -1.61067 3.29322 0
M  V30 2885 H 265.566 -4.06462 2.96306 0
M  V30 2886 H 265.266 -3.58817 4.65322 0
M  V30 2887 H 266.79 -4.41356 4.21945 0
M  V30 2888 H 268.204 -2.37364 5.21854 0
M  V30 2889 H 266.601 -1.77272 5.73319 0
M  V30 2890 H 267.671 -0.714451 4.79608 0
M  V30 2891 N 269.014 -1.53014 -0.377408 0
M  V30 2892 C 270.26 -1.68872 -1.12294 0
M  V30 2893 C 270.593 -0.433224 -1.89306 0
M  V30 2894 O 269.868 0.569258 -1.85983 0
M  V30 2895 C 270.151 -2.93115 -2.09179 0
M  V30 2896 C 270.004 -4.28794 -1.35853 0
M  V30 2897 C 271.323 -3.12928 -3.09458 0
M  V30 2898 H 268.442 -0.614518 -0.406862 0
M  V30 2899 H 271.084 -1.85633 -0.40503 0
M  V30 2900 H 269.234 -2.78956 -2.70399 0
M  V30 2901 H 270.906 -4.54742 -0.775082 0
M  V30 2902 H 269.149 -4.28744 -0.660364 0
M  V30 2903 H 269.82 -5.11837 -2.06706 0
M  V30 2904 H 272.296 -3.26194 -2.58334 0
M  V30 2905 H 271.172 -4.01316 -3.74482 0
M  V30 2906 H 271.433 -2.27669 -3.78971 0
M  V30 2907 N 270.492 0.636531 -1.44174 0
M  V30 2908 C 271.72 1.42353 -1.50144 0
M  V30 2909 C 272.135 1.88389 -0.124575 0
M  V30 2910 O 271.492 1.6051 0.868489 0
M  V30 2911 C 271.543 2.64744 -2.46156 0
M  V30 2912 O 271.264 2.20629 -3.7849 0
M  V30 2913 C 272.765 3.57929 -2.61537 0
M  V30 2914 H 269.985 0.436752 -0.5094 0
M  V30 2915 H 272.529 0.778933 -1.89084 0
M  V30 2916 H 270.684 3.25307 -2.10366 0
M  V30 2917 H 271.098 2.99938 -4.30276 0
M  V30 2918 H 272.572 4.40428 -3.32757 0
M  V30 2919 H 273.049 4.06382 -1.66585 0
M  V30 2920 H 273.655 3.03238 -2.98206 0
M  V30 2921 N 271.97 1.30982 0.876444 0
M  V30 2922 C 272.9 1.20668 1.99903 0
M  V30 2923 C 273.881 0.095354 1.69833 0
M  V30 2924 O 275.066 0.27885 1.92188 0
M  V30 2925 C 272.196 0.90655 3.3526 0
M  V30 2926 C 271.15 1.97675 3.79617 0
M  V30 2927 C 270.476 1.52943 5.1236 0
M  V30 2928 C 271.776 3.389 3.97422 0
M  V30 2929 H 273.47 2.14586 2.0879 0
M  V30 2930 H 271.016 1.03308 1.00317 0
M  V30 2931 H 272.969 0.821025 4.13324 0
M  V30 2932 H 271.693 -0.0682969 3.26529 0
M  V30 2933 H 270.352 2.05205 3.03787 0
M  V30 2934 H 270 0.54262 5.00065 0
M  V30 2935 H 269.7 2.24532 5.43009 0
M  V30 2936 H 271.224 1.45786 5.92941 0
M  V30 2937 H 272.638 3.34081 4.659 0
M  V30 2938 H 271.035 4.0865 4.3946 0
M  V30 2939 H 272.105 3.80163 3.01006 0
M  V30 2940 N 273.449 -1.08991 1.13837 0
M  V30 2941 C 274.379 -2.17771 0.842507 0
M  V30 2942 C 275.36 -1.6892 -0.20001 0
M  V30 2943 O 276.545 -1.94113 -0.0579731 0
M  V30 2944 C 273.675 -3.4589 0.312644 0
M  V30 2945 C 272.629 -4.08099 1.28992 0
M  V30 2946 C 271.955 -5.31098 0.619623 0
M  V30 2947 C 273.255 -4.50077 2.65005 0
M  V30 2948 H 274.949 -2.42777 1.75213 0
M  V30 2949 H 272.495 -1.16682 0.843875 0
M  V30 2950 H 274.448 -4.21297 0.0933043 0
M  V30 2951 H 273.172 -3.20419 -0.632382 0
M  V30 2952 H 271.831 -3.34717 1.49533 0
M  V30 2953 H 271.479 -5.0191 -0.33102 0
M  V30 2954 H 271.179 -5.73674 1.27167 0
M  V30 2955 H 272.703 -6.09224 0.409669 0
M  V30 2956 H 274.117 -5.16688 2.48407 0
M  V30 2957 H 272.514 -5.03553 3.26427 0
M  V30 2958 H 273.584 -3.62257 3.22332 0
M  V30 2959 N 274.927 -0.932562 -1.27047 0
M  V30 2960 C 276.173 -0.576412 -1.94436 0
M  V30 2961 C 276.506 0.880891 -1.73072 0
M  V30 2962 O 275.781 1.62905 -1.06264 0
M  V30 2963 C 276.064 -0.909031 -3.48437 0
M  V30 2964 C 275.917 -2.42044 -3.79123 0
M  V30 2965 C 277.236 -0.418341 -4.38107 0
M  V30 2966 H 274.355 -0.210888 -0.706184 0
M  V30 2967 H 276.997 -1.16522 -1.50075 0
M  V30 2968 H 275.147 -0.407947 -3.86352 0
M  V30 2969 H 276.819 -2.99359 -3.50973 0
M  V30 2970 H 275.062 -2.86758 -3.25503 0
M  V30 2971 H 275.733 -2.6037 -4.86736 0
M  V30 2972 H 278.209 -0.847856 -4.0737 0
M  V30 2973 H 277.085 -0.679981 -5.44672 0
M  V30 2974 H 277.346 0.681642 -4.36814 0
M  V30 2975 N 276.405 1.4127 -0.698611 0
M  V30 2976 C 277.651 2.01478 -0.231207 0
M  V30 2977 C 277.984 1.55215 1.16713 0
M  V30 2978 O 277.259 0.764672 1.78838 0
M  V30 2979 C 277.542 3.58912 -0.292281 0
M  V30 2980 C 277.395 4.15293 -1.72778 0
M  V30 2981 C 278.714 4.38736 0.346194 0
M  V30 2982 H 275.833 0.732025 -0.0854878 0
M  V30 2983 H 278.475 1.67977 -0.887906 0
M  V30 2984 H 276.625 3.87582 0.26686 0
M  V30 2985 H 278.297 3.97486 -2.341 0
M  V30 2986 H 276.54 3.7022 -2.26096 0
M  V30 2987 H 277.211 5.24452 -1.72202 0
M  V30 2988 H 279.687 4.15897 -0.130035 0
M  V30 2989 H 278.563 5.48221 0.272932 0
M  V30 2990 H 278.824 4.18425 1.42734 0
M  V30 2991 N 277.883 0.443576 1.51229 0
M  V30 2992 C 279.129 -0.120975 2.02439 0
M  V30 2993 C 279.462 -1.41815 1.32674 0
M  V30 2994 O 278.737 -1.89373 0.443622 0
M  V30 2995 C 279.02 -0.333291 3.58554 0
M  V30 2996 C 278.873 0.982968 4.38928 0
M  V30 2997 C 280.192 -1.10028 4.26124 0
M  V30 2998 H 277.311 -0.0424923 0.735774 0
M  V30 2999 H 279.953 0.583794 1.80809 0
M  V30 3000 H 278.103 -0.933614 3.77115 0
M  V30 3001 H 279.775 1.61775 4.32003 0
M  V30 3002 H 278.018 1.58611 4.03763 0
M  V30 3003 H 278.689 0.788379 5.46341 0
M  V30 3004 H 281.165 -0.591711 4.11871 0
M  V30 3005 H 280.041 -1.21761 5.35225 0
M  V30 3006 H 280.302 -2.12996 3.87408 0
M  V30 3007 N 279.361 -1.56624 0.175154 0
M  V30 3008 C 280.772 -1.83561 -0.340916 0
M  V30 3009 C 281.123 -1.09511 -1.62794 0
M  V30 3010 O 280.248 -0.349389 -2.13561 0
M  V30 3011 C 280.843 -3.32979 -0.625313 0
M  V30 3012 C 279.402 -3.60399 -1.08581 0
M  V30 3013 C 278.549 -2.77024 -0.123722 0
M  V30 3014 H 281.5 -1.53593 0.399344 0
M  V30 3015 H 281.521 -3.50666 -1.47694 0
M  V30 3016 H 281.033 -3.86847 0.311575 0
M  V30 3017 H 279.134 -3.11945 -2.03767 0
M  V30 3018 H 279.247 -4.68711 -0.992317 0
M  V30 3019 H 277.611 -2.46993 -0.621821 0
M  V30 3020 H 278.394 -3.33674 0.807256 0
M  V30 3021 N 280.839 0.0985539 -1.57292 0
M  V30 3022 C 281.786 1.11981 -2.01814 0
M  V30 3023 C 282.756 1.39999 -0.89384 0
M  V30 3024 O 283.941 1.5152 -1.15958 0
M  V30 3025 C 281.081 2.43577 -2.44467 0
M  V30 3026 C 280.194 2.2232 -3.70402 0
M  V30 3027 C 279.329 3.4729 -4.01949 0
M  V30 3028 C 278.368 3.2128 -5.21005 0
M  V30 3029 N 277.505 4.38507 -5.48321 0
M  V30 3030 H 282.345 0.733149 -2.88841 0
M  V30 3031 H 279.882 0.350482 -1.42864 0
M  V30 3032 H 281.84 3.20373 -2.6724 0
M  V30 3033 H 280.47 2.80097 -1.60455 0
M  V30 3034 H 279.522 1.36343 -3.55126 0
M  V30 3035 H 280.834 1.99089 -4.57345 0
M  V30 3036 H 279.988 4.32495 -4.25479 0
M  V30 3037 H 278.727 3.73572 -3.13521 0
M  V30 3038 H 277.732 2.34468 -4.97298 0
M  V30 3039 H 278.957 2.96348 -6.11028 0
M  V30 3040 H 276.903 4.64871 -4.62851 0
M  V30 3041 H 276.82 4.18455 -6.29628 0
M  V30 3042 H 278.088 5.24787 -5.76385 0
M  V30 3043 N 282.317 1.53212 0.369288 0
M  V30 3044 C 283.247 1.82365 1.45826 0
M  V30 3045 C 284.228 0.676907 1.56051 0
M  V30 3046 O 285.413 0.926401 1.70679 0
M  V30 3047 C 282.543 2.01023 2.83208 0
M  V30 3048 C 281.497 3.1678 2.8781 0
M  V30 3049 C 280.823 3.20724 4.27832 0
M  V30 3050 C 282.123 4.55447 2.55667 0
M  V30 3051 H 283.817 2.73559 1.21678 0
M  V30 3052 H 281.363 1.3163 0.583911 0
M  V30 3053 H 283.316 2.20001 3.59413 0
M  V30 3054 H 282.04 1.06536 3.08736 0
M  V30 3055 H 280.699 2.97616 2.14056 0
M  V30 3056 H 280.347 2.23882 4.50429 0
M  V30 3057 H 280.047 3.98496 4.31827 0
M  V30 3058 H 281.571 3.41881 5.05915 0
M  V30 3059 H 282.985 4.74611 3.21586 0
M  V30 3060 H 281.382 5.35432 2.70984 0
M  V30 3061 H 282.452 4.60812 1.5093 0
M  V30 3062 N 283.795 -0.628877 1.44509 0
M  V30 3063 C 284.743 -1.76193 1.51852 0
M  V30 3064 C 285.737 -1.64849 0.390042 0
M  V30 3065 O 286.943 -1.709 0.565082 0
M  V30 3066 H 283.318 -0.581728 0.476547 0
M  V30 3067 H 285.289 -1.67123 2.47209 0
M  V30 3068 C 284.038 -3.14533 1.48204 0
M  V30 3069 H 283.361 -3.23911 2.34354 0
M  V30 3070 H 284.801 -3.93701 1.57402 0
M  V30 3071 C 283.26 -3.36287 0.203142 0
M  V30 3072 O 283.79 -3.9509 -0.725745 0
M  V30 3073 N 281.996 -2.90408 0.105563 0
M  V30 3074 H 281.543 -2.42739 0.862301 0
M  V30 3075 H 281.501 -3.05339 -0.749371 0
M  V30 3076 N 285.273 -1.31445 -0.869486 0
M  V30 3077 C 286.223 -1.15731 -1.96444 0
M  V30 3078 C 287.207 -0.0681855 -1.60755 0
M  V30 3079 O 288.399 -0.293154 -1.74555 0
M  V30 3080 C 285.528 -0.867255 -3.32165 0
M  V30 3081 C 284.614 -1.99738 -3.74119 0
M  V30 3082 N 285.005 -3.24447 -3.88031 0
M  V30 3083 C 283.303 -1.89723 -4.03635 0
M  V30 3084 C 284.004 -3.98374 -4.23879 0
M  V30 3085 N 282.98 -3.26547 -4.3459 0
M  V30 3086 H 286.782 -2.10296 -2.05312 0
M  V30 3087 H 284.296 -1.23009 -1.06031 0
M  V30 3088 H 286.293 -0.735668 -4.10358 0
M  V30 3089 H 284.953 0.0701614 -3.24624 0
M  V30 3090 H 285.964 -3.59557 -3.72746 0
M  V30 3091 H 282.641 -1.03449 -4.04481 0
M  V30 3092 H 284.031 -5.05844 -4.42235 0
M  V30 3093 N 286.751 1.08385 -1.14413 0
M  V30 3094 C 287.699 2.17406 -0.826888 0
M  V30 3095 C 288.693 1.6827 0.195312 0
M  V30 3096 O 289.899 1.79927 0.0513892 0
M  V30 3097 H 286.274 0.70934 -0.249681 0
M  V30 3098 H 288.245 2.41388 -1.75426 0
M  V30 3099 C 286.994 3.46215 -0.320979 0
M  V30 3100 H 286.317 3.84401 -1.0989 0
M  V30 3101 H 287.757 4.23777 -0.137549 0
M  V30 3102 C 286.216 3.23067 0.955472 0
M  V30 3103 O 286.746 3.4668 2.02918 0
M  V30 3104 N 284.952 2.7661 0.890798 0
M  V30 3105 H 284.499 2.57594 0.0168815 0
M  V30 3106 H 284.457 2.61501 1.74542 0
M  V30 3107 N 288.23 0.939286 1.26551 0
M  V30 3108 C 289.507 0.5038 1.89001 0
M  V30 3109 C 289.887 -1.01854 1.84903 0
M  V30 3110 O 289.235 -1.87773 1.30206 0
M  V30 3111 C 289.445 1.063 3.32417 0
M  V30 3112 C 290.793 1.13051 4.09273 0
M  V30 3113 O 291.817 1.01345 3.41479 0
M  V30 3114 O 290.676 1.31233 5.30509 0
M  V30 3115 H 287.77 0.163897 0.810597 0
M  V30 3116 H 290.316 1.03173 1.34735 0
M  V30 3117 H 289.088 2.10665 3.29752 0
M  V30 3118 H 288.711 0.517408 3.94219 0
M  V30 3119 N 289.708 -1.40897 0.706093 0
M  V30 3120 C 290.954 -2.01849 0.250681 0
M  V30 3121 C 291.309 -1.5496 -1.14041 0
M  V30 3122 O 290.602 -0.755566 -1.76073 0
M  V30 3123 C 290.796 -3.5646 0.259099 0
M  V30 3124 C 290.625 -4.18357 1.64947 0
M  V30 3125 C 289.395 -4.522 2.25485 0
M  V30 3126 C 291.593 -4.43856 2.598 0
M  V30 3127 N 289.575 -4.9944 3.56977 0
M  V30 3128 C 290.946 -4.92986 3.75985 0
M  V30 3129 C 293.001 -4.25882 2.57933 0
M  V30 3130 C 291.704 -5.2603 4.90597 0
M  V30 3131 C 293.73 -4.6002 3.71665 0
M  V30 3132 C 293.092 -5.09331 4.86581 0
M  V30 3133 H 289.191 -0.769843 0.137353 0
M  V30 3134 H 291.775 -1.71278 0.925845 0
M  V30 3135 H 289.946 -3.86481 -0.385592 0
M  V30 3136 H 291.678 -4.04144 -0.21213 0
M  V30 3137 H 288.433 -4.3901 1.77671 0
M  V30 3138 H 288.857 -5.27454 4.24407 0
M  V30 3139 H 293.499 -3.86986 1.70298 0
M  V30 3140 H 291.217 -5.63843 5.78884 0
M  V30 3141 H 294.803 -4.47762 3.71484 0
M  V30 3142 H 293.683 -5.35251 5.73129 0
M  V30 3143 N 291.186 -0.45159 -1.50991 0
M  V30 3144 C 292.435 0.111653 -2.01391 0
M  V30 3145 C 292.748 1.42529 -1.33959 0
M  V30 3146 O 293.954 2.07232 -1.75405 0
M  V30 3147 C 292.41 0.249514 -3.59034 0
M  V30 3148 C 292.018 -1.05453 -4.35412 0
M  V30 3149 C 293.762 0.765762 -4.17536 0
M  V30 3150 C 291.669 -0.881529 -5.84793 0
M  V30 3151 H 290.599 0.0455022 -0.752626 0
M  V30 3152 H 293.25 -0.583524 -1.73975 0
M  V30 3153 H 291.632 1.00803 -3.82955 0
M  V30 3154 H 292.806 -1.82248 -4.23229 0
M  V30 3155 H 291.121 -1.50039 -3.88429 0
M  V30 3156 H 293.718 0.911913 -5.26866 0
M  V30 3157 H 294.061 1.75201 -3.77638 0
M  V30 3158 H 294.594 0.0651744 -3.97747 0
M  V30 3159 H 291.333 -1.84057 -6.29129 0
M  V30 3160 H 290.853 -0.153625 -5.99603 0
M  V30 3161 H 292.532 -0.540363 -6.4474 0
M  V30 3162 N 292.664 1.56529 -0.183458 0
M  V30 3163 C 293.611 2.18546 0.742055 0
M  V30 3164 C 294.581 1.12912 1.2182 0
M  V30 3165 O 295.766 1.41115 1.28418 0
M  V30 3166 C 292.906 2.83977 1.96089 0
M  V30 3167 C 292.019 4.04105 1.52719 0
M  V30 3168 C 291.154 4.57427 2.70063 0
M  V30 3169 C 290.193 5.69938 2.23243 0
M  V30 3170 N 289.33 6.17717 3.33722 0
M  V30 3171 H 294.17 2.97284 0.206432 0
M  V30 3172 H 291.707 1.46823 0.0901571 0
M  V30 3173 H 293.665 3.20077 2.67594 0
M  V30 3174 H 292.295 2.07822 2.47002 0
M  V30 3175 H 291.347 3.73745 0.708436 0
M  V30 3176 H 292.659 4.85513 1.1436 0
M  V30 3177 H 291.813 4.95772 3.49708 0
M  V30 3178 H 290.552 3.75101 3.11689 0
M  V30 3179 H 289.557 5.31133 1.42048 0
M  V30 3180 H 290.782 6.54073 1.82661 0
M  V30 3181 H 288.728 5.38317 3.74902 0
M  V30 3182 H 288.645 6.94146 2.99495 0
M  V30 3183 H 289.913 6.60713 4.13616 0
M  V30 3184 N 294.142 -0.090211 1.57342 0
M  V30 3185 C 295.074 -1.13541 1.99101 0
M  V30 3186 C 296.087 -1.3604 0.894258 0
M  V30 3187 O 297.276 -1.34606 1.17233 0
M  V30 3188 C 294.376 -2.49001 2.29895 0
M  V30 3189 C 293.549 -2.46712 3.61182 0
M  V30 3190 C 292.608 -3.64136 3.79857 0
M  V30 3191 O 291.634 -3.46405 4.51655 0
M  V30 3192 N 292.836 -4.83802 3.20806 0
M  V30 3193 H 295.601 -0.779942 2.89373 0
M  V30 3194 H 293.162 -0.279125 1.59476 0
M  V30 3195 H 295.154 -3.26166 2.39578 0
M  V30 3196 H 293.724 -2.76619 1.45605 0
M  V30 3197 H 292.944 -1.55058 3.62423 0
M  V30 3198 H 294.232 -2.42265 4.4742 0
M  V30 3199 H 293.63 -5.01112 2.62494 0
M  V30 3200 H 292.187 -5.58543 3.35966 0
M  V30 3201 N 295.62 -1.53406 -0.361157 0
M  V30 3202 C 296.85 -1.73465 -1.1222 0
M  V30 3203 C 297.258 -0.465486 -1.83384 0
M  V30 3204 O 296.601 0.571611 -1.7458 0
M  V30 3205 C 296.663 -2.84834 -2.19339 0
M  V30 3206 C 296.327 -4.25038 -1.67903 0
M  V30 3207 C 297.324 -5.07231 -1.14074 0
M  V30 3208 C 295.009 -4.71464 -1.73282 0
M  V30 3209 C 297.003 -6.33942 -0.663068 0
M  V30 3210 C 294.69 -5.98153 -1.25127 0
M  V30 3211 C 295.688 -6.79223 -0.717296 0
M  V30 3212 O 295.376 -8.03533 -0.242865 0
M  V30 3213 H 295.108 -0.583526 -0.341283 0
M  V30 3214 H 297.662 -2.00964 -0.424591 0
M  V30 3215 H 295.892 -2.5282 -2.92607 0
M  V30 3216 H 297.581 -2.9303 -2.80871 0
M  V30 3217 H 298.347 -4.72534 -1.09254 0
M  V30 3218 H 294.226 -4.08432 -2.13786 0
M  V30 3219 H 297.77 -6.97167 -0.245612 0
M  V30 3220 H 293.667 -6.32347 -1.29642 0
M  V30 3221 H 294.435 -8.177 -0.361786 0
M  V30 3222 N 297.098 0.621204 -1.44841 0
M  V30 3223 C 298.008 1.7612 -1.5498 0
M  V30 3224 C 299.024 1.68477 -0.434927 0
M  V30 3225 O 300.2 1.89076 -0.693693 0
M  V30 3226 C 297.265 3.1254 -1.50065 0
M  V30 3227 C 296.326 3.31741 -2.72482 0
M  V30 3228 C 295.559 4.61653 -2.67792 0
M  V30 3229 O 295.782 5.431 -1.74352 0
M  V30 3230 O 294.716 4.83271 -3.58794 0
M  V30 3231 H 298.542 1.70518 -2.51311 0
M  V30 3232 H 296.127 0.783643 -1.27198 0
M  V30 3233 H 298.009 3.93844 -1.49882 0
M  V30 3234 H 296.684 3.18663 -0.568806 0
M  V30 3235 H 295.591 2.50077 -2.7823 0
M  V30 3236 H 296.924 3.30486 -3.64746 0
M  V30 3237 N 298.576 1.31904 0.862503 0
M  V30 3238 C 299.804 1.24998 1.64873 0
M  V30 3239 C 300.219 -0.183425 1.87907 0
M  V30 3240 O 299.576 -1.11794 1.44251 0
M  V30 3241 C 299.627 1.99829 3.01248 0
M  V30 3242 O 299.348 3.37575 2.79239 0
M  V30 3243 C 300.849 1.99852 3.95694 0
M  V30 3244 H 298.069 0.431599 0.513773 0
M  V30 3245 H 300.613 1.73901 1.07604 0
M  V30 3246 H 298.768 1.54668 3.55185 0
M  V30 3247 H 299.182 3.75776 3.65914 0
M  V30 3248 H 300.656 2.56709 4.88676 0
M  V30 3249 H 301.133 0.982852 4.28062 0
M  V30 3250 H 301.739 2.44926 3.47694 0
M  V30 3251 N 300.054 -1.07777 1.14986 0
M  V30 3252 C 300.984 -2.16865 0.865557 0
M  V30 3253 C 301.965 -1.69123 -0.182083 0
M  V30 3254 O 303.15 -1.94164 -0.0373815 0
M  V30 3255 C 300.28 -3.45539 0.349313 0
M  V30 3256 C 299.234 -4.06708 1.33313 0
M  V30 3257 C 298.56 -5.30411 0.675918 0
M  V30 3258 C 299.86 -4.47241 2.69764 0
M  V30 3259 H 301.554 -2.40905 1.77778 0
M  V30 3260 H 299.1 -1.15781 0.856203 0
M  V30 3261 H 301.053 -4.21174 0.137983 0
M  V30 3262 H 299.777 -3.21072 -0.598362 0
M  V30 3263 H 298.436 -3.33112 1.53075 0
M  V30 3264 H 298.084 -5.02232 -0.277767 0
M  V30 3265 H 297.784 -5.72293 1.33244 0
M  V30 3266 H 299.308 -6.08755 0.474262 0
M  V30 3267 H 300.722 -5.14025 2.53873 0
M  V30 3268 H 299.119 -5.00062 3.3175 0
M  V30 3269 H 300.189 -3.58818 3.26156 0
M  V30 3270 N 301.532 -0.945985 -1.26051 0
M  V30 3271 C 302.495 -0.463897 -2.24456 0
M  V30 3272 C 303.495 0.427655 -1.55009 0
M  V30 3273 O 304.685 0.226157 -1.72726 0
M  V30 3274 C 301.817 0.330812 -3.39291 0
M  V30 3275 H 303.01 -1.33357 -2.68619 0
M  V30 3276 H 300.563 -0.728416 -1.38289 0
M  V30 3277 H 301.298 1.21852 -3.00537 0
M  V30 3278 H 301.083 -0.308679 -3.90883 0
M  V30 3279 H 302.573 0.657865 -4.12386 0
M  V30 3280 N 303.011 1.40521 -0.713556 0
M  V30 3281 C 303.921 2.34522 -0.0606667 0
M  V30 3282 C 304.937 1.57193 0.74607 0
M  V30 3283 O 306.113 1.89591 0.679493 0
M  V30 3284 C 303.178 3.36081 0.851491 0
M  V30 3285 C 302.239 4.29286 0.0349339 0
M  V30 3286 C 301.472 5.25994 0.903649 0
M  V30 3287 O 301.695 5.28616 2.14292 0
M  V30 3288 O 300.629 6.00918 0.343723 0
M  V30 3289 H 304.455 2.91968 -0.835972 0
M  V30 3290 H 302.04 1.41681 -0.47402 0
M  V30 3291 H 303.922 3.98369 1.37404 0
M  V30 3292 H 302.597 2.81052 1.60598 0
M  V30 3293 H 301.504 3.70289 -0.532633 0
M  V30 3294 H 302.837 4.87462 -0.681287 0
M  V30 3295 N 304.489 0.459591 1.5075 0
M  V30 3296 C 305.422 -0.386257 2.24907 0
M  V30 3297 C 306.4 -1.006 1.27744 0
M  V30 3298 O 307.584 -1.04416 1.56938 0
M  V30 3299 C 304.711 -1.54021 3.01654 0
M  V30 3300 C 303.757 -1.03898 4.13651 0
M  V30 3301 S 304.59 0.0370501 5.35487 0
M  V30 3302 C 305.746 -1.12105 6.15779 0
M  V30 3303 H 305.979 0.243272 2.96303 0
M  V30 3304 H 303.512 0.244339 1.52454 0
M  V30 3305 H 305.47 -2.20163 3.46466 0
M  V30 3306 H 304.131 -2.14121 2.29806 0
M  V30 3307 H 303.324 -1.90254 4.66711 0
M  V30 3308 H 302.926 -0.45545 3.71216 0
M  V30 3309 H 305.218 -2.03501 6.46215 0
M  V30 3310 H 306.161 -0.62995 7.05292 0
M  V30 3311 H 306.569 -1.36967 5.47631 0
M  V30 3312 N 305.967 -1.56429 0.191757 0
M  V30 3313 C 307.213 -1.97777 -0.448554 0
M  V30 3314 C 307.546 -1.07847 -1.61501 0
M  V30 3315 O 306.821 -0.129774 -1.94067 0
M  V30 3316 C 307.104 -3.48362 -0.911906 0
M  V30 3317 C 306.957 -4.4907 0.256136 0
M  V30 3318 C 308.276 -4.02561 -1.77857 0
M  V30 3319 H 305.395 -0.719071 -0.161572 0
M  V30 3320 H 308.037 -1.87896 0.282007 0
M  V30 3321 H 306.187 -3.56914 -1.53442 0
M  V30 3322 H 307.859 -4.5256 0.893733 0
M  V30 3323 H 306.102 -4.24181 0.908436 0
M  V30 3324 H 306.773 -5.51889 -0.11053 0
M  V30 3325 H 309.249 -3.96767 -1.25359 0
M  V30 3326 H 308.125 -5.08301 -2.07174 0
M  V30 3327 H 308.386 -3.47616 -2.73158 0
M  V30 3328 N 307.445 0.0818655 -1.57387 0
M  V30 3329 C 308.691 0.784074 -1.8703 0
M  V30 3330 C 309.024 1.77729 -0.782689 0
M  V30 3331 O 308.299 1.93384 0.208051 0
M  V30 3332 C 308.582 1.50105 -3.27323 0
M  V30 3333 C 308.435 0.524925 -4.46727 0
M  V30 3334 C 309.754 2.44843 -3.65705 0
M  V30 3335 H 306.873 0.283582 -0.680257 0
M  V30 3336 H 309.515 0.0474352 -1.89941 0
M  V30 3337 H 307.665 2.12897 -3.24972 0
M  V30 3338 H 309.337 -0.0970111 -4.61198 0
M  V30 3339 H 307.58 -0.160606 -4.33503 0
M  V30 3340 H 308.251 1.064 -5.41648 0
M  V30 3341 H 310.727 1.92135 -3.69085 0
M  V30 3342 H 309.603 2.92018 -4.64776 0
M  V30 3343 H 309.864 3.29197 -2.95096 0
M  V30 3344 N 308.923 1.53595 0.353017 0
M  V30 3345 C 310.334 1.61937 0.929153 0
M  V30 3346 C 310.685 0.494686 1.89861 0
M  V30 3347 O 309.81 -0.377017 2.1309 0
M  V30 3348 C 310.405 2.93526 1.69199 0
M  V30 3349 C 308.964 3.04161 2.21727 0
M  V30 3350 C 308.111 2.57322 1.03348 0
M  V30 3351 H 311.062 1.58155 0.131431 0
M  V30 3352 H 311.083 2.82034 2.55416 0
M  V30 3353 H 310.595 3.75362 0.986144 0
M  V30 3354 H 308.696 2.26938 2.95516 0
M  V30 3355 H 308.809 4.09465 2.48748 0
M  V30 3356 H 307.173 2.12499 1.40414 0
M  V30 3357 H 307.956 3.41588 0.342428 0
M  V30 3358 N 310.401 -0.613514 1.45168 0
M  V30 3359 C 311.817 -0.933629 1.29443 0
M  V30 3360 C 312.017 -2.00028 0.243101 0
M  V30 3361 O 311.073 -2.49848 -0.364992 0
M  V30 3362 C 312.386 -1.38018 2.67155 0
M  V30 3363 C 313.934 -1.49471 2.75004 0
M  V30 3364 C 314.409 -1.97503 4.13227 0
M  V30 3365 N 315.9 -2.04746 4.15491 0
M  V30 3366 C 316.635 -2.43121 5.19307 0
M  V30 3367 N 316.131 -2.80506 6.33473 0
M  V30 3368 N 317.924 -2.43408 5.06664 0
M  V30 3369 H 310.075 0.0916097 2.12202 0
M  V30 3370 H 312.338 -0.0216655 0.947752 0
M  V30 3371 H 312.044 -0.670625 3.45247 0
M  V30 3372 H 311.918 -2.34784 2.95222 0
M  V30 3373 H 314.305 -2.19519 1.9722 0
M  V30 3374 H 314.386 -0.510342 2.50657 0
M  V30 3375 H 314.03 -1.28045 4.91495 0
M  V30 3376 H 313.96 -2.96843 4.34962 0
M  V30 3377 H 316.451 -1.78468 3.33103 0
M  V30 3378 H 316.764 -3.08652 7.08487 0
M  V30 3379 H 315.109 -2.78216 6.36884 0
M  V30 3380 H 318.3 -2.13604 4.16523 0
M  V30 3381 H 318.473 -2.72989 5.87691 0
M  V30 3382 N 311.879 -1.3236 -0.855495 0
M  V30 3383 C 313.104 -1.2601 -1.64731 0
M  V30 3384 C 313.529 0.169068 -1.87339 0
M  V30 3385 O 312.887 1.12016 -1.42556 0
M  V30 3386 C 312.935 -2.02417 -2.98429 0
M  V30 3387 O 312.039 -1.3714 -3.8893 0
M  V30 3388 H 311.38 -0.434325 -0.502253 0
M  V30 3389 H 313.91 -1.74661 -1.06558 0
M  V30 3390 H 313.92 -2.12559 -3.48257 0
M  V30 3391 H 312.595 -3.06343 -2.81295 0
M  V30 3392 H 311.172 -1.3554 -3.47395 0
M  V30 3393 N 313.357 1.07166 -1.15556 0
M  V30 3394 C 314.582 1.84053 -0.955988 0
M  V30 3395 C 315.007 1.81586 0.490739 0
M  V30 3396 O 314.365 1.21018 1.34997 0
M  V30 3397 C 314.413 3.28957 -1.47714 0
M  V30 3398 O 313.517 4.06795 -0.677593 0
M  V30 3399 H 312.858 0.569842 -0.340847 0
M  V30 3400 H 315.388 1.35178 -1.53584 0
M  V30 3401 H 315.398 3.79788 -1.4908 0
M  V30 3402 H 314.073 3.30068 -2.53037 0
M  V30 3403 H 312.65 3.6561 -0.733721 0
M  V30 3404 N 314.835 0.952656 1.25548 0
M  V30 3405 C 315.783 0.462354 2.27958 0
M  V30 3406 C 316.777 -0.46634 1.62855 0
M  V30 3407 O 317.983 -0.343287 1.76696 0
M  V30 3408 H 314.358 0.13101 0.7405 0
M  V30 3409 H 316.329 1.33839 2.66702 0
M  V30 3410 C 315.078 -0.24628 3.46827 0
M  V30 3411 H 314.401 0.459192 3.97154 0
M  V30 3412 H 315.841 -0.553393 4.20373 0
M  V30 3413 C 314.3 -1.4681 3.0323 0
M  V30 3414 O 314.83 -2.56591 3.09069 0
M  V30 3415 N 313.036 -1.32874 2.58443 0
M  V30 3416 H 312.583 -0.435536 2.53891 0
M  V30 3417 H 312.541 -2.14742 2.29637 0
M  V30 3418 N 316.313 -1.40141 0.720998 0
M  V30 3419 C 317.559 -2.01084 0.263231 0
M  V30 3420 C 317.892 -1.57052 -1.14229 0
M  V30 3421 O 317.167 -0.793027 -1.77599 0
M  V30 3422 C 317.45 -3.58401 0.349344 0
M  V30 3423 C 317.303 -4.12491 1.79363 0
M  V30 3424 C 318.622 -4.39231 -0.276351 0
M  V30 3425 H 315.741 -0.730572 0.0971228 0
M  V30 3426 H 318.383 -1.66543 0.914518 0
M  V30 3427 H 316.533 -3.87958 -0.205165 0
M  V30 3428 H 318.205 -3.93711 2.40394 0
M  V30 3429 H 316.448 -3.66576 2.31958 0
M  V30 3430 H 317.119 -5.21646 1.80524 0
M  V30 3431 H 319.595 -4.15637 0.196184 0
M  V30 3432 H 318.471 -5.48586 -0.185681 0
M  V30 3433 H 318.732 -4.20643 -1.36059 0
M  V30 3434 N 317.792 -0.46758 -1.50504 0
M  V30 3435 C 318.722 0.318381 -2.31319 0
M  V30 3436 C 319.703 0.993564 -1.38066 0
M  V30 3437 O 320.888 0.991411 -1.66987 0
M  V30 3438 C 318.018 1.40275 -3.17711 0
M  V30 3439 C 316.972 0.849373 -4.19487 0
M  V30 3440 C 316.298 2.03177 -4.94594 0
M  V30 3441 C 317.598 -0.136942 -5.2212 0
M  V30 3442 H 319.292 -0.356106 -2.97275 0
M  V30 3443 H 316.838 -0.172703 -1.42961 0
M  V30 3444 H 318.791 1.96004 -3.73042 0
M  V30 3445 H 317.515 2.10596 -2.49634 0
M  V30 3446 H 316.174 0.314076 -3.65252 0
M  V30 3447 H 315.822 2.72187 -4.22993 0
M  V30 3448 H 315.522 1.66774 -5.63436 0
M  V30 3449 H 317.046 2.59403 -5.52759 0
M  V30 3450 H 318.46 0.331056 -5.72343 0
M  V30 3451 H 316.857 -0.41507 -5.98663 0
M  V30 3452 H 317.927 -1.06398 -4.73083 0
M  V30 3453 N 319.27 1.56325 -0.20005 0
M  V30 3454 C 320.495 2.02548 0.44597 0
M  V30 3455 C 320.92 1.07922 1.5406 0
M  V30 3456 O 320.278 0.0635775 1.81188 0
M  V30 3457 C 320.326 3.47175 0.974761 0
M  V30 3458 O 319.43 3.55671 2.08739 0
M  V30 3459 H 318.771 0.655862 0.103638 0
M  V30 3460 H 321.301 2.02201 -0.312381 0
M  V30 3461 H 321.311 3.87067 1.2901 0
M  V30 3462 H 319.986 4.15538 0.17347 0
M  V30 3463 H 318.563 3.27657 1.78032 0
M  V30 3464 N 320.748 -0.0735177 1.57428 0
M  V30 3465 C 321.658 -1.10547 2.06922 0
M  V30 3466 C 322.674 -1.42506 0.998402 0
M  V30 3467 O 323.85 -1.52717 1.31299 0
M  V30 3468 C 320.915 -2.40019 2.50184 0
M  V30 3469 C 319.976 -2.15046 3.71556 0
M  V30 3470 C 319.209 -3.38345 4.12745 0
M  V30 3471 O 319.432 -4.47399 3.53822 0
M  V30 3472 O 318.366 -3.2666 5.05546 0
M  V30 3473 H 322.192 -0.715013 2.95163 0
M  V30 3474 H 319.777 -0.287531 1.46607 0
M  V30 3475 H 321.659 -3.16218 2.78539 0
M  V30 3476 H 320.334 -2.78447 1.65072 0
M  V30 3477 H 319.241 -1.36558 3.48285 0
M  V30 3478 H 320.574 -1.81499 4.57514 0
M  V30 3479 N 322.226 -1.5378 -0.344866 0
M  V30 3480 C 323.503 -1.61589 -1.10219 0
M  V30 3481 C 323.883 -0.436316 -2.06542 0
M  V30 3482 O 323.231 0.571543 -2.21237 0
M  V30 3483 C 323.441 -2.97602 -1.82301 0
M  V30 3484 C 324.789 -3.5291 -2.36093 0
M  V30 3485 O 325.813 -2.99768 -1.924 0
M  V30 3486 O 324.672 -4.45859 -3.16026 0
M  V30 3487 H 321.766 -0.653522 -0.506792 0
M  V30 3488 H 324.312 -1.66126 -0.346465 0
M  V30 3489 H 323.084 -3.74893 -1.12121 0
M  V30 3490 H 322.707 -2.9665 -2.64735 0
M  V30 3491 N 323.704 0.605807 -1.45491 0
M  V30 3492 C 324.636 1.73031 -1.5031 0
M  V30 3493 C 325.649 1.57968 -0.393687 0
M  V30 3494 O 326.838 1.65817 -0.660839 0
M  V30 3495 C 323.938 3.11049 -1.34543 0
M  V30 3496 C 323.111 3.52334 -2.59189 0
M  V30 3497 C 322.17 4.69323 -2.37954 0
M  V30 3498 O 321.196 4.7635 -3.11575 0
M  V30 3499 N 322.398 5.62705 -1.4263 0
M  V30 3500 H 325.163 1.6936 -2.4726 0
M  V30 3501 H 322.724 0.79114 -1.41254 0
M  V30 3502 H 324.716 3.87071 -1.18144 0
M  V30 3503 H 323.286 3.09217 -0.458623 0
M  V30 3504 H 322.506 2.66256 -2.90691 0
M  V30 3505 H 323.794 3.76677 -3.42041 0
M  V30 3506 H 323.192 5.59744 -0.818758 0
M  V30 3507 H 321.749 6.38252 -1.32202 0
M  V30 3508 N 325.182 1.32811 0.848464 0
M  V30 3509 C 326.459 1.14334 1.58704 0
M  V30 3510 C 326.839 -0.293948 2.09043 0
M  V30 3511 O 326.187 -1.29153 1.88499 0
M  V30 3512 C 326.397 2.17626 2.72837 0
M  V30 3513 C 327.745 2.51282 3.42261 0
M  V30 3514 O 328.769 2.16219 2.83068 0
M  V30 3515 O 327.628 3.11413 4.49093 0
M  V30 3516 H 324.722 0.441601 0.699226 0
M  V30 3517 H 327.268 1.44362 0.892053 0
M  V30 3518 H 326.04 3.14211 2.3321 0
M  V30 3519 H 325.663 1.88628 3.50008 0
M  V30 3520 N 326.66 -1.06551 1.16123 0
M  V30 3521 C 327.885 -1.83544 0.965735 0
M  V30 3522 C 328.31 -1.81843 -0.481102 0
M  V30 3523 O 327.668 -1.21732 -1.34354 0
M  V30 3524 C 327.716 -3.28169 1.49457 0
M  V30 3525 O 326.82 -4.0643 0.699157 0
M  V30 3526 H 326.161 -0.568026 0.343864 0
M  V30 3527 H 328.691 -1.34362 1.54299 0
M  V30 3528 H 328.701 -3.78992 1.51092 0
M  V30 3529 H 327.376 -3.28722 2.54784 0
M  V30 3530 H 325.953 -3.65216 0.7531 0
M  V30 3531 N 328.138 -0.959301 -1.25041 0
M  V30 3532 C 329.368 -0.63303 -1.96663 0
M  V30 3533 C 329.776 0.800031 -1.71453 0
M  V30 3534 O 329.119 1.54736 -0.99008 0
M  V30 3535 C 329.181 -0.817523 -3.50081 0
M  V30 3536 C 328.845 -2.22863 -3.98975 0
M  V30 3537 C 329.842 -3.20569 -4.09306 0
M  V30 3538 C 327.527 -2.55407 -4.32519 0
M  V30 3539 C 329.521 -4.4891 -4.52503 0
M  V30 3540 C 327.208 -3.83976 -4.754 0
M  V30 3541 C 328.206 -4.8054 -4.85356 0
M  V30 3542 O 327.894 -6.06817 -5.27284 0
M  V30 3543 H 327.626 -0.235866 -0.633516 0
M  V30 3544 H 330.18 -1.2874 -1.60047 0
M  V30 3545 H 328.41 -0.105992 -3.86555 0
M  V30 3546 H 330.099 -0.491604 -4.02912 0
M  V30 3547 H 330.865 -2.96753 -3.83618 0
M  V30 3548 H 326.744 -1.8097 -4.23994 0
M  V30 3549 H 330.288 -5.24283 -4.60188 0
M  V30 3550 H 326.185 -4.07596 -5.00535 0
M  V30 3551 H 326.953 -6.10262 -5.45457 0
M  V30 3552 N 329.616 1.39756 -0.72842 0
M  V30 3553 C 330.546 2.33289 -0.0991354 0
M  V30 3554 C 331.527 1.53568 0.731489 0
M  V30 3555 O 332.712 1.81987 0.677807 0
M  V30 3556 C 329.842 3.3763 0.813834 0
M  V30 3557 C 328.796 4.2791 0.0878663 0
M  V30 3558 C 328.122 5.22894 1.11741 0
M  V30 3559 C 329.422 5.11314 -1.06563 0
M  V30 3560 H 331.116 2.86163 -0.880408 0
M  V30 3561 H 328.662 1.37591 -0.424819 0
M  V30 3562 H 330.615 4.0201 1.26355 0
M  V30 3563 H 329.339 2.83181 1.62715 0
M  V30 3564 H 327.998 3.65 -0.342159 0
M  V30 3565 H 327.646 4.64744 1.92412 0
M  V30 3566 H 327.346 5.84143 0.636477 0
M  V30 3567 H 328.87 5.90151 1.56697 0
M  V30 3568 H 330.284 5.69076 -0.694671 0
M  V30 3569 H 328.681 5.81671 -1.47577 0
M  V30 3570 H 329.751 4.46534 -1.89038 0
M  V30 3571 N 331.094 0.475555 1.50254 0
M  V30 3572 C 332.334 -0.0765802 2.04256 0
M  V30 3573 C 332.698 -1.36587 1.34937 0
M  V30 3574 O 333.899 -2.00066 1.79519 0
M  V30 3575 C 332.17 -0.251668 3.56513 0
M  V30 3576 S 333.729 -0.761716 4.32138 0
M  V30 3577 H 330.547 -0.0138456 0.710865 0
M  V30 3578 H 333.149 0.643714 1.84598 0
M  V30 3579 H 331.853 0.692404 4.04517 0
M  V30 3580 H 331.384 -0.997946 3.80532 0
M  V30 3581 H 333.399 -2.03451 4.52573 0
M  V30 3582 N 332.573 -1.56217 0.208337 0
M  V30 3583 C 333.521 -2.21053 -0.723769 0
M  V30 3584 C 334.515 -1.18578 -1.20978 0
M  V30 3585 O 335.721 -1.36691 -1.17114 0
M  V30 3586 H 332.096 -0.708595 -0.251788 0
M  V30 3587 H 334.067 -2.98006 -0.153365 0
M  V30 3588 C 332.816 -2.89417 -1.927 0
M  V30 3589 H 332.139 -3.68019 -1.56212 0
M  V30 3590 H 333.579 -3.38201 -2.55727 0
M  V30 3591 C 332.038 -1.91166 -2.77411 0
M  V30 3592 O 332.568 -1.42026 -3.75754 0
M  V30 3593 N 330.774 -1.59105 -2.43175 0
M  V30 3594 H 330.321 -1.99259 -1.63259 0
M  V30 3595 H 330.279 -0.936255 -3.00136 0
M  V30 3596 N 334.051 0.0651679 -1.57465 0
M  V30 3597 C 335.297 0.764193 -1.87851 0
M  V30 3598 C 335.63 1.76889 -0.801495 0
M  V30 3599 O 334.905 1.93594 0.187528 0
M  V30 3600 C 335.188 1.46625 -3.28897 0
M  V30 3601 C 335.041 0.477515 -4.47258 0
M  V30 3602 C 336.36 2.4095 -3.68281 0
M  V30 3603 H 333.479 0.276351 -0.683227 0
M  V30 3604 H 336.121 0.0272868 -1.8998 0
M  V30 3605 H 334.271 2.09438 -3.27212 0
M  V30 3606 H 335.943 -0.145922 -4.61069 0
M  V30 3607 H 334.186 -0.206576 -4.33308 0
M  V30 3608 H 334.857 1.0065 -5.42746 0
M  V30 3609 H 337.333 1.88209 -3.71102 0
M  V30 3610 H 336.209 2.87072 -4.67847 0
M  V30 3611 H 336.47 3.26049 -2.98571 0
M  V30 3612 N 335.529 1.53961 0.336706 0
M  V30 3613 C 336.757 1.75483 1.09605 0
M  V30 3614 C 337.172 0.4972 1.82136 0
M  V30 3615 O 336.529 -0.53149 1.74589 0
M  V30 3616 C 336.58 2.93943 2.10428 0
M  V30 3617 O 336.301 4.14842 1.40846 0
M  V30 3618 C 337.802 3.27571 2.98684 0
M  V30 3619 H 335.022 0.586166 0.326574 0
M  V30 3620 H 337.566 2.00808 0.38683 0
M  V30 3621 H 335.721 2.70929 2.76905 0
M  V30 3622 H 336.135 4.81383 2.08255 0
M  V30 3623 H 337.609 4.13791 3.6535 0
M  V30 3624 H 338.086 2.44168 3.65074 0
M  V30 3625 H 338.692 3.52615 2.37787 0
M  V30 3626 N 337.007 -0.598083 1.45811 0
M  V30 3627 C 337.937 -1.71873 1.58057 0
M  V30 3628 C 338.918 -1.64533 0.431615 0
M  V30 3629 O 340.103 -1.82787 0.65595 0
M  V30 3630 C 337.233 -3.10495 1.55597 0
M  V30 3631 C 336.187 -3.32654 2.69305 0
M  V30 3632 C 335.513 -4.71646 2.51902 0
M  V30 3633 C 336.813 -3.21981 4.11248 0
M  V30 3634 H 338.507 -1.61881 2.51863 0
M  V30 3635 H 336.053 -0.777372 1.21214 0
M  V30 3636 H 338.006 -3.88699 1.6276 0
M  V30 3637 H 336.73 -3.2135 0.583255 0
M  V30 3638 H 335.389 -2.56843 2.61586 0
M  V30 3639 H 335.037 -4.79246 1.52748 0
M  V30 3640 H 334.737 -4.87426 3.2816 0
M  V30 3641 H 336.261 -5.52038 2.60933 0
M  V30 3642 H 337.675 -3.90049 4.20161 0
M  V30 3643 H 336.072 -3.49289 4.87972 0
M  V30 3644 H 337.142 -2.1928 4.32486 0
M  V30 3645 N 338.485 -1.33259 -0.841409 0
M  V30 3646 C 339.732 -1.24572 -1.5965 0
M  V30 3647 C 340.06 0.189137 -1.93578 0
M  V30 3648 O 339.315 1.14566 -1.5866 0
M  V30 3649 C 339.614 -2.06381 -2.9179 0
M  V30 3650 C 339.28 -3.556 -2.77235 0
M  V30 3651 C 337.942 -3.96282 -2.72973 0
M  V30 3652 C 340.294 -4.50433 -2.62221 0
M  V30 3653 C 337.622 -5.30017 -2.51592 0
M  V30 3654 C 339.974 -5.84327 -2.42374 0
M  V30 3655 C 338.638 -6.24194 -2.36512 0
M  V30 3656 H 337.908 -0.455842 -0.5842 0
M  V30 3657 H 340.555 -1.6482 -0.975016 0
M  V30 3658 H 338.86 -1.58903 -3.5813 0
M  V30 3659 H 340.557 -1.97019 -3.49263 0
M  V30 3660 H 337.147 -3.23298 -2.81384 0
M  V30 3661 H 341.331 -4.19914 -2.64549 0
M  V30 3662 H 336.587 -5.59947 -2.45499 0
M  V30 3663 H 340.761 -6.57414 -2.29739 0
M  V30 3664 H 338.388 -7.27759 -2.19706 0
M  V30 3665 N 339.963 1.05934 -1.16686 0
M  V30 3666 C 341.379 1.30938 -0.912542 0
M  V30 3667 C 341.579 1.96803 0.432533 0
M  V30 3668 O 340.635 2.23693 1.17123 0
M  V30 3669 C 341.948 2.18649 -2.06429 0
M  V30 3670 C 343.496 2.32055 -2.10047 0
M  V30 3671 C 343.971 3.23122 -3.24586 0
M  V30 3672 N 345.462 3.30706 -3.24327 0
M  V30 3673 C 346.197 4.01273 -4.09594 0
M  V30 3674 N 345.693 4.74332 -5.04956 0
M  V30 3675 N 347.486 3.97361 -3.97569 0
M  V30 3676 H 339.637 0.615777 -2.03278 0
M  V30 3677 H 341.9 0.334077 -0.887185 0
M  V30 3678 H 341.606 1.77534 -3.03603 0
M  V30 3679 H 341.48 3.19252 -2.00894 0
M  V30 3680 H 343.867 2.72415 -1.13464 0
M  V30 3681 H 343.948 1.31107 -2.19647 0
M  V30 3682 H 343.592 2.83477 -4.2143 0
M  V30 3683 H 343.522 4.24057 -3.12223 0
M  V30 3684 H 346.013 2.78644 -2.55276 0
M  V30 3685 H 346.326 5.25716 -5.6643 0
M  V30 3686 H 344.671 4.733 -5.08933 0
M  V30 3687 H 347.862 3.39405 -3.22369 0
M  V30 3688 H 348.035 4.52089 -4.64241 0
M  V30 3689 N 341.441 0.965919 1.2453 0
M  V30 3690 C 342.388 0.49402 2.25451 0
M  V30 3691 C 343.358 -0.45948 1.59618 0
M  V30 3692 O 344.543 -0.370238 1.87173 0
M  V30 3693 C 341.683 -0.211359 3.44452 0
M  V30 3694 C 340.796 0.7807 4.24887 0
M  V30 3695 C 339.931 0.0516105 5.31175 0
M  V30 3696 C 338.97 1.03385 6.03306 0
M  V30 3697 N 338.107 0.334887 7.01301 0
M  V30 3698 H 342.947 1.35946 2.65184 0
M  V30 3699 H 340.484 0.681515 1.3036 0
M  V30 3700 H 342.442 -0.637 4.12308 0
M  V30 3701 H 341.072 -1.04077 3.05562 0
M  V30 3702 H 340.124 1.32479 3.56586 0
M  V30 3703 H 341.436 1.52978 4.74762 0
M  V30 3704 H 340.59 -0.432114 6.05159 0
M  V30 3705 H 339.329 -0.730179 4.82203 0
M  V30 3706 H 338.334 1.52847 5.28127 0
M  V30 3707 H 339.559 1.81606 6.54367 0
M  V30 3708 H 337.505 -0.427959 6.54603 0
M  V30 3709 H 337.422 1.02287 7.49048 0
M  V30 3710 H 338.69 -0.126928 7.79397 0
M  V30 3711 N 342.919 -1.39368 0.735821 0
M  V30 3712 C 343.882 -2.2896 0.104874 0
M  V30 3713 C 344.882 -1.46347 -0.666274 0
M  V30 3714 O 346.072 -1.67014 -0.49517 0
M  V30 3715 C 343.204 -3.29857 -0.860656 0
M  V30 3716 H 344.397 -2.86259 0.894205 0
M  V30 3717 H 341.95 -1.48029 0.501704 0
M  V30 3718 H 342.685 -2.77615 -1.67631 0
M  V30 3719 H 342.47 -3.9087 -0.310327 0
M  V30 3720 H 343.96 -3.96893 -1.29867 0
M  V30 3721 N 344.397 -0.483516 -1.5 0
M  V30 3722 C 345.643 0.0672592 -2.02688 0
M  V30 3723 C 345.976 1.38247 -1.36387 0
M  V30 3724 O 345.251 1.88131 -0.493675 0
M  V30 3725 C 345.534 0.238109 -3.59312 0
M  V30 3726 C 345.387 -1.099 -4.36168 0
M  V30 3727 C 346.706 0.986916 -4.28892 0
M  V30 3728 H 343.825 0.0229696 -0.736642 0
M  V30 3729 H 346.467 -0.631527 -1.79197 0
M  V30 3730 H 344.617 0.8333 -3.79458 0
M  V30 3731 H 346.289 -1.73172 -4.27562 0
M  V30 3732 H 344.532 -1.69261 -3.99416 0
M  V30 3733 H 345.203 -0.932954 -5.44059 0
M  V30 3734 H 347.679 0.482302 -4.13295 0
M  V30 3735 H 346.555 1.07527 -5.38265 0
M  V30 3736 H 346.816 2.0265 -3.92919 0
M  V30 3737 N 345.875 1.56104 -0.216619 0
M  V30 3738 C 347.152 1.89988 0.465165 0
M  V30 3739 C 347.532 1.13326 1.78102 0
M  V30 3740 O 346.88 0.241033 2.27225 0
M  V30 3741 C 347.09 3.42646 0.662939 0
M  V30 3742 C 348.438 4.13311 0.972602 0
M  V30 3743 O 349.462 3.48217 0.749901 0
M  V30 3744 O 348.321 5.28396 1.39499 0
M  V30 3745 H 345.415 0.78979 0.245276 0
M  V30 3746 H 347.961 1.67721 -0.258436 0
M  V30 3747 H 346.733 3.90399 -0.26543 0
M  V30 3748 H 346.356 3.70677 1.43821 0
M  V30 3749 N 347.353 -0.0568162 1.57498 0
M  V30 3750 C 348.63 -0.786954 1.79071 0
M  V30 3751 C 349.01 -1.95028 0.80792 0
M  V30 3752 O 348.358 -2.27968 -0.155858 0
M  V30 3753 C 348.568 -1.24594 3.26002 0
M  V30 3754 C 349.916 -1.67323 3.90241 0
M  V30 3755 O 350.94 -1.34124 3.29984 0
M  V30 3756 O 349.799 -2.28842 4.9628 0
M  V30 3757 H 346.893 -0.378262 0.735423 0
M  V30 3758 H 349.439 -0.035734 1.69662 0
M  V30 3759 H 348.211 -0.41423 3.89101 0
M  V30 3760 H 347.834 -2.05803 3.40192 0
M  V30 3761 N 348.832 -1.54138 -0.328536 0
M  V30 3762 C 350.079 -1.72105 -1.06706 0
M  V30 3763 C 350.407 -0.492111 -1.88171 0
M  V30 3764 O 349.662 0.526153 -1.88494 0
M  V30 3765 C 349.961 -2.9457 -2.02393 0
M  V30 3766 C 349.627 -4.29544 -1.37122 0
M  V30 3767 C 348.289 -4.6624 -1.19052 0
M  V30 3768 C 350.641 -5.1333 -0.902331 0
M  V30 3769 C 347.969 -5.84325 -0.527331 0
M  V30 3770 C 350.321 -6.32094 -0.252988 0
M  V30 3771 C 348.985 -6.67473 -0.0600901 0
M  V30 3772 H 348.255 -0.629775 -0.390466 0
M  V30 3773 H 350.902 -1.88372 -0.34473 0
M  V30 3774 H 349.207 -2.72969 -2.81061 0
M  V30 3775 H 350.904 -3.05665 -2.59557 0
M  V30 3776 H 347.494 -4.0067 -1.52188 0
M  V30 3777 H 351.678 -4.855 -1.02974 0
M  V30 3778 H 346.934 -6.103 -0.366634 0
M  V30 3779 H 351.108 -6.96299 0.118366 0
M  V30 3780 H 348.735 -7.58832 0.455828 0
M  V30 3781 N 350.31 0.590341 -1.46126 0
M  V30 3782 C 351.726 0.912917 -1.30912 0
M  V30 3783 C 351.926 1.99616 -0.274893 0
M  V30 3784 O 350.982 2.50397 0.325197 0
M  V30 3785 C 352.295 1.3375 -2.69317 0
M  V30 3786 C 353.843 1.45077 -2.77348 0
M  V30 3787 C 354.318 1.90904 -4.16317 0
M  V30 3788 N 355.809 1.9811 -4.18696 0
M  V30 3789 C 356.544 2.34828 -5.23109 0
M  V30 3790 N 356.04 2.70393 -6.37856 0
M  V30 3791 N 357.833 2.35317 -5.10473 0
M  V30 3792 H 349.984 -0.125358 -2.1203 0
M  V30 3793 H 352.247 0.00658481 -0.947977 0
M  V30 3794 H 351.953 0.615614 -3.4627 0
M  V30 3795 H 351.827 2.30058 -2.9892 0
M  V30 3796 H 354.214 2.16353 -2.00687 0
M  V30 3797 H 354.295 0.4704 -2.51438 0
M  V30 3798 H 353.939 1.20209 -4.9347 0
M  V30 3799 H 353.869 2.89886 -4.39629 0
M  V30 3800 H 356.36 1.73146 -3.359 0
M  V30 3801 H 356.673 2.97341 -7.13308 0
M  V30 3802 H 355.018 2.68048 -6.41229 0
M  V30 3803 H 358.209 2.0695 -4.19868 0
M  V30 3804 H 358.382 2.63605 -5.9196 0
M  V30 3805 N 351.788 1.33704 0.83433 0
M  V30 3806 C 352.738 1.20899 1.93306 0
M  V30 3807 C 353.722 0.110783 1.60518 0
M  V30 3808 O 354.914 0.339331 1.73717 0
M  V30 3809 C 352.043 0.955018 3.29749 0
M  V30 3810 C 351.129 2.09587 3.68692 0
M  V30 3811 N 351.52 3.34621 3.79292 0
M  V30 3812 C 349.818 2.00358 3.98463 0
M  V30 3813 C 350.519 4.09472 4.13167 0
M  V30 3814 N 349.495 3.37954 4.25779 0
M  V30 3815 H 353.297 2.15665 1.99664 0
M  V30 3816 H 350.811 1.25777 1.02732 0
M  V30 3817 H 352.808 0.844208 4.08263 0
M  V30 3818 H 351.468 0.0159317 3.24696 0
M  V30 3819 H 352.479 3.69313 3.63082 0
M  V30 3820 H 349.156 1.14137 4.01596 0
M  V30 3821 H 350.546 5.17391 4.28668 0
M  V30 3822 N 353.266 -1.05314 1.17247 0
M  V30 3823 C 354.213 -2.13031 0.888058 0
M  V30 3824 C 355.183 -1.65253 -0.167537 0
M  V30 3825 O 356.368 -1.90775 -0.0305974 0
M  V30 3826 C 353.508 -3.42702 0.406147 0
M  V30 3827 C 352.621 -4.04161 1.52572 0
M  V30 3828 C 351.756 -5.21744 0.997808 0
M  V30 3829 C 350.795 -5.75207 2.09291 0
M  V30 3830 N 349.932 -6.84094 1.57986 0
M  V30 3831 H 354.772 -2.36698 1.81048 0
M  V30 3832 H 352.309 -1.16121 0.903013 0
M  V30 3833 H 354.267 -4.17059 0.108305 0
M  V30 3834 H 352.897 -3.19222 -0.479313 0
M  V30 3835 H 351.949 -3.27253 1.93931 0
M  V30 3836 H 353.261 -4.39881 2.35172 0
M  V30 3837 H 352.415 -6.03168 0.653739 0
M  V30 3838 H 351.154 -4.87495 0.141232 0
M  V30 3839 H 350.159 -4.92414 2.44557 0
M  V30 3840 H 351.384 -6.11505 2.95362 0
M  V30 3841 H 349.33 -6.51745 0.74598 0
M  V30 3842 H 349.247 -7.18811 2.34195 0
M  V30 3843 H 350.515 -7.69172 1.26468 0
M  V30 3844 N 354.744 -0.972509 -1.24016 0
M  V30 3845 C 355.707 -0.511403 -2.23422 0
M  V30 3846 C 356.707 0.394679 -1.55881 0
M  V30 3847 O 357.897 0.189469 -1.73167 0
M  V30 3848 C 355.029 0.258769 -3.39916 0
M  V30 3849 H 356.222 -1.39024 -2.6573 0
M  V30 3850 H 353.775 -0.757585 -1.36713 0
M  V30 3851 H 354.51 1.1545 -3.03054 0
M  V30 3852 H 354.295 -0.391522 -3.9014 0
M  V30 3853 H 355.785 0.570244 -4.13688 0
M  V30 3854 N 356.222 1.38976 -0.743202 0
M  V30 3855 C 357.638 1.53984 -0.419664 0
M  V30 3856 C 357.838 1.70837 1.0685 0
M  V30 3857 O 356.894 1.7135 1.8546 0
M  V30 3858 C 358.207 2.75287 -1.20985 0
M  V30 3859 C 359.755 2.89129 -1.19889 0
M  V30 3860 C 360.23 4.13381 -1.97181 0
M  V30 3861 N 361.721 4.20437 -1.94389 0
M  V30 3862 C 362.456 5.15547 -2.50996 0
M  V30 3863 N 361.952 6.16395 -3.16274 0
M  V30 3864 N 363.745 5.07822 -2.40984 0
M  V30 3865 H 355.896 1.26285 -1.7078 0
M  V30 3866 H 358.159 0.612689 -0.723406 0
M  V30 3867 H 357.865 2.69204 -2.26323 0
M  V30 3868 H 357.739 3.68184 -0.819759 0
M  V30 3869 H 360.126 2.947 -0.153606 0
M  V30 3870 H 360.207 1.97272 -1.62841 0
M  V30 3871 H 359.851 4.08572 -3.01714 0
M  V30 3872 H 359.781 5.04298 -1.51629 0
M  V30 3873 H 362.272 3.48205 -1.46839 0
M  V30 3874 H 362.585 6.85443 -3.56915 0
M  V30 3875 H 360.93 6.16758 -3.20367 0
M  V30 3876 H 364.121 4.27973 -1.89622 0
M  V30 3877 H 364.294 5.81767 -2.85397 0
M  V30 3878 N 357.7 0.491464 1.49741 0
M  V30 3879 C 358.61 -0.296835 2.32715 0
M  V30 3880 C 359.626 -0.976536 1.44013 0
M  V30 3881 O 360.802 -0.960023 1.77047 0
M  V30 3882 C 357.867 -1.35288 3.19215 0
M  V30 3883 C 356.928 -0.687632 4.23757 0
M  V30 3884 C 356.161 -1.69336 5.06123 0
M  V30 3885 O 356.384 -2.92219 4.89861 0
M  V30 3886 O 355.318 -1.25394 5.88693 0
M  V30 3887 H 359.144 0.382048 3.01287 0
M  V30 3888 H 356.729 0.252953 1.47243 0
M  V30 3889 H 358.611 -1.96411 3.72828 0
M  V30 3890 H 357.286 -2.01487 2.53347 0
M  V30 3891 H 356.193 -0.0369159 3.74082 0
M  V30 3892 H 357.526 -0.0682566 4.92153 0
M  V30 3893 N 359.178 -1.55987 0.224894 0
M  V30 3894 C 360.126 -2.21808 -0.700283 0
M  V30 3895 C 361.12 -1.19854 -1.19714 0
M  V30 3896 O 362.326 -1.37925 -1.15658 0
M  V30 3897 H 358.701 -0.711226 -0.244258 0
M  V30 3898 H 360.672 -2.98152 -0.121749 0
M  V30 3899 C 359.421 -2.91444 -1.8962 0
M  V30 3900 H 358.744 -3.69655 -1.52299 0
M  V30 3901 H 360.184 -3.40894 -2.52125 0
M  V30 3902 C 358.643 -1.94098 -2.75368 0
M  V30 3903 O 359.173 -1.46004 -3.74227 0
M  V30 3904 N 357.379 -1.61675 -2.41474 0
M  V30 3905 H 356.926 -2.00979 -1.61137 0
M  V30 3906 H 356.884 -0.968036 -2.99126 0
M  V30 3907 N 360.656 0.0484629 -1.57525 0
M  V30 3908 C 361.603 1.05504 -2.05275 0
M  V30 3909 C 362.573 1.37084 -0.937927 0
M  V30 3910 O 363.758 1.47754 -1.2072 0
M  V30 3911 C 360.898 2.35676 -2.52093 0
M  V30 3912 C 360.011 2.10423 -3.77288 0
M  V30 3913 C 359.146 3.34327 -4.12794 0
M  V30 3914 C 358.185 3.04542 -5.30962 0
M  V30 3915 N 357.322 4.20841 -5.61994 0
M  V30 3916 H 362.162 0.640885 -2.91027 0
M  V30 3917 H 359.699 0.304854 -1.43906 0
M  V30 3918 H 361.657 3.11709 -2.77297 0
M  V30 3919 H 360.287 2.7485 -1.69285 0
M  V30 3920 H 359.339 1.24976 -3.59284 0
M  V30 3921 H 360.651 1.84438 -4.63448 0
M  V30 3922 H 359.805 4.1874 -4.39024 0
M  V30 3923 H 358.544 3.63408 -3.25247 0
M  V30 3924 H 357.549 2.18528 -5.04505 0
M  V30 3925 H 358.774 2.76758 -6.20146 0
M  V30 3926 H 356.72 4.4991 -4.77406 0
M  V30 3927 H 356.637 3.98212 -6.42622 0
M  V30 3928 H 357.905 5.06184 -5.92789 0
M  V30 3929 N 362.134 1.5431 0.320358 0
M  V30 3930 C 363.381 1.72668 1.05792 0
M  V30 3931 C 363.709 0.502084 1.87908 0
M  V30 3932 O 362.964 -0.516149 1.88771 0
M  V30 3933 C 363.263 2.95639 2.00828 0
M  V30 3934 C 362.929 4.30265 1.34843 0
M  V30 3935 C 361.591 4.66865 1.16578 0
M  V30 3936 C 363.943 5.13801 0.875095 0
M  V30 3937 C 361.271 5.84597 0.496336 0
M  V30 3938 C 363.623 6.32219 0.219463 0
M  V30 3939 C 362.287 6.67495 0.0246915 0
M  V30 3940 H 361.557 0.631837 0.387121 0
M  V30 3941 H 364.204 1.88552 0.334735 0
M  V30 3942 H 362.509 2.74456 2.79609 0
M  V30 3943 H 364.206 3.07038 2.57932 0
M  V30 3944 H 360.796 4.01472 1.50061 0
M  V30 3945 H 364.98 4.86039 1.00398 0
M  V30 3946 H 360.236 6.10486 0.334264 0
M  V30 3947 H 364.41 6.96227 -0.155291 0
M  V30 3948 H 362.037 7.5858 -0.496065 0
M  V30 3949 N 363.613 -0.582584 1.46437 0
M  V30 3950 C 364.862 -1.337 1.5102 0
M  V30 3951 C 365.175 -1.94891 0.166359 0
M  V30 3952 O 366.381 -2.71351 0.0899954 0
M  V30 3953 C 364.837 -2.42315 2.66104 0
M  V30 3954 C 364.445 -1.87427 4.06909 0
M  V30 3955 C 366.189 -3.19099 2.79958 0
M  V30 3956 C 364.096 -2.93672 5.13333 0
M  V30 3957 H 363.026 -0.502619 0.562041 0
M  V30 3958 H 365.677 -0.621701 1.72647 0
M  V30 3959 H 364.059 -3.16645 2.37807 0
M  V30 3960 H 365.233 -1.19639 4.44998 0
M  V30 3961 H 363.548 -1.2331 3.97723 0
M  V30 3962 H 366.145 -3.9839 3.56636 0
M  V30 3963 H 366.488 -3.71695 1.87479 0
M  V30 3964 H 367.021 -2.51875 3.07902 0
M  V30 3965 H 363.76 -2.45962 6.07604 0
M  V30 3966 H 363.28 -3.59948 4.79789 0
M  V30 3967 H 364.959 -3.5762 5.39182 0
M  V30 3968 N 365.091 -1.34144 -0.827227 0
M  V30 3969 C 366.337 -1.26446 -1.58554 0
M  V30 3970 C 366.67 0.1664 -1.93486 0
M  V30 3971 O 365.945 1.1107 -1.59667 0
M  V30 3972 C 366.228 -2.15111 -2.8879 0
M  V30 3973 C 366.081 -3.66712 -2.60465 0
M  V30 3974 C 367.4 -2.03311 -3.90324 0
M  V30 3975 H 364.519 -0.46067 -0.575284 0
M  V30 3976 H 367.161 -1.64356 -0.953269 0
M  V30 3977 H 365.311 -1.8291 -3.42748 0
M  V30 3978 H 366.983 -4.09259 -2.1285 0
M  V30 3979 H 365.226 -3.88014 -1.93978 0
M  V30 3980 H 365.897 -4.24112 -3.53317 0
M  V30 3981 H 368.373 -2.31574 -3.45706 0
M  V30 3982 H 367.249 -2.67582 -4.79261 0
M  V30 3983 H 367.51 -1.00879 -4.30437 0
M  V30 3984 N 366.569 1.04691 -1.17803 0
M  V30 3985 C 367.985 1.29963 -0.926379 0
M  V30 3986 C 368.185 1.97251 0.411635 0
M  V30 3987 O 367.241 2.24922 1.14744 0
M  V30 3988 C 368.554 2.16447 -2.08737 0
M  V30 3989 C 370.102 2.29814 -2.12496 0
M  V30 3990 C 370.577 3.19661 -3.27995 0
M  V30 3991 N 372.068 3.27247 -3.27816 0
M  V30 3992 C 372.803 3.96906 -4.13827 0
M  V30 3993 N 372.299 4.6895 -5.09959 0
M  V30 3994 N 374.092 3.93122 -4.01761 0
M  V30 3995 H 366.243 0.594182 -2.0392 0
M  V30 3996 H 368.506 0.324649 -0.890678 0
M  V30 3997 H 368.212 1.74304 -3.05469 0
M  V30 3998 H 368.086 3.17103 -2.04268 0
M  V30 3999 H 370.473 2.71196 -1.16347 0
M  V30 4000 H 370.554 1.2877 -2.21025 0
M  V30 4001 H 370.198 2.78991 -4.24413 0
M  V30 4002 H 370.128 4.20722 -3.16703 0
M  V30 4003 H 372.619 2.75921 -2.58217 0
M  V30 4004 H 372.932 5.19679 -5.71974 0
M  V30 4005 H 371.277 4.67875 -5.13924 0
M  V30 4006 H 374.468 3.35967 -3.2595 0
M  V30 4007 H 374.641 4.47139 -4.6901 0
M  V30 4008 N 368.047 0.979072 1.23499 0
M  V30 4009 C 369.324 0.563674 1.87302 0
M  V30 4010 C 369.704 -0.959199 1.88049 0
M  V30 4011 O 369.052 -1.83535 1.36114 0
M  V30 4012 C 369.262 1.16822 3.28867 0
M  V30 4013 C 370.61 1.26014 4.0547 0
M  V30 4014 O 371.634 1.12158 3.38082 0
M  V30 4015 O 370.493 1.48044 5.26066 0
M  V30 4016 H 367.587 0.189602 0.804972 0
M  V30 4017 H 370.133 1.07407 1.31384 0
M  V30 4018 H 368.905 2.21049 3.22883 0
M  V30 4019 H 368.528 0.642564 3.92373 0
M  V30 4020 N 369.525 -1.3858 0.750561 0
M  V30 4021 C 370.772 -2.00184 0.305373 0
M  V30 4022 C 371.1 -1.59575 -1.11203 0
M  V30 4023 O 370.355 -0.823236 -1.77542 0
M  V30 4024 C 370.654 -3.55455 0.372373 0
M  V30 4025 C 370.32 -4.15765 1.745 0
M  V30 4026 C 368.982 -4.31951 2.12065 0
M  V30 4027 C 371.334 -4.49067 2.64553 0
M  V30 4028 C 368.662 -4.78734 3.39162 0
M  V30 4029 C 371.014 -4.97265 3.91038 0
M  V30 4030 C 369.678 -5.11658 4.28676 0
M  V30 4031 H 368.948 -0.732526 0.111744 0
M  V30 4032 H 371.595 -1.65673 0.960451 0
M  V30 4033 H 369.9 -3.90084 -0.366272 0
M  V30 4034 H 371.597 -4.00999 0.00953918 0
M  V30 4035 H 368.187 -4.03579 1.44297 0
M  V30 4036 H 372.371 -4.36166 2.36796 0
M  V30 4037 H 367.627 -4.88062 3.68246 0
M  V30 4038 H 371.801 -5.22003 4.60962 0
M  V30 4039 H 369.428 -5.47668 5.27222 0
M  V30 4040 N 371.003 -0.499398 -1.49478 0
M  V30 4041 C 371.935 0.316575 -2.27003 0
M  V30 4042 C 372.948 0.932047 -1.33479 0
M  V30 4043 O 374.137 0.815658 -1.58774 0
M  V30 4044 C 371.237 1.46055 -3.05812 0
M  V30 4045 C 370.41 0.952679 -4.26899 0
M  V30 4046 C 369.469 1.97407 -4.87767 0
M  V30 4047 O 368.495 1.54326 -5.4788 0
M  V30 4048 N 369.697 3.30436 -4.77276 0
M  V30 4049 H 372.462 -0.348168 -2.97671 0
M  V30 4050 H 370.023 -0.33185 -1.58463 0
M  V30 4051 H 372.015 2.14135 -3.43407 0
M  V30 4052 H 370.585 2.02948 -2.37762 0
M  V30 4053 H 369.805 0.0968248 -3.94081 0
M  V30 4054 H 371.093 0.59174 -5.05347 0
M  V30 4055 H 370.491 3.68126 -4.29534 0
M  V30 4056 H 369.048 3.94235 -5.19059 0
M  V30 4057 N 372.481 1.55866 -0.233164 0
M  V30 4058 C 373.711 2.02704 0.399325 0
M  V30 4059 C 374.119 1.11204 1.53069 0
M  V30 4060 O 373.462 0.116182 1.83332 0
M  V30 4061 C 373.524 3.45844 0.981429 0
M  V30 4062 C 373.188 4.56997 -0.0159561 0
M  V30 4063 C 374.185 5.13384 -0.820552 0
M  V30 4064 C 371.87 5.0211 -0.138072 0
M  V30 4065 C 373.864 6.13365 -1.73386 0
M  V30 4066 C 371.551 6.01926 -1.0549 0
M  V30 4067 C 372.549 6.57431 -1.85132 0
M  V30 4068 O 372.237 7.55302 -2.75272 0
M  V30 4069 H 371.969 0.668459 0.100692 0
M  V30 4070 H 374.523 2.02387 -0.35052 0
M  V30 4071 H 372.753 3.43267 1.78058 0
M  V30 4072 H 374.442 3.76262 1.52255 0
M  V30 4073 H 375.208 4.79372 -0.736721 0
M  V30 4074 H 371.087 4.5858 0.471737 0
M  V30 4075 H 374.631 6.56614 -2.35592 0
M  V30 4076 H 370.528 6.35359 -1.1397 0
M  V30 4077 H 371.296 7.72867 -2.69477 0
M  V30 4078 N 373.959 -0.0401083 1.57549 0
M  V30 4079 C 374.907 -1.06264 2.06908 0
M  V30 4080 C 375.901 -1.38132 0.980608 0
M  V30 4081 O 377.107 -1.37167 1.16556 0
M  V30 4082 H 373.482 -0.360166 0.660139 0
M  V30 4083 H 375.453 -0.620445 2.91878 0
M  V30 4084 C 374.202 -2.35846 2.55483 0
M  V30 4085 H 373.525 -2.12183 3.38849 0
M  V30 4086 H 374.965 -3.05765 2.93741 0
M  V30 4087 C 373.424 -3.0404 1.45126 0
M  V30 4088 O 373.954 -3.93424 0.811216 0
M  V30 4089 N 372.16 -2.65184 1.18852 0
M  V30 4090 H 371.707 -1.92584 1.71083 0
M  V30 4091 H 371.665 -3.1113 0.452244 0
M  V30 4092 N 375.437 -1.54477 -0.31217 0
M  V30 4093 C 376.347 -1.87695 -1.4074 0
M  V30 4094 C 377.363 -0.769975 -1.56036 0
M  V30 4095 O 378.539 -1.06537 -1.70915 0
M  V30 4096 C 375.604 -2.10755 -2.75287 0
M  V30 4097 C 374.665 -3.34514 -2.69071 0
M  V30 4098 C 373.898 -3.56465 -3.97201 0
M  V30 4099 O 374.121 -2.81637 -4.96021 0
M  V30 4100 O 373.055 -4.49964 -3.9977 0
M  V30 4101 H 376.881 -2.80849 -1.15574 0
M  V30 4102 H 374.466 -1.40526 -0.507228 0
M  V30 4103 H 376.348 -2.27188 -3.54913 0
M  V30 4104 H 375.023 -1.20788 -3.0032 0
M  V30 4105 H 373.93 -3.23456 -1.87955 0
M  V30 4106 H 375.263 -4.24575 -2.48992 0
M  V30 4107 N 376.915 0.57481 -1.46744 0
M  V30 4108 C 377.825 1.711 -1.60505 0
M  V30 4109 C 378.841 1.67008 -0.488307 0
M  V30 4110 O 380.017 1.86774 -0.753495 0
M  V30 4111 C 377.082 3.07608 -1.59932 0
M  V30 4112 C 376.143 3.22904 -2.82898 0
M  V30 4113 C 375.376 4.529 -2.82343 0
M  V30 4114 O 375.599 5.37278 -1.91542 0
M  V30 4115 O 374.533 4.71611 -3.73987 0
M  V30 4116 H 378.359 1.62436 -2.56609 0
M  V30 4117 H 375.944 0.742779 -1.29627 0
M  V30 4118 H 377.826 3.88877 -1.62336 0
M  V30 4119 H 376.501 3.16692 -0.669898 0
M  V30 4120 H 375.408 2.41099 -2.86046 0
M  V30 4121 H 376.741 3.18715 -3.75076 0
M  V30 4122 N 378.394 1.34581 0.820102 0
M  V30 4123 C 379.304 1.28471 1.96297 0
M  V30 4124 C 380.32 0.191902 1.72939 0
M  V30 4125 O 381.496 0.418879 1.96996 0
M  V30 4126 C 378.561 1.04281 3.30645 0
M  V30 4127 C 377.622 2.22745 3.66992 0
M  V30 4128 C 376.855 1.997 4.9493 0
M  V30 4129 O 377.078 0.956656 5.6232 0
M  V30 4130 O 376.012 2.86723 5.2922 0
M  V30 4131 H 379.838 2.24624 2.04396 0
M  V30 4132 H 377.423 1.14816 0.955913 0
M  V30 4133 H 379.305 0.925841 4.11104 0
M  V30 4134 H 377.98 0.111697 3.23507 0
M  V30 4135 H 376.887 2.40003 2.86966 0
M  V30 4136 H 378.22 3.14257 3.78819 0
M  V30 4137 N 379.872 -1.04064 1.18357 0
M  V30 4138 C 380.805 -2.11618 0.854 0
M  V30 4139 C 381.783 -1.61555 -0.184043 0
M  V30 4140 O 382.967 -1.88395 -0.0630048 0
M  V30 4141 C 380.094 -3.37574 0.27597 0
M  V30 4142 C 379.14 -4.06485 1.2912 0
M  V30 4143 S 379.973 -4.53543 2.84709 0
M  V30 4144 C 381.129 -5.82732 2.28417 0
M  V30 4145 H 381.362 -2.39247 1.76488 0
M  V30 4146 H 378.895 -1.16832 1.00944 0
M  V30 4147 H 380.853 -4.10468 -0.051026 0
M  V30 4148 H 379.514 -3.0806 -0.613028 0
M  V30 4149 H 378.707 -4.97024 0.835633 0
M  V30 4150 H 378.309 -3.39708 1.56443 0
M  V30 4151 H 380.601 -6.56677 1.66677 0
M  V30 4152 H 381.544 -6.33052 3.17256 0
M  V30 4153 H 381.952 -5.37838 1.71436 0
M  V30 4154 N 381.35 -0.985608 -1.22978 0
M  V30 4155 C 382.297 -0.529825 -2.24636 0
M  V30 4156 C 383.267 0.434028 -1.60329 0
M  V30 4157 O 384.452 0.340414 -1.87739 0
M  V30 4158 C 381.592 0.156533 -3.44745 0
M  V30 4159 C 380.705 -0.848197 -4.23591 0
M  V30 4160 C 379.84 -0.136109 -5.31026 0
M  V30 4161 C 378.879 -1.1297 -6.01585 0
M  V30 4162 N 378.016 -0.446415 -7.00679 0
M  V30 4163 H 382.856 -1.40148 -2.62988 0
M  V30 4164 H 380.393 -0.702168 -1.29259 0
M  V30 4165 H 382.351 0.571324 -4.1327 0
M  V30 4166 H 380.981 0.992025 -3.07179 0
M  V30 4167 H 380.033 -1.38135 -3.54433 0
M  V30 4168 H 381.345 -1.60512 -4.72268 0
M  V30 4169 H 380.499 0.335784 -6.0577 0
M  V30 4170 H 379.238 0.653373 -4.83304 0
M  V30 4171 H 378.243 -1.6123 -5.25628 0
M  V30 4172 H 379.468 -1.91993 -6.51395 0
M  V30 4173 H 377.414 0.323763 -6.55201 0
M  V30 4174 H 377.331 -1.1419 -7.47326 0
M  V30 4175 H 378.599 0.00291697 -7.795 0
M  V30 4176 N 382.828 1.3818 -0.7579 0
M  V30 4177 C 383.791 2.28764 -0.141286 0
M  V30 4178 C 384.791 1.47388 0.642907 0
M  V30 4179 O 385.981 1.67781 0.468536 0
M  V30 4180 C 383.113 3.31184 0.808069 0
M  V30 4181 H 384.306 2.848 -0.939633 0
M  V30 4182 H 381.859 1.47212 -0.525191 0
M  V30 4183 H 382.594 2.80247 1.63193 0
M  V30 4184 H 382.379 3.91314 0.248104 0
M  V30 4185 H 383.869 3.98909 1.23536 0
M  V30 4186 N 384.306 0.507319 1.49211 0
M  V30 4187 C 385.583 -0.0982702 1.95353 0
M  V30 4188 C 385.963 -1.53516 1.449 0
M  V30 4189 O 385.311 -2.18594 0.66551 0
M  V30 4190 C 385.521 -0.00440283 3.49 0
M  V30 4191 C 386.869 -0.175147 4.24239 0
M  V30 4192 O 387.893 -0.0792891 3.56112 0
M  V30 4193 O 386.752 -0.37276 5.45227 0
M  V30 4194 H 383.846 -0.0918236 0.821887 0
M  V30 4195 H 386.392 0.570307 1.5983 0
M  V30 4196 H 385.164 0.997402 3.78375 0
M  V30 4197 H 384.787 -0.712845 3.91158 0
M  V30 4198 N 385.784 -1.5574 0.241426 0
M  V30 4199 C 386.731 -2.21149 -0.660432 0
M  V30 4200 C 387.701 -1.17356 -1.17545 0
M  V30 4201 O 388.886 -1.45784 -1.23093 0
M  V30 4202 C 386.026 -2.91059 -1.85414 0
M  V30 4203 C 385.139 -4.09495 -1.37616 0
M  V30 4204 C 384.274 -4.67135 -2.529 0
M  V30 4205 C 383.313 -5.77831 -2.01936 0
M  V30 4206 N 382.45 -6.29677 -3.10566 0
M  V30 4207 H 387.29 -2.97845 -0.095955 0
M  V30 4208 H 384.827 -1.47057 -0.0356024 0
M  V30 4209 H 386.785 -3.29788 -2.5553 0
M  V30 4210 H 385.415 -2.16846 -2.39118 0
M  V30 4211 H 384.467 -3.76117 -0.569235 0
M  V30 4212 H 385.779 -4.89423 -0.962618 0
M  V30 4213 H 384.933 -5.08409 -3.31067 0
M  V30 4214 H 383.672 -3.86411 -2.97553 0
M  V30 4215 H 382.677 -5.36039 -1.22238 0
M  V30 4216 H 383.902 -6.60402 -1.58259 0
M  V30 4217 H 381.848 -5.5186 -3.54664 0
M  V30 4218 H 381.765 -7.04783 -2.73526 0
M  V30 4219 H 383.033 -6.75609 -3.88809 0
M  V30 4220 N 387.262 0.0317525 -1.57568 0
M  V30 4221 C 388.172 1.05021 -2.0978 0
M  V30 4222 C 389.188 1.39809 -1.03583 0
M  V30 4223 O 390.364 1.49182 -1.35302 0
M  V30 4224 C 387.429 2.33301 -2.56459 0
M  V30 4225 C 386.49 2.0512 -3.77127 0
M  V30 4226 C 385.723 3.27283 -4.2157 0
M  V30 4227 O 385.946 4.37861 -3.65559 0
M  V30 4228 O 384.88 3.13141 -5.14029 0
M  V30 4229 H 388.706 0.636505 -2.96955 0
M  V30 4230 H 386.291 0.248559 -1.47318 0
M  V30 4231 H 388.173 3.08722 -2.86825 0
M  V30 4232 H 386.848 2.73973 -1.72397 0
M  V30 4233 H 385.755 1.27276 -3.51784 0
M  V30 4234 H 387.088 1.69305 -4.62165 0
M  V30 4235 N 388.74 1.54641 0.303973 0
M  V30 4236 C 389.65 1.88439 1.39743 0
M  V30 4237 C 390.666 0.778239 1.55626 0
M  V30 4238 O 391.842 1.07442 1.70347 0
M  V30 4239 C 388.907 2.12212 2.74166 0
M  V30 4240 C 387.968 3.35936 2.67293 0
M  V30 4241 C 387.201 3.58566 3.95305 0
M  V30 4242 O 387.424 2.84263 4.9452 0
M  V30 4243 O 386.358 4.52078 3.97378 0
M  V30 4244 H 390.184 2.81458 1.14083 0
M  V30 4245 H 387.769 1.40793 0.499768 0
M  V30 4246 H 389.651 2.29067 3.53704 0
M  V30 4247 H 388.326 1.22379 2.99675 0
M  V30 4248 H 387.233 3.24448 1.86237 0
M  V30 4249 H 388.566 4.2589 2.46736 0
M  V30 4250 N 390.218 -0.567019 1.47046 0
M  V30 4251 C 391.151 -1.69016 1.53326 0
M  V30 4252 C 392.129 -1.57949 0.386126 0
M  V30 4253 O 393.313 -1.78945 0.592529 0
M  V30 4254 C 390.44 -3.07191 1.42658 0
M  V30 4255 C 389.486 -3.36733 2.6175 0
M  V30 4256 S 390.319 -3.27069 4.24012 0
M  V30 4257 C 391.475 -4.67755 4.1588 0
M  V30 4258 H 391.708 -1.63434 2.48348 0
M  V30 4259 H 389.241 -0.747048 1.35124 0
M  V30 4260 H 391.199 -3.86897 1.37191 0
M  V30 4261 H 389.86 -3.10249 0.490369 0
M  V30 4262 H 389.053 -4.37441 2.50323 0
M  V30 4263 H 388.655 -2.64627 2.64289 0
M  V30 4264 H 390.947 -5.58491 3.83529 0
M  V30 4265 H 391.89 -4.84239 5.16641 0
M  V30 4266 H 392.298 -4.45341 3.46889 0
M  V30 4267 N 391.696 -1.35014 -0.812953 0
M  V30 4268 C 392.644 -1.27435 -1.94585 0
M  V30 4269 C 393.638 -0.170494 -1.6854 0
M  V30 4270 O 394.844 -0.336085 -1.76835 0
M  V30 4271 H 391.219 -0.396144 -0.639198 0
M  V30 4272 H 393.19 -2.23158 -1.98098 0
M  V30 4273 C 391.939 -1.05677 -3.31252 0
M  V30 4274 H 391.262 -1.89853 -3.51846 0
M  V30 4275 H 392.702 -1.04413 -4.10943 0
M  V30 4276 C 391.161 0.239615 -3.36047 0
M  V30 4277 O 391.691 1.23759 -3.8216 0
M  V30 4278 N 389.897 0.276186 -2.89285 0
M  V30 4279 H 389.444 -0.53653 -2.51951 0
M  V30 4280 H 389.402 1.14332 -2.92875 0
M  V30 4281 N 393.175 1.03435 -1.18907 0
M  V30 4282 C 394.591 1.28973 -0.940111 0
M  V30 4283 C 394.791 1.97676 0.390691 0
M  V30 4284 O 393.847 2.26127 1.12352 0
M  V30 4285 C 395.16 2.14221 -2.11021 0
M  V30 4286 C 396.708 2.27547 -2.14922 0
M  V30 4287 C 397.183 3.16164 -3.31367 0
M  V30 4288 N 398.674 3.23752 -3.31269 0
M  V30 4289 C 399.409 3.92495 -4.18014 0
M  V30 4290 N 398.905 4.63515 -5.14904 0
M  V30 4291 N 400.698 3.88838 -4.05908 0
M  V30 4292 H 392.849 0.57252 -2.04538 0
M  V30 4293 H 395.112 0.315184 -0.894071 0
M  V30 4294 H 394.818 1.71054 -3.073 0
M  V30 4295 H 394.692 3.14919 -2.0762 0
M  V30 4296 H 397.079 2.69947 -1.19217 0
M  V30 4297 H 397.16 1.26418 -2.22378 0
M  V30 4298 H 396.804 2.74474 -4.27348 0
M  V30 4299 H 396.734 4.17339 -3.21148 0
M  V30 4300 H 399.225 2.73167 -2.61129 0
M  V30 4301 H 399.538 5.13583 -5.77453 0
M  V30 4302 H 397.883 4.62398 -5.18857 0
M  V30 4303 H 401.074 3.32491 -3.29495 0
M  V30 4304 H 401.247 4.4214 -4.73726 0
M  V30 4305 N 394.653 0.992116 1.22453 0
M  V30 4306 C 395.583 0.561677 2.26644 0
M  V30 4307 C 396.564 -0.411055 1.65059 0
M  V30 4308 O 397.749 -0.301861 1.9184 0
M  V30 4309 C 394.879 -0.125247 3.47074 0
M  V30 4310 C 393.833 0.765948 4.21091 0
M  V30 4311 C 393.159 -0.0538484 5.34673 0
M  V30 4312 C 394.459 2.06242 4.79856 0
M  V30 4313 H 396.153 1.43259 2.62902 0
M  V30 4314 H 393.699 0.690283 1.26377 0
M  V30 4315 H 395.652 -0.437764 4.1912 0
M  V30 4316 H 394.376 -1.03069 3.0991 0
M  V30 4317 H 393.035 1.0621 3.50878 0
M  V30 4318 H 392.683 -0.960188 4.9375 0
M  V30 4319 H 392.383 0.539415 5.85119 0
M  V30 4320 H 393.907 -0.360477 6.09535 0
M  V30 4321 H 395.321 1.8139 5.43848 0
M  V30 4322 H 393.718 2.60444 5.40638 0
M  V30 4323 H 394.788 2.74167 3.99951 0
M  V30 4324 N 396.131 -1.37776 0.765217 0
M  V30 4325 C 397.356 -2.04651 0.336537 0
M  V30 4326 C 397.781 -1.57337 -1.03086 0
M  V30 4327 O 397.139 -0.730621 -1.65927 0
M  V30 4328 C 397.187 -3.58577 0.381468 0
M  V30 4329 O 396.291 -4.07706 -0.62042 0
M  V30 4330 H 395.632 -0.64756 0.146838 0
M  V30 4331 H 398.162 -1.76221 1.03959 0
M  V30 4332 H 398.172 -4.07314 0.236448 0
M  V30 4333 H 396.847 -3.9237 1.37907 0
M  V30 4334 H 395.424 -3.70306 -0.439056 0
M  V30 4335 N 397.609 -0.515225 -1.4894 0
M  V30 4336 C 398.837 0.0206034 -2.0689 0
M  V30 4337 C 399.252 1.29514 -1.37374 0
M  V30 4338 O 398.609 1.76698 -0.456529 0
M  V30 4339 C 398.66 0.26351 -3.60538 0
M  V30 4340 O 398.381 -0.960517 -4.27441 0
M  V30 4341 C 399.882 0.841383 -4.35242 0
M  V30 4342 H 397.102 -0.0268608 -0.670462 0
M  V30 4343 H 399.646 -0.716651 -1.91532 0
M  V30 4344 H 397.801 0.950777 -3.75552 0
M  V30 4345 H 398.215 -0.73212 -5.19365 0
M  V30 4346 H 399.689 0.96085 -5.43573 0
M  V30 4347 H 400.166 1.8427 -3.98674 0
M  V30 4348 H 400.772 0.191143 -4.2487 0
M  V30 4349 N 399.087 1.5561 -0.249682 0
M  V30 4350 C 400.364 1.90932 0.424761 0
M  V30 4351 C 400.744 1.17078 1.75658 0
M  V30 4352 O 400.092 0.289176 2.26663 0
M  V30 4353 C 400.302 3.43975 0.590109 0
M  V30 4354 C 401.65 4.15281 0.884714 0
M  V30 4355 O 402.674 3.49729 0.67587 0
M  V30 4356 O 401.533 5.31236 1.28259 0
M  V30 4357 H 398.627 0.794815 0.228468 0
M  V30 4358 H 401.173 1.67135 -0.293954 0
M  V30 4359 H 399.945 3.89748 -0.34818 0
M  V30 4360 H 399.568 3.73644 1.35926 0
M  V30 4361 N 400.565 -0.0233959 1.57583 0
M  V30 4362 C 401.512 -1.02224 2.06927 0
M  V30 4363 C 402.482 -1.35575 0.959617 0
M  V30 4364 O 403.667 -1.45815 1.23055 0
M  V30 4365 C 400.807 -2.31636 2.5581 0
M  V30 4366 C 399.92 -2.04394 3.80588 0
M  V30 4367 C 399.055 -3.27717 4.18061 0
M  V30 4368 C 398.094 -2.96056 5.3574 0
M  V30 4369 N 397.231 -4.11847 5.68618 0
M  V30 4370 H 402.071 -0.594504 2.9201 0
M  V30 4371 H 399.608 -0.281921 1.44373 0
M  V30 4372 H 401.566 -3.07258 2.82221 0
M  V30 4373 H 400.196 -2.72122 1.73636 0
M  V30 4374 H 399.248 -1.19244 3.61227 0
M  V30 4375 H 400.56 -1.77042 4.66323 0
M  V30 4376 H 399.714 -4.11702 4.4563 0
M  V30 4377 H 398.453 -3.58188 3.30988 0
M  V30 4378 H 397.458 -2.10474 5.07918 0
M  V30 4379 H 398.683 -2.66857 6.24471 0
M  V30 4380 H 396.629 -4.42258 4.84504 0
M  V30 4381 H 396.546 -3.87938 6.48876 0
M  V30 4382 H 397.814 -4.96689 6.00766 0
M  V30 4383 N 402.043 -1.548 -0.295768 0
M  V30 4384 C 402.99 -1.86113 -1.36494 0
M  V30 4385 C 403.96 -0.7105 -1.50137 0
M  V30 4386 O 405.145 -0.959626 -1.64912 0
M  V30 4387 C 402.285 -2.11861 -2.72413 0
M  V30 4388 C 401.398 -3.39471 -2.67177 0
M  V30 4389 C 400.533 -3.55035 -3.95125 0
M  V30 4390 C 399.572 -4.76418 -3.84308 0
M  V30 4391 N 398.709 -4.8876 -5.04042 0
M  V30 4392 H 403.549 -2.77314 -1.09091 0
M  V30 4393 H 401.086 -1.37315 -0.52753 0
M  V30 4394 H 403.044 -2.24786 -3.51464 0
M  V30 4395 H 401.674 -1.2392 -2.98066 0
M  V30 4396 H 400.726 -3.35139 -1.79962 0
M  V30 4397 H 402.038 -4.28646 -2.55076 0
M  V30 4398 H 401.192 -3.67653 -4.82614 0
M  V30 4399 H 399.931 -2.64002 -4.10066 0
M  V30 4400 H 398.936 -4.63827 -2.95202 0
M  V30 4401 H 400.161 -5.68863 -3.70906 0
M  V30 4402 H 398.107 -4.00652 -5.19436 0
M  V30 4403 H 398.024 -5.71945 -4.94384 0
M  V30 4404 H 399.292 -5.0574 -5.93167 0
M  V30 4405 N 403.521 0.559213 -1.47345 0
M  V30 4406 C 404.468 1.66645 -1.59682 0
M  V30 4407 C 405.438 1.60168 -0.43994 0
M  V30 4408 O 406.623 1.79031 -0.659736 0
M  V30 4409 C 403.763 3.04969 -1.61518 0
M  V30 4410 C 402.876 3.21897 -2.88108 0
M  V30 4411 C 402.011 4.50608 -2.81294 0
M  V30 4412 C 401.05 4.60961 -4.02717 0
M  V30 4413 N 400.187 5.81024 -3.94151 0
M  V30 4414 H 405.027 1.55439 -2.54249 0
M  V30 4415 H 402.564 0.757219 -1.26113 0
M  V30 4416 H 404.522 3.85064 -1.60566 0
M  V30 4417 H 403.152 3.15015 -0.704645 0
M  V30 4418 H 402.204 2.35248 -2.98936 0
M  V30 4419 H 403.516 3.25412 -3.78032 0
M  V30 4420 H 402.67 5.3896 -2.7858 0
M  V30 4421 H 401.409 4.49568 -1.89049 0
M  V30 4422 H 400.414 3.71021 -4.05738 0
M  V30 4423 H 401.639 4.63761 -4.96087 0
M  V30 4424 H 399.585 5.80938 -3.04708 0
M  V30 4425 H 399.502 5.85909 -4.77752 0
M  V30 4426 H 400.77 6.71744 -3.9545 0
M  V30 4427 N 404.999 1.35443 0.805782 0
M  V30 4428 C 405.931 1.24285 1.92577 0
M  V30 4429 C 406.944 0.165962 1.61952 0
M  V30 4430 O 408.133 0.419303 1.73505 0
M  V30 4431 C 405.233 0.891272 3.2697 0
M  V30 4432 C 404.406 2.06669 3.85495 0
M  V30 4433 C 403.465 1.69077 4.98297 0
M  V30 4434 O 402.491 2.4096 5.15681 0
M  V30 4435 N 403.693 0.614869 5.77234 0
M  V30 4436 H 406.458 2.20777 2.02676 0
M  V30 4437 H 404.019 1.28623 0.983243 0
M  V30 4438 H 406.011 0.621256 3.99903 0
M  V30 4439 H 404.581 0.016004 3.12596 0
M  V30 4440 H 403.801 2.50046 3.04747 0
M  V30 4441 H 405.089 2.85237 4.21328 0
M  V30 4442 H 404.487 0.017648 5.65697 0
M  V30 4443 H 403.044 0.404636 6.50543 0
M  V30 4444 N 406.477 -1.02803 1.19454 0
M  V30 4445 C 407.724 -1.76217 0.997693 0
M  V30 4446 C 408.052 -1.887 -0.47144 0
M  V30 4447 O 407.307 -1.4011 -1.3663 0
M  V30 4448 C 407.606 -3.18941 1.6128 0
M  V30 4449 C 407.272 -3.26463 3.11019 0
M  V30 4450 C 405.934 -3.28223 3.51885 0
M  V30 4451 C 408.286 -3.25542 4.07028 0
M  V30 4452 C 405.614 -3.26719 4.8731 0
M  V30 4453 C 407.966 -3.25579 5.42385 0
M  V30 4454 C 406.63 -3.25637 5.82681 0
M  V30 4455 H 405.9 -0.644823 0.365082 0
M  V30 4456 H 408.547 -1.20655 1.4871 0
M  V30 4457 H 406.852 -3.77587 1.04572 0
M  V30 4458 H 408.549 -3.74415 1.43577 0
M  V30 4459 H 405.139 -3.25822 2.78457 0
M  V30 4460 H 409.323 -3.23362 3.76498 0
M  V30 4461 H 404.579 -3.25089 5.1781 0
M  V30 4462 H 408.753 -3.23817 6.16535 0
M  V30 4463 H 406.38 -3.24226 6.87591 0
M  V30 4464 N 407.956 -0.998596 -1.21925 0
M  V30 4465 C 409.204 -0.676325 -1.90448 0
M  V30 4466 C 409.525 0.794719 -1.78071 0
M  V30 4467 O 408.795 1.5701 -1.17152 0
M  V30 4468 H 407.375 -0.247165 -0.704925 0
M  V30 4469 H 410.037 -1.26633 -1.48156 0
M  V30 4470 H 409.133 -0.943858 -2.97486 0
M  V30 4471 N 409.434 1.37368 -0.772513 0
M  V30 4472 C 410.845 1.8231 -0.402493 0
M  V30 4473 C 411.196 1.6436 1.07146 0
M  V30 4474 O 410.321 1.15514 1.82991 0
M  V30 4475 C 410.916 3.30979 -0.723776 0
M  V30 4476 C 409.475 3.74195 -0.406802 0
M  V30 4477 C 408.622 2.59885 -0.967218 0
M  V30 4478 H 411.573 1.25829 -0.967099 0
M  V30 4479 H 411.594 3.80499 -0.00870832 0
M  V30 4480 H 411.106 3.44011 -1.7966 0
M  V30 4481 H 409.207 3.66732 0.658673 0
M  V30 4482 H 409.32 4.7027 -0.915588 0
M  V30 4483 H 407.684 2.51674 -0.391416 0
M  V30 4484 H 408.467 2.7571 -2.04546 0
M  V30 4485 N 410.912 0.523116 1.48665 0
M  V30 4486 C 411.842 -0.23231 2.32342 0
M  V30 4487 C 412.823 -0.941637 1.41659 0
M  V30 4488 O 414.008 -0.928751 1.70552 0
M  V30 4489 C 411.138 -1.28387 3.22698 0
M  V30 4490 C 410.092 -0.693098 4.22351 0
M  V30 4491 C 409.418 -1.8468 5.01794 0
M  V30 4492 C 410.718 0.33063 5.21252 0
M  V30 4493 H 412.412 0.466192 2.95748 0
M  V30 4494 H 409.958 0.225643 1.42221 0
M  V30 4495 H 411.911 -1.82024 3.80059 0
M  V30 4496 H 410.635 -2.01186 2.57278 0
M  V30 4497 H 409.294 -0.178299 3.66166 0
M  V30 4498 H 408.942 -2.56301 4.32804 0
M  V30 4499 H 408.642 -1.45747 5.69238 0
M  V30 4500 H 410.166 -2.38709 5.62006 0
M  V30 4501 H 411.58 -0.118407 5.73178 0
M  V30 4502 H 409.977 0.636974 5.9671 0
M  V30 4503 H 411.047 1.23883 4.68808 0
M  V30 4504 N 412.39 -1.55475 0.257931 0
M  V30 4505 C 413.636 -1.99502 -0.364266 0
M  V30 4506 C 413.969 -1.146 -1.56782 0
M  V30 4507 O 413.244 -0.211968 -1.93342 0
M  V30 4508 C 413.527 -3.51917 -0.763333 0
M  V30 4509 C 413.38 -4.4758 0.446371 0
M  V30 4510 C 414.699 -4.09742 -1.60623 0
M  V30 4511 H 411.818 -0.725277 -0.130929 0
M  V30 4512 H 414.46 -1.8653 0.361446 0
M  V30 4513 H 412.61 -3.63101 -1.38166 0
M  V30 4514 H 414.282 -4.48362 1.08487 0
M  V30 4515 H 412.525 -4.19947 1.08753 0
M  V30 4516 H 413.196 -5.51862 0.123645 0
M  V30 4517 H 415.672 -4.01727 -1.08418 0
M  V30 4518 H 414.548 -5.16631 -1.85429 0
M  V30 4519 H 414.809 -3.58889 -2.58169 0
M  V30 4520 N 413.868 0.0150385 -1.57593 0
M  V30 4521 C 415.284 0.370907 -1.5523 0
M  V30 4522 C 415.484 1.75735 -0.985882 0
M  V30 4523 O 414.54 2.44944 -0.613077 0
M  V30 4524 C 415.853 0.259908 -2.99575 0
M  V30 4525 C 417.401 0.335959 -3.11192 0
M  V30 4526 C 417.876 0.254253 -4.57294 0
M  V30 4527 N 419.367 0.312618 -4.62144 0
M  V30 4528 C 420.102 0.272505 -5.72752 0
M  V30 4529 N 419.598 0.183864 -6.92556 0
M  V30 4530 N 421.391 0.323267 -5.6117 0
M  V30 4531 H 413.542 -0.892104 -1.92757 0
M  V30 4532 H 415.805 -0.340563 -0.884715 0
M  V30 4533 H 415.511 -0.693403 -3.44797 0
M  V30 4534 H 415.385 1.048 -3.62349 0
M  V30 4535 H 417.772 1.27971 -2.65909 0
M  V30 4536 H 417.853 -0.481739 -2.51223 0
M  V30 4537 H 417.497 -0.685887 -5.03247 0
M  V30 4538 H 417.427 1.09024 -5.15191 0
M  V30 4539 H 419.918 0.38307 -3.75953 0
M  V30 4540 H 420.231 0.15874 -7.72637 0
M  V30 4541 H 418.576 0.149708 -6.94839 0
M  V30 4542 H 421.767 0.390607 -4.66467 0
M  V30 4543 H 421.94 0.288539 -6.47357 0
M  V30 4544 N 415.346 1.54954 0.287554 0
M  V30 4545 C 416.592 1.76059 1.01856 0
M  V30 4546 C 416.947 0.547056 1.84459 0
M  V30 4547 O 416.24 -0.460442 1.85985 0
M  V30 4548 C 416.434 2.99833 1.94512 0
M  V30 4549 C 416.263 4.33108 1.21026 0
M  V30 4550 C 415.033 4.96632 0.931896 0
M  V30 4551 C 417.231 5.10694 0.607949 0
M  V30 4552 N 415.213 6.13668 0.168716 0
M  V30 4553 C 416.584 6.19996 -0.0217865 0
M  V30 4554 C 418.639 4.95236 0.514338 0
M  V30 4555 C 417.342 7.15524 -0.736092 0
M  V30 4556 C 419.368 5.91106 -0.186343 0
M  V30 4557 C 418.73 6.99786 -0.804875 0
M  V30 4558 H 414.829 0.696679 0.355193 0
M  V30 4559 H 417.413 1.92441 0.295741 0
M  V30 4560 H 415.584 2.84853 2.64033 0
M  V30 4561 H 417.316 3.09405 2.60865 0
M  V30 4562 H 414.071 4.57255 1.23348 0
M  V30 4563 H 414.495 6.76705 -0.199781 0
M  V30 4564 H 419.137 4.11328 0.978234 0
M  V30 4565 H 416.855 7.98964 -1.21172 0
M  V30 4566 H 420.441 5.81224 -0.258897 0
M  V30 4567 H 419.321 7.72694 -1.33843 0
M  V30 4568 N 416.824 -0.551391 1.4764 0
M  V30 4569 C 417.754 -1.66757 1.63445 0
M  V30 4570 C 418.735 -1.63077 0.483742 0
M  V30 4571 O 419.92 -1.80607 0.71377 0
M  V30 4572 C 417.05 -3.05387 1.65396 0
M  V30 4573 C 416.004 -3.23918 2.79752 0
M  V30 4574 C 415.33 -4.63393 2.66779 0
M  V30 4575 C 416.63 -3.08735 4.21284 0
M  V30 4576 H 418.324 -1.53786 2.56886 0
M  V30 4577 H 415.87 -0.738415 1.23626 0
M  V30 4578 H 417.823 -3.83325 1.75043 0
M  V30 4579 H 416.547 -3.19332 0.685195 0
M  V30 4580 H 415.206 -2.48391 2.69625 0
M  V30 4581 H 414.854 -4.74144 1.67918 0
M  V30 4582 H 414.554 -4.7674 3.43501 0
M  V30 4583 H 416.078 -5.43458 2.78364 0
M  V30 4584 H 417.492 -3.76484 4.32357 0
M  V30 4585 H 415.889 -3.33588 4.98838 0
M  V30 4586 H 416.959 -2.0541 4.39243 0
M  V30 4587 N 418.302 -1.35869 -0.798587 0
M  V30 4588 C 419.249 -1.29446 -1.91082 0
M  V30 4589 C 420.219 -0.16487 -1.6528 0
M  V30 4590 O 421.404 -0.349888 -1.87564 0
M  V30 4591 C 418.544 -1.0804 -3.27752 0
M  V30 4592 C 417.657 -2.29993 -3.65687 0
M  V30 4593 C 416.792 -2.01673 -4.91428 0
M  V30 4594 C 415.831 -3.19636 -5.22015 0
M  V30 4595 N 414.968 -2.91039 -6.38937 0
M  V30 4596 H 419.808 -2.24553 -1.95907 0
M  V30 4597 H 417.345 -1.11615 -0.958148 0
M  V30 4598 H 419.303 -0.936586 -4.06551 0
M  V30 4599 H 417.933 -0.16592 -3.22373 0
M  V30 4600 H 416.985 -2.55211 -2.82085 0
M  V30 4601 H 418.297 -3.18052 -3.84245 0
M  V30 4602 H 417.451 -1.84168 -5.78072 0
M  V30 4603 H 416.19 -1.10911 -4.74921 0
M  V30 4604 H 415.195 -3.37709 -4.33858 0
M  V30 4605 H 416.42 -4.11211 -5.40447 0
M  V30 4606 H 414.366 -2.0288 -6.2384 0
M  V30 4607 H 414.283 -3.72635 -6.57784 0
M  V30 4608 H 415.551 -2.77093 -7.28587 0
M  V30 4609 N 419.78 1.02168 -1.19998 0
M  V30 4610 C 421.026 1.75945 -1.00852 0
M  V30 4611 C 421.359 1.88702 0.458828 0
M  V30 4612 O 420.634 1.40911 1.34069 0
M  V30 4613 C 420.917 3.18154 -1.68671 0
M  V30 4614 C 420.77 3.13224 -3.22817 0
M  V30 4615 C 422.089 4.16711 -1.41561 0
M  V30 4616 H 419.208 0.638673 -0.367785 0
M  V30 4617 H 421.85 1.19222 -1.4794 0
M  V30 4618 H 420 3.66586 -1.28636 0
M  V30 4619 H 421.672 2.72635 -3.72112 0
M  V30 4620 H 419.915 2.50751 -3.53986 0
M  V30 4621 H 420.586 4.13728 -3.65422 0
M  V30 4622 H 423.062 3.76913 -1.76284 0
M  V30 4623 H 421.938 5.14391 -1.91553 0
M  V30 4624 H 422.199 4.40774 -0.342193 0
M  V30 4625 N 421.258 1.00505 1.21394 0
M  V30 4626 C 422.206 0.558623 2.25792 0
M  V30 4627 C 423.2 -0.396848 1.64686 0
M  V30 4628 O 424.406 -0.268035 1.77993 0
M  V30 4629 H 420.781 0.1623 0.734277 0
M  V30 4630 H 422.752 1.4503 2.60785 0
M  V30 4631 C 421.501 -0.0989574 3.47559 0
M  V30 4632 H 420.824 0.627225 3.94849 0
M  V30 4633 H 422.264 -0.3746 4.22342 0
M  V30 4634 C 420.723 -1.33817 3.09184 0
M  V30 4635 O 421.253 -2.43252 3.19674 0
M  V30 4636 N 419.459 -1.21793 2.63846 0
M  V30 4637 H 419.006 -0.32746 2.5551 0
M  V30 4638 H 418.964 -2.04809 2.38539 0
M  V30 4639 N 422.737 -1.36956 0.779787 0
M  V30 4640 C 423.984 -1.99491 0.347766 0
M  V30 4641 C 424.312 -1.61898 -1.07793 0
M  V30 4642 O 423.567 -0.86071 -1.75756 0
M  V30 4643 C 423.866 -3.54585 0.447686 0
M  V30 4644 C 423.532 -4.1197 1.83279 0
M  V30 4645 C 422.194 -4.27356 2.2118 0
M  V30 4646 C 424.546 -4.43354 2.74019 0
M  V30 4647 C 421.874 -4.71432 3.4924 0
M  V30 4648 C 424.226 -4.88858 4.01497 0
M  V30 4649 C 422.89 -5.0245 4.39432 0
M  V30 4650 H 422.16 -0.729991 0.127257 0
M  V30 4651 H 424.807 -1.63599 0.995376 0
M  V30 4652 H 423.112 -3.90773 -0.283447 0
M  V30 4653 H 424.809 -4.00888 0.0945948 0
M  V30 4654 H 421.399 -4.00428 1.52825 0
M  V30 4655 H 425.583 -4.31045 2.45995 0
M  V30 4656 H 420.839 -4.80141 3.78516 0
M  V30 4657 H 425.013 -5.12108 4.71931 0
M  V30 4658 H 422.64 -5.36362 5.38721 0
M  V30 4659 N 424.215 -0.530993 -1.48385 0
M  V30 4660 C 425.44 0.000729535 -2.074 0
M  V30 4661 C 425.865 1.27298 -1.3848 0
M  V30 4662 O 425.223 1.75599 -0.451081 0
M  V30 4663 C 425.271 0.206697 -3.60007 0
M  V30 4664 O 424.375 1.27514 -3.92191 0
M  V30 4665 H 423.716 -0.039583 -0.662819 0
M  V30 4666 H 426.246 -0.739194 -1.9078 0
M  V30 4667 H 426.256 0.42904 -4.05738 0
M  V30 4668 H 424.931 -0.722675 -4.09573 0
M  V30 4669 H 423.508 1.03537 -3.58238 0
M  V30 4670 N 425.693 1.55336 -0.266172 0
M  V30 4671 C 426.603 2.2583 0.635458 0
M  V30 4672 C 427.619 1.28106 1.17749 0
M  V30 4673 O 428.795 1.61024 1.20968 0
M  V30 4674 C 425.86 2.95879 1.80712 0
M  V30 4675 C 424.921 4.09059 1.30265 0
M  V30 4676 C 424.154 4.75759 2.41846 0
M  V30 4677 O 424.377 4.41622 3.61007 0
M  V30 4678 O 423.311 5.63888 2.1051 0
M  V30 4679 H 427.137 3.03631 0.0646693 0
M  V30 4680 H 424.722 1.49361 -0.0339177 0
M  V30 4681 H 426.604 3.39932 2.49047 0
M  V30 4682 H 425.279 2.21002 2.36516 0
M  V30 4683 H 424.186 3.69482 0.586019 0
M  V30 4684 H 425.519 4.85811 0.790458 0
M  V30 4685 N 427.171 -0.0066808 1.57599 0
M  V30 4686 C 428.134 -0.985035 2.06953 0
M  V30 4687 C 429.134 -1.27663 0.977687 0
M  V30 4688 O 430.324 -1.22293 1.24057 0
M  V30 4689 C 427.456 -2.3118 2.50536 0
M  V30 4690 H 428.649 -0.558255 2.94658 0
M  V30 4691 H 426.202 -0.254011 1.54222 0
M  V30 4692 H 426.937 -2.78561 1.66054 0
M  V30 4693 H 426.722 -2.11338 3.3027 0
M  V30 4694 H 428.212 -3.01377 2.8907 0
M  V30 4695 N 428.649 -1.55105 -0.279332 0
M  V30 4696 C 429.896 -1.75412 -1.01177 0
M  V30 4697 C 430.224 -0.551728 -1.86511 0
M  V30 4698 O 429.479 0.465919 -1.90073 0
M  V30 4699 C 429.778 -3.0086 -1.92919 0
M  V30 4700 C 429.444 -4.33689 -1.23387 0
M  V30 4701 C 428.106 -4.69792 -1.04159 0
M  V30 4702 C 430.458 -5.15941 -0.738562 0
M  V30 4703 C 427.786 -5.85707 -0.341166 0
M  V30 4704 C 430.138 -6.32579 -0.0517636 0
M  V30 4705 C 428.802 -6.67326 0.152292 0
M  V30 4706 H 428.072 -0.641879 -0.370233 0
M  V30 4707 H 430.719 -1.89373 -0.284627 0
M  V30 4708 H 429.024 -2.81773 -2.72234 0
M  V30 4709 H 430.721 -3.13768 -2.49701 0
M  V30 4710 H 427.311 -4.05309 -1.39364 0
M  V30 4711 H 431.495 -4.8853 -0.874764 0
M  V30 4712 H 426.751 -6.11157 -0.172287 0
M  V30 4713 H 430.925 -6.9557 0.339828 0
M  V30 4714 H 428.552 -7.56998 0.697014 0
M  V30 4715 N 430.127 0.543554 -1.4793 0
M  V30 4716 C 431.376 1.29649 -1.54512 0
M  V30 4717 C 431.689 1.94382 -0.217973 0
M  V30 4718 O 432.895 2.71017 -0.161908 0
M  V30 4719 C 431.351 2.35175 -2.72435 0
M  V30 4720 C 430.959 1.76572 -4.11736 0
M  V30 4721 C 432.703 3.11564 -2.8832 0
M  V30 4722 C 430.61 2.79958 -5.20939 0
M  V30 4723 H 429.54 0.487541 -0.57517 0
M  V30 4724 H 432.191 0.575708 -1.74235 0
M  V30 4725 H 430.573 3.10229 -2.46118 0
M  V30 4726 H 431.747 1.07799 -4.48013 0
M  V30 4727 H 430.062 1.12722 -4.00852 0
M  V30 4728 H 432.659 3.88794 -3.67074 0
M  V30 4729 H 433.002 3.66594 -1.97268 0
M  V30 4730 H 433.535 2.43623 -3.14472 0
M  V30 4731 H 430.274 2.29766 -6.13912 0
M  V30 4732 H 429.794 3.47101 -4.89164 0
M  V30 4733 H 431.473 3.43198 -5.48474 0
M  V30 4734 N 431.605 1.3629 0.791371 0
M  V30 4735 C 432.568 1.30309 1.88553 0
M  V30 4736 C 433.568 0.211204 1.59407 0
M  V30 4737 O 434.758 0.465865 1.67855 0
M  V30 4738 C 431.89 1.01956 3.25297 0
M  V30 4739 H 433.083 2.27614 1.95273 0
M  V30 4740 H 430.636 1.21035 0.988953 0
M  V30 4741 H 431.371 0.050998 3.2426 0
M  V30 4742 H 431.156 1.80968 3.4784 0
M  V30 4743 H 432.646 1.0037 4.05359 0
M  V30 4744 N 433.083 -1.0153 1.20538 0
M  V30 4745 C 434.329 -1.75517 1.02787 0
M  V30 4746 C 434.684 -1.87411 -0.435289 0
M  V30 4747 O 433.977 -1.38982 -1.31889 0
M  V30 4748 C 434.171 -3.17213 1.64654 0
M  V30 4749 C 434 -3.19134 3.16834 0
M  V30 4750 C 432.77 -3.26301 3.85818 0
M  V30 4751 C 434.968 -3.05077 4.14044 0
M  V30 4752 N 432.95 -3.17739 5.25276 0
M  V30 4753 C 434.321 -3.04299 5.40187 0
M  V30 4754 C 436.376 -2.89303 4.05226 0
M  V30 4755 C 435.079 -2.89365 6.58529 0
M  V30 4756 C 437.105 -2.75723 5.23193 0
M  V30 4757 C 436.467 -2.75612 6.48242 0
M  V30 4758 H 432.566 -0.652919 0.430373 0
M  V30 4759 H 435.15 -1.20755 1.52729 0
M  V30 4760 H 433.321 -3.70266 1.17294 0
M  V30 4761 H 435.053 -3.79637 1.40208 0
M  V30 4762 H 431.808 -3.33078 3.36684 0
M  V30 4763 H 432.232 -3.16829 5.98288 0
M  V30 4764 H 436.874 -2.88201 3.09354 0
M  V30 4765 H 434.592 -2.89216 7.54573 0
M  V30 4766 H 438.178 -2.64533 5.18183 0
M  V30 4767 H 437.058 -2.65224 7.37988 0
M  V30 4768 N 434.561 -1.01147 -1.20859 0
M  V30 4769 C 435.81 -0.693214 -1.89413 0
M  V30 4770 C 436.123 0.779969 -1.79376 0
M  V30 4771 O 437.329 1.21057 -2.43017 0
M  V30 4772 C 435.785 -1.18949 -3.39675 0
M  V30 4773 C 435.393 -2.68921 -3.58309 0
M  V30 4774 C 437.137 -0.94642 -4.13815 0
M  V30 4775 C 435.044 -3.12056 -5.0237 0
M  V30 4776 H 433.974 -0.255595 -0.709357 0
M  V30 4777 H 436.625 -1.22349 -1.36759 0
M  V30 4778 H 435.007 -0.587228 -3.91622 0
M  V30 4779 H 436.181 -3.34652 -3.16772 0
M  V30 4780 H 434.496 -2.91314 -2.97532 0
M  V30 4781 H 437.093 -1.24417 -5.20023 0
M  V30 4782 H 437.436 0.117219 -4.16135 0
M  V30 4783 H 437.969 -1.5118 -3.67953 0
M  V30 4784 H 434.708 -4.17674 -5.05202 0
M  V30 4785 H 434.228 -2.51041 -5.44737 0
M  V30 4786 H 435.907 -3.04403 -5.70918 0
M  V30 4787 N 436.039 1.36541 -0.78704 0
M  V30 4788 C 436.989 2.27459 -0.156957 0
M  V30 4789 C 437.973 1.46843 0.657709 0
M  V30 4790 O 439.165 1.69245 0.518173 0
M  V30 4791 C 436.294 3.35893 0.709278 0
M  V30 4792 C 435.38 4.23947 -0.114049 0
M  V30 4793 N 435.771 4.92145 -1.16736 0
M  V30 4794 C 434.069 4.4587 0.107497 0
M  V30 4795 C 434.77 5.57261 -1.66837 0
M  V30 4796 N 433.746 5.3473 -0.977992 0
M  V30 4797 H 437.548 2.77669 -0.963185 0
M  V30 4798 H 435.062 1.49839 -0.62627 0
M  V30 4799 H 437.059 3.99953 1.17656 0
M  V30 4800 H 435.719 2.87238 1.51408 0
M  V30 4801 H 436.73 4.94169 -1.54976 0
M  V30 4802 H 433.407 4.08056 0.882994 0
M  V30 4803 H 434.797 6.21728 -2.54762 0
M  V30 4804 N 437.518 0.538854 1.48102 0
M  V30 4805 C 438.764 0.00801365 2.02798 0
M  V30 4806 C 439.097 -1.3309 1.41424 0
M  V30 4807 O 438.372 -1.86169 0.563158 0
M  V30 4808 C 438.655 -0.104589 3.59948 0
M  V30 4809 C 438.508 1.26012 4.31788 0
M  V30 4810 C 439.827 -0.827055 4.32259 0
M  V30 4811 H 436.946 0.00438624 0.736987 0
M  V30 4812 H 439.588 0.6976 1.7673 0
M  V30 4813 H 437.738 -0.691893 3.82289 0
M  V30 4814 H 439.41 1.88922 4.2084 0
M  V30 4815 H 437.653 1.83968 3.92859 0
M  V30 4816 H 438.324 1.13424 5.40221 0
M  V30 4817 H 440.8 -0.328578 4.14801 0
M  V30 4818 H 439.676 -0.87476 5.41885 0
M  V30 4819 H 439.937 -1.87927 4.0017 0
M  V30 4820 N 438.996 -1.55193 0.274407 0
M  V30 4821 C 439.943 -2.225 -0.613374 0
M  V30 4822 C 440.913 -1.19823 -1.15029 0
M  V30 4823 O 442.098 -1.48362 -1.19973 0
M  V30 4824 C 439.238 -2.94927 -1.79199 0
M  V30 4825 C 438.351 -4.12322 -1.28899 0
M  V30 4826 C 437.486 -4.72394 -2.42934 0
M  V30 4827 C 436.525 -5.81984 -1.89634 0
M  V30 4828 N 435.662 -6.36123 -2.9714 0
M  V30 4829 H 440.502 -2.97982 -0.032756 0
M  V30 4830 H 438.039 -1.47099 -0.00440146 0
M  V30 4831 H 439.997 -3.35134 -2.48478 0
M  V30 4832 H 438.627 -2.2187 -2.34465 0
M  V30 4833 H 437.679 -3.7724 -0.489327 0
M  V30 4834 H 438.991 -4.91355 -0.858587 0
M  V30 4835 H 438.145 -5.15317 -3.20208 0
M  V30 4836 H 436.884 -3.92636 -2.8929 0
M  V30 4837 H 435.889 -5.38511 -1.1084 0
M  V30 4838 H 437.114 -6.6361 -1.44215 0
M  V30 4839 H 435.06 -5.59259 -3.42878 0
M  V30 4840 H 434.977 -7.10427 -2.58515 0
M  V30 4841 H 436.245 -6.83704 -3.74391 0
M  V30 4842 N 440.474 -0.00167713 -1.576 0
M  V30 4843 C 441.437 0.974046 -2.07473 0
M  V30 4844 C 442.437 1.27143 -0.984444 0
M  V30 4845 O 443.627 1.21633 -1.24703 0
M  V30 4846 C 440.759 2.29849 -2.51759 0
M  V30 4847 H 441.952 0.54262 -2.9495 0
M  V30 4848 H 439.505 0.245829 -1.54355 0
M  V30 4849 H 440.24 2.77677 -1.67529 0
M  V30 4850 H 440.025 2.09584 -3.31386 0
M  V30 4851 H 441.515 2.9984 -2.90664 0
M  V30 4852 N 441.952 1.55251 0.271103 0
M  V30 4853 C 442.882 1.9127 1.33933 0
M  V30 4854 C 443.863 0.77478 1.5143 0
M  V30 4855 O 445.048 1.03307 1.64442 0
M  V30 4856 C 442.178 2.18627 2.69851 0
M  V30 4857 C 441.132 3.34442 2.67081 0
M  V30 4858 C 440.458 3.47284 4.06569 0
M  V30 4859 C 441.758 4.70784 2.26185 0
M  V30 4860 H 443.452 2.80744 1.04035 0
M  V30 4861 H 440.998 1.35077 0.499017 0
M  V30 4862 H 442.951 2.42413 3.44694 0
M  V30 4863 H 441.675 1.25955 3.01335 0
M  V30 4864 H 440.334 3.10627 1.94695 0
M  V30 4865 H 439.982 2.52074 4.35279 0
M  V30 4866 H 439.682 4.25152 4.0561 0
M  V30 4867 H 441.206 3.73363 4.83148 0
M  V30 4868 H 442.62 4.94102 2.90751 0
M  V30 4869 H 441.017 5.51582 2.36384 0
M  V30 4870 H 442.087 4.69478 1.21319 0
M  V30 4871 N 443.43 -0.535701 1.48216 0
M  V30 4872 C 444.846 -0.863701 1.3421 0
M  V30 4873 C 445.046 -1.98458 0.34879 0
M  V30 4874 O 444.102 -2.51432 -0.23204 0
M  V30 4875 C 445.415 -1.23662 2.74095 0
M  V30 4876 C 446.963 -1.34683 2.82541 0
M  V30 4877 C 447.438 -1.75322 4.23115 0
M  V30 4878 N 448.929 -1.82434 4.2576 0
M  V30 4879 C 449.664 -2.15252 5.31464 0
M  V30 4880 N 449.16 -2.46533 6.47452 0
M  V30 4881 N 450.953 -2.16209 5.18855 0
M  V30 4882 H 443.104 0.203965 2.11418 0
M  V30 4883 H 445.367 0.0286033 0.947568 0
M  V30 4884 H 445.073 -0.486674 3.48316 0
M  V30 4885 H 444.947 -2.18805 3.07253 0
M  V30 4886 H 447.334 -2.08756 2.08579 0
M  V30 4887 H 447.415 -0.376756 2.5301 0
M  V30 4888 H 447.059 -1.01812 4.97591 0
M  V30 4889 H 446.989 -2.7337 4.50085 0
M  V30 4890 H 449.48 -1.6056 3.42095 0
M  V30 4891 H 449.793 -2.70662 7.23852 0
M  V30 4892 H 448.138 -2.44065 6.50736 0
M  V30 4893 H 451.329 -1.91224 4.2726 0
M  V30 4894 H 451.502 -2.41453 6.01335 0
M  V30 4895 N 444.908 -1.36708 -0.784132 0
M  V30 4896 C 446.154 -1.31426 -1.54451 0
M  V30 4897 C 446.487 0.10476 -1.93917 0
M  V30 4898 O 445.762 1.05934 -1.6312 0
M  V30 4899 C 446.045 -2.24189 -2.818 0
M  V30 4900 C 445.898 -3.74813 -2.48667 0
M  V30 4901 C 447.217 -2.15626 -3.83658 0
M  V30 4902 H 444.336 -0.478739 -0.560337 0
M  V30 4903 H 446.978 -1.67305 -0.900498 0
M  V30 4904 H 445.128 -1.93722 -3.36755 0
M  V30 4905 H 446.8 -4.15823 -1.99722 0
M  V30 4906 H 445.043 -3.93989 -1.81535 0
M  V30 4907 H 445.714 -4.35138 -3.39646 0
M  V30 4908 H 448.19 -2.42456 -3.38163 0
M  V30 4909 H 447.066 -2.82694 -4.70506 0
M  V30 4910 H 447.327 -1.14522 -4.27009 0
M  V30 4911 N 446.386 1.0089 -1.21074 0
M  V30 4912 C 447.633 1.74607 -1.0256 0
M  V30 4913 C 447.961 1.89426 0.44136 0
M  V30 4914 O 447.216 1.42266 1.34384 0
M  V30 4915 C 447.515 3.16335 -1.66334 0
M  V30 4916 C 447.181 3.21474 -3.16173 0
M  V30 4917 C 445.843 3.22583 -3.57062 0
M  V30 4918 C 448.195 3.19025 -4.12156 0
M  V30 4919 C 445.523 3.18925 -4.92446 0
M  V30 4920 C 447.875 3.16909 -5.47496 0
M  V30 4921 C 446.539 3.16326 -5.87787 0
M  V30 4922 H 445.809 0.638933 -0.375294 0
M  V30 4923 H 448.456 1.18274 -1.50611 0
M  V30 4924 H 446.761 3.75876 -1.10566 0
M  V30 4925 H 448.458 3.72083 -1.49516 0
M  V30 4926 H 445.048 3.2135 -2.83605 0
M  V30 4927 H 449.232 3.17332 -3.81595 0
M  V30 4928 H 444.488 3.16809 -5.22917 0
M  V30 4929 H 448.662 3.13968 -6.21609 0
M  V30 4930 H 446.289 3.13246 -6.92662 0
M  V30 4931 N 447.864 1.01787 1.20321 0
M  V30 4932 C 449.11 0.708985 1.90003 0
M  V30 4933 C 449.443 -0.759572 1.78729 0
M  V30 4934 O 448.718 -1.55198 1.17234 0
M  V30 4935 C 449.001 1.1469 3.41348 0
M  V30 4936 C 448.854 2.67586 3.61549 0
M  V30 4937 C 450.173 0.71915 4.34185 0
M  V30 4938 H 447.292 0.259034 0.689978 0
M  V30 4939 H 449.934 1.26584 1.41692 0
M  V30 4940 H 448.084 0.673128 3.82624 0
M  V30 4941 H 449.756 3.22826 3.29517 0
M  V30 4942 H 447.999 3.085 3.04976 0
M  V30 4943 H 448.67 2.93281 4.67643 0
M  V30 4944 H 451.146 1.12647 4.00562 0
M  V30 4945 H 450.022 1.05358 5.38694 0
M  V30 4946 H 450.283 -0.379111 4.40472 0
M  V30 4947 N 449.342 -1.36122 0.79427 0
M  V30 4948 C 450.252 -2.33769 0.197296 0
M  V30 4949 C 451.268 -1.61276 -0.653153 0
M  V30 4950 O 452.444 -1.9323 -0.5678 0
M  V30 4951 C 449.509 -3.40474 -0.654098 0
M  V30 4952 C 448.57 -4.28759 0.215411 0
M  V30 4953 C 447.803 -5.30368 -0.595443 0
M  V30 4954 O 448.026 -5.40211 -1.83107 0
M  V30 4955 O 446.96 -6.019 0.00721351 0
M  V30 4956 H 450.786 -2.86597 1.00478 0
M  V30 4957 H 448.371 -1.38676 0.555818 0
M  V30 4958 H 450.253 -4.05703 -1.13944 0
M  V30 4959 H 448.928 -2.89937 -1.43938 0
M  V30 4960 H 447.835 -3.66554 0.747615 0
M  V30 4961 H 449.168 -4.82661 0.964332 0
M  V30 4962 N 450.82 -0.546701 -1.47814 0
M  V30 4963 C 452.045 -0.021268 -2.07389 0
M  V30 4964 C 452.47 1.25822 -1.39822 0
M  V30 4965 O 451.828 1.75111 -0.46968 0
M  V30 4966 C 451.876 0.168502 -3.60206 0
M  V30 4967 O 450.98 1.23347 -3.93522 0
M  V30 4968 H 450.321 -0.0466108 -0.662362 0
M  V30 4969 H 452.851 -0.759387 -1.89985 0
M  V30 4970 H 452.861 0.385982 -4.0617 0
M  V30 4971 H 451.536 -0.766075 -4.08784 0
M  V30 4972 H 450.113 0.997319 -3.59316 0
M  V30 4973 N 452.299 1.55045 -0.282633 0
M  V30 4974 C 453.545 2.00056 0.332481 0
M  V30 4975 C 453.878 1.1708 1.54939 0
M  V30 4976 O 453.153 0.2427 1.9298 0
M  V30 4977 C 453.436 3.53086 0.70725 0
M  V30 4978 C 453.289 4.46813 -0.517521 0
M  V30 4979 C 454.608 4.12245 1.54084 0
M  V30 4980 H 451.727 0.727268 0.119373 0
M  V30 4981 H 454.369 1.85932 -0.391076 0
M  V30 4982 H 452.519 3.65253 1.32372 0
M  V30 4983 H 454.191 4.46579 -1.15607 0
M  V30 4984 H 452.434 4.18163 -1.1542 0
M  V30 4985 H 453.105 5.51595 -0.211426 0
M  V30 4986 H 455.581 4.03401 1.02013 0
M  V30 4987 H 454.457 5.19515 1.77186 0
M  V30 4988 H 454.718 3.62951 2.52427 0
M  V30 4989 N 453.777 0.010035 1.57597 0
M  V30 4990 C 454.707 -0.976857 2.12084 0
M  V30 4991 C 455.688 -1.35191 1.03235 0
M  V30 4992 O 456.873 -1.43389 1.3097 0
M  V30 4993 C 454.003 -2.26548 2.63236 0
M  V30 4994 C 452.957 -2.03175 3.76701 0
M  V30 4995 C 452.283 -3.38138 4.14206 0
M  V30 4996 C 453.583 -1.38625 5.03568 0
M  V30 4997 H 455.277 -0.523145 2.94794 0
M  V30 4998 H 452.823 -0.250195 1.4181 0
M  V30 4999 H 454.776 -2.95952 2.99984 0
M  V30 5000 H 453.5 -2.74051 1.77661 0
M  V30 5001 H 452.159 -1.36195 3.40362 0
M  V30 5002 H 451.807 -3.83363 3.25641 0
M  V30 5003 H 451.507 -3.23312 4.90656 0
M  V30 5004 H 453.031 -4.08841 4.53521 0
M  V30 5005 H 454.445 -1.98 5.38023 0
M  V30 5006 H 452.842 -1.34256 5.84889 0
M  V30 5007 H 453.912 -0.356722 4.83586 0
M  V30 5008 N 455.255 -1.55392 -0.262866 0
M  V30 5009 C 456.671 -1.47459 -0.610582 0
M  V30 5010 C 456.871 -0.697031 -1.8906 0
M  V30 5011 O 455.927 -0.219952 -2.5154 0
M  V30 5012 C 457.24 -2.91751 -0.728131 0
M  V30 5013 C 458.788 -3.02027 -0.821517 0
M  V30 5014 C 459.263 -4.47594 -0.97076 0
M  V30 5015 N 460.754 -4.51465 -1.03603 0
M  V30 5016 C 461.489 -5.61326 -1.17049 0
M  V30 5017 N 460.985 -6.81032 -1.2715 0
M  V30 5018 N 462.778 -5.49089 -1.20239 0
M  V30 5019 H 454.929 -2.04395 0.577632 0
M  V30 5020 H 457.192 -0.927287 0.197086 0
M  V30 5021 H 456.898 -3.51413 0.142132 0
M  V30 5022 H 456.772 -3.4134 -1.6052 0
M  V30 5023 H 459.159 -2.42456 -1.68224 0
M  V30 5024 H 459.24 -2.55674 0.0803688 0
M  V30 5025 H 458.884 -5.07771 -0.114655 0
M  V30 5026 H 458.814 -4.91613 -1.88745 0
M  V30 5027 H 461.305 -3.6524 -0.96996 0
M  V30 5028 H 461.618 -7.60511 -1.37271 0
M  V30 5029 H 459.963 -6.83824 -1.24136 0
M  V30 5030 H 463.154 -4.54507 -1.11985 0
M  V30 5031 H 463.327 -6.34749 -1.30373 0
M  V30 5032 N 456.733 0.527833 -1.48498 0
M  V30 5033 C 457.963 1.30633 -1.60058 0
M  V30 5034 C 458.371 1.87394 -0.260786 0
M  V30 5035 O 457.714 1.67227 0.760317 0
M  V30 5036 C 457.776 2.49361 -2.58958 0
M  V30 5037 C 457.44 2.13671 -4.03972 0
M  V30 5038 C 458.437 1.69217 -4.91591 0
M  V30 5039 C 456.122 2.24129 -4.49524 0
M  V30 5040 C 458.116 1.35689 -6.2279 0
M  V30 5041 C 455.803 1.90212 -5.80743 0
M  V30 5042 C 456.801 1.46063 -6.67199 0
M  V30 5043 O 456.489 1.12593 -7.95976 0
M  V30 5044 H 456.221 0.403444 -0.54241 0
M  V30 5045 H 458.775 0.643233 -1.95068 0
M  V30 5046 H 457.005 3.18659 -2.19073 0
M  V30 5047 H 458.694 3.11421 -2.6033 0
M  V30 5048 H 459.46 1.60607 -4.57636 0
M  V30 5049 H 455.339 2.57447 -3.82416 0
M  V30 5050 H 458.883 1.01157 -6.90227 0
M  V30 5051 H 454.78 1.98464 -6.14233 0
M  V30 5052 H 455.548 1.25972 -8.08748 0
M  V30 5053 N 458.211 1.37122 0.776871 0
M  V30 5054 C 459.459 1.31787 1.53221 0
M  V30 5055 C 459.78 -0.0987589 1.9475 0
M  V30 5056 O 459.05 -1.0417 1.65908 0
M  V30 5057 H 457.63 0.484839 0.568278 0
M  V30 5058 H 460.292 1.71556 0.924917 0
M  V30 5059 H 459.388 1.95355 2.43398 0
M  V30 5060 N 459.689 -1.00246 1.21608 0
M  V30 5061 C 460.619 -2.10921 1.00172 0
M  V30 5062 C 461.6 -1.69938 -0.0741587 0
M  V30 5063 O 462.785 -1.94009 0.0861753 0
M  V30 5064 C 459.915 -3.42618 0.568355 0
M  V30 5065 C 458.869 -3.97407 1.58909 0
M  V30 5066 C 458.195 -5.25038 1.01187 0
M  V30 5067 C 459.495 -4.2918 2.97661 0
M  V30 5068 H 461.189 -2.29112 1.92739 0
M  V30 5069 H 458.735 -1.10101 0.928102 0
M  V30 5070 H 460.688 -4.19444 0.405555 0
M  V30 5071 H 459.412 -3.24227 -0.392961 0
M  V30 5072 H 458.071 -3.22703 1.73949 0
M  V30 5073 H 457.719 -5.02982 0.0421965 0
M  V30 5074 H 457.419 -5.62661 1.6937 0
M  V30 5075 H 458.943 -6.04507 0.860448 0
M  V30 5076 H 460.357 -4.96839 2.86049 0
M  V30 5077 H 458.754 -4.77952 3.6288 0
M  V30 5078 H 459.824 -3.3735 3.48315 0
M  V30 5079 N 461.167 -1.02423 -1.1978 0
M  V30 5080 C 462.578 -0.748389 -1.71044 0
M  V30 5081 C 462.929 0.732398 -1.82017 0
M  V30 5082 O 462.054 1.57116 -1.48807 0
M  V30 5083 C 462.649 -1.35187 -3.1066 0
M  V30 5084 C 461.208 -1.12472 -3.59203 0
M  V30 5085 C 460.355 -1.45283 -2.36195 0
M  V30 5086 H 463.306 -1.19275 -1.04686 0
M  V30 5087 H 463.327 -0.746408 -3.73107 0
M  V30 5088 H 462.839 -2.4296 -3.02642 0
M  V30 5089 H 460.94 -0.0649983 -3.72543 0
M  V30 5090 H 461.053 -1.81016 -4.43588 0
M  V30 5091 H 459.417 -0.872034 -2.39307 0
M  V30 5092 H 460.2 -2.54129 -2.30811 0
M  V30 5093 N 462.645 1.35699 -0.801477 0
M  V30 5094 C 463.891 1.99208 -0.380022 0
M  V30 5095 C 464.224 1.63445 1.04878 0
M  V30 5096 O 463.499 0.895223 1.72673 0
M  V30 5097 C 463.782 3.55755 -0.557708 0
M  V30 5098 C 463.635 4.01332 -2.03107 0
M  V30 5099 C 464.954 4.40096 0.0197968 0
M  V30 5100 H 462.073 0.723667 -0.139552 0
M  V30 5101 H 464.715 1.60928 -1.01006 0
M  V30 5102 H 462.865 3.88494 -0.0213741 0
M  V30 5103 H 464.537 3.79026 -2.62939 0
M  V30 5104 H 462.78 3.52429 -2.52936 0
M  V30 5105 H 463.451 5.10234 -2.1063 0
M  V30 5106 H 465.927 4.13786 -0.438179 0
M  V30 5107 H 464.803 5.48735 -0.134477 0
M  V30 5108 H 465.064 4.2786 1.11303 0
M  V30 5109 N 464.123 0.554532 1.47522 0
M  V30 5110 C 465.071 -0.207765 2.3167 0
M  V30 5111 C 466.065 -0.911914 1.4276 0
M  V30 5112 O 467.271 -0.833504 1.59539 0
M  V30 5113 H 463.646 -0.0858726 0.747081 0
M  V30 5114 H 465.617 0.521178 2.93813 0
M  V30 5115 C 464.366 -1.2263 3.25357 0
M  V30 5116 H 463.689 -0.693887 3.93732 0
M  V30 5117 H 465.129 -1.73062 3.87073 0
M  V30 5118 C 463.588 -2.27278 2.4869 0
M  V30 5119 O 464.118 -3.34156 2.22941 0
M  V30 5120 N 462.324 -2.01134 2.09746 0
M  V30 5121 H 461.871 -1.14232 2.30887 0
M  V30 5122 H 461.829 -2.71369 1.58765 0
M  V30 5123 N 465.601 -1.54893 0.290851 0
M  V30 5124 C 466.848 -1.99933 -0.321391 0
M  V30 5125 C 467.176 -1.17927 -1.54672 0
M  V30 5126 O 466.431 -0.240902 -1.94212 0
M  V30 5127 C 466.73 -3.49815 -0.732397 0
M  V30 5128 C 466.396 -4.4921 0.390056 0
M  V30 5129 C 465.058 -4.76107 0.698223 0
M  V30 5130 C 467.41 -5.08453 1.14562 0
M  V30 5131 C 464.738 -5.59514 1.76526 0
M  V30 5132 C 467.09 -5.9302 2.2025 0
M  V30 5133 C 465.754 -6.18232 2.51684 0
M  V30 5134 H 465.024 -0.731608 -0.117605 0
M  V30 5135 H 467.671 -1.87107 0.407839 0
M  V30 5136 H 465.976 -3.60199 -1.54155 0
M  V30 5137 H 467.673 -3.82083 -1.21712 0
M  V30 5138 H 464.263 -4.28372 0.13976 0
M  V30 5139 H 468.447 -4.87683 0.920801 0
M  V30 5140 H 463.703 -5.77289 2.01364 0
M  V30 5141 H 467.877 -6.37955 2.7926 0
M  V30 5142 H 465.504 -6.82653 3.34499 0
M  V30 5143 N 467.08 -0.0183926 -1.57589 0
M  V30 5144 C 468.012 0.995557 -2.06449 0
M  V30 5145 C 469.025 1.29556 -0.985849 0
M  V30 5146 O 470.214 1.2621 -1.26227 0
M  V30 5147 C 467.314 2.32572 -2.46502 0
M  V30 5148 C 466.487 2.21245 -3.77319 0
M  V30 5149 C 465.546 3.37104 -4.04039 0
M  V30 5150 O 464.572 3.14468 -4.74445 0
M  V30 5151 N 465.774 4.60553 -3.53372 0
M  V30 5152 H 468.539 0.578746 -2.94059 0
M  V30 5153 H 466.1 0.168603 -1.6102 0
M  V30 5154 H 468.092 3.08887 -2.61478 0
M  V30 5155 H 466.662 2.65931 -1.64315 0
M  V30 5156 H 465.882 1.29723 -3.72244 0
M  V30 5157 H 467.17 2.10868 -4.63047 0
M  V30 5158 H 466.568 4.81839 -2.96391 0
M  V30 5159 H 465.125 5.34072 -3.73644 0
M  V30 5160 N 468.558 1.5553 0.254621 0
M  V30 5161 C 469.521 1.88872 1.29846 0
M  V30 5162 C 470.521 0.764591 1.41459 0
M  V30 5163 O 471.711 1.03265 1.40293 0
M  V30 5164 C 468.843 2.11032 2.67728 0
M  V30 5165 H 470.036 2.82201 1.01502 0
M  V30 5166 H 467.589 1.48303 0.493556 0
M  V30 5167 H 468.324 1.20146 3.01223 0
M  V30 5168 H 468.109 2.92895 2.60682 0
M  V30 5169 H 469.599 2.38038 3.43115 0
M  V30 5170 N 470.036 -0.519951 1.48776 0
M  V30 5171 C 470.969 -1.64053 1.58625 0
M  V30 5172 C 471.947 -1.5664 0.43618 0
M  V30 5173 O 473.131 -1.76969 0.649159 0
M  V30 5174 C 470.258 -3.02497 1.52359 0
M  V30 5175 C 469.304 -3.28235 2.72331 0
M  V30 5176 S 470.137 -3.13414 4.34203 0
M  V30 5177 C 471.293 -4.54287 4.30551 0
M  V30 5178 H 471.526 -1.5545 2.53422 0
M  V30 5179 H 469.059 -0.703681 1.37433 0
M  V30 5180 H 471.017 -3.82336 1.4943 0
M  V30 5181 H 469.678 -3.08531 0.588824 0
M  V30 5182 H 468.871 -4.29256 2.64113 0
M  V30 5183 H 468.473 -2.56085 2.72574 0
M  V30 5184 H 470.765 -5.46006 4.01103 0
M  V30 5185 H 471.708 -4.67558 5.31785 0
M  V30 5186 H 472.116 -4.34079 3.60881 0
M  V30 5187 N 471.514 -1.37532 -0.769588 0
M  V30 5188 C 472.444 -1.36172 -1.89682 0
M  V30 5189 C 473.425 -0.23001 -1.68538 0
M  V30 5190 O 474.61 -0.43069 -1.89364 0
M  V30 5191 C 471.74 -1.1701 -3.26995 0
M  V30 5192 C 470.694 -2.27216 -3.62708 0
M  V30 5193 C 470.02 -1.93174 -4.98586 0
M  V30 5194 C 471.32 -3.6941 -3.69234 0
M  V30 5195 H 473.014 -2.30499 -1.91078 0
M  V30 5196 H 470.56 -1.10953 -0.917902 0
M  V30 5197 H 472.513 -1.14688 -4.05493 0
M  V30 5198 H 471.237 -0.191395 -3.26039 0
M  V30 5199 H 469.896 -2.28697 -2.86519 0
M  V30 5200 H 469.544 -0.938281 -4.94171 0
M  V30 5201 H 469.244 -2.66973 -5.23449 0
M  V30 5202 H 470.768 -1.92443 -5.79481 0
M  V30 5203 H 472.182 -3.70047 -4.37879 0
M  V30 5204 H 470.579 -4.4228 -4.05597 0
M  V30 5205 H 471.649 -4.0288 -2.69844 0
M  V30 5206 N 472.992 0.995999 -1.22138 0
M  V30 5207 C 473.922 2.10387 -1.01289 0
M  V30 5208 C 474.903 1.69975 0.0651454 0
M  V30 5209 O 476.088 1.9396 -0.0964628 0
M  V30 5210 C 473.218 3.42312 -0.586517 0
M  V30 5211 C 472.172 3.96558 -1.61014 0
M  V30 5212 C 471.498 5.24494 -1.0397 0
M  V30 5213 C 472.798 4.27595 -2.99933 0
M  V30 5214 H 474.492 2.28086 -1.93951 0
M  V30 5215 H 472.038 1.09607 -0.933928 0
M  V30 5216 H 473.991 4.19223 -0.427793 0
M  V30 5217 H 472.715 3.24431 0.375761 0
M  V30 5218 H 471.374 3.21776 -1.75658 0
M  V30 5219 H 471.022 5.02953 -0.0688703 0
M  V30 5220 H 470.722 5.61755 -1.72352 0
M  V30 5221 H 472.246 6.04042 -0.892494 0
M  V30 5222 H 473.66 4.95315 -2.8868 0
M  V30 5223 H 472.057 4.76021 -3.6541 0
M  V30 5224 H 473.127 3.35498 -3.50099 0
M  V30 5225 N 474.47 1.03057 1.19235 0
M  V30 5226 C 475.402 0.570932 2.21975 0
M  V30 5227 C 476.415 -0.354088 1.58903 0
M  V30 5228 O 477.604 -0.150211 1.77867 0
M  V30 5229 C 474.704 -0.187152 3.38383 0
M  V30 5230 C 473.877 0.743231 4.31039 0
M  V30 5231 C 472.936 0.0302493 5.26191 0
M  V30 5232 O 471.962 0.657371 5.65391 0
M  V30 5233 N 473.164 -1.23991 5.67104 0
M  V30 5234 H 475.929 1.45456 2.62036 0
M  V30 5235 H 473.49 0.909807 1.33918 0
M  V30 5236 H 475.482 -0.673715 3.99053 0
M  V30 5237 H 474.052 -0.972205 2.97098 0
M  V30 5238 H 473.272 1.40985 3.68126 0
M  V30 5239 H 474.56 1.3755 4.89854 0
M  V30 5240 H 473.958 -1.77011 5.37293 0
M  V30 5241 H 472.515 -1.67093 6.30018 0
M  V30 5242 N 475.948 -1.35272 0.808662 0
M  V30 5243 C 477.359 -1.81179 0.450688 0
M  V30 5244 C 477.71 -1.67143 -1.02751 0
M  V30 5245 O 476.835 -1.20325 -1.79864 0
M  V30 5246 C 477.43 -3.28943 0.811275 0
M  V30 5247 C 475.989 -3.72985 0.505871 0
M  V30 5248 C 475.136 -2.57229 1.03578 0
M  V30 5249 H 478.087 -1.2322 1.00012 0
M  V30 5250 H 478.108 -3.80342 0.109588 0
M  V30 5251 H 477.62 -3.39127 1.88718 0
M  V30 5252 H 475.721 -3.68349 -0.561209 0
M  V30 5253 H 475.834 -4.67677 1.03995 0
M  V30 5254 H 474.198 -2.50548 0.458005 0
M  V30 5255 H 474.981 -2.7019 2.11784 0
M  V30 5256 N 477.426 -0.562348 -1.47226 0
M  V30 5257 C 478.374 0.195476 -2.31777 0
M  V30 5258 C 479.368 0.90433 -1.43242 0
M  V30 5259 O 480.574 0.825031 -1.59979 0
M  V30 5260 H 476.949 0.0819095 -0.747526 0
M  V30 5261 H 478.92 -0.536753 -2.93533 0
M  V30 5262 C 477.669 1.20902 -3.26003 0
M  V30 5263 H 476.992 0.672997 -3.94095 0
M  V30 5264 H 478.432 1.71006 -3.87986 0
M  V30 5265 C 476.891 2.25955 -2.49891 0
M  V30 5266 O 477.421 3.32969 -2.2471 0
M  V30 5267 N 475.627 2.00019 -2.1081 0
M  V30 5268 H 475.174 1.13006 -2.31489 0
M  V30 5269 H 475.132 2.70523 -1.60201 0
M  V30 5270 N 478.904 1.54736 -0.299062 0
M  V30 5271 C 479.851 2.23448 0.577899 0
M  V30 5272 C 480.821 1.21637 1.13109 0
M  V30 5273 O 482.006 1.50252 1.17597 0
M  V30 5274 C 479.146 2.9774 1.74484 0
M  V30 5275 C 478.259 4.1432 1.22323 0
M  V30 5276 C 477.394 4.76199 2.35388 0
M  V30 5277 C 476.433 5.84927 1.80351 0
M  V30 5278 N 475.57 6.4077 2.86982 0
M  V30 5279 H 480.41 2.97996 -0.0146545 0
M  V30 5280 H 477.947 1.47088 -0.0190013 0
M  V30 5281 H 479.905 3.39045 2.43114 0
M  V30 5282 H 478.535 2.25572 2.30905 0
M  V30 5283 H 477.587 3.7797 0.429249 0
M  V30 5284 H 478.899 4.92659 0.780309 0
M  V30 5285 H 478.053 5.20346 3.11969 0
M  V30 5286 H 476.792 3.97188 2.83006 0
M  V30 5287 H 475.797 5.40207 1.02259 0
M  V30 5288 H 477.022 6.65821 1.3364 0
M  V30 5289 H 474.968 5.64643 3.33938 0
M  V30 5290 H 474.885 7.1445 2.4718 0
M  V30 5291 H 476.153 6.89574 3.63466 0
M  V30 5292 N 480.382 0.0267497 1.57577 0
M  V30 5293 C 481.329 -0.955894 2.10075 0
M  V30 5294 C 482.299 -1.32453 1.00226 0
M  V30 5295 O 483.484 -1.41826 1.27632 0
M  V30 5296 C 480.624 -2.2338 2.6305 0
M  V30 5297 C 479.737 -1.92183 3.86898 0
M  V30 5298 C 478.872 -3.14251 4.28275 0
M  V30 5299 C 477.911 -2.78862 5.44888 0
M  V30 5300 N 477.048 -3.93548 5.81433 0
M  V30 5301 H 481.888 -0.501303 2.93753 0
M  V30 5302 H 479.425 -0.235847 1.45197 0
M  V30 5303 H 481.383 -2.98124 2.91853 0
M  V30 5304 H 480.013 -2.6646 1.82205 0
M  V30 5305 H 479.065 -1.07692 3.64838 0
M  V30 5306 H 480.377 -1.62117 4.7172 0
M  V30 5307 H 479.531 -3.97317 4.58502 0
M  V30 5308 H 478.27 -3.47476 3.42215 0
M  V30 5309 H 477.275 -1.94208 5.14357 0
M  V30 5310 H 478.5 -2.46855 6.32645 0
M  V30 5311 H 476.446 -4.2662 4.98328 0
M  V30 5312 H 476.363 -3.67098 6.6089 0
M  V30 5313 H 477.631 -4.77325 6.16264 0
M  V30 5314 N 481.861 -1.55662 -0.24637 0
M  V30 5315 C 483.089 -1.81575 -0.991876 0
M  V30 5316 C 483.504 -0.602545 -1.78927 0
M  V30 5317 O 482.861 0.428795 -1.77391 0
M  V30 5318 C 482.912 -3.05711 -1.92933 0
M  V30 5319 O 482.633 -4.22348 -1.1642 0
M  V30 5320 C 484.134 -3.44428 -2.79078 0
M  V30 5321 H 481.354 -0.604209 -0.291844 0
M  V30 5322 H 483.898 -2.02722 -0.269095 0
M  V30 5323 H 482.053 -2.86612 -2.60638 0
M  V30 5324 H 482.467 -4.92706 -1.79835 0
M  V30 5325 H 483.941 -4.34388 -3.40603 0
M  V30 5326 H 484.418 -2.65037 -3.50217 0
M  V30 5327 H 485.024 -3.65879 -2.16824 0
M  V30 5328 N 483.339 0.512053 -1.4905 0
M  V30 5329 C 484.269 1.62365 -1.67809 0
M  V30 5330 C 485.25 1.61737 -0.526809 0
M  V30 5331 O 486.435 1.78651 -0.761404 0
M  V30 5332 C 483.565 3.00895 -1.73435 0
M  V30 5333 C 482.519 3.16387 -2.88242 0
M  V30 5334 C 481.845 4.56157 -2.78971 0
M  V30 5335 C 483.145 2.97457 -4.29321 0
M  V30 5336 H 484.839 1.46921 -2.60873 0
M  V30 5337 H 482.385 0.705379 -1.2554 0
M  V30 5338 H 484.338 3.78549 -1.85145 0
M  V30 5339 H 483.062 3.17403 -0.769619 0
M  V30 5340 H 481.721 2.41155 -2.76116 0
M  V30 5341 H 481.369 4.69525 -1.8043 0
M  V30 5342 H 481.069 4.67465 -3.5602 0
M  V30 5343 H 482.593 5.35886 -2.92675 0
M  V30 5344 H 484.007 3.64888 -4.42187 0
M  V30 5345 H 482.404 3.20245 -5.07507 0
M  V30 5346 H 483.474 1.93692 -4.44535 0
M  V30 5347 N 484.817 1.37938 0.762283 0
M  V30 5348 C 485.764 1.34467 1.87583 0
M  V30 5349 C 486.734 0.208633 1.64785 0
M  V30 5350 O 487.919 0.399494 1.86571 0
M  V30 5351 C 485.059 1.16692 3.24772 0
M  V30 5352 C 484.172 2.39608 3.59461 0
M  V30 5353 C 483.307 2.14631 4.85908 0
M  V30 5354 C 482.346 3.33364 5.13357 0
M  V30 5355 N 481.483 3.07877 6.30996 0
M  V30 5356 H 486.323 2.29669 1.89885 0
M  V30 5357 H 483.86 1.14116 0.928219 0
M  V30 5358 H 485.818 1.04405 4.03925 0
M  V30 5359 H 484.448 0.251333 3.2182 0
M  V30 5360 H 483.5 2.626 2.75219 0
M  V30 5361 H 484.812 3.28128 3.75678 0
M  V30 5362 H 483.966 1.99429 5.72986 0
M  V30 5363 H 482.705 1.23463 4.71814 0
M  V30 5364 H 481.71 3.49094 4.24751 0
M  V30 5365 H 482.935 4.25395 5.29354 0
M  V30 5366 H 480.881 2.19348 6.18241 0
M  V30 5367 H 480.798 3.89944 6.47673 0
M  V30 5368 H 482.066 2.96313 7.20985 0
M  V30 5369 N 486.295 -0.989507 1.22664 0
M  V30 5370 C 487.242 -2.08024 0.999733 0
M  V30 5371 C 488.212 -1.65909 -0.0797047 0
M  V30 5372 O 489.397 -1.90669 0.0705715 0
M  V30 5373 C 486.537 -3.40067 0.587234 0
M  V30 5374 C 485.65 -3.95505 1.73781 0
M  V30 5375 C 484.785 -5.15722 1.27297 0
M  V30 5376 C 483.824 -5.63305 2.39488 0
M  V30 5377 N 482.961 -6.74758 1.94026 0
M  V30 5378 H 487.801 -2.26768 1.9334 0
M  V30 5379 H 485.338 -1.11171 0.963297 0
M  V30 5380 H 487.296 -4.15899 0.329227 0
M  V30 5381 H 485.926 -3.21314 -0.309426 0
M  V30 5382 H 484.978 -3.16513 2.11006 0
M  V30 5383 H 486.29 -4.26797 2.58158 0
M  V30 5384 H 485.444 -5.98854 0.972546 0
M  V30 5385 H 484.183 -4.86061 0.399445 0
M  V30 5386 H 483.188 -4.78759 2.70315 0
M  V30 5387 H 484.413 -5.94988 3.27362 0
M  V30 5388 H 482.359 -6.46874 1.09041 0
M  V30 5389 H 482.276 -7.05386 2.71968 0
M  V30 5390 H 483.544 -7.61387 1.67062 0
M  V30 5391 N 487.773 -1.03688 -1.18687 0
M  V30 5392 C 488.703 -0.645407 -2.24403 0
M  V30 5393 C 489.684 0.349511 -1.66471 0
M  V30 5394 O 490.869 0.230453 -1.92828 0
M  V30 5395 C 487.999 -0.00365337 -3.473 0
M  V30 5396 C 486.953 -0.921705 -4.17958 0
M  V30 5397 C 486.279 -0.144629 -5.34504 0
M  V30 5398 C 487.579 -2.23909 -4.71871 0
M  V30 5399 H 489.273 -1.52917 -2.57404 0
M  V30 5400 H 486.819 -0.736711 -1.23728 0
M  V30 5401 H 488.772 0.281908 -4.20456 0
M  V30 5402 H 487.496 0.914963 -3.13522 0
M  V30 5403 H 486.155 -1.19159 -3.46694 0
M  V30 5404 H 485.803 0.776274 -4.96974 0
M  V30 5405 H 485.503 -0.756206 -5.82714 0
M  V30 5406 H 487.027 0.134004 -6.10453 0
M  V30 5407 H 488.441 -2.0145 -5.36741 0
M  V30 5408 H 486.838 -2.8033 -5.30599 0
M  V30 5409 H 487.908 -2.88822 -3.895 0
M  V30 5410 N 489.251 1.34841 -0.815825 0
M  V30 5411 C 490.667 1.51543 -0.500697 0
M  V30 5412 C 490.867 1.76261 0.976444 0
M  V30 5413 O 489.923 1.8094 1.76117 0
M  V30 5414 C 491.236 2.68487 -1.35407 0
M  V30 5415 C 492.784 2.82368 -1.35046 0
M  V30 5416 C 493.259 4.02347 -2.18816 0
M  V30 5417 N 494.75 4.09542 -2.16402 0
M  V30 5418 C 495.485 5.01517 -2.77971 0
M  V30 5419 N 494.981 5.98763 -3.48503 0
M  V30 5420 N 496.774 4.94334 -2.67563 0
M  V30 5421 H 488.925 1.17055 -1.77234 0
M  V30 5422 H 491.188 0.573481 -0.754866 0
M  V30 5423 H 490.894 2.56829 -2.40274 0
M  V30 5424 H 490.768 3.63321 -1.01377 0
M  V30 5425 H 493.155 2.93471 -0.309604 0
M  V30 5426 H 493.236 1.88363 -1.73069 0
M  V30 5427 H 492.88 3.92004 -3.22948 0
M  V30 5428 H 492.81 4.95551 -1.78148 0
M  V30 5429 H 495.301 3.39932 -1.65091 0
M  V30 5430 H 495.614 6.6556 -3.92747 0
M  V30 5431 H 493.959 5.98909 -3.52609 0
M  V30 5432 H 497.15 4.1732 -2.12041 0
M  V30 5433 H 497.323 5.6582 -3.15834 0
M  V30 5434 N 490.729 0.570148 1.46925 0
M  V30 5435 C 491.639 -0.173061 2.33961 0
M  V30 5436 C 492.655 -0.898825 1.48987 0
M  V30 5437 O 493.831 -0.864825 1.81887 0
M  V30 5438 C 490.896 -1.18177 3.25937 0
M  V30 5439 C 489.957 -0.462041 4.26806 0
M  V30 5440 C 489.19 -1.4227 5.14388 0
M  V30 5441 O 489.413 -2.65842 5.04662 0
M  V30 5442 O 488.347 -0.940127 5.94513 0
M  V30 5443 H 492.173 0.541216 2.98839 0
M  V30 5444 H 489.758 0.330647 1.45695 0
M  V30 5445 H 491.64 -1.76372 3.82715 0
M  V30 5446 H 490.315 -1.87774 2.63671 0
M  V30 5447 H 489.222 0.161429 3.73752 0
M  V30 5448 H 490.555 0.192719 4.91823 0
M  V30 5449 N 492.207 -1.54576 0.307264 0
M  V30 5450 C 493.453 -2.0056 -0.300612 0
M  V30 5451 C 493.786 -1.1953 -1.53057 0
M  V30 5452 O 493.061 -0.27337 -1.92569 0
M  V30 5453 C 493.344 -3.54167 -0.650987 0
M  V30 5454 C 493.197 -4.45933 0.588539 0
M  V30 5455 C 494.516 -4.14645 -1.47506 0
M  V30 5456 H 491.635 -0.729075 -0.107788 0
M  V30 5457 H 494.277 -1.85286 0.420606 0
M  V30 5458 H 492.427 -3.67313 -1.26544 0
M  V30 5459 H 494.099 -4.44683 1.22697 0
M  V30 5460 H 492.342 -4.16274 1.22058 0
M  V30 5461 H 493.013 -5.51189 0.299153 0
M  V30 5462 H 495.489 -4.04973 -0.955821 0
M  V30 5463 H 494.365 -5.22269 -1.68899 0
M  V30 5464 H 494.626 -3.66921 -2.4662 0
M  V30 5465 N 493.685 -0.035106 -1.57561 0
M  V30 5466 C 494.615 0.942993 -2.13612 0
M  V30 5467 C 495.596 1.33531 -1.05373 0
M  V30 5468 O 496.781 1.41287 -1.33235 0
M  V30 5469 C 493.911 2.22332 -2.66807 0
M  V30 5470 C 492.865 1.97156 -3.79886 0
M  V30 5471 C 492.191 3.31506 -4.19533 0
M  V30 5472 C 493.491 1.30596 -5.05709 0
M  V30 5473 H 495.185 0.476179 -2.95589 0
M  V30 5474 H 492.731 0.227602 -1.4219 0
M  V30 5475 H 494.684 2.91142 -3.04654 0
M  V30 5476 H 493.408 2.7119 -1.81999 0
M  V30 5477 H 492.067 1.30763 -3.42486 0
M  V30 5478 H 491.715 3.78134 -3.31698 0
M  V30 5479 H 491.415 3.15465 -4.95738 0
M  V30 5480 H 492.939 4.01574 -4.59968 0
M  V30 5481 H 494.353 1.89416 -5.41105 0
M  V30 5482 H 492.75 1.24934 -5.86951 0
M  V30 5483 H 493.82 0.279742 -4.84092 0
M  V30 5484 N 495.163 1.55791 0.238111 0
M  V30 5485 C 496.113 1.87444 1.29803 0
M  V30 5486 C 497.097 0.736043 1.43078 0
M  V30 5487 O 498.289 0.998146 1.46171 0
M  V30 5488 C 495.418 2.18028 2.65177 0
M  V30 5489 C 494.504 3.38217 2.55871 0
M  V30 5490 N 494.895 4.57264 2.16202 0
M  V30 5491 C 493.193 3.41502 2.86866 0
M  V30 5492 C 493.894 5.3941 2.17744 0
M  V30 5493 N 492.87 4.78695 2.57589 0
M  V30 5494 H 496.672 2.7701 0.981965 0
M  V30 5495 H 494.186 1.56135 0.44672 0
M  V30 5496 H 496.183 2.38873 3.4168 0
M  V30 5497 H 494.843 1.29765 2.97643 0
M  V30 5498 H 495.854 4.82727 1.87602 0
M  V30 5499 H 492.531 2.63536 3.23813 0
M  V30 5500 H 493.921 6.44671 1.89339 0
M  V30 5501 N 496.642 -0.504142 1.49319 0
M  V30 5502 C 497.552 -1.63248 1.68486 0
M  V30 5503 C 498.568 -1.64488 0.567432 0
M  V30 5504 O 499.744 -1.82966 0.841749 0
M  V30 5505 C 496.809 -2.99627 1.74426 0
M  V30 5506 C 495.87 -3.09039 2.97982 0
M  V30 5507 C 495.103 -4.38913 3.0363 0
M  V30 5508 O 495.326 -5.27528 2.16958 0
M  V30 5509 O 494.26 -4.53231 3.96062 0
M  V30 5510 H 498.086 -1.50008 2.64067 0
M  V30 5511 H 495.671 -0.680086 1.33023 0
M  V30 5512 H 497.553 -3.80689 1.80705 0
M  V30 5513 H 496.228 -3.13136 0.820233 0
M  V30 5514 H 495.135 -2.27177 2.97223 0
M  V30 5515 H 496.468 -3.00456 3.89855 0
M  V30 5516 N 498.12 -1.38341 -0.754957 0
M  V30 5517 C 499.05 -1.38176 -1.88227 0
M  V30 5518 C 500.031 -0.247873 -1.68284 0
M  V30 5519 O 501.216 -0.45075 -1.88896 0
M  V30 5520 C 498.346 -1.20471 -3.25736 0
M  V30 5521 C 497.3 -2.3105 -3.60278 0
M  V30 5522 C 496.626 -1.98452 -4.96509 0
M  V30 5523 C 497.926 -3.73305 -3.65295 0
M  V30 5524 H 499.62 -2.32512 -1.88622 0
M  V30 5525 H 497.166 -1.1192 -0.906082 0
M  V30 5526 H 499.119 -1.18982 -4.04254 0
M  V30 5527 H 497.843 -0.225965 -3.25817 0
M  V30 5528 H 496.502 -2.31723 -2.84078 0
M  V30 5529 H 496.15 -0.990641 -4.93148 0
M  V30 5530 H 495.85 -2.7251 -5.20588 0
M  V30 5531 H 497.374 -1.98578 -5.77407 0
M  V30 5532 H 498.788 -3.7467 -4.3393 0
M  V30 5533 H 497.185 -4.46557 -4.00883 0
M  V30 5534 H 498.255 -4.05719 -2.65556 0
M  V30 5535 N 499.598 0.982988 -1.23187 0
M  V30 5536 C 500.828 1.75666 -1.08743 0
M  V30 5537 C 501.236 1.85662 0.364195 0
M  V30 5538 O 500.579 1.33317 1.26382 0
M  V30 5539 C 500.641 3.20144 -1.63549 0
M  V30 5540 C 500.305 3.33665 -3.12277 0
M  V30 5541 C 501.302 3.20194 -4.096 0
M  V30 5542 C 498.987 3.58397 -3.51933 0
M  V30 5543 C 500.981 3.31256 -5.44563 0
M  V30 5544 C 498.668 3.69098 -4.87042 0
M  V30 5545 C 499.666 3.55537 -5.83166 0
M  V30 5546 O 499.354 3.65864 -7.1582 0
M  V30 5547 H 499.086 0.558194 -0.381307 0
M  V30 5548 H 501.64 1.24387 -1.63454 0
M  V30 5549 H 499.87 3.72659 -1.03256 0
M  V30 5550 H 501.559 3.79262 -1.4462 0
M  V30 5551 H 502.325 3.00987 -3.80305 0
M  V30 5552 H 498.204 3.68025 -2.77631 0
M  V30 5553 H 501.748 3.20588 -6.19572 0
M  V30 5554 H 497.645 3.87814 -5.16014 0
M  V30 5555 H 498.413 3.82675 -7.23534 0
M  V30 5556 N 501.076 1.04316 1.18135 0
M  V30 5557 C 502.023 0.636398 2.21853 0
M  V30 5558 C 502.993 -0.357039 1.62217 0
M  V30 5559 O 504.178 -0.250453 1.89149 0
M  V30 5560 C 501.318 0.00812779 3.45099 0
M  V30 5561 C 500.431 1.04933 4.19062 0
M  V30 5562 C 499.566 0.389313 5.29771 0
M  V30 5563 C 498.605 1.41544 5.9551 0
M  V30 5564 N 497.742 0.78021 6.97751 0
M  V30 5565 H 502.582 1.52536 2.56002 0
M  V30 5566 H 500.119 0.76304 1.25762 0
M  V30 5567 H 502.077 -0.373497 4.15525 0
M  V30 5568 H 500.707 -0.844336 3.11562 0
M  V30 5569 H 499.759 1.54888 3.47439 0
M  V30 5570 H 501.071 1.82862 4.64072 0
M  V30 5571 H 500.225 -0.0463805 6.06682 0
M  V30 5572 H 498.964 -0.422038 4.8587 0
M  V30 5573 H 497.969 1.86124 5.17337 0
M  V30 5574 H 499.194 2.22854 6.41493 0
M  V30 5575 H 497.14 -0.0107899 6.55999 0
M  V30 5576 H 497.057 1.49716 7.41027 0
M  V30 5577 H 498.325 0.368996 7.78626 0
M  V30 5578 N 502.554 -1.34406 0.822964 0
M  V30 5579 C 503.504 -2.26963 0.217208 0
M  V30 5580 C 504.488 -1.48536 -0.618545 0
M  V30 5581 O 505.68 -1.7056 -0.473118 0
M  V30 5582 C 502.809 -3.37655 -0.619973 0
M  V30 5583 C 501.895 -4.23495 0.226411 0
M  V30 5584 N 502.286 -4.88876 1.29744 0
M  V30 5585 C 500.584 -4.45999 0.0107554 0
M  V30 5586 C 501.285 -5.52642 1.81553 0
M  V30 5587 N 500.261 -5.31949 1.11942 0
M  V30 5588 H 504.063 -2.75017 1.03647 0
M  V30 5589 H 501.577 -1.48126 0.665777 0
M  V30 5590 H 503.574 -4.02932 -1.07011 0
M  V30 5591 H 502.234 -2.91151 -1.43739 0
M  V30 5592 H 503.245 -4.89886 1.68024 0
M  V30 5593 H 499.922 -4.10253 -0.774495 0
M  V30 5594 H 501.312 -6.14755 2.71156 0
M  V30 5595 N 504.032 -0.577932 -1.46621 0
M  V30 5596 C 504.962 0.145917 -2.33044 0
M  V30 5597 C 505.943 0.888412 -1.45056 0
M  V30 5598 O 507.128 0.864812 -1.73881 0
M  V30 5599 C 504.258 1.16322 -3.27241 0
M  V30 5600 C 503.212 0.535868 -4.24632 0
M  V30 5601 C 502.538 1.65929 -5.08303 0
M  V30 5602 C 503.838 -0.523861 -5.19666 0
M  V30 5603 H 505.532 -0.575636 -2.93814 0
M  V30 5604 H 503.078 -0.278272 -1.41286 0
M  V30 5605 H 505.031 1.67793 -3.86553 0
M  V30 5606 H 503.755 1.91498 -2.64567 0
M  V30 5607 H 502.414 0.0422759 -3.66576 0
M  V30 5608 H 502.062 2.40061 -4.42018 0
M  V30 5609 H 501.762 1.2452 -5.74255 0
M  V30 5610 H 503.286 2.17686 -5.70478 0
M  V30 5611 H 504.7 -0.0944059 -5.73222 0
M  V30 5612 H 503.097 -0.858 -5.93935 0
M  V30 5613 H 504.167 -1.41197 -4.63887 0
M  V30 5614 N 505.51 1.54411 -0.315457 0
M  V30 5615 C 506.787 1.92562 0.343398 0
M  V30 5616 C 507.167 1.24423 1.70535 0
M  V30 5617 O 506.515 0.385051 2.25232 0
M  V30 5618 C 506.725 3.46168 0.443687 0
M  V30 5619 C 508.073 4.18659 0.707783 0
M  V30 5620 O 509.097 3.52281 0.52693 0
M  V30 5621 O 507.956 5.36198 1.05612 0
M  V30 5622 H 505.05 0.80379 0.194552 0
M  V30 5623 H 507.596 1.65738 -0.364577 0
M  V30 5624 H 506.368 3.8792 -0.513172 0
M  V30 5625 H 505.991 3.79073 1.19956 0
M  V30 5626 N 506.988 0.0434614 1.5754 0
M  V30 5627 C 508.213 -0.645358 1.97104 0
M  V30 5628 C 508.638 -1.64037 0.920521 0
M  V30 5629 O 507.996 -1.80922 -0.11708 0
M  V30 5630 C 508.044 -1.31547 3.35749 0
M  V30 5631 O 507.148 -2.43103 3.33129 0
M  V30 5632 H 506.489 -0.168403 0.64229 0
M  V30 5633 H 509.019 0.109573 2.04306 0
M  V30 5634 H 509.029 -1.66895 3.72304 0
M  V30 5635 H 507.704 -0.586205 4.11748 0
M  V30 5636 H 506.281 -2.0976 3.0831 0
M  V30 5637 N 508.466 -1.55915 -0.229846 0
M  V30 5638 C 509.691 -1.8296 -0.976743 0
M  V30 5639 C 510.116 -0.622735 -1.77493 0
M  V30 5640 O 509.474 0.428431 -1.76165 0
M  V30 5641 C 509.522 -3.07916 -1.8767 0
M  V30 5642 O 508.626 -2.86028 -2.97088 0
M  V30 5643 H 507.967 -0.603453 -0.277021 0
M  V30 5644 H 510.497 -2.0312 -0.245669 0
M  V30 5645 H 510.507 -3.37802 -2.2881 0
M  V30 5646 H 509.182 -3.95389 -1.28996 0
M  V30 5647 H 507.759 -2.67355 -2.59954 0
M  V30 5648 N 509.944 0.496216 -1.49584 0
M  V30 5649 C 510.907 1.57952 -1.66084 0
M  V30 5650 C 511.907 1.51729 -0.53244 0
M  V30 5651 O 513.097 1.54796 -0.79899 0
M  V30 5652 C 510.229 2.97604 -1.66268 0
M  V30 5653 H 511.422 1.44649 -2.6271 0
M  V30 5654 H 508.975 0.7208 -1.38687 0
M  V30 5655 H 509.71 3.16378 -0.712432 0
M  V30 5656 H 509.495 3.03528 -2.4822 0
M  V30 5657 H 510.985 3.76301 -1.81073 0
M  V30 5658 N 511.423 1.38739 0.74761 0
M  V30 5659 C 512.386 1.36241 1.84312 0
M  V30 5660 C 513.386 0.261811 1.58654 0
M  V30 5661 O 514.576 0.519031 1.66288 0
M  V30 5662 C 511.708 1.12253 3.21888 0
M  V30 5663 H 512.901 2.33712 1.87933 0
M  V30 5664 H 510.454 1.2412 0.949946 0
M  V30 5665 H 511.189 0.154133 3.23934 0
M  V30 5666 H 510.974 1.91943 3.41907 0
M  V30 5667 H 512.464 1.13215 4.0196 0
M  V30 5668 N 512.901 -0.976442 1.23707 0
M  V30 5669 C 513.864 -2.0511 1.02287 0
M  V30 5670 C 514.864 -1.60791 -0.0167195 0
M  V30 5671 O 516.054 -1.72761 0.223408 0
M  V30 5672 C 513.186 -3.36458 0.548507 0
M  V30 5673 H 514.379 -2.25545 1.9766 0
M  V30 5674 H 511.932 -1.15042 1.05806 0
M  V30 5675 H 512.667 -3.21713 -0.408818 0
M  V30 5676 H 512.452 -3.69967 1.29874 0
M  V30 5677 H 513.942 -4.15489 0.419406 0
M  V30 5678 N 514.379 -1.04941 -1.1758 0
M  V30 5679 C 515.628 -0.753124 -1.87112 0
M  V30 5680 C 515.941 0.722507 -1.81767 0
M  V30 5681 O 517.147 1.13265 -2.46746 0
M  V30 5682 C 515.603 -1.29695 -3.35719 0
M  V30 5683 C 515.211 -2.80184 -3.49572 0
M  V30 5684 C 516.955 -1.07759 -4.10595 0
M  V30 5685 C 514.862 -3.2788 -4.92187 0
M  V30 5686 H 513.792 -0.278034 -0.700866 0
M  V30 5687 H 516.443 -1.26637 -1.32798 0
M  V30 5688 H 514.825 -0.711522 -3.89555 0
M  V30 5689 H 515.999 -3.44561 -3.05965 0
M  V30 5690 H 514.314 -3.00632 -2.88113 0
M  V30 5691 H 516.911 -1.40899 -5.15802 0
M  V30 5692 H 517.254 -0.0152302 -4.16297 0
M  V30 5693 H 517.787 -1.62809 -3.62957 0
M  V30 5694 H 514.526 -4.33535 -4.91658 0
M  V30 5695 H 514.046 -2.68245 -5.36475 0
M  V30 5696 H 515.725 -3.22412 -5.60945 0
M  V30 5697 N 515.857 1.33968 -0.830081 0
M  V30 5698 C 517.106 1.97323 -0.417928 0
M  V30 5699 C 517.419 1.6652 1.02618 0
M  V30 5700 O 518.625 2.2342 1.54259 0
M  V30 5701 C 517.081 3.53099 -0.696359 0
M  V30 5702 C 516.689 3.92788 -2.15457 0
M  V30 5703 C 518.433 4.23049 -0.350724 0
M  V30 5704 C 516.34 5.41506 -2.37751 0
M  V30 5705 H 515.27 0.738409 -0.152541 0
M  V30 5706 H 517.921 1.52711 -1.01744 0
M  V30 5707 H 516.303 3.95991 -0.0265904 0
M  V30 5708 H 517.477 3.6098 -2.86408 0
M  V30 5709 H 515.792 3.35795 -2.46232 0
M  V30 5710 H 518.389 5.32403 -0.495036 0
M  V30 5711 H 518.732 4.10279 0.705476 0
M  V30 5712 H 519.265 3.85657 -0.975362 0
M  V30 5713 H 516.004 5.5927 -3.41903 0
M  V30 5714 H 515.524 5.74804 -1.7135 0
M  V30 5715 H 517.203 6.0828 -2.20465 0
M  V30 5716 N 517.335 0.585699 1.46312 0
M  V30 5717 C 518.612 0.00542031 1.95599 0
M  V30 5718 C 518.992 -1.45619 1.52834 0
M  V30 5719 O 518.34 -2.14759 0.780446 0
M  V30 5720 C 518.55 0.180601 3.48532 0
M  V30 5721 C 519.898 0.049979 4.24571 0
M  V30 5722 O 520.922 0.109589 3.56031 0
M  V30 5723 O 519.781 -0.0832226 5.46437 0
M  V30 5724 H 516.875 -0.0481281 0.825598 0
M  V30 5725 H 519.421 0.654227 1.56582 0
M  V30 5726 H 518.193 1.19657 3.72556 0
M  V30 5727 H 517.816 -0.504498 3.94386 0
M  V30 5728 N 518.813 -1.54241 0.323641 0
M  V30 5729 C 519.776 -2.22997 -0.529602 0
M  V30 5730 C 520.776 -1.22345 -1.04347 0
M  V30 5731 O 521.966 -1.46924 -0.935889 0
M  V30 5732 C 519.098 -2.93409 -1.73562 0
M  V30 5733 H 520.291 -2.99815 0.0714518 0
M  V30 5734 H 517.844 -1.56121 0.0747258 0
M  V30 5735 H 518.579 -2.20729 -2.37591 0
M  V30 5736 H 518.364 -3.67217 -1.37456 0
M  V30 5737 H 519.854 -3.45794 -2.34128 0
M  V30 5738 N 520.291 -0.0518155 -1.57515 0
M  V30 5739 C 521.702 0.483787 -1.80323 0
M  V30 5740 C 522.053 1.70879 -0.964099 0
M  V30 5741 O 521.178 2.15643 -0.180872 0
M  V30 5742 C 521.773 0.884459 -3.27052 0
M  V30 5743 C 520.332 1.36504 -3.50776 0
M  V30 5744 C 519.479 0.340539 -2.75201 0
M  V30 5745 H 522.43 -0.277691 -1.56252 0
M  V30 5746 H 522.451 1.74733 -3.38007 0
M  V30 5747 H 521.963 -0.00731093 -3.88099 0
M  V30 5748 H 520.064 2.27598 -2.95009 0
M  V30 5749 H 520.177 1.35675 -4.59488 0
M  V30 5750 H 518.541 0.81356 -2.41357 0
M  V30 5751 H 519.324 -0.543156 -3.38976 0
M  V30 5752 N 521.769 1.56035 0.221574 0
M  V30 5753 C 522.702 1.87427 1.30178 0
M  V30 5754 C 523.68 0.731658 1.45209 0
M  V30 5755 O 524.864 0.980016 1.61022 0
M  V30 5756 C 521.991 2.08127 2.67209 0
M  V30 5757 C 521.037 3.30813 2.69194 0
M  V30 5758 S 521.87 4.86738 2.23263 0
M  V30 5759 C 523.026 5.10474 3.62171 0
M  V30 5760 H 523.259 2.78756 1.03355 0
M  V30 5761 H 520.792 1.48469 0.423813 0
M  V30 5762 H 522.75 2.20736 3.46101 0
M  V30 5763 H 521.411 1.17595 2.91256 0
M  V30 5764 H 520.604 3.42341 3.6989 0
M  V30 5765 H 520.206 3.1706 1.98366 0
M  V30 5766 H 522.498 4.9937 4.5786 0
M  V30 5767 H 523.441 6.12359 3.55558 0
M  V30 5768 H 523.849 4.38208 3.55857 0
M  V30 5769 N 523.247 -0.488276 1.49845 0
M  V30 5770 C 524.524 -1.24959 1.50481 0
M  V30 5771 C 524.904 -2.09735 0.239698 0
M  V30 5772 O 524.252 -2.14865 -0.777524 0
M  V30 5773 C 524.462 -2.0954 2.79095 0
M  V30 5774 C 525.81 -2.68305 3.29086 0
M  V30 5775 O 526.834 -2.19797 2.80299 0
M  V30 5776 O 525.693 -3.56643 4.14087 0
M  V30 5777 H 522.787 -0.566133 0.602845 0
M  V30 5778 H 525.333 -0.501504 1.6212 0
M  V30 5779 H 524.105 -1.46958 3.62656 0
M  V30 5780 H 523.728 -2.91517 2.70377 0
M  V30 5781 N 524.725 -1.39134 -0.740242 0
M  V30 5782 C 525.974 -1.35384 -1.49512 0
M  V30 5783 C 526.287 0.04919 -1.95538 0
M  V30 5784 O 527.493 0.209257 -2.70692 0
M  V30 5785 C 525.949 -2.37812 -2.70136 0
M  V30 5786 C 525.557 -3.83804 -2.31081 0
M  V30 5787 C 527.301 -2.4313 -3.47977 0
M  V30 5788 C 525.208 -4.77886 -3.48395 0
M  V30 5789 H 524.138 -0.503297 -0.561434 0
M  V30 5790 H 526.789 -1.64754 -0.807974 0
M  V30 5791 H 525.171 -2.01505 -3.40899 0
M  V30 5792 H 526.345 -4.29123 -1.67898 0
M  V30 5793 H 524.66 -3.81732 -1.66343 0
M  V30 5794 H 527.257 -3.10614 -4.35228 0
M  V30 5795 H 527.6 -1.45423 -3.90074 0
M  V30 5796 H 528.133 -2.78304 -2.84239 0
M  V30 5797 H 524.872 -5.76836 -3.11353 0
M  V30 5798 H 524.392 -4.3725 -4.10576 0
M  V30 5799 H 526.071 -4.96538 -4.148 0
M  V30 5800 N 526.204 0.969867 -1.24223 0
M  V30 5801 C 527.615 1.52717 -1.07399 0
M  V30 5802 C 527.966 1.92956 0.355298 0
M  V30 5803 O 527.091 1.77112 1.2434 0
M  V30 5804 C 527.686 2.77521 -1.94339 0
M  V30 5805 C 526.245 3.29615 -1.81744 0
M  V30 5806 C 525.392 2.02537 -1.89405 0
M  V30 5807 H 528.343 0.788399 -1.37732 0
M  V30 5808 H 528.364 3.50773 -1.47439 0
M  V30 5809 H 527.876 2.48203 -2.98357 0
M  V30 5810 H 525.977 3.63789 -0.805505 0
M  V30 5811 H 526.09 3.98661 -2.65718 0
M  V30 5812 H 524.454 2.17151 -1.33108 0
M  V30 5813 H 525.237 1.75587 -2.94999 0
M  V30 5814 N 527.682 1.05563 1.17022 0
M  V30 5815 C 528.93 0.76642 1.87004 0
M  V30 5816 C 529.251 -0.708854 1.8166 0
M  V30 5817 O 528.521 -1.51242 1.2451 0
M  V30 5818 H 527.101 0.280516 0.692329 0
M  V30 5819 H 529.763 1.33557 1.41945 0
M  V30 5820 H 528.859 1.08472 2.92644 0
M  V30 5821 N 529.16 -1.33526 0.837174 0
M  V30 5822 C 530.09 -2.31764 0.284206 0
M  V30 5823 C 531.071 -1.58896 -0.607142 0
M  V30 5824 O 532.256 -1.86798 -0.531047 0
M  V30 5825 C 529.386 -3.43029 -0.542962 0
M  V30 5826 C 528.34 -4.27255 0.252451 0
M  V30 5827 C 527.666 -5.3012 -0.69836 0
M  V30 5828 C 528.966 -5.01229 1.46858 0
M  V30 5829 H 530.66 -2.78262 1.10502 0
M  V30 5830 H 528.206 -1.3378 0.532812 0
M  V30 5831 H 530.159 -4.1078 -0.940096 0
M  V30 5832 H 528.883 -2.95216 -1.39697 0
M  V30 5833 H 527.542 -3.61127 0.631124 0
M  V30 5834 H 527.19 -4.78564 -1.54872 0
M  V30 5835 H 526.89 -5.87353 -0.170274 0
M  V30 5836 H 528.414 -6.00737 -1.09305 0
M  V30 5837 H 529.828 -5.61756 1.14469 0
M  V30 5838 H 528.225 -5.68104 1.93333 0
M  V30 5839 H 529.295 -4.301 2.23924 0
M  V30 5840 N 530.638 -0.59345 -1.46 0
M  V30 5841 C 531.586 0.146268 -2.3214 0
M  V30 5842 C 532.58 0.873743 -1.45128 0
M  V30 5843 O 533.786 0.790912 -1.61693 0
M  V30 5844 H 530.161 0.0660349 -0.749095 0
M  V30 5845 H 532.132 -0.598895 -2.92328 0
M  V30 5846 C 530.881 1.1396 -3.28494 0
M  V30 5847 H 530.204 0.589252 -3.95434 0
M  V30 5848 H 531.644 1.62738 -3.91526 0
M  V30 5849 C 530.103 2.20604 -2.54628 0
M  V30 5850 O 530.633 3.28128 -2.31722 0
M  V30 5851 N 528.839 1.95502 -2.15005 0
M  V30 5852 H 528.386 1.0807 -2.33834 0
M  V30 5853 H 528.344 2.67064 -1.65904 0
M  V30 5854 N 532.116 1.54067 -0.331816 0
M  V30 5855 C 533.046 2.27569 0.522932 0
M  V30 5856 C 534.027 1.28679 1.11247 0
M  V30 5857 O 535.212 1.57504 1.13605 0
M  V30 5858 C 532.342 3.0397 1.67987 0
M  V30 5859 C 531.296 4.10267 1.21924 0
M  V30 5860 C 530.622 4.74555 2.46377 0
M  V30 5861 C 531.922 5.21268 0.32815 0
M  V30 5862 H 533.616 2.99264 -0.0901977 0
M  V30 5863 H 531.162 1.4393 -0.044821 0
M  V30 5864 H 533.115 3.54123 2.28418 0
M  V30 5865 H 531.839 2.29906 2.31971 0
M  V30 5866 H 530.498 3.61009 0.637809 0
M  V30 5867 H 530.146 3.97098 3.08743 0
M  V30 5868 H 529.846 5.46363 2.16243 0
M  V30 5869 H 531.37 5.27487 3.07555 0
M  V30 5870 H 532.784 5.67128 0.838978 0
M  V30 5871 H 531.181 5.99982 0.119228 0
M  V30 5872 H 532.251 4.80673 -0.638839 0
M  V30 5873 N 533.594 0.0601682 1.57485 0
M  V30 5874 C 534.819 -0.624416 1.97777 0
M  V30 5875 C 535.244 -1.63051 0.937867 0
M  V30 5876 O 534.602 -1.81036 -0.0978845 0
M  V30 5877 C 534.65 -1.27979 3.37126 0
M  V30 5878 O 533.754 -2.39556 3.35688 0
M  V30 5879 H 533.095 -0.161581 0.64404 0
M  V30 5880 H 535.625 0.131237 2.04179 0
M  V30 5881 H 535.635 -1.62937 3.74053 0
M  V30 5882 H 534.31 -0.542501 4.12347 0
M  V30 5883 H 532.887 -2.06478 3.10517 0
M  V30 5884 N 535.072 -1.5615 -0.213296 0
M  V30 5885 C 536.004 -1.89586 -1.28802 0
M  V30 5886 C 537.017 -0.784844 -1.42633 0
M  V30 5887 O 538.206 -1.06319 -1.43383 0
M  V30 5888 C 535.306 -2.09665 -2.66259 0
M  V30 5889 C 534.479 -3.40726 -2.7427 0
M  V30 5890 C 533.538 -3.50137 -3.92798 0
M  V30 5891 O 532.564 -4.23105 -3.8075 0
M  V30 5892 N 533.766 -2.81886 -5.07465 0
M  V30 5893 H 536.531 -2.82368 -1.00442 0
M  V30 5894 H 534.092 -1.56796 -0.403302 0
M  V30 5895 H 536.084 -2.13268 -3.43946 0
M  V30 5896 H 534.654 -1.23469 -2.87183 0
M  V30 5897 H 533.874 -3.4915 -1.82997 0
M  V30 5898 H 535.162 -4.27048 -2.76599 0
M  V30 5899 H 534.56 -2.22397 -5.2015 0
M  V30 5900 H 533.117 -2.91139 -5.83165 0
M  V30 5901 N 536.55 0.480323 -1.50102 0
M  V30 5902 C 537.482 1.59669 -1.64433 0
M  V30 5903 C 538.495 1.54063 -0.52615 0
M  V30 5904 O 539.684 1.59619 -0.798992 0
M  V30 5905 C 536.784 2.98527 -1.6042 0
M  V30 5906 C 535.957 3.291 -2.88117 0
M  V30 5907 C 535.016 4.47468 -2.76873 0
M  V30 5908 O 534.042 4.4823 -3.50825 0
M  V30 5909 N 535.244 5.48593 -1.89806 0
M  V30 5910 H 538.009 1.47795 -2.60723 0
M  V30 5911 H 535.57 0.66858 -1.4745 0
M  V30 5912 H 537.562 3.75666 -1.50523 0
M  V30 5913 H 536.132 3.04218 -0.719036 0
M  V30 5914 H 535.352 2.40662 -3.12211 0
M  V30 5915 H 536.64 3.46334 -3.72734 0
M  V30 5916 H 536.038 5.50791 -1.2902 0
M  V30 5917 H 534.595 6.24752 -1.85819 0
M  V30 5918 N 538.028 1.39524 0.732853 0
M  V30 5919 C 538.938 1.40695 1.87729 0
M  V30 5920 C 539.954 0.301496 1.71368 0
M  V30 5921 O 541.13 0.543313 1.93933 0
M  V30 5922 C 538.195 1.25098 3.23344 0
M  V30 5923 C 537.256 2.45634 3.52083 0
M  V30 5924 C 536.489 2.30772 4.81228 0
M  V30 5925 O 536.712 1.31233 5.55098 0
M  V30 5926 O 535.646 3.19799 5.09914 0
M  V30 5927 H 539.472 2.37168 1.89697 0
M  V30 5928 H 537.057 1.20663 0.880959 0
M  V30 5929 H 538.939 1.18541 4.04383 0
M  V30 5930 H 537.614 0.317209 3.22142 0
M  V30 5931 H 536.521 2.57767 2.71122 0
M  V30 5932 H 537.854 3.37712 3.58066 0
M  V30 5933 N 539.506 -0.963266 1.24736 0
M  V30 5934 C 540.736 -1.73913 1.11524 0
M  V30 5935 C 541.144 -1.86218 -0.334612 0
M  V30 5936 O 540.487 -1.3531 -1.24245 0
M  V30 5937 C 540.549 -3.17501 1.68622 0
M  V30 5938 C 540.213 -3.28655 3.17546 0
M  V30 5939 C 541.21 -3.13637 4.14642 0
M  V30 5940 C 538.895 -3.52753 3.5759 0
M  V30 5941 C 540.889 -3.2255 5.49764 0
M  V30 5942 C 538.576 -3.61303 4.92852 0
M  V30 5943 C 539.574 -3.46214 5.88748 0
M  V30 5944 O 539.262 -3.5443 7.2155 0
M  V30 5945 H 538.994 -0.552057 0.390139 0
M  V30 5946 H 541.548 -1.2177 1.65412 0
M  V30 5947 H 539.778 -3.70969 1.09172 0
M  V30 5948 H 541.467 -3.76914 1.50635 0
M  V30 5949 H 542.233 -2.94899 3.85045 0
M  V30 5950 H 538.112 -3.63561 2.83451 0
M  V30 5951 H 541.656 -3.1069 6.24594 0
M  V30 5952 H 537.553 -3.79556 5.22118 0
M  V30 5953 H 538.321 -3.71116 7.29531 0
M  V30 5954 N 540.985 -1.06182 -1.16461 0
M  V30 5955 C 542.215 -0.797425 -1.9059 0
M  V30 5956 C 542.623 0.651845 -1.77616 0
M  V30 5957 O 541.966 1.45788 -1.11766 0
M  V30 5958 C 542.028 -1.11128 -3.41893 0
M  V30 5959 C 541.692 -2.55874 -3.78652 0
M  V30 5960 C 542.689 -3.54104 -3.80665 0
M  V30 5961 C 540.374 -2.91144 -4.09317 0
M  V30 5962 C 542.368 -4.85645 -4.12829 0
M  V30 5963 C 540.055 -4.22885 -4.41148 0
M  V30 5964 C 541.053 -5.19945 -4.42883 0
M  V30 5965 O 540.741 -6.49322 -4.73959 0
M  V30 5966 H 540.473 -0.288709 -0.611247 0
M  V30 5967 H 543.027 -1.41841 -1.4856 0
M  V30 5968 H 541.257 -0.433217 -3.84266 0
M  V30 5969 H 542.946 -0.831306 -3.97296 0
M  V30 5970 H 543.712 -3.28197 -3.57088 0
M  V30 5971 H 539.591 -2.16252 -4.07131 0
M  V30 5972 H 543.135 -5.61398 -4.14099 0
M  V30 5973 H 539.032 -4.48551 -4.6419 0
M  V30 5974 H 539.8 -6.54294 -4.91774 0
M  V30 5975 N 542.463 1.3308 -0.844243 0
M  V30 5976 C 543.874 1.7992 -0.498566 0
M  V30 5977 C 544.225 1.69808 0.982834 0
M  V30 5978 O 543.35 1.25051 1.7661 0
M  V30 5979 C 543.945 3.26677 -0.898204 0
M  V30 5980 C 542.504 3.71513 -0.604583 0
M  V30 5981 C 541.651 2.54393 -1.10362 0
M  V30 5982 H 544.602 1.20526 -1.03244 0
M  V30 5983 H 544.623 3.79918 -0.21039 0
M  V30 5984 H 544.135 3.34004 -1.97643 0
M  V30 5985 H 542.236 3.69708 0.46335 0
M  V30 5986 H 542.349 4.64755 -1.16358 0
M  V30 5987 H 540.713 2.49246 -0.524273 0
M  V30 5988 H 541.496 2.6448 -2.18873 0
M  V30 5989 N 543.941 0.601185 1.45683 0
M  V30 5990 C 545.171 0.0999093 2.06358 0
M  V30 5991 C 545.579 -1.21831 1.44754 0
M  V30 5992 O 544.922 -1.75157 0.553695 0
M  V30 5993 C 544.984 -0.12085 3.59297 0
M  V30 5994 C 544.648 1.11459 4.432 0
M  V30 5995 C 545.645 2.03118 4.7858 0
M  V30 5996 C 543.33 1.34162 4.84051 0
M  V30 5997 C 545.324 3.15814 5.53661 0
M  V30 5998 C 543.011 2.4716 5.58888 0
M  V30 5999 C 544.009 3.37814 5.93608 0
M  V30 6000 O 543.697 4.48846 6.66928 0
M  V30 6001 H 543.429 0.0630316 0.673055 0
M  V30 6002 H 545.983 0.826982 1.88016 0
M  V30 6003 H 544.213 -0.902744 3.76015 0
M  V30 6004 H 545.902 -0.572925 4.01836 0
M  V30 6005 H 546.668 1.86801 4.47583 0
M  V30 6006 H 542.547 0.645018 4.56465 0
M  V30 6007 H 546.091 3.86596 5.8068 0
M  V30 6008 H 541.988 2.63432 5.89299 0
M  V30 6009 H 542.756 4.47446 6.85371 0
M  V30 6010 N 545.419 -1.53889 0.339982 0
M  V30 6011 C 546.665 -2.01152 -0.258003 0
M  V30 6012 C 546.998 -1.22749 -1.50487 0
M  V30 6013 O 546.273 -0.314156 -1.91946 0
M  V30 6014 C 546.556 -3.55468 -0.575717 0
M  V30 6015 C 546.409 -4.44584 0.682996 0
M  V30 6016 C 547.728 -4.1768 -1.38677 0
M  V30 6017 H 544.847 -0.731198 -0.0922992 0
M  V30 6018 H 547.489 -1.84352 0.459814 0
M  V30 6019 H 545.639 -3.69914 -1.18725 0
M  V30 6020 H 547.311 -4.41981 1.32102 0
M  V30 6021 H 545.554 -4.13592 1.3086 0
M  V30 6022 H 546.225 -5.5043 0.416001 0
M  V30 6023 H 548.701 -4.0691 -0.869705 0
M  V30 6024 H 547.577 -5.25734 -1.57783 0
M  V30 6025 H 547.838 -3.72069 -2.38782 0
M  V30 6026 N 546.897 -0.0685191 -1.57451 0
M  V30 6027 C 548.127 0.609577 -1.97402 0
M  V30 6028 C 548.535 1.63882 -0.945489 0
M  V30 6029 O 547.878 1.8354 0.0766052 0
M  V30 6030 C 547.94 1.3385 -3.33653 0
M  V30 6031 C 547.604 0.463103 -4.54648 0
M  V30 6032 C 548.601 -0.277964 -5.19156 0
M  V30 6033 C 546.286 0.388941 -5.00792 0
M  V30 6034 C 548.28 -1.08145 -6.28159 0
M  V30 6035 C 545.967 -0.418217 -6.09667 0
M  V30 6036 C 546.965 -1.15208 -6.73213 0
M  V30 6037 O 546.653 -1.94594 -7.79993 0
M  V30 6038 H 546.385 0.170197 -0.654224 0
M  V30 6039 H 548.939 -0.13647 -2.04946 0
M  V30 6040 H 547.169 2.13055 -3.22714 0
M  V30 6041 H 548.858 1.90851 -3.58233 0
M  V30 6042 H 549.624 -0.230241 -4.84453 0
M  V30 6043 H 545.503 0.949769 -4.5111 0
M  V30 6044 H 549.047 -1.65476 -6.7769 0
M  V30 6045 H 544.944 -0.467515 -6.43805 0
M  V30 6046 H 545.712 -1.8699 -7.96854 0
M  V30 6047 N 548.375 1.56261 0.205012 0
M  V30 6048 C 549.605 1.83874 0.942018 0
M  V30 6049 C 550.013 0.647595 1.77772 0
M  V30 6050 O 549.356 -0.393098 1.79445 0
M  V30 6051 C 549.418 3.05453 1.89575 0
M  V30 6052 C 549.082 4.39772 1.24296 0
M  V30 6053 C 550.079 5.16133 0.624724 0
M  V30 6054 C 547.764 4.86504 1.24978 0
M  V30 6055 C 549.758 6.37396 0.0220117 0
M  V30 6056 C 547.445 6.07705 0.643232 0
M  V30 6057 C 548.443 6.82993 0.0304164 0
M  V30 6058 O 548.131 8.019 -0.566654 0
M  V30 6059 H 547.863 0.614896 0.280854 0
M  V30 6060 H 550.417 2.04215 0.220285 0
M  V30 6061 H 548.647 2.80972 2.65691 0
M  V30 6062 H 550.336 3.19797 2.4997 0
M  V30 6063 H 551.102 4.81127 0.611666 0
M  V30 6064 H 546.981 4.27865 1.71616 0
M  V30 6065 H 550.525 6.96102 -0.456926 0
M  V30 6066 H 546.422 6.42181 0.653759 0
M  V30 6067 H 547.19 8.17192 -0.462588 0
M  V30 6068 N 549.853 -0.472356 1.50355 0
M  V30 6069 C 550.8 -1.57051 1.69126 0
M  V30 6070 C 551.77 -1.5733 0.532574 0
M  V30 6071 O 552.955 -1.7488 0.762994 0
M  V30 6072 C 550.095 -2.95033 1.79024 0
M  V30 6073 C 549.208 -3.04552 3.06386 0
M  V30 6074 C 548.343 -4.33441 3.07087 0
M  V30 6075 C 547.382 -4.36697 4.28908 0
M  V30 6076 N 546.519 -5.57056 4.27356 0
M  V30 6077 H 551.359 -1.40351 2.62879 0
M  V30 6078 H 548.896 -0.682403 1.30314 0
M  V30 6079 H 550.854 -3.75048 1.82744 0
M  V30 6080 H 549.484 -3.10371 0.887109 0
M  V30 6081 H 548.536 -2.17419 3.12143 0
M  V30 6082 H 549.848 -3.02818 3.96362 0
M  V30 6083 H 549.002 -5.21801 3.09529 0
M  V30 6084 H 547.741 -4.37782 2.14939 0
M  V30 6085 H 546.746 -3.46734 4.2668 0
M  V30 6086 H 547.971 -4.34049 5.22282 0
M  V30 6087 H 545.917 -5.62184 3.3806 0
M  V30 6088 H 545.834 -5.57058 5.111 0
M  V30 6089 H 547.102 -6.47545 4.33942 0
M  V30 6090 N 551.331 -1.39911 -0.725443 0
M  V30 6091 C 552.58 -1.36963 -1.48068 0
M  V30 6092 C 552.893 0.0284478 -1.95579 0
M  V30 6093 O 554.099 0.180535 -2.70899 0
M  V30 6094 C 552.555 -2.40664 -2.67598 0
M  V30 6095 C 552.163 -3.86234 -2.26997 0
M  V30 6096 C 553.907 -2.46807 -3.45379 0
M  V30 6097 C 551.814 -4.81554 -3.43307 0
M  V30 6098 H 550.744 -0.509223 -0.556065 0
M  V30 6099 H 553.395 -1.65602 -0.790454 0
M  V30 6100 H 551.777 -2.05109 -3.38742 0
M  V30 6101 H 552.951 -4.3088 -1.63337 0
M  V30 6102 H 551.266 -3.83475 -1.62284 0
M  V30 6103 H 553.863 -3.15213 -4.31909 0
M  V30 6104 H 554.206 -1.49552 -3.8851 0
M  V30 6105 H 554.739 -2.81303 -2.81271 0
M  V30 6106 H 551.478 -5.80106 -3.05217 0
M  V30 6107 H 550.998 -4.4158 -4.05915 0
M  V30 6108 H 552.677 -5.0091 -4.0951 0
M  V30 6109 N 552.809 0.956637 -1.25245 0
M  V30 6110 C 554.086 1.67716 -1.00651 0
M  V30 6111 C 554.466 2.0585 0.467866 0
M  V30 6112 O 553.814 1.77029 1.44475 0
M  V30 6113 C 554.024 2.90093 -1.94028 0
M  V30 6114 C 555.372 3.6209 -2.21756 0
M  V30 6115 O 556.396 3.00171 -1.9177 0
M  V30 6116 O 555.255 4.7358 -2.72735 0
M  V30 6117 H 552.349 0.733731 -0.381533 0
M  V30 6118 H 554.895 1.00974 -1.3639 0
M  V30 6119 H 553.667 2.58689 -2.93591 0
M  V30 6120 H 553.29 3.64566 -1.58674 0
M  V30 6121 N 554.287 1.06798 1.15896 0
M  V30 6122 C 555.527 0.797041 1.8822 0
M  V30 6123 C 555.891 -0.664549 1.80133 0
M  V30 6124 O 557.092 -1.0503 2.47431 0
M  V30 6125 C 555.363 1.28431 3.33527 0
M  V30 6126 S 556.922 1.14319 4.23647 0
M  V30 6127 H 553.74 0.288988 0.649621 0
M  V30 6128 H 556.342 1.36594 1.39865 0
M  V30 6129 H 555.046 2.34286 3.36954 0
M  V30 6130 H 554.577 0.710371 3.86933 0
M  V30 6131 H 556.592 0.0772467 4.9614 0
M  V30 6132 N 555.766 -1.3263 0.851289 0
M  V30 6133 C 556.714 -2.30882 0.282202 0
M  V30 6134 C 557.708 -1.58697 -0.592589 0
M  V30 6135 O 558.914 -1.73461 -0.480768 0
M  V30 6136 H 555.289 -0.748492 0.0725487 0
M  V30 6137 H 557.26 -2.76374 1.12516 0
M  V30 6138 C 556.009 -3.43828 -0.517449 0
M  V30 6139 H 555.332 -3.99532 0.146392 0
M  V30 6140 H 556.772 -4.1474 -0.88128 0
M  V30 6141 C 555.231 -2.90786 -1.70133 0
M  V30 6142 O 555.761 -2.88 -2.80034 0
M  V30 6143 N 553.967 -2.4723 -1.52728 0
M  V30 6144 H 553.514 -2.49695 -0.633257 0
M  V30 6145 H 553.472 -2.12094 -2.32085 0
M  V30 6146 N 557.244 -0.608902 -1.45362 0
M  V30 6147 C 558.174 0.0964526 -2.33301 0
M  V30 6148 C 559.155 0.857444 -1.46908 0
M  V30 6149 O 560.34 0.827735 -1.75676 0
M  V30 6150 C 557.47 1.09354 -3.29635 0
M  V30 6151 C 556.424 0.445676 -4.25673 0
M  V30 6152 C 555.75 1.5511 -5.11708 0
M  V30 6153 C 557.05 -0.633972 -5.18438 0
M  V30 6154 H 558.744 -0.637829 -2.92527 0
M  V30 6155 H 556.29 -0.308178 -1.40664 0
M  V30 6156 H 558.243 1.59556 -3.90025 0
M  V30 6157 H 556.967 1.85843 -2.6857 0
M  V30 6158 H 555.626 -0.0354897 -3.66583 0
M  V30 6159 H 555.274 2.30631 -4.4701 0
M  V30 6160 H 554.974 1.12311 -5.76767 0
M  V30 6161 H 556.498 2.05537 -5.74967 0
M  V30 6162 H 557.912 -0.215974 -5.72893 0
M  V30 6163 H 556.309 -0.983789 -5.91981 0
M  V30 6164 H 557.379 -1.51005 -4.60788 0
M  V30 6165 N 558.722 1.53707 -0.348139 0
M  V30 6166 C 559.652 2.28111 0.498766 0
M  V30 6167 C 560.633 1.29851 1.09876 0
M  V30 6168 O 561.818 1.587 1.11928 0
M  V30 6169 C 558.948 3.05735 1.64753 0
M  V30 6170 C 557.902 4.11537 1.17565 0
M  V30 6171 C 557.228 4.77142 2.4133 0
M  V30 6172 C 558.528 5.21587 0.272844 0
M  V30 6173 H 560.222 2.99152 -0.121934 0
M  V30 6174 H 557.768 1.43875 -0.0600842 0
M  V30 6175 H 559.721 3.56526 2.24649 0
M  V30 6176 H 558.445 2.32354 2.2952 0
M  V30 6177 H 557.104 3.61665 0.599483 0
M  V30 6178 H 556.752 4.0035 3.04514 0
M  V30 6179 H 556.452 5.48626 2.10436 0
M  V30 6180 H 557.976 5.30719 3.01943 0
M  V30 6181 H 559.39 5.67986 0.778779 0
M  V30 6182 H 557.787 6.00074 0.0555849 0
M  V30 6183 H 558.857 4.79969 -0.689785 0
M  V30 6184 N 560.2 0.0768682 1.57412 0
M  V30 6185 C 561.11 -0.903207 2.16516 0
M  V30 6186 C 562.126 -1.32341 1.12968 0
M  V30 6187 O 563.302 -1.39507 1.45258 0
M  V30 6188 C 560.367 -2.1508 2.71922 0
M  V30 6189 C 559.428 -1.78653 3.90361 0
M  V30 6190 C 558.661 -2.97465 4.43114 0
M  V30 6191 O 558.884 -4.11638 3.94854 0
M  V30 6192 O 557.818 -2.76987 5.3438 0
M  V30 6193 H 561.644 -0.430427 3.00634 0
M  V30 6194 H 559.229 -0.146485 1.4868 0
M  V30 6195 H 561.111 -2.8823 3.07411 0
M  V30 6196 H 559.786 -2.61446 1.9086 0
M  V30 6197 H 558.693 -1.0274 3.59716 0
M  V30 6198 H 560.026 -1.37066 4.7273 0
M  V30 6199 N 561.678 -1.56367 -0.196722 0
M  V30 6200 C 562.925 -1.80529 -0.917366 0
M  V30 6201 C 563.253 -0.649817 -1.83324 0
M  V30 6202 O 562.508 0.36451 -1.92275 0
M  V30 6203 C 562.807 -3.10663 -1.767 0
M  V30 6204 C 562.473 -4.3962 -1.00225 0
M  V30 6205 C 561.135 -4.74653 -0.791095 0
M  V30 6206 C 563.487 -5.1913 -0.464035 0
M  V30 6207 C 560.815 -5.86692 -0.0302155 0
M  V30 6208 C 563.167 -6.31964 0.283625 0
M  V30 6209 C 561.831 -6.65581 0.505813 0
M  V30 6210 H 561.101 -0.660602 -0.335688 0
M  V30 6211 H 563.748 -1.90615 -0.183844 0
M  V30 6212 H 562.053 -2.95807 -2.56915 0
M  V30 6213 H 563.75 -3.26563 -2.32718 0
M  V30 6214 H 560.34 -4.12127 -1.17684 0
M  V30 6215 H 564.524 -4.9248 -0.614575 0
M  V30 6216 H 559.78 -6.11211 0.151917 0
M  V30 6217 H 563.954 -6.92791 0.708057 0
M  V30 6218 H 561.581 -7.52239 1.0973 0
M  V30 6219 N 563.156 0.464375 -1.50603 0
M  V30 6220 C 564.103 1.56152 -1.69956 0
M  V30 6221 C 565.073 1.57046 -0.54091 0
M  V30 6222 O 566.258 1.74473 -0.772258 0
M  V30 6223 C 563.398 2.94079 -1.80586 0
M  V30 6224 C 562.511 3.02923 -3.07996 0
M  V30 6225 C 561.646 4.31806 -3.09382 0
M  V30 6226 C 560.685 4.34417 -4.31218 0
M  V30 6227 N 559.822 5.54782 -4.30304 0
M  V30 6228 H 564.662 1.38955 -2.6362 0
M  V30 6229 H 562.199 0.675482 -1.30674 0
M  V30 6230 H 564.157 3.74073 -1.8473 0
M  V30 6231 H 562.787 3.09896 -0.903556 0
M  V30 6232 H 561.839 2.1576 -3.13292 0
M  V30 6233 H 563.151 3.00712 -3.97962 0
M  V30 6234 H 562.305 5.20153 -3.12292 0
M  V30 6235 H 561.044 4.36636 -2.17257 0
M  V30 6236 H 560.049 3.44467 -4.28512 0
M  V30 6237 H 561.274 4.31273 -5.24576 0
M  V30 6238 H 559.22 5.60384 -3.41037 0
M  V30 6239 H 559.137 5.54339 -5.14047 0
M  V30 6240 H 560.405 6.45235 -4.3737 0
M  V30 6241 O 564.673 1.49538 0.609965 0
M  V30 6242 H 565.364 1.46731 1.26451 0
M  V30 END ATOM
M  V30 BEGIN BOND
M  V30 END BOND
M  V30 END CTAB
M  END
$$$$
