drugbank_target|P50747 Biotin--protein ligase (DB00121)
 OpenBabel12092119253D

  0  0  0     0  0            999 V3000
M  V30 BEGIN CTAB
M  V30 COUNTS 11341 11454 0 0 0
M  V30 BEGIN ATOM
M  V30 1 H -0.908 1.98254 -0.117106 0
M  V30 2 N 0 1.576 0 0
M  V30 3 C 0.933 2.03868 1.02534 0
M  V30 4 C 1.911 0.928543 1.3348 0
M  V30 5 O 3.095 1.19667 1.45644 0
M  V30 6 C 0.222 2.43627 2.35294 0
M  V30 7 C -0.732 3.65373 2.2001 0
M  V30 8 S 0.101 5.13292 1.52614 0
M  V30 9 C 1.257 5.56322 2.86805 0
M  V30 10 H 1.49 2.90518 0.631377 0
M  V30 11 H -0.977 1.52953 0.210867 0
M  V30 12 H 0.981 2.67203 3.11629 0
M  V30 13 H -0.358 1.57376 2.7183 0
M  V30 14 H -1.165 3.90944 3.18086 0
M  V30 15 H -1.563 3.418 1.51819 0
M  V30 16 H 0.729 5.58782 3.83104 0
M  V30 17 H 1.672 6.56266 2.65933 0
M  V30 18 H 2.08 4.83886 2.90714 0
M  V30 19 N 1.4781 -0.272755 1.55222 0
M  V30 20 C 2.3881 -1.35918 1.91216 0
M  V30 21 C 3.4041 -1.54026 0.809436 0
M  V30 22 O 4.5801 -1.68148 1.10852 0
M  V30 23 C 1.6451 -2.69834 2.17693 0
M  V30 24 C 0.7061 -2.6047 3.41253 0
M  V30 25 C -0.0609 -3.88 3.66458 0
M  V30 26 O 0.1621 -4.88693 2.94169 0
M  V30 27 O -0.9039 -3.88189 4.59992 0
M  V30 28 H 2.9221 -1.0839 2.83699 0
M  V30 29 H 0.5071 -0.471301 1.41771 0
M  V30 30 H 2.3891 -3.49017 2.36147 0
M  V30 31 H 1.0641 -2.97148 1.28392 0
M  V30 32 H -0.0289 -1.79663 3.28134 0
M  V30 33 H 1.3041 -2.38106 4.30774 0
M  V30 34 N 2.9562 -1.48159 -0.537278 0
M  V30 35 C 4.2332 -1.46291 -1.29839 0
M  V30 36 C 4.6132 -0.170613 -2.10409 0
M  V30 37 O 3.9612 0.847746 -2.12192 0
M  V30 38 C 4.1712 -2.72055 -2.18603 0
M  V30 39 C 5.5192 -3.20087 -2.7898 0
M  V30 40 O 6.5432 -2.72921 -2.28894 0
M  V30 41 O 5.4022 -4.02138 -3.70064 0
M  V30 42 H 2.4962 -0.583906 -0.585647 0
M  V30 43 H 5.0422 -1.60384 -0.554534 0
M  V30 44 H 3.8142 -3.57628 -1.58801 0
M  V30 45 H 3.4372 -2.60646 -3.00249 0
M  V30 46 N 4.4343 0.785586 -1.36625 0
M  V30 47 C 5.8503 1.08419 -1.17122 0
M  V30 48 C 6.0503 2.015 0.00208491 0
M  V30 49 O 5.1063 2.43551 0.666278 0
M  V30 50 C 6.4193 1.69498 -2.48377 0
M  V30 51 C 7.9673 1.81821 -2.54775 0
M  V30 52 C 8.4423 2.46315 -3.86126 0
M  V30 53 N 9.9333 2.53779 -3.87492 0
M  V30 54 C 10.6683 3.045 -4.85868 0
M  V30 55 N 10.1643 3.55499 -5.94637 0
M  V30 56 N 11.9573 3.03247 -4.73284 0
M  V30 57 H 4.1083 0.167264 -2.1174 0
M  V30 58 H 6.3713 0.13682 -0.938075 0
M  V30 59 H 6.0773 1.08571 -3.34522 0
M  V30 60 H 5.9513 2.6896 -2.64462 0
M  V30 61 H 8.3383 2.41884 -1.69045 0
M  V30 62 H 8.4193 0.811532 -2.42586 0
M  V30 63 H 8.0633 1.86895 -4.72263 0
M  V30 64 H 7.9933 3.47561 -3.95612 0
M  V30 65 H 10.4843 2.17672 -3.08913 0
M  V30 66 H 10.7973 3.92562 -6.65669 0
M  V30 67 H 9.1423 3.5364 -5.98301 0
M  V30 68 H 12.3333 2.62696 -3.87438 0
M  V30 69 H 12.5063 3.42467 -5.50109 0
M  V30 70 N 5.9124 1.20967 1.01018 0
M  V30 71 C 6.8424 0.988272 2.11555 0
M  V30 72 C 7.8234 -0.0849778 1.69888 0
M  V30 73 O 9.0084 0.0738202 1.9406 0
M  V30 74 C 6.1384 0.546528 3.42973 0
M  V30 75 C 5.0924 1.56375 3.9841 0
M  V30 76 C 4.4184 0.97842 5.25672 0
M  V30 77 C 5.7184 2.94922 4.31066 0
M  V30 78 H 7.4124 1.91276 2.30334 0
M  V30 79 H 4.9584 0.921073 1.1069 0
M  V30 80 H 6.9114 0.378839 4.19694 0
M  V30 81 H 5.6354 -0.413598 3.23971 0
M  V30 82 H 4.2944 1.71891 3.23804 0
M  V30 83 H 3.9424 0.0101688 5.02999 0
M  V30 84 H 3.6424 1.65784 5.63728 0
M  V30 85 H 5.1664 0.821939 6.05043 0
M  V30 86 H 6.5804 2.8288 4.9865 0
M  V30 87 H 4.9774 3.5983 4.80253 0
M  V30 88 H 6.0474 3.4616 3.39561 0
M  V30 89 N 7.3905 -1.2043 1.01659 0
M  V30 90 C 8.3405 -2.21076 0.557623 0
M  V30 91 C 9.3245 -1.56176 -0.387029 0
M  V30 92 O 10.5165 -1.7575 -0.209996 0
M  V30 93 C 7.6455 -3.43146 -0.102707 0
M  V30 94 C 6.7315 -4.15213 0.863652 0
M  V30 95 N 7.1225 -4.63662 2.02117 0
M  V30 96 C 5.4205 -4.40716 0.684472 0
M  V30 97 C 6.1215 -5.18868 2.62966 0
M  V30 98 N 5.0975 -5.0893 1.91027 0
M  V30 99 H 8.8995 -2.56201 1.44008 0
M  V30 100 H 6.4135 -1.36366 0.881931 0
M  V30 101 H 8.4105 -4.14475 -0.449054 0
M  V30 102 H 7.0705 -3.09526 -0.981003 0
M  V30 103 H 8.0815 -4.58877 2.40109 0
M  V30 104 H 4.7585 -4.17245 -0.14577 0
M  V30 105 H 6.1485 -5.6673 3.60924 0
M  V30 106 N 8.8686 -0.792821 -1.36206 0
M  V30 107 C 9.8016 -0.139422 -2.27774 0
M  V30 108 C 10.7796 0.68649 -1.47398 0
M  V30 109 O 11.9636 0.656738 -1.7669 0
M  V30 110 C 9.0906 0.807947 -3.28922 0
M  V30 111 C 8.1366 0.0633999 -4.26453 0
M  V30 112 S 8.9696 -1.26319 -5.20388 0
M  V30 113 C 10.1256 -0.31991 -6.25082 0
M  V30 114 H 10.3586 -0.915809 -2.82843 0
M  V30 115 H 7.8916 -0.587203 -1.42798 0
M  V30 116 H 9.8496 1.34908 -3.87699 0
M  V30 117 H 8.5106 1.55761 -2.72759 0
M  V30 118 H 7.7036 0.782386 -4.9789 0
M  V30 119 H 7.3056 -0.407352 -3.71775 0
M  V30 120 H 9.5976 0.499985 -6.75653 0
M  V30 121 H 10.5406 -1.00307 -7.00959 0
M  V30 122 H 10.9486 0.0782694 -5.64446 0
M  V30 123 N 10.3467 1.47872 -0.545128 0
M  V30 124 C 11.6237 1.9554 0.0485222 0
M  V30 125 C 12.0037 1.4876 1.49779 0
M  V30 126 O 11.3517 0.720925 2.16829 0
M  V30 127 C 11.5617 3.48898 -0.084417 0
M  V30 128 C 12.9097 4.24547 0.0671239 0
M  V30 129 O 13.9337 3.56198 -0.0113649 0
M  V30 130 O 12.7927 5.45999 0.233882 0
M  V30 131 H 9.8867 0.823957 0.0708773 0
M  V30 132 H 12.4327 1.58327 -0.610798 0
M  V30 133 H 11.2047 3.75714 -1.09337 0
M  V30 134 H 10.8277 3.92845 0.613066 0
M  V30 135 N 11.8248 0.280983 1.55075 0
M  V30 136 C 12.7728 -0.619864 2.24188 0
M  V30 137 C 13.7668 -1.15315 1.24092 0
M  V30 138 O 14.9728 -1.1061 1.42005 0
M  V30 139 H 11.3478 -0.218459 0.719569 0
M  V30 140 H 13.3188 -0.0141831 2.98397 0
M  V30 141 C 12.0678 -1.7899 2.98091 0
M  V30 142 H 11.3908 -1.38874 3.74905 0
M  V30 143 H 12.8308 -2.39672 3.49762 0
M  V30 144 C 11.2898 -2.68192 2.03899 0
M  V30 145 O 11.8198 -3.6872 1.594 0
M  V30 146 N 10.0258 -2.35488 1.70275 0
M  V30 147 H 9.5728 -1.53787 2.06658 0
M  V30 148 H 9.5308 -2.95442 1.07524 0
M  V30 149 N 13.3029 -1.57598 0.00835791 0
M  V30 150 C 14.5509 -1.90551 -0.6734 0
M  V30 151 C 14.8719 -0.883301 -1.73847 0
M  V30 152 O 14.1419 0.0781442 -1.95744 0
M  V30 153 H 12.7219 -0.703312 -0.251717 0
M  V30 154 H 15.3839 -1.94833 0.0512592 0
M  V30 155 H 14.4799 -2.9056 -1.13935 0
M  V30 156 N 14.781 0.264519 -1.55364 0
M  V30 157 C 15.711 1.33121 -1.91836 0
M  V30 158 C 16.692 1.51101 -0.781192 0
M  V30 159 O 17.877 1.64003 -1.04003 0
M  V30 160 C 15.007 2.68921 -2.19769 0
M  V30 161 C 13.961 2.65661 -3.35571 0
M  V30 162 C 13.287 4.05093 -3.49004 0
M  V30 163 C 14.587 2.24187 -4.71739 0
M  V30 164 H 16.281 1.02844 -2.81182 0
M  V30 165 H 13.827 0.493286 -1.35287 0
M  V30 166 H 15.78 3.43663 -2.43872 0
M  V30 167 H 14.504 3.00799 -1.27231 0
M  V30 168 H 13.163 1.93377 -3.1145 0
M  V30 169 H 12.811 4.34206 -2.53917 0
M  V30 170 H 12.511 4.03804 -4.26868 0
M  V30 171 H 14.035 4.81561 -3.75408 0
M  V30 172 H 15.449 2.88654 -4.9533 0
M  V30 173 H 13.846 2.34044 -5.52579 0
M  V30 174 H 14.916 1.19327 -4.69988 0
M  V30 175 N 16.2591 1.48442 0.529413 0
M  V30 176 C 17.5051 1.5672 1.28711 0
M  V30 177 C 17.8381 0.2406 1.92704 0
M  V30 178 O 17.1131 -0.753454 1.79313 0
M  V30 179 C 17.3961 2.70587 2.37603 0
M  V30 180 C 17.2491 4.12953 1.78297 0
M  V30 181 C 18.5681 2.80212 3.39366 0
M  V30 182 H 15.6871 0.570474 0.466613 0
M  V30 183 H 18.3291 1.80617 0.589706 0
M  V30 184 H 16.4791 2.50342 2.97088 0
M  V30 185 H 18.1511 4.44639 1.22858 0
M  V30 186 H 16.3941 4.19927 1.0883 0
M  V30 187 H 17.0651 4.88448 2.57144 0
M  V30 188 H 19.5411 2.98553 2.89836 0
M  V30 189 H 18.4171 3.61611 4.12951 0
M  V30 190 H 18.6781 1.88393 3.99951 0
M  V30 191 N 17.7372 -0.778329 1.37039 0
M  V30 192 C 19.1482 -1.35421 1.28523 0
M  V30 193 C 19.4992 -1.96075 -0.0700901 0
M  V30 194 O 18.6242 -1.93352 -0.971801 0
M  V30 195 C 19.2192 -2.46211 2.32735 0
M  V30 196 C 17.7782 -2.99585 2.27873 0
M  V30 197 C 16.9252 -1.72748 2.16918 0
M  V30 198 H 19.8762 -0.5791 1.47757 0
M  V30 199 H 19.8972 -3.2552 1.9702 0
M  V30 200 H 19.4092 -2.02036 3.31365 0
M  V30 201 H 17.5102 -3.48152 1.32745 0
M  V30 202 H 17.6232 -3.55646 3.21018 0
M  V30 203 H 15.9872 -1.95416 1.63354 0
M  V30 204 H 16.7702 -1.30686 3.17452 0
M  V30 205 N 19.2153 -1.21501 -1.00376 0
M  V30 206 C 20.1473 -0.933174 -2.09343 0
M  V30 207 C 21.1603 0.0840896 -1.62583 0
M  V30 208 O 22.3493 -0.148563 -1.77881 0
M  V30 209 C 19.4493 -0.379869 -3.36764 0
M  V30 210 C 18.6223 -1.45176 -4.12605 0
M  V30 211 C 17.6813 -0.907476 -5.18316 0
M  V30 212 O 16.7073 -1.5912 -5.46507 0
M  V30 213 N 17.9093 0.276649 -5.7984 0
M  V30 214 H 20.6743 -1.87124 -2.34104 0
M  V30 215 H 18.2353 -1.12043 -1.16867 0
M  V30 216 H 20.2273 -0.00131488 -4.047 0
M  V30 217 H 18.7973 0.463048 -3.09151 0
M  V30 218 H 18.0173 -2.00411 -3.39454 0
M  V30 219 H 19.3053 -2.17328 -4.6005 0
M  V30 220 H 18.7033 0.849147 -5.59291 0
M  V30 221 H 17.2603 0.596702 -6.49063 0
M  V30 222 N 20.6934 1.19889 -1.02296 0
M  V30 223 C 21.6404 2.22901 -0.598651 0
M  V30 224 C 22.6104 1.61588 0.384521 0
M  V30 225 O 23.7954 1.88697 0.282522 0
M  V30 226 C 20.9354 3.45063 0.0504476 0
M  V30 227 C 20.0484 4.20783 -0.978053 0
M  V30 228 C 19.1834 5.30356 -0.299338 0
M  V30 229 C 18.2224 5.97826 -1.31416 0
M  V30 230 N 17.3594 6.98975 -0.661667 0
M  V30 231 H 22.1994 2.58554 -1.48169 0
M  V30 232 H 19.7364 1.27039 -0.741584 0
M  V30 233 H 21.6944 4.14831 0.443971 0
M  V30 234 H 20.3244 3.10084 0.897097 0
M  V30 235 H 19.3764 3.50018 -1.48969 0
M  V30 236 H 20.6884 4.67109 -1.74958 0
M  V30 237 H 19.8424 6.06516 0.149347 0
M  V30 238 H 18.5814 4.85084 0.504445 0
M  V30 239 H 17.5864 5.20422 -1.77317 0
M  V30 240 H 18.8114 6.45183 -2.11933 0
M  V30 241 H 16.7574 6.55886 0.122132 0
M  V30 242 H 16.6744 7.43461 -1.37117 0
M  V30 243 H 17.9424 7.7914 -0.236785 0
M  V30 244 N 22.1715 0.800033 1.35784 0
M  V30 245 C 23.4205 0.37387 1.98205 0
M  V30 246 C 23.7335 -1.06302 1.64193 0
M  V30 247 O 24.9395 -1.59198 2.19928 0
M  V30 248 C 23.3955 0.617532 3.54562 0
M  V30 249 C 23.0035 2.06654 3.9749 0
M  V30 250 C 24.7475 0.256401 4.23725 0
M  V30 251 C 22.6545 2.2563 5.46667 0
M  V30 252 H 21.5845 0.136055 0.741623 0
M  V30 253 H 24.2355 0.983166 1.54939 0
M  V30 254 H 22.6175 -0.0616248 3.95952 0
M  V30 255 H 23.7915 2.78296 3.67271 0
M  V30 256 H 22.1065 2.38691 3.41197 0
M  V30 257 H 24.7035 0.376318 5.33374 0
M  V30 258 H 25.0465 -0.796692 4.08606 0
M  V30 259 H 25.5795 0.889214 3.87734 0
M  V30 260 H 22.3185 3.2936 5.66747 0
M  V30 261 H 21.8385 1.58504 5.78478 0
M  V30 262 H 23.5175 2.06861 6.1304 0
M  V30 263 N 23.6496 -1.47581 0.552962 0
M  V30 264 C 24.8956 -2.02782 0.0273648 0
M  V30 265 C 25.2286 -1.42687 -1.31734 0
M  V30 266 O 24.5036 -0.580897 -1.85623 0
M  V30 267 C 24.7866 -3.60031 -0.0702371 0
M  V30 268 C 24.6396 -4.30566 1.30126 0
M  V30 269 C 25.9586 -4.33028 -0.785771 0
M  V30 270 H 23.0776 -0.736912 0.0114185 0
M  V30 271 H 25.7196 -1.76056 0.714432 0
M  V30 272 H 23.8696 -3.82932 -0.655382 0
M  V30 273 H 25.5416 -4.19018 1.92929 0
M  V30 274 H 23.7846 -3.91086 1.87709 0
M  V30 275 H 24.4556 -5.39114 1.18573 0
M  V30 276 H 26.9316 -4.15095 -0.288982 0
M  V30 277 H 25.8076 -5.42695 -0.823013 0
M  V30 278 H 26.0686 -4.01945 -1.841 0
M  V30 279 N 25.1277 -0.289203 -1.54924 0
M  V30 280 C 26.3527 0.329299 -2.04769 0
M  V30 281 C 26.7777 1.4763 -1.16564 0
M  V30 282 O 26.1357 1.80527 -0.167186 0
M  V30 283 C 26.1837 0.774438 -3.52186 0
M  V30 284 O 25.2877 1.88038 -3.67036 0
M  V30 285 H 24.6287 0.0659259 -0.660719 0
M  V30 286 H 27.1587 -0.42761 -2.00082 0
M  V30 287 H 27.1687 1.06642 -3.93816 0
M  V30 288 H 25.8437 -0.0646707 -4.1585 0
M  V30 289 H 24.4207 1.58985 -3.3731 0
M  V30 290 N 26.6058 1.57591 -0.0167156 0
M  V30 291 C 27.8518 1.91567 0.665582 0
M  V30 292 C 28.1848 0.892298 1.72487 0
M  V30 293 O 27.4598 -0.0867127 1.94307 0
M  V30 294 C 27.7428 3.36069 1.29342 0
M  V30 295 C 27.5958 4.49135 0.244541 0
M  V30 296 C 28.9148 3.803 2.21495 0
M  V30 297 H 26.0338 0.69666 0.240488 0
M  V30 298 H 28.6758 1.89866 -0.0714356 0
M  V30 299 H 26.8258 3.3765 1.92158 0
M  V30 300 H 28.4978 4.59689 -0.385228 0
M  V30 301 H 26.7408 4.3165 -0.431379 0
M  V30 302 H 27.4118 5.47242 0.723207 0
M  V30 303 H 29.8878 3.80377 1.68678 0
M  V30 304 H 28.7638 4.82127 2.62382 0
M  V30 305 H 29.0248 3.15104 3.101 0
M  V30 306 N 28.0839 -0.256276 1.55502 0
M  V30 307 C 29.0339 -1.31981 1.85916 0
M  V30 308 C 30.0179 -1.43927 0.719296 0
M  V30 309 O 31.2099 -1.47326 0.981019 0
M  V30 310 C 28.3389 -2.67703 2.14918 0
M  V30 311 C 27.4249 -2.59801 3.35208 0
M  V30 312 N 27.8159 -2.21524 4.54709 0
M  V30 313 C 26.1139 -2.90832 3.38131 0
M  V30 314 C 26.8149 -2.24024 5.36832 0
M  V30 315 N 25.7909 -2.63158 4.75656 0
M  V30 316 H 29.5929 -1.01423 2.75845 0
M  V30 317 H 27.1069 -0.464911 1.55603 0
M  V30 318 H 29.1039 -3.44445 2.34869 0
M  V30 319 H 27.7639 -2.99137 1.26282 0
M  V30 320 H 28.7749 -1.93223 4.80505 0
M  V30 321 H 25.4519 -3.26867 2.59739 0
M  V30 322 H 26.8419 -1.9685 6.42417 0
M  V30 323 N 29.562 -1.4872 -0.521534 0
M  V30 324 C 30.492 -1.66771 -1.63431 0
M  V30 325 C 31.473 -0.516499 -1.62069 0
M  V30 326 O 32.658 -0.750013 -1.79132 0
M  V30 327 C 29.788 -1.71515 -3.01993 0
M  V30 328 C 28.742 -2.86222 -3.18216 0
M  V30 329 C 28.068 -2.76061 -4.57924 0
M  V30 330 C 29.368 -4.27419 -3.00184 0
M  V30 331 H 31.062 -2.59932 -1.48579 0
M  V30 332 H 28.608 -1.25089 -0.713358 0
M  V30 333 H 30.561 -1.82731 -3.7972 0
M  V30 334 H 29.285 -0.749393 -3.17886 0
M  V30 335 H 27.944 -2.74575 -2.42908 0
M  V30 336 H 27.592 -1.77437 -4.70665 0
M  V30 337 H 27.292 -3.53037 -4.69722 0
M  V30 338 H 28.816 -2.89256 -5.37739 0
M  V30 339 H 30.23 -4.39855 -3.67697 0
M  V30 340 H 28.627 -5.05458 -3.2347 0
M  V30 341 H 29.697 -4.43293 -1.96518 0
M  V30 342 N 31.0401 0.771051 -1.3745 0
M  V30 343 C 31.9721 1.89352 -1.29146 0
M  V30 344 C 32.9851 1.61477 -0.207124 0
M  V30 345 O 34.1741 1.72382 -0.463324 0
M  V30 346 C 31.2741 3.24596 -0.974195 0
M  V30 347 C 30.4471 3.80111 -2.16413 0
M  V30 348 C 29.5061 4.93832 -1.81703 0
M  V30 349 O 28.5321 5.09382 -2.54006 0
M  V30 350 N 29.7341 5.75483 -0.761573 0
M  V30 351 H 32.4991 1.96991 -2.25864 0
M  V30 352 H 30.0601 0.950191 -1.31084 0
M  V30 353 H 32.0521 3.98193 -0.722828 0
M  V30 354 H 30.6221 3.12454 -0.0955527 0
M  V30 355 H 29.8421 2.98284 -2.57721 0
M  V30 356 H 31.1301 4.13932 -2.95867 0
M  V30 357 H 30.5281 5.65469 -0.161609 0
M  V30 358 H 29.0851 6.49302 -0.570064 0
M  V30 359 N 32.5182 1.22032 0.997298 0
M  V30 360 C 33.7952 0.950823 1.70935 0
M  V30 361 C 34.1752 -0.535292 2.042 0
M  V30 362 O 33.5232 -1.50217 1.72183 0
M  V30 363 C 33.7332 1.84386 2.96315 0
M  V30 364 C 35.0812 2.09732 3.69185 0
M  V30 365 O 36.1052 1.81798 3.06314 0
M  V30 366 O 34.9642 2.57018 4.82291 0
M  V30 367 H 32.0582 0.357204 0.745878 0
M  V30 368 H 34.6042 1.32997 1.05404 0
M  V30 369 H 33.3762 2.84928 2.68201 0
M  V30 370 H 32.9992 1.46602 3.69586 0
M  V30 371 N 33.9963 -1.19345 1.0293 0
M  V30 372 C 35.2213 -1.93538 0.745511 0
M  V30 373 C 35.6463 -1.75007 -0.689511 0
M  V30 374 O 35.0043 -1.05265 -1.47611 0
M  V30 375 C 35.0523 -3.43336 1.10239 0
M  V30 376 O 34.1563 -4.11806 0.221289 0
M  V30 377 H 33.4973 -0.604193 0.275404 0
M  V30 378 H 36.0273 -1.5141 1.37609 0
M  V30 379 H 36.0373 -3.94004 1.05947 0
M  V30 380 H 34.7123 -3.56146 2.14786 0
M  V30 381 H 33.2893 -3.715 0.322842 0
M  V30 382 N 35.4744 -0.807222 -1.35358 0
M  V30 383 C 36.7024 -0.400377 -2.02989 0
M  V30 384 C 37.1174 0.988859 -1.60832 0
M  V30 385 O 36.4744 1.63729 -0.806175 0
M  V30 386 C 36.5254 -0.474867 -3.58368 0
M  V30 387 O 36.2464 -1.80933 -3.98992 0
M  V30 388 C 37.7474 -0.0609112 -4.43258 0
M  V30 389 H 34.9674 -0.162587 -0.651004 0
M  V30 390 H 37.5114 -1.09102 -1.72965 0
M  V30 391 H 35.6664 0.167534 -3.87038 0
M  V30 392 H 36.0804 -1.77256 -4.9364 0
M  V30 393 H 37.5544 -0.164145 -5.51756 0
M  V30 394 H 38.0314 0.993831 -4.27808 0
M  V30 395 H 38.6374 -0.676492 -4.19885 0
M  V30 396 N 36.9525 1.47285 -0.560781 0
M  V30 397 C 37.8825 2.32857 0.173105 0
M  V30 398 C 38.8635 1.44009 0.905281 0
M  V30 399 O 40.0485 1.7286 0.885046 0
M  V30 400 C 37.1785 3.25861 1.20133 0
M  V30 401 C 36.1325 4.23978 0.585388 0
M  V30 402 C 35.4585 5.06332 1.7185 0
M  V30 403 C 36.7585 5.20242 -0.463178 0
M  V30 404 H 38.4525 2.94466 -0.541307 0
M  V30 405 H 35.9985 1.41601 -0.261764 0
M  V30 406 H 37.9515 3.84569 1.72293 0
M  V30 407 H 36.6755 2.62315 1.94573 0
M  V30 408 H 35.3345 3.66501 0.085054 0
M  V30 409 H 34.9825 4.39186 2.45203 0
M  V30 410 H 34.6825 5.72762 1.31213 0
M  V30 411 H 36.2065 5.67899 2.24329 0
M  V30 412 H 37.6205 5.73293 -0.027502 0
M  V30 413 H 36.0175 5.94896 -0.788627 0
M  V30 414 H 37.0875 4.65504 -1.35773 0
M  V30 415 N 38.4306 0.297415 1.54768 0
M  V30 416 C 39.3776 -0.580276 2.23386 0
M  V30 417 C 40.3476 -1.13238 1.21517 0
M  V30 418 O 41.5326 -1.17757 1.50126 0
M  V30 419 C 38.6726 -1.74801 2.97555 0
M  V30 420 C 37.7856 -1.22764 4.1419 0
M  V30 421 C 36.9206 -2.35895 4.75949 0
M  V30 422 C 35.9596 -1.80974 5.84735 0
M  V30 423 N 35.0966 -2.87664 6.40464 0
M  V30 424 H 39.9366 0.0114833 2.97998 0
M  V30 425 H 37.4736 0.0174361 1.4709 0
M  V30 426 H 39.4316 -2.43475 3.38786 0
M  V30 427 H 38.0616 -2.31145 2.25326 0
M  V30 428 H 37.1136 -0.433271 3.77924 0
M  V30 429 H 38.4256 -0.785551 4.92575 0
M  V30 430 H 37.5796 -3.12523 5.20014 0
M  V30 431 H 36.3186 -2.83429 3.96887 0
M  V30 432 H 35.3236 -1.02834 5.40097 0
M  V30 433 H 36.5486 -1.34348 6.65678 0
M  V30 434 H 34.4946 -3.34538 5.64287 0
M  V30 435 H 34.4116 -2.4794 7.14186 0
M  V30 436 H 35.6796 -3.642 6.89187 0
M  V30 437 N 39.9087 -1.5758 0.0250728 0
M  V30 438 C 40.8187 -2.1343 -0.973905 0
M  V30 439 C 41.8347 -1.08556 -1.35984 0
M  V30 440 O 43.0107 -1.40592 -1.44207 0
M  V30 441 C 40.0757 -2.64703 -2.23904 0
M  V30 442 C 39.1367 -3.84276 -1.91391 0
M  V30 443 C 38.3697 -4.33095 -3.11873 0
M  V30 444 O 38.5927 -3.81107 -4.24398 0
M  V30 445 O 37.5267 -5.24984 -2.94406 0
M  V30 446 H 41.3527 -2.99057 -0.529036 0
M  V30 447 H 38.9377 -1.48118 -0.195288 0
M  V30 448 H 40.8197 -2.97769 -2.98181 0
M  V30 449 H 39.4947 -1.82161 -2.6758 0
M  V30 450 H 38.4017 -3.56143 -1.14511 0
M  V30 451 H 39.7347 -4.67968 -1.52534 0
M  V30 452 N 41.3868 0.248026 -1.55636 0
M  V30 453 C 42.6328 0.97767 -1.77678 0
M  V30 454 C 42.9658 1.85016 -0.590135 0
M  V30 455 O 42.2408 1.90095 0.411611 0
M  V30 456 C 42.5238 1.83914 -3.09593 0
M  V30 457 C 42.3768 0.99491 -4.38659 0
M  V30 458 C 43.6958 2.82183 -3.37729 0
M  V30 459 H 40.8148 0.354005 -0.646413 0
M  V30 460 H 43.4568 0.248253 -1.88371 0
M  V30 461 H 41.6068 2.46104 -3.00608 0
M  V30 462 H 43.2788 0.391789 -4.59633 0
M  V30 463 H 41.5218 0.299231 -4.32767 0
M  V30 464 H 42.1928 1.63145 -5.2734 0
M  V30 465 H 44.6688 2.30129 -3.4667 0
M  V30 466 H 43.5448 3.39582 -4.31249 0
M  V30 467 H 43.8058 3.58588 -2.58586 0
M  V30 468 N 42.8649 1.48995 0.513639 0
M  V30 469 C 43.8119 1.6473 1.61656 0
M  V30 470 C 44.7819 0.488984 1.58739 0
M  V30 471 O 45.9669 0.714478 1.76918 0
M  V30 472 C 43.1069 1.7082 2.99858 0
M  V30 473 C 42.2199 2.9787 3.12885 0
M  V30 474 C 41.3549 2.95017 4.41744 0
M  V30 475 C 40.3939 4.16702 4.48359 0
M  V30 476 N 39.5309 4.11832 5.68629 0
M  V30 477 H 44.3709 2.58909 1.47547 0
M  V30 478 H 41.9079 1.28382 0.71808 0
M  V30 479 H 43.8659 1.72331 3.79944 0
M  V30 480 H 42.4959 0.801181 3.12699 0
M  V30 481 H 41.5479 3.06029 2.25944 0
M  V30 482 H 42.8599 3.8786 3.13633 0
M  V30 483 H 42.0139 2.95021 5.30139 0
M  V30 484 H 40.7529 2.02784 4.43542 0
M  V30 485 H 39.7579 4.16955 3.58369 0
M  V30 486 H 40.9829 5.10113 4.48287 0
M  V30 487 H 38.9289 3.22428 5.71293 0
M  V30 488 H 38.8459 4.95543 5.7094 0
M  V30 489 H 40.1139 4.1592 6.59266 0
M  V30 490 N 44.343 -0.763751 1.37857 0
M  V30 491 C 45.62 -1.51244 1.24035 0
M  V30 492 C 46 -2.10472 -0.162649 0
M  V30 493 O 45.348 -1.96206 -1.17112 0
M  V30 494 C 45.558 -2.58694 2.34261 0
M  V30 495 C 46.906 -3.25878 2.72193 0
M  V30 496 O 47.93 -2.68993 2.33497 0
M  V30 497 O 46.789 -4.2874 3.38887 0
M  V30 498 H 43.883 -0.670243 0.484462 0
M  V30 499 H 46.429 -0.800031 1.49658 0
M  V30 500 H 45.201 -2.13105 3.2818 0
M  V30 501 H 44.824 -3.37527 2.10146 0
M  V30 502 N 45.8211 -1.22559 -0.990812 0
M  V30 503 C 46.7531 -0.955325 -2.08342 0
M  V30 504 C 47.7661 0.0668408 -1.62663 0
M  V30 505 O 48.9551 -0.167421 -1.77713 0
M  V30 506 C 46.0551 -0.415566 -3.36342 0
M  V30 507 C 45.2281 -1.49544 -4.11042 0
M  V30 508 C 44.2871 -0.962399 -5.17324 0
M  V30 509 O 43.3131 -1.64907 -5.44788 0
M  V30 510 N 44.5151 0.215134 -5.80101 0
M  V30 511 H 47.2801 -1.89596 -2.32106 0
M  V30 512 H 44.8411 -1.13276 -1.15673 0
M  V30 513 H 46.8331 -0.0442386 -4.04676 0
M  V30 514 H 45.4031 0.430232 -3.09625 0
M  V30 515 H 44.6231 -2.04 -3.37309 0
M  V30 516 H 45.9111 -2.22195 -4.57719 0
M  V30 517 H 45.3091 0.789779 -5.6016 0
M  V30 518 H 43.8661 0.527826 -6.49659 0
M  V30 519 N 47.2992 1.18797 -1.03562 0
M  V30 520 C 48.5452 1.8893 -0.737113 0
M  V30 521 C 48.8782 1.79837 0.732956 0
M  V30 522 O 48.1532 1.19525 1.5344 0
M  V30 523 C 48.4362 3.39607 -1.19745 0
M  V30 524 C 48.2892 3.57537 -2.72924 0
M  V30 525 C 49.6082 4.33069 -0.783526 0
M  V30 526 H 46.7272 0.686057 -0.269249 0
M  V30 527 H 49.3692 1.39797 -1.28673 0
M  V30 528 H 47.5192 3.81583 -0.729855 0
M  V30 529 H 49.1912 3.24688 -3.27682 0
M  V30 530 H 47.4342 3.00363 -3.12993 0
M  V30 531 H 48.1052 4.63238 -3.00191 0
M  V30 532 H 50.5812 3.98846 -1.18581 0
M  V30 533 H 49.4572 5.3707 -1.13343 0
M  V30 534 H 49.7182 4.40986 0.313681 0
M  V30 535 N 48.7773 0.814389 1.34928 0
M  V30 536 C 50.0023 0.410097 2.03305 0
M  V30 537 C 50.4273 -0.973464 1.60951 0
M  V30 538 O 49.7853 -1.63185 0.789964 0
M  V30 539 C 49.8333 0.51049 3.56968 0
M  V30 540 O 48.9373 -0.473035 4.09678 0
M  V30 541 H 48.2783 0.170088 0.641846 0
M  V30 542 H 50.8083 1.10244 1.72358 0
M  V30 543 H 50.8183 0.383135 4.06197 0
M  V30 544 H 49.4933 1.51963 3.87144 0
M  V30 545 H 48.0703 -0.305272 3.71648 0
M  V30 546 N 50.2554 -1.46986 0.568584 0
M  V30 547 C 51.2034 -2.31858 -0.185649 0
M  V30 548 C 52.1974 -1.43624 -0.898249 0
M  V30 549 O 53.4034 -1.60327 -0.818242 0
M  V30 550 H 49.7784 -0.747866 -0.0787399 0
M  V30 551 H 51.7494 -2.93303 0.549191 0
M  V30 552 C 50.4984 -3.26513 -1.19519 0
M  V30 553 H 49.8214 -3.94377 -0.656285 0
M  V30 554 H 51.2614 -3.88707 -1.6936 0
M  V30 555 C 49.7204 -2.50847 -2.24894 0
M  V30 556 O 50.2504 -2.26119 -3.32014 0
M  V30 557 N 48.4564 -2.11656 -1.99124 0
M  V30 558 H 48.0034 -2.31966 -1.12024 0
M  V30 559 H 47.9614 -1.61347 -2.69842 0
M  V30 560 N 51.7335 -0.305618 -1.54608 0
M  V30 561 C 52.6805 0.568421 -2.23691 0
M  V30 562 C 53.6505 1.12592 -1.22116 0
M  V30 563 O 54.8355 1.16959 -1.50749 0
M  V30 564 C 51.9755 1.7322 -2.98477 0
M  V30 565 C 51.0885 1.20566 -4.14835 0
M  V30 566 C 50.2235 2.33368 -4.77193 0
M  V30 567 C 49.2625 1.7787 -5.85686 0
M  V30 568 N 48.3995 2.84263 -6.4198 0
M  V30 569 H 53.2395 -0.0272867 -2.97988 0
M  V30 570 H 50.7765 -0.0252363 -1.47078 0
M  V30 571 H 52.7345 2.41675 -3.40072 0
M  V30 572 H 51.3645 2.29947 -2.26548 0
M  V30 573 H 50.4165 0.413223 -3.78149 0
M  V30 574 H 51.7285 0.759417 -4.92985 0
M  V30 575 H 50.8825 3.09761 -5.21664 0
M  V30 576 H 49.6215 2.8132 -3.98385 0
M  V30 577 H 48.6265 0.99968 -5.40635 0
M  V30 578 H 49.8515 1.30816 -6.66381 0
M  V30 579 H 47.7975 3.31541 -5.66053 0
M  V30 580 H 47.7145 2.44149 -7.15491 0
M  V30 581 H 48.9825 3.6054 -6.91109 0
M  V30 582 N 53.2116 1.57565 -0.0334293 0
M  V30 583 C 54.1436 2.0739 0.975811 0
M  V30 584 C 55.1566 0.998166 1.2861 0
M  V30 585 O 56.3456 1.27426 1.25 0
M  V30 586 C 53.4456 2.4871 2.30209 0
M  V30 587 C 52.6186 3.79413 2.17634 0
M  V30 588 C 51.6776 4.07237 3.33233 0
M  V30 589 O 50.7036 4.77425 3.09927 0
M  V30 590 N 51.9056 3.5775 4.5716 0
M  V30 591 H 54.6706 2.94598 0.55066 0
M  V30 592 H 52.2316 1.61173 0.15323 0
M  V30 593 H 54.2236 2.64413 3.06378 0
M  V30 594 H 52.7936 1.66845 2.64351 0
M  V30 595 H 52.0136 3.73465 1.26165 0
M  V30 596 H 53.3016 4.65038 2.0644 0
M  V30 597 H 52.6996 3.00976 4.78989 0
M  V30 598 H 51.2566 3.78724 5.30482 0
M  V30 599 N 54.6897 -0.239769 1.55765 0
M  V30 600 C 55.6527 -1.28038 1.90103 0
M  V30 601 C 56.6527 -1.40723 0.778055 0
M  V30 602 O 57.8427 -1.39301 1.04599 0
M  V30 603 C 54.9747 -2.65702 2.13577 0
M  V30 604 H 56.1677 -0.988048 2.83157 0
M  V30 605 H 53.7207 -0.479382 1.48767 0
M  V30 606 H 54.4557 -3.00063 1.23015 0
M  V30 607 H 54.2407 -2.57875 2.95369 0
M  V30 608 H 55.7307 -3.40828 2.41301 0
M  V30 609 N 56.1678 -1.49265 -0.50573 0
M  V30 610 C 57.0998 -1.617 -1.62437 0
M  V30 611 C 58.1128 -0.499924 -1.54934 0
M  V30 612 O 59.3018 -0.771785 -1.60953 0
M  V30 613 C 56.4018 -1.5533 -3.01207 0
M  V30 614 C 55.5748 -2.8249 -3.33943 0
M  V30 615 C 54.6338 -2.69238 -4.52103 0
M  V30 616 O 53.6598 -3.43167 -4.5412 0
M  V30 617 N 54.8618 -1.80468 -5.51735 0
M  V30 618 H 57.6268 -2.58177 -1.52199 0
M  V30 619 H 55.1878 -1.46294 -0.693511 0
M  V30 620 H 57.1798 -1.44125 -3.78167 0
M  V30 621 H 55.7498 -0.667297 -3.05395 0
M  V30 622 H 54.9698 -3.08081 -2.45926 0
M  V30 623 H 56.2578 -3.66802 -3.5261 0
M  V30 624 H 55.6558 -1.19653 -5.52901 0
M  V30 625 H 54.2128 -1.75188 -6.27816 0
M  V30 626 N 57.6459 0.756429 -1.3826 0
M  V30 627 C 58.8949 1.51082 -1.3363 0
M  V30 628 C 59.2079 1.95467 0.0720068 0
M  V30 629 O 60.4139 2.7043 0.240834 0
M  V30 630 C 58.8699 2.72893 -2.34644 0
M  V30 631 C 58.4779 2.35544 -3.81081 0
M  V30 632 C 60.2219 3.50791 -2.39052 0
M  V30 633 C 58.1289 3.53948 -4.73787 0
M  V30 634 H 57.0589 0.56727 -0.49671 0
M  V30 635 H 59.7099 0.827147 -1.638 0
M  V30 636 H 58.0919 3.43227 -1.97513 0
M  V30 637 H 59.2659 1.72894 -4.27135 0
M  V30 638 H 57.5809 1.70786 -3.79764 0
M  V30 639 H 60.1779 4.38823 -3.05513 0
M  V30 640 H 60.5209 3.91745 -1.40861 0
M  V30 641 H 61.0539 2.87467 -2.74968 0
M  V30 642 H 57.7929 3.18064 -5.73163 0
M  V30 643 H 57.3129 4.15651 -4.32428 0
M  V30 644 H 58.9919 4.20566 -4.91663 0
M  V30 645 N 59.124 1.23083 0.984299 0
M  V30 646 C 60.054 1.03292 2.09411 0
M  V30 647 C 61.035 -0.048923 1.7003 0
M  V30 648 O 62.22 0.114967 1.93859 0
M  V30 649 C 59.35 0.619155 3.41736 0
M  V30 650 C 58.304 1.64791 3.95004 0
M  V30 651 C 57.63 1.0897 5.23478 0
M  V30 652 C 58.93 3.03999 4.24714 0
M  V30 653 H 60.624 1.96119 2.26225 0
M  V30 654 H 58.17 0.944344 1.08711 0
M  V30 655 H 60.123 0.467777 4.18796 0
M  V30 656 H 58.847 -0.344786 3.24775 0
M  V30 657 H 57.506 1.78721 3.20085 0
M  V30 658 H 57.154 0.11686 5.02864 0
M  V30 659 H 56.854 1.77704 5.60085 0
M  V30 660 H 58.378 0.950093 6.03163 0
M  V30 661 H 59.792 2.93393 4.92538 0
M  V30 662 H 58.189 3.69936 4.72512 0
M  V30 663 H 59.259 3.53285 3.32142 0
M  V30 664 N 60.6021 -1.18246 1.0419 0
M  V30 665 C 61.5121 -2.25574 0.644476 0
M  V30 666 C 62.5281 -1.70845 -0.329826 0
M  V30 667 O 63.7041 -2.00554 -0.184443 0
M  V30 668 C 60.7691 -3.46697 0.014877 0
M  V30 669 C 59.8301 -4.16554 1.03834 0
M  V30 670 C 59.0631 -5.31894 0.438692 0
M  V30 671 O 59.2861 -5.65385 -0.754752 0
M  V30 672 O 58.2201 -5.90459 1.168 0
M  V30 673 H 62.0461 -2.61836 1.53869 0
M  V30 674 H 59.6311 -1.25352 0.812854 0
M  V30 675 H 61.5131 -4.20062 -0.335538 0
M  V30 676 H 60.1881 -3.12255 -0.853138 0
M  V30 677 H 59.0951 -3.45251 1.44057 0
M  V30 678 H 60.4281 -4.54998 1.87716 0
M  V30 679 N 62.0802 -0.821533 -1.34494 0
M  V30 680 C 63.4912 -0.467956 -1.8074 0
M  V30 681 C 63.8422 1.01151 -1.68116 0
M  V30 682 O 62.9672 1.78707 -1.22036 0
M  V30 683 C 63.5622 -0.842627 -3.28154 0
M  V30 684 C 62.1212 -0.541439 -3.72485 0
M  V30 685 C 61.2682 -1.06028 -2.56229 0
M  V30 686 H 64.2192 -1.01183 -1.22261 0
M  V30 687 H 64.2402 -0.145876 -3.8022 0
M  V30 688 H 63.7522 -1.91945 -3.37311 0
M  V30 689 H 61.8532 0.526034 -3.68868 0
M  V30 690 H 61.9662 -1.08453 -4.66663 0
M  V30 691 H 60.3302 -0.481892 -2.501 0
M  V30 692 H 61.1132 -2.14352 -2.68157 0
M  V30 693 N 63.5583 1.46682 -0.576371 0
M  V30 694 C 64.5053 2.30241 0.160499 0
M  V30 695 C 65.4753 1.40233 0.890162 0
M  V30 696 O 66.6603 1.69186 0.882084 0
M  V30 697 C 63.8003 3.24578 1.1723 0
M  V30 698 C 62.9133 4.29684 0.446736 0
M  V30 699 C 62.0483 5.11154 1.44551 0
M  V30 700 C 61.0873 6.08015 0.70599 0
M  V30 701 N 60.2243 6.82376 1.65251 0
M  V30 702 H 65.0643 2.92727 -0.558127 0
M  V30 703 H 62.6013 1.44272 -0.287056 0
M  V30 704 H 64.5593 3.77711 1.77172 0
M  V30 705 H 63.1893 2.63916 1.85872 0
M  V30 706 H 62.2413 3.79458 -0.267594 0
M  V30 707 H 63.5533 4.98626 -0.131686 0
M  V30 708 H 62.7073 5.68533 2.11791 0
M  V30 709 H 61.4463 4.42158 2.05786 0
M  V30 710 H 60.4513 5.49796 0.0197725 0
M  V30 711 H 61.6763 6.79028 0.09912 0
M  V30 712 H 59.6223 6.16094 2.25308 0
M  V30 713 H 59.5393 7.47556 1.12673 0
M  V30 714 H 60.8073 7.44316 2.31546 0
M  V30 715 N 65.0364 0.313813 1.54444 0
M  V30 716 C 66.4474 -0.176243 1.85866 0
M  V30 717 C 66.7984 -1.52405 1.23561 0
M  V30 718 O 65.9234 -2.09605 0.538016 0
M  V30 719 C 66.5184 -0.32657 3.37222 0
M  V30 720 C 65.0774 -0.760846 3.6863 0
M  V30 721 C 64.2244 0.123247 2.77026 0
M  V30 722 H 67.1754 0.534418 1.49431 0
M  V30 723 H 67.1964 -1.15908 3.62416 0
M  V30 724 H 66.7084 0.654531 3.82541 0
M  V30 725 H 64.8094 -1.75204 3.28838 0
M  V30 726 H 64.9224 -0.571353 4.75681 0
M  V30 727 H 63.2864 -0.399597 2.51546 0
M  V30 728 H 64.0694 1.10094 3.25168 0
M  V30 729 N 66.5145 -1.57545 0.0417849 0
M  V30 730 C 67.4245 -2.14451 -0.951213 0
M  V30 731 C 68.4405 -1.09992 -1.34825 0
M  V30 732 O 69.6165 -1.42114 -1.42708 0
M  V30 733 C 66.6815 -2.67063 -2.21084 0
M  V30 734 C 65.7425 -3.86284 -1.87304 0
M  V30 735 C 64.9755 -4.36378 -3.07261 0
M  V30 736 O 65.1985 -3.85587 -4.20332 0
M  V30 737 O 64.1325 -5.28077 -2.88822 0
M  V30 738 H 67.9585 -2.99601 -0.497287 0
M  V30 739 H 65.5435 -1.48317 -0.179567 0
M  V30 740 H 67.4255 -3.00914 -2.95006 0
M  V30 741 H 66.1005 -1.84989 -2.65633 0
M  V30 742 H 65.0075 -3.57338 -1.10727 0
M  V30 743 H 66.3405 -4.6956 -1.47562 0
M  V30 744 N 67.9926 0.231505 -1.5589 0
M  V30 745 C 69.4036 0.799327 -1.68724 0
M  V30 746 C 69.7546 1.85398 -0.642022 0
M  V30 747 O 68.8796 2.1539 0.208784 0
M  V30 748 C 69.4746 1.45664 -3.05888 0
M  V30 749 C 68.0336 1.97197 -3.20609 0
M  V30 750 C 67.1806 0.828552 -2.64632 0
M  V30 751 H 70.1316 0.00702616 -1.58698 0
M  V30 752 H 70.1526 2.32517 -3.01191 0
M  V30 753 H 69.6646 0.688808 -3.81939 0
M  V30 754 H 67.7656 2.76813 -2.4941 0
M  V30 755 H 67.8786 2.15878 -4.27707 0
M  V30 756 H 66.2426 1.23321 -2.22854 0
M  V30 757 H 67.0256 0.0735544 -3.43221 0
M  V30 758 N 69.4707 1.49531 0.497807 0
M  V30 759 C 70.6957 1.63159 1.28039 0
M  V30 760 C 71.1207 0.30418 1.85624 0
M  V30 761 O 70.4787 -0.728618 1.66015 0
M  V30 762 C 70.5267 2.70537 2.38416 0
M  V30 763 O 69.6307 2.29931 3.42353 0
M  V30 764 H 68.9717 0.546001 0.377861 0
M  V30 765 H 71.5017 1.9574 0.59558 0
M  V30 766 H 71.5117 2.92802 2.84132 0
M  V30 767 H 70.1867 3.6689 1.95869 0
M  V30 768 H 68.7637 2.18009 3.02533 0
M  V30 769 N 70.9488 -0.749086 1.3866 0
M  V30 770 C 71.8788 -1.8764 1.38973 0
M  V30 771 C 72.8598 -1.68178 0.255004 0
M  V30 772 O 74.0448 -1.88704 0.458754 0
M  V30 773 C 71.1748 -3.25222 1.21851 0
M  V30 774 C 70.1288 -3.59295 2.32575 0
M  V30 775 C 69.4548 -4.95663 2.00555 0
M  V30 776 C 70.7548 -3.63709 3.7485 0
M  V30 777 H 72.4488 -1.87635 2.3331 0
M  V30 778 H 69.9948 -0.901329 1.12303 0
M  V30 779 H 71.9478 -4.03746 1.20695 0
M  V30 780 H 70.6718 -3.25719 0.239775 0
M  V30 781 H 69.3308 -2.83093 2.32925 0
M  V30 782 H 68.9788 -4.92724 1.01154 0
M  V30 783 H 68.6788 -5.19429 2.74714 0
M  V30 784 H 70.2028 -5.7656 2.01024 0
M  V30 785 H 71.6168 -4.32338 3.76506 0
M  V30 786 H 70.0138 -3.98986 4.48252 0
M  V30 787 H 71.0838 -2.63834 4.06841 0
M  V30 788 N 72.4269 -1.23603 -0.977757 0
M  V30 789 C 73.3369 -1.03632 -2.1047 0
M  V30 790 C 74.3529 0.0199435 -1.73989 0
M  V30 791 O 75.5289 -0.176076 -2.00629 0
M  V30 792 C 72.5939 -0.63276 -3.40877 0
M  V30 793 C 71.6549 -1.76437 -3.91367 0
M  V30 794 C 70.8879 -1.37997 -5.15551 0
M  V30 795 O 71.1109 -0.265357 -5.69782 0
M  V30 796 O 70.0449 -2.20201 -5.60174 0
M  V30 797 H 73.8709 -1.98086 -2.30208 0
M  V30 798 H 71.4559 -1.02332 -1.08851 0
M  V30 799 H 73.3379 -0.418761 -4.19314 0
M  V30 800 H 72.0129 0.282754 -3.22463 0
M  V30 801 H 70.9199 -2.03304 -3.14036 0
M  V30 802 H 72.2529 -2.6583 -4.14241 0
M  V30 803 N 73.905 1.17692 -1.04816 0
M  V30 804 C 75.154 1.87192 -0.751132 0
M  V30 805 C 75.467 1.8169 0.724441 0
M  V30 806 O 76.673 2.46625 1.13527 0
M  V30 807 C 75.129 3.35857 -1.29338 0
M  V30 808 C 74.737 3.4987 -2.79812 0
M  V30 809 C 76.481 4.10709 -1.07322 0
M  V30 810 C 74.388 4.92536 -3.27356 0
M  V30 811 H 73.318 0.701162 -0.277288 0
M  V30 812 H 75.969 1.32932 -1.26496 0
M  V30 813 H 74.351 3.89631 -0.707376 0
M  V30 814 H 75.525 3.06332 -3.44235 0
M  V30 815 H 73.84 2.88433 -3.00325 0
M  V30 816 H 76.437 5.15952 -1.4035 0
M  V30 817 H 76.78 4.16299 -0.0108001 0
M  V30 818 H 77.313 3.6313 -1.62423 0
M  V30 819 H 74.052 4.92119 -4.33012 0
M  V30 820 H 73.572 5.3676 -2.67673 0
M  V30 821 H 75.251 5.61288 -3.21815 0
M  V30 822 N 75.3831 0.828654 1.34056 0
M  V30 823 C 76.3301 0.252567 2.29414 0
M  V30 824 C 77.3001 -0.62588 1.53857 0
M  V30 825 O 78.4851 -0.566312 1.82202 0
M  V30 826 C 75.6251 -0.574831 3.40279 0
M  V30 827 C 74.7381 0.326499 4.30764 0
M  V30 828 C 73.8731 -0.511016 5.28736 0
M  V30 829 C 72.9121 0.389342 6.1086 0
M  V30 830 N 72.0491 -0.409439 7.00905 0
M  V30 831 H 76.8891 1.07108 2.78086 0
M  V30 832 H 74.4261 0.539677 1.36843 0
M  V30 833 H 76.3841 -1.06992 4.03248 0
M  V30 834 H 75.0141 -1.35841 2.92826 0
M  V30 835 H 74.0661 0.939837 3.68607 0
M  V30 836 H 75.3781 1.01857 4.88289 0
M  V30 837 H 74.5321 -1.07035 5.97184 0
M  V30 838 H 73.2711 -1.23657 4.71763 0
M  V30 839 H 72.2761 0.960769 5.4134 0
M  V30 840 H 73.5011 1.1131 6.69916 0
M  V30 841 H 71.4471 -1.11856 6.46393 0
M  V30 842 H 71.3641 0.224126 7.55668 0
M  V30 843 H 72.6321 -0.951336 7.73673 0
M  V30 844 N 76.8612 -1.46375 0.584142 0
M  V30 845 C 78.2722 -1.86031 0.157959 0
M  V30 846 C 78.6232 -1.48753 -1.27933 0
M  V30 847 O 77.7482 -0.903098 -1.96655 0
M  V30 848 C 78.3432 -3.37642 0.279892 0
M  V30 849 C 76.9022 -3.76289 -0.09143 0
M  V30 850 C 76.0492 -2.7039 0.615178 0
M  V30 851 H 79.0002 -1.37509 0.792274 0
M  V30 852 H 79.0212 -3.77275 -0.494364 0
M  V30 853 H 78.5332 -3.64742 1.32607 0
M  V30 854 H 76.6342 -3.54806 -1.13769 0
M  V30 855 H 76.7472 -4.78246 0.285886 0
M  V30 856 H 75.1112 -2.5464 0.0552833 0
M  V30 857 H 75.8942 -3.0033 1.66303 0
M  V30 858 N 78.3393 -0.321999 -1.54275 0
M  V30 859 C 79.2493 0.553631 -2.27974 0
M  V30 860 C 80.2653 1.13054 -1.32268 0
M  V30 861 O 81.4413 1.15084 -1.6528 0
M  V30 862 C 78.5063 1.69927 -3.02201 0
M  V30 863 C 77.5673 1.15433 -4.1349 0
M  V30 864 C 76.8003 2.24537 -4.84168 0
M  V30 865 O 77.0233 3.44852 -4.5435 0
M  V30 866 O 75.9573 1.90044 -5.7111 0
M  V30 867 H 79.7833 -0.0448345 -3.03667 0
M  V30 868 H 77.3683 -0.0877418 -1.49142 0
M  V30 869 H 79.2503 2.3663 -3.48689 0
M  V30 870 H 77.9253 2.28395 -2.29385 0
M  V30 871 H 76.8323 0.452436 -3.71354 0
M  V30 872 H 78.1653 0.614805 -4.88345 0
M  V30 873 N 79.8174 1.5752 -0.0501392 0
M  V30 874 C 80.7494 2.08413 0.95376 0
M  V30 875 C 81.7624 1.01175 1.27544 0
M  V30 876 O 82.9514 1.28744 1.23641 0
M  V30 877 C 80.0514 2.51138 2.27559 0
M  V30 878 C 79.2244 3.817 2.13598 0
M  V30 879 C 78.2834 4.10749 3.28895 0
M  V30 880 O 77.3094 4.80685 3.04845 0
M  V30 881 N 78.5114 3.62579 4.5334 0
M  V30 882 H 81.2764 2.95165 0.519383 0
M  V30 883 H 78.8374 1.61327 0.136127 0
M  V30 884 H 80.8294 2.67648 3.03557 0
M  V30 885 H 79.3994 1.6964 2.62567 0
M  V30 886 H 78.6194 3.74782 1.22197 0
M  V30 887 H 79.9074 4.67201 2.01496 0
M  V30 888 H 79.3054 3.06039 4.75769 0
M  V30 889 H 77.8624 3.84329 5.26436 0
M  V30 890 N 81.2955 -0.223234 1.56011 0
M  V30 891 C 82.5725 -0.972108 1.69733 0
M  V30 892 C 82.9525 -2.02485 0.59691 0
M  V30 893 O 82.3005 -2.25037 -0.396324 0
M  V30 894 C 82.5105 -1.58407 3.10979 0
M  V30 895 C 83.8585 -2.07696 3.70334 0
M  V30 896 O 84.8825 -1.68304 3.1393 0
M  V30 897 O 83.7415 -2.80096 4.69264 0
M  V30 898 H 80.8355 -0.453993 0.691245 0
M  V30 899 H 83.3815 -0.215149 1.68331 0
M  V30 900 H 82.1535 -0.823831 3.82529 0
M  V30 901 H 81.7765 -2.40661 3.16493 0
M  V30 902 N 82.7736 -1.49793 -0.48987 0
M  V30 903 C 84.0216 -1.59525 -1.24081 0
M  V30 904 C 84.3426 -0.288953 -1.92847 0
M  V30 905 O 83.6126 0.692436 -1.83254 0
M  V30 906 H 82.1926 -0.587796 -0.460983 0
M  V30 907 H 84.8546 -1.86477 -0.566778 0
M  V30 908 H 83.9506 -2.39696 -1.99881 0
M  V30 909 N 84.2517 0.741722 -1.39055 0
M  V30 910 C 85.1847 1.86416 -1.31622 0
M  V30 911 C 86.1627 1.61473 -0.191076 0
M  V30 912 O 87.3467 1.84825 -0.370399 0
M  V30 913 C 84.4737 3.22266 -1.04221 0
M  V30 914 C 83.5197 3.66079 -2.18834 0
M  V30 915 S 84.3527 3.7623 -3.81066 0
M  V30 916 C 85.5087 5.14881 -3.55877 0
M  V30 917 H 85.7417 1.92437 -2.26617 0
M  V30 918 H 83.2747 0.905907 -1.25031 0
M  V30 919 H 85.2327 4.00714 -0.890964 0
M  V30 920 H 83.8937 3.1391 -0.109237 0
M  V30 921 H 83.0867 4.64648 -1.95238 0
M  V30 922 H 82.6887 2.94817 -2.30128 0
M  V30 923 H 84.9807 6.01006 -3.12726 0
M  V30 924 H 85.9237 5.43503 -4.53884 0
M  V30 925 H 86.3317 4.84239 -2.90126 0
M  V30 926 N 85.7298 1.2412 0.971189 0
M  V30 927 C 86.6398 1.04747 2.09917 0
M  V30 928 C 87.6558 -0.0107162 1.73997 0
M  V30 929 O 88.8318 0.186714 2.00533 0
M  V30 930 C 85.8968 0.650828 3.40537 0
M  V30 931 C 84.9578 1.7851 3.90426 0
M  V30 932 C 84.1908 1.40729 5.14812 0
M  V30 933 O 84.4138 0.29557 5.69634 0
M  V30 934 O 83.3478 2.23168 5.58999 0
M  V30 935 H 87.1738 1.99304 2.29154 0
M  V30 936 H 84.7588 1.02908 1.08307 0
M  V30 937 H 86.6408 0.440992 4.19086 0
M  V30 938 H 85.3158 -0.265649 3.22608 0
M  V30 939 H 84.2228 2.04966 3.12953 0
M  V30 940 H 85.5558 2.68023 4.12825 0
M  V30 941 N 87.2079 -1.17134 1.05439 0
M  V30 942 C 88.1579 -2.1919 0.627675 0
M  V30 943 C 89.1419 -1.57328 -0.337147 0
M  V30 944 O 90.3339 -1.76329 -0.153976 0
M  V30 945 C 87.4629 -3.43299 0.00651435 0
M  V30 946 C 86.5489 -4.12255 0.995312 0
M  V30 947 N 86.9399 -4.56997 2.16765 0
M  V30 948 C 85.2379 -4.38316 0.824336 0
M  V30 949 C 85.9389 -5.10239 2.7934 0
M  V30 950 N 84.9149 -5.02595 2.07122 0
M  V30 951 H 88.7169 -2.5149 1.52086 0
M  V30 952 H 86.2309 -1.33491 0.924868 0
M  V30 953 H 88.2279 -4.15693 -0.316965 0
M  V30 954 H 86.8879 -3.1249 -0.882033 0
M  V30 955 H 87.8989 -4.51006 2.54587 0
M  V30 956 H 84.5759 -4.17498 -0.0129526 0
M  V30 957 H 85.9659 -5.54961 3.78772 0
M  V30 958 N 88.686 -0.835752 -1.33615 0
M  V30 959 C 89.932 -0.430596 -1.98176 0
M  V30 960 C 90.265 1.00684 -1.66061 0
M  V30 961 O 89.54 1.70339 -0.938877 0
M  V30 962 C 89.823 -0.648065 -3.5422 0
M  V30 963 C 89.676 -2.13255 -3.96033 0
M  V30 964 C 90.995 -0.0922113 -4.40003 0
M  V30 965 H 88.114 -0.157924 -0.719881 0
M  V30 966 H 90.756 -1.05069 -1.58305 0
M  V30 967 H 88.906 -0.120237 -3.88314 0
M  V30 968 H 90.578 -2.725 -3.72211 0
M  V30 969 H 88.821 -2.61823 -3.45878 0
M  V30 970 H 89.492 -2.23547 -5.04708 0
M  V30 971 H 91.968 -0.543343 -4.12537 0
M  V30 972 H 90.844 -0.274083 -5.48215 0
M  V30 973 H 91.105 1.00378 -4.30554 0
M  V30 974 N 90.1641 1.46063 -0.591896 0
M  V30 975 C 91.4121 2.01938 -0.0808391 0
M  V30 976 C 91.7331 1.46475 1.28725 0
M  V30 977 O 91.0031 0.652944 1.84698 0
M  V30 978 H 89.5831 0.746516 -0.0268938 0
M  V30 979 H 92.2451 1.79055 -0.769752 0
M  V30 980 H 91.3411 3.12094 -0.0187578 0
M  V30 981 N 91.6422 0.330177 1.54103 0
M  V30 982 C 93.0582 -0.0222371 1.59585 0
M  V30 983 C 93.2582 -1.49902 1.34654 0
M  V30 984 O 92.3142 -2.25592 1.13421 0
M  V30 985 C 93.6272 0.401932 2.98002 0
M  V30 986 C 95.1752 0.353145 3.11001 0
M  V30 987 C 95.6502 0.752576 4.51775 0
M  V30 988 N 97.1412 0.706239 4.57784 0
M  V30 989 C 97.8762 0.987417 5.64834 0
M  V30 990 N 97.3722 1.33607 6.79795 0
M  V30 991 N 99.1652 0.91254 5.54643 0
M  V30 992 H 91.3162 1.29228 1.68564 0
M  V30 993 H 93.5792 0.525906 0.78875 0
M  V30 994 H 93.2852 1.4311 3.21267 0
M  V30 995 H 93.1592 -0.229699 3.765 0
M  V30 996 H 95.5462 -0.666822 2.87467 0
M  V30 997 H 95.6272 1.0198 2.34593 0
M  V30 998 H 95.2712 1.77049 4.76042 0
M  V30 999 H 95.2012 0.0635409 5.26562 0
M  V30 1000 H 97.6922 0.44889 3.75224 0
M  V30 1001 H 98.0052 1.53582 7.57385 0
M  V30 1002 H 96.3502 1.37439 6.81275 0
M  V30 1003 H 99.5412 0.639601 4.6371 0
M  V30 1004 H 99.7142 1.13503 6.37982 0
M  V30 1005 N 93.1203 -1.57491 0.0584922 0
M  V30 1006 C 94.3973 -1.84346 -0.653918 0
M  V30 1007 C 94.7773 -0.948355 -1.88599 0
M  V30 1008 O 94.1253 -0.0112403 -2.28497 0
M  V30 1009 C 94.3353 -3.34239 -1.00425 0
M  V30 1010 C 95.6833 -4.01431 -1.38342 0
M  V30 1011 O 96.7073 -3.38907 -1.09637 0
M  V30 1012 O 95.5663 -5.11683 -1.91943 0
M  V30 1013 H 92.6603 -0.761112 -0.323478 0
M  V30 1014 H 95.2063 -1.6947 0.0884125 0
M  V30 1015 H 93.9783 -3.91089 -0.128625 0
M  V30 1016 H 93.6013 -3.54329 -1.80378 0
M  V30 1017 N 94.5984 0.214957 -1.56127 0
M  V30 1018 C 95.8754 0.963093 -1.70247 0
M  V30 1019 C 96.2554 2.02166 -0.60764 0
M  V30 1020 O 95.6034 2.25244 0.384385 0
M  V30 1021 C 95.8134 1.56756 -3.11815 0
M  V30 1022 C 97.1614 2.0573 -3.7143 0
M  V30 1023 O 98.1854 1.66637 -3.14818 0
M  V30 1024 O 97.0444 2.77603 -4.70743 0
M  V30 1025 H 94.1384 0.450321 -0.693643 0
M  V30 1026 H 96.6844 0.206219 -1.68442 0
M  V30 1027 H 95.4564 0.803533 -3.82961 0
M  V30 1028 H 95.0794 2.3898 -3.17765 0
M  V30 1029 N 96.0765 1.50051 0.48192 0
M  V30 1030 C 97.4875 1.5348 1.06305 0
M  V30 1031 C 97.8385 0.331997 1.93371 0
M  V30 1032 O 96.9635 -0.556256 2.09129 0
M  V30 1033 C 97.5585 2.7813 1.93466 0
M  V30 1034 C 96.1175 2.84275 2.46707 0
M  V30 1035 C 95.2645 2.47637 1.24785 0
M  V30 1036 H 98.2155 1.56472 0.264995 0
M  V30 1037 H 98.2365 2.59372 2.78399 0
M  V30 1038 H 97.7485 3.65654 1.30072 0
M  V30 1039 H 95.8495 2.01077 3.13686 0
M  V30 1040 H 95.9625 3.8691 2.82555 0
M  V30 1041 H 94.3265 1.99835 1.57918 0
M  V30 1042 H 95.1095 3.37457 0.630694 0
M  V30 1043 N 97.5546 -0.734337 1.39446 0
M  V30 1044 C 98.5016 -1.84835 1.38219 0
M  V30 1045 C 99.4716 -1.64331 0.24179 0
M  V30 1046 O 100.657 -1.85728 0.437002 0
M  V30 1047 C 97.7966 -3.22355 1.23212 0
M  V30 1048 C 96.9096 -3.5456 2.46801 0
M  V30 1049 C 96.0446 -4.81485 2.24377 0
M  V30 1050 C 95.0836 -5.06536 3.43639 0
M  V30 1051 N 94.2206 -6.24665 3.20528 0
M  V30 1052 H 99.0606 -1.85219 2.33448 0
M  V30 1053 H 96.5976 -0.905039 1.15963 0
M  V30 1054 H 98.5556 -4.0174 1.12522 0
M  V30 1055 H 97.1856 -3.21248 0.316121 0
M  V30 1056 H 96.2376 -2.69872 2.68092 0
M  V30 1057 H 97.5496 -3.6899 3.3563 0
M  V30 1058 H 96.7036 -5.68852 2.10933 0
M  V30 1059 H 95.4426 -4.6923 1.32944 0
M  V30 1060 H 94.4476 -4.17632 3.5758 0
M  V30 1061 H 95.6726 -5.20676 4.35974 0
M  V30 1062 H 93.6186 -6.13696 2.3176 0
M  V30 1063 H 93.5356 -6.39685 4.02913 0
M  V30 1064 H 94.8036 -7.14868 3.10779 0
M  V30 1065 N 99.0327 -1.24633 -0.964593 0
M  V30 1066 C 99.9957 -1.0424 -2.04124 0
M  V30 1067 C 100.996 0.00137563 -1.608 0
M  V30 1068 O 102.186 -0.239883 -1.7254 0
M  V30 1069 C 99.3177 -0.580588 -3.3592 0
M  V30 1070 H 100.511 -1.99803 -2.23649 0
M  V30 1071 H 98.0637 -1.06899 -1.14027 0
M  V30 1072 H 98.7987 0.3781 -3.22088 0
M  V30 1073 H 98.5837 -1.33398 -3.6871 0
M  V30 1074 H 100.074 -0.459034 -4.15069 0
M  V30 1075 N 100.511 1.16574 -1.06058 0
M  V30 1076 C 101.441 2.23057 -0.690488 0
M  V30 1077 C 102.422 1.67141 0.315901 0
M  V30 1078 O 103.607 1.93253 0.191556 0
M  V30 1079 C 100.737 3.47222 -0.073625 0
M  V30 1080 C 99.6908 4.16016 -1.00573 0
M  V30 1081 C 99.0168 5.34104 -0.252289 0
M  V30 1082 C 100.317 4.67264 -2.33371 0
M  V30 1083 H 102.011 2.54271 -1.58072 0
M  V30 1084 H 99.5568 1.22218 -0.76149 0
M  V30 1085 H 101.51 4.20939 0.19714 0
M  V30 1086 H 100.234 3.15302 0.85161 0
M  V30 1087 H 98.8928 3.44223 -1.2612 0
M  V30 1088 H 98.5408 4.98437 0.675988 0
M  V30 1089 H 98.2408 5.81072 -0.873455 0
M  V30 1090 H 99.7648 6.10599 0.0109857 0
M  V30 1091 H 101.179 5.32573 -2.12223 0
M  V30 1092 H 99.5758 5.24843 -2.90963 0
M  V30 1093 H 100.646 3.83602 -2.96611 0
M  V30 1094 N 101.989 0.842826 1.3317 0
M  V30 1095 C 103.237 0.439577 1.97262 0
M  V30 1096 C 103.558 -1.00548 1.67078 0
M  V30 1097 O 102.828 -1.70098 0.971779 0
M  V30 1098 H 101.408 0.159558 0.72976 0
M  V30 1099 H 104.07 1.07665 1.62463 0
M  V30 1100 H 103.166 0.574886 3.0676 0
M  V30 1101 N 103.467 -1.45747 0.599634 0
M  V30 1102 C 104.377 -2.34262 -0.125888 0
M  V30 1103 C 105.393 -1.50768 -0.868625 0
M  V30 1104 O 106.569 -1.83592 -0.828003 0
M  V30 1105 C 103.634 -3.28252 -1.11587 0
M  V30 1106 C 102.695 -4.27651 -0.375956 0
M  V30 1107 C 101.928 -5.1715 -1.31877 0
M  V30 1108 O 102.151 -5.09916 -2.55621 0
M  V30 1109 O 101.085 -5.96286 -0.820157 0
M  V30 1110 H 104.911 -2.97688 0.601315 0
M  V30 1111 H 102.496 -1.44999 0.359934 0
M  V30 1112 H 104.378 -3.86191 -1.68626 0
M  V30 1113 H 103.053 -2.67401 -1.82424 0
M  V30 1114 H 101.96 -3.7335 0.236698 0
M  V30 1115 H 103.293 -4.91334 0.29177 0
M  V30 1116 N 104.945 -0.338344 -1.53925 0
M  V30 1117 C 105.855 0.529421 -2.28548 0
M  V30 1118 C 106.871 1.11645 -1.3346 0
M  V30 1119 O 108.047 1.13325 -1.66492 0
M  V30 1120 C 105.112 1.66713 -3.03987 0
M  V30 1121 C 104.173 1.11041 -4.14691 0
M  V30 1122 C 103.406 2.19389 -4.86522 0
M  V30 1123 O 103.629 3.40013 -4.57982 0
M  V30 1124 O 102.563 1.83976 -5.73094 0
M  V30 1125 H 106.389 -0.0770399 -3.03602 0
M  V30 1126 H 103.974 -0.103555 -1.49041 0
M  V30 1127 H 105.856 2.32918 -3.5118 0
M  V30 1128 H 104.531 2.25949 -2.31794 0
M  V30 1129 H 103.438 0.413024 -3.71813 0
M  V30 1130 H 104.771 0.562975 -4.8897 0
M  V30 1131 N 106.423 1.57458 -0.0668435 0
M  V30 1132 C 107.834 1.80776 0.466558 0
M  V30 1133 C 108.185 0.980361 1.69951 0
M  V30 1134 O 107.31 0.201441 2.1546 0
M  V30 1135 C 107.905 3.27881 0.85321 0
M  V30 1136 C 106.464 3.52062 1.3315 0
M  V30 1137 C 105.611 2.75513 0.314264 0
M  V30 1138 H 108.562 1.5598 -0.292588 0
M  V30 1139 H 108.583 3.39659 1.715 0
M  V30 1140 H 108.095 3.88075 -0.0443439 0
M  V30 1141 H 106.196 2.97167 2.24772 0
M  V30 1142 H 106.309 4.60762 1.31285 0
M  V30 1143 H 104.673 2.42123 0.790492 0
M  V30 1144 H 105.456 3.38442 -0.575477 0
M  V30 1145 N 107.901 -0.206675 1.56239 0
M  V30 1146 C 108.848 -1.25617 1.93621 0
M  V30 1147 C 109.818 -1.45824 0.795274 0
M  V30 1148 O 111.003 -1.59148 1.05245 0
M  V30 1149 C 108.143 -2.59839 2.27107 0
M  V30 1150 C 107.256 -2.47308 3.54207 0
M  V30 1151 C 106.391 -3.74155 3.7707 0
M  V30 1152 C 105.43 -3.56407 4.97635 0
M  V30 1153 N 104.567 -4.75238 5.1681 0
M  V30 1154 H 109.407 -0.930383 2.83104 0
M  V30 1155 H 106.944 -0.448065 1.4011 0
M  V30 1156 H 108.902 -3.38021 2.44535 0
M  V30 1157 H 107.532 -2.90485 1.40778 0
M  V30 1158 H 106.584 -1.60483 3.4489 0
M  V30 1159 H 107.896 -2.30122 4.42544 0
M  V30 1160 H 107.05 -4.60778 3.94675 0
M  V30 1161 H 105.789 -3.94282 2.87042 0
M  V30 1162 H 104.794 -2.68168 4.79964 0
M  V30 1163 H 106.019 -3.37736 5.89161 0
M  V30 1164 H 103.965 -4.95651 4.29728 0
M  V30 1165 H 103.882 -4.60835 5.99306 0
M  V30 1166 H 105.15 -5.63246 5.38864 0
M  V30 1167 N 109.379 -1.50304 -0.473955 0
M  V30 1168 C 110.311 -1.65109 -1.58971 0
M  V30 1169 C 111.324 -0.532676 -1.53839 0
M  V30 1170 O 112.513 -0.805751 -1.59279 0
M  V30 1171 C 109.613 -1.61684 -2.97845 0
M  V30 1172 C 108.786 -2.8951 -3.27876 0
M  V30 1173 C 107.845 -2.78768 -4.4629 0
M  V30 1174 O 106.871 -3.52722 -4.46739 0
M  V30 1175 N 108.073 -1.9213 -5.47783 0
M  V30 1176 H 110.838 -2.61347 -1.46689 0
M  V30 1177 H 108.399 -1.47732 -0.662324 0
M  V30 1178 H 110.391 -1.52114 -3.75024 0
M  V30 1179 H 108.961 -0.731925 -3.03911 0
M  V30 1180 H 108.181 -3.13228 -2.39336 0
M  V30 1181 H 109.469 -3.74199 -3.4475 0
M  V30 1182 H 108.867 -1.31353 -5.50239 0
M  V30 1183 H 107.424 -1.88466 -6.23958 0
M  V30 1184 N 110.857 0.726932 -1.39834 0
M  V30 1185 C 112.273 1.03354 -1.21615 0
M  V30 1186 C 112.473 2.01327 -0.08338 0
M  V30 1187 O 111.529 2.46158 0.56238 0
M  V30 1188 C 112.842 1.58811 -2.55342 0
M  V30 1189 C 114.39 1.70851 -2.62257 0
M  V30 1190 C 114.865 2.29716 -3.96225 0
M  V30 1191 N 116.356 2.37116 -3.97907 0
M  V30 1192 C 117.091 2.83619 -4.98345 0
M  V30 1193 N 116.587 3.29958 -6.09179 0
M  V30 1194 N 118.38 2.82901 -4.8572 0
M  V30 1195 H 110.531 0.0773069 -2.12259 0
M  V30 1196 H 112.794 0.0969102 -0.943034 0
M  V30 1197 H 112.5 0.942855 -3.38826 0
M  V30 1198 H 112.374 2.57502 -2.75632 0
M  V30 1199 H 114.761 2.34497 -1.79152 0
M  V30 1200 H 114.842 0.707913 -2.45809 0
M  V30 1201 H 114.486 1.66696 -4.79765 0
M  V30 1202 H 114.416 3.30469 -4.09997 0
M  V30 1203 H 116.907 2.04374 -3.17868 0
M  V30 1204 H 117.22 3.63976 -6.8172 0
M  V30 1205 H 115.565 3.27946 -6.12761 0
M  V30 1206 H 118.756 2.46027 -3.98231 0
M  V30 1207 H 118.929 3.18827 -5.6414 0
M  V30 1208 N 112.336 1.25143 0.95797 0
M  V30 1209 C 113.752 1.01892 1.22842 0
M  V30 1210 C 113.952 -0.266311 1.99732 0
M  V30 1211 O 113.008 -0.979913 2.3271 0
M  V30 1212 C 114.321 2.24004 2.00606 0
M  V30 1213 C 115.869 2.28731 2.13662 0
M  V30 1214 C 116.344 3.5049 2.94823 0
M  V30 1215 N 117.835 3.50866 3.02403 0
M  V30 1216 C 118.57 4.4174 3.65586 0
M  V30 1217 N 118.066 5.42882 4.30408 0
M  V30 1218 N 119.859 4.29429 3.62694 0
M  V30 1219 H 112.01 2.07718 0.443493 0
M  V30 1220 H 114.273 0.912031 0.258657 0
M  V30 1221 H 113.979 3.17395 1.51503 0
M  V30 1222 H 113.853 2.26907 3.01319 0
M  V30 1223 H 116.24 1.35865 2.61963 0
M  V30 1224 H 116.321 2.29848 1.12265 0
M  V30 1225 H 115.965 4.43676 2.47213 0
M  V30 1226 H 115.895 3.46617 3.96439 0
M  V30 1227 H 118.386 2.777 2.56302 0
M  V30 1228 H 118.699 6.0844 4.76467 0
M  V30 1229 H 117.044 5.46758 4.29047 0
M  V30 1230 H 120.235 3.49643 3.11236 0
M  V30 1231 H 120.408 5.00448 4.1165 0
M  V30 1232 N 113.814 -1.1601 1.06675 0
M  V30 1233 C 115.062 -1.86264 0.784229 0
M  V30 1234 C 115.383 -1.82328 -0.691488 0
M  V30 1235 O 114.653 -1.25947 -1.50047 0
M  V30 1236 H 113.233 -0.689621 0.28711 0
M  V30 1237 H 115.895 -1.40664 1.34906 0
M  V30 1238 H 114.991 -2.91595 1.11259 0
M  V30 1239 N 115.292 -0.849877 -1.32721 0
M  V30 1240 C 116.517 -0.463856 -2.02146 0
M  V30 1241 C 116.942 0.930449 -1.63476 0
M  V30 1242 O 116.3 1.61033 -0.832952 0
M  V30 1243 C 116.348 -0.604955 -3.55489 0
M  V30 1244 O 115.452 0.36425 -4.10788 0
M  V30 1245 H 114.793 -0.187046 -0.637111 0
M  V30 1246 H 117.323 -1.14775 -1.69375 0
M  V30 1247 H 117.333 -0.490696 -4.05038 0
M  V30 1248 H 116.008 -1.62174 -3.82978 0
M  V30 1249 H 114.585 0.206628 -3.72327 0
M  V30 1250 N 116.77 1.45427 -0.607355 0
M  V30 1251 C 117.733 2.28974 0.101693 0
M  V30 1252 C 118.733 1.39754 0.795329 0
M  V30 1253 O 119.923 1.61878 0.643527 0
M  V30 1254 C 117.055 3.20768 1.15414 0
M  V30 1255 H 118.248 2.93147 -0.632844 0
M  V30 1256 H 115.801 1.51945 -0.366391 0
M  V30 1257 H 116.536 2.61395 1.91945 0
M  V30 1258 H 116.321 3.86489 0.66098 0
M  V30 1259 H 117.811 3.83589 1.65073 0
M  V30 1260 N 118.248 0.346503 1.53744 0
M  V30 1261 C 119.473 -0.253074 2.0585 0
M  V30 1262 C 119.898 -1.43202 1.21962 0
M  V30 1263 O 119.256 -1.79783 0.234073 0
M  V30 1264 C 119.304 -0.643193 3.54817 0
M  V30 1265 O 118.408 -1.74286 3.73762 0
M  V30 1266 H 117.749 -0.0413583 0.662711 0
M  V30 1267 H 120.279 0.501574 1.98357 0
M  V30 1268 H 120.289 -0.919526 3.97503 0
M  V30 1269 H 118.964 0.218966 4.15323 0
M  V30 1270 H 117.541 -1.46356 3.42979 0
M  V30 1271 N 119.726 -1.57421 0.075193 0
M  V30 1272 C 120.974 -1.93236 -0.591974 0
M  V30 1273 C 121.295 -0.956241 -1.69944 0
M  V30 1274 O 120.565 -0.00494792 -1.95899 0
M  V30 1275 H 119.145 -0.713355 -0.22166 0
M  V30 1276 H 121.807 -1.9444 0.133848 0
M  V30 1277 H 120.903 -2.95131 -1.01509 0
M  V30 1278 N 121.204 0.198386 -1.56346 0
M  V30 1279 C 122.429 0.939682 -1.84891 0
M  V30 1280 C 122.854 1.76202 -0.658369 0
M  V30 1281 O 122.212 1.76993 0.392851 0
M  V30 1282 C 122.26 1.81428 -3.11635 0
M  V30 1283 O 121.364 2.91265 -2.91956 0
M  V30 1284 H 120.705 0.264807 -0.608912 0
M  V30 1285 H 123.235 0.204695 -2.03573 0
M  V30 1286 H 123.245 2.21958 -3.42343 0
M  V30 1287 H 121.92 1.21004 -3.97908 0
M  V30 1288 H 120.497 2.54514 -2.72538 0
M  V30 1289 N 122.682 1.50554 0.465978 0
M  V30 1290 C 123.592 1.72585 1.58907 0
M  V30 1291 C 124.608 0.60911 1.6299 0
M  V30 1292 O 125.784 0.88804 1.80765 0
M  V30 1293 C 122.849 1.81995 2.95091 0
M  V30 1294 C 121.91 3.05751 3.01355 0
M  V30 1295 C 121.143 3.14702 4.31043 0
M  V30 1296 O 121.366 2.30313 5.21835 0
M  V30 1297 O 120.3 4.07468 4.43005 0
M  V30 1298 H 124.126 2.67799 1.43239 0
M  V30 1299 H 121.711 1.34711 0.646013 0
M  V30 1300 H 123.593 1.90335 3.75966 0
M  V30 1301 H 122.268 0.899659 3.10947 0
M  V30 1302 H 121.175 3.02908 2.19539 0
M  V30 1303 H 122.508 3.97375 2.90437 0
M  V30 1304 N 124.16 -0.719506 1.40217 0
M  V30 1305 C 125.571 -1.29848 1.34151 0
M  V30 1306 C 125.922 -1.96196 0.0131349 0
M  V30 1307 O 125.047 -1.973 -0.88892 0
M  V30 1308 C 125.642 -2.36118 2.42968 0
M  V30 1309 C 124.201 -2.8965 2.40374 0
M  V30 1310 C 123.348 -1.63393 2.24049 0
M  V30 1311 H 126.299 -0.51591 1.5008 0
M  V30 1312 H 126.32 -3.16871 2.10649 0
M  V30 1313 H 125.832 -1.878 3.39636 0
M  V30 1314 H 123.933 -3.42208 1.47392 0
M  V30 1315 H 124.046 -3.4171 3.35814 0
M  V30 1316 H 122.41 -1.88312 1.71495 0
M  V30 1317 H 123.193 -1.17104 3.2271 0
M  V30 1318 N 125.638 -1.25649 -0.95132 0
M  V30 1319 C 126.601 -1.06399 -2.03007 0
M  V30 1320 C 127.601 -0.0156794 -1.60792 0
M  V30 1321 O 128.791 -0.25817 -1.72276 0
M  V30 1322 C 125.923 -0.616184 -3.35285 0
M  V30 1323 H 127.116 -2.02164 -2.21517 0
M  V30 1324 H 124.669 -1.08103 -1.12887 0
M  V30 1325 H 125.404 0.343917 -3.22471 0
M  V30 1326 H 125.189 -1.37301 -3.67275 0
M  V30 1327 H 126.679 -0.503032 -4.14559 0
M  V30 1328 N 127.117 1.15442 -1.07289 0
M  V30 1329 C 128.365 1.85845 -0.794096 0
M  V30 1330 C 128.686 1.82692 0.681809 0
M  V30 1331 O 127.956 1.26741 1.49377 0
M  V30 1332 H 126.536 0.688089 -0.290763 0
M  V30 1333 H 129.198 1.39947 -1.3565 0
M  V30 1334 H 128.294 2.91001 -1.12804 0
M  V30 1335 N 128.595 0.856903 1.32268 0
M  V30 1336 C 129.872 0.382583 1.91822 0
M  V30 1337 C 130.252 -1.13407 1.78051 0
M  V30 1338 O 129.6 -1.95673 1.18001 0
M  V30 1339 C 129.81 0.849446 3.38505 0
M  V30 1340 C 131.158 0.867936 4.15634 0
M  V30 1341 O 132.182 0.794232 3.47232 0
M  V30 1342 O 131.041 0.972286 5.37781 0
M  V30 1343 H 128.135 0.112014 0.819379 0
M  V30 1344 H 130.681 0.943952 1.41024 0
M  V30 1345 H 129.453 1.89267 3.42482 0
M  V30 1346 H 129.076 0.265652 3.96712 0
M  V30 1347 N 130.073 -1.45103 0.615059 0
M  V30 1348 C 131.298 -2.07064 0.117988 0
M  V30 1349 C 131.723 -1.4554 -1.19163 0
M  V30 1350 O 131.081 -0.550855 -1.72729 0
M  V30 1351 C 131.129 -3.606 -0.000288387 0
M  V30 1352 O 130.233 -3.98847 -1.04856 0
M  V30 1353 H 129.574 -0.659467 0.0774581 0
M  V30 1354 H 132.104 -1.86236 0.847186 0
M  V30 1355 H 132.114 -4.07529 -0.196091 0
M  V30 1356 H 130.789 -4.04765 0.955932 0
M  V30 1357 H 129.366 -3.63577 -0.828619 0
M  V30 1358 N 131.551 -0.354651 -1.53558 0
M  V30 1359 C 132.828 0.294281 -1.93374 0
M  V30 1360 C 133.208 1.67313 -1.28723 0
M  V30 1361 O 132.556 2.24179 -0.442247 0
M  V30 1362 C 132.766 0.355445 -3.47185 0
M  V30 1363 C 134.114 0.601007 -4.20325 0
M  V30 1364 O 135.138 0.437106 -3.53508 0
M  V30 1365 O 133.997 0.919322 -5.38712 0
M  V30 1366 H 131.091 0.174033 -0.808481 0
M  V30 1367 H 133.637 -0.406638 -1.64756 0
M  V30 1368 H 132.409 -0.611729 -3.86489 0
M  V30 1369 H 132.032 1.1027 -3.82003 0
M  V30 1370 N 133.029 1.57378 -0.0835403 0
M  V30 1371 C 134.445 1.57246 0.273109 0
M  V30 1372 C 134.645 1.09385 1.69225 0
M  V30 1373 O 133.701 0.765051 2.40631 0
M  V30 1374 C 135.014 3.00614 0.0720628 0
M  V30 1375 C 136.562 3.12684 0.1407 0
M  V30 1376 C 137.037 4.57989 -0.0322094 0
M  V30 1377 N 138.528 4.63194 0.0230085 0
M  V30 1378 C 139.263 5.73335 -0.0861941 0
M  V30 1379 N 138.759 6.9235 -0.24958 0
M  V30 1380 N 140.552 5.62093 -0.0282886 0
M  V30 1381 H 132.703 1.86801 -1.0109 0
M  V30 1382 H 134.966 0.861687 -0.395222 0
M  V30 1383 H 134.672 3.39786 -0.907662 0
M  V30 1384 H 134.546 3.68193 0.81936 0
M  V30 1385 H 136.933 2.73391 1.11092 0
M  V30 1386 H 137.014 2.47719 -0.637896 0
M  V30 1387 H 136.658 4.97973 -0.999247 0
M  V30 1388 H 136.588 5.21 0.765937 0
M  V30 1389 H 139.079 3.77613 0.14722 0
M  V30 1390 H 139.392 7.72117 -0.324733 0
M  V30 1391 H 137.737 6.94415 -0.285097 0
M  V30 1392 H 140.928 4.67997 0.0981408 0
M  V30 1393 H 141.101 6.47895 -0.116845 0
M  V30 1394 N 134.507 -0.190092 1.56449 0
M  V30 1395 C 135.755 -0.907908 1.80559 0
M  V30 1396 C 136.076 -1.83583 0.657438 0
M  V30 1397 O 135.346 -1.93203 -0.323924 0
M  V30 1398 H 133.926 -0.338247 0.666032 0
M  V30 1399 H 136.588 -0.194403 1.93928 0
M  V30 1400 H 135.684 -1.49604 2.73907 0
M  V30 1401 N 135.985 -1.50799 -0.457987 0
M  V30 1402 C 137.233 -1.62121 -1.2067 0
M  V30 1403 C 137.554 -0.329793 -1.92191 0
M  V30 1404 O 136.824 0.653409 -1.84682 0
M  V30 1405 H 135.404 -0.597441 -0.448411 0
M  V30 1406 H 138.066 -1.87637 -0.527096 0
M  V30 1407 H 137.162 -2.43882 -1.94751 0
M  V30 1408 N 137.463 0.71206 -1.40597 0
M  V30 1409 C 138.711 1.46907 -1.38791 0
M  V30 1410 C 139.032 1.94998 0.00780391 0
M  V30 1411 O 138.302 1.70587 0.963174 0
M  V30 1412 H 136.882 0.545043 -0.51082 0
M  V30 1413 H 139.544 0.843882 -1.75683 0
M  V30 1414 H 138.64 2.34021 -2.06496 0
M  V30 1415 N 138.941 1.26152 0.944643 0
M  V30 1416 C 140.352 1.10454 1.50522 0
M  V30 1417 C 140.703 -0.31635 1.93633 0
M  V30 1418 O 139.828 -1.20746 1.79581 0
M  V30 1419 C 140.423 1.99891 2.73549 0
M  V30 1420 C 138.982 1.88348 3.25886 0
M  V30 1421 C 138.129 1.93447 1.9868 0
M  V30 1422 H 141.08 1.39292 0.760489 0
M  V30 1423 H 141.101 1.54477 3.47732 0
M  V30 1424 H 140.613 3.03297 2.42141 0
M  V30 1425 H 138.714 0.878636 3.62092 0
M  V30 1426 H 138.827 2.73696 3.93227 0
M  V30 1427 H 137.191 1.37456 2.14425 0
M  V30 1428 H 137.974 2.98476 1.69607 0
M  V30 1429 N 140.419 -1.14872 1.07899 0
M  V30 1430 C 141.665 -1.86064 0.806725 0
M  V30 1431 C 141.998 -1.82434 -0.665706 0
M  V30 1432 O 141.273 -1.25138 -1.48899 0
M  V30 1433 C 141.556 -3.34929 1.32267 0
M  V30 1434 C 141.409 -3.47161 2.86006 0
M  V30 1435 C 142.728 -4.29863 0.943717 0
M  V30 1436 H 139.847 -0.675591 0.294526 0
M  V30 1437 H 142.489 -1.34925 1.33773 0
M  V30 1438 H 140.639 -3.78611 0.870974 0
M  V30 1439 H 142.311 -3.12302 3.39507 0
M  V30 1440 H 140.554 -2.88539 3.23925 0
M  V30 1441 H 141.225 -4.51777 3.17177 0
M  V30 1442 H 143.701 -3.9417 1.33302 0
M  V30 1443 H 142.577 -5.32494 1.33198 0
M  V30 1444 H 142.838 -4.41846 -0.149796 0
M  V30 1445 N 141.898 -0.863906 -1.31812 0
M  V30 1446 C 142.808 -0.318461 -2.32428 0
M  V30 1447 C 143.824 0.568496 -1.64451 0
M  V30 1448 O 145 0.46666 -1.95919 0
M  V30 1449 C 142.065 0.476355 -3.43412 0
M  V30 1450 C 141.126 -0.43784 -4.27061 0
M  V30 1451 C 140.359 0.319138 -5.32745 0
M  V30 1452 O 140.582 1.54799 -5.48993 0
M  V30 1453 O 139.516 -0.319861 -6.01049 0
M  V30 1454 H 143.342 -1.15229 -2.80991 0
M  V30 1455 H 140.927 -0.627103 -1.35602 0
M  V30 1456 H 142.809 0.927156 -4.11074 0
M  V30 1457 H 141.484 1.28683 -2.97022 0
M  V30 1458 H 140.391 -0.937013 -3.62175 0
M  V30 1459 H 141.724 -1.21375 -4.77 0
M  V30 1460 N 143.376 1.44774 -0.622745 0
M  V30 1461 C 144.326 2.2774 0.108889 0
M  V30 1462 C 145.31 1.38189 0.824175 0
M  V30 1463 O 146.502 1.62063 0.711664 0
M  V30 1464 C 143.631 3.25353 1.09546 0
M  V30 1465 C 142.717 4.22392 0.380232 0
M  V30 1466 N 143.108 5.02388 -0.586535 0
M  V30 1467 C 141.406 4.41588 0.625792 0
M  V30 1468 C 142.107 5.72894 -1.00834 0
M  V30 1469 N 141.083 5.42479 -0.348878 0
M  V30 1470 H 144.885 2.86993 -0.63341 0
M  V30 1471 H 142.399 1.5611 -0.447589 0
M  V30 1472 H 144.396 3.83538 1.63414 0
M  V30 1473 H 143.056 2.6766 1.83815 0
M  V30 1474 H 144.067 5.0885 -0.963975 0
M  V30 1475 H 140.744 3.95003 1.352 0
M  V30 1476 H 142.134 6.47158 -1.80656 0
M  V30 1477 N 144.854 0.36279 1.53368 0
M  V30 1478 C 146.084 -0.228281 2.05335 0
M  V30 1479 C 146.492 -1.43226 1.23625 0
M  V30 1480 O 145.835 -1.81717 0.269206 0
M  V30 1481 C 145.897 -0.688549 3.52845 0
M  V30 1482 C 145.561 0.398362 4.5526 0
M  V30 1483 C 146.558 1.24732 5.04716 0
M  V30 1484 C 144.243 0.557805 4.99193 0
M  V30 1485 C 146.237 2.2411 5.96702 0
M  V30 1486 C 143.924 1.55495 5.90986 0
M  V30 1487 C 144.922 2.39503 6.39631 0
M  V30 1488 O 144.61 3.37517 7.29615 0
M  V30 1489 H 144.342 -0.044395 0.674541 0
M  V30 1490 H 146.896 0.518668 1.98744 0
M  V30 1491 H 145.126 -1.48706 3.56964 0
M  V30 1492 H 146.815 -1.20231 3.87685 0
M  V30 1493 H 147.581 1.13532 4.71525 0
M  V30 1494 H 143.46 -0.0862959 4.60919 0
M  V30 1495 H 147.004 2.89718 6.34594 0
M  V30 1496 H 142.901 1.66744 6.23592 0
M  V30 1497 H 143.669 3.33213 7.47604 0
M  V30 1498 N 146.332 -1.57332 0.0918853 0
M  V30 1499 C 147.282 -2.10385 -0.87876 0
M  V30 1500 C 148.266 -1.01814 -1.24591 0
M  V30 1501 O 149.458 -1.28093 -1.22152 0
M  V30 1502 C 146.587 -2.68517 -2.13901 0
M  V30 1503 C 145.673 -3.84126 -1.79744 0
M  V30 1504 N 146.064 -4.92288 -1.1613 0
M  V30 1505 C 144.362 -3.93801 -2.09373 0
M  V30 1506 C 145.063 -5.7295 -1.00513 0
M  V30 1507 N 144.039 -5.21876 -1.5214 0
M  V30 1508 H 147.841 -2.91395 -0.38293 0
M  V30 1509 H 145.355 -1.62017 -0.111423 0
M  V30 1510 H 147.352 -3.04852 -2.84378 0
M  V30 1511 H 146.012 -1.88961 -2.64053 0
M  V30 1512 H 147.023 -5.1123 -0.828504 0
M  V30 1513 H 143.7 -3.25249 -2.61762 0
M  V30 1514 H 145.09 -6.69978 -0.507902 0
M  V30 1515 N 147.81 0.181792 -1.56548 0
M  V30 1516 C 148.74 1.22765 -1.98623 0
M  V30 1517 C 149.721 1.46747 -0.860189 0
M  V30 1518 O 150.906 1.58259 -1.12551 0
M  V30 1519 C 148.036 2.56894 -2.33715 0
M  V30 1520 C 146.99 2.475 -3.49182 0
M  V30 1521 C 146.316 3.86023 -3.69986 0
M  V30 1522 C 147.616 1.98866 -4.82959 0
M  V30 1523 H 149.31 0.877942 -2.86239 0
M  V30 1524 H 146.856 0.42088 -1.37712 0
M  V30 1525 H 148.809 3.30253 -2.61746 0
M  V30 1526 H 147.533 2.93632 -1.42997 0
M  V30 1527 H 146.192 1.76596 -3.21262 0
M  V30 1528 H 145.84 4.20136 -2.76576 0
M  V30 1529 H 145.54 3.80609 -4.47672 0
M  V30 1530 H 147.064 4.60984 -4.00407 0
M  V30 1531 H 148.478 2.61992 -5.09934 0
M  V30 1532 H 146.875 2.04424 -5.64208 0
M  V30 1533 H 147.945 0.942465 -4.75653 0
M  V30 1534 N 149.288 1.51039 0.449983 0
M  V30 1535 C 150.238 1.67824 1.54335 0
M  V30 1536 C 151.222 0.5324 1.51836 0
M  V30 1537 O 152.414 0.787762 1.58503 0
M  V30 1538 C 149.543 1.7951 2.92628 0
M  V30 1539 C 148.629 2.99838 2.9993 0
M  V30 1540 N 149.02 4.23207 2.77001 0
M  V30 1541 C 147.318 2.98832 3.31082 0
M  V30 1542 C 148.019 5.04361 2.89818 0
M  V30 1543 N 146.995 4.38746 3.2094 0
M  V30 1544 H 150.797 2.60884 1.35339 0
M  V30 1545 H 148.311 1.48513 0.657085 0
M  V30 1546 H 150.308 1.89642 3.7127 0
M  V30 1547 H 148.968 0.876227 3.12654 0
M  V30 1548 H 149.979 4.5236 2.52172 0
M  V30 1549 H 146.656 2.16527 3.56963 0
M  V30 1550 H 148.046 6.12528 2.76151 0
M  V30 1551 N 150.766 -0.704594 1.40972 0
M  V30 1552 C 151.696 -1.83124 1.44872 0
M  V30 1553 C 152.677 -1.67281 0.30838 0
M  V30 1554 O 153.862 -1.87149 0.518556 0
M  V30 1555 C 150.992 -3.21181 1.32136 0
M  V30 1556 C 149.946 -3.51714 2.43888 0
M  V30 1557 C 149.272 -4.89032 2.16222 0
M  V30 1558 C 150.572 -3.516 3.86232 0
M  V30 1559 H 152.266 -1.80117 2.39161 0
M  V30 1560 H 149.812 -0.865145 1.15114 0
M  V30 1561 H 151.765 -3.99702 1.33479 0
M  V30 1562 H 150.489 -3.24791 0.343279 0
M  V30 1563 H 149.148 -2.75539 2.41813 0
M  V30 1564 H 148.796 -4.89256 1.16778 0
M  V30 1565 H 148.496 -5.10426 2.911 0
M  V30 1566 H 150.02 -5.69873 2.19265 0
M  V30 1567 H 151.434 -4.2014 3.9007 0
M  V30 1568 H 149.831 -3.84523 4.60719 0
M  V30 1569 H 150.901 -2.50757 4.15029 0
M  V30 1570 N 152.244 -1.26651 -0.937939 0
M  V30 1571 C 153.469 -1.15279 -1.72411 0
M  V30 1572 C 153.894 0.287866 -1.85884 0
M  V30 1573 O 153.252 1.20855 -1.35143 0
M  V30 1574 C 153.3 -1.83028 -3.10698 0
M  V30 1575 O 152.404 -1.12128 -3.96864 0
M  V30 1576 H 151.745 -0.401504 -0.528858 0
M  V30 1577 H 154.275 -1.67531 -1.1745 0
M  V30 1578 H 154.285 -1.89981 -3.6107 0
M  V30 1579 H 152.96 -2.87833 -3.00208 0
M  V30 1580 H 151.537 -1.13173 -3.55312 0
M  V30 1581 N 153.722 1.14298 -1.08507 0
M  V30 1582 C 154.947 1.8976 -0.837001 0
M  V30 1583 C 155.372 1.78097 0.605228 0
M  V30 1584 O 154.73 1.12188 1.4242 0
M  V30 1585 C 154.778 3.37685 -1.26495 0
M  V30 1586 O 153.882 4.10281 -0.417514 0
M  V30 1587 H 153.223 0.590365 -0.303917 0
M  V30 1588 H 155.753 1.44672 -1.44676 0
M  V30 1589 H 155.763 3.88501 -1.24625 0
M  V30 1590 H 154.438 3.45492 -2.31534 0
M  V30 1591 H 153.015 3.69536 -0.499722 0
M  V30 1592 N 155.201 0.870884 1.31352 0
M  V30 1593 C 156.441 0.488783 1.9847 0
M  V30 1594 C 156.805 -0.941536 1.67329 0
M  V30 1595 O 158.006 -1.42903 2.27667 0
M  V30 1596 C 156.277 0.739688 3.49662 0
M  V30 1597 S 157.836 0.457582 4.36408 0
M  V30 1598 H 154.654 0.18242 0.6872 0
M  V30 1599 H 157.256 1.12711 1.59739 0
M  V30 1600 H 155.96 1.77944 3.69816 0
M  V30 1601 H 155.491 0.0883905 3.93301 0
M  V30 1602 H 157.506 -0.709752 4.91098 0
M  V30 1603 N 156.679 -1.44442 0.630414 0
M  V30 1604 C 157.629 -2.27794 -0.0968103 0
M  V30 1605 C 158.613 -1.38624 -0.816834 0
M  V30 1606 O 159.805 -1.62438 -0.70306 0
M  V30 1607 C 156.934 -3.25929 -1.07819 0
M  V30 1608 C 156.02 -4.22588 -0.357826 0
M  V30 1609 N 156.411 -5.0207 0.613169 0
M  V30 1610 C 154.709 -4.41914 -0.602365 0
M  V30 1611 C 155.41 -5.72351 1.03871 0
M  V30 1612 N 154.386 -5.42287 0.377642 0
M  V30 1613 H 158.188 -2.86653 0.648621 0
M  V30 1614 H 155.702 -1.55871 0.455862 0
M  V30 1615 H 157.699 -3.84399 -1.61378 0
M  V30 1616 H 156.359 -2.68631 -1.82393 0
M  V30 1617 H 157.37 -5.08331 0.990947 0
M  V30 1618 H 154.047 -3.95714 -1.33103 0
M  V30 1619 H 155.437 -6.4619 1.84086 0
M  V30 1620 N 158.157 -0.370918 -1.53173 0
M  V30 1621 C 159.067 0.480823 -2.2962 0
M  V30 1622 C 160.083 1.08789 -1.35798 0
M  V30 1623 O 161.259 1.09768 -1.68858 0
M  V30 1624 C 158.324 1.60227 -3.07454 0
M  V30 1625 C 157.385 1.0222 -4.16953 0
M  V30 1626 C 156.618 2.0902 -4.91066 0
M  V30 1627 O 156.841 3.30222 -4.65091 0
M  V30 1628 O 155.775 1.71778 -5.76867 0
M  V30 1629 H 159.601 -0.141421 -3.03371 0
M  V30 1630 H 157.186 -0.135146 -1.48787 0
M  V30 1631 H 159.068 2.25417 -3.56041 0
M  V30 1632 H 157.743 2.20982 -2.36535 0
M  V30 1633 H 156.65 0.334064 -3.72605 0
M  V30 1634 H 157.983 0.459131 -4.90054 0
M  V30 1635 N 159.635 1.57281 -0.100228 0
M  V30 1636 C 160.875 1.96419 0.56558 0
M  V30 1637 C 161.239 0.981265 1.65031 0
M  V30 1638 O 162.44 1.26133 2.37369 0
M  V30 1639 C 160.711 3.39996 1.10171 0
M  V30 1640 S 162.27 4.01134 1.77867 0
M  V30 1641 H 159.088 0.68667 0.184406 0
M  V30 1642 H 161.69 1.94662 -0.180851 0
M  V30 1643 H 160.394 4.09296 0.300803 0
M  V30 1644 H 159.925 3.45361 1.88385 0
M  V30 1645 H 161.94 3.90358 3.06326 0
M  V30 1646 N 161.113 -0.173488 1.56642 0
M  V30 1647 C 162.043 -1.2171 1.99271 0
M  V30 1648 C 163.024 -1.46289 0.867959 0
M  V30 1649 O 164.209 -1.5766 1.13388 0
M  V30 1650 C 161.339 -2.55651 2.35074 0
M  V30 1651 C 160.293 -2.45645 3.50489 0
M  V30 1652 C 159.619 -3.84056 3.72028 0
M  V30 1653 C 160.919 -1.96302 4.84007 0
M  V30 1654 H 162.613 -0.86275 2.867 0
M  V30 1655 H 160.159 -0.413571 1.37933 0
M  V30 1656 H 162.112 -3.2886 2.63494 0
M  V30 1657 H 160.836 -2.92869 1.44552 0
M  V30 1658 H 159.495 -1.7489 3.22194 0
M  V30 1659 H 159.143 -4.18664 2.788 0
M  V30 1660 H 158.843 -3.7823 4.49684 0
M  V30 1661 H 160.367 -4.58854 4.02846 0
M  V30 1662 H 161.781 -2.59284 5.11317 0
M  V30 1663 H 160.178 -2.01429 5.65284 0
M  V30 1664 H 161.248 -0.917226 4.76146 0
M  V30 1665 N 162.591 -1.51276 -0.441967 0
M  V30 1666 C 163.501 -1.75092 -1.56141 0
M  V30 1667 C 164.517 -0.634963 -1.62001 0
M  V30 1668 O 165.693 -0.916686 -1.79329 0
M  V30 1669 C 162.758 -1.86666 -2.92158 0
M  V30 1670 C 161.819 -3.10506 -2.96453 0
M  V30 1671 C 161.052 -3.21519 -4.25982 0
M  V30 1672 O 161.275 -2.38586 -5.18105 0
M  V30 1673 O 160.209 -4.14465 -4.36466 0
M  V30 1674 H 164.035 -2.70044 -1.38961 0
M  V30 1675 H 161.62 -1.35722 -0.624499 0
M  V30 1676 H 163.502 -1.96292 -3.72891 0
M  V30 1677 H 162.177 -0.949014 -3.09476 0
M  V30 1678 H 161.084 -3.06363 -2.14692 0
M  V30 1679 H 162.417 -4.01945 -2.84079 0
M  V30 1680 N 164.069 0.697108 -1.41344 0
M  V30 1681 C 164.999 1.82353 -1.45841 0
M  V30 1682 C 165.98 1.67115 -0.317247 0
M  V30 1683 O 167.165 1.86871 -0.528474 0
M  V30 1684 C 164.295 3.20476 -1.33838 0
M  V30 1685 C 163.249 3.50415 -2.4575 0
M  V30 1686 C 162.575 4.87878 -2.18813 0
M  V30 1687 C 163.875 3.49546 -3.88091 0
M  V30 1688 H 165.569 1.78846 -2.40113 0
M  V30 1689 H 163.115 0.859028 -1.15571 0
M  V30 1690 H 165.068 3.98988 -1.35596 0
M  V30 1691 H 163.792 3.24604 -0.360498 0
M  V30 1692 H 162.451 2.74253 -2.43271 0
M  V30 1693 H 162.099 4.8863 -1.19371 0
M  V30 1694 H 161.799 5.08875 -2.93803 0
M  V30 1695 H 163.323 5.68702 -2.22284 0
M  V30 1696 H 164.737 4.18066 -3.92293 0
M  V30 1697 H 163.134 3.82075 -4.62751 0
M  V30 1698 H 164.204 2.48552 -4.16353 0
M  V30 1699 N 165.547 1.27147 0.931209 0
M  V30 1700 C 166.457 1.11372 2.06478 0
M  V30 1701 C 167.473 0.044645 1.73943 0
M  V30 1702 O 168.649 0.250417 1.99837 0
M  V30 1703 C 165.714 0.758838 3.38294 0
M  V30 1704 C 164.775 1.90841 3.84549 0
M  V30 1705 C 164.008 1.57036 5.10074 0
M  V30 1706 O 164.231 0.476645 5.68405 0
M  V30 1707 O 163.165 2.40839 5.51616 0
M  V30 1708 H 166.991 2.06493 2.22698 0
M  V30 1709 H 164.576 1.06301 1.04978 0
M  V30 1710 H 166.458 0.574098 4.17471 0
M  V30 1711 H 165.133 -0.162879 3.2329 0
M  V30 1712 H 164.04 2.14819 3.06274 0
M  V30 1713 H 165.373 2.81021 4.04089 0
M  V30 1714 N 167.025 -1.13721 1.09112 0
M  V30 1715 C 167.973 -2.21103 0.722219 0
M  V30 1716 C 168.967 -1.67147 -0.275374 0
M  V30 1717 O 170.173 -1.79477 -0.137176 0
M  V30 1718 H 166.548 -0.720445 0.215553 0
M  V30 1719 H 168.519 -2.49483 1.63709 0
M  V30 1720 C 167.268 -3.47352 0.15543 0
M  V30 1721 H 166.591 -3.89206 0.914246 0
M  V30 1722 H 168.031 -4.2395 -0.0647967 0
M  V30 1723 C 166.49 -3.1814 -1.10852 0
M  V30 1724 O 167.02 -3.36604 -2.19227 0
M  V30 1725 N 165.226 -2.72045 -1.02176 0
M  V30 1726 H 164.773 -2.57221 -0.139764 0
M  V30 1727 H 164.731 -2.52875 -1.8682 0
M  V30 1728 N 168.503 -0.877838 -1.30888 0
M  V30 1729 C 169.728 -0.506629 -2.01117 0
M  V30 1730 C 170.153 0.895564 -1.65412 0
M  V30 1731 O 169.511 1.5923 -0.866922 0
M  V30 1732 C 169.559 -0.680223 -3.54126 0
M  V30 1733 O 168.663 0.277033 -4.11468 0
M  V30 1734 H 168.004 -0.200518 -0.633 0
M  V30 1735 H 170.534 -1.18342 -1.66902 0
M  V30 1736 H 170.544 -0.5765 -4.03907 0
M  V30 1737 H 169.219 -1.70261 -3.79452 0
M  V30 1738 H 167.796 0.127606 -3.72682 0
M  V30 1739 N 169.982 1.44106 -0.638065 0
M  V30 1740 C 171.21 2.06336 -0.152615 0
M  V30 1741 C 171.625 1.47731 1.17563 0
M  V30 1742 O 170.982 0.602806 1.72257 0
M  V30 1743 C 171.033 3.61479 -0.0391491 0
M  V30 1744 O 170.754 4.17903 -1.31487 0
M  V30 1745 C 172.255 4.40757 0.474176 0
M  V30 1746 H 169.475 0.665862 -0.0828776 0
M  V30 1747 H 172.019 1.84862 -0.87443 0
M  V30 1748 H 170.174 3.82191 0.633142 0
M  V30 1749 H 170.588 5.11416 -1.16421 0
M  V30 1750 H 172.062 5.49707 0.502562 0
M  V30 1751 H 172.539 4.12697 1.50258 0
M  V30 1752 H 173.145 4.24979 -0.165102 0
M  V30 1753 N 171.46 0.379036 1.52974 0
M  V30 1754 C 172.709 -0.207612 2.00629 0
M  V30 1755 C 173.022 -1.48758 1.27006 0
M  V30 1756 O 174.228 -2.15365 1.65318 0
M  V30 1757 C 172.684 -0.42053 3.57435 0
M  V30 1758 C 172.292 0.845587 4.39948 0
M  V30 1759 C 174.036 -0.964102 4.13407 0
M  V30 1760 C 171.943 0.601513 5.88333 0
M  V30 1761 H 170.873 -0.0813591 0.749598 0
M  V30 1762 H 173.524 0.499853 1.76561 0
M  V30 1763 H 171.906 -1.18959 3.7771 0
M  V30 1764 H 173.08 1.61848 4.31442 0
M  V30 1765 H 171.395 1.31336 3.95145 0
M  V30 1766 H 173.992 -1.16225 5.21916 0
M  V30 1767 H 174.335 -1.93019 3.68849 0
M  V30 1768 H 174.868 -0.25487 3.96983 0
M  V30 1769 H 171.607 1.53831 6.37194 0
M  V30 1770 H 171.127 -0.132628 5.99653 0
M  V30 1771 H 172.806 0.232134 6.46583 0
M  V30 1772 N 172.938 -1.57226 0.108567 0
M  V30 1773 C 173.848 -2.18292 -0.859401 0
M  V30 1774 C 174.864 -1.15612 -1.30038 0
M  V30 1775 O 176.04 -1.48039 -1.36552 0
M  V30 1776 C 173.105 -2.762 -2.09558 0
M  V30 1777 C 172.166 -3.93881 -1.70752 0
M  V30 1778 C 171.399 -4.49018 -2.88477 0
M  V30 1779 O 171.622 -4.03068 -4.036 0
M  V30 1780 O 170.556 -5.39852 -2.66164 0
M  V30 1781 H 174.382 -3.01441 -0.369769 0
M  V30 1782 H 171.967 -1.48945 -0.1165 0
M  V30 1783 H 173.849 -3.13156 -2.81978 0
M  V30 1784 H 172.524 -1.96089 -2.57548 0
M  V30 1785 H 171.431 -3.61713 -0.954714 0
M  V30 1786 H 172.764 -4.75396 -1.27513 0
M  V30 1787 N 174.416 0.165178 -1.56732 0
M  V30 1788 C 175.641 0.900253 -1.86843 0
M  V30 1789 C 176.066 1.74766 -0.695596 0
M  V30 1790 O 175.424 1.77786 0.35522 0
M  V30 1791 C 175.472 1.74777 -3.15413 0
M  V30 1792 O 174.576 2.85007 -2.98068 0
M  V30 1793 H 173.917 0.251832 -0.614391 0
M  V30 1794 H 176.447 0.161468 -2.03962 0
M  V30 1795 H 176.457 2.14646 -3.46974 0
M  V30 1796 H 175.132 1.12537 -4.00385 0
M  V30 1797 H 173.709 2.48676 -2.77875 0
M  V30 1798 N 175.894 1.51508 0.433938 0
M  V30 1799 C 177.14 1.64588 1.18484 0
M  V30 1800 C 177.473 0.362666 1.90784 0
M  V30 1801 O 176.748 -0.637892 1.83742 0
M  V30 1802 C 177.031 2.85149 2.19913 0
M  V30 1803 C 176.884 4.23456 1.51674 0
M  V30 1804 C 178.203 3.01227 3.20858 0
M  V30 1805 H 175.322 0.598994 0.429389 0
M  V30 1806 H 177.964 1.84002 0.473647 0
M  V30 1807 H 176.114 2.68729 2.80566 0
M  V30 1808 H 177.786 4.51552 0.943322 0
M  V30 1809 H 176.029 4.25998 0.819035 0
M  V30 1810 H 176.7 5.03812 2.2556 0
M  V30 1811 H 179.176 3.16382 2.70263 0
M  V30 1812 H 178.052 3.87141 3.89118 0
M  V30 1813 H 178.313 2.13447 3.8716 0
M  V30 1814 N 177.372 -0.689602 1.41712 0
M  V30 1815 C 178.319 -1.80345 1.44029 0
M  V30 1816 C 179.289 -1.63478 0.293948 0
M  V30 1817 O 180.474 -1.84244 0.495869 0
M  V30 1818 C 177.614 -3.18272 1.33405 0
M  V30 1819 C 176.727 -3.46529 2.57956 0
M  V30 1820 C 175.862 -4.74103 2.39582 0
M  V30 1821 C 174.901 -4.95347 3.5958 0
M  V30 1822 N 174.038 -6.14151 3.40239 0
M  V30 1823 H 178.878 -1.77698 2.39222 0
M  V30 1824 H 176.415 -0.867688 1.18784 0
M  V30 1825 H 178.373 -3.97956 1.25246 0
M  V30 1826 H 177.003 -3.2008 0.418164 0
M  V30 1827 H 176.055 -2.61207 2.76542 0
M  V30 1828 H 177.367 -3.58126 3.47199 0
M  V30 1829 H 176.521 -5.61853 2.28924 0
M  V30 1830 H 175.26 -4.64763 1.47805 0
M  V30 1831 H 174.265 -4.06044 3.70686 0
M  V30 1832 H 175.49 -5.06542 4.52318 0
M  V30 1833 H 173.436 -6.06013 2.51167 0
M  V30 1834 H 173.353 -6.26543 4.23061 0
M  V30 1835 H 174.621 -7.04619 3.33365 0
M  V30 1836 N 178.85 -1.27639 -0.924453 0
M  V30 1837 C 180.097 -1.14167 -1.67249 0
M  V30 1838 C 180.425 0.311863 -1.91984 0
M  V30 1839 O 179.68 1.24425 -1.51053 0
M  V30 1840 C 179.979 -1.87407 -3.04325 0
M  V30 1841 C 179.645 -3.37249 -2.99289 0
M  V30 1842 C 178.307 -3.7812 -2.97622 0
M  V30 1843 C 180.659 -4.32845 -2.90336 0
M  V30 1844 C 177.987 -5.12944 -2.8479 0
M  V30 1845 C 180.339 -5.6773 -2.79045 0
M  V30 1846 C 179.003 -6.07889 -2.7573 0
M  V30 1847 H 178.273 -0.417766 -0.612007 0
M  V30 1848 H 180.92 -1.58286 -1.07786 0
M  V30 1849 H 179.225 -1.35805 -3.67511 0
M  V30 1850 H 180.922 -1.74408 -3.61086 0
M  V30 1851 H 177.512 -3.04748 -3.01374 0
M  V30 1852 H 181.696 -4.02239 -2.90719 0
M  V30 1853 H 176.952 -5.432 -2.80612 0
M  V30 1854 H 181.126 -6.41472 -2.71083 0
M  V30 1855 H 178.753 -7.12314 -2.65544 0
M  V30 1856 N 180.328 1.1314 -1.09713 0
M  V30 1857 C 181.291 2.16831 -0.742751 0
M  V30 1858 C 182.291 1.59159 0.229129 0
M  V30 1859 O 183.481 1.74199 0.00693237 0
M  V30 1860 C 180.613 3.40756 -0.0989168 0
M  V30 1861 H 181.806 2.49695 -1.66109 0
M  V30 1862 H 179.359 1.2802 -0.896699 0
M  V30 1863 H 180.094 3.13485 0.830514 0
M  V30 1864 H 179.879 3.83888 -0.798265 0
M  V30 1865 H 181.369 4.17386 0.133524 0
M  V30 1866 N 181.806 0.884767 1.30421 0
M  V30 1867 C 183.031 0.517288 2.00845 0
M  V30 1868 C 183.456 -0.886779 1.65885 0
M  V30 1869 O 182.814 -1.58768 0.875354 0
M  V30 1870 C 182.862 0.698994 3.5376 0
M  V30 1871 O 181.966 -0.255208 4.1161 0
M  V30 1872 H 181.307 0.203872 0.631927 0
M  V30 1873 H 183.837 1.19225 1.66272 0
M  V30 1874 H 183.847 0.597912 4.03595 0
M  V30 1875 H 182.522 1.72271 3.78544 0
M  V30 1876 H 181.099 -0.10784 3.72744 0
M  V30 1877 N 183.284 -1.43765 0.645699 0
M  V30 1878 C 184.247 -2.29163 -0.0409488 0
M  V30 1879 C 185.247 -1.41813 -0.757996 0
M  V30 1880 O 186.437 -1.63527 -0.600382 0
M  V30 1881 C 183.569 -3.23716 -1.06869 0
M  V30 1882 H 184.762 -2.91366 0.710345 0
M  V30 1883 H 182.315 -1.5092 0.406547 0
M  V30 1884 H 183.05 -2.66393 -1.84947 0
M  V30 1885 H 182.835 -3.88105 -0.558277 0
M  V30 1886 H 184.325 -3.87831 -1.54845 0
M  V30 1887 N 184.763 -0.387143 -1.52771 0
M  V30 1888 C 185.673 0.456442 -2.30117 0
M  V30 1889 C 186.689 1.07342 -1.36944 0
M  V30 1890 O 187.865 1.07971 -1.70013 0
M  V30 1891 C 184.93 1.56957 -3.09136 0
M  V30 1892 C 183.991 0.977916 -4.18014 0
M  V30 1893 C 183.224 2.038 -4.93256 0
M  V30 1894 O 183.447 3.25271 -4.68567 0
M  V30 1895 O 182.381 1.6565 -5.78657 0
M  V30 1896 H 186.207 -0.17359 -3.03203 0
M  V30 1897 H 183.792 -0.150919 -1.48636 0
M  V30 1898 H 185.674 2.21628 -3.58412 0
M  V30 1899 H 184.349 2.18461 -2.38865 0
M  V30 1900 H 183.256 0.294525 -3.72939 0
M  V30 1901 H 184.589 0.407128 -4.90513 0
M  V30 1902 N 186.241 1.57166 -0.116904 0
M  V30 1903 C 187.189 2.16457 0.851418 0
M  V30 1904 C 188.183 1.11323 1.27686 0
M  V30 1905 O 189.389 1.2963 1.24884 0
M  V30 1906 H 185.764 0.69271 0.292672 0
M  V30 1907 H 187.735 2.96605 0.32685 0
M  V30 1908 C 186.484 2.77689 2.09246 0
M  V30 1909 H 185.807 3.58285 1.77402 0
M  V30 1910 H 187.247 3.22716 2.7501 0
M  V30 1911 C 185.706 1.74667 2.88085 0
M  V30 1912 O 186.236 1.19877 3.83396 0
M  V30 1913 N 184.442 1.44656 2.52038 0
M  V30 1914 H 183.989 1.89402 1.74599 0
M  V30 1915 H 183.947 0.759675 3.05084 0
M  V30 1916 N 187.719 -0.156864 1.56817 0
M  V30 1917 C 188.968 -0.869504 1.81996 0
M  V30 1918 C 189.281 -1.82777 0.696545 0
M  V30 1919 O 190.487 -2.58384 0.833658 0
M  V30 1920 C 188.943 -1.59679 3.22538 0
M  V30 1921 C 188.551 -0.681431 4.42787 0
M  V30 1922 C 190.295 -2.2968 3.56997 0
M  V30 1923 C 188.202 -1.40978 5.74351 0
M  V30 1924 H 187.132 -0.328438 0.678708 0
M  V30 1925 H 189.783 -0.1223 1.83092 0
M  V30 1926 H 188.165 -2.38927 3.158 0
M  V30 1927 H 189.339 0.0751166 4.60739 0
M  V30 1928 H 187.654 -0.0903431 4.16302 0
M  V30 1929 H 190.251 -2.84794 4.52544 0
M  V30 1930 H 190.594 -3.05707 2.82576 0
M  V30 1931 H 191.127 -1.57361 3.65352 0
M  V30 1932 H 187.866 -0.691561 6.51842 0
M  V30 1933 H 187.386 -2.13929 5.60352 0
M  V30 1934 H 189.065 -1.95337 6.16808 0
M  V30 1935 N 189.197 -1.51736 -0.425897 0
M  V30 1936 C 190.608 -1.5732 -1.00536 0
M  V30 1937 C 190.959 -0.403537 -1.92005 0
M  V30 1938 O 190.084 0.478256 -2.11049 0
M  V30 1939 C 190.679 -2.85119 -1.8301 0
M  V30 1940 C 189.238 -2.93236 -2.35987 0
M  V30 1941 C 188.385 -2.52098 -1.15508 0
M  V30 1942 H 191.336 -1.57348 -0.206739 0
M  V30 1943 H 191.357 -2.69526 -2.68581 0
M  V30 1944 H 190.869 -3.7023 -1.16411 0
M  V30 1945 H 188.97 -2.12581 -3.06007 0
M  V30 1946 H 189.083 -3.9713 -2.68001 0
M  V30 1947 H 187.447 -2.05558 -1.50393 0
M  V30 1948 H 188.23 -3.39565 -0.505014 0
M  V30 1949 N 190.675 0.682077 -1.42076 0
M  V30 1950 C 191.952 1.43755 -1.32642 0
M  V30 1951 C 192.332 2.11063 0.0396611 0
M  V30 1952 O 191.68 2.02701 1.05474 0
M  V30 1953 C 191.89 2.44596 -2.48946 0
M  V30 1954 C 193.238 3.09454 -2.9073 0
M  V30 1955 O 194.262 2.54922 -2.48783 0
M  V30 1956 O 193.121 4.08253 -3.63307 0
M  V30 1957 H 190.215 0.640857 -0.522715 0
M  V30 1958 H 192.761 0.711415 -1.54068 0
M  V30 1959 H 191.533 1.93609 -3.40046 0
M  V30 1960 H 191.156 3.24701 -2.29467 0
M  V30 1961 N 192.153 1.28127 0.917671 0
M  V30 1962 C 193.083 1.14248 2.03641 0
M  V30 1963 C 194.064 0.0412748 1.7005 0
M  V30 1964 O 195.249 0.217566 1.92977 0
M  V30 1965 C 192.379 0.799431 3.37974 0
M  V30 1966 C 191.333 1.85497 3.85713 0
M  V30 1967 C 190.659 1.36565 5.16966 0
M  V30 1968 C 191.959 3.26085 4.08002 0
M  V30 1969 H 193.653 2.07835 2.15511 0
M  V30 1970 H 191.199 1.00064 1.03553 0
M  V30 1971 H 193.152 0.689114 4.15727 0
M  V30 1972 H 191.876 -0.172145 3.26146 0
M  V30 1973 H 190.535 1.95437 3.10161 0
M  V30 1974 H 190.183 0.383253 5.01538 0
M  V30 1975 H 189.883 2.07143 5.49878 0
M  V30 1976 H 191.407 1.26848 5.97279 0
M  V30 1977 H 192.821 3.19089 4.76293 0
M  V30 1978 H 191.218 3.94462 4.52238 0
M  V30 1979 H 192.288 3.70394 3.12948 0
M  V30 1980 N 193.631 -1.12557 1.10312 0
M  V30 1981 C 195.042 -1.65574 0.862678 0
M  V30 1982 C 195.393 -1.86566 -0.607256 0
M  V30 1983 O 194.518 -1.59121 -1.46662 0
M  V30 1984 C 195.113 -3.00776 1.55947 0
M  V30 1985 C 193.672 -3.50748 1.36576 0
M  V30 1986 C 192.819 -2.25797 1.60968 0
M  V30 1987 H 195.77 -0.963552 1.26101 0
M  V30 1988 H 195.791 -3.67185 0.997753 0
M  V30 1989 H 195.303 -2.85465 2.62928 0
M  V30 1990 H 193.404 -3.71245 0.317531 0
M  V30 1991 H 193.517 -4.30289 2.10686 0
M  V30 1992 H 191.881 -2.32841 1.03234 0
M  V30 1993 H 192.664 -2.13043 2.69198 0
M  V30 1994 N 195.109 -0.891671 -1.2995 0
M  V30 1995 C 196.339 -0.527893 -1.99742 0
M  V30 1996 C 196.747 0.88979 -1.66971 0
M  V30 1997 O 196.09 1.59766 -0.906667 0
M  V30 1998 C 196.152 -0.630804 -3.53922 0
M  V30 1999 C 195.816 -2.01401 -4.10228 0
M  V30 2000 C 196.813 -2.98422 -4.25724 0
M  V30 2001 C 194.498 -2.32121 -4.45449 0
M  V30 2002 C 196.492 -4.24293 -4.75662 0
M  V30 2003 C 194.179 -3.58237 -4.95086 0
M  V30 2004 C 195.177 -4.54137 -5.10146 0
M  V30 2005 O 194.865 -5.78014 -5.58708 0
M  V30 2006 H 194.597 -0.201953 -0.645129 0
M  V30 2007 H 197.151 -1.20076 -1.66646 0
M  V30 2008 H 195.381 0.0990616 -3.86573 0
M  V30 2009 H 197.07 -0.277338 -4.04951 0
M  V30 2010 H 197.836 -2.76001 -3.98809 0
M  V30 2011 H 193.715 -1.5824 -4.32991 0
M  V30 2012 H 197.259 -4.99153 -4.87332 0
M  V30 2013 H 193.156 -3.80491 -5.21437 0
M  V30 2014 H 193.924 -5.8049 -5.77039 0
M  V30 2015 N 196.587 1.43421 -0.653314 0
M  V30 2016 C 197.864 1.95361 -0.0966581 0
M  V30 2017 C 198.244 1.59461 1.38331 0
M  V30 2018 O 197.592 0.879777 2.10884 0
M  V30 2019 C 197.802 3.47311 -0.342988 0
M  V30 2020 C 199.15 4.23875 -0.24798 0
M  V30 2021 O 200.174 3.55133 -0.275553 0
M  V30 2022 O 199.033 5.4623 -0.171771 0
M  V30 2023 H 196.127 0.826945 0.00956291 0
M  V30 2024 H 198.673 1.5336 -0.726558 0
M  V30 2025 H 197.445 3.66569 -1.36906 0
M  V30 2026 H 197.068 3.9631 0.319975 0
M  V30 2027 N 198.065 0.39524 1.52563 0
M  V30 2028 C 199.295 -0.184675 2.05773 0
M  V30 2029 C 199.703 -1.40571 1.26635 0
M  V30 2030 O 199.046 -1.81105 0.30769 0
M  V30 2031 C 199.108 -0.613551 3.54226 0
M  V30 2032 C 198.772 0.49484 4.54313 0
M  V30 2033 C 199.769 1.3541 5.01956 0
M  V30 2034 C 197.454 0.663565 4.97898 0
M  V30 2035 C 199.448 2.36716 5.91814 0
M  V30 2036 C 197.135 1.67996 5.87555 0
M  V30 2037 C 198.133 2.53017 6.34406 0
M  V30 2038 O 197.821 3.52917 7.22291 0
M  V30 2039 H 197.553 -0.030077 0.675331 0
M  V30 2040 H 200.107 0.560708 1.97599 0
M  V30 2041 H 198.337 -1.411 3.60038 0
M  V30 2042 H 200.026 -1.11981 3.90148 0
M  V30 2043 H 200.792 1.23509 4.6901 0
M  V30 2044 H 196.671 0.0114913 4.60999 0
M  V30 2045 H 200.215 3.03113 6.28306 0
M  V30 2046 H 196.112 1.79933 6.19915 0
M  V30 2047 H 196.88 3.48996 7.40367 0
M  V30 2048 N 199.544 -1.57102 0.125237 0
M  V30 2049 C 200.769 -2.0019 -0.542101 0
M  V30 2050 C 201.194 -1.00449 -1.59034 0
M  V30 2051 O 200.552 0.0229423 -1.81285 0
M  V30 2052 C 200.6 -3.42129 -1.13929 0
M  V30 2053 O 199.704 -3.45307 -2.2547 0
M  V30 2054 H 199.045 -0.650171 -0.134812 0
M  V30 2055 H 201.575 -2.03461 0.215553 0
M  V30 2056 H 201.585 -3.80471 -1.4733 0
M  V30 2057 H 200.26 -4.14237 -0.371531 0
M  V30 2058 H 198.837 -3.1879 -1.93462 0
M  V30 2059 N 201.022 0.148545 -1.56898 0
M  V30 2060 C 202.247 0.880385 -1.87787 0
M  V30 2061 C 202.672 1.74018 -0.714093 0
M  V30 2062 O 202.03 1.78153 0.336343 0
M  V30 2063 C 202.078 1.71422 -3.17249 0
M  V30 2064 O 201.182 2.8183 -3.01074 0
M  V30 2065 H 200.523 0.245301 -0.617028 0
M  V30 2066 H 203.053 0.139826 -2.04122 0
M  V30 2067 H 203.063 2.10954 -3.49231 0
M  V30 2068 H 201.738 1.08284 -4.01556 0
M  V30 2069 H 200.315 2.45715 -2.80497 0
M  V30 2070 N 202.5 1.5196 0.417844 0
M  V30 2071 C 203.725 1.69717 1.1921 0
M  V30 2072 C 204.15 0.402148 1.83751 0
M  V30 2073 O 203.508 -0.639593 1.69643 0
M  V30 2074 C 203.556 2.82794 2.2374 0
M  V30 2075 O 202.66 2.47756 3.29683 0
M  V30 2076 H 202.001 0.565263 0.348387 0
M  V30 2077 H 204.531 1.98621 0.490985 0
M  V30 2078 H 204.541 3.07452 2.68212 0
M  V30 2079 H 203.216 3.76756 1.76146 0
M  V30 2080 H 201.793 2.33739 2.90552 0
M  V30 2081 N 203.978 -0.674533 1.42435 0
M  V30 2082 C 204.908 -1.80009 1.48724 0
M  V30 2083 C 205.889 -1.6659 0.343793 0
M  V30 2084 O 207.074 -1.86007 0.558137 0
M  V30 2085 C 204.204 -3.18306 1.38919 0
M  V30 2086 C 203.158 -3.46461 2.51294 0
M  V30 2087 C 202.484 -4.84335 2.26547 0
M  V30 2088 C 203.784 -3.43328 3.93603 0
M  V30 2089 H 205.478 -1.75004 2.42928 0
M  V30 2090 H 203.024 -0.840533 1.16923 0
M  V30 2091 H 204.977 -3.9678 1.41927 0
M  V30 2092 H 203.701 -3.2399 0.412094 0
M  V30 2093 H 202.36 -2.70348 2.47604 0
M  V30 2094 H 202.008 -4.86669 1.2713 0
M  V30 2095 H 201.708 -5.04136 3.01861 0
M  V30 2096 H 203.232 -5.65094 2.31304 0
M  V30 2097 H 204.646 -4.11772 3.98894 0
M  V30 2098 H 203.043 -3.74664 4.68771 0
M  V30 2099 H 204.113 -2.41897 4.20255 0
M  V30 2100 N 205.456 -1.28612 -0.910864 0
M  V30 2101 C 206.366 -1.14643 -2.0468 0
M  V30 2102 C 207.382 -0.0723121 -1.7385 0
M  V30 2103 O 208.558 -0.282178 -1.99413 0
M  V30 2104 C 205.623 -0.812561 -3.37044 0
M  V30 2105 C 204.684 -1.96935 -3.81465 0
M  V30 2106 C 203.917 -1.65131 -5.07511 0
M  V30 2107 O 204.14 -0.567013 -5.67575 0
M  V30 2108 O 203.074 -2.49585 -5.47714 0
M  V30 2109 H 206.9 -2.1001 -2.19384 0
M  V30 2110 H 204.485 -1.07958 -1.03274 0
M  V30 2111 H 206.367 -0.640441 -4.16505 0
M  V30 2112 H 205.042 0.111426 -3.23508 0
M  V30 2113 H 203.949 -2.19664 -3.02818 0
M  V30 2114 H 205.282 -2.87414 -3.99567 0
M  V30 2115 N 206.934 1.1197 -1.10907 0
M  V30 2116 C 208.159 1.87942 -0.877064 0
M  V30 2117 C 208.584 1.79341 0.567314 0
M  V30 2118 O 207.942 1.15184 1.40009 0
M  V30 2119 C 207.99 3.34926 -1.33629 0
M  V30 2120 O 207.094 4.09303 -0.504447 0
M  V30 2121 H 206.435 0.583785 -0.316371 0
M  V30 2122 H 208.965 1.4157 -1.47712 0
M  V30 2123 H 208.975 3.8577 -1.32837 0
M  V30 2124 H 207.65 3.40504 -2.3881 0
M  V30 2125 H 206.227 3.68393 -0.577993 0
M  V30 2126 N 208.412 0.89855 1.29475 0
M  V30 2127 C 209.658 0.524658 1.95896 0
M  V30 2128 C 209.991 -0.926468 1.70676 0
M  V30 2129 O 209.266 -1.65665 1.01908 0
M  V30 2130 C 209.549 0.81633 3.50725 0
M  V30 2131 C 209.402 2.31907 3.85408 0
M  V30 2132 C 210.721 0.302038 4.39062 0
M  V30 2133 H 207.84 0.19209 0.711527 0
M  V30 2134 H 210.482 1.12502 1.53112 0
M  V30 2135 H 208.632 0.305369 3.87298 0
M  V30 2136 H 210.304 2.89949 3.58786 0
M  V30 2137 H 208.547 2.78027 3.32992 0
M  V30 2138 H 209.218 2.47373 4.93468 0
M  V30 2139 H 211.694 0.739551 4.09475 0
M  V30 2140 H 210.57 0.535331 5.46283 0
M  V30 2141 H 210.831 -0.797216 4.34853 0
M  V30 2142 N 209.89 -1.43072 0.660911 0
M  V30 2143 C 210.853 -2.29194 -0.0166406 0
M  V30 2144 C 211.853 -1.42609 -0.742912 0
M  V30 2145 O 213.043 -1.64155 -0.583004 0
M  V30 2146 C 210.175 -3.24831 -1.0343 0
M  V30 2147 H 211.368 -2.90596 0.741208 0
M  V30 2148 H 208.921 -1.5048 0.422532 0
M  V30 2149 H 209.656 -2.68339 -1.82111 0
M  V30 2150 H 209.441 -3.88676 -0.517082 0
M  V30 2151 H 210.931 -3.89451 -1.50723 0
M  V30 2152 N 211.368 -0.403325 -1.52352 0
M  V30 2153 C 212.645 0.232611 -1.94212 0
M  V30 2154 C 213.025 1.63133 -1.33981 0
M  V30 2155 O 212.373 2.22659 -0.513344 0
M  V30 2156 C 212.583 0.244811 -3.4814 0
M  V30 2157 C 213.931 0.46698 -4.22024 0
M  V30 2158 O 214.955 0.324419 -3.5472 0
M  V30 2159 O 213.814 0.74747 -5.41364 0
M  V30 2160 H 210.908 0.148223 -0.813609 0
M  V30 2161 H 213.454 -0.458848 -1.63379 0
M  V30 2162 H 212.226 -0.734378 -3.84347 0
M  V30 2163 H 211.849 0.980611 -3.85318 0
M  V30 2164 N 212.846 1.57033 -0.133567 0
M  V30 2165 C 213.756 2.19632 0.824564 0
M  V30 2166 C 214.772 1.17666 1.28182 0
M  V30 2167 O 215.948 1.50193 1.3418 0
M  V30 2168 C 213.013 2.79499 2.05137 0
M  V30 2169 C 212.074 3.96548 1.64464 0
M  V30 2170 C 211.307 4.5355 2.81297 0
M  V30 2171 O 211.53 4.09438 3.97136 0
M  V30 2172 O 210.464 5.44018 2.57542 0
M  V30 2173 H 214.29 3.01991 0.321766 0
M  V30 2174 H 211.875 1.49112 0.0927889 0
M  V30 2175 H 213.757 3.17602 2.7696 0
M  V30 2176 H 212.432 2.00162 2.54395 0
M  V30 2177 H 211.339 3.63186 0.897048 0
M  V30 2178 H 212.672 4.77364 1.19934 0
M  V30 2179 N 214.325 -0.140222 1.56975 0
M  V30 2180 C 215.553 -0.866437 1.87884 0
M  V30 2181 C 215.968 -1.74428 0.722517 0
M  V30 2182 O 215.325 -1.79891 -0.30749 0
M  V30 2183 C 215.376 -1.71753 3.18093 0
M  V30 2184 O 215.097 -0.875056 4.29272 0
M  V30 2185 C 216.598 -2.55074 3.62563 0
M  V30 2186 H 213.818 -0.25019 0.622612 0
M  V30 2187 H 216.362 -0.130977 2.0408 0
M  V30 2188 H 214.517 -2.40598 3.03631 0
M  V30 2189 H 214.931 -1.46002 5.03769 0
M  V30 2190 H 216.405 -3.10356 4.5649 0
M  V30 2191 H 216.882 -3.31434 2.88181 0
M  V30 2192 H 217.488 -1.91509 3.79743 0
M  V30 2193 N 215.803 -1.52179 -0.40978 0
M  V30 2194 C 217.028 -1.70347 -1.18308 0
M  V30 2195 C 217.453 -0.411887 -1.83535 0
M  V30 2196 O 216.811 0.630587 -1.6998 0
M  V30 2197 C 216.859 -2.83977 -2.22238 0
M  V30 2198 O 215.963 -2.495 -3.28365 0
M  V30 2199 H 215.304 -0.567103 -0.345384 0
M  V30 2200 H 217.834 -1.98879 -0.480445 0
M  V30 2201 H 217.844 -3.0887 -2.66577 0
M  V30 2202 H 216.519 -3.77685 -1.74146 0
M  V30 2203 H 215.096 -2.35277 -2.89308 0
M  V30 2204 N 217.281 0.66697 -1.42791 0
M  V30 2205 C 218.692 1.2478 -1.38877 0
M  V30 2206 C 219.043 1.96012 -0.0859426 0
M  V30 2207 O 218.168 2.00463 0.815081 0
M  V30 2208 C 218.763 2.26938 -2.51564 0
M  V30 2209 C 217.322 2.80529 -2.50959 0
M  V30 2210 C 216.469 1.54965 -2.29959 0
M  V30 2211 H 219.42 0.459853 -1.51892 0
M  V30 2212 H 219.441 3.08834 -2.22265 0
M  V30 2213 H 218.953 1.75065 -3.46372 0
M  V30 2214 H 217.054 3.36502 -1.59991 0
M  V30 2215 H 217.167 3.29012 -3.48265 0
M  V30 2216 H 215.531 1.81817 -1.78366 0
M  V30 2217 H 216.314 1.05047 -3.26833 0
M  V30 2218 N 218.759 1.29093 0.90403 0
M  V30 2219 C 219.669 1.15727 2.0407 0
M  V30 2220 C 220.685 0.0815308 1.73809 0
M  V30 2221 O 221.861 0.292749 1.99261 0
M  V30 2222 C 218.926 0.830424 3.36608 0
M  V30 2223 C 217.987 1.98955 3.80415 0
M  V30 2224 C 217.22 1.6782 5.06628 0
M  V30 2225 O 217.443 0.597105 5.67266 0
M  V30 2226 O 216.377 2.52486 5.46383 0
M  V30 2227 H 220.203 2.11171 2.18267 0
M  V30 2228 H 217.788 1.08504 1.027 0
M  V30 2229 H 219.67 0.662521 4.16159 0
M  V30 2230 H 218.345 -0.0942678 3.23563 0
M  V30 2231 H 217.252 2.21267 3.01648 0
M  V30 2232 H 218.585 2.89529 3.98037 0
M  V30 2233 N 220.237 -1.11381 1.11499 0
M  V30 2234 C 221.653 -1.35143 0.849031 0
M  V30 2235 C 221.853 -1.94515 -0.525938 0
M  V30 2236 O 220.909 -2.1785 -1.27662 0
M  V30 2237 C 222.222 -2.28249 1.95762 0
M  V30 2238 C 223.77 -2.41812 1.98736 0
M  V30 2239 C 224.245 -3.3824 3.088 0
M  V30 2240 N 225.736 -3.45803 3.08179 0
M  V30 2241 C 226.471 -4.20358 3.89982 0
M  V30 2242 N 225.967 -4.97884 4.8175 0
M  V30 2243 N 227.76 -4.15877 3.78157 0
M  V30 2244 H 219.911 -0.712062 2.00109 0
M  V30 2245 H 222.174 -0.376025 0.870235 0
M  V30 2246 H 221.88 -1.91817 2.94787 0
M  V30 2247 H 221.754 -3.28473 1.85433 0
M  V30 2248 H 224.141 -2.77518 1.00338 0
M  V30 2249 H 224.222 -1.41437 2.13141 0
M  V30 2250 H 223.866 -3.03261 4.07425 0
M  V30 2251 H 223.796 -4.38471 2.91635 0
M  V30 2252 H 226.287 -2.90506 2.41691 0
M  V30 2253 H 226.6 -5.52142 5.40702 0
M  V30 2254 H 224.945 -4.97043 4.85771 0
M  V30 2255 H 228.136 -3.544 3.05808 0
M  V30 2256 H 228.309 -4.73723 4.42143 0
M  V30 2257 N 221.715 -0.905404 -1.28997 0
M  V30 2258 C 222.625 -0.392246 -2.31298 0
M  V30 2259 C 223.641 0.515889 -1.66176 0
M  V30 2260 O 224.817 0.404093 -1.97304 0
M  V30 2261 C 221.882 0.36686 -3.44754 0
M  V30 2262 C 220.943 -0.573485 -4.25452 0
M  V30 2263 C 220.176 0.149488 -5.33491 0
M  V30 2264 O 220.399 1.37255 -5.5364 0
M  V30 2265 O 219.333 -0.510919 -5.99728 0
M  V30 2266 H 223.159 -1.2411 -2.77183 0
M  V30 2267 H 220.744 -0.669926 -1.33538 0
M  V30 2268 H 222.626 0.795907 -4.13816 0
M  V30 2269 H 221.301 1.19169 -3.00966 0
M  V30 2270 H 220.208 -1.05176 -3.59011 0
M  V30 2271 H 221.541 -1.36489 -4.72897 0
M  V30 2272 N 223.193 1.4272 -0.668489 0
M  V30 2273 C 224.441 2.01226 -0.187769 0
M  V30 2274 C 224.762 1.53092 1.2078 0
M  V30 2275 O 224.032 0.74993 1.80977 0
M  V30 2276 H 222.612 0.744041 -0.0664272 0
M  V30 2277 H 225.274 1.74723 -0.863583 0
M  V30 2278 H 224.37 3.11556 -0.184166 0
M  V30 2279 N 224.671 0.411399 1.52136 0
M  V30 2280 C 226.087 0.0623865 1.59478 0
M  V30 2281 C 226.287 -1.42554 1.4241 0
M  V30 2282 O 225.343 -2.19263 1.2522 0
M  V30 2283 C 226.656 0.559331 2.95452 0
M  V30 2284 C 228.204 0.517503 3.08692 0
M  V30 2285 C 228.679 0.990994 4.4715 0
M  V30 2286 N 230.17 0.947908 4.53397 0
M  V30 2287 C 230.905 1.28544 5.58806 0
M  V30 2288 N 230.401 1.69454 6.71757 0
M  V30 2289 N 232.194 1.20526 5.49026 0
M  V30 2290 H 224.345 1.37982 1.61477 0
M  V30 2291 H 226.608 0.566977 0.759764 0
M  V30 2292 H 226.314 1.59938 3.1323 0
M  V30 2293 H 226.188 -0.0298014 3.77188 0
M  V30 2294 H 228.575 -0.513505 2.90598 0
M  V30 2295 H 228.656 1.14272 2.28857 0
M  V30 2296 H 228.3 2.02034 4.65988 0
M  V30 2297 H 228.23 0.34257 5.25485 0
M  V30 2298 H 230.721 0.647157 3.72317 0
M  V30 2299 H 231.034 1.93513 7.48179 0
M  V30 2300 H 229.379 1.73359 6.73032 0
M  V30 2301 H 232.57 0.884505 4.59667 0
M  V30 2302 H 232.743 1.47161 6.31069 0
M  V30 2303 N 226.149 -1.5696 0.141893 0
M  V30 2304 C 227.565 -1.58151 -0.21456 0
M  V30 2305 C 227.765 -1.1559 -1.65049 0
M  V30 2306 O 226.821 -0.853832 -2.37626 0
M  V30 2307 C 228.134 -3.00674 0.0395576 0
M  V30 2308 C 229.682 -3.1299 -0.0245529 0
M  V30 2309 C 230.157 -4.57554 0.202167 0
M  V30 2310 N 231.648 -4.62961 0.148919 0
M  V30 2311 C 232.383 -5.7262 0.298924 0
M  V30 2312 N 231.879 -6.90947 0.50637 0
M  V30 2313 N 233.672 -5.61601 0.236886 0
M  V30 2314 H 225.823 -1.8292 1.07953 0
M  V30 2315 H 228.086 -0.846425 0.42693 0
M  V30 2316 H 227.792 -3.36183 1.03315 0
M  V30 2317 H 227.666 -3.70981 -0.682143 0
M  V30 2318 H 230.053 -2.77326 -1.00869 0
M  V30 2319 H 230.134 -2.4518 0.729396 0
M  V30 2320 H 229.778 -4.93922 1.18338 0
M  V30 2321 H 229.708 -5.23484 -0.572044 0
M  V30 2322 H 232.199 -3.77899 -0.00697015 0
M  V30 2323 H 232.512 -7.7038 0.611076 0
M  V30 2324 H 230.857 -6.92878 0.542628 0
M  V30 2325 H 234.048 -4.68039 0.0756209 0
M  V30 2326 H 234.221 -6.47015 0.357227 0
M  V30 2327 N 227.627 0.131896 -1.57047 0
M  V30 2328 C 228.873 0.843179 -1.84441 0
M  V30 2329 C 229.206 1.80129 -0.725749 0
M  V30 2330 O 228.481 1.92624 0.269469 0
M  V30 2331 C 228.764 1.60442 -3.22382 0
M  V30 2332 C 228.617 0.666782 -4.4483 0
M  V30 2333 C 229.936 2.56354 -3.5773 0
M  V30 2334 H 227.055 0.305081 -0.670891 0
M  V30 2335 H 229.697 0.107839 -1.89694 0
M  V30 2336 H 227.847 2.23128 -3.18035 0
M  V30 2337 H 229.519 0.0497646 -4.61273 0
M  V30 2338 H 227.762 -0.022609 -4.33794 0
M  V30 2339 H 228.433 1.23579 -5.37989 0
M  V30 2340 H 230.909 2.0378 -3.62785 0
M  V30 2341 H 229.785 3.06657 -4.5525 0
M  V30 2342 H 230.046 3.38419 -2.84473 0
M  V30 2343 N 229.106 1.52395 0.401703 0
M  V30 2344 C 230.054 1.7689 1.51039 0
M  V30 2345 C 231.048 0.636298 1.56996 0
M  V30 2346 O 232.254 0.818507 1.60314 0
M  V30 2347 H 228.629 0.559502 0.502456 0
M  V30 2348 H 230.6 2.69757 1.27568 0
M  V30 2349 C 229.349 1.94331 2.88324 0
M  V30 2350 H 228.672 2.80905 2.84486 0
M  V30 2351 H 230.112 2.15466 3.65172 0
M  V30 2352 C 228.571 0.712396 3.29282 0
M  V30 2353 O 229.101 -0.116218 4.01532 0
M  V30 2354 N 227.307 0.546154 2.85422 0
M  V30 2355 H 226.854 1.22156 2.26794 0
M  V30 2356 H 226.812 -0.276113 3.13185 0
M  V30 2357 N 230.584 -0.659388 1.43143 0
M  V30 2358 C 231.514 -1.78422 1.50625 0
M  V30 2359 C 232.495 -1.66216 0.361443 0
M  V30 2360 O 233.68 -1.85404 0.577834 0
M  V30 2361 C 230.81 -3.16815 1.42287 0
M  V30 2362 C 229.764 -3.43777 2.54954 0
M  V30 2363 C 229.09 -4.81905 2.31671 0
M  V30 2364 C 230.39 -3.39134 3.97222 0
M  V30 2365 H 232.084 -1.72417 2.44771 0
M  V30 2366 H 229.63 -0.828084 1.17808 0
M  V30 2367 H 231.583 -3.95253 1.46127 0
M  V30 2368 H 230.307 -3.23534 0.446435 0
M  V30 2369 H 228.966 -2.67707 2.50457 0
M  V30 2370 H 228.614 -4.85294 1.32284 0
M  V30 2371 H 228.314 -5.00906 3.07192 0
M  V30 2372 H 229.838 -5.62609 2.37284 0
M  V30 2373 H 231.252 -4.07518 4.03239 0
M  V30 2374 H 229.649 -3.69671 4.72719 0
M  V30 2375 H 230.719 -2.37426 4.22797 0
M  V30 2376 N 232.062 -1.29571 -0.897171 0
M  V30 2377 C 233.29 -1.20583 -1.68129 0
M  V30 2378 C 233.705 0.233181 -1.87354 0
M  V30 2379 O 233.062 1.15579 -1.41236 0
M  V30 2380 C 233.113 -1.91772 -3.06441 0
M  V30 2381 O 232.834 -3.30053 -2.88091 0
M  V30 2382 C 234.335 -1.89291 -4.00854 0
M  V30 2383 H 231.555 -0.417826 -0.525036 0
M  V30 2384 H 234.099 -1.70987 -1.12177 0
M  V30 2385 H 232.254 -1.45196 -3.59161 0
M  V30 2386 H 232.668 -3.65942 -3.75748 0
M  V30 2387 H 234.142 -2.43662 -4.95311 0
M  V30 2388 H 234.619 -0.869014 -4.30517 0
M  V30 2389 H 235.225 -2.35622 -3.54066 0
M  V30 2390 N 233.54 1.10788 -1.12088 0
M  V30 2391 C 234.788 1.8231 -0.872205 0
M  V30 2392 C 235.109 1.85419 0.603709 0
M  V30 2393 O 234.379 1.32963 1.43867 0
M  V30 2394 H 232.959 0.675137 -0.319686 0
M  V30 2395 H 235.621 1.34068 -1.41463 0
M  V30 2396 H 234.717 2.85955 -1.25045 0
M  V30 2397 N 235.018 0.912232 1.28515 0
M  V30 2398 C 235.965 0.397954 2.27343 0
M  V30 2399 C 236.935 -0.526766 1.57526 0
M  V30 2400 O 238.12 -0.449292 1.85435 0
M  V30 2401 C 235.26 -0.357263 3.43246 0
M  V30 2402 C 234.373 0.599788 4.27816 0
M  V30 2403 C 233.508 -0.173725 5.30916 0
M  V30 2404 C 232.547 0.777039 6.07148 0
M  V30 2405 N 231.684 0.0371398 7.0209 0
M  V30 2406 H 236.524 1.24577 2.70711 0
M  V30 2407 H 234.061 0.625612 1.33133 0
M  V30 2408 H 236.019 -0.8113 4.09236 0
M  V30 2409 H 234.649 -1.16943 3.00872 0
M  V30 2410 H 233.701 1.17235 3.61884 0
M  V30 2411 H 235.013 1.32704 4.80823 0
M  V30 2412 H 234.167 -0.688394 6.02782 0
M  V30 2413 H 232.906 -0.934041 4.78672 0
M  V30 2414 H 231.911 1.3031 5.34134 0
M  V30 2415 H 233.136 1.53689 6.61481 0
M  V30 2416 H 231.082 -0.705213 6.52198 0
M  V30 2417 H 230.999 0.704249 7.52713 0
M  V30 2418 H 232.267 -0.457383 7.78157 0
M  V30 2419 N 236.496 -1.42363 0.676048 0
M  V30 2420 C 237.459 -2.29199 0.00766941 0
M  V30 2421 C 238.459 -1.43389 -0.727745 0
M  V30 2422 O 239.649 -1.64764 -0.56556 0
M  V30 2423 C 236.781 -3.2591 -0.999785 0
M  V30 2424 H 237.974 -2.89794 0.771988 0
M  V30 2425 H 235.527 -1.50024 0.438468 0
M  V30 2426 H 236.262 -2.70256 -1.79255 0
M  V30 2427 H 236.047 -3.89202 -0.475829 0
M  V30 2428 H 237.537 -3.91028 -1.46583 0
M  V30 2429 N 237.974 -0.419461 -1.51915 0
M  V30 2430 C 239.385 0.0477853 -1.86639 0
M  V30 2431 C 239.736 1.43531 -1.33766 0
M  V30 2432 O 238.861 2.05401 -0.68113 0
M  V30 2433 C 239.456 0.0934885 -3.38671 0
M  V30 2434 C 238.015 0.505097 -3.72996 0
M  V30 2435 C 237.162 -0.313792 -2.75519 0
M  V30 2436 H 240.113 -0.636088 -1.45395 0
M  V30 2437 H 240.134 0.906667 -3.6954 0
M  V30 2438 H 239.646 -0.916501 -3.77123 0
M  V30 2439 H 237.747 1.52135 -3.40126 0
M  V30 2440 H 237.86 0.242309 -4.78487 0
M  V30 2441 H 236.224 0.225363 -2.53701 0
M  V30 2442 H 237.007 -1.32232 -3.16812 0
M  V30 2443 N 239.452 1.56882 -0.150215 0
M  V30 2444 C 240.4 2.18214 0.805313 0
M  V30 2445 C 241.394 1.14006 1.25296 0
M  V30 2446 O 242.6 1.3225 1.22107 0
M  V30 2447 H 238.975 0.698762 0.277913 0
M  V30 2448 H 240.946 2.97231 0.263862 0
M  V30 2449 C 239.695 2.82065 2.03309 0
M  V30 2450 H 239.018 3.61968 1.69763 0
M  V30 2451 H 240.458 3.28477 2.68103 0
M  V30 2452 C 238.917 1.80739 2.84315 0
M  V30 2453 O 239.447 1.27983 3.80767 0
M  V30 2454 N 237.653 1.4997 2.48913 0
M  V30 2455 H 237.2 1.93062 1.70542 0
M  V30 2456 H 237.158 0.824217 3.03404 0
M  V30 2457 N 240.93 -0.123565 1.57115 0
M  V30 2458 C 242.179 -0.830704 1.83799 0
M  V30 2459 C 242.492 -1.81259 0.735158 0
M  V30 2460 O 243.698 -2.56558 0.888278 0
M  V30 2461 C 242.154 -1.52802 3.25852 0
M  V30 2462 C 241.762 -0.587356 4.44133 0
M  V30 2463 C 243.506 -2.22056 3.61789 0
M  V30 2464 C 241.413 -1.28764 5.77212 0
M  V30 2465 H 240.343 -0.313967 0.685522 0
M  V30 2466 H 242.994 -0.0834359 1.8331 0
M  V30 2467 H 241.376 -2.32175 3.20797 0
M  V30 2468 H 242.55 0.172829 4.60476 0
M  V30 2469 H 240.865 -0.00201892 4.164 0
M  V30 2470 H 243.462 -2.75131 4.58483 0
M  V30 2471 H 243.805 -2.99644 2.88997 0
M  V30 2472 H 244.338 -1.49576 3.68608 0
M  V30 2473 H 241.077 -0.55314 6.53162 0
M  V30 2474 H 240.597 -2.01995 5.64764 0
M  V30 2475 H 242.276 -1.8221 6.20813 0
M  V30 2476 N 242.408 -1.52605 -0.393616 0
M  V30 2477 C 243.338 -1.80022 -1.48709 0
M  V30 2478 C 244.319 -0.651995 -1.57108 0
M  V30 2479 O 245.504 -0.89913 -1.72132 0
M  V30 2480 C 242.634 -1.96492 -2.86371 0
M  V30 2481 C 241.588 -3.12161 -2.92813 0
M  V30 2482 C 240.914 -3.13877 -4.3288 0
M  V30 2483 C 242.214 -4.51322 -2.6288 0
M  V30 2484 H 243.908 -2.71589 -1.26015 0
M  V30 2485 H 241.454 -1.30684 -0.604778 0
M  V30 2486 H 243.407 -2.14255 -3.62867 0
M  V30 2487 H 242.131 -1.01611 -3.10391 0
M  V30 2488 H 240.79 -2.94173 -2.18764 0
M  V30 2489 H 240.438 -2.16687 -4.53933 0
M  V30 2490 H 240.138 -3.91576 -4.38112 0
M  V30 2491 H 241.662 -3.33789 -5.1129 0
M  V30 2492 H 243.076 -4.69435 -3.29096 0
M  V30 2493 H 241.473 -5.31053 -2.79468 0
M  V30 2494 H 242.543 -4.58353 -1.58242 0
M  V30 2495 N 243.887 0.651787 -1.4349 0
M  V30 2496 C 244.817 1.77621 -1.51569 0
M  V30 2497 C 245.798 1.66022 -0.370253 0
M  V30 2498 O 246.983 1.85095 -0.587658 0
M  V30 2499 C 244.113 3.16056 -1.43966 0
M  V30 2500 C 243.067 3.4242 -2.56774 0
M  V30 2501 C 242.393 4.8067 -2.34223 0
M  V30 2502 C 243.693 3.37023 -3.99015 0
M  V30 2503 H 245.387 1.71117 -2.45681 0
M  V30 2504 H 242.933 0.821825 -1.18246 0
M  V30 2505 H 244.886 3.94472 -1.48221 0
M  V30 2506 H 243.61 3.23293 -0.463586 0
M  V30 2507 H 242.269 2.66375 -2.51873 0
M  V30 2508 H 241.917 4.84585 -1.34856 0
M  V30 2509 H 241.617 4.9927 -3.09844 0
M  V30 2510 H 243.141 5.61342 -2.40265 0
M  V30 2511 H 244.555 4.05374 -4.05395 0
M  V30 2512 H 242.952 3.67159 -4.74673 0
M  V30 2513 H 244.022 2.3518 -4.2405 0
M  V30 2514 N 245.365 1.30045 0.890287 0
M  V30 2515 C 246.595 1.21296 1.67245 0
M  V30 2516 C 247.003 -0.227471 1.87828 0
M  V30 2517 O 246.346 -1.16296 1.422 0
M  V30 2518 C 246.408 1.86519 3.07329 0
M  V30 2519 C 246.072 3.35837 3.09939 0
M  V30 2520 C 247.069 4.31915 2.89389 0
M  V30 2521 C 244.754 3.77196 3.31706 0
M  V30 2522 C 246.748 5.67325 2.90552 0
M  V30 2523 C 244.435 5.12725 3.32499 0
M  V30 2524 C 245.433 6.076 3.11947 0
M  V30 2525 O 245.121 7.40655 3.12547 0
M  V30 2526 H 244.853 0.4211 0.528821 0
M  V30 2527 H 247.407 1.72111 1.12103 0
M  V30 2528 H 245.637 1.30228 3.64112 0
M  V30 2529 H 247.326 1.71963 3.67673 0
M  V30 2530 H 248.092 4.01294 2.72375 0
M  V30 2531 H 243.971 3.03796 3.4674 0
M  V30 2532 H 247.515 6.41354 2.74429 0
M  V30 2533 H 243.412 5.42988 3.49047 0
M  V30 2534 H 244.18 7.49577 3.28749 0
M  V30 2535 N 246.843 -1.10192 1.12674 0
M  V30 2536 C 248.089 -1.82475 0.884915 0
M  V30 2537 C 248.422 -1.85093 -0.58773 0
M  V30 2538 O 247.697 -1.3134 -1.43457 0
M  V30 2539 C 247.98 -3.29018 1.46353 0
M  V30 2540 C 247.833 -3.34718 3.00473 0
M  V30 2541 C 249.152 -4.25473 1.12519 0
M  V30 2542 H 246.271 -0.662492 0.322915 0
M  V30 2543 H 248.913 -1.2913 1.39375 0
M  V30 2544 H 247.063 -3.74576 1.03077 0
M  V30 2545 H 248.735 -2.97622 3.52447 0
M  V30 2546 H 246.978 -2.74541 3.35872 0
M  V30 2547 H 247.649 -4.37918 3.36053 0
M  V30 2548 H 250.125 -3.88161 1.499 0
M  V30 2549 H 249.001 -5.26365 1.55663 0
M  V30 2550 H 249.262 -4.42084 0.0377407 0
M  V30 2551 N 248.321 -0.919034 -1.28029 0
M  V30 2552 C 249.569 -0.553838 -1.94363 0
M  V30 2553 C 249.89 0.906357 -1.72656 0
M  V30 2554 O 249.16 1.64143 -1.0693 0
M  V30 2555 H 247.74 -0.201834 -0.719216 0
M  V30 2556 H 250.402 -1.16954 -1.55909 0
M  V30 2557 H 249.498 -0.752758 -3.02886 0
M  V30 2558 N 249.799 1.42003 -0.683588 0
M  V30 2559 C 251.024 2.06265 -0.216647 0
M  V30 2560 C 251.449 1.51059 1.12083 0
M  V30 2561 O 250.807 0.632638 1.69904 0
M  V30 2562 C 250.855 3.60191 -0.171759 0
M  V30 2563 O 249.959 4.03396 0.857069 0
M  V30 2564 H 249.3 0.65502 -0.108834 0
M  V30 2565 H 251.83 1.81982 -0.935077 0
M  V30 2566 H 251.84 4.08 0.0014303 0
M  V30 2567 H 250.515 3.99743 -1.14796 0
M  V30 2568 H 249.092 3.67117 0.654208 0
M  V30 2569 N 251.277 0.427512 1.51691 0
M  V30 2570 C 252.554 -0.201684 1.94557 0
M  V30 2571 C 252.934 -1.60981 1.36559 0
M  V30 2572 O 252.282 -2.21814 0.548702 0
M  V30 2573 C 252.492 -0.189394 3.48486 0
M  V30 2574 C 253.84 -0.39978 4.22714 0
M  V30 2575 O 254.864 -0.267945 3.55191 0
M  V30 2576 O 253.723 -0.661249 5.42485 0
M  V30 2577 H 250.817 -0.135261 0.815864 0
M  V30 2578 H 253.363 0.484782 1.62628 0
M  V30 2579 H 252.135 0.795431 3.8313 0
M  V30 2580 H 251.758 -0.919187 3.86829 0
M  V30 2581 N 252.755 -1.56801 0.158532 0
M  V30 2582 C 253.98 -2.01295 -0.499516 0
M  V30 2583 C 254.405 -1.03799 -1.56867 0
M  V30 2584 O 253.763 -0.0155162 -1.81293 0
M  V30 2585 C 253.811 -3.44469 -1.06647 0
M  V30 2586 O 252.915 -3.50012 -2.18095 0
M  V30 2587 H 252.256 -0.652884 -0.12099 0
M  V30 2588 H 254.786 -2.02958 0.258661 0
M  V30 2589 H 254.796 -3.8351 -1.39227 0
M  V30 2590 H 253.471 -4.14932 -0.283581 0
M  V30 2591 H 252.048 -3.22822 -1.86656 0
M  V30 2592 N 254.233 0.115231 -1.57178 0
M  V30 2593 C 255.165 1.16694 -1.97269 0
M  V30 2594 C 256.178 1.37445 -0.872502 0
M  V30 2595 O 257.367 1.36454 -1.15077 0
M  V30 2596 C 254.467 2.52627 -2.25905 0
M  V30 2597 C 253.64 2.52427 -3.57211 0
M  V30 2598 C 252.699 3.70134 -3.74016 0
M  V30 2599 O 251.725 3.53546 -4.46087 0
M  V30 2600 N 252.927 4.88844 -3.13068 0
M  V30 2601 H 255.692 0.82588 -2.88096 0
M  V30 2602 H 253.253 0.304461 -1.59011 0
M  V30 2603 H 255.245 3.29937 -2.34359 0
M  V30 2604 H 253.815 2.789 -1.41186 0
M  V30 2605 H 253.035 1.60805 -3.5991 0
M  V30 2606 H 254.323 2.49353 -4.43509 0
M  V30 2607 H 253.721 5.05225 -2.54489 0
M  V30 2608 H 252.278 5.63817 -3.27037 0
M  V30 2609 N 255.711 1.52812 0.385517 0
M  V30 2610 C 256.621 1.80766 1.49535 0
M  V30 2611 C 257.637 0.694651 1.59532 0
M  V30 2612 O 258.813 0.982611 1.75803 0
M  V30 2613 C 255.878 1.97381 2.85029 0
M  V30 2614 C 254.939 3.21295 2.84724 0
M  V30 2615 C 254.172 3.37108 4.13756 0
M  V30 2616 O 254.395 2.5765 5.08893 0
M  V30 2617 O 253.329 4.30378 4.20783 0
M  V30 2618 H 257.155 2.75015 1.28842 0
M  V30 2619 H 254.74 1.37946 0.573697 0
M  V30 2620 H 256.622 2.09996 3.65349 0
M  V30 2621 H 255.297 1.06322 3.05741 0
M  V30 2622 H 254.204 3.1412 2.03174 0
M  V30 2623 H 255.537 4.12212 2.68965 0
M  V30 2624 N 257.189 -0.644168 1.43834 0
M  V30 2625 C 258.152 -1.73857 1.49353 0
M  V30 2626 C 259.152 -1.56315 0.377112 0
M  V30 2627 O 260.342 -1.62048 0.639226 0
M  V30 2628 C 257.474 -3.12819 1.35488 0
M  V30 2629 H 258.667 -1.70342 2.46827 0
M  V30 2630 H 256.22 -0.856652 1.30733 0
M  V30 2631 H 256.955 -3.2194 0.390569 0
M  V30 2632 H 256.74 -3.26958 2.16428 0
M  V30 2633 H 258.23 -3.92606 1.42302 0
M  V30 2634 N 258.668 -1.30515 -0.883378 0
M  V30 2635 C 259.598 -1.19607 -2.00541 0
M  V30 2636 C 260.579 -0.086346 -1.69881 0
M  V30 2637 O 261.764 -0.268654 -1.92333 0
M  V30 2638 C 258.894 -0.888758 -3.35736 0
M  V30 2639 C 257.848 -1.95659 -3.8066 0
M  V30 2640 C 257.174 -1.50224 -5.13164 0
M  V30 2641 C 258.474 -3.36788 -3.99213 0
M  V30 2642 H 260.168 -2.13476 -2.09925 0
M  V30 2643 H 257.714 -1.02775 -1.00863 0
M  V30 2644 H 259.667 -0.799094 -4.13754 0
M  V30 2645 H 258.391 0.0856125 -3.26488 0
M  V30 2646 H 257.05 -2.03591 -3.04871 0
M  V30 2647 H 256.698 -0.516092 -5.00345 0
M  V30 2648 H 256.398 -2.2165 -5.44192 0
M  V30 2649 H 257.922 -1.42639 -5.93706 0
M  V30 2650 H 259.336 -3.31605 -4.67665 0
M  V30 2651 H 257.733 -4.06314 -4.41621 0
M  V30 2652 H 258.803 -3.78561 -3.03017 0
M  V30 2653 N 260.146 1.09593 -1.13257 0
M  V30 2654 C 261.394 1.81375 -0.891492 0
M  V30 2655 C 261.715 1.86049 0.584009 0
M  V30 2656 O 260.985 1.34481 1.42449 0
M  V30 2657 H 259.565 0.671708 -0.326828 0
M  V30 2658 H 262.227 1.3256 -1.42877 0
M  V30 2659 H 261.323 2.84612 -1.28071 0
M  V30 2660 N 261.624 0.925811 1.2754 0
M  V30 2661 C 263.04 0.625767 1.46821 0
M  V30 2662 C 263.24 -0.825506 1.83814 0
M  V30 2663 O 262.296 -1.60356 1.95044 0
M  V30 2664 C 263.609 1.57402 2.56213 0
M  V30 2665 C 265.157 1.58204 2.70075 0
M  V30 2666 C 265.632 2.51721 3.82623 0
M  V30 2667 N 267.123 2.49917 3.89994 0
M  V30 2668 C 267.858 3.18968 4.76494 0
M  V30 2669 N 267.354 3.97391 5.67496 0
M  V30 2670 N 269.147 3.07996 4.70208 0
M  V30 2671 H 261.298 1.86409 1.01811 0
M  V30 2672 H 263.561 0.800213 0.508295 0
M  V30 2673 H 263.267 2.60925 2.35819 0
M  V30 2674 H 263.141 1.31428 3.53563 0
M  V30 2675 H 265.528 0.554124 2.89851 0
M  V30 2676 H 265.609 1.88226 1.73218 0
M  V30 2677 H 265.253 3.54622 3.63601 0
M  V30 2678 H 265.183 2.18996 4.78903 0
M  V30 2679 H 267.674 1.9296 3.24923 0
M  V30 2680 H 267.987 4.4707 6.30356 0
M  V30 2681 H 266.332 4.01495 5.67298 0
M  V30 2682 H 269.523 2.46223 3.9811 0
M  V30 2683 H 269.696 3.6208 5.37403 0
M  V30 2684 N 263.102 -1.41638 0.69111 0
M  V30 2685 C 264.349 -2.01299 0.220193 0
M  V30 2686 C 264.677 -1.54715 -1.17871 0
M  V30 2687 O 263.932 -0.747193 -1.80874 0
M  V30 2688 C 264.231 -3.56714 0.221277 0
M  V30 2689 C 263.897 -4.22792 1.56709 0
M  V30 2690 C 262.559 -4.40557 1.93554 0
M  V30 2691 C 264.911 -4.59883 2.45268 0
M  V30 2692 C 262.239 -4.92688 3.18552 0
M  V30 2693 C 264.591 -5.13403 3.69595 0
M  V30 2694 C 263.255 -5.29379 4.06589 0
M  V30 2695 H 262.525 -0.736606 0.0805743 0
M  V30 2696 H 265.172 -1.69598 0.889319 0
M  V30 2697 H 263.477 -3.8818 -0.531391 0
M  V30 2698 H 265.174 -4.00678 -0.160547 0
M  V30 2699 H 261.764 -4.09336 1.2705 0
M  V30 2700 H 265.948 -4.45817 2.18084 0
M  V30 2701 H 261.204 -5.03242 3.47214 0
M  V30 2702 H 265.378 -5.41084 4.38407 0
M  V30 2703 H 263.005 -5.69537 5.03519 0
M  V30 2704 N 264.58 -0.43555 -1.51462 0
M  V30 2705 C 265.53 0.394701 -2.24558 0
M  V30 2706 C 266.514 0.99157 -1.26715 0
M  V30 2707 O 267.706 0.910007 -1.51815 0
M  V30 2708 C 264.835 1.4963 -3.08975 0
M  V30 2709 C 263.921 0.908912 -4.14246 0
M  V30 2710 N 264.312 0.0505335 -5.05775 0
M  V30 2711 C 262.61 1.17668 -4.30198 0
M  V30 2712 C 263.311 -0.279161 -5.8103 0
M  V30 2713 N 262.287 0.336767 -5.42556 0
M  V30 2714 H 266.089 -0.267106 -2.92684 0
M  V30 2715 H 263.603 -0.247518 -1.60503 0
M  V30 2716 H 265.6 2.10394 -3.59917 0
M  V30 2717 H 264.26 2.16046 -2.42393 0
M  V30 2718 H 265.271 -0.31577 -5.16936 0
M  V30 2719 H 261.948 1.83847 -3.74842 0
M  V30 2720 H 263.338 -0.977553 -6.64751 0
M  V30 2721 N 266.058 1.56714 -0.166846 0
M  V30 2722 C 266.968 2.21331 0.777791 0
M  V30 2723 C 267.984 1.20358 1.25658 0
M  V30 2724 O 269.16 1.53005 1.30964 0
M  V30 2725 C 266.225 2.83787 1.99163 0
M  V30 2726 C 265.286 3.99947 1.56016 0
M  V30 2727 C 264.519 4.59415 2.71613 0
M  V30 2728 O 264.742 4.17769 3.88362 0
M  V30 2729 O 263.676 5.49359 2.45945 0
M  V30 2730 H 267.502 3.02605 0.257636 0
M  V30 2731 H 265.087 1.49275 0.0611393 0
M  V30 2732 H 266.969 3.23405 2.70161 0
M  V30 2733 H 265.644 2.05513 2.50092 0
M  V30 2734 H 264.551 3.65007 0.819809 0
M  V30 2735 H 265.884 4.79801 1.09782 0
M  V30 2736 N 267.536 -0.106894 1.57237 0
M  V30 2737 C 268.782 -0.81373 1.85759 0
M  V30 2738 C 269.115 -1.78952 0.754315 0
M  V30 2739 O 268.39 -1.93029 -0.23879 0
M  V30 2740 C 268.673 -1.55293 3.24894 0
M  V30 2741 C 268.526 -0.595929 4.45835 0
M  V30 2742 C 269.845 -2.5063 3.61763 0
M  V30 2743 H 266.964 -0.294369 0.67566 0
M  V30 2744 H 269.606 -0.0776472 1.89841 0
M  V30 2745 H 267.756 -2.1804 3.21544 0
M  V30 2746 H 269.428 0.0236262 4.61294 0
M  V30 2747 H 267.671 0.0916191 4.33703 0
M  V30 2748 H 268.342 -1.15004 5.39887 0
M  V30 2749 H 270.818 -1.97982 3.65981 0
M  V30 2750 H 269.694 -2.99376 4.60071 0
M  V30 2751 H 269.955 -3.3385 2.89821 0
M  V30 2752 N 269.014 -1.53014 -0.377408 0
M  V30 2753 C 270.43 -1.42523 -0.718281 0
M  V30 2754 C 270.63 -0.55487 -1.9371 0
M  V30 2755 O 269.686 -0.0327593 -2.52479 0
M  V30 2756 C 270.999 -2.85546 -0.942539 0
M  V30 2757 C 272.547 -2.95101 -1.04329 0
M  V30 2758 C 273.022 -4.3916 -1.3001 0
M  V30 2759 N 274.513 -4.42536 -1.36806 0
M  V30 2760 C 275.248 -5.51097 -1.58364 0
M  V30 2761 N 274.744 -6.69724 -1.77317 0
M  V30 2762 N 276.537 -5.38657 -1.60638 0
M  V30 2763 H 268.688 -2.08116 0.424426 0
M  V30 2764 H 270.951 -0.939352 0.127759 0
M  V30 2765 H 270.657 -3.51499 -0.118929 0
M  V30 2766 H 270.531 -3.28493 -1.85397 0
M  V30 2767 H 272.918 -2.29309 -1.85745 0
M  V30 2768 H 272.999 -2.55566 -0.109505 0
M  V30 2769 H 272.643 -5.05521 -0.490991 0
M  V30 2770 H 272.573 -4.76258 -2.24691 0
M  V30 2771 H 275.064 -3.57039 -1.23821 0
M  V30 2772 H 275.377 -7.48233 -1.93306 0
M  V30 2773 H 273.722 -6.72732 -1.74518 0
M  V30 2774 H 276.913 -4.44948 -1.45391 0
M  V30 2775 H 277.086 -6.2333 -1.77098 0
M  V30 2776 N 270.492 0.636531 -1.44174 0
M  V30 2777 C 271.717 1.42847 -1.50364 0
M  V30 2778 C 272.142 1.87665 -0.127867 0
M  V30 2779 O 271.5 1.58408 0.88185 0
M  V30 2780 C 271.548 2.62854 -2.4686 0
M  V30 2781 O 270.652 3.62501 -1.9664 0
M  V30 2782 H 269.993 0.427642 -0.507955 0
M  V30 2783 H 272.523 0.777422 -1.89255 0
M  V30 2784 H 272.533 3.10465 -2.64718 0
M  V30 2785 H 271.208 2.29578 -3.46795 0
M  V30 2786 H 269.785 3.21735 -1.88523 0
M  V30 2787 N 271.97 1.30982 0.876444 0
M  V30 2788 C 273.216 1.20474 1.63138 0
M  V30 2789 C 273.549 -0.238096 1.92735 0
M  V30 2790 O 272.824 -1.1692 1.55435 0
M  V30 2791 C 273.107 2.04244 2.96574 0
M  V30 2792 C 272.96 3.56793 2.73896 0
M  V30 2793 C 274.279 1.88684 3.97601 0
M  V30 2794 H 271.398 0.439001 0.591985 0
M  V30 2795 H 274.04 1.60704 1.01361 0
M  V30 2796 H 272.19 1.70063 3.493 0
M  V30 2797 H 273.862 4.01077 2.27892 0
M  V30 2798 H 272.105 3.80548 2.08245 0
M  V30 2799 H 272.776 4.10706 3.68815 0
M  V30 2800 H 275.252 2.18584 3.54062 0
M  V30 2801 H 274.128 2.4961 4.88862 0
M  V30 2802 H 274.389 0.848343 4.33884 0
M  V30 2803 N 273.449 -1.08991 1.13837 0
M  V30 2804 C 274.379 -2.17771 0.842507 0
M  V30 2805 C 275.36 -1.6892 -0.20001 0
M  V30 2806 O 276.545 -1.94113 -0.0579731 0
M  V30 2807 C 273.675 -3.4589 0.312644 0
M  V30 2808 C 272.629 -4.08099 1.28992 0
M  V30 2809 C 271.955 -5.31098 0.619623 0
M  V30 2810 C 273.255 -4.50077 2.65005 0
M  V30 2811 H 274.949 -2.42777 1.75213 0
M  V30 2812 H 272.495 -1.16682 0.843875 0
M  V30 2813 H 274.448 -4.21297 0.0933043 0
M  V30 2814 H 273.172 -3.20419 -0.632382 0
M  V30 2815 H 271.831 -3.34717 1.49533 0
M  V30 2816 H 271.479 -5.0191 -0.33102 0
M  V30 2817 H 271.179 -5.73674 1.27167 0
M  V30 2818 H 272.703 -6.09224 0.409669 0
M  V30 2819 H 274.117 -5.16688 2.48407 0
M  V30 2820 H 272.514 -5.03553 3.26427 0
M  V30 2821 H 273.584 -3.62257 3.22332 0
M  V30 2822 N 274.927 -0.932562 -1.27047 0
M  V30 2823 C 275.89 -0.440064 -2.24936 0
M  V30 2824 C 276.89 0.444071 -1.54547 0
M  V30 2825 O 278.08 0.244465 -1.72476 0
M  V30 2826 C 275.212 0.36678 -3.38921 0
M  V30 2827 H 276.405 -1.305 -2.70018 0
M  V30 2828 H 273.958 -0.713707 -1.39054 0
M  V30 2829 H 274.693 1.25033 -2.99228 0
M  V30 2830 H 274.478 -0.267204 -3.91188 0
M  V30 2831 H 275.968 0.701567 -4.11665 0
M  V30 2832 N 276.405 1.4127 -0.698611 0
M  V30 2833 C 277.682 1.94955 -0.158762 0
M  V30 2834 C 278.062 1.63781 1.33188 0
M  V30 2835 O 277.41 0.946423 2.07979 0
M  V30 2836 C 277.62 3.46044 -0.453309 0
M  V30 2837 C 278.968 4.22872 -0.382707 0
M  V30 2838 O 279.992 3.54076 -0.388396 0
M  V30 2839 O 278.851 5.45407 -0.345463 0
M  V30 2840 H 275.945 0.82683 -0.0167505 0
M  V30 2841 H 278.491 1.50971 -0.77498 0
M  V30 2842 H 277.263 3.62028 -1.48498 0
M  V30 2843 H 276.886 3.97128 0.19373 0
M  V30 2844 N 277.883 0.443576 1.51229 0
M  V30 2845 C 279.123 -0.119889 2.04048 0
M  V30 2846 C 279.487 -1.39418 1.32009 0
M  V30 2847 O 280.688 -2.03829 1.75235 0
M  V30 2848 C 278.959 -0.327233 3.55899 0
M  V30 2849 S 280.518 -0.853208 4.30425 0
M  V30 2850 H 277.336 -0.028921 0.710412 0
M  V30 2851 H 279.938 0.604413 1.85922 0
M  V30 2852 H 278.642 0.606445 4.05895 0
M  V30 2853 H 278.173 -1.07844 3.7833 0
M  V30 2854 H 280.188 -2.13005 4.48155 0
M  V30 2855 N 279.361 -1.56624 0.175154 0
M  V30 2856 C 280.607 -1.9729 -0.469506 0
M  V30 2857 C 280.94 -1.06128 -1.62636 0
M  V30 2858 O 280.215 -0.109183 -1.94193 0
M  V30 2859 C 280.498 -3.47375 -0.948804 0
M  V30 2860 C 280.351 -4.49317 0.208491 0
M  V30 2861 C 281.67 -4.00652 -1.82116 0
M  V30 2862 H 278.789 -0.717317 -0.16919 0
M  V30 2863 H 281.431 -1.88184 0.262062 0
M  V30 2864 H 279.581 -3.55267 -1.57219 0
M  V30 2865 H 281.253 -4.53482 0.845682 0
M  V30 2866 H 279.496 -4.25121 0.863395 0
M  V30 2867 H 280.167 -5.51741 -0.169059 0
M  V30 2868 H 282.643 -3.95416 -1.2956 0
M  V30 2869 H 281.519 -5.06075 -2.12554 0
M  V30 2870 H 281.78 -3.44699 -2.7683 0
M  V30 2871 N 280.839 0.0985539 -1.57292 0
M  V30 2872 C 282.116 0.834155 -1.76921 0
M  V30 2873 C 282.496 1.97101 -0.755928 0
M  V30 2874 O 281.844 2.27474 0.216245 0
M  V30 2875 C 282.054 1.33194 -3.22584 0
M  V30 2876 C 283.402 1.77611 -3.85668 0
M  V30 2877 O 284.426 1.42825 -3.26312 0
M  V30 2878 O 283.285 2.4192 -4.90038 0
M  V30 2879 H 280.379 0.397628 -0.725135 0
M  V30 2880 H 282.925 0.0807044 -1.69508 0
M  V30 2881 H 281.697 0.517248 -3.87866 0
M  V30 2882 H 281.32 2.1475 -3.34616 0
M  V30 2883 N 282.317 1.53212 0.369288 0
M  V30 2884 C 283.566 1.68436 1.10961 0
M  V30 2885 C 283.879 0.440738 1.9057 0
M  V30 2886 O 285.085 0.473446 2.6734 0
M  V30 2887 C 283.541 2.97744 2.0218 0
M  V30 2888 C 283.149 4.29355 1.279 0
M  V30 2889 C 284.893 3.22334 2.76226 0
M  V30 2890 C 282.8 5.49755 2.17999 0
M  V30 2891 H 281.73 0.627568 0.41794 0
M  V30 2892 H 284.381 1.79713 0.370884 0
M  V30 2893 H 282.763 2.8026 2.79768 0
M  V30 2894 H 283.937 4.57458 0.554007 0
M  V30 2895 H 282.252 4.11179 0.657311 0
M  V30 2896 H 284.849 4.09471 3.43857 0
M  V30 2897 H 285.192 2.38238 3.41392 0
M  V30 2898 H 285.725 3.40475 2.05723 0
M  V30 2899 H 282.464 6.36318 1.57417 0
M  V30 2900 H 281.984 5.25937 2.88359 0
M  V30 2901 H 283.663 5.84401 2.77641 0
M  V30 2902 N 283.795 -0.628877 1.44509 0
M  V30 2903 C 285.072 -1.38733 1.37886 0
M  V30 2904 C 285.452 -2.11065 0.0387008 0
M  V30 2905 O 284.8 -2.06476 -0.97878 0
M  V30 2906 C 285.01 -2.35188 2.57852 0
M  V30 2907 C 286.358 -2.9845 3.02014 0
M  V30 2908 O 287.382 -2.45513 2.58073 0
M  V30 2909 O 286.241 -3.94487 3.78209 0
M  V30 2910 H 283.335 -0.621015 0.54614 0
M  V30 2911 H 285.881 -0.653744 1.56602 0
M  V30 2912 H 284.653 -1.80855 3.46998 0
M  V30 2913 H 284.276 -3.1596 2.4136 0
M  V30 2914 N 285.273 -1.31445 -0.869486 0
M  V30 2915 C 286.498 -1.24256 -1.66058 0
M  V30 2916 C 286.923 0.188928 -1.87149 0
M  V30 2917 O 286.281 1.13522 -1.4136 0
M  V30 2918 C 286.329 -1.9924 -3.00559 0
M  V30 2919 O 285.433 -1.33007 -3.90362 0
M  V30 2920 H 284.774 -0.428973 -0.506831 0
M  V30 2921 H 287.304 -1.73521 -1.08404 0
M  V30 2922 H 287.314 -2.08854 -3.50491 0
M  V30 2923 H 285.989 -3.03342 -2.84528 0
M  V30 2924 H 284.566 -1.31848 -3.48813 0
M  V30 2925 N 286.751 1.08385 -1.14413 0
M  V30 2926 C 287.981 1.8425 -0.934644 0
M  V30 2927 C 288.389 1.81907 0.520234 0
M  V30 2928 O 287.732 1.22126 1.37226 0
M  V30 2929 C 287.794 3.32853 -1.35828 0
M  V30 2930 C 287.458 3.5893 -2.82875 0
M  V30 2931 C 288.455 3.53756 -3.80989 0
M  V30 2932 C 286.14 3.86934 -3.20293 0
M  V30 2933 C 288.134 3.76216 -5.14529 0
M  V30 2934 C 285.821 4.09047 -4.54008 0
M  V30 2935 C 286.819 4.03682 -5.50936 0
M  V30 2936 O 286.507 4.25214 -6.82238 0
M  V30 2937 H 286.239 0.588502 -0.332628 0
M  V30 2938 H 288.793 1.37792 -1.52324 0
M  V30 2939 H 287.023 3.8007 -0.713019 0
M  V30 2940 H 288.712 3.90154 -1.11957 0
M  V30 2941 H 289.478 3.32135 -3.53428 0
M  V30 2942 H 285.357 3.9023 -2.45442 0
M  V30 2943 H 288.901 3.71943 -5.90173 0
M  V30 2944 H 284.798 4.30151 -4.8129 0
M  V30 2945 H 285.566 4.42619 -6.88499 0
M  V30 2946 N 288.23 0.939286 1.26551 0
M  V30 2947 C 289.479 0.581601 1.93133 0
M  V30 2948 C 289.792 -0.883224 1.74524 0
M  V30 2949 O 290.998 -1.3502 2.35546 0
M  V30 2950 C 289.454 0.989425 3.46032 0
M  V30 2951 C 289.062 2.47573 3.73379 0
M  V30 2952 C 290.806 0.703544 4.18629 0
M  V30 2953 C 288.713 2.82235 5.19709 0
M  V30 2954 H 287.643 0.213803 0.723052 0
M  V30 2955 H 290.294 1.14167 1.4366 0
M  V30 2956 H 288.676 0.357902 3.94379 0
M  V30 2957 H 289.85 3.15614 3.35744 0
M  V30 2958 H 288.165 2.73471 3.1401 0
M  V30 2959 H 290.762 0.938869 5.26393 0
M  V30 2960 H 291.105 -0.359639 4.14744 0
M  V30 2961 H 291.638 1.2947 3.76141 0
M  V30 2962 H 288.377 3.87509 5.28694 0
M  V30 2963 H 287.897 2.18854 5.58447 0
M  V30 2964 H 289.576 2.70599 5.87695 0
M  V30 2965 N 289.708 -1.40897 0.706093 0
M  V30 2966 C 290.638 -2.33418 0.0620085 0
M  V30 2967 C 291.619 -1.52385 -0.755827 0
M  V30 2968 O 292.804 -1.80886 -0.706674 0
M  V30 2969 C 289.934 -3.36293 -0.867445 0
M  V30 2970 C 288.888 -4.27716 -0.155932 0
M  V30 2971 C 288.214 -5.2105 -1.20046 0
M  V30 2972 C 289.514 -5.12944 0.984149 0
M  V30 2973 H 291.208 -2.87527 0.83477 0
M  V30 2974 H 288.754 -1.38249 0.402875 0
M  V30 2975 H 290.707 -3.99949 -1.32735 0
M  V30 2976 H 289.431 -2.80556 -1.67199 0
M  V30 2977 H 288.09 -3.65498 0.284047 0
M  V30 2978 H 287.738 -4.61624 -1.99781 0
M  V30 2979 H 287.438 -5.83056 -0.729328 0
M  V30 2980 H 288.962 -5.87584 -1.66066 0
M  V30 2981 H 290.376 -5.70109 0.604048 0
M  V30 2982 H 288.773 -5.83945 1.38304 0
M  V30 2983 H 289.843 -4.49485 1.81911 0
M  V30 2984 N 291.186 -0.45159 -1.50991 0
M  V30 2985 C 292.416 0.108177 -2.06317 0
M  V30 2986 C 292.824 1.35774 -1.31765 0
M  V30 2987 O 292.167 1.79838 -0.374694 0
M  V30 2988 C 292.229 0.481659 -3.56259 0
M  V30 2989 C 291.893 -0.663114 -4.52163 0
M  V30 2990 C 292.89 -1.53947 -4.96585 0
M  V30 2991 C 290.575 -0.8479 -4.95092 0
M  V30 2992 C 292.569 -2.58518 -5.82621 0
M  V30 2993 C 290.256 -1.89686 -5.80915 0
M  V30 2994 C 291.254 -2.76388 -6.24579 0
M  V30 2995 O 290.942 -3.79482 -7.08695 0
M  V30 2996 H 290.674 0.00499183 -0.675982 0
M  V30 2997 H 293.228 -0.633659 -1.95381 0
M  V30 2998 H 291.458 1.27641 -3.65027 0
M  V30 2999 H 293.147 0.974233 -3.94035 0
M  V30 3000 H 293.913 -1.4083 -4.64103 0
M  V30 3001 H 289.792 -0.18258 -4.60638 0
M  V30 3002 H 293.336 -3.26224 -6.16623 0
M  V30 3003 H 289.233 -2.02817 -6.12809 0
M  V30 3004 H 290.001 -3.76234 -7.26905 0
M  V30 3005 N 292.664 1.56529 -0.183458 0
M  V30 3006 C 293.614 2.1515 0.754605 0
M  V30 3007 C 294.598 1.08904 1.18443 0
M  V30 3008 O 295.79 1.34997 1.14476 0
M  V30 3009 C 292.919 2.80531 1.97881 0
M  V30 3010 C 292.005 3.93952 1.57043 0
M  V30 3011 N 292.396 4.98221 0.87231 0
M  V30 3012 C 290.694 4.05338 1.86057 0
M  V30 3013 C 291.395 5.77836 0.669377 0
M  V30 3014 N 290.371 5.29858 1.21454 0
M  V30 3015 H 294.173 2.93132 0.212387 0
M  V30 3016 H 291.687 1.62391 0.0167725 0
M  V30 3017 H 293.684 3.20914 2.6612 0
M  V30 3018 H 292.344 2.04035 2.52586 0
M  V30 3019 H 293.355 5.15191 0.529033 0
M  V30 3020 H 290.032 3.39957 2.42354 0
M  V30 3021 H 291.422 6.71799 0.116422 0
M  V30 3022 N 294.142 -0.090211 1.57342 0
M  V30 3023 C 295.072 -1.10976 2.05443 0
M  V30 3024 C 296.053 -1.41482 0.944284 0
M  V30 3025 O 297.238 -1.51428 1.21586 0
M  V30 3026 C 294.368 -2.42831 2.48295 0
M  V30 3027 C 293.322 -2.26721 3.63018 0
M  V30 3028 C 292.648 -3.63796 3.91863 0
M  V30 3029 C 293.948 -1.7037 4.93732 0
M  V30 3030 H 295.642 -0.709564 2.9087 0
M  V30 3031 H 293.188 -0.339874 1.39932 0
M  V30 3032 H 295.141 -3.14431 2.80555 0
M  V30 3033 H 293.865 -2.84795 1.59873 0
M  V30 3034 H 292.524 -1.57565 3.31012 0
M  V30 3035 H 292.172 -4.03297 3.00601 0
M  V30 3036 H 291.872 -3.53861 4.69101 0
M  V30 3037 H 293.396 -4.36855 4.26603 0
M  V30 3038 H 294.81 -2.31816 5.24342 0
M  V30 3039 H 293.207 -1.71181 5.75167 0
M  V30 3040 H 294.277 -0.663542 4.80339 0
M  V30 3041 N 295.62 -1.53406 -0.361157 0
M  V30 3042 C 296.55 -1.83136 -1.44857 0
M  V30 3043 C 297.531 -0.685174 -1.5569 0
M  V30 3044 O 298.716 -0.93544 -1.70186 0
M  V30 3045 C 295.846 -2.02522 -2.82138 0
M  V30 3046 C 294.8 -3.18302 -2.86126 0
M  V30 3047 C 294.126 -3.22989 -4.26125 0
M  V30 3048 C 295.426 -4.56796 -2.53248 0
M  V30 3049 H 297.12 -2.74201 -1.20226 0
M  V30 3050 H 294.666 -1.31938 -0.576922 0
M  V30 3051 H 296.619 -2.21904 -3.58241 0
M  V30 3052 H 295.343 -1.08172 -3.08166 0
M  V30 3053 H 294.002 -2.98747 -2.12475 0
M  V30 3054 H 293.65 -2.26267 -4.49235 0
M  V30 3055 H 293.35 -4.00781 -4.29708 0
M  V30 3056 H 294.874 -3.44559 -5.04094 0
M  V30 3057 H 296.288 -4.7631 -3.19064 0
M  V30 3058 H 294.685 -5.36862 -2.68141 0
M  V30 3059 H 295.755 -4.61606 -1.48484 0
M  V30 3060 N 297.098 0.621204 -1.44841 0
M  V30 3061 C 298.008 1.7612 -1.5498 0
M  V30 3062 C 299.024 1.68477 -0.434927 0
M  V30 3063 O 300.2 1.89076 -0.693693 0
M  V30 3064 C 297.265 3.1254 -1.50065 0
M  V30 3065 C 296.326 3.31741 -2.72482 0
M  V30 3066 C 295.559 4.61653 -2.67792 0
M  V30 3067 O 295.782 5.431 -1.74352 0
M  V30 3068 O 294.716 4.83271 -3.58794 0
M  V30 3069 H 298.542 1.70518 -2.51311 0
M  V30 3070 H 296.127 0.783643 -1.27198 0
M  V30 3071 H 298.009 3.93844 -1.49882 0
M  V30 3072 H 296.684 3.18663 -0.568806 0
M  V30 3073 H 295.591 2.50077 -2.7823 0
M  V30 3074 H 296.924 3.30486 -3.64746 0
M  V30 3075 N 298.576 1.31904 0.862503 0
M  V30 3076 C 299.853 1.12644 1.59908 0
M  V30 3077 C 300.233 -0.316104 2.0872 0
M  V30 3078 O 299.581 -1.31145 1.87118 0
M  V30 3079 C 299.791 2.1472 2.7513 0
M  V30 3080 C 301.139 2.47637 3.44907 0
M  V30 3081 O 302.163 2.13205 2.85346 0
M  V30 3082 O 301.022 3.06632 4.52371 0
M  V30 3083 H 298.116 0.43416 0.703871 0
M  V30 3084 H 300.662 1.43408 0.907314 0
M  V30 3085 H 299.434 3.1172 2.3653 0
M  V30 3086 H 299.057 1.84905 3.51989 0
M  V30 3087 N 300.054 -1.07777 1.14986 0
M  V30 3088 C 301.279 -1.84558 0.946213 0
M  V30 3089 C 301.704 -1.81323 -0.500362 0
M  V30 3090 O 301.062 -1.20301 -1.35637 0
M  V30 3091 C 301.11 -3.29736 1.45968 0
M  V30 3092 O 300.214 -4.07149 0.65601 0
M  V30 3093 H 299.555 -0.571641 0.33782 0
M  V30 3094 H 302.085 -1.35991 1.52865 0
M  V30 3095 H 302.095 -3.80574 1.47063 0
M  V30 3096 H 300.77 -3.31406 2.51283 0
M  V30 3097 H 299.347 -3.65994 0.714322 0
M  V30 3098 N 301.532 -0.945985 -1.26051 0
M  V30 3099 C 302.495 -0.463897 -2.24456 0
M  V30 3100 C 303.495 0.427655 -1.55009 0
M  V30 3101 O 304.685 0.226157 -1.72726 0
M  V30 3102 C 301.817 0.330812 -3.39291 0
M  V30 3103 H 303.01 -1.33357 -2.68619 0
M  V30 3104 H 300.563 -0.728416 -1.38289 0
M  V30 3105 H 301.298 1.21852 -3.00537 0
M  V30 3106 H 301.083 -0.308679 -3.90883 0
M  V30 3107 H 302.573 0.657865 -4.12386 0
M  V30 3108 N 303.011 1.40521 -0.713556 0
M  V30 3109 C 303.941 2.33381 -0.0743864 0
M  V30 3110 C 304.922 1.52784 0.747735 0
M  V30 3111 O 306.107 1.81258 0.697071 0
M  V30 3112 C 303.237 3.36748 0.849598 0
M  V30 3113 C 302.191 4.27793 0.133247 0
M  V30 3114 C 301.517 5.21679 1.17281 0
M  V30 3115 C 302.817 5.12415 -1.01134 0
M  V30 3116 H 304.511 2.87081 -0.850007 0
M  V30 3117 H 302.057 1.38034 -0.410201 0
M  V30 3118 H 304.01 4.00648 1.30612 0
M  V30 3119 H 302.734 2.81439 1.65709 0
M  V30 3120 H 301.393 3.65342 -0.303426 0
M  V30 3121 H 301.041 4.62677 1.9733 0
M  V30 3122 H 300.741 5.83435 0.698397 0
M  V30 3123 H 302.265 5.88456 1.62947 0
M  V30 3124 H 303.679 5.69781 -0.634274 0
M  V30 3125 H 302.076 5.83203 -1.41399 0
M  V30 3126 H 303.146 4.48514 -1.84292 0
M  V30 3127 N 304.489 0.459591 1.5075 0
M  V30 3128 C 305.905 0.113092 1.59199 0
M  V30 3129 C 306.105 -1.37951 1.46874 0
M  V30 3130 O 305.161 -2.15168 1.32132 0
M  V30 3131 C 306.474 0.653043 2.93523 0
M  V30 3132 C 308.022 0.615449 3.0689 0
M  V30 3133 C 308.497 1.13275 4.43771 0
M  V30 3134 N 309.988 1.09167 4.50152 0
M  V30 3135 C 310.723 1.46256 5.54434 0
M  V30 3136 N 310.219 1.90739 6.66026 0
M  V30 3137 N 312.012 1.37932 5.44914 0
M  V30 3138 H 304.163 1.43049 1.57005 0
M  V30 3139 H 306.426 0.590861 0.741341 0
M  V30 3140 H 306.132 1.69822 3.07983 0
M  V30 3141 H 306.006 0.0902132 3.77092 0
M  V30 3142 H 308.393 -0.420793 2.92084 0
M  V30 3143 H 308.474 1.21495 2.25106 0
M  V30 3144 H 308.118 2.16757 4.59324 0
M  V30 3145 H 308.048 0.509576 5.24129 0
M  V30 3146 H 310.539 0.76528 3.7007 0
M  V30 3147 H 310.852 2.17218 7.41644 0
M  V30 3148 H 309.197 1.94683 6.67176 0
M  V30 3149 H 312.388 1.0303 4.56621 0
M  V30 3150 H 312.561 1.67164 6.26067 0
M  V30 3151 N 305.967 -1.56429 0.191757 0
M  V30 3152 C 307.244 -1.89224 -0.495332 0
M  V30 3153 C 307.624 -1.10478 -1.79883 0
M  V30 3154 O 306.972 -0.204852 -2.2758 0
M  V30 3155 C 307.182 -3.41548 -0.717367 0
M  V30 3156 C 308.53 -4.11711 -1.03823 0
M  V30 3157 O 309.554 -3.4698 -0.805204 0
M  V30 3158 O 308.413 -5.2611 -1.47887 0
M  V30 3159 H 305.507 -0.785788 -0.25781 0
M  V30 3160 H 308.053 -1.68111 0.231721 0
M  V30 3161 H 306.825 -3.90772 0.203287 0
M  V30 3162 H 306.448 -3.68342 -1.497 0
M  V30 3163 N 307.445 0.0818655 -1.57387 0
M  V30 3164 C 308.856 0.634871 -1.75574 0
M  V30 3165 C 309.207 1.78435 -0.815809 0
M  V30 3166 O 308.332 2.164 0.0025366 0
M  V30 3167 C 308.927 1.15845 -3.18379 0
M  V30 3168 C 307.486 1.65741 -3.37945 0
M  V30 3169 C 306.633 0.572549 -2.71325 0
M  V30 3170 H 309.584 -0.144268 -1.58043 0
M  V30 3171 H 309.605 2.02751 -3.21982 0
M  V30 3172 H 309.117 0.321631 -3.86765 0
M  V30 3173 H 307.218 2.51781 -2.74658 0
M  V30 3174 H 307.331 1.74129 -4.46336 0
M  V30 3175 H 305.695 1.01518 -2.33594 0
M  V30 3176 H 306.478 -0.253918 -3.4236 0
M  V30 3177 N 308.923 1.53595 0.353017 0
M  V30 3178 C 310.169 1.71581 1.09232 0
M  V30 3179 C 310.524 0.468328 1.86613 0
M  V30 3180 O 309.817 -0.538911 1.83865 0
M  V30 3181 C 310.011 2.91313 2.07054 0
M  V30 3182 C 309.84 4.27585 1.39287 0
M  V30 3183 C 308.61 4.92233 1.1417 0
M  V30 3184 C 310.808 5.07656 0.824005 0
M  V30 3185 N 308.79 6.124 0.428841 0
M  V30 3186 C 310.161 6.19531 0.241195 0
M  V30 3187 C 312.216 4.92609 0.723922 0
M  V30 3188 C 310.919 7.18002 -0.431952 0
M  V30 3189 C 312.945 5.91365 0.0645334 0
M  V30 3190 C 312.307 7.02571 -0.507347 0
M  V30 3191 H 308.406 0.680987 0.384422 0
M  V30 3192 H 310.99 1.91013 0.377096 0
M  V30 3193 H 309.161 2.73398 2.75877 0
M  V30 3194 H 310.893 2.98062 2.73753 0
M  V30 3195 H 307.648 4.51612 1.42631 0
M  V30 3196 H 308.072 6.76944 0.0874131 0
M  V30 3197 H 312.714 4.06808 1.15181 0
M  V30 3198 H 310.432 8.03384 -0.871758 0
M  V30 3199 H 314.018 5.81799 -0.0121469 0
M  V30 3200 H 312.898 7.77675 -1.0095 0
M  V30 3201 N 310.401 -0.613514 1.45168 0
M  V30 3202 C 311.629 -1.39946 1.5239 0
M  V30 3203 C 312.044 -1.88167 0.154531 0
M  V30 3204 O 311.401 -1.61872 -0.842843 0
M  V30 3205 C 311.452 -2.60795 2.50337 0
M  V30 3206 O 311.173 -2.1458 3.81952 0
M  V30 3207 C 312.674 -3.53723 2.67198 0
M  V30 3208 H 309.894 -0.428593 0.516284 0
M  V30 3209 H 312.438 -0.748753 1.903 0
M  V30 3210 H 310.593 -3.21919 2.15515 0
M  V30 3211 H 311.007 -2.93055 4.34993 0
M  V30 3212 H 312.481 -4.35079 3.39721 0
M  V30 3213 H 312.958 -4.0368 1.73029 0
M  V30 3214 H 313.564 -2.98456 3.02992 0
M  V30 3215 N 311.879 -1.3236 -0.855495 0
M  V30 3216 C 313.156 -1.13491 -1.59309 0
M  V30 3217 C 313.536 0.30503 -2.08885 0
M  V30 3218 O 312.884 1.30151 -1.87811 0
M  V30 3219 C 313.094 -2.16176 -2.73987 0
M  V30 3220 C 314.442 -2.49463 -3.43589 0
M  V30 3221 O 315.466 -2.14715 -2.84211 0
M  V30 3222 O 314.325 -3.09027 -4.50738 0
M  V30 3223 H 311.419 -0.437887 -0.701559 0
M  V30 3224 H 313.965 -1.43887 -0.899696 0
M  V30 3225 H 312.737 -3.1297 -2.34873 0
M  V30 3226 H 312.36 -1.86769 -3.51003 0
M  V30 3227 N 313.357 1.07166 -1.15556 0
M  V30 3228 C 314.305 2.16517 -0.8499 0
M  V30 3229 C 315.299 1.68468 0.177454 0
M  V30 3230 O 316.505 1.79971 0.0323026 0
M  V30 3231 H 312.88 0.706652 -0.25719 0
M  V30 3232 H 314.851 2.39514 -1.77976 0
M  V30 3233 C 313.6 3.45855 -0.357682 0
M  V30 3234 H 312.923 3.83214 -1.13961 0
M  V30 3235 H 314.363 4.23607 -0.182489 0
M  V30 3236 C 312.822 3.24062 0.921152 0
M  V30 3237 O 313.352 3.48813 1.9923 0
M  V30 3238 N 311.558 2.77539 0.86141 0
M  V30 3239 H 311.105 2.57598 -0.0104408 0
M  V30 3240 H 311.063 2.63337 1.71758 0
M  V30 3241 N 314.835 0.952656 1.25548 0
M  V30 3242 C 316.075 0.614013 1.9496 0
M  V30 3243 C 316.439 -0.833215 1.72978 0
M  V30 3244 O 317.64 -1.28135 2.36294 0
M  V30 3245 C 315.911 0.960562 3.4425 0
M  V30 3246 S 317.47 0.734195 4.32614 0
M  V30 3247 H 314.288 0.225754 0.674208 0
M  V30 3248 H 316.89 1.22641 1.52248 0
M  V30 3249 H 315.594 2.01103 3.57751 0
M  V30 3250 H 315.125 0.338336 3.91942 0
M  V30 3251 H 317.14 -0.395995 4.94617 0
M  V30 3252 N 316.313 -1.40141 0.720998 0
M  V30 3253 C 317.243 -2.33339 0.0867621 0
M  V30 3254 C 318.224 -1.53178 -0.739622 0
M  V30 3255 O 319.409 -1.81625 -0.687449 0
M  V30 3256 C 316.539 -3.37194 -0.831728 0
M  V30 3257 C 315.493 -4.27857 -0.110558 0
M  V30 3258 C 314.819 -5.22294 -1.14513 0
M  V30 3259 C 316.119 -5.11872 1.0385 0
M  V30 3260 H 317.813 -2.86626 0.865219 0
M  V30 3261 H 315.359 -1.37814 0.417516 0
M  V30 3262 H 317.312 -4.01335 -1.28485 0
M  V30 3263 H 316.036 -2.82314 -1.64214 0
M  V30 3264 H 314.695 -3.65176 0.322797 0
M  V30 3265 H 314.343 -4.63717 -1.94874 0
M  V30 3266 H 314.043 -5.83797 -0.667446 0
M  V30 3267 H 315.567 -5.89312 -1.59824 0
M  V30 3268 H 316.981 -5.69436 0.664482 0
M  V30 3269 H 315.378 -5.82445 1.4449 0
M  V30 3270 H 316.448 -4.4753 1.86668 0
M  V30 3271 N 317.792 -0.46758 -1.50504 0
M  V30 3272 C 318.722 0.318381 -2.31319 0
M  V30 3273 C 319.703 0.993564 -1.38066 0
M  V30 3274 O 320.888 0.991411 -1.66987 0
M  V30 3275 C 318.018 1.40275 -3.17711 0
M  V30 3276 C 316.972 0.849373 -4.19487 0
M  V30 3277 C 316.298 2.03177 -4.94594 0
M  V30 3278 C 317.598 -0.136942 -5.2212 0
M  V30 3279 H 319.292 -0.356106 -2.97275 0
M  V30 3280 H 316.838 -0.172703 -1.42961 0
M  V30 3281 H 318.791 1.96004 -3.73042 0
M  V30 3282 H 317.515 2.10596 -2.49634 0
M  V30 3283 H 316.174 0.314076 -3.65252 0
M  V30 3284 H 315.822 2.72187 -4.22993 0
M  V30 3285 H 315.522 1.66774 -5.63436 0
M  V30 3286 H 317.046 2.59403 -5.52759 0
M  V30 3287 H 318.46 0.331056 -5.72343 0
M  V30 3288 H 316.857 -0.41507 -5.98663 0
M  V30 3289 H 317.927 -1.06398 -4.73083 0
M  V30 3290 N 319.27 1.56325 -0.20005 0
M  V30 3291 C 320.2 2.22318 0.713916 0
M  V30 3292 C 321.181 1.18788 1.21752 0
M  V30 3293 O 322.366 1.47309 1.26545 0
M  V30 3294 C 319.496 2.88639 1.93144 0
M  V30 3295 C 318.45 3.98457 1.56255 0
M  V30 3296 C 317.776 4.51967 2.85709 0
M  V30 3297 C 319.076 5.16612 0.768747 0
M  V30 3298 H 320.77 2.98952 0.163755 0
M  V30 3299 H 318.316 1.43792 0.0773219 0
M  V30 3300 H 320.269 3.33491 2.57608 0
M  V30 3301 H 318.993 2.09419 2.50621 0
M  V30 3302 H 317.652 3.54305 0.941471 0
M  V30 3303 H 317.3 3.69503 3.41287 0
M  V30 3304 H 317 5.26071 2.6177 0
M  V30 3305 H 318.524 4.99523 3.51154 0
M  V30 3306 H 319.938 5.57977 1.3166 0
M  V30 3307 H 318.335 5.96812 0.627286 0
M  V30 3308 H 319.405 4.84358 -0.229168 0
M  V30 3309 N 320.748 -0.0735177 1.57428 0
M  V30 3310 C 321.994 -0.774145 1.87443 0
M  V30 3311 C 322.327 -1.77311 0.792103 0
M  V30 3312 O 321.602 -1.93492 -0.197793 0
M  V30 3313 C 321.885 -1.48367 3.28115 0
M  V30 3314 C 321.738 -0.501227 4.46999 0
M  V30 3315 C 323.057 -2.429 3.66998 0
M  V30 3316 H 320.176 -0.279971 0.681752 0
M  V30 3317 H 322.818 -0.0373616 1.89963 0
M  V30 3318 H 320.968 -2.11171 3.26097 0
M  V30 3319 H 322.64 0.121468 4.6114 0
M  V30 3320 H 320.883 0.183593 4.33411 0
M  V30 3321 H 321.554 -1.03526 5.42205 0
M  V30 3322 H 324.03 -1.90175 3.70098 0
M  V30 3323 H 322.906 -2.89549 4.66318 0
M  V30 3324 H 323.167 -3.27628 2.96837 0
M  V30 3325 N 322.226 -1.5378 -0.344866 0
M  V30 3326 C 323.475 -1.7018 -1.08267 0
M  V30 3327 C 323.788 -0.471 -1.89845 0
M  V30 3328 O 324.994 -0.515917 -2.66553 0
M  V30 3329 C 323.45 -3.00923 -1.97417 0
M  V30 3330 C 323.058 -4.31335 -1.21053 0
M  V30 3331 C 324.802 -3.26688 -2.71063 0
M  V30 3332 C 322.709 -5.53153 -2.09225 0
M  V30 3333 H 321.639 -0.634138 -0.407903 0
M  V30 3334 H 324.29 -1.8028 -0.342246 0
M  V30 3335 H 322.672 -2.84676 -2.75274 0
M  V30 3336 H 323.846 -4.58281 -0.481159 0
M  V30 3337 H 322.161 -4.12173 -0.591813 0
M  V30 3338 H 324.758 -4.1489 -3.37299 0
M  V30 3339 H 325.101 -2.43639 -3.37558 0
M  V30 3340 H 325.634 -3.43705 -2.0028 0
M  V30 3341 H 322.373 -6.38741 -1.47274 0
M  V30 3342 H 321.893 -5.30458 -2.79955 0
M  V30 3343 H 323.572 -5.88744 -2.68308 0
M  V30 3344 N 323.704 0.605807 -1.45491 0
M  V30 3345 C 324.667 1.69836 -1.5391 0
M  V30 3346 C 325.667 1.55261 -0.418424 0
M  V30 3347 O 326.857 1.60296 -0.681965 0
M  V30 3348 C 323.989 3.09117 -1.43734 0
M  V30 3349 H 325.182 1.63738 -2.51257 0
M  V30 3350 H 322.735 0.821689 -1.32959 0
M  V30 3351 H 323.47 3.20791 -0.475788 0
M  V30 3352 H 323.255 3.21104 -2.25021 0
M  V30 3353 H 324.745 3.88696 -1.52661 0
M  V30 3354 N 325.182 1.32811 0.848464 0
M  V30 3355 C 326.41 1.26739 1.63538 0
M  V30 3356 C 326.825 -0.163484 1.88091 0
M  V30 3357 O 326.182 -1.10258 1.45429 0
M  V30 3358 C 326.233 2.03013 2.99112 0
M  V30 3359 O 325.954 3.40518 2.75643 0
M  V30 3360 C 327.455 2.04038 3.93552 0
M  V30 3361 H 324.675 0.437024 0.509167 0
M  V30 3362 H 327.219 1.75033 1.05753 0
M  V30 3363 H 325.374 1.58426 3.53525 0
M  V30 3364 H 325.788 3.79635 3.61908 0
M  V30 3365 H 327.262 2.61877 4.85926 0
M  V30 3366 H 327.739 1.0282 4.26995 0
M  V30 3367 H 328.345 2.486 3.45077 0
M  V30 3368 N 326.66 -1.06551 1.16123 0
M  V30 3369 C 328.076 -1.3142 0.905585 0
M  V30 3370 C 328.276 -1.96571 -0.442964 0
M  V30 3371 O 327.332 -2.23068 -1.18308 0
M  V30 3372 C 328.645 -2.19741 2.05267 0
M  V30 3373 C 330.193 -2.33165 2.08813 0
M  V30 3374 C 330.668 -3.24838 3.22868 0
M  V30 3375 N 332.159 -3.32421 3.22568 0
M  V30 3376 C 332.894 -4.0344 4.0746 0
M  V30 3377 N 332.39 -4.77003 5.02434 0
M  V30 3378 N 334.183 -3.99464 3.95456 0
M  V30 3379 H 326.334 -0.626548 2.02949 0
M  V30 3380 H 328.597 -0.338777 0.8854 0
M  V30 3381 H 328.303 -1.79142 3.02657 0
M  V30 3382 H 328.177 -3.20313 1.99198 0
M  V30 3383 H 330.564 -2.73013 1.12018 0
M  V30 3384 H 330.645 -1.3227 2.18948 0
M  V30 3385 H 330.289 -2.85708 4.19921 0
M  V30 3386 H 330.219 -4.25707 3.0997 0
M  V30 3387 H 332.71 -2.79994 2.53795 0
M  V30 3388 H 333.023 -5.28712 5.63634 0
M  V30 3389 H 331.368 -4.75992 5.06415 0
M  V30 3390 H 334.559 -3.4111 3.20564 0
M  V30 3391 H 334.732 -4.54544 4.61837 0
M  V30 3392 N 328.138 -0.959301 -1.25041 0
M  V30 3393 C 329.048 -0.489994 -2.29426 0
M  V30 3394 C 330.064 0.444944 -1.68215 0
M  V30 3395 O 331.24 0.320046 -1.98841 0
M  V30 3396 C 328.305 0.220309 -3.45999 0
M  V30 3397 C 327.366 -0.753418 -4.22637 0
M  V30 3398 C 326.599 -0.076918 -5.33645 0
M  V30 3399 O 326.822 1.13649 -5.58963 0
M  V30 3400 O 325.756 -0.764824 -5.97021 0
M  V30 3401 H 329.582 -1.35755 -2.71669 0
M  V30 3402 H 327.167 -0.725961 -1.30576 0
M  V30 3403 H 329.049 0.619677 -4.16819 0
M  V30 3404 H 327.724 1.06296 -3.0575 0
M  V30 3405 H 326.631 -1.20308 -3.54227 0
M  V30 3406 H 327.964 -1.56423 -4.66683 0
M  V30 3407 N 329.616 1.39756 -0.72842 0
M  V30 3408 C 330.841 2.05472 -0.282159 0
M  V30 3409 C 331.266 1.54549 1.07221 0
M  V30 3410 O 330.624 0.686372 1.67805 0
M  V30 3411 C 330.672 3.59462 -0.286264 0
M  V30 3412 O 329.776 4.05918 0.728298 0
M  V30 3413 H 329.117 0.651226 -0.129618 0
M  V30 3414 H 331.647 1.78915 -0.992499 0
M  V30 3415 H 331.657 4.07798 -0.128373 0
M  V30 3416 H 330.332 3.95889 -1.27456 0
M  V30 3417 H 328.909 3.69012 0.537081 0
M  V30 3418 N 331.094 0.475555 1.50254 0
M  V30 3419 C 332.343 -0.0795996 2.01543 0
M  V30 3420 C 332.656 -1.4038 1.36209 0
M  V30 3421 O 333.862 -2.04415 1.7868 0
M  V30 3422 C 332.318 -0.192363 3.59386 0
M  V30 3423 C 331.926 1.12367 4.33679 0
M  V30 3424 C 333.67 -0.699238 4.18701 0
M  V30 3425 C 331.577 0.974453 5.83317 0
M  V30 3426 H 330.507 -0.0335228 0.753254 0
M  V30 3427 H 333.158 0.611128 1.73025 0
M  V30 3428 H 331.54 -0.946974 3.84511 0
M  V30 3429 H 332.714 1.88958 4.20276 0
M  V30 3430 H 331.029 1.562 3.85993 0
M  V30 3431 H 333.626 -0.827978 5.28251 0
M  V30 3432 H 333.969 -1.69171 3.80377 0
M  V30 3433 H 334.502 -0.00188807 3.978 0
M  V30 3434 H 331.241 1.94042 6.26121 0
M  V30 3435 H 330.761 0.248998 5.99283 0
M  V30 3436 H 332.44 0.642867 6.43798 0
M  V30 3437 N 332.573 -1.56217 0.208337 0
M  V30 3438 C 333.984 -1.84243 -0.301904 0
M  V30 3439 C 334.335 -1.12939 -1.60434 0
M  V30 3440 O 333.46 -0.39461 -2.12772 0
M  V30 3441 C 334.055 -3.34231 -0.554543 0
M  V30 3442 C 332.614 -3.62621 -1.00912 0
M  V30 3443 C 331.761 -2.77224 -0.064933 0
M  V30 3444 H 334.712 -1.52712 0.431833 0
M  V30 3445 H 334.733 -3.5372 -1.40223 0
M  V30 3446 H 334.245 -3.86099 0.393561 0
M  V30 3447 H 332.346 -3.16197 -1.97104 0
M  V30 3448 H 332.459 -4.7071 -0.892674 0
M  V30 3449 H 330.823 -2.48256 -0.56929 0
M  V30 3450 H 331.606 -3.31887 0.877851 0
M  V30 3451 N 334.051 0.0651679 -1.57465 0
M  V30 3452 C 334.961 1.09448 -2.07505 0
M  V30 3453 C 335.977 1.41974 -1.00595 0
M  V30 3454 O 337.153 1.52018 -1.32107 0
M  V30 3455 C 334.218 2.38689 -2.51453 0
M  V30 3456 C 333.279 2.13073 -3.72691 0
M  V30 3457 C 332.512 3.36152 -4.14533 0
M  V30 3458 O 332.735 4.45517 -3.56189 0
M  V30 3459 O 331.669 3.23974 -5.07272 0
M  V30 3460 H 335.495 0.69935 -2.95538 0
M  V30 3461 H 333.08 0.279752 -1.46757 0
M  V30 3462 H 334.962 3.14736 -2.80212 0
M  V30 3463 H 333.637 2.77568 -1.66546 0
M  V30 3464 H 332.544 1.34709 -3.49005 0
M  V30 3465 H 333.877 1.79071 -4.5847 0
M  V30 3466 N 335.529 1.53961 0.336706 0
M  V30 3467 C 336.806 1.62171 1.09361 0
M  V30 3468 C 337.186 0.447263 2.06307 0
M  V30 3469 O 336.534 -0.559802 2.21537 0
M  V30 3470 C 336.744 2.98565 1.80721 0
M  V30 3471 C 338.092 3.54157 2.34218 0
M  V30 3472 O 339.116 3.00784 1.90807 0
M  V30 3473 O 337.975 4.47528 3.13657 0
M  V30 3474 H 335.069 0.6562 0.503319 0
M  V30 3475 H 337.615 1.66307 0.33765 0
M  V30 3476 H 336.387 3.75482 1.10132 0
M  V30 3477 H 336.01 2.9805 2.63158 0
M  V30 3478 N 337.007 -0.598083 1.45811 0
M  V30 3479 C 337.937 -1.71873 1.58057 0
M  V30 3480 C 338.918 -1.64533 0.431615 0
M  V30 3481 O 340.103 -1.82787 0.65595 0
M  V30 3482 C 337.233 -3.10495 1.55597 0
M  V30 3483 C 336.187 -3.32654 2.69305 0
M  V30 3484 C 335.513 -4.71646 2.51902 0
M  V30 3485 C 336.813 -3.21981 4.11248 0
M  V30 3486 H 338.507 -1.61881 2.51863 0
M  V30 3487 H 336.053 -0.777372 1.21214 0
M  V30 3488 H 338.006 -3.88699 1.6276 0
M  V30 3489 H 336.73 -3.2135 0.583255 0
M  V30 3490 H 335.389 -2.56843 2.61586 0
M  V30 3491 H 335.037 -4.79246 1.52748 0
M  V30 3492 H 334.737 -4.87426 3.2816 0
M  V30 3493 H 336.261 -5.52038 2.60933 0
M  V30 3494 H 337.675 -3.90049 4.20161 0
M  V30 3495 H 336.072 -3.49289 4.87972 0
M  V30 3496 H 337.142 -2.1928 4.32486 0
M  V30 3497 N 338.485 -1.33259 -0.841409 0
M  V30 3498 C 339.715 -1.2742 -1.62628 0
M  V30 3499 C 340.123 0.157604 -1.88542 0
M  V30 3500 O 339.466 1.10938 -1.46419 0
M  V30 3501 C 339.528 -1.97797 -3.00194 0
M  V30 3502 C 339.192 -3.47109 -2.97261 0
M  V30 3503 C 340.189 -4.42358 -2.73159 0
M  V30 3504 C 337.874 -3.89247 -3.17478 0
M  V30 3505 C 339.868 -5.77718 -2.69296 0
M  V30 3506 C 337.555 -5.24713 -3.13241 0
M  V30 3507 C 338.553 -6.1876 -2.89181 0
M  V30 3508 O 338.241 -7.51745 -2.84843 0
M  V30 3509 H 337.973 -0.440436 -0.512827 0
M  V30 3510 H 340.527 -1.76153 -1.05638 0
M  V30 3511 H 338.757 -1.43652 -3.59028 0
M  V30 3512 H 340.446 -1.8549 -3.61038 0
M  V30 3513 H 341.212 -4.11127 -2.57294 0
M  V30 3514 H 337.091 -3.16456 -3.35226 0
M  V30 3515 H 340.635 -6.51097 -2.50436 0
M  V30 3516 H 336.532 -5.55569 -3.28654 0
M  V30 3517 H 337.3 -7.61262 -3.00702 0
M  V30 3518 N 339.963 1.05934 -1.16686 0
M  V30 3519 C 340.895 2.13468 -0.834503 0
M  V30 3520 C 341.908 1.62013 0.15984 0
M  V30 3521 O 343.097 1.7838 -0.0654228 0
M  V30 3522 C 340.197 3.3817 -0.222361 0
M  V30 3523 C 339.37 4.18928 -1.25771 0
M  V30 3524 C 338.429 5.21985 -0.664703 0
M  V30 3525 O 337.455 5.53334 -1.33453 0
M  V30 3526 N 338.657 5.77919 0.546834 0
M  V30 3527 H 341.422 2.42578 -1.75999 0
M  V30 3528 H 338.983 1.21967 -1.06469 0
M  V30 3529 H 340.975 4.04266 0.187472 0
M  V30 3530 H 339.545 3.06655 0.606758 0
M  V30 3531 H 338.765 3.48433 -1.84358 0
M  V30 3532 H 340.053 4.69687 -1.95631 0
M  V30 3533 H 339.451 5.54721 1.10912 0
M  V30 3534 H 338.008 6.45573 0.898829 0
M  V30 3535 N 341.441 0.965919 1.2453 0
M  V30 3536 C 342.388 0.49402 2.25451 0
M  V30 3537 C 343.358 -0.45948 1.59618 0
M  V30 3538 O 344.543 -0.370238 1.87173 0
M  V30 3539 C 341.683 -0.211359 3.44452 0
M  V30 3540 C 340.796 0.7807 4.24887 0
M  V30 3541 C 339.931 0.0516105 5.31175 0
M  V30 3542 C 338.97 1.03385 6.03306 0
M  V30 3543 N 338.107 0.334887 7.01301 0
M  V30 3544 H 342.947 1.35946 2.65184 0
M  V30 3545 H 340.484 0.681515 1.3036 0
M  V30 3546 H 342.442 -0.637 4.12308 0
M  V30 3547 H 341.072 -1.04077 3.05562 0
M  V30 3548 H 340.124 1.32479 3.56586 0
M  V30 3549 H 341.436 1.52978 4.74762 0
M  V30 3550 H 340.59 -0.432114 6.05159 0
M  V30 3551 H 339.329 -0.730179 4.82203 0
M  V30 3552 H 338.334 1.52847 5.28127 0
M  V30 3553 H 339.559 1.81606 6.54367 0
M  V30 3554 H 337.505 -0.427959 6.54603 0
M  V30 3555 H 337.422 1.02287 7.49048 0
M  V30 3556 H 338.69 -0.126928 7.79397 0
M  V30 3557 N 342.919 -1.39368 0.735821 0
M  V30 3558 C 344.166 -2.00497 0.284123 0
M  V30 3559 C 344.494 -1.58387 -1.12889 0
M  V30 3560 O 343.749 -0.804359 -1.78406 0
M  V30 3561 C 344.048 -3.5583 0.334651 0
M  V30 3562 C 343.714 -4.17593 1.7008 0
M  V30 3563 C 342.376 -4.34176 2.07472 0
M  V30 3564 C 344.728 -4.51848 2.59775 0
M  V30 3565 C 342.056 -4.82304 3.34065 0
M  V30 3566 C 344.408 -5.01384 3.85741 0
M  V30 3567 C 343.072 -5.16175 4.23225 0
M  V30 3568 H 342.342 -0.73367 0.103968 0
M  V30 3569 H 344.989 -1.66683 0.942825 0
M  V30 3570 H 343.294 -3.89674 -0.407625 0
M  V30 3571 H 344.991 -4.00986 -0.0329927 0
M  V30 3572 H 341.581 -4.05087 1.40008 0
M  V30 3573 H 345.765 -4.38653 2.32157 0
M  V30 3574 H 341.021 -4.91941 3.63049 0
M  V30 3575 H 345.195 -5.26863 4.55399 0
M  V30 3576 H 342.822 -5.5323 5.21384 0
M  V30 3577 N 344.397 -0.483516 -1.5 0
M  V30 3578 C 345.33 0.350427 -2.25493 0
M  V30 3579 C 346.308 0.985549 -1.29328 0
M  V30 3580 O 347.492 1.01906 -1.58579 0
M  V30 3581 C 344.619 1.49202 -3.04066 0
M  V30 3582 C 343.665 0.973036 -4.15252 0
M  V30 3583 S 344.498 -0.122237 -5.3536 0
M  V30 3584 C 345.654 1.02294 -6.17484 0
M  V30 3585 H 345.887 -0.290381 -2.95878 0
M  V30 3586 H 343.42 -0.268562 -1.52046 0
M  V30 3587 H 345.378 2.14623 -3.49925 0
M  V30 3588 H 344.039 2.10438 -2.33183 0
M  V30 3589 H 343.232 1.82804 -4.69679 0
M  V30 3590 H 342.834 0.396335 -3.71894 0
M  V30 3591 H 345.126 1.93195 -6.49371 0
M  V30 3592 H 346.069 0.517664 -7.06205 0
M  V30 3593 H 346.477 1.28238 -5.49741 0
M  V30 3594 N 345.875 1.56104 -0.216619 0
M  V30 3595 C 346.838 2.18819 0.681962 0
M  V30 3596 C 347.838 1.14866 1.12528 0
M  V30 3597 O 349.028 1.40128 1.03488 0
M  V30 3598 C 346.16 2.80756 1.93362 0
M  V30 3599 H 347.353 2.99595 0.135254 0
M  V30 3600 H 344.906 1.56265 0.0330003 0
M  V30 3601 H 345.641 2.03837 2.52232 0
M  V30 3602 H 345.426 3.56876 1.62426 0
M  V30 3603 H 346.916 3.28844 2.57393 0
M  V30 3604 N 347.353 -0.0568162 1.57498 0
M  V30 3605 C 348.583 -0.764515 1.91934 0
M  V30 3606 C 348.991 -1.70877 0.81227 0
M  V30 3607 O 348.334 -1.82351 -0.222213 0
M  V30 3608 C 348.396 -1.5994 3.21962 0
M  V30 3609 C 348.06 -0.822925 4.4953 0
M  V30 3610 C 349.057 -0.135464 5.19723 0
M  V30 3611 C 346.742 -0.785666 4.96117 0
M  V30 3612 C 348.736 0.578861 6.34766 0
M  V30 3613 C 346.423 -0.0675784 6.11063 0
M  V30 3614 C 347.421 0.613471 6.80239 0
M  V30 3615 O 347.109 1.31996 7.92989 0
M  V30 3616 H 346.841 -0.221647 0.63863 0
M  V30 3617 H 349.395 -0.0268218 2.05382 0
M  V30 3618 H 347.625 -2.38026 3.04763 0
M  V30 3619 H 349.314 -2.18715 3.41934 0
M  V30 3620 H 350.08 -0.155458 4.84751 0
M  V30 3621 H 345.959 -1.30524 4.42136 0
M  V30 3622 H 349.503 1.111 6.88696 0
M  V30 3623 H 345.4 -0.0455636 6.45484 0
M  V30 3624 H 346.168 1.23077 8.09194 0
M  V30 3625 N 348.832 -1.54138 -0.328536 0
M  V30 3626 C 349.762 -1.86167 -1.40939 0
M  V30 3627 C 350.743 -0.718044 -1.54202 0
M  V30 3628 O 351.928 -0.971328 -1.68163 0
M  V30 3629 C 349.058 -2.08461 -2.77779 0
M  V30 3630 C 348.012 -3.24299 -2.7931 0
M  V30 3631 C 347.338 -3.31955 -4.19178 0
M  V30 3632 C 348.638 -4.62065 -2.43502 0
M  V30 3633 H 350.332 -2.76689 -1.14383 0
M  V30 3634 H 347.878 -1.33132 -0.548806 0
M  V30 3635 H 349.831 -2.29453 -3.53454 0
M  V30 3636 H 348.555 -1.14684 -3.05802 0
M  V30 3637 H 347.214 -3.03187 -2.0609 0
M  V30 3638 H 346.862 -2.35745 -4.44335 0
M  V30 3639 H 346.562 -4.09805 -4.2111 0
M  V30 3640 H 348.086 -3.55175 -4.96672 0
M  V30 3641 H 349.5 -4.8297 -3.08889 0
M  V30 3642 H 347.897 -5.42429 -2.56693 0
M  V30 3643 H 348.967 -4.64652 -1.38659 0
M  V30 3644 N 350.31 0.590341 -1.46126 0
M  V30 3645 C 351.535 1.37991 -1.54833 0
M  V30 3646 C 351.96 1.87163 -0.187506 0
M  V30 3647 O 351.318 1.61133 0.831008 0
M  V30 3648 C 351.366 2.54867 -2.55098 0
M  V30 3649 O 350.47 3.56061 -2.08073 0
M  V30 3650 H 349.811 0.411265 -0.521303 0
M  V30 3651 H 352.341 0.716819 -1.91632 0
M  V30 3652 H 352.351 3.01886 -2.74461 0
M  V30 3653 H 351.026 2.18429 -3.53923 0
M  V30 3654 H 349.603 3.15574 -1.98664 0
M  V30 3655 N 351.788 1.33704 0.83433 0
M  V30 3656 C 352.72 1.20172 1.9517 0
M  V30 3657 C 353.733 0.131572 1.62267 0
M  V30 3658 O 354.922 0.382406 1.74356 0
M  V30 3659 C 352.022 0.821716 3.28787 0
M  V30 3660 C 351.195 1.98446 3.89792 0
M  V30 3661 C 350.254 1.58469 5.01771 0
M  V30 3662 O 349.28 2.29968 5.20676 0
M  V30 3663 N 350.482 0.492291 5.78409 0
M  V30 3664 H 353.247 2.16429 2.07313 0
M  V30 3665 H 350.808 1.26509 1.0103 0
M  V30 3666 H 352.8 0.536291 4.01131 0
M  V30 3667 H 351.37 -0.0503058 3.1256 0
M  V30 3668 H 350.59 2.43526 3.09982 0
M  V30 3669 H 351.878 2.76236 4.27283 0
M  V30 3670 H 351.276 -0.102349 5.65607 0
M  V30 3671 H 349.833 0.266555 6.51255 0
M  V30 3672 N 353.266 -1.05314 1.17247 0
M  V30 3673 C 354.514 -1.77941 0.958194 0
M  V30 3674 C 354.835 -1.88089 -0.514556 0
M  V30 3675 O 354.105 -1.39676 -1.37359 0
M  V30 3676 H 352.685 -0.659116 0.351533 0
M  V30 3677 H 355.347 -1.27166 1.47699 0
M  V30 3678 H 354.443 -2.79663 1.38546 0
M  V30 3679 N 354.744 -0.972509 -1.24016 0
M  V30 3680 C 355.992 -0.635776 -1.91839 0
M  V30 3681 C 356.313 0.832312 -1.76345 0
M  V30 3682 O 355.583 1.5946 -1.13795 0
M  V30 3683 H 354.163 -0.232157 -0.710009 0
M  V30 3684 H 356.825 -1.23462 -1.50809 0
M  V30 3685 H 355.921 -0.880545 -2.99421 0
M  V30 3686 N 356.222 1.38976 -0.743202 0
M  V30 3687 C 357.169 2.30544 -0.10861 0
M  V30 3688 C 358.139 1.49642 0.720869 0
M  V30 3689 O 359.324 1.78304 0.679142 0
M  V30 3690 C 356.464 3.36018 0.786496 0
M  V30 3691 C 355.577 4.31963 -0.0564849 0
M  V30 3692 C 354.712 5.24506 0.840657 0
M  V30 3693 C 353.751 6.121 -0.00658363 0
M  V30 3694 N 352.888 6.96973 0.846943 0
M  V30 3695 H 357.728 2.8424 -0.895088 0
M  V30 3696 H 355.265 1.3995 -0.453048 0
M  V30 3697 H 357.223 3.95768 1.31999 0
M  V30 3698 H 355.853 2.83758 1.53887 0
M  V30 3699 H 354.905 3.73763 -0.707492 0
M  V30 3700 H 356.217 4.93703 -0.711229 0
M  V30 3701 H 355.371 5.89322 1.4417 0
M  V30 3702 H 354.11 4.63107 1.52916 0
M  V30 3703 H 353.115 5.46289 -0.620366 0
M  V30 3704 H 354.34 6.75565 -0.691992 0
M  V30 3705 H 352.286 6.38133 1.52059 0
M  V30 3706 H 352.203 7.5559 0.248864 0
M  V30 3707 H 353.471 7.6621 1.43328 0
M  V30 3708 N 357.7 0.491464 1.49741 0
M  V30 3709 C 358.946 -0.0565092 2.02721 0
M  V30 3710 C 359.279 -1.37522 1.37118 0
M  V30 3711 O 358.554 -1.87866 0.503645 0
M  V30 3712 C 358.837 -0.219051 3.59433 0
M  V30 3713 C 358.69 1.12211 4.35579 0
M  V30 3714 C 360.009 -0.964157 4.29409 0
M  V30 3715 H 357.128 -0.0190627 0.736753 0
M  V30 3716 H 359.77 0.641021 1.7886 0
M  V30 3717 H 357.92 -0.813165 3.79895 0
M  V30 3718 H 359.592 1.75437 4.26637 0
M  V30 3719 H 357.835 1.71377 3.98513 0
M  V30 3720 H 358.506 0.961794 5.43556 0
M  V30 3721 H 360.982 -0.460378 4.13545 0
M  V30 3722 H 359.858 -1.04671 5.38828 0
M  V30 3723 H 360.119 -2.00563 3.93988 0
M  V30 3724 N 359.178 -1.55987 0.224894 0
M  V30 3725 C 360.108 -2.23426 -0.678457 0
M  V30 3726 C 361.089 -1.20709 -1.19847 0
M  V30 3727 O 362.274 -1.49304 -1.24186 0
M  V30 3728 C 359.404 -2.91676 -1.88527 0
M  V30 3729 C 358.358 -4.00893 -1.49896 0
M  V30 3730 C 357.684 -4.56455 -2.78483 0
M  V30 3731 C 358.984 -5.17769 -0.686461 0
M  V30 3732 H 360.678 -2.99175 -0.116173 0
M  V30 3733 H 358.224 -1.43897 -0.054436 0
M  V30 3734 H 360.177 -3.37547 -2.5227 0
M  V30 3735 H 358.901 -2.1338 -2.47258 0
M  V30 3736 H 357.56 -3.55758 -0.884985 0
M  V30 3737 H 357.208 -3.74886 -3.35365 0
M  V30 3738 H 356.908 -5.30169 -2.53368 0
M  V30 3739 H 358.432 -5.05047 -3.43162 0
M  V30 3740 H 359.846 -5.60001 -1.22767 0
M  V30 3741 H 358.243 -5.97735 -0.532259 0
M  V30 3742 H 359.313 -4.83932 0.306196 0
M  V30 3743 N 360.656 0.0484629 -1.57525 0
M  V30 3744 C 361.904 0.741657 -1.88 0
M  V30 3745 C 362.225 1.76918 -0.820054 0
M  V30 3746 O 361.495 1.95335 0.148661 0
M  V30 3747 H 360.075 0.276908 -0.69378 0
M  V30 3748 H 362.737 0.019013 -1.94891 0
M  V30 3749 H 361.833 1.24336 -2.86264 0
M  V30 3750 N 362.134 1.5431 0.320358 0
M  V30 3751 C 363.064 1.86912 1.3995 0
M  V30 3752 C 364.045 0.726211 1.53819 0
M  V30 3753 O 365.23 0.980233 1.67646 0
M  V30 3754 C 362.36 2.09932 2.7667 0
M  V30 3755 C 361.314 3.25776 2.77586 0
M  V30 3756 C 360.64 3.34173 4.17412 0
M  V30 3757 C 361.94 4.6335 2.41048 0
M  V30 3758 H 363.634 2.77292 1.12914 0
M  V30 3759 H 361.18 1.33421 0.541738 0
M  V30 3760 H 363.133 2.31324 3.52232 0
M  V30 3761 H 361.857 1.16304 3.0519 0
M  V30 3762 H 360.516 3.04276 2.04479 0
M  V30 3763 H 360.164 2.38098 4.43078 0
M  V30 3764 H 359.864 4.12033 4.18931 0
M  V30 3765 H 361.388 3.57803 4.94782 0
M  V30 3766 H 362.802 4.84602 3.06324 0
M  V30 3767 H 361.199 5.43782 2.53813 0
M  V30 3768 H 362.269 4.65381 1.36193 0
M  V30 3769 N 363.613 -0.582584 1.46437 0
M  V30 3770 C 364.838 -1.37168 1.55563 0
M  V30 3771 C 365.263 -1.87061 0.19743 0
M  V30 3772 O 364.621 -1.61572 -0.822451 0
M  V30 3773 C 364.669 -2.53511 2.56446 0
M  V30 3774 O 363.773 -3.54953 2.09958 0
M  V30 3775 H 363.114 -0.408494 0.523477 0
M  V30 3776 H 365.644 -0.706646 1.9201 0
M  V30 3777 H 365.654 -3.00426 2.76058 0
M  V30 3778 H 364.329 -2.16549 3.55076 0
M  V30 3779 H 362.906 -3.14516 2.00334 0
M  V30 3780 N 365.091 -1.34144 -0.827227 0
M  V30 3781 C 366.316 -1.29476 -1.62021 0
M  V30 3782 C 366.741 0.129292 -1.87655 0
M  V30 3783 O 366.099 1.08967 -1.449 0
M  V30 3784 C 366.147 -2.08702 -2.94068 0
M  V30 3785 O 365.251 -1.45359 -3.85933 0
M  V30 3786 H 364.592 -0.444881 -0.492927 0
M  V30 3787 H 367.122 -1.76882 -1.02829 0
M  V30 3788 H 367.132 -2.19898 -3.43669 0
M  V30 3789 H 365.807 -3.12241 -2.74734 0
M  V30 3790 H 364.384 -1.42879 -3.44442 0
M  V30 3791 N 366.569 1.04691 -1.17803 0
M  V30 3792 C 367.794 1.81984 -0.994813 0
M  V30 3793 C 368.219 1.82586 0.452112 0
M  V30 3794 O 367.577 1.23854 1.324 0
M  V30 3795 C 367.625 3.2575 -1.54659 0
M  V30 3796 O 366.729 4.05267 -0.763728 0
M  V30 3797 H 366.07 0.562483 -0.352857 0
M  V30 3798 H 368.6 1.3189 -1.56417 0
M  V30 3799 H 368.61 3.76541 -1.57102 0
M  V30 3800 H 367.285 3.24627 -2.59981 0
M  V30 3801 H 365.862 3.63972 -0.811108 0
M  V30 3802 N 368.047 0.979072 1.23499 0
M  V30 3803 C 369.294 0.647219 1.91878 0
M  V30 3804 C 369.622 -0.819074 1.76413 0
M  V30 3805 O 368.877 -1.60616 1.11808 0
M  V30 3806 C 369.176 0.981932 3.43646 0
M  V30 3807 C 368.842 2.43822 3.79291 0
M  V30 3808 C 367.504 2.83622 3.88731 0
M  V30 3809 C 369.856 3.3828 3.96505 0
M  V30 3810 C 367.184 4.16897 4.12812 0
M  V30 3811 C 369.536 4.71197 4.22085 0
M  V30 3812 C 368.2 5.10758 4.29747 0
M  V30 3813 H 367.47 0.236834 0.702133 0
M  V30 3814 H 370.117 1.23268 1.46551 0
M  V30 3815 H 368.422 0.314365 3.90537 0
M  V30 3816 H 370.119 0.703395 3.94783 0
M  V30 3817 H 366.709 2.11966 3.72516 0
M  V30 3818 H 370.893 3.0871 3.88603 0
M  V30 3819 H 366.149 4.47157 4.16966 0
M  V30 3820 H 370.323 5.44348 4.34348 0
M  V30 3821 H 367.95 6.1405 4.48159 0
M  V30 3822 N 369.525 -1.3858 0.750561 0
M  V30 3823 C 370.753 -2.04471 0.316098 0
M  V30 3824 C 371.168 -1.56606 -1.05452 0
M  V30 3825 O 370.525 -0.737784 -1.66922 0
M  V30 3826 C 370.576 -3.60025 0.326275 0
M  V30 3827 O 370.297 -4.06133 1.6428 0
M  V30 3828 C 371.798 -4.43131 -0.122429 0
M  V30 3829 H 369.018 -0.65717 0.135528 0
M  V30 3830 H 371.562 -1.77329 1.01857 0
M  V30 3831 H 369.717 -3.86014 -0.327431 0
M  V30 3832 H 370.131 -5.00547 1.56693 0
M  V30 3833 H 371.605 -5.51963 -0.0641473 0
M  V30 3834 H 372.082 -4.23333 -1.16988 0
M  V30 3835 H 372.688 -4.22323 0.50229 0
M  V30 3836 N 371.003 -0.499398 -1.49478 0
M  V30 3837 C 372.25 0.0456899 -2.02448 0
M  V30 3838 C 372.578 1.37142 -1.37921 0
M  V30 3839 O 371.833 1.89111 -0.503544 0
M  V30 3840 C 372.132 0.248424 -3.56536 0
M  V30 3841 C 371.798 -0.999107 -4.39692 0
M  V30 3842 C 370.46 -1.34108 -4.62135 0
M  V30 3843 C 372.812 -1.82842 -4.88076 0
M  V30 3844 C 370.14 -2.51191 -5.30208 0
M  V30 3845 C 372.492 -2.99076 -5.57437 0
M  V30 3846 C 371.156 -3.33655 -5.78127 0
M  V30 3847 H 370.426 0.0167191 -0.740811 0
M  V30 3848 H 373.073 -0.65923 -1.79795 0
M  V30 3849 H 371.378 1.03586 -3.77859 0
M  V30 3850 H 373.075 0.684605 -3.95113 0
M  V30 3851 H 369.665 -0.722729 -4.22463 0
M  V30 3852 H 373.849 -1.57737 -4.70566 0
M  V30 3853 H 369.105 -2.78221 -5.44429 0
M  V30 3854 H 373.279 -3.63664 -5.93904 0
M  V30 3855 H 370.906 -4.24483 -6.30649 0
M  V30 3856 N 372.481 1.55866 -0.233164 0
M  V30 3857 C 373.729 1.9821 0.394593 0
M  V30 3858 C 374.05 1.12234 1.59463 0
M  V30 3859 O 373.32 0.201981 1.94856 0
M  V30 3860 H 371.9 0.732034 0.148778 0
M  V30 3861 H 374.562 1.92107 -0.32876 0
M  V30 3862 H 373.658 3.03845 0.713063 0
M  V30 3863 N 373.959 -0.0401083 1.57549 0
M  V30 3864 C 375.207 -0.731677 1.8839 0
M  V30 3865 C 375.528 -1.76481 0.829425 0
M  V30 3866 O 374.798 -1.95411 -0.1383 0
M  V30 3867 H 373.378 -0.273225 0.695239 0
M  V30 3868 H 376.04 -0.00867725 1.94898 0
M  V30 3869 H 375.136 -1.22816 2.86919 0
M  V30 3870 N 375.437 -1.54477 -0.31217 0
M  V30 3871 C 376.684 -1.73227 -1.04875 0
M  V30 3872 C 377.012 -0.512042 -1.87639 0
M  V30 3873 O 376.267 0.506131 -1.89042 0
M  V30 3874 C 376.566 -2.967 -1.99258 0
M  V30 3875 C 376.232 -4.30974 -1.32559 0
M  V30 3876 C 374.894 -4.67477 -1.141 0
M  V30 3877 C 377.246 -5.14258 -0.847835 0
M  V30 3878 C 374.574 -5.84852 -0.465326 0
M  V30 3879 C 376.926 -6.32327 -0.185931 0
M  V30 3880 C 375.59 -6.67499 0.0107077 0
M  V30 3881 H 374.86 -0.633881 -0.383765 0
M  V30 3882 H 377.507 -1.88727 -0.324731 0
M  V30 3883 H 375.812 -2.75935 -2.7815 0
M  V30 3884 H 377.509 -3.08401 -2.563 0
M  V30 3885 H 374.099 -4.02262 -1.4793 0
M  V30 3886 H 378.283 -4.86565 -0.978192 0
M  V30 3887 H 373.539 -6.10654 -0.301883 0
M  V30 3888 H 377.713 -6.96135 0.192211 0
M  V30 3889 H 375.34 -7.58306 0.536287 0
M  V30 3890 N 376.915 0.57481 -1.46744 0
M  V30 3891 C 377.847 1.69804 -1.53946 0
M  V30 3892 C 378.86 1.57098 -0.427106 0
M  V30 3893 O 380.049 1.64378 -0.695863 0
M  V30 3894 C 377.149 3.08125 -1.4111 0
M  V30 3895 C 376.322 3.46757 -2.66605 0
M  V30 3896 C 375.381 4.6417 -2.47855 0
M  V30 3897 O 374.407 4.69634 -3.21609 0
M  V30 3898 N 375.609 5.59553 -1.54534 0
M  V30 3899 H 378.374 1.64077 -2.50796 0
M  V30 3900 H 375.935 0.761 -1.429 0
M  V30 3901 H 377.927 3.84478 -1.26328 0
M  V30 3902 H 376.497 3.08175 -0.524109 0
M  V30 3903 H 375.717 2.6003 -2.96274 0
M  V30 3904 H 377.005 3.69337 -3.49954 0
M  V30 3905 H 376.403 5.57881 -0.937304 0
M  V30 3906 H 374.96 6.35304 -1.45711 0
M  V30 3907 N 378.394 1.34581 0.820102 0
M  V30 3908 C 379.64 1.27285 1.57881 0
M  V30 3909 C 379.973 -0.156137 1.93571 0
M  V30 3910 O 379.248 -1.10222 1.60254 0
M  V30 3911 C 379.531 2.16639 2.87645 0
M  V30 3912 C 379.384 3.68088 2.58517 0
M  V30 3913 C 380.703 2.05378 3.8924 0
M  V30 3914 H 377.822 0.463714 0.572833 0
M  V30 3915 H 380.464 1.64859 0.944539 0
M  V30 3916 H 378.614 1.84725 3.41773 0
M  V30 3917 H 380.286 4.10382 2.10676 0
M  V30 3918 H 378.529 3.89038 1.91917 0
M  V30 3919 H 379.2 4.2598 3.51063 0
M  V30 3920 H 381.676 2.33404 3.44473 0
M  V30 3921 H 380.552 2.7012 4.77835 0
M  V30 3922 H 380.813 1.0316 4.29896 0
M  V30 3923 N 379.872 -1.04064 1.18357 0
M  V30 3924 C 381.1 -1.80916 1.00384 0
M  V30 3925 C 381.515 -1.83414 -0.447738 0
M  V30 3926 O 380.872 -1.26962 -1.31099 0
M  V30 3927 C 380.923 -3.26516 1.55144 0
M  V30 3928 O 380.644 -3.2424 2.94618 0
M  V30 3929 C 382.145 -4.20013 1.41789 0
M  V30 3930 H 379.365 -0.569728 0.354474 0
M  V30 3931 H 381.909 -1.31151 1.56906 0
M  V30 3932 H 380.064 -3.73512 1.02798 0
M  V30 3933 H 380.478 -4.15452 3.20156 0
M  V30 3934 H 381.952 -5.20111 1.84901 0
M  V30 3935 H 382.429 -4.37667 0.36661 0
M  V30 3936 H 383.035 -3.78881 1.93207 0
M  V30 3937 N 381.35 -0.985608 -1.22978 0
M  V30 3938 C 382.575 -0.675254 -1.961 0
M  V30 3939 C 383 0.752154 -1.72407 0
M  V30 3940 O 382.358 1.5131 -0.998751 0
M  V30 3941 C 382.406 -0.977899 -3.47087 0
M  V30 3942 O 381.51 -0.072685 -4.12336 0
M  V30 3943 H 380.851 -0.253443 -0.613728 0
M  V30 3944 H 383.381 -1.32061 -1.56272 0
M  V30 3945 H 383.391 -0.916739 -3.97567 0
M  V30 3946 H 382.066 -2.01807 -3.63657 0
M  V30 3947 H 380.643 -0.188703 -3.72422 0
M  V30 3948 N 382.828 1.3818 -0.7579 0
M  V30 3949 C 383.775 2.30416 -0.133057 0
M  V30 3950 C 384.745 1.50398 0.704957 0
M  V30 3951 O 385.93 1.79014 0.660192 0
M  V30 3952 C 383.07 3.36834 0.750813 0
M  V30 3953 C 382.183 4.31879 -0.102297 0
M  V30 3954 C 381.318 5.25368 0.784979 0
M  V30 3955 C 380.357 6.12058 -0.0715046 0
M  V30 3956 N 379.494 6.97832 0.772972 0
M  V30 3957 H 384.334 2.83274 -0.925186 0
M  V30 3958 H 381.871 1.39461 -0.467866 0
M  V30 3959 H 383.829 3.97145 1.27794 0
M  V30 3960 H 382.459 2.85374 1.50868 0
M  V30 3961 H 381.511 3.72991 -0.747095 0
M  V30 3962 H 382.823 4.92921 -0.763552 0
M  V30 3963 H 381.977 5.90818 1.37911 0
M  V30 3964 H 380.716 4.64703 1.47996 0
M  V30 3965 H 379.721 5.456 -0.678272 0
M  V30 3966 H 380.946 6.74793 -0.763606 0
M  V30 3967 H 378.892 6.3971 1.45282 0
M  V30 3968 H 378.809 7.55812 0.168709 0
M  V30 3969 H 380.077 7.67687 1.35194 0
M  V30 3970 N 384.306 0.507319 1.49211 0
M  V30 3971 C 385.554 -0.0348839 2.0207 0
M  V30 3972 C 385.875 -1.36898 1.38866 0
M  V30 3973 O 385.145 -1.88133 0.546151 0
M  V30 3974 H 383.725 -0.0158812 0.746831 0
M  V30 3975 H 386.387 0.665998 1.83168 0
M  V30 3976 H 385.483 -0.159917 3.1169 0
M  V30 3977 N 385.784 -1.5574 0.241426 0
M  V30 3978 C 386.747 -2.19877 -0.647063 0
M  V30 3979 C 387.747 -1.16642 -1.10686 0
M  V30 3980 O 388.937 -1.41757 -1.01245 0
M  V30 3981 C 386.069 -2.83797 -1.88871 0
M  V30 3982 H 387.262 -2.99772 -0.087574 0
M  V30 3983 H 384.815 -1.56298 -0.00813574 0
M  V30 3984 H 385.55 -2.07824 -2.48957 0
M  V30 3985 H 385.335 -3.59414 -1.56728 0
M  V30 3986 H 386.825 -3.32898 -2.52129 0
M  V30 3987 N 387.262 0.0317525 -1.57568 0
M  V30 3988 C 388.192 1.03274 -2.0942 0
M  V30 3989 C 389.173 1.3788 -0.996143 0
M  V30 3990 O 390.358 1.46811 -1.27122 0
M  V30 3991 C 387.488 2.33448 -2.57137 0
M  V30 3992 C 386.442 2.13091 -3.71182 0
M  V30 3993 C 385.768 3.49001 -4.05095 0
M  V30 3994 C 387.068 1.51928 -4.99715 0
M  V30 3995 H 388.762 0.60112 -2.93303 0
M  V30 3996 H 386.308 0.287705 -1.41097 0
M  V30 3997 H 388.261 3.03802 -2.92032 0
M  V30 3998 H 386.985 2.78665 -1.70333 0
M  V30 3999 H 385.644 1.45171 -3.36632 0
M  V30 4000 H 385.292 3.91862 -3.15362 0
M  V30 4001 H 384.992 3.36207 -4.81911 0
M  V30 4002 H 386.516 4.20721 -4.42522 0
M  V30 4003 H 387.93 2.12196 -5.32584 0
M  V30 4004 H 386.327 1.49716 -5.81124 0
M  V30 4005 H 387.397 0.484811 -4.8247 0
M  V30 4006 N 388.74 1.54641 0.303973 0
M  V30 4007 C 389.69 1.8177 1.37636 0
M  V30 4008 C 390.674 0.674697 1.46071 0
M  V30 4009 O 391.866 0.935251 1.50273 0
M  V30 4010 C 388.995 2.06584 2.74186 0
M  V30 4011 C 388.081 3.2706 2.69986 0
M  V30 4012 N 388.472 4.47682 2.35402 0
M  V30 4013 C 386.77 3.29028 3.01092 0
M  V30 4014 C 387.471 5.29689 2.40426 0
M  V30 4015 N 386.447 4.67339 2.7766 0
M  V30 4016 H 390.249 2.72596 1.09857 0
M  V30 4017 H 387.763 1.541 0.51254 0
M  V30 4018 H 389.76 2.24166 3.51504 0
M  V30 4019 H 388.42 1.17024 3.02879 0
M  V30 4020 H 389.431 4.74336 2.07908 0
M  V30 4021 H 386.108 2.49565 3.34699 0
M  V30 4022 H 387.498 6.3606 2.16512 0
M  V30 4023 N 390.218 -0.567019 1.47046 0
M  V30 4024 C 391.165 -1.67489 1.58796 0
M  V30 4025 C 392.135 -1.60399 0.43144 0
M  V30 4026 O 393.32 -1.79378 0.650233 0
M  V30 4027 C 390.46 -3.05821 1.59899 0
M  V30 4028 C 389.573 -3.2342 2.86397 0
M  V30 4029 C 388.708 -4.52093 2.789 0
M  V30 4030 C 387.747 -4.6309 4.00267 0
M  V30 4031 N 386.884 -5.83106 3.91064 0
M  V30 4032 H 391.724 -1.56785 2.53422 0
M  V30 4033 H 389.261 -0.763896 1.2571 0
M  V30 4034 H 391.219 -3.8591 1.58522 0
M  V30 4035 H 389.849 -3.15384 0.687929 0
M  V30 4036 H 388.901 -2.3683 2.97684 0
M  V30 4037 H 390.213 -3.27412 3.76301 0
M  V30 4038 H 389.367 -5.4043 2.75718 0
M  V30 4039 H 388.106 -4.50565 1.86662 0
M  V30 4040 H 387.111 -3.73168 4.03765 0
M  V30 4041 H 388.336 -4.66386 4.93621 0
M  V30 4042 H 386.282 -5.82546 3.01623 0
M  V30 4043 H 386.199 -5.88434 4.74638 0
M  V30 4044 H 387.467 -6.73831 3.91882 0
M  V30 4045 N 391.696 -1.35014 -0.812953 0
M  V30 4046 C 392.924 -1.31031 -1.6012 0
M  V30 4047 C 393.339 0.113558 -1.88458 0
M  V30 4048 O 392.696 1.06363 -1.48301 0
M  V30 4049 C 392.747 -2.10872 -2.93624 0
M  V30 4050 O 392.468 -3.47706 -2.66518 0
M  V30 4051 C 393.969 -2.14401 -3.88004 0
M  V30 4052 H 391.189 -0.45037 -0.497401 0
M  V30 4053 H 393.733 -1.77775 -1.01076 0
M  V30 4054 H 391.888 -1.67744 -3.492 0
M  V30 4055 H 392.302 -3.89097 -3.51715 0
M  V30 4056 H 393.776 -2.74669 -4.78812 0
M  V30 4057 H 394.253 -1.14105 -4.24119 0
M  V30 4058 H 394.859 -2.57662 -3.38364 0
M  V30 4059 N 393.175 1.03435 -1.18907 0
M  V30 4060 C 394.421 1.77005 -0.989798 0
M  V30 4061 C 394.754 1.88205 0.478816 0
M  V30 4062 O 394.029 1.39481 1.35556 0
M  V30 4063 C 394.312 3.19925 -1.65287 0
M  V30 4064 C 394.165 3.1663 -3.19477 0
M  V30 4065 C 395.484 4.18189 -1.37134 0
M  V30 4066 H 392.603 0.642538 -0.360991 0
M  V30 4067 H 395.245 1.20784 -1.46667 0
M  V30 4068 H 393.395 3.67929 -1.24741 0
M  V30 4069 H 395.067 2.76567 -3.692 0
M  V30 4070 H 393.31 2.54491 -3.51307 0
M  V30 4071 H 393.981 4.1758 -3.61013 0
M  V30 4072 H 396.457 3.78761 -1.72276 0
M  V30 4073 H 395.333 5.16394 -1.86087 0
M  V30 4074 H 395.594 4.41112 -0.295424 0
M  V30 4075 N 394.653 0.992116 1.22453 0
M  V30 4076 C 395.585 0.500024 2.23679 0
M  V30 4077 C 396.598 -0.404463 1.57696 0
M  V30 4078 O 397.787 -0.206722 1.77299 0
M  V30 4079 C 394.887 -0.294711 3.37616 0
M  V30 4080 C 394.06 0.605723 4.33186 0
M  V30 4081 C 393.119 -0.13717 5.26021 0
M  V30 4082 O 392.145 0.477164 5.67196 0
M  V30 4083 N 393.347 -1.4197 5.62872 0
M  V30 4084 H 396.112 1.37045 2.66531 0
M  V30 4085 H 393.673 0.866741 1.36745 0
M  V30 4086 H 395.665 -0.800329 3.96707 0
M  V30 4087 H 394.235 -1.06623 2.93854 0
M  V30 4088 H 393.455 1.29202 3.72425 0
M  V30 4089 H 394.743 1.21896 4.93983 0
M  V30 4090 H 394.141 -1.94015 5.31389 0
M  V30 4091 H 392.698 -1.87052 6.24383 0
M  V30 4092 N 396.131 -1.37776 0.765217 0
M  V30 4093 C 397.079 -2.32209 0.134798 0
M  V30 4094 C 398.073 -1.54607 -0.692315 0
M  V30 4095 O 399.279 -1.70052 -0.590109 0
M  V30 4096 H 395.654 -0.751591 0.0248005 0
M  V30 4097 H 397.625 -2.8297 0.947119 0
M  V30 4098 C 396.374 -3.39841 -0.735063 0
M  V30 4099 H 395.697 -3.99654 -0.107991 0
M  V30 4100 H 397.137 -4.08296 -1.14326 0
M  V30 4101 C 395.596 -2.79378 -1.88281 0
M  V30 4102 O 396.126 -2.69608 -2.97783 0
M  V30 4103 N 394.332 -2.37016 -1.68142 0
M  V30 4104 H 393.879 -2.45162 -0.790772 0
M  V30 4105 H 393.837 -1.96905 -2.45104 0
M  V30 4106 N 397.609 -0.515225 -1.4894 0
M  V30 4107 C 398.539 0.244628 -2.32215 0
M  V30 4108 C 399.52 0.949136 -1.41157 0
M  V30 4109 O 400.705 0.937783 -1.70057 0
M  V30 4110 C 397.835 1.30096 -3.22013 0
M  V30 4111 C 396.789 0.715486 -4.21977 0
M  V30 4112 C 396.115 1.87339 -5.00808 0
M  V30 4113 C 397.415 -0.302982 -5.2142 0
M  V30 4114 H 399.109 -0.450501 -2.95991 0
M  V30 4115 H 396.655 -0.218098 -1.42339 0
M  V30 4116 H 398.608 1.84037 -3.79089 0
M  V30 4117 H 397.332 2.02547 -2.56207 0
M  V30 4118 H 395.991 0.197715 -3.66066 0
M  V30 4119 H 395.639 2.58592 -4.31438 0
M  V30 4120 H 395.339 1.48764 -5.68457 0
M  V30 4121 H 396.863 2.41686 -5.60732 0
M  V30 4122 H 398.277 0.148802 -5.73107 0
M  V30 4123 H 396.674 -0.60532 -5.97039 0
M  V30 4124 H 397.744 -1.21395 -4.69459 0
M  V30 4125 N 399.087 1.5561 -0.249682 0
M  V30 4126 C 400.333 1.99306 0.374841 0
M  V30 4127 C 400.666 1.13767 1.57387 0
M  V30 4128 O 399.941 0.201711 1.93451 0
M  V30 4129 C 400.224 3.51507 0.781986 0
M  V30 4130 C 400.077 4.4781 -0.422629 0
M  V30 4131 C 401.396 4.08884 1.62793 0
M  V30 4132 H 398.515 0.724572 0.134773 0
M  V30 4133 H 401.157 1.86719 -0.351549 0
M  V30 4134 H 399.307 3.62363 1.4009 0
M  V30 4135 H 400.979 4.48931 -1.06108 0
M  V30 4136 H 399.222 4.20518 -1.06524 0
M  V30 4137 H 399.893 5.51919 -0.0943766 0
M  V30 4138 H 402.369 4.01147 1.10547 0
M  V30 4139 H 401.245 5.1564 1.88166 0
M  V30 4140 H 401.506 3.57515 2.60068 0
M  V30 4141 N 400.565 -0.0233959 1.57583 0
M  V30 4142 C 401.812 -0.713063 1.8953 0
M  V30 4143 C 402.14 -1.75056 0.847673 0
M  V30 4144 O 401.395 -1.95119 -0.150636 0
M  V30 4145 C 401.694 -1.41428 3.28227 0
M  V30 4146 C 401.36 -0.512222 4.47981 0
M  V30 4147 C 400.022 -0.263785 4.80476 0
M  V30 4148 C 402.374 0.110248 5.21083 0
M  V30 4149 C 399.702 0.615804 5.83459 0
M  V30 4150 C 402.054 0.977573 6.25001 0
M  V30 4151 C 400.718 1.23542 6.55968 0
M  V30 4152 H 399.988 -0.260928 0.69354 0
M  V30 4153 H 402.635 0.0271047 1.91481 0
M  V30 4154 H 400.94 -2.22791 3.22291 0
M  V30 4155 H 402.637 -1.95355 3.50196 0
M  V30 4156 H 399.227 -0.716013 4.22577 0
M  V30 4157 H 403.411 -0.0687137 4.96252 0
M  V30 4158 H 398.667 0.82382 6.05824 0
M  V30 4159 H 402.841 1.46638 6.80786 0
M  V30 4160 H 400.468 1.91871 7.35588 0
M  V30 4161 N 402.043 -1.548 -0.295768 0
M  V30 4162 C 403.268 -1.78653 -1.05346 0
M  V30 4163 C 403.693 -0.546894 -1.79974 0
M  V30 4164 O 403.051 0.502763 -1.7419 0
M  V30 4165 C 403.099 -2.99679 -2.00561 0
M  V30 4166 O 402.203 -2.7317 -3.08953 0
M  V30 4167 H 401.544 -0.59116 -0.302367 0
M  V30 4168 H 404.074 -2.01895 -0.331598 0
M  V30 4169 H 404.084 -3.27793 -2.42932 0
M  V30 4170 H 402.759 -3.89562 -1.4565 0
M  V30 4171 H 401.336 -2.56089 -2.71059 0
M  V30 4172 N 403.521 0.559213 -1.47345 0
M  V30 4173 C 404.468 1.66645 -1.59682 0
M  V30 4174 C 405.438 1.60168 -0.43994 0
M  V30 4175 O 406.623 1.79031 -0.659736 0
M  V30 4176 C 403.763 3.04969 -1.61518 0
M  V30 4177 C 402.876 3.21897 -2.88108 0
M  V30 4178 C 402.011 4.50608 -2.81294 0
M  V30 4179 C 401.05 4.60961 -4.02717 0
M  V30 4180 N 400.187 5.81024 -3.94151 0
M  V30 4181 H 405.027 1.55439 -2.54249 0
M  V30 4182 H 402.564 0.757219 -1.26113 0
M  V30 4183 H 404.522 3.85064 -1.60566 0
M  V30 4184 H 403.152 3.15015 -0.704645 0
M  V30 4185 H 402.204 2.35248 -2.98936 0
M  V30 4186 H 403.516 3.25412 -3.78032 0
M  V30 4187 H 402.67 5.3896 -2.7858 0
M  V30 4188 H 401.409 4.49568 -1.89049 0
M  V30 4189 H 400.414 3.71021 -4.05738 0
M  V30 4190 H 401.639 4.63761 -4.96087 0
M  V30 4191 H 399.585 5.80938 -3.04708 0
M  V30 4192 H 399.502 5.85909 -4.77752 0
M  V30 4193 H 400.77 6.71744 -3.9545 0
M  V30 4194 N 404.999 1.35443 0.805782 0
M  V30 4195 C 405.962 1.28301 1.89925 0
M  V30 4196 C 406.962 0.194285 1.59622 0
M  V30 4197 O 408.152 0.448036 1.6834 0
M  V30 4198 C 405.284 0.984997 3.2636 0
M  V30 4199 H 406.477 2.2553 1.97677 0
M  V30 4200 H 404.03 1.19979 1.00173 0
M  V30 4201 H 404.765 0.016603 3.24296 0
M  V30 4202 H 404.55 1.77269 3.4974 0
M  V30 4203 H 406.04 0.960651 4.064 0
M  V30 4204 N 406.477 -1.02803 1.19454 0
M  V30 4205 C 407.754 -1.73299 0.907013 0
M  V30 4206 C 408.134 -2.02772 -0.587086 0
M  V30 4207 O 407.482 -1.68304 -1.54551 0
M  V30 4208 C 407.692 -3.00912 1.76785 0
M  V30 4209 C 409.04 -3.74403 2.00268 0
M  V30 4210 O 410.064 -3.10841 1.73943 0
M  V30 4211 O 408.923 -4.88675 2.4466 0
M  V30 4212 H 406.017 -0.754727 0.338106 0
M  V30 4213 H 408.563 -1.08754 1.30271 0
M  V30 4214 H 407.335 -2.75366 2.7801 0
M  V30 4215 H 406.958 -3.73197 1.37149 0
M  V30 4216 N 407.956 -0.998596 -1.21925 0
M  V30 4217 C 408.888 -0.511879 -2.23411 0
M  V30 4218 C 409.901 0.396094 -1.57908 0
M  V30 4219 O 411.09 0.197316 -1.77406 0
M  V30 4220 C 408.19 0.276802 -3.37768 0
M  V30 4221 C 407.363 -0.628687 -4.32858 0
M  V30 4222 C 406.422 0.109272 -5.26087 0
M  V30 4223 O 405.448 -0.507237 -5.66935 0
M  V30 4224 N 406.65 1.38983 -5.63617 0
M  V30 4225 H 409.415 -1.38457 -2.658 0
M  V30 4226 H 406.976 -0.873981 -1.36283 0
M  V30 4227 H 408.968 0.77928 -3.97126 0
M  V30 4228 H 407.538 1.05063 -2.94415 0
M  V30 4229 H 406.758 -1.31175 -3.71735 0
M  V30 4230 H 408.046 -1.24514 -4.93329 0
M  V30 4231 H 407.444 1.91194 -5.32411 0
M  V30 4232 H 406.001 1.83739 -6.25367 0
M  V30 4233 N 409.434 1.37368 -0.772513 0
M  V30 4234 C 410.659 2.0447 -0.347386 0
M  V30 4235 C 411.084 1.57882 1.0225 0
M  V30 4236 O 410.442 0.73941 1.65537 0
M  V30 4237 C 410.49 3.58369 -0.400479 0
M  V30 4238 O 409.594 4.0803 0.598789 0
M  V30 4239 H 408.935 0.646773 -0.15027 0
M  V30 4240 H 411.465 1.75667 -1.04892 0
M  V30 4241 H 411.475 4.07183 -0.258045 0
M  V30 4242 H 410.15 3.91633 -1.39986 0
M  V30 4243 H 408.727 3.70534 0.419411 0
M  V30 4244 N 410.912 0.523116 1.48665 0
M  V30 4245 C 411.822 -0.247406 2.33292 0
M  V30 4246 C 412.838 -0.945769 1.46052 0
M  V30 4247 O 414.014 -0.922253 1.79043 0
M  V30 4248 C 411.079 -1.28487 3.22012 0
M  V30 4249 C 410.14 -0.597592 4.2512 0
M  V30 4250 C 409.373 -1.58563 5.09601 0
M  V30 4251 O 409.596 -2.81763 4.95949 0
M  V30 4252 O 408.53 -1.12879 5.91221 0
M  V30 4253 H 412.356 0.445869 3.00409 0
M  V30 4254 H 409.941 0.284128 1.46673 0
M  V30 4255 H 411.823 -1.88459 3.7691 0
M  V30 4256 H 410.498 -1.96068 2.57564 0
M  V30 4257 H 409.405 0.0424407 3.74076 0
M  V30 4258 H 410.738 0.0361517 4.92187 0
M  V30 4259 N 412.39 -1.55475 0.257931 0
M  V30 4260 C 413.636 -1.99502 -0.364266 0
M  V30 4261 C 413.969 -1.146 -1.56782 0
M  V30 4262 O 413.244 -0.211968 -1.93342 0
M  V30 4263 C 413.527 -3.51917 -0.763333 0
M  V30 4264 C 413.38 -4.4758 0.446371 0
M  V30 4265 C 414.699 -4.09742 -1.60623 0
M  V30 4266 H 411.818 -0.725277 -0.130929 0
M  V30 4267 H 414.46 -1.8653 0.361446 0
M  V30 4268 H 412.61 -3.63101 -1.38166 0
M  V30 4269 H 414.282 -4.48362 1.08487 0
M  V30 4270 H 412.525 -4.19947 1.08753 0
M  V30 4271 H 413.196 -5.51862 0.123645 0
M  V30 4272 H 415.672 -4.01727 -1.08418 0
M  V30 4273 H 414.548 -5.16631 -1.85429 0
M  V30 4274 H 414.809 -3.58889 -2.58169 0
M  V30 4275 N 413.868 0.0150385 -1.57593 0
M  V30 4276 C 414.815 1.01126 -2.07466 0
M  V30 4277 C 415.785 1.35064 -0.966794 0
M  V30 4278 O 416.97 1.4516 -1.23827 0
M  V30 4279 C 414.11 2.30276 -2.57035 0
M  V30 4280 C 413.223 2.02373 -3.81666 0
M  V30 4281 C 412.358 3.25496 -4.19793 0
M  V30 4282 C 411.397 2.93211 -5.37303 0
M  V30 4283 N 410.534 4.08826 -5.70794 0
M  V30 4284 H 415.374 0.57901 -2.92321 0
M  V30 4285 H 412.911 0.27426 -1.44521 0
M  V30 4286 H 414.869 3.05757 -2.83846 0
M  V30 4287 H 413.499 2.71197 -1.75077 0
M  V30 4288 H 412.551 1.17327 -3.61854 0
M  V30 4289 H 413.863 1.74567 -4.67256 0
M  V30 4290 H 413.017 4.09333 -4.47807 0
M  V30 4291 H 411.756 3.56428 -3.32882 0
M  V30 4292 H 410.761 2.07777 -5.09027 0
M  V30 4293 H 411.986 2.63542 -6.25877 0
M  V30 4294 H 409.932 4.39682 -4.86842 0
M  V30 4295 H 409.849 3.84491 -6.50924 0
M  V30 4296 H 411.117 4.93496 -6.03392 0
M  V30 4297 N 415.346 1.54954 0.287554 0
M  V30 4298 C 416.276 1.89839 1.35954 0
M  V30 4299 C 417.257 0.758675 1.52244 0
M  V30 4300 O 418.442 1.01557 1.65529 0
M  V30 4301 C 415.572 2.15753 2.72154 0
M  V30 4302 C 414.526 3.3159 2.70614 0
M  V30 4303 C 413.852 3.42952 4.10229 0
M  V30 4304 C 415.152 4.68359 2.31165 0
M  V30 4305 H 416.846 2.79625 1.07007 0
M  V30 4306 H 414.392 1.3454 0.513316 0
M  V30 4307 H 416.345 2.38743 3.47246 0
M  V30 4308 H 415.069 1.22752 3.02654 0
M  V30 4309 H 413.728 3.08545 1.97979 0
M  V30 4310 H 413.376 2.47443 4.37928 0
M  V30 4311 H 413.076 4.20826 4.10097 0
M  V30 4312 H 414.6 3.68218 4.87081 0
M  V30 4313 H 416.014 4.9099 2.95976 0
M  V30 4314 H 414.411 5.49044 2.42221 0
M  V30 4315 H 415.481 4.68165 1.26291 0
M  V30 4316 N 416.824 -0.551391 1.4764 0
M  V30 4317 C 418.049 -1.33837 1.58437 0
M  V30 4318 C 418.474 -1.866 0.237063 0
M  V30 4319 O 417.832 -1.6328 -0.787994 0
M  V30 4320 C 417.88 -2.48014 2.61766 0
M  V30 4321 O 416.984 -3.50419 2.1744 0
M  V30 4322 H 416.325 -0.397299 0.532024 0
M  V30 4323 H 418.855 -0.665759 1.93465 0
M  V30 4324 H 418.865 -2.94503 2.82369 0
M  V30 4325 H 417.54 -2.08969 3.5959 0
M  V30 4326 H 416.117 -3.10196 2.06961 0
M  V30 4327 N 418.302 -1.35869 -0.798587 0
M  V30 4328 C 419.548 -1.2978 -1.55836 0
M  V30 4329 C 419.881 0.125322 -1.93795 0
M  V30 4330 O 419.156 1.07658 -1.61987 0
M  V30 4331 C 419.439 -2.21188 -2.84162 0
M  V30 4332 C 419.292 -3.72155 -2.52628 0
M  V30 4333 C 420.611 -2.11545 -3.85923 0
M  V30 4334 H 417.73 -0.472769 -0.565383 0
M  V30 4335 H 420.372 -1.66341 -0.918192 0
M  V30 4336 H 418.522 -1.90139 -3.38791 0
M  V30 4337 H 420.194 -4.13682 -2.04121 0
M  V30 4338 H 418.437 -3.92042 -1.85704 0
M  V30 4339 H 419.108 -4.31511 -3.44242 0
M  V30 4340 H 421.584 -2.38855 -3.40716 0
M  V30 4341 H 420.46 -2.77688 -4.73477 0
M  V30 4342 H 420.721 -1.09987 -4.282 0
M  V30 4343 N 419.78 1.02168 -1.19998 0
M  V30 4344 C 420.71 2.12488 -0.96804 0
M  V30 4345 C 421.691 1.69799 0.101185 0
M  V30 4346 O 422.876 1.94121 -0.0552993 0
M  V30 4347 C 420.006 3.43479 -0.513776 0
M  V30 4348 C 418.96 3.99884 -1.52566 0
M  V30 4349 C 418.286 5.26582 -0.928214 0
M  V30 4350 C 419.586 4.33861 -2.90795 0
M  V30 4351 H 421.28 2.32149 -1.89069 0
M  V30 4352 H 418.826 1.11564 -0.910468 0
M  V30 4353 H 420.779 4.20036 -0.338774 0
M  V30 4354 H 419.503 3.23561 0.444493 0
M  V30 4355 H 418.162 3.25429 -1.68794 0
M  V30 4356 H 417.81 5.02986 0.0378289 0
M  V30 4357 H 417.51 5.65284 -1.60397 0
M  V30 4358 H 419.034 6.05799 -0.764167 0
M  V30 4359 H 420.448 5.01327 -2.78109 0
M  V30 4360 H 418.845 4.83664 -3.55231 0
M  V30 4361 H 419.915 3.42848 -3.42904 0
M  V30 4362 N 421.258 1.00505 1.21394 0
M  V30 4363 C 422.483 0.706367 1.95001 0
M  V30 4364 C 422.908 -0.72463 1.73582 0
M  V30 4365 O 422.266 -1.49702 1.0227 0
M  V30 4366 C 422.314 1.03299 3.45487 0
M  V30 4367 O 421.418 0.138275 4.12168 0
M  V30 4368 H 420.759 0.263175 0.609619 0
M  V30 4369 H 423.289 1.34531 1.54151 0
M  V30 4370 H 423.299 0.979872 3.96059 0
M  V30 4371 H 421.974 2.07567 3.60401 0
M  V30 4372 H 420.551 0.247928 3.72075 0
M  V30 4373 N 422.737 -1.36956 0.779787 0
M  V30 4374 C 423.962 -2.04283 0.358224 0
M  V30 4375 C 424.387 -1.58422 -1.01411 0
M  V30 4376 O 423.745 -0.748179 -1.65142 0
M  V30 4377 C 423.793 -3.58152 0.419479 0
M  V30 4378 O 422.897 -4.08342 -0.577142 0
M  V30 4379 H 422.238 -0.645967 0.153698 0
M  V30 4380 H 424.768 -1.75108 1.05822 0
M  V30 4381 H 424.778 -4.07041 0.279636 0
M  V30 4382 H 423.453 -3.90886 1.42061 0
M  V30 4383 H 422.03 -3.70751 -0.399755 0
M  V30 4384 N 424.215 -0.530993 -1.48385 0
M  V30 4385 C 425.463 0.00273189 -2.021 0
M  V30 4386 C 425.784 1.34672 -1.41027 0
M  V30 4387 O 425.054 1.8724 -0.576012 0
M  V30 4388 H 423.634 0.00399774 -0.746989 0
M  V30 4389 H 426.296 -0.695054 -1.82085 0
M  V30 4390 H 425.392 0.11031 -3.11905 0
M  V30 4391 N 425.693 1.55336 -0.266172 0
M  V30 4392 C 426.933 2.01303 0.354459 0
M  V30 4393 C 427.297 1.15046 1.53715 0
M  V30 4394 O 428.498 1.50554 2.22681 0
M  V30 4395 C 426.769 3.49748 0.735579 0
M  V30 4396 S 428.328 4.1771 1.34401 0
M  V30 4397 H 425.146 0.702333 0.110674 0
M  V30 4398 H 427.748 1.91653 -0.385916 0
M  V30 4399 H 426.452 4.10181 -0.134196 0
M  V30 4400 H 425.983 3.63364 1.50764 0
M  V30 4401 H 427.998 4.20594 2.63278 0
M  V30 4402 N 427.171 -0.0066808 1.57599 0
M  V30 4403 C 428.587 -0.36267 1.55425 0
M  V30 4404 C 428.787 -1.75209 0.995187 0
M  V30 4405 O 427.843 -2.44616 0.626058 0
M  V30 4406 C 429.156 -0.244017 2.99708 0
M  V30 4407 C 430.704 -0.319451 3.11366 0
M  V30 4408 C 431.179 -0.229998 4.57422 0
M  V30 4409 N 432.67 -0.288105 4.62303 0
M  V30 4410 C 433.405 -0.242127 5.72889 0
M  V30 4411 N 432.901 -0.147133 6.92644 0
M  V30 4412 N 434.694 -0.293502 5.61333 0
M  V30 4413 H 426.845 0.902314 1.92281 0
M  V30 4414 H 429.108 0.34525 0.882896 0
M  V30 4415 H 428.814 0.711678 3.44424 0
M  V30 4416 H 428.688 -1.02877 3.629 0
M  V30 4417 H 431.075 -1.26559 2.66584 0
M  V30 4418 H 431.156 0.495055 2.50964 0
M  V30 4419 H 430.8 0.712566 5.02877 0
M  V30 4420 H 430.73 -1.0629 5.15761 0
M  V30 4421 H 433.221 -0.363126 3.76151 0
M  V30 4422 H 433.534 -0.117763 7.7271 0
M  V30 4423 H 431.879 -0.112857 6.94908 0
M  V30 4424 H 435.07 -0.365864 4.66668 0
M  V30 4425 H 435.243 -0.254204 6.47501 0
M  V30 4426 N 428.649 -1.55105 -0.279332 0
M  V30 4427 C 429.879 -1.7917 -1.02867 0
M  V30 4428 C 430.287 -0.56204 -1.80659 0
M  V30 4429 O 429.63 0.478266 -1.77365 0
M  V30 4430 C 429.692 -2.96061 -2.03932 0
M  V30 4431 C 429.356 -4.33341 -1.45137 0
M  V30 4432 C 430.353 -5.12565 -0.870266 0
M  V30 4433 C 428.038 -4.79987 -1.48048 0
M  V30 4434 C 430.032 -6.36565 -0.326097 0
M  V30 4435 C 427.719 -6.03944 -0.932443 0
M  V30 4436 C 428.717 -6.8207 -0.356247 0
M  V30 4437 O 428.405 -8.03691 0.183412 0
M  V30 4438 H 428.137 -0.600796 -0.309872 0
M  V30 4439 H 430.691 -2.02932 -0.317468 0
M  V30 4440 H 428.921 -2.67975 -2.78794 0
M  V30 4441 H 430.61 -3.07506 -2.64943 0
M  V30 4442 H 431.376 -4.77661 -0.840521 0
M  V30 4443 H 427.255 -4.1919 -1.91835 0
M  V30 4444 H 430.799 -6.97489 0.124286 0
M  V30 4445 H 426.696 -6.3833 -0.959407 0
M  V30 4446 H 427.464 -8.18468 0.0721681 0
M  V30 4447 N 430.127 0.543554 -1.4793 0
M  V30 4448 C 431.059 1.665 -1.57513 0
M  V30 4449 C 432.072 1.56156 -0.460333 0
M  V30 4450 O 433.261 1.62865 -0.730573 0
M  V30 4451 C 430.361 3.05063 -1.47614 0
M  V30 4452 C 429.534 3.41024 -2.739 0
M  V30 4453 C 428.593 4.58809 -2.57645 0
M  V30 4454 O 427.619 4.62707 -3.31498 0
M  V30 4455 N 428.821 5.56149 -1.66368 0
M  V30 4456 H 431.586 1.5872 -2.5422 0
M  V30 4457 H 429.147 0.730517 -1.44482 0
M  V30 4458 H 431.139 3.81712 -1.34455 0
M  V30 4459 H 429.709 3.06994 -0.589359 0
M  V30 4460 H 428.929 2.53687 -3.01723 0
M  V30 4461 H 430.217 3.61831 -3.57709 0
M  V30 4462 H 429.615 5.55767 -1.05543 0
M  V30 4463 H 428.172 6.32071 -1.59154 0
M  V30 4464 N 431.605 1.3629 0.791371 0
M  V30 4465 C 432.515 1.32606 1.93527 0
M  V30 4466 C 433.531 0.228541 1.72493 0
M  V30 4467 O 434.707 0.460571 1.96063 0
M  V30 4468 C 431.772 1.11271 3.28359 0
M  V30 4469 C 430.833 2.3048 3.62185 0
M  V30 4470 C 430.066 2.10154 4.90583 0
M  V30 4471 O 430.289 1.07572 5.60165 0
M  V30 4472 O 429.223 2.97884 5.23019 0
M  V30 4473 H 433.049 2.28909 1.99585 0
M  V30 4474 H 430.634 1.16818 0.931344 0
M  V30 4475 H 432.516 1.01283 4.09047 0
M  V30 4476 H 431.191 0.180292 3.23198 0
M  V30 4477 H 430.098 2.46036 2.81811 0
M  V30 4478 H 431.431 3.22221 3.72068 0
M  V30 4479 N 433.083 -1.0153 1.20538 0
M  V30 4480 C 434.331 -1.74803 1.01432 0
M  V30 4481 C 434.652 -1.8963 -0.454456 0
M  V30 4482 O 433.922 -1.43975 -1.32846 0
M  V30 4483 H 432.502 -0.647598 0.372324 0
M  V30 4484 H 435.164 -1.22402 1.5167 0
M  V30 4485 H 434.26 -2.75114 1.47373 0
M  V30 4486 N 434.561 -1.01147 -1.20859 0
M  V30 4487 C 435.972 -0.730205 -1.71828 0
M  V30 4488 C 436.323 0.751662 -1.8123 0
M  V30 4489 O 435.448 1.58686 -1.47132 0
M  V30 4490 C 436.043 -1.31885 -3.12077 0
M  V30 4491 C 434.602 -1.08656 -3.60376 0
M  V30 4492 C 433.749 -1.42769 -2.37723 0
M  V30 4493 H 436.7 -1.18158 -1.05945 0
M  V30 4494 H 436.721 -0.706793 -3.73878 0
M  V30 4495 H 436.233 -2.39737 -3.05201 0
M  V30 4496 H 434.334 -0.0254814 -3.72591 0
M  V30 4497 H 434.447 -1.76301 -4.45483 0
M  V30 4498 H 432.811 -0.846603 -2.40218 0
M  V30 4499 H 433.594 -2.51666 -2.33493 0
M  V30 4500 N 436.039 1.36541 -0.78704 0
M  V30 4501 C 437.285 1.99599 -0.358872 0
M  V30 4502 C 437.618 1.62323 1.06606 0
M  V30 4503 O 436.893 0.876858 1.73613 0
M  V30 4504 C 437.176 3.56327 -0.519944 0
M  V30 4505 C 437.029 4.03464 -1.98839 0
M  V30 4506 C 438.348 4.4005 0.0664737 0
M  V30 4507 H 435.467 0.725107 -0.131869 0
M  V30 4508 H 438.109 1.6199 -0.992936 0
M  V30 4509 H 436.259 3.88495 0.0198321 0
M  V30 4510 H 437.931 3.81793 -2.58905 0
M  V30 4511 H 436.174 3.55092 -2.49183 0
M  V30 4512 H 436.845 5.12439 -2.05207 0
M  V30 4513 H 439.321 4.14228 -0.394267 0
M  V30 4514 H 438.197 5.48847 -0.0762682 0
M  V30 4515 H 438.458 4.26655 1.15835 0
M  V30 4516 N 437.518 0.538854 1.48102 0
M  V30 4517 C 438.934 0.19732 1.58376 0
M  V30 4518 C 439.134 -1.29971 1.5398 0
M  V30 4519 O 438.19 -2.07861 1.43352 0
M  V30 4520 C 439.503 0.807716 2.89649 0
M  V30 4521 C 441.051 0.77726 3.03196 0
M  V30 4522 C 441.526 1.36639 4.37143 0
M  V30 4523 N 443.017 1.32875 4.43732 0
M  V30 4524 C 443.752 1.7544 5.45901 0
M  V30 4525 N 443.248 2.25776 6.54979 0
M  V30 4526 N 445.041 1.66623 5.36836 0
M  V30 4527 H 437.192 1.5117 1.49202 0
M  V30 4528 H 439.455 0.629327 0.708979 0
M  V30 4529 H 439.161 1.85909 2.98548 0
M  V30 4530 H 439.035 0.289975 3.76084 0
M  V30 4531 H 441.422 -0.265374 2.93904 0
M  V30 4532 H 441.503 1.33256 2.18349 0
M  V30 4533 H 441.147 2.408 4.47189 0
M  V30 4534 H 441.077 0.786689 5.20691 0
M  V30 4535 H 443.568 0.96037 3.65493 0
M  V30 4536 H 443.881 2.56226 7.29087 0
M  V30 4537 H 442.226 2.29775 6.55918 0
M  V30 4538 H 445.417 1.27089 4.50517 0
M  V30 4539 H 445.59 2.00115 6.16326 0
M  V30 4540 N 438.996 -1.55193 0.274407 0
M  V30 4541 C 439.926 -2.25471 -0.607032 0
M  V30 4542 C 440.907 -1.24461 -1.15946 0
M  V30 4543 O 442.092 -1.53179 -1.19373 0
M  V30 4544 C 439.222 -2.97526 -1.79153 0
M  V30 4545 C 438.176 -4.05459 -1.37067 0
M  V30 4546 C 437.502 -4.65084 -2.6382 0
M  V30 4547 C 438.802 -5.19691 -0.521389 0
M  V30 4548 H 440.496 -2.99393 -0.0209343 0
M  V30 4549 H 438.042 -1.43997 -0.00862866 0
M  V30 4550 H 439.995 -3.45402 -2.41404 0
M  V30 4551 H 438.719 -2.21138 -2.40344 0
M  V30 4552 H 437.378 -3.58393 -0.771355 0
M  V30 4553 H 437.026 -3.85365 -3.23268 0
M  V30 4554 H 436.726 -5.37961 -2.36372 0
M  V30 4555 H 438.25 -5.15708 -3.26921 0
M  V30 4556 H 439.664 -5.63623 -1.04889 0
M  V30 4557 H 438.061 -5.99126 -0.341825 0
M  V30 4558 H 439.131 -4.82713 0.46 0
M  V30 4559 N 440.474 -0.00167713 -1.576 0
M  V30 4560 C 441.699 0.69739 -1.95323 0
M  V30 4561 C 442.124 1.6642 -0.876706 0
M  V30 4562 O 441.482 1.80548 0.165007 0
M  V30 4563 C 441.53 1.40403 -3.32144 0
M  V30 4564 O 440.634 2.5185 -3.26566 0
M  V30 4565 H 439.975 0.185373 -0.637599 0
M  V30 4566 H 442.505 -0.0553665 -2.04525 0
M  V30 4567 H 442.515 1.76707 -3.67748 0
M  V30 4568 H 441.19 0.695167 -4.10049 0
M  V30 4569 H 439.767 2.17861 -3.0264 0
M  V30 4570 N 441.952 1.55251 0.271103 0
M  V30 4571 C 443.363 1.66635 0.842007 0
M  V30 4572 C 443.714 0.594631 1.86972 0
M  V30 4573 O 442.839 -0.263532 2.14789 0
M  V30 4574 C 443.434 3.02082 1.53401 0
M  V30 4575 C 441.993 3.15487 2.05293 0
M  V30 4576 C 441.14 2.62438 0.895631 0
M  V30 4577 H 444.091 1.58629 0.0474117 0
M  V30 4578 H 444.112 2.95176 2.40107 0
M  V30 4579 H 443.624 3.80062 0.785786 0
M  V30 4580 H 441.725 2.42284 2.83071 0
M  V30 4581 H 441.838 4.22075 2.26693 0
M  V30 4582 H 440.202 2.19644 1.28953 0
M  V30 4583 H 440.985 3.42923 0.160878 0
M  V30 4584 N 443.43 -0.535701 1.48216 0
M  V30 4585 C 444.678 -1.28928 1.55634 0
M  V30 4586 C 444.999 -1.93645 0.229514 0
M  V30 4587 O 444.269 -1.81038 -0.74846 0
M  V30 4588 H 442.849 -0.47884 0.573342 0
M  V30 4589 H 445.511 -0.623853 1.84646 0
M  V30 4590 H 444.607 -2.07157 2.33436 0
M  V30 4591 N 444.908 -1.36708 -0.784132 0
M  V30 4592 C 446.324 -1.17237 -1.08294 0
M  V30 4593 C 446.524 -5.93947e-05 -2.015 0
M  V30 4594 O 445.58 0.663686 -2.43622 0
M  V30 4595 C 446.893 -2.48557 -1.69233 0
M  V30 4596 C 448.441 -2.54968 -1.8155 0
M  V30 4597 C 448.916 -3.86388 -2.45904 0
M  V30 4598 N 450.407 -3.87762 -2.53367 0
M  V30 4599 C 451.142 -4.86191 -3.03983 0
M  V30 4600 N 450.638 -5.95015 -3.54866 0
M  V30 4601 N 452.431 -4.73606 -3.02743 0
M  V30 4602 H 444.582 -2.11758 -0.16501 0
M  V30 4603 H 446.845 -0.93822 -0.135822 0
M  V30 4604 H 446.551 -3.34638 -1.08215 0
M  V30 4605 H 446.425 -2.64748 -2.68679 0
M  V30 4606 H 448.812 -1.69302 -2.41704 0
M  V30 4607 H 448.893 -2.42672 -0.80895 0
M  V30 4608 H 448.537 -4.72462 -1.86392 0
M  V30 4609 H 448.467 -3.95982 -3.4714 0
M  V30 4610 H 450.958 -3.09145 -2.17343 0
M  V30 4611 H 451.271 -6.66086 -3.91854 0
M  V30 4612 H 449.616 -5.98676 -3.53003 0
M  V30 4613 H 452.807 -3.87717 -2.62284 0
M  V30 4614 H 452.98 -5.50473 -3.41881 0
M  V30 4615 N 446.386 1.0089 -1.21074 0
M  V30 4616 C 447.316 2.1145 -0.990523 0
M  V30 4617 C 448.297 1.69897 0.0831699 0
M  V30 4618 O 449.482 1.94052 -0.0758853 0
M  V30 4619 C 446.612 3.42914 -0.550177 0
M  V30 4620 C 445.566 3.98244 -1.56799 0
M  V30 4621 C 444.892 5.25568 -0.984013 0
M  V30 4622 C 446.192 4.30752 -2.95381 0
M  V30 4623 H 447.886 2.3013 -1.91521 0
M  V30 4624 H 445.432 1.10592 -0.92225 0
M  V30 4625 H 447.385 4.19653 -0.383305 0
M  V30 4626 H 446.109 3.24014 0.41015 0
M  V30 4627 H 444.768 3.23621 -1.72236 0
M  V30 4628 H 444.416 5.02998 -0.0155216 0
M  V30 4629 H 444.116 5.63551 -1.66384 0
M  V30 4630 H 445.64 6.04955 -0.828378 0
M  V30 4631 H 447.054 4.98349 -2.8341 0
M  V30 4632 H 445.451 4.79869 -3.60341 0
M  V30 4633 H 446.521 3.39192 -3.46521 0
M  V30 4634 N 447.864 1.01787 1.20321 0
M  V30 4635 C 448.796 0.547357 2.22568 0
M  V30 4636 C 449.809 -0.370922 1.58518 0
M  V30 4637 O 450.998 -0.169067 1.77698 0
M  V30 4638 C 448.098 -0.223031 3.38165 0
M  V30 4639 C 447.271 0.697472 4.31803 0
M  V30 4640 C 446.33 -0.025562 5.26194 0
M  V30 4641 O 445.356 0.597367 5.66057 0
M  V30 4642 N 446.558 -1.29999 5.65757 0
M  V30 4643 H 449.323 1.42668 2.63564 0
M  V30 4644 H 446.884 0.895552 1.34876 0
M  V30 4645 H 448.876 -0.716002 3.98316 0
M  V30 4646 H 447.446 -1.00366 2.9605 0
M  V30 4647 H 446.666 1.37073 3.69601 0
M  V30 4648 H 447.954 1.32347 4.91286 0
M  V30 4649 H 447.352 -1.827 5.35385 0
M  V30 4650 H 445.909 -1.73766 6.28211 0
M  V30 4651 N 449.342 -1.36122 0.79427 0
M  V30 4652 C 450.59 -1.98718 0.368177 0
M  V30 4653 C 450.911 -1.63345 -1.06506 0
M  V30 4654 O 450.181 -0.909825 -1.73491 0
M  V30 4655 H 448.761 -0.735038 0.133146 0
M  V30 4656 H 451.423 -1.66239 1.01739 0
M  V30 4657 H 450.519 -3.08633 0.463923 0
M  V30 4658 N 450.82 -0.546701 -1.47814 0
M  V30 4659 C 451.77 0.227042 -2.26867 0
M  V30 4660 C 452.754 0.894844 -1.33721 0
M  V30 4661 O 453.946 0.794887 -1.58147 0
M  V30 4662 C 451.075 1.26299 -3.19223 0
M  V30 4663 C 450.161 0.59913 -4.19847 0
M  V30 4664 N 450.552 -0.324777 -5.04756 0
M  V30 4665 C 448.85 0.854331 -4.37741 0
M  V30 4666 C 449.551 -0.709386 -5.77358 0
M  V30 4667 N 448.527 -0.0666153 -5.43559 0
M  V30 4668 H 452.329 -0.483476 -2.89896 0
M  V30 4669 H 449.843 -0.365893 -1.58224 0
M  V30 4670 H 451.84 1.83116 -3.74532 0
M  V30 4671 H 450.5 1.97471 -2.57751 0
M  V30 4672 H 451.511 -0.698351 -5.1317 0
M  V30 4673 H 448.188 1.55536 -3.87447 0
M  V30 4674 H 449.578 -1.46796 -6.55668 0
M  V30 4675 N 452.299 1.55045 -0.282633 0
M  V30 4676 C 453.229 2.2579 0.595066 0
M  V30 4677 C 454.21 1.25074 1.15284 0
M  V30 4678 O 455.395 1.5381 1.18559 0
M  V30 4679 C 452.525 2.98472 1.77572 0
M  V30 4680 C 451.479 4.0618 1.34914 0
M  V30 4681 C 450.805 4.66477 2.6135 0
M  V30 4682 C 452.105 5.1996 0.493821 0
M  V30 4683 H 453.799 2.994 0.00505653 0
M  V30 4684 H 451.345 1.44 0.000992001 0
M  V30 4685 H 453.298 3.46677 2.39568 0
M  V30 4686 H 452.022 2.2241 2.39168 0
M  V30 4687 H 450.681 3.58797 0.752338 0
M  V30 4688 H 450.329 3.87074 3.2122 0
M  V30 4689 H 450.029 5.39207 2.33516 0
M  V30 4690 H 451.553 5.17435 3.24181 0
M  V30 4691 H 452.967 5.64172 1.01898 0
M  V30 4692 H 451.364 5.99299 0.310047 0
M  V30 4693 H 452.434 4.82462 -0.485593 0
M  V30 4694 N 453.777 0.010035 1.57597 0
M  V30 4695 C 454.687 -0.994226 2.12491 0
M  V30 4696 C 455.703 -1.37013 1.07254 0
M  V30 4697 O 456.879 -1.45542 1.3921 0
M  V30 4698 C 453.944 -2.2642 2.62555 0
M  V30 4699 C 453.005 -1.95049 3.82432 0
M  V30 4700 C 452.238 -3.15991 4.30099 0
M  V30 4701 O 452.461 -4.28015 3.7704 0
M  V30 4702 O 451.395 -2.99403 5.22151 0
M  V30 4703 H 455.221 -0.557549 2.98538 0
M  V30 4704 H 452.806 -0.209413 1.47925 0
M  V30 4705 H 454.688 -3.01009 2.9491 0
M  V30 4706 H 453.363 -2.69306 1.796 0
M  V30 4707 H 452.27 -1.17904 3.55034 0
M  V30 4708 H 453.603 -1.56992 4.66491 0
M  V30 4709 N 455.255 -1.55392 -0.262866 0
M  V30 4710 C 456.203 -1.8977 -1.345 0
M  V30 4711 C 457.197 -0.775063 -1.50629 0
M  V30 4712 O 458.403 -0.959519 -1.52293 0
M  V30 4713 H 454.778 -0.602467 -0.450041 0
M  V30 4714 H 456.749 -2.80147 -1.02762 0
M  V30 4715 C 455.498 -2.19501 -2.69657 0
M  V30 4716 H 454.821 -3.05378 -2.5804 0
M  V30 4717 H 456.261 -2.47469 -3.44289 0
M  V30 4718 C 454.72 -1.00597 -3.21531 0
M  V30 4719 O 455.25 -0.245768 -4.00947 0
M  V30 4720 N 453.456 -0.800911 -2.79345 0
M  V30 4721 H 453.003 -1.42079 -2.14875 0
M  V30 4722 H 452.961 -0.00697996 -3.14399 0
M  V30 4723 N 456.733 0.527833 -1.48498 0
M  V30 4724 C 457.643 1.65907 -1.65867 0
M  V30 4725 C 458.659 1.6537 -0.541192 0
M  V30 4726 O 459.835 1.84282 -0.812534 0
M  V30 4727 C 456.9 3.02364 -1.69637 0
M  V30 4728 C 455.961 3.1374 -2.93028 0
M  V30 4729 C 455.194 4.43688 -2.96609 0
M  V30 4730 O 455.417 5.30913 -2.08538 0
M  V30 4731 O 454.351 4.59475 -3.88802 0
M  V30 4732 H 458.177 1.5419 -2.61647 0
M  V30 4733 H 455.762 0.701163 -1.31924 0
M  V30 4734 H 457.644 3.83515 -1.74625 0
M  V30 4735 H 456.319 3.14401 -0.770312 0
M  V30 4736 H 455.226 2.31877 -2.93571 0
M  V30 4737 H 456.559 3.06621 -3.85026 0
M  V30 4738 N 458.211 1.37122 0.776871 0
M  V30 4739 C 459.488 1.22586 1.52421 0
M  V30 4740 C 459.868 -0.182726 2.10308 0
M  V30 4741 O 459.216 -1.18979 1.9508 0
M  V30 4742 C 459.426 2.31782 2.60918 0
M  V30 4743 C 460.774 2.69071 3.2846 0
M  V30 4744 O 461.798 2.3092 2.71209 0
M  V30 4745 O 460.657 3.3478 4.31954 0
M  V30 4746 H 457.751 0.478045 0.674835 0
M  V30 4747 H 460.297 1.48888 0.814275 0
M  V30 4748 H 459.069 3.26131 2.16227 0
M  V30 4749 H 458.692 2.06916 3.39517 0
M  V30 4750 N 459.689 -1.00246 1.21608 0
M  V30 4751 C 460.636 -2.09073 0.977613 0
M  V30 4752 C 461.606 -1.65815 -0.097297 0
M  V30 4753 O 462.791 -1.90734 0.0503445 0
M  V30 4754 C 459.931 -3.40671 0.551133 0
M  V30 4755 C 459.044 -3.97326 1.69576 0
M  V30 4756 C 458.179 -5.17043 1.2182 0
M  V30 4757 C 457.218 -5.65813 2.335 0
M  V30 4758 N 456.355 -6.76778 1.86859 0
M  V30 4759 H 461.195 -2.28806 1.90924 0
M  V30 4760 H 458.732 -1.12186 0.951452 0
M  V30 4761 H 460.69 -4.16225 0.285097 0
M  V30 4762 H 459.32 -3.20967 -0.343489 0
M  V30 4763 H 458.372 -3.18734 2.07637 0
M  V30 4764 H 459.684 -4.29511 2.53617 0
M  V30 4765 H 458.838 -5.99852 0.908975 0
M  V30 4766 H 457.577 -4.86458 0.347869 0
M  V30 4767 H 456.582 -4.81599 2.65222 0
M  V30 4768 H 457.807 -5.98427 3.21033 0
M  V30 4769 H 455.753 -6.47994 1.02174 0
M  V30 4770 H 455.67 -7.08231 2.64471 0
M  V30 4771 H 456.938 -7.63116 1.58978 0
M  V30 4772 N 461.167 -1.02423 -1.1978 0
M  V30 4773 C 462.444 -0.632802 -1.85081 0
M  V30 4774 C 462.824 0.888745 -1.9148 0
M  V30 4775 O 462.172 1.78357 -1.42832 0
M  V30 4776 C 462.382 -1.28947 -3.24305 0
M  V30 4777 C 463.73 -1.40976 -4.00513 0
M  V30 4778 O 464.754 -1.24628 -3.33686 0
M  V30 4779 O 463.613 -1.67467 -5.20209 0
M  V30 4780 H 460.707 -0.219348 -0.79738 0
M  V30 4781 H 463.253 -1.12209 -1.27307 0
M  V30 4782 H 462.025 -2.3288 -3.14456 0
M  V30 4783 H 461.648 -0.787748 -3.89718 0
M  V30 4784 N 462.645 1.35699 -0.801477 0
M  V30 4785 C 464.061 1.52065 -0.484596 0
M  V30 4786 C 464.261 1.75215 0.995084 0
M  V30 4787 O 463.317 1.79061 1.78026 0
M  V30 4788 C 464.63 2.69908 -1.32552 0
M  V30 4789 C 466.178 2.83784 -1.32044 0
M  V30 4790 C 466.653 4.04646 -2.14536 0
M  V30 4791 N 468.144 4.11814 -2.12046 0
M  V30 4792 C 468.879 5.04437 -2.72636 0
M  V30 4793 N 468.375 6.02426 -3.42133 0
M  V30 4794 N 470.168 4.97144 -2.62305 0
M  V30 4795 H 462.319 1.18928 -1.75983 0
M  V30 4796 H 464.582 0.581455 -0.748741 0
M  V30 4797 H 464.288 2.59363 -2.37537 0
M  V30 4798 H 464.162 3.64376 -0.975181 0
M  V30 4799 H 466.549 2.93783 -0.27846 0
M  V30 4800 H 466.63 1.90188 -1.71062 0
M  V30 4801 H 466.274 3.95407 -3.18772 0
M  V30 4802 H 466.204 4.97413 -1.72882 0
M  V30 4803 H 468.695 3.41664 -1.61476 0
M  V30 4804 H 469.008 6.69688 -3.85666 0
M  V30 4805 H 467.353 6.02615 -3.46237 0
M  V30 4806 H 470.544 4.19546 -2.07603 0
M  V30 4807 H 470.717 5.69138 -3.09815 0
M  V30 4808 N 464.123 0.554532 1.47522 0
M  V30 4809 C 465.056 -0.242442 2.26908 0
M  V30 4810 C 466.034 -0.922722 1.33883 0
M  V30 4811 O 467.218 -0.942244 1.63261 0
M  V30 4812 C 464.345 -1.34525 3.10839 0
M  V30 4813 C 463.391 -0.773805 4.19422 0
M  V30 4814 S 464.224 0.377525 5.34168 0
M  V30 4815 C 465.38 -0.727164 6.21662 0
M  V30 4816 H 465.613 0.431218 2.94156 0
M  V30 4817 H 463.146 0.3408 1.50592 0
M  V30 4818 H 465.104 -1.97683 3.59766 0
M  V30 4819 H 463.765 -1.99073 2.42958 0
M  V30 4820 H 462.958 -1.60187 4.77866 0
M  V30 4821 H 462.56 -0.218448 3.73361 0
M  V30 4822 H 464.852 -1.61992 6.57849 0
M  V30 4823 H 465.795 -0.180135 7.07871 0
M  V30 4824 H 466.203 -1.01863 5.55233 0
M  V30 4825 N 465.601 -1.54893 0.290851 0
M  V30 4826 C 466.85 -1.99111 -0.322113 0
M  V30 4827 C 467.163 -1.18283 -1.55784 0
M  V30 4828 O 468.369 -1.5272 -2.24475 0
M  V30 4829 C 466.825 -3.54442 -0.624438 0
M  V30 4830 C 466.433 -4.44066 0.592373 0
M  V30 4831 C 468.177 -4.07211 -1.19916 0
M  V30 4832 C 466.084 -5.90812 0.263762 0
M  V30 4833 H 465.014 -0.743712 -0.124133 0
M  V30 4834 H 467.665 -1.79132 0.39797 0
M  V30 4835 H 466.047 -3.70281 -1.40384 0
M  V30 4836 H 467.221 -4.39999 1.36886 0
M  V30 4837 H 465.536 -4.02015 1.08502 0
M  V30 4838 H 468.133 -5.14407 -1.45909 0
M  V30 4839 H 468.476 -3.57196 -2.13815 0
M  V30 4840 H 469.009 -3.94873 -0.481687 0
M  V30 4841 H 465.748 -6.44955 1.17105 0
M  V30 4842 H 465.268 -5.97911 -0.475655 0
M  V30 4843 H 466.947 -6.46852 -0.138354 0
M  V30 4844 N 467.08 -0.0183926 -1.57589 0
M  V30 4845 C 468.326 0.663543 -1.91638 0
M  V30 4846 C 468.659 1.72392 -0.894134 0
M  V30 4847 O 467.934 1.94316 0.0846449 0
M  V30 4848 C 468.217 1.28984 -3.36207 0
M  V30 4849 C 468.07 0.239761 -4.49161 0
M  V30 4850 C 469.389 2.2109 -3.80536 0
M  V30 4851 H 466.508 0.239746 -0.696915 0
M  V30 4852 H 469.15 -0.073456 -1.89858 0
M  V30 4853 H 467.3 1.91799 -3.37854 0
M  V30 4854 H 468.972 -0.390119 -4.59647 0
M  V30 4855 H 467.215 -0.435972 -4.31604 0
M  V30 4856 H 467.886 0.717383 -5.47319 0
M  V30 4857 H 470.362 1.68273 -3.80557 0
M  V30 4858 H 469.238 2.61869 -4.82406 0
M  V30 4859 H 469.499 3.09764 -3.15434 0
M  V30 4860 N 468.558 1.5553 0.254621 0
M  V30 4861 C 469.508 1.86057 1.31783 0
M  V30 4862 C 470.492 0.720827 1.4385 0
M  V30 4863 O 471.684 0.982586 1.47222 0
M  V30 4864 C 468.813 2.15203 2.67475 0
M  V30 4865 C 467.899 3.35484 2.59444 0
M  V30 4866 N 468.29 4.54945 2.2104 0
M  V30 4867 C 466.588 3.38441 2.90472 0
M  V30 4868 C 467.289 5.3707 2.23453 0
M  V30 4869 N 466.265 4.75936 2.62652 0
M  V30 4870 H 470.067 2.75953 1.01129 0
M  V30 4871 H 467.581 1.55653 0.463255 0
M  V30 4872 H 469.578 2.35235 3.44195 0
M  V30 4873 H 468.238 1.26601 2.99002 0
M  V30 4874 H 469.249 4.8071 1.92712 0
M  V30 4875 H 465.926 2.60087 3.2659 0
M  V30 4876 H 467.316 6.42626 1.96166 0
M  V30 4877 N 470.036 -0.519951 1.48776 0
M  V30 4878 C 471.282 -1.27711 1.57536 0
M  V30 4879 C 471.615 -1.92547 0.252866 0
M  V30 4880 O 470.89 -1.7979 -0.742021 0
M  V30 4881 C 471.173 -2.35875 2.72094 0
M  V30 4882 C 471.026 -1.75664 4.1408 0
M  V30 4883 C 472.345 -3.37575 2.82367 0
M  V30 4884 H 469.464 -0.462971 0.573434 0
M  V30 4885 H 472.106 -0.578194 1.80989 0
M  V30 4886 H 470.256 -2.95488 2.52228 0
M  V30 4887 H 471.928 -1.20025 4.45412 0
M  V30 4888 H 470.171 -1.06154 4.20611 0
M  V30 4889 H 470.842 -2.54029 4.90075 0
M  V30 4890 H 473.318 -2.87929 3.00393 0
M  V30 4891 H 472.194 -4.1064 3.64233 0
M  V30 4892 H 472.455 -3.98743 1.90936 0
M  V30 4893 N 471.514 -1.37532 -0.769588 0
M  V30 4894 C 472.925 -1.29382 -1.346 0
M  V30 4895 C 473.276 0.0576039 -1.96115 0
M  V30 4896 O 472.401 0.95947 -1.93967 0
M  V30 4897 C 472.996 -2.34298 -2.44724 0
M  V30 4898 C 471.555 -2.29776 -2.98128 0
M  V30 4899 C 470.702 -2.18013 -1.71364 0
M  V30 4900 H 473.653 -1.48123 -0.56968 0
M  V30 4901 H 473.674 -1.99089 -3.24259 0
M  V30 4902 H 473.186 -3.32645 -1.99922 0
M  V30 4903 H 471.287 -1.34959 -3.47299 0
M  V30 4904 H 471.4 -3.23276 -3.53595 0
M  V30 4905 H 469.764 -1.64595 -1.94372 0
M  V30 4906 H 470.547 -3.18278 -1.28662 0
M  V30 4907 N 472.992 0.995999 -1.22138 0
M  V30 4908 C 474.239 1.7351 -1.04406 0
M  V30 4909 C 474.567 1.89884 0.421244 0
M  V30 4910 O 473.822 1.43683 1.32867 0
M  V30 4911 C 474.121 3.14553 -1.6968 0
M  V30 4912 C 473.787 3.18102 -3.19565 0
M  V30 4913 C 472.449 3.18778 -3.60464 0
M  V30 4914 C 474.801 3.14636 -4.15516 0
M  V30 4915 C 472.129 3.13684 -4.95801 0
M  V30 4916 C 474.481 3.11084 -5.50826 0
M  V30 4917 C 473.145 3.10074 -5.91109 0
M  V30 4918 H 472.415 0.634916 -0.38205 0
M  V30 4919 H 475.062 1.1667 -1.51857 0
M  V30 4920 H 473.367 3.74682 -1.14546 0
M  V30 4921 H 475.064 3.70477 -1.53454 0
M  V30 4922 H 471.654 3.18324 -2.86998 0
M  V30 4923 H 475.838 3.13266 -3.84939 0
M  V30 4924 H 471.094 3.11245 -5.26247 0
M  V30 4925 H 475.268 3.07357 -6.24904 0
M  V30 4926 H 472.895 3.05882 -6.95946 0
M  V30 4927 N 474.47 1.03057 1.19235 0
M  V30 4928 C 475.718 0.726581 1.88587 0
M  V30 4929 C 476.039 -0.747227 1.80115 0
M  V30 4930 O 475.309 -1.53849 1.21274 0
M  V30 4931 H 473.889 0.265768 0.698124 0
M  V30 4932 H 476.551 1.30516 1.44746 0
M  V30 4933 H 475.647 1.0224 2.94879 0
M  V30 4934 N 475.948 -1.35272 0.808662 0
M  V30 4935 C 477.176 -2.02946 0.402537 0
M  V30 4936 C 477.591 -1.60937 -0.987147 0
M  V30 4937 O 476.948 -0.807917 -1.63643 0
M  V30 4938 C 476.999 -3.58317 0.47868 0
M  V30 4939 O 476.72 -3.98799 1.81358 0
M  V30 4940 C 478.221 -4.43251 0.0656281 0
M  V30 4941 H 475.441 -0.650831 0.163279 0
M  V30 4942 H 477.985 -1.72849 1.09286 0
M  V30 4943 H 476.14 -3.87055 -0.163415 0
M  V30 4944 H 476.554 -4.93451 1.77781 0
M  V30 4945 H 478.028 -5.51738 0.170017 0
M  V30 4946 H 478.505 -4.27913 -0.989278 0
M  V30 4947 H 479.111 -4.19813 0.68096 0
M  V30 4948 N 477.426 -0.562348 -1.47226 0
M  V30 4949 C 478.842 -0.222492 -1.58042 0
M  V30 4950 C 479.042 1.27505 -1.56028 0
M  V30 4951 O 478.098 2.05555 -1.46641 0
M  V30 4952 C 479.411 -0.853694 -2.88327 0
M  V30 4953 C 480.959 -0.825397 -3.01921 0
M  V30 4954 C 481.434 -1.43576 -4.34914 0
M  V30 4955 N 482.925 -1.39918 -4.41562 0
M  V30 4956 C 483.66 -1.84103 -5.43041 0
M  V30 4957 N 483.156 -2.36167 -6.51304 0
M  V30 4958 N 484.949 -1.75142 -5.34118 0
M  V30 4959 H 477.1 -1.53525 -1.46778 0
M  V30 4960 H 479.363 -0.640527 -0.698877 0
M  V30 4961 H 479.069 -1.90635 -2.95552 0
M  V30 4962 H 478.943 -0.34977 -3.75575 0
M  V30 4963 H 481.33 0.218583 -2.94289 0
M  V30 4964 H 481.411 -1.36713 -2.16202 0
M  V30 4965 H 481.055 -2.47884 -4.43301 0
M  V30 4966 H 480.985 -0.869427 -5.19373 0
M  V30 4967 H 483.476 -1.0184 -3.63919 0
M  V30 4968 H 483.789 -2.67793 -7.24919 0
M  V30 4969 H 482.134 -2.40181 -6.52179 0
M  V30 4970 H 485.325 -1.34241 -4.48439 0
M  V30 4971 H 485.498 -2.09895 -6.13065 0
M  V30 4972 N 478.904 1.54736 -0.299062 0
M  V30 4973 C 480.152 1.99706 0.31017 0
M  V30 4974 C 480.473 1.18896 1.54559 0
M  V30 4975 O 479.743 0.284445 1.93824 0
M  V30 4976 H 478.323 0.737686 0.117596 0
M  V30 4977 H 480.985 1.9054 -0.409943 0
M  V30 4978 H 480.081 3.06596 0.58355 0
M  V30 4979 N 480.382 0.0267497 1.57577 0
M  V30 4980 C 481.63 -0.651116 1.91324 0
M  V30 4981 C 481.951 -1.72804 0.90353 0
M  V30 4982 O 481.221 -1.95822 -0.0552946 0
M  V30 4983 H 479.801 -0.243491 0.706202 0
M  V30 4984 H 482.463 0.0739935 1.94759 0
M  V30 4985 H 481.559 -1.10536 2.9187 0
M  V30 4986 N 481.861 -1.55662 -0.24637 0
M  V30 4987 C 482.771 -1.93495 -1.32653 0
M  V30 4988 C 483.787 -0.835462 -1.5263 0
M  V30 4989 O 484.963 -1.1369 -1.66242 0
M  V30 4990 C 482.028 -2.22242 -2.66101 0
M  V30 4991 C 481.089 -3.45625 -2.54641 0
M  V30 4992 C 480.322 -3.72991 -3.81724 0
M  V30 4993 O 480.545 -3.02421 -4.8363 0
M  V30 4994 O 479.479 -4.66515 -3.80325 0
M  V30 4995 H 483.305 -2.85498 -1.03559 0
M  V30 4996 H 480.89 -1.42551 -0.44717 0
M  V30 4997 H 482.772 -2.42037 -3.44958 0
M  V30 4998 H 481.447 -1.33417 -2.94926 0
M  V30 4999 H 480.354 -3.31136 -1.74067 0
M  V30 5000 H 481.687 -4.34754 -2.3076 0
M  V30 5001 N 483.339 0.512053 -1.4905 0
M  V30 5002 C 484.302 1.59704 -1.64399 0
M  V30 5003 C 485.302 1.52285 -0.516317 0
M  V30 5004 O 486.492 1.55635 -0.782527 0
M  V30 5005 C 483.624 2.9935 -1.63102 0
M  V30 5006 H 484.817 1.47428 -2.61161 0
M  V30 5007 H 482.37 0.735469 -1.37915 0
M  V30 5008 H 483.105 3.17116 -0.678836 0
M  V30 5009 H 482.89 3.06144 -2.44986 0
M  V30 5010 H 484.38 3.782 -1.77072 0
M  V30 5011 N 484.817 1.37938 0.762283 0
M  V30 5012 C 486.063 1.33866 1.52341 0
M  V30 5013 C 486.396 -0.0738961 1.94059 0
M  V30 5014 O 485.671 -1.03326 1.64785 0
M  V30 5015 C 485.954 2.28644 2.78197 0
M  V30 5016 C 485.807 3.78722 2.42672 0
M  V30 5017 C 487.126 2.21702 3.80179 0
M  V30 5018 H 484.245 0.487593 0.55265 0
M  V30 5019 H 486.887 1.68717 0.873767 0
M  V30 5020 H 485.037 1.99055 3.33631 0
M  V30 5021 H 486.709 4.18948 1.93081 0
M  V30 5022 H 484.952 3.96827 1.75244 0
M  V30 5023 H 485.623 4.40486 3.3268 0
M  V30 5024 H 488.099 2.47805 3.34263 0
M  V30 5025 H 486.975 2.90143 4.65949 0
M  V30 5026 H 487.236 1.21301 4.25133 0
M  V30 5027 N 486.295 -0.989507 1.22664 0
M  V30 5028 C 487.225 -2.09847 1.02404 0
M  V30 5029 C 488.206 -1.70007 -0.0561303 0
M  V30 5030 O 489.391 -1.93906 0.106748 0
M  V30 5031 C 486.521 -3.41996 0.604663 0
M  V30 5032 C 485.475 -3.95699 1.63115 0
M  V30 5033 C 484.801 -5.23936 1.0675 0
M  V30 5034 C 486.101 -4.25999 3.02196 0
M  V30 5035 H 487.795 -2.27054 1.95158 0
M  V30 5036 H 485.341 -1.09111 0.939727 0
M  V30 5037 H 487.294 -4.1899 0.45002 0
M  V30 5038 H 486.018 -3.24626 -0.35855 0
M  V30 5039 H 484.677 -3.2084 1.77362 0
M  V30 5040 H 484.325 -5.02909 0.0955422 0
M  V30 5041 H 484.025 -5.60833 1.75328 0
M  V30 5042 H 485.549 -6.0356 0.924516 0
M  V30 5043 H 486.963 -4.93777 2.91303 0
M  V30 5044 H 485.36 -4.74076 3.67929 0
M  V30 5045 H 486.43 -3.33636 3.51873 0
M  V30 5046 N 487.773 -1.03688 -1.18687 0
M  V30 5047 C 489.013 -0.746858 -1.90267 0
M  V30 5048 C 489.377 0.712075 -1.78307 0
M  V30 5049 O 490.578 1.11553 -2.44559 0
M  V30 5050 C 488.849 -1.19543 -3.36815 0
M  V30 5051 S 490.408 -1.03047 -4.26529 0
M  V30 5052 H 487.226 -0.271663 -0.657054 0
M  V30 5053 H 489.828 -1.32838 -1.43437 0
M  V30 5054 H 488.532 -2.2527 -3.43047 0
M  V30 5055 H 488.063 -0.607533 -3.88681 0
M  V30 5056 H 490.078 0.0543232 -4.9617 0
M  V30 5057 N 489.251 1.34841 -0.815825 0
M  V30 5058 C 490.183 2.28409 -0.190265 0
M  V30 5059 C 491.196 1.50705 0.615771 0
M  V30 5060 O 492.385 1.72822 0.446616 0
M  V30 5061 C 489.485 3.30441 0.752446 0
M  V30 5062 C 488.658 4.37399 -0.00922152 0
M  V30 5063 C 487.717 5.19234 0.853351 0
M  V30 5064 O 486.743 5.68404 0.300919 0
M  V30 5065 N 487.945 5.38248 2.17416 0
M  V30 5066 H 490.71 2.82732 -0.994114 0
M  V30 5067 H 488.271 1.47289 -0.672129 0
M  V30 5068 H 490.263 3.82084 1.33394 0
M  V30 5069 H 488.833 2.76565 1.45707 0
M  V30 5070 H 488.053 3.86567 -0.771979 0
M  V30 5071 H 489.341 5.05992 -0.533807 0
M  V30 5072 H 488.739 4.99961 2.6468 0
M  V30 5073 H 487.296 5.93035 2.70467 0
M  V30 5074 N 490.729 0.570148 1.46925 0
M  V30 5075 C 491.975 0.0510284 2.02736 0
M  V30 5076 C 492.308 -1.3006 1.44215 0
M  V30 5077 O 491.583 -1.84932 0.602521 0
M  V30 5078 C 491.866 -0.028215 3.60089 0
M  V30 5079 C 491.719 1.35142 4.29018 0
M  V30 5080 C 493.038 -0.735181 4.33916 0
M  V30 5081 H 490.157 0.0200178 0.736728 0
M  V30 5082 H 492.799 0.73493 1.75211 0
M  V30 5083 H 490.949 -0.610648 3.83671 0
M  V30 5084 H 492.621 1.97806 4.16738 0
M  V30 5085 H 490.864 1.9226 3.88868 0
M  V30 5086 H 491.535 1.24857 5.37694 0
M  V30 5087 H 494.011 -0.240519 4.15404 0
M  V30 5088 H 492.887 -0.759622 5.43618 0
M  V30 5089 H 493.148 -1.79397 4.04066 0
M  V30 5090 N 492.207 -1.54576 0.307264 0
M  V30 5091 C 493.157 -2.20467 -0.581249 0
M  V30 5092 C 494.141 -1.17972 -1.09414 0
M  V30 5093 O 495.333 -1.43667 -1.03387 0
M  V30 5094 C 492.462 -2.95369 -1.74963 0
M  V30 5095 C 491.548 -4.05186 -1.25241 0
M  V30 5096 N 491.939 -5.03577 -0.47364 0
M  V30 5097 C 490.237 -4.18841 -1.53259 0
M  V30 5098 C 490.938 -5.81328 -0.208083 0
M  V30 5099 N 489.914 -5.37834 -0.789651 0
M  V30 5100 H 493.716 -2.93892 0.0212221 0
M  V30 5101 H 491.23 -1.62011 0.112325 0
M  V30 5102 H 493.227 -3.41046 -2.39777 0
M  V30 5103 H 491.887 -2.23461 -2.35574 0
M  V30 5104 H 492.898 -5.17766 -0.117963 0
M  V30 5105 H 489.575 -3.58141 -2.14573 0
M  V30 5106 H 490.965 -6.706 0.417793 0
M  V30 5107 N 493.685 -0.035106 -1.57561 0
M  V30 5108 C 494.615 0.942993 -2.13612 0
M  V30 5109 C 495.596 1.33531 -1.05373 0
M  V30 5110 O 496.781 1.41287 -1.33235 0
M  V30 5111 C 493.911 2.22332 -2.66807 0
M  V30 5112 C 492.865 1.97156 -3.79886 0
M  V30 5113 C 492.191 3.31506 -4.19533 0
M  V30 5114 C 493.491 1.30596 -5.05709 0
M  V30 5115 H 495.185 0.476179 -2.95589 0
M  V30 5116 H 492.731 0.227602 -1.4219 0
M  V30 5117 H 494.684 2.91142 -3.04654 0
M  V30 5118 H 493.408 2.7119 -1.81999 0
M  V30 5119 H 492.067 1.30763 -3.42486 0
M  V30 5120 H 491.715 3.78134 -3.31698 0
M  V30 5121 H 491.415 3.15465 -4.95738 0
M  V30 5122 H 492.939 4.01574 -4.59968 0
M  V30 5123 H 494.353 1.89416 -5.41105 0
M  V30 5124 H 492.75 1.24934 -5.86951 0
M  V30 5125 H 493.82 0.279742 -4.84092 0
M  V30 5126 N 495.163 1.55791 0.238111 0
M  V30 5127 C 496.073 1.94196 1.31625 0
M  V30 5128 C 497.089 0.843545 1.52185 0
M  V30 5129 O 498.265 1.1457 1.65637 0
M  V30 5130 C 495.33 2.2365 2.64918 0
M  V30 5131 C 494.391 3.46971 2.52804 0
M  V30 5132 C 493.624 3.7501 3.79741 0
M  V30 5133 O 493.847 3.04982 4.82019 0
M  V30 5134 O 492.781 4.68525 3.77846 0
M  V30 5135 H 496.607 2.86044 1.02043 0
M  V30 5136 H 494.192 1.42786 0.439603 0
M  V30 5137 H 496.074 2.43863 3.4367 0
M  V30 5138 H 494.749 1.34979 2.94215 0
M  V30 5139 H 493.656 3.32055 1.72309 0
M  V30 5140 H 494.989 4.35971 2.28451 0
M  V30 5141 N 496.642 -0.504142 1.49319 0
M  V30 5142 C 497.572 -1.61473 1.68667 0
M  V30 5143 C 498.553 -1.61455 0.535378 0
M  V30 5144 O 499.738 -1.78245 0.770868 0
M  V30 5145 C 496.868 -2.99971 1.75028 0
M  V30 5146 C 495.822 -3.14854 2.89916 0
M  V30 5147 C 495.148 -4.54671 2.81387 0
M  V30 5148 C 496.448 -2.95176 4.30893 0
M  V30 5149 H 498.142 -1.45535 2.61648 0
M  V30 5150 H 495.688 -0.698711 1.25913 0
M  V30 5151 H 497.641 -3.77562 1.8715 0
M  V30 5152 H 496.365 -3.1699 0.786441 0
M  V30 5153 H 495.024 -2.39687 2.77391 0
M  V30 5154 H 494.672 -4.68562 1.82917 0
M  V30 5155 H 494.372 -4.6557 3.58494 0
M  V30 5156 H 495.896 -5.34327 2.95512 0
M  V30 5157 H 497.31 -3.62538 4.44116 0
M  V30 5158 H 495.707 -3.17549 5.09198 0
M  V30 5159 H 496.777 -1.91332 4.45556 0
M  V30 5160 N 498.12 -1.38341 -0.754957 0
M  V30 5161 C 499.531 -1.30803 -1.3322 0
M  V30 5162 C 499.882 0.0368 -1.96165 0
M  V30 5163 O 499.007 0.938844 -1.94974 0
M  V30 5164 C 499.602 -2.3688 -2.42225 0
M  V30 5165 C 498.161 -2.32925 -2.95674 0
M  V30 5166 C 497.308 -2.19819 -1.69042 0
M  V30 5167 H 500.259 -1.48719 -0.553937 0
M  V30 5168 H 500.28 -2.02517 -3.22129 0
M  V30 5169 H 499.792 -3.34747 -1.96383 0
M  V30 5170 H 497.893 -1.38635 -3.45848 0
M  V30 5171 H 498.006 -3.27008 -3.50146 0
M  V30 5172 H 496.37 -1.66648 -1.92615 0
M  V30 5173 H 497.153 -3.19625 -1.25279 0
M  V30 5174 N 499.598 0.982988 -1.23187 0
M  V30 5175 C 501.009 1.53847 -1.05773 0
M  V30 5176 C 501.36 1.92568 0.375744 0
M  V30 5177 O 500.485 1.75783 1.26211 0
M  V30 5178 C 501.08 2.79567 -1.91384 0
M  V30 5179 C 499.639 3.31524 -1.78238 0
M  V30 5180 C 498.786 2.04534 -1.87246 0
M  V30 5181 H 501.737 0.802962 -1.36888 0
M  V30 5182 H 501.758 3.52317 -1.43711 0
M  V30 5183 H 501.27 2.51353 -2.95708 0
M  V30 5184 H 499.371 3.64623 -0.766875 0
M  V30 5185 H 499.484 4.01457 -2.61475 0
M  V30 5186 H 497.848 2.1855 -1.30797 0
M  V30 5187 H 498.631 1.78706 -2.9312 0
M  V30 5188 N 501.076 1.04316 1.18135 0
M  V30 5189 C 502.301 0.768047 1.92655 0
M  V30 5190 C 502.726 -0.66904 1.758 0
M  V30 5191 O 502.084 -1.46372 1.06981 0
M  V30 5192 C 502.132 1.14239 3.42026 0
M  V30 5193 O 501.236 0.269333 4.1152 0
M  V30 5194 H 500.577 0.282436 0.600937 0
M  V30 5195 H 503.107 1.39367 1.49793 0
M  V30 5196 H 503.117 1.10538 3.92741 0
M  V30 5197 H 501.792 2.18928 3.53615 0
M  V30 5198 H 500.369 0.366175 3.71098 0
M  V30 5199 N 502.554 -1.34406 0.822964 0
M  V30 5200 C 503.779 -2.0304 0.423034 0
M  V30 5201 C 504.204 -1.61568 -0.963196 0
M  V30 5202 O 503.562 -0.800339 -1.62678 0
M  V30 5203 C 503.61 -3.56636 0.53321 0
M  V30 5204 O 502.714 -4.09971 -0.446939 0
M  V30 5205 H 502.055 -0.64075 0.174171 0
M  V30 5206 H 504.585 -1.71653 1.11339 0
M  V30 5207 H 504.595 -4.05945 0.408991 0
M  V30 5208 H 503.27 -3.86168 1.54425 0
M  V30 5209 H 501.847 -3.71835 -0.281601 0
M  V30 5210 N 504.032 -0.577932 -1.46621 0
M  V30 5211 C 504.98 0.170882 -2.31971 0
M  V30 5212 C 505.974 0.889086 -1.44193 0
M  V30 5213 O 507.18 0.808017 -1.60845 0
M  V30 5214 H 503.555 0.0739763 -0.748353 0
M  V30 5215 H 505.526 -0.567856 -2.92947 0
M  V30 5216 C 504.275 1.17438 -3.27267 0
M  V30 5217 H 503.598 0.63116 -3.94787 0
M  V30 5218 H 505.038 1.66882 -3.89778 0
M  V30 5219 C 503.497 2.23292 -2.52274 0
M  V30 5220 O 504.027 3.30567 -2.28229 0
M  V30 5221 N 502.233 1.97772 -2.12919 0
M  V30 5222 H 501.78 1.10545 -2.32675 0
M  V30 5223 H 501.738 2.68809 -1.63062 0
M  V30 5224 N 505.51 1.54411 -0.315457 0
M  V30 5225 C 506.759 1.99599 0.290395 0
M  V30 5226 C 507.072 1.20746 1.53882 0
M  V30 5227 O 508.278 1.56272 2.22017 0
M  V30 5228 C 506.734 3.5539 0.56797 0
M  V30 5229 C 506.342 4.43068 -0.662945 0
M  V30 5230 C 508.086 4.09067 1.13422 0
M  V30 5231 C 505.993 5.90317 -0.357722 0
M  V30 5232 H 504.923 0.745592 0.112286 0
M  V30 5233 H 507.574 1.78477 -0.426418 0
M  V30 5234 H 505.956 3.72468 1.34476 0
M  V30 5235 H 507.13 4.37765 -1.43869 0
M  V30 5236 H 505.445 4.00238 -1.14884 0
M  V30 5237 H 508.042 5.16663 1.37707 0
M  V30 5238 H 508.385 3.60552 2.08106 0
M  V30 5239 H 508.918 3.95589 0.418805 0
M  V30 5240 H 505.657 6.4301 -1.27351 0
M  V30 5241 H 505.177 5.98592 0.380472 0
M  V30 5242 H 506.856 6.4699 0.0354284 0
M  V30 5243 N 506.988 0.0434614 1.5754 0
M  V30 5244 C 508.234 -0.632971 1.92669 0
M  V30 5245 C 508.567 -1.70947 0.921446 0
M  V30 5246 O 507.842 -1.94426 -0.0537202 0
M  V30 5247 C 508.125 -1.23619 3.38216 0
M  V30 5248 C 507.978 -0.168274 4.49485 0
M  V30 5249 C 509.297 -2.15008 3.84005 0
M  V30 5250 H 506.416 -0.228629 0.700641 0
M  V30 5251 H 509.058 0.103651 1.89717 0
M  V30 5252 H 507.208 -1.864 3.40863 0
M  V30 5253 H 508.88 0.463196 4.58969 0
M  V30 5254 H 507.123 0.504581 4.30855 0
M  V30 5255 H 507.794 -0.630218 5.48391 0
M  V30 5256 H 510.27 -1.62198 3.83185 0
M  V30 5257 H 509.146 -2.54161 4.86511 0
M  V30 5258 H 509.407 -3.04707 3.20322 0
M  V30 5259 N 508.466 -1.55915 -0.229846 0
M  V30 5260 C 509.398 -1.88209 -1.30805 0
M  V30 5261 C 510.411 -0.769672 -1.43457 0
M  V30 5262 O 511.6 -1.04792 -1.44502 0
M  V30 5263 C 508.7 -2.06829 -2.68468 0
M  V30 5264 C 507.873 -3.37798 -2.77869 0
M  V30 5265 C 506.932 -3.45952 -3.96489 0
M  V30 5266 O 505.958 -4.19043 -3.85216 0
M  V30 5267 N 507.16 -2.76488 -5.10426 0
M  V30 5268 H 509.925 -2.81286 -1.03431 0
M  V30 5269 H 507.486 -1.5636 -0.41991 0
M  V30 5270 H 509.478 -2.09608 -3.46189 0
M  V30 5271 H 508.048 -1.20416 -2.88477 0
M  V30 5272 H 507.268 -3.4719 -1.86689 0
M  V30 5273 H 508.556 -4.24091 -2.81113 0
M  V30 5274 H 507.954 -2.16868 -5.2248 0
M  V30 5275 H 506.511 -2.84938 -5.8622 0
M  V30 5276 N 509.944 0.496216 -1.49584 0
M  V30 5277 C 511.172 1.27394 -1.63029 0
M  V30 5278 C 511.587 1.86344 -0.303569 0
M  V30 5279 O 510.944 1.68057 0.711547 0
M  V30 5280 C 510.995 2.40077 -2.70269 0
M  V30 5281 O 510.716 1.83549 -3.97796 0
M  V30 5282 C 512.217 3.31372 -2.94462 0
M  V30 5283 H 509.437 0.386211 -0.54871 0
M  V30 5284 H 511.981 0.595163 -1.95648 0
M  V30 5285 H 510.136 3.03775 -2.40415 0
M  V30 5286 H 510.55 2.57561 -4.56905 0
M  V30 5287 H 512.024 4.06707 -3.73221 0
M  V30 5288 H 512.501 3.88654 -2.0456 0
M  V30 5289 H 513.107 2.73435 -3.25751 0
M  V30 5290 N 511.423 1.38739 0.74761 0
M  V30 5291 C 512.834 1.31507 1.32524 0
M  V30 5292 C 513.185 -0.0263963 1.96182 0
M  V30 5293 O 512.31 -0.92849 1.95469 0
M  V30 5294 C 512.905 2.38162 2.40966 0
M  V30 5295 C 511.464 2.34489 2.94434 0
M  V30 5296 C 510.611 2.20712 1.67873 0
M  V30 5297 H 513.562 1.4901 0.546043 0
M  V30 5298 H 513.583 2.04222 3.21051 0
M  V30 5299 H 513.095 3.35783 1.94605 0
M  V30 5300 H 511.196 1.40467 3.45108 0
M  V30 5301 H 511.309 3.28861 3.48407 0
M  V30 5302 H 509.673 1.67667 1.91729 0
M  V30 5303 H 510.456 3.20285 1.23582 0
M  V30 5304 N 512.901 -0.976442 1.23707 0
M  V30 5305 C 513.811 -2.10359 1.03856 0
M  V30 5306 C 514.827 -1.73991 -0.0180919 0
M  V30 5307 O 516.003 -2.0061 0.178211 0
M  V30 5308 C 513.068 -3.40809 0.636387 0
M  V30 5309 C 512.129 -3.91179 1.76854 0
M  V30 5310 C 511.362 -5.15404 1.38546 0
M  V30 5311 O 511.585 -5.69754 0.27142 0
M  V30 5312 O 510.519 -5.5994 2.20797 0
M  V30 5313 H 514.345 -2.29997 1.98331 0
M  V30 5314 H 511.93 -1.08742 1.02448 0
M  V30 5315 H 513.812 -4.19269 0.423223 0
M  V30 5316 H 512.487 -3.22493 -0.279322 0
M  V30 5317 H 511.394 -3.13819 2.03638 0
M  V30 5318 H 512.727 -4.13958 2.6627 0
M  V30 5319 N 514.379 -1.04941 -1.1758 0
M  V30 5320 C 515.656 -0.671918 -1.83697 0
M  V30 5321 C 516.036 0.847929 -1.93322 0
M  V30 5322 O 515.384 1.75287 -1.46583 0
M  V30 5323 C 515.594 -1.35797 -3.21497 0
M  V30 5324 C 516.942 -1.4944 -3.97433 0
M  V30 5325 O 517.966 -1.31678 -3.30967 0
M  V30 5326 O 516.825 -1.78463 -5.1654 0
M  V30 5327 H 513.919 -0.236212 -0.792548 0
M  V30 5328 H 516.465 -1.14884 -1.24899 0
M  V30 5329 H 515.237 -2.39498 -3.09446 0
M  V30 5330 H 514.86 -0.870236 -3.8796 0
M  V30 5331 N 515.857 1.33968 -0.830081 0
M  V30 5332 C 517.104 1.98063 -0.421566 0
M  V30 5333 C 517.432 1.65787 1.0171 0
M  V30 5334 O 516.687 0.925348 1.72441 0
M  V30 5335 C 516.986 3.52679 -0.57898 0
M  V30 5336 C 516.652 4.04884 -1.98443 0
M  V30 5337 C 515.314 4.18852 -2.36888 0
M  V30 5338 C 517.666 4.32879 -2.90285 0
M  V30 5339 C 514.994 4.58145 -3.66497 0
M  V30 5340 C 517.346 4.7362 -4.19364 0
M  V30 5341 C 516.01 4.85794 -4.57778 0
M  V30 5342 H 515.28 0.724765 -0.154262 0
M  V30 5343 H 517.927 1.59792 -1.05541 0
M  V30 5344 H 516.232 3.91556 0.138219 0
M  V30 5345 H 517.929 4.00261 -0.243317 0
M  V30 5346 H 514.519 3.9448 -1.67581 0
M  V30 5347 H 518.703 4.21619 -2.61823 0
M  V30 5348 H 513.959 4.65762 -3.96075 0
M  V30 5349 H 518.133 4.9424 -4.90612 0
M  V30 5350 H 515.76 5.15998 -5.58256 0
M  V30 5351 N 517.335 0.585699 1.46312 0
M  V30 5352 C 518.283 -0.158577 2.32059 0
M  V30 5353 C 519.277 -0.881427 1.44662 0
M  V30 5354 O 520.483 -0.799476 1.61271 0
M  V30 5355 H 516.858 -0.0700066 0.748734 0
M  V30 5356 H 518.829 0.583383 2.92642 0
M  V30 5357 C 517.578 -1.15701 3.27885 0
M  V30 5358 H 516.901 -0.610215 3.95116 0
M  V30 5359 H 518.341 -1.64812 3.90657 0
M  V30 5360 C 516.8 -2.21951 2.53455 0
M  V30 5361 O 517.33 -3.29352 2.29978 0
M  V30 5362 N 515.536 -1.9664 2.13965 0
M  V30 5363 H 515.083 -1.09309 2.33258 0
M  V30 5364 H 515.041 -2.6794 1.64485 0
M  V30 5365 N 518.813 -1.54241 0.323641 0
M  V30 5366 C 519.743 -2.27289 -0.534993 0
M  V30 5367 C 520.724 -1.28087 -1.11927 0
M  V30 5368 O 521.909 -1.56899 -1.14439 0
M  V30 5369 C 519.039 -3.03075 -1.69596 0
M  V30 5370 C 517.993 -4.09614 -1.24098 0
M  V30 5371 C 517.319 -4.73242 -2.4889 0
M  V30 5372 C 518.619 -5.21087 -0.355789 0
M  V30 5373 H 520.313 -2.99308 0.0743257 0
M  V30 5374 H 517.859 -1.43952 0.0371874 0
M  V30 5375 H 519.812 -3.52907 -2.30293 0
M  V30 5376 H 518.536 -2.28673 -2.33187 0
M  V30 5377 H 517.195 -3.60666 -0.656945 0
M  V30 5378 H 516.843 -3.95455 -3.10845 0
M  V30 5379 H 516.543 -5.45209 -2.19138 0
M  V30 5380 H 518.067 -5.25848 -3.10348 0
M  V30 5381 H 519.481 -5.66675 -0.869042 0
M  V30 5382 H 517.878 -5.9991 -0.151045 0
M  V30 5383 H 518.948 -4.81005 0.613339 0
M  V30 5384 N 520.291 -0.0518155 -1.57515 0
M  V30 5385 C 521.221 0.920283 -2.146 0
M  V30 5386 C 522.202 1.32406 -1.06783 0
M  V30 5387 O 523.387 1.39866 -1.34726 0
M  V30 5388 C 520.517 2.1949 -2.6915 0
M  V30 5389 C 519.471 1.93116 -3.81956 0
M  V30 5390 C 518.797 3.27037 -4.23026 0
M  V30 5391 C 520.097 1.25225 -5.07066 0
M  V30 5392 H 521.791 0.444801 -2.96077 0
M  V30 5393 H 519.337 0.212508 -1.42423 0
M  V30 5394 H 521.29 2.87894 -3.07725 0
M  V30 5395 H 520.014 2.69244 -1.84865 0
M  V30 5396 H 518.673 1.27123 -3.43854 0
M  V30 5397 H 518.321 3.74595 -3.3569 0
M  V30 5398 H 518.021 3.10189 -4.99056 0
M  V30 5399 H 519.545 3.96673 -4.64202 0
M  V30 5400 H 520.959 1.83666 -5.43083 0
M  V30 5401 H 519.356 1.18702 -5.88243 0
M  V30 5402 H 520.426 0.228382 -4.84362 0
M  V30 5403 N 521.769 1.56035 0.221574 0
M  V30 5404 C 522.716 1.92413 1.27459 0
M  V30 5405 C 523.686 0.781323 1.46576 0
M  V30 5406 O 524.871 1.03721 1.60145 0
M  V30 5407 C 522.011 2.24617 2.61995 0
M  V30 5408 C 521.124 3.51831 2.50677 0
M  V30 5409 C 520.259 3.73482 3.77736 0
M  V30 5410 C 519.298 4.94211 3.6114 0
M  V30 5411 N 518.435 5.12252 4.80148 0
M  V30 5412 H 523.275 2.82203 0.957355 0
M  V30 5413 H 520.812 1.39676 0.461415 0
M  V30 5414 H 522.77 2.41298 3.40339 0
M  V30 5415 H 521.4 1.38 2.91815 0
M  V30 5416 H 520.452 3.43343 1.63767 0
M  V30 5417 H 521.764 4.40328 2.34334 0
M  V30 5418 H 520.918 3.9026 4.64523 0
M  V30 5419 H 519.657 2.83266 3.97003 0
M  V30 5420 H 518.662 4.77384 2.72736 0
M  V30 5421 H 519.887 5.85912 3.43343 0
M  V30 5422 H 517.833 4.24978 4.99729 0
M  V30 5423 H 517.75 5.94881 4.66532 0
M  V30 5424 H 519.018 5.33465 5.68362 0
M  V30 5425 N 523.247 -0.488276 1.49845 0
M  V30 5426 C 524.472 -1.26997 1.63971 0
M  V30 5427 C 524.897 -1.85427 0.315994 0
M  V30 5428 O 524.255 -1.66475 -0.718032 0
M  V30 5429 C 524.303 -2.36689 2.72049 0
M  V30 5430 O 523.407 -3.40882 2.32107 0
M  V30 5431 H 522.748 -0.374376 0.548396 0
M  V30 5432 H 525.278 -0.583104 1.96115 0
M  V30 5433 H 525.288 -2.82262 2.94605 0
M  V30 5434 H 523.963 -1.93529 3.68129 0
M  V30 5435 H 522.54 -3.01139 2.19931 0
M  V30 5436 N 524.725 -1.39134 -0.740242 0
M  V30 5437 C 525.95 -1.39518 -1.53459 0
M  V30 5438 C 526.375 0.00968883 -1.88098 0
M  V30 5439 O 525.733 0.995312 -1.51536 0
M  V30 5440 C 525.781 -2.26981 -2.802 0
M  V30 5441 O 524.885 -1.69609 -3.75908 0
M  V30 5442 H 524.226 -0.475328 -0.463637 0
M  V30 5443 H 526.756 -1.83064 -0.913717 0
M  V30 5444 H 526.766 -2.41309 -3.28989 0
M  V30 5445 H 525.441 -3.29081 -2.5432 0
M  V30 5446 H 524.018 -1.64495 -3.34658 0
M  V30 5447 N 526.204 0.969867 -1.24223 0
M  V30 5448 C 527.152 2.08535 -1.03034 0
M  V30 5449 C 528.146 1.69366 0.0340379 0
M  V30 5450 O 529.352 1.79597 -0.12034 0
M  V30 5451 H 525.727 0.682313 -0.316154 0
M  V30 5452 H 527.698 2.23569 -1.97635 0
M  V30 5453 C 526.447 3.4158 -0.649509 0
M  V30 5454 H 525.77 3.72177 -1.46028 0
M  V30 5455 H 527.21 4.20536 -0.540841 0
M  V30 5456 C 525.669 3.30703 0.643194 0
M  V30 5457 O 526.199 3.64443 1.68951 0
M  V30 5458 N 524.405 2.83841 0.623095 0
M  V30 5459 H 523.952 2.56583 -0.228719 0
M  V30 5460 H 523.91 2.76946 1.48823 0
M  V30 5461 N 527.682 1.05563 1.17022 0
M  V30 5462 C 528.929 0.767937 1.87374 0
M  V30 5463 C 529.257 -0.705224 1.81265 0
M  V30 5464 O 528.512 -1.5318 1.21796 0
M  V30 5465 C 528.811 1.19849 3.36706 0
M  V30 5466 C 528.477 2.6745 3.63017 0
M  V30 5467 C 527.139 3.0777 3.69907 0
M  V30 5468 C 529.491 3.62811 3.74189 0
M  V30 5469 C 526.819 4.42307 3.85463 0
M  V30 5470 C 529.171 4.97087 3.91264 0
M  V30 5471 C 527.835 5.37055 3.96394 0
M  V30 5472 H 527.105 0.281008 0.68565 0
M  V30 5473 H 529.752 1.32339 1.38415 0
M  V30 5474 H 528.057 0.562096 3.87747 0
M  V30 5475 H 529.754 0.953038 3.8951 0
M  V30 5476 H 526.344 2.35228 3.58282 0
M  V30 5477 H 530.528 3.32798 3.68183 0
M  V30 5478 H 525.784 4.72769 3.87684 0
M  V30 5479 H 529.958 5.70869 3.9885 0
M  V30 5480 H 527.585 6.41308 4.082 0
M  V30 5481 N 529.16 -1.33526 0.837174 0
M  V30 5482 C 530.576 -1.50727 0.524743 0
M  V30 5483 C 530.776 -1.77792 -0.948279 0
M  V30 5484 O 529.832 -1.83719 -1.73216 0
M  V30 5485 C 531.145 -2.66299 1.39661 0
M  V30 5486 C 532.693 -2.80183 1.39521 0
M  V30 5487 C 533.168 -3.98815 2.25189 0
M  V30 5488 N 534.659 -4.06047 2.2289 0
M  V30 5489 C 535.394 -4.97032 2.85915 0
M  V30 5490 N 534.89 -5.93143 3.57985 0
M  V30 5491 N 536.683 -4.90015 2.75394 0
M  V30 5492 H 528.834 -1.1422 1.79074 0
M  V30 5493 H 531.097 -0.561399 0.763894 0
M  V30 5494 H 530.803 -2.52974 2.4433 0
M  V30 5495 H 530.677 -3.61663 1.07145 0
M  V30 5496 H 533.064 -2.92942 0.356253 0
M  V30 5497 H 533.145 -1.85586 1.76044 0
M  V30 5498 H 532.789 -3.86817 3.29143 0
M  V30 5499 H 532.719 -4.92654 1.86009 0
M  V30 5500 H 535.21 -3.37262 1.70478 0
M  V30 5501 H 535.523 -6.59227 4.03286 0
M  V30 5502 H 533.868 -5.93223 3.62093 0
M  V30 5503 H 537.059 -4.13894 2.18654 0
M  V30 5504 H 537.232 -5.60724 3.24796 0
M  V30 5505 N 530.638 -0.59345 -1.46 0
M  V30 5506 C 532.054 -0.255965 -1.57534 0
M  V30 5507 C 532.254 1.24167 -1.58697 0
M  V30 5508 O 531.31 2.02398 -1.50968 0
M  V30 5509 C 532.623 -0.91466 -2.86451 0
M  V30 5510 C 534.171 -0.889253 -3.00102 0
M  V30 5511 C 534.646 -1.52769 -4.3177 0
M  V30 5512 N 536.137 -1.49253 -4.38495 0
M  V30 5513 C 536.872 -1.9558 -5.39014 0
M  V30 5514 N 536.368 -2.49929 -6.46148 0
M  V30 5515 N 538.161 -1.86432 -5.30282 0
M  V30 5516 H 530.312 -1.56604 -1.43489 0
M  V30 5517 H 532.575 -0.655207 -0.685133 0
M  V30 5518 H 532.281 -1.96861 -2.91442 0
M  V30 5519 H 532.155 -0.429356 -3.74748 0
M  V30 5520 H 534.542 0.156111 -2.94687 0
M  V30 5521 H 534.623 -1.41268 -2.13253 0
M  V30 5522 H 534.267 -2.57231 -4.37944 0
M  V30 5523 H 534.197 -0.979398 -5.17412 0
M  V30 5524 H 536.688 -1.09536 -3.61677 0
M  V30 5525 H 537.001 -2.83109 -7.19075 0
M  V30 5526 H 535.346 -2.53961 -6.46938 0
M  V30 5527 H 538.537 -1.43722 -4.4549 0
M  V30 5528 H 538.71 -2.22852 -6.08474 0
M  V30 5529 N 532.116 1.54067 -0.331816 0
M  V30 5530 C 533.346 2.04833 0.269605 0
M  V30 5531 C 533.754 1.20714 1.45687 0
M  V30 5532 O 533.097 0.232539 1.82222 0
M  V30 5533 C 533.159 3.51386 0.759499 0
M  V30 5534 C 532.823 4.55971 -0.306557 0
M  V30 5535 C 533.82 5.07126 -1.14538 0
M  V30 5536 C 531.505 5.00216 -0.457116 0
M  V30 5537 C 533.499 6.01096 -2.12042 0
M  V30 5538 C 531.186 5.93999 -1.43556 0
M  V30 5539 C 532.184 6.44326 -2.26568 0
M  V30 5540 O 531.872 7.36267 -3.22749 0
M  V30 5541 H 531.604 0.673509 0.0579763 0
M  V30 5542 H 534.158 1.99748 -0.478521 0
M  V30 5543 H 532.388 3.53896 1.55867 0
M  V30 5544 H 534.077 3.85184 1.28017 0
M  V30 5545 H 534.843 4.73716 -1.04009 0
M  V30 5546 H 530.722 4.60652 0.179142 0
M  V30 5547 H 534.266 6.40302 -2.76873 0
M  V30 5548 H 530.163 6.26825 -1.54146 0
M  V30 5549 H 530.931 7.54165 -3.18083 0
M  V30 5550 N 533.594 0.0601682 1.57485 0
M  V30 5551 C 534.504 -0.926121 2.15546 0
M  V30 5552 C 535.52 -1.33532 1.11558 0
M  V30 5553 O 536.696 -1.4104 1.4377 0
M  V30 5554 C 533.761 -2.17952 2.69625 0
M  V30 5555 C 532.822 -1.82783 3.88444 0
M  V30 5556 C 532.055 -3.02148 4.39935 0
M  V30 5557 O 532.278 -4.15803 3.90466 0
M  V30 5558 O 531.212 -2.82639 5.31412 0
M  V30 5559 H 535.038 -0.462289 3.00161 0
M  V30 5560 H 532.623 -0.162246 1.48516 0
M  V30 5561 H 534.505 -2.91474 3.04337 0
M  V30 5562 H 533.18 -2.63456 1.88077 0
M  V30 5563 H 532.087 -1.06549 3.58606 0
M  V30 5564 H 533.42 -1.42072 4.7125 0
M  V30 5565 N 535.072 -1.5615 -0.213296 0
M  V30 5566 C 536.318 -1.79812 -0.937849 0
M  V30 5567 C 536.651 -0.631201 -1.83656 0
M  V30 5568 O 535.926 0.369165 -1.90964 0
M  V30 5569 C 536.209 -3.13613 -1.76972 0
M  V30 5570 C 536.062 -4.40766 -0.89695 0
M  V30 5571 C 537.381 -3.43931 -2.7459 0
M  V30 5572 H 534.5 -0.654138 -0.339518 0
M  V30 5573 H 537.142 -1.88877 -0.20623 0
M  V30 5574 H 535.292 -3.06015 -2.39347 0
M  V30 5575 H 536.964 -4.60392 -0.289306 0
M  V30 5576 H 535.207 -4.33326 -0.202756 0
M  V30 5577 H 535.878 -5.30843 -1.51358 0
M  V30 5578 H 538.354 -3.5171 -2.22349 0
M  V30 5579 H 537.23 -4.38706 -3.29891 0
M  V30 5580 H 537.491 -2.6651 -3.52739 0
M  V30 5581 N 536.55 0.480323 -1.50102 0
M  V30 5582 C 537.48 1.58769 -1.71215 0
M  V30 5583 C 538.461 1.60583 -0.560997 0
M  V30 5584 O 539.646 1.76996 -0.799127 0
M  V30 5585 C 536.776 2.97148 -1.79778 0
M  V30 5586 C 535.73 3.10201 -2.94888 0
M  V30 5587 C 535.056 4.50137 -2.88584 0
M  V30 5588 C 536.356 2.88283 -4.35534 0
M  V30 5589 H 538.05 1.41354 -2.6393 0
M  V30 5590 H 535.596 0.678591 -1.27008 0
M  V30 5591 H 537.549 3.74536 -1.93133 0
M  V30 5592 H 536.273 3.15699 -0.836772 0
M  V30 5593 H 534.932 2.35244 -2.81169 0
M  V30 5594 H 534.58 4.65593 -1.90349 0
M  V30 5595 H 534.28 4.59808 -3.65856 0
M  V30 5596 H 535.804 5.29558 -3.03976 0
M  V30 5597 H 537.218 3.55427 -4.49827 0
M  V30 5598 H 535.615 3.09408 -5.14186 0
M  V30 5599 H 536.685 1.84219 -4.48544 0
M  V30 5600 N 538.028 1.39524 0.732853 0
M  V30 5601 C 539.444 1.21176 1.03868 0
M  V30 5602 C 539.644 0.0748448 2.01361 0
M  V30 5603 O 538.7 -0.57281 2.45917 0
M  V30 5604 C 540.013 2.54667 1.59892 0
M  V30 5605 C 541.561 2.6153 1.71962 0
M  V30 5606 C 542.036 3.95248 2.31394 0
M  V30 5607 N 543.527 3.96899 2.38801 0
M  V30 5608 C 544.262 4.97138 2.85729 0
M  V30 5609 N 543.758 6.07775 3.32537 0
M  V30 5610 N 545.551 4.84516 2.84957 0
M  V30 5611 H 537.702 2.12225 0.086304 0
M  V30 5612 H 539.965 0.942614 0.100907 0
M  V30 5613 H 539.671 3.38423 0.95721 0
M  V30 5614 H 539.545 2.74538 2.58668 0
M  V30 5615 H 541.932 1.78156 2.35254 0
M  V30 5616 H 542.013 2.45507 0.718327 0
M  V30 5617 H 541.657 4.79054 1.68729 0
M  V30 5618 H 541.587 4.08593 3.32204 0
M  V30 5619 H 544.078 3.16998 2.05719 0
M  V30 5620 H 544.391 6.8017 3.66862 0
M  V30 5621 H 542.736 6.11366 3.30541 0
M  V30 5622 H 545.927 3.97185 2.47713 0
M  V30 5623 H 546.1 5.62783 3.21215 0
M  V30 5624 N 539.506 -0.963266 1.24736 0
M  V30 5625 C 540.416 -2.09246 1.06082 0
M  V30 5626 C 541.432 -1.74 0.000363101 0
M  V30 5627 O 542.608 -2.0041 0.199479 0
M  V30 5628 C 539.673 -3.40115 0.672498 0
M  V30 5629 C 538.734 -3.89282 1.80993 0
M  V30 5630 C 537.967 -5.13905 1.44004 0
M  V30 5631 O 538.19 -5.69434 0.331835 0
M  V30 5632 O 537.124 -5.57566 2.26723 0
M  V30 5633 H 540.95 -2.27881 2.00759 0
M  V30 5634 H 538.535 -1.07649 1.03595 0
M  V30 5635 H 540.417 -4.18797 0.467668 0
M  V30 5636 H 539.092 -3.22771 -0.245102 0
M  V30 5637 H 537.999 -3.11642 2.06955 0
M  V30 5638 H 539.332 -4.1111 2.70646 0
M  V30 5639 N 540.985 -1.06182 -1.16461 0
M  V30 5640 C 542.234 -0.772927 -1.86303 0
M  V30 5641 C 542.547 0.703187 -1.82523 0
M  V30 5642 O 543.753 1.10641 -2.47933 0
M  V30 5643 C 542.209 -1.33249 -3.34324 0
M  V30 5644 C 541.817 -2.83876 -3.46581 0
M  V30 5645 C 543.561 -1.12108 -4.09429 0
M  V30 5646 C 541.468 -3.33082 -4.88682 0
M  V30 5647 H 540.398 -0.285452 -0.697878 0
M  V30 5648 H 543.049 -1.28039 -1.31447 0
M  V30 5649 H 541.431 -0.7528 -3.88779 0
M  V30 5650 H 542.605 -3.47786 -3.02293 0
M  V30 5651 H 540.92 -3.03671 -2.84909 0
M  V30 5652 H 543.517 -1.46361 -5.14279 0
M  V30 5653 H 543.86 -0.0593832 -4.16258 0
M  V30 5654 H 544.393 -1.6665 -3.6121 0
M  V30 5655 H 541.132 -4.38726 -4.87032 0
M  V30 5656 H 540.652 -2.73919 -5.33599 0
M  V30 5657 H 542.331 -3.28344 -5.57494 0
M  V30 5658 N 542.463 1.3308 -0.844243 0
M  V30 5659 C 543.393 2.3161 -0.296493 0
M  V30 5660 C 544.374 1.59215 0.598707 0
M  V30 5661 O 545.559 1.87077 0.521134 0
M  V30 5662 C 542.689 3.43313 0.524762 0
M  V30 5663 C 541.643 4.27115 -0.275106 0
M  V30 5664 C 540.969 5.30483 0.670236 0
M  V30 5665 C 542.269 5.00443 -1.49514 0
M  V30 5666 H 543.963 2.77672 -1.11976 0
M  V30 5667 H 541.509 1.33496 -0.539899 0
M  V30 5668 H 543.462 4.11273 0.918298 0
M  V30 5669 H 542.186 2.95952 1.3813 0
M  V30 5670 H 540.845 3.60787 -0.650267 0
M  V30 5671 H 540.493 4.79379 1.52332 0
M  V30 5672 H 540.193 5.87435 0.139123 0
M  V30 5673 H 541.717 6.01308 1.06117 0
M  V30 5674 H 543.131 5.61141 -1.17447 0
M  V30 5675 H 541.528 5.67071 -1.96343 0
M  V30 5676 H 542.598 4.28906 -2.26202 0
M  V30 5677 N 543.941 0.601185 1.45683 0
M  V30 5678 C 545.169 0.100054 2.06658 0
M  V30 5679 C 545.584 -1.21285 1.44691 0
M  V30 5680 O 544.941 -1.73735 0.558772 0
M  V30 5681 C 544.992 -0.0528579 3.61461 0
M  V30 5682 O 544.713 1.20809 4.21114 0
M  V30 5683 C 546.214 -0.586193 4.39407 0
M  V30 5684 H 543.434 0.065905 0.667756 0
M  V30 5685 H 545.978 0.827101 1.87028 0
M  V30 5686 H 544.133 -0.730203 3.80456 0
M  V30 5687 H 544.547 1.03368 5.14213 0
M  V30 5688 H 546.021 -0.642297 5.4825 0
M  V30 5689 H 546.498 -1.60713 4.0874 0
M  V30 5690 H 547.104 0.0568935 4.25262 0
M  V30 5691 N 545.419 -1.53889 0.339982 0
M  V30 5692 C 546.647 -2.05271 -0.259114 0
M  V30 5693 C 547.062 -1.21517 -1.44496 0
M  V30 5694 O 546.419 -0.24966 -1.80784 0
M  V30 5695 C 546.47 -3.55092 -0.677634 0
M  V30 5696 O 546.191 -4.35667 0.461051 0
M  V30 5697 C 547.692 -4.22631 -1.33782 0
M  V30 5698 H 544.912 -0.669085 -0.0506566 0
M  V30 5699 H 547.456 -1.9852 0.490935 0
M  V30 5700 H 545.611 -3.62077 -1.37763 0
M  V30 5701 H 546.025 -5.24343 0.128144 0
M  V30 5702 H 547.499 -5.28861 -1.58145 0
M  V30 5703 H 547.976 -3.74758 -2.29027 0
M  V30 5704 H 548.582 -4.19829 -0.679957 0
M  V30 5705 N 546.897 -0.0685191 -1.57451 0
M  V30 5706 C 547.827 0.89747 -2.15564 0
M  V30 5707 C 548.808 1.31266 -1.08181 0
M  V30 5708 O 549.993 1.38429 -1.36202 0
M  V30 5709 C 547.123 2.16623 -2.71463 0
M  V30 5710 C 546.077 1.89054 -3.83982 0
M  V30 5711 C 545.403 3.22532 -4.26471 0
M  V30 5712 C 546.703 1.1984 -5.08366 0
M  V30 5713 H 548.397 0.413373 -2.96533 0
M  V30 5714 H 545.943 0.197391 -1.42641 0
M  V30 5715 H 547.896 2.84614 -3.10761 0
M  V30 5716 H 546.62 2.67269 -1.8771 0
M  V30 5717 H 545.279 1.23469 -3.45183 0
M  V30 5718 H 544.927 3.71013 -3.39644 0
M  V30 5719 H 544.627 3.04879 -5.02317 0
M  V30 5720 H 546.151 3.91727 -4.68383 0
M  V30 5721 H 547.565 1.77896 -5.45001 0
M  V30 5722 H 545.962 1.12456 -5.89469 0
M  V30 5723 H 547.032 0.176996 -4.84577 0
M  V30 5724 N 548.375 1.56261 0.205012 0
M  V30 5725 C 549.623 1.79684 0.925096 0
M  V30 5726 C 549.944 0.63989 1.84202 0
M  V30 5727 O 549.214 -0.342345 1.92885 0
M  V30 5728 H 547.794 0.662774 0.344587 0
M  V30 5729 H 550.456 1.93734 0.212899 0
M  V30 5730 H 549.552 2.72467 1.52211 0
M  V30 5731 N 549.853 -0.472356 1.50355 0
M  V30 5732 C 550.783 -1.57859 1.72055 0
M  V30 5733 C 551.764 -1.60283 0.569505 0
M  V30 5734 O 552.949 -1.7657 0.808503 0
M  V30 5735 C 550.079 -2.96191 1.81351 0
M  V30 5736 C 549.033 -3.08633 2.96529 0
M  V30 5737 C 548.359 -4.486 2.90968 0
M  V30 5738 C 549.659 -2.85969 4.37057 0
M  V30 5739 H 551.353 -1.39953 2.64676 0
M  V30 5740 H 548.899 -0.671846 1.27367 0
M  V30 5741 H 550.852 -3.73507 1.95117 0
M  V30 5742 H 549.576 -3.15251 0.853502 0
M  V30 5743 H 548.235 -2.33749 2.82413 0
M  V30 5744 H 547.883 -4.64577 1.92815 0
M  V30 5745 H 547.583 -4.57861 3.68289 0
M  V30 5746 H 549.107 -5.27938 3.0678 0
M  V30 5747 H 550.521 -3.53036 4.51706 0
M  V30 5748 H 548.918 -3.06677 5.15819 0
M  V30 5749 H 549.988 -1.81838 4.49514 0
M  V30 5750 N 551.331 -1.39911 -0.725443 0
M  V30 5751 C 552.556 -1.41137 -1.5197 0
M  V30 5752 C 552.981 -0.010262 -1.88097 0
M  V30 5753 O 552.339 0.979184 -1.52583 0
M  V30 5754 C 552.387 -2.2994 -2.77777 0
M  V30 5755 O 551.491 -1.73586 -3.74088 0
M  V30 5756 H 550.832 -0.480219 -0.458569 0
M  V30 5757 H 553.362 -1.84023 -0.894249 0
M  V30 5758 H 553.372 -2.44785 -3.26411 0
M  V30 5759 H 552.047 -3.31759 -2.50816 0
M  V30 5760 H 550.624 -1.68035 -3.32894 0
M  V30 5761 N 552.809 0.956637 -1.25245 0
M  V30 5762 C 554.049 1.71585 -1.11076 0
M  V30 5763 C 554.413 1.88916 0.34277 0
M  V30 5764 O 555.614 2.61875 0.606227 0
M  V30 5765 C 553.885 3.06267 -1.84215 0
M  V30 5766 S 555.444 3.97469 -1.85914 0
M  V30 5767 H 552.262 0.589803 -0.397055 0
M  V30 5768 H 554.864 1.14114 -1.58739 0
M  V30 5769 H 553.568 2.91322 -2.89067 0
M  V30 5770 H 553.099 3.688 -1.36931 0
M  V30 5771 H 555.114 4.87316 -0.93474 0
M  V30 5772 N 554.287 1.06798 1.15896 0
M  V30 5773 C 555.564 0.701057 1.82605 0
M  V30 5774 C 555.944 -0.817066 1.94646 0
M  V30 5775 O 555.292 -1.72933 1.49353 0
M  V30 5776 C 555.502 1.40895 3.19296 0
M  V30 5777 C 556.85 1.55744 3.95005 0
M  V30 5778 O 557.874 1.36927 3.28831 0
M  V30 5779 O 556.733 1.86658 5.13635 0
M  V30 5780 H 553.827 0.248791 0.78869 0
M  V30 5781 H 556.373 1.16857 1.23055 0
M  V30 5782 H 555.145 2.4439 3.05596 0
M  V30 5783 H 554.768 0.931847 3.86526 0
M  V30 5784 N 555.766 -1.3263 0.851289 0
M  V30 5785 C 556.699 -2.26952 0.238318 0
M  V30 5786 C 557.677 -1.50243 -0.621757 0
M  V30 5787 O 558.861 -1.79378 -0.579298 0
M  V30 5788 C 555.988 -3.32124 -0.664178 0
M  V30 5789 C 555.034 -4.26325 0.122067 0
M  V30 5790 S 555.867 -5.14404 1.48824 0
M  V30 5791 C 557.023 -6.231 0.591372 0
M  V30 5792 H 557.256 -2.78594 1.03791 0
M  V30 5793 H 554.789 -1.4011 0.648731 0
M  V30 5794 H 556.747 -3.93197 -1.17924 0
M  V30 5795 H 555.408 -2.79273 -1.43755 0
M  V30 5796 H 554.601 -5.00821 -0.565181 0
M  V30 5797 H 554.203 -3.69652 0.568602 0
M  V30 5798 H 556.495 -6.77187 -0.205762 0
M  V30 5799 H 557.438 -6.95936 1.30687 0
M  V30 5800 H 557.846 -5.64252 0.167206 0
M  V30 5801 N 557.244 -0.608902 -1.45362 0
M  V30 5802 C 558.191 0.109172 -2.30542 0
M  V30 5803 C 559.161 0.858704 -1.42181 0
M  V30 5804 O 560.346 0.844178 -1.71109 0
M  V30 5805 C 557.486 1.09971 -3.27109 0
M  V30 5806 C 556.599 0.350911 -4.30572 0
M  V30 5807 C 555.734 1.33129 -5.14247 0
M  V30 5808 C 554.773 0.570377 -6.09437 0
M  V30 5809 N 553.91 1.5001 -6.85887 0
M  V30 5810 H 558.75 -0.623195 -2.91411 0
M  V30 5811 H 556.287 -0.319122 -1.43597 0
M  V30 5812 H 558.245 1.68714 -3.81564 0
M  V30 5813 H 556.875 1.79947 -2.67991 0
M  V30 5814 H 555.927 -0.352054 -3.78767 0
M  V30 5815 H 557.239 -0.242725 -4.98209 0
M  V30 5816 H 556.393 1.99074 -5.73109 0
M  V30 5817 H 555.132 1.95885 -4.46632 0
M  V30 5818 H 554.137 -0.102702 -5.49704 0
M  V30 5819 H 555.362 -0.0521607 -6.7908 0
M  V30 5820 H 553.308 2.11529 -6.2096 0
M  V30 5821 H 553.225 0.959934 -7.49881 0
M  V30 5822 H 554.493 2.14909 -7.49289 0
M  V30 5823 N 558.722 1.53707 -0.348139 0
M  V30 5824 C 559.654 2.22725 0.540946 0
M  V30 5825 C 560.667 1.2354 1.06027 0
M  V30 5826 O 561.856 1.49867 0.96964 0
M  V30 5827 C 558.956 2.89756 1.75768 0
M  V30 5828 C 558.129 4.15297 1.37285 0
M  V30 5829 C 557.188 4.65697 2.44976 0
M  V30 5830 O 556.214 5.29798 2.08092 0
M  V30 5831 N 557.416 4.42017 3.763 0
M  V30 5832 H 560.181 2.99658 -0.0501592 0
M  V30 5833 H 557.742 1.60979 -0.17248 0
M  V30 5834 H 559.734 3.20388 2.47252 0
M  V30 5835 H 558.304 2.16382 2.25605 0
M  V30 5836 H 557.524 3.9116 0.488584 0
M  V30 5837 H 558.812 4.96948 1.09179 0
M  V30 5838 H 558.21 3.9076 4.09051 0
M  V30 5839 H 556.767 4.77242 4.4394 0
M  V30 5840 N 560.2 0.0768682 1.57412 0
M  V30 5841 C 561.446 -0.591961 1.93968 0
M  V30 5842 C 561.779 -1.68954 0.9575 0
M  V30 5843 O 561.054 -1.94496 -0.0124675 0
M  V30 5844 C 561.337 -1.16418 3.40762 0
M  V30 5845 C 561.19 -0.0728933 4.49741 0
M  V30 5846 C 562.509 -2.06814 3.88479 0
M  V30 5847 H 559.628 -0.213716 0.705333 0
M  V30 5848 H 562.27 0.14387 1.89455 0
M  V30 5849 H 560.42 -1.79128 3.4474 0
M  V30 5850 H 562.092 0.560446 4.57883 0
M  V30 5851 H 560.335 0.595859 4.29688 0
M  V30 5852 H 561.006 -0.513755 5.49604 0
M  V30 5853 H 563.482 -1.54033 3.8654 0
M  V30 5854 H 562.358 -2.43785 4.91793 0
M  V30 5855 H 562.619 -2.97844 3.26713 0
M  V30 5856 N 561.678 -1.56367 -0.196722 0
M  V30 5857 C 563.089 -1.70462 -0.761545 0
M  V30 5858 C 563.44 -0.683161 -1.83922 0
M  V30 5859 O 562.565 0.160753 -2.15802 0
M  V30 5860 C 563.16 -3.09057 -1.38814 0
M  V30 5861 C 561.719 -3.24922 -1.90007 0
M  V30 5862 C 560.866 -2.66412 -0.769399 0
M  V30 5863 H 563.817 -1.58675 0.0283263 0
M  V30 5864 H 563.838 -3.06296 -2.2575 0
M  V30 5865 H 563.35 -3.83378 -0.603559 0
M  V30 5866 H 561.451 -2.55514 -2.71189 0
M  V30 5867 H 561.564 -4.3241 -2.06297 0
M  V30 5868 H 559.928 -2.25546 -1.18326 0
M  V30 5869 H 560.711 -3.433 0.00291773 0
M  V30 5870 N 563.156 0.464375 -1.50603 0
M  V30 5871 C 564.119 1.54393 -1.69397 0
M  V30 5872 C 565.119 1.50566 -0.564504 0
M  V30 5873 O 566.309 1.53066 -0.831645 0
M  V30 5874 C 563.441 2.9401 -1.72543 0
M  V30 5875 H 564.634 1.39044 -2.65719 0
M  V30 5876 H 562.187 0.69122 -1.40185 0
M  V30 5877 H 562.922 3.14795 -0.77938 0
M  V30 5878 H 562.707 2.98195 -2.54602 0
M  V30 5879 H 564.197 3.72375 -1.89015 0
M  V30 5880 N 564.634 1.40294 0.718013 0
M  V30 5881 C 565.564 1.43118 1.84498 0
M  V30 5882 C 566.545 0.292403 1.67568 0
M  V30 5883 O 567.73 0.500675 1.87635 0
M  V30 5884 C 564.86 1.29065 3.22427 0
M  V30 5885 C 563.814 2.40521 3.54025 0
M  V30 5886 C 563.14 2.11546 4.91073 0
M  V30 5887 C 564.44 3.82859 3.55269 0
M  V30 5888 H 566.134 2.37432 1.82391 0
M  V30 5889 H 563.68 1.14283 0.87609 0
M  V30 5890 H 565.633 1.29658 4.00957 0
M  V30 5891 H 564.357 0.312271 3.25104 0
M  V30 5892 H 563.016 2.39173 2.77834 0
M  V30 5893 H 562.664 1.12104 4.90348 0
M  V30 5894 H 562.364 2.86216 5.1318 0
M  V30 5895 H 563.888 2.13817 5.71939 0
M  V30 5896 H 565.302 3.86044 4.23843 0
M  V30 5897 H 563.699 4.57029 3.88902 0
M  V30 5898 H 564.769 4.12617 2.54706 0
M  V30 5899 N 566.112 -0.949982 1.2575 0
M  V30 5900 C 567.34 -1.72972 1.13527 0
M  V30 5901 C 567.755 -1.8623 -0.310453 0
M  V30 5902 O 567.112 -1.36336 -1.2132 0
M  V30 5903 C 567.163 -3.14108 1.78936 0
M  V30 5904 O 566.884 -3.01493 3.17858 0
M  V30 5905 C 568.385 -4.08338 1.72554 0
M  V30 5906 H 565.605 -0.541864 0.395758 0
M  V30 5907 H 568.149 -1.19151 1.66202 0
M  V30 5908 H 566.304 -3.64858 1.30221 0
M  V30 5909 H 566.718 -3.90559 3.50092 0
M  V30 5910 H 568.192 -5.04963 2.22973 0
M  V30 5911 H 568.669 -4.33742 0.690251 0
M  V30 5912 H 569.275 -3.63506 2.2078 0
M  V30 5913 N 567.59 -1.07411 -1.15328 0
M  V30 5914 C 569.001 -0.820261 -1.67716 0
M  V30 5915 C 569.352 0.654539 -1.8496 0
M  V30 5916 O 568.477 1.50664 -1.55337 0
M  V30 5917 C 569.072 -1.48242 -3.04647 0
M  V30 5918 C 567.631 -1.27606 -3.5411 0
M  V30 5919 C 566.778 -1.5517 -2.29821 0
M  V30 5920 H 569.729 -1.23608 -0.995332 0
M  V30 5921 H 569.75 -0.903984 -3.69606 0
M  V30 5922 H 569.262 -2.55578 -2.92064 0
M  V30 5923 H 567.363 -0.222948 -3.71932 0
M  V30 5924 H 567.476 -1.99667 -4.35511 0
M  V30 5925 H 565.84 -0.972747 -2.35393 0
M  V30 5926 H 566.623 -2.63689 -2.19824 0
M  V30 5927 N 569.068 1.32177 -0.85831 0
M  V30 5928 C 569.998 2.31282 -0.321041 0
M  V30 5929 C 570.979 1.59841 0.581786 0
M  V30 5930 O 572.164 1.87619 0.501262 0
M  V30 5931 C 569.294 3.4385 0.48832 0
M  V30 5932 C 568.248 4.26799 -0.320391 0
M  V30 5933 C 567.574 5.31164 0.613934 0
M  V30 5934 C 568.874 4.98829 -1.54813 0
M  V30 5935 H 570.568 2.76469 -1.14915 0
M  V30 5936 H 568.114 1.32916 -0.554028 0
M  V30 5937 H 570.067 4.12224 0.874626 0
M  V30 5938 H 568.791 2.97401 1.34983 0
M  V30 5939 H 567.45 3.60077 -0.688497 0
M  V30 5940 H 567.098 4.80967 1.47239 0
M  V30 5941 H 566.798 5.8755 0.0768097 0
M  V30 5942 H 568.322 6.024 0.997336 0
M  V30 5943 H 569.736 5.59864 -1.23392 0
M  V30 5944 H 568.133 5.64957 -2.02346 0
M  V30 5945 H 569.203 4.26483 -2.30739 0
M  V30 5946 N 570.547 0.616602 1.45037 0
M  V30 5947 C 571.777 0.121791 2.06241 0
M  V30 5948 C 572.185 -1.20289 1.46038 0
M  V30 5949 O 571.528 -1.7456 0.572242 0
M  V30 5950 C 571.59 -0.0827345 3.59405 0
M  V30 5951 C 571.254 1.16153 4.41993 0
M  V30 5952 C 572.251 2.08183 4.76399 0
M  V30 5953 C 569.936 1.39288 4.82601 0
M  V30 5954 C 571.93 3.21668 5.5028 0
M  V30 5955 C 569.617 2.53073 5.56235 0
M  V30 5956 C 570.615 3.44091 5.89992 0
M  V30 5957 O 570.303 4.55894 6.6213 0
M  V30 5958 H 570.035 0.0701667 0.672349 0
M  V30 5959 H 572.589 0.846877 1.87129 0
M  V30 5960 H 570.819 -0.862812 3.76952 0
M  V30 5961 H 572.508 -0.530273 4.02421 0
M  V30 5962 H 573.274 1.91538 4.45576 0
M  V30 5963 H 569.153 0.693396 4.55755 0
M  V30 5964 H 572.697 3.92733 5.76547 0
M  V30 5965 H 568.594 2.69667 5.86472 0
M  V30 5966 H 569.362 4.5469 6.80587 0
M  V30 5967 N 572.025 -1.5352 0.356285 0
M  V30 5968 C 572.955 -2.28372 -0.486661 0
M  V30 5969 C 573.936 -1.30432 -1.09185 0
M  V30 5970 O 575.121 -1.59291 -1.11085 0
M  V30 5971 C 572.251 -3.06604 -1.63129 0
M  V30 5972 C 571.205 -4.12154 -1.15381 0
M  V30 5973 C 570.531 -4.78415 -2.38796 0
M  V30 5974 C 571.831 -5.21724 -0.245179 0
M  V30 5975 H 573.525 -2.99083 0.137797 0
M  V30 5976 H 571.071 -1.43841 0.0677134 0
M  V30 5977 H 573.024 -3.57712 -2.22755 0
M  V30 5978 H 571.748 -2.33568 -2.28284 0
M  V30 5979 H 570.407 -3.61978 -0.580294 0
M  V30 5980 H 570.055 -4.01959 -3.02387 0
M  V30 5981 H 569.755 -5.49734 -2.07524 0
M  V30 5982 H 571.279 -5.32313 -2.99125 0
M  V30 5983 H 572.693 -5.68391 -0.748646 0
M  V30 5984 H 571.09 -6.00095 -0.0237608 0
M  V30 5985 H 572.16 -4.79596 0.715229 0
M  V30 5986 N 573.503 -0.0852151 -1.57369 0
M  V30 5987 C 574.433 0.874556 -2.16503 0
M  V30 5988 C 575.414 1.30111 -1.09568 0
M  V30 5989 O 576.599 1.36977 -1.37662 0
M  V30 5990 C 573.729 2.13731 -2.73745 0
M  V30 5991 C 572.683 1.84971 -3.85966 0
M  V30 5992 C 572.009 3.17991 -4.29867 0
M  V30 5993 C 573.309 1.14442 -5.09608 0
M  V30 5994 H 575.003 0.381899 -2.96954 0
M  V30 5995 H 572.549 0.18225 -1.42842 0
M  V30 5996 H 574.502 2.81302 -3.13763 0
M  V30 5997 H 573.226 2.65263 -1.90534 0
M  V30 5998 H 571.885 1.19801 -3.46473 0
M  V30 5999 H 571.533 3.6739 -3.4356 0
M  V30 6000 H 571.233 2.99534 -5.05523 0
M  V30 6001 H 572.757 3.86737 -4.72511 0
M  V30 6002 H 574.171 1.72105 -5.46857 0
M  V30 6003 H 572.568 1.06197 -5.90629 0
M  V30 6004 H 573.638 0.12559 -4.84737 0
M  V30 6005 N 574.981 1.5647 0.188427 0
M  V30 6006 C 576.206 1.85486 0.927891 0
M  V30 6007 C 576.631 0.669575 1.75779 0
M  V30 6008 O 575.989 -0.381573 1.77239 0
M  V30 6009 C 576.037 3.12784 1.7944 0
M  V30 6010 O 575.141 2.93805 2.894 0
M  V30 6011 H 574.482 0.610585 0.260925 0
M  V30 6012 H 577.012 2.037 0.191729 0
M  V30 6013 H 577.022 3.43749 2.19774 0
M  V30 6014 H 575.697 3.98671 1.18468 0
M  V30 6015 H 574.274 2.74153 2.52774 0
M  V30 6016 N 576.459 -0.456382 1.50847 0
M  V30 6017 C 577.422 -1.53493 1.70213 0
M  V30 6018 C 578.422 -1.50264 0.572481 0
M  V30 6019 O 579.612 -1.52623 0.839751 0
M  V30 6020 C 576.744 -2.93091 1.741 0
M  V30 6021 H 577.937 -1.37633 2.66453 0
M  V30 6022 H 575.49 -0.683776 1.4055 0
M  V30 6023 H 576.225 -3.14378 0.796063 0
M  V30 6024 H 576.01 -2.9684 2.5618 0
M  V30 6025 H 577.5 -3.71368 1.90987 0
M  V30 6026 N 577.937 -1.40673 -0.710563 0
M  V30 6027 C 578.9 -1.4108 -1.80635 0
M  V30 6028 C 579.9 -0.303783 -1.57904 0
M  V30 6029 O 581.09 -0.562937 -1.64853 0
M  V30 6030 C 578.222 -1.20748 -3.18799 0
M  V30 6031 H 579.415 -2.38612 -1.81671 0
M  V30 6032 H 576.968 -1.26595 -0.916704 0
M  V30 6033 H 577.703 -0.239964 -3.23411 0
M  V30 6034 H 577.488 -2.00941 -3.36698 0
M  V30 6035 H 578.978 -1.23833 -3.98817 0
M  V30 6036 N 579.415 0.9433 -1.26252 0
M  V30 6037 C 580.325 2.07532 -1.09397 0
M  V30 6038 C 581.341 1.73977 -0.0280449 0
M  V30 6039 O 582.517 2.00067 -0.231337 0
M  V30 6040 C 579.582 3.39002 -0.726523 0
M  V30 6041 C 578.643 3.86353 -1.87163 0
M  V30 6042 C 577.876 5.11549 -1.52162 0
M  V30 6043 O 578.099 5.68834 -0.422385 0
M  V30 6044 O 577.033 5.53889 -2.35565 0
M  V30 6045 H 580.859 2.24658 -2.04359 0
M  V30 6046 H 578.444 1.05988 -1.05295 0
M  V30 6047 H 580.326 4.18 -0.534236 0
M  V30 6048 H 579.001 3.2312 0.193721 0
M  V30 6049 H 577.908 3.0831 -2.11886 0
M  V30 6050 H 579.241 4.06752 -2.77152 0
M  V30 6051 N 580.893 1.08022 1.14757 0
M  V30 6052 C 581.803 0.718292 2.23333 0
M  V30 6053 C 582.819 -0.273477 1.71837 0
M  V30 6054 O 583.995 -0.118406 2.01052 0
M  V30 6055 C 581.06 0.128855 3.4646 0
M  V30 6056 C 580.121 1.17473 4.12915 0
M  V30 6057 C 579.354 0.61333 5.30164 0
M  V30 6058 O 579.577 -0.568458 5.6756 0
M  V30 6059 O 578.511 1.3615 5.86299 0
M  V30 6060 H 582.337 1.62394 2.56636 0
M  V30 6061 H 579.922 0.853628 1.22611 0
M  V30 6062 H 581.804 -0.197249 4.20938 0
M  V30 6063 H 580.479 -0.750014 3.14891 0
M  V30 6064 H 579.386 1.5533 3.40328 0
M  V30 6065 H 580.719 2.02574 4.48581 0
M  V30 6066 N 582.371 -1.3172 0.865308 0
M  V30 6067 C 583.62 -1.96145 0.470098 0
M  V30 6068 C 583.933 -1.69182 -0.981674 0
M  V30 6069 O 585.139 -2.27431 -1.48281 0
M  V30 6070 C 583.595 -3.51129 0.789732 0
M  V30 6071 C 583.203 -3.86938 2.25795 0
M  V30 6072 C 584.947 -4.2197 0.462765 0
M  V30 6073 C 582.854 -5.35012 2.52024 0
M  V30 6074 H 581.784 -0.734105 0.172065 0
M  V30 6075 H 584.435 -1.49959 1.05757 0
M  V30 6076 H 582.817 -3.95781 0.131571 0
M  V30 6077 H 583.991 -3.5326 2.95879 0
M  V30 6078 H 582.306 -3.29149 2.55049 0
M  V30 6079 H 584.903 -5.30904 0.636019 0
M  V30 6080 H 585.246 -4.12005 -0.59645 0
M  V30 6081 H 585.779 -3.82936 1.07727 0
M  V30 6082 H 582.518 -5.50008 3.56611 0
M  V30 6083 H 582.038 -5.70058 1.8653 0
M  V30 6084 H 583.717 -6.0222 2.36515 0
M  V30 6085 N 583.85 -0.624285 -1.44708 0
M  V30 6086 C 585.266 -0.289322 -1.56956 0
M  V30 6087 C 585.466 1.20773 -1.61295 0
M  V30 6088 O 584.522 1.9915 -1.55227 0
M  V30 6089 C 585.835 -0.975215 -2.84447 0
M  V30 6090 C 587.383 -0.952709 -2.98148 0
M  V30 6091 C 587.858 -1.61893 -4.28433 0
M  V30 6092 N 589.349 -1.5852 -4.35231 0
M  V30 6093 C 590.084 -2.06969 -5.34744 0
M  V30 6094 N 589.58 -2.63579 -6.40701 0
M  V30 6095 N 591.373 -1.97638 -5.26209 0
M  V30 6096 H 583.524 -1.59612 -1.40135 0
M  V30 6097 H 585.787 -0.669592 -0.671081 0
M  V30 6098 H 585.493 -2.02999 -2.87201 0
M  V30 6099 H 585.367 -0.508749 -3.73753 0
M  V30 6100 H 587.754 0.093568 -2.94952 0
M  V30 6101 H 587.835 -1.4576 -2.10209 0
M  V30 6102 H 587.479 -2.66463 -4.32389 0
M  V30 6103 H 587.409 -1.08893 -5.15218 0
M  V30 6104 H 589.899 -1.17183 -3.59272 0
M  V30 6105 H 590.213 -2.98298 -7.12908 0
M  V30 6106 H 588.558 -2.67626 -6.41406 0
M  V30 6107 H 591.749 -1.5314 -4.42341 0
M  V30 6108 H 591.922 -2.35708 -6.03611 0
M  V30 6109 N 585.328 1.53329 -0.364422 0
M  V30 6110 C 586.605 1.93557 0.281962 0
M  V30 6111 C 586.985 1.29786 1.6649 0
M  V30 6112 O 586.333 0.456512 2.23893 0
M  V30 6113 C 586.543 3.47405 0.333331 0
M  V30 6114 C 587.891 4.20699 0.574231 0
M  V30 6115 O 588.915 3.53779 0.414588 0
M  V30 6116 O 587.774 5.39287 0.885002 0
M  V30 6117 H 584.868 0.809573 0.168881 0
M  V30 6118 H 587.414 1.64494 -0.417121 0
M  V30 6119 H 586.186 3.86091 -0.636326 0
M  V30 6120 H 585.809 3.82697 1.07836 0
M  V30 6121 N 586.806 0.0935595 1.57322 0
M  V30 6122 C 588.217 -0.435807 1.81542 0
M  V30 6123 C 588.568 -1.68263 1.00907 0
M  V30 6124 O 587.693 -2.15087 0.237983 0
M  V30 6125 C 588.288 -0.797436 3.29282 0
M  V30 6126 C 586.847 -1.27155 3.54272 0
M  V30 6127 C 585.994 -0.267455 2.76007 0
M  V30 6128 H 588.945 0.31902 1.5546 0
M  V30 6129 H 588.966 -1.6571 3.42521 0
M  V30 6130 H 588.478 0.110206 3.87943 0
M  V30 6131 H 586.579 -2.19696 3.00939 0
M  V30 6132 H 586.692 -1.23445 4.62923 0
M  V30 6133 H 585.056 -0.749282 2.43429 0
M  V30 6134 H 585.839 0.632839 3.37417 0
M  V30 6135 N 588.284 -1.56567 -0.180126 0
M  V30 6136 C 589.214 -1.98753 -1.22553 0
M  V30 6137 C 590.195 -0.86175 -1.46656 0
M  V30 6138 O 591.38 -1.12719 -1.58139 0
M  V30 6139 C 588.51 -2.33988 -2.56645 0
M  V30 6140 C 587.464 -3.49445 -2.47128 0
M  V30 6141 C 586.79 -3.70397 -3.8563 0
M  V30 6142 C 588.09 -4.83171 -1.98352 0
M  V30 6143 H 589.784 -2.86332 -0.874896 0
M  V30 6144 H 587.33 -1.37757 -0.419414 0
M  V30 6145 H 589.283 -2.62097 -3.29974 0
M  V30 6146 H 588.007 -1.43309 -2.93479 0
M  V30 6147 H 586.666 -3.2145 -1.76254 0
M  V30 6148 H 586.314 -2.77023 -4.19842 0
M  V30 6149 H 586.014 -4.48077 -3.80132 0
M  V30 6150 H 587.538 -4.00897 -4.60558 0
M  V30 6151 H 588.952 -5.10213 -2.61449 0
M  V30 6152 H 587.349 -5.64425 -2.03823 0
M  V30 6153 H 588.419 -4.75753 -0.937402 0
M  V30 6154 N 589.762 0.448376 -1.51087 0
M  V30 6155 C 590.695 1.56298 -1.66272 0
M  V30 6156 C 591.673 1.54381 -0.510419 0
M  V30 6157 O 592.857 1.73671 -0.732854 0
M  V30 6158 C 589.984 2.94883 -1.66618 0
M  V30 6159 C 589.03 3.14868 -2.87681 0
M  V30 6160 S 589.863 2.9234 -4.48662 0
M  V30 6161 C 591.019 4.33227 -4.51735 0
M  V30 6162 H 591.252 1.43182 -2.6055 0
M  V30 6163 H 588.785 0.637309 -1.40633 0
M  V30 6164 H 590.743 3.74771 -1.67502 0
M  V30 6165 H 589.404 3.05371 -0.735358 0
M  V30 6166 H 588.597 4.16166 -2.84292 0
M  V30 6167 H 588.199 2.42788 -2.84482 0
M  V30 6168 H 590.491 5.26247 -4.26697 0
M  V30 6169 H 591.434 4.41653 -5.53487 0
M  V30 6170 H 591.842 4.16367 -3.81181 0
M  V30 6171 N 591.24 1.41047 0.703093 0
M  V30 6172 C 592.172 1.38228 1.82827 0
M  V30 6173 C 593.185 0.285637 1.60275 0
M  V30 6174 O 594.374 0.54685 1.69917 0
M  V30 6175 C 591.474 1.13136 3.19458 0
M  V30 6176 C 590.647 2.34695 3.69103 0
M  V30 6177 C 589.706 2.05574 4.84382 0
M  V30 6178 O 588.732 2.78549 4.96386 0
M  V30 6179 N 589.934 1.04135 5.71083 0
M  V30 6180 H 592.699 2.35203 1.85741 0
M  V30 6181 H 590.26 1.35562 0.885125 0
M  V30 6182 H 592.252 0.916183 3.94193 0
M  V30 6183 H 590.822 0.247836 3.11616 0
M  V30 6184 H 590.042 2.71963 2.85359 0
M  V30 6185 H 591.33 3.15705 3.99009 0
M  V30 6186 H 590.728 0.43722 5.64008 0
M  V30 6187 H 589.285 0.886078 6.45749 0
M  V30 6188 N 592.718 -0.936591 1.26751 0
M  V30 6189 C 593.964 -1.68625 1.13741 0
M  V30 6190 C 594.319 -1.898 -0.315221 0
M  V30 6191 O 593.612 -1.47088 -1.22783 0
M  V30 6192 C 593.806 -3.06099 1.84494 0
M  V30 6193 C 593.635 -2.98338 3.36488 0
M  V30 6194 C 592.405 -3.01104 4.05789 0
M  V30 6195 C 594.603 -2.78128 4.32608 0
M  V30 6196 N 592.585 -2.8369 5.4442 0
M  V30 6197 C 593.956 -2.69329 5.58446 0
M  V30 6198 C 596.011 -2.62946 4.22804 0
M  V30 6199 C 594.714 -2.46899 6.75598 0
M  V30 6200 C 596.74 -2.41892 5.39669 0
M  V30 6201 C 596.102 -2.33829 6.64457 0
M  V30 6202 H 592.201 -0.624227 0.471025 0
M  V30 6203 H 594.785 -1.10798 1.601 0
M  V30 6204 H 592.956 -3.62057 1.40604 0
M  V30 6205 H 594.688 -3.69951 1.64067 0
M  V30 6206 H 591.443 -3.10992 3.57185 0
M  V30 6207 H 591.867 -2.78138 6.17226 0
M  V30 6208 H 596.509 -2.67944 3.27056 0
M  V30 6209 H 594.227 -2.40642 7.71438 0
M  V30 6210 H 597.813 -2.31043 5.33957 0
M  V30 6211 H 596.693 -2.17754 7.53361 0
M  V30 6212 N 594.196 -1.08629 -1.14182 0
M  V30 6213 C 595.126 -0.740003 -2.21464 0
M  V30 6214 C 596.107 0.278591 -1.67803 0
M  V30 6215 O 597.292 0.148461 -1.93632 0
M  V30 6216 C 594.422 -0.150952 -3.46972 0
M  V30 6217 C 593.376 -1.09815 -4.13672 0
M  V30 6218 C 592.702 -0.3712 -5.3341 0
M  V30 6219 C 594.002 -2.43722 -4.61949 0
M  V30 6220 H 595.696 -1.63697 -2.50686 0
M  V30 6221 H 593.242 -0.788526 -1.20492 0
M  V30 6222 H 595.195 0.103325 -4.21273 0
M  V30 6223 H 593.919 0.781164 -3.1712 0
M  V30 6224 H 592.578 -1.33756 -3.41328 0
M  V30 6225 H 592.226 0.564792 -4.99819 0
M  V30 6226 H 591.926 -1.00267 -5.78982 0
M  V30 6227 H 593.45 -0.12503 -6.10472 0
M  V30 6228 H 594.864 -2.24034 -5.27714 0
M  V30 6229 H 593.261 -3.02582 -5.18232 0
M  V30 6230 H 594.331 -3.05082 -3.76899 0
M  V30 6231 N 595.674 1.31259 -0.872281 0
M  V30 6232 C 596.922 1.96233 -0.483409 0
M  V30 6233 C 597.243 1.69276 0.968012 0
M  V30 6234 O 596.513 1.00943 1.67891 0
M  V30 6235 H 595.093 0.726025 -0.175774 0
M  V30 6236 H 597.755 1.60024 -1.11258 0
M  V30 6237 H 596.851 3.05403 -0.643075 0
M  V30 6238 N 597.152 0.631951 1.44375 0
M  V30 6239 C 598.099 -0.0724807 2.30686 0
M  V30 6240 C 599.069 -0.835975 1.43529 0
M  V30 6241 O 600.254 -0.816849 1.7243 0
M  V30 6242 C 597.394 -1.04753 3.28817 0
M  V30 6243 C 596.507 -0.282367 4.31076 0
M  V30 6244 C 595.642 -1.2493 5.163 0
M  V30 6245 C 594.681 -0.473349 6.10267 0
M  V30 6246 N 593.818 -1.39079 6.88187 0
M  V30 6247 H 598.658 0.669477 2.90383 0
M  V30 6248 H 596.195 0.341927 1.43071 0
M  V30 6249 H 598.153 -1.62623 3.842 0
M  V30 6250 H 596.783 -1.75661 2.70819 0
M  V30 6251 H 595.835 0.412268 3.78159 0
M  V30 6252 H 597.147 0.321955 4.9776 0
M  V30 6253 H 596.301 -1.89931 5.76204 0
M  V30 6254 H 595.04 -1.88755 4.49692 0
M  V30 6255 H 594.045 0.190142 5.49471 0
M  V30 6256 H 595.27 0.16019 6.78911 0
M  V30 6257 H 593.216 -2.01623 6.24247 0
M  V30 6258 H 593.133 -0.840513 7.51313 0
M  V30 6259 H 594.401 -2.02961 7.52613 0
M  V30 6260 N 598.631 -1.53133 0.372548 0
M  V30 6261 C 599.581 -2.22733 -0.487218 0
M  V30 6262 C 600.565 -1.22506 -1.04312 0
M  V30 6263 O 601.757 -1.47923 -0.972005 0
M  V30 6264 C 598.886 -3.02524 -1.62278 0
M  V30 6265 C 597.972 -4.10133 -1.07943 0
M  V30 6266 N 598.363 -5.05133 -0.259629 0
M  V30 6267 C 596.661 -4.24964 -1.35356 0
M  V30 6268 C 597.362 -5.81687 0.0386656 0
M  V30 6269 N 596.338 -5.40699 -0.560827 0
M  V30 6270 H 600.14 -2.93538 0.145853 0
M  V30 6271 H 597.654 -1.61389 0.180938 0
M  V30 6272 H 599.651 -3.50909 -2.25096 0
M  V30 6273 H 598.311 -2.33252 -2.25884 0
M  V30 6274 H 599.322 -5.178 0.101746 0
M  V30 6275 H 595.999 -3.66919 -1.9919 0
M  V30 6276 H 597.389 -6.68224 0.701841 0
M  V30 6277 N 600.109 -0.101901 -1.5727 0
M  V30 6278 C 601.355 0.561027 -1.94885 0
M  V30 6279 C 601.688 1.6741 -0.984258 0
M  V30 6280 O 600.963 1.94491 -0.0184767 0
M  V30 6281 C 601.246 1.10982 -3.42571 0
M  V30 6282 C 601.099 0.00133418 -4.498 0
M  V30 6283 C 602.418 2.00608 -3.9172 0
M  V30 6284 H 599.537 0.202467 -0.708644 0
M  V30 6285 H 602.179 -0.173992 -1.89202 0
M  V30 6286 H 600.329 1.73621 -3.47546 0
M  V30 6287 H 602.001 -0.63322 -4.56933 0
M  V30 6288 H 600.244 -0.664143 -4.28686 0
M  V30 6289 H 600.915 0.426253 -5.50352 0
M  V30 6290 H 603.391 1.47864 -3.88941 0
M  V30 6291 H 602.267 2.3593 -4.95609 0
M  V30 6292 H 602.528 2.92608 -3.3141 0
M  V30 6293 N 601.587 1.56661 0.17182 0
M  V30 6294 C 602.864 1.72838 0.915778 0
M  V30 6295 C 603.244 0.66316 2.00413 0
M  V30 6296 O 602.592 -0.322123 2.26218 0
M  V30 6297 C 602.802 3.16019 1.48097 0
M  V30 6298 C 604.15 3.76962 1.95408 0
M  V30 6299 O 605.174 3.19294 1.57892 0
M  V30 6300 O 604.033 4.78219 2.64516 0
M  V30 6301 H 601.127 0.705797 0.431021 0
M  V30 6302 H 603.673 1.68947 0.159689 0
M  V30 6303 H 602.445 3.85031 0.697618 0
M  V30 6304 H 602.068 3.24234 2.30126 0
M  V30 6305 N 603.065 -0.440357 1.51323 0
M  V30 6306 C 604.29 -1.21716 1.67928 0
M  V30 6307 C 604.715 -1.84328 0.374826 0
M  V30 6308 O 604.073 -1.68675 -0.664706 0
M  V30 6309 C 604.121 -2.27914 2.79442 0
M  V30 6310 O 603.225 -3.33325 2.42834 0
M  V30 6311 H 602.566 -0.35674 0.560029 0
M  V30 6312 H 605.096 -0.520417 1.97871 0
M  V30 6313 H 605.106 -2.72746 3.03436 0
M  V30 6314 H 603.781 -1.8172 3.741 0
M  V30 6315 H 602.358 -2.9399 2.294 0
M  V30 6316 N 604.543 -1.41418 -0.695603 0
M  V30 6317 C 605.453 -1.45622 -1.83933 0
M  V30 6318 C 606.469 -0.346825 -1.70508 0
M  V30 6319 O 607.645 -0.59454 -1.92424 0
M  V30 6320 C 604.71 -1.33627 -3.19914 0
M  V30 6321 C 603.771 -2.54882 -3.45447 0
M  V30 6322 C 603.004 -2.43449 -4.7494 0
M  V30 6323 O 603.227 -1.45905 -5.51424 0
M  V30 6324 O 602.161 -3.33206 -5.01256 0
M  V30 6325 H 605.987 -2.42114 -1.83342 0
M  V30 6326 H 603.572 -1.22956 -0.848658 0
M  V30 6327 H 605.454 -1.29221 -4.01098 0
M  V30 6328 H 604.129 -0.402508 -3.21188 0
M  V30 6329 H 603.036 -2.64865 -2.64192 0
M  V30 6330 H 604.369 -3.47087 -3.48987 0
M  V30 6331 N 606.021 0.929856 -1.27246 0
M  V30 6332 C 607.269 1.674 -1.13233 0
M  V30 6333 C 607.59 1.92311 0.322744 0
M  V30 6334 O 606.86 1.52784 1.22612 0
M  V30 6335 H 605.44 0.620411 -0.416052 0
M  V30 6336 H 608.102 1.11663 -1.59741 0
M  V30 6337 H 607.198 2.64308 -1.65975 0
M  V30 6338 N 607.499 1.09233 1.13605 0
M  V30 6339 C 608.409 0.741939 2.22559 0
M  V30 6340 C 609.425 -0.255236 1.72118 0
M  V30 6341 O 610.601 -0.0970747 2.01166 0
M  V30 6342 C 607.666 0.165595 3.46304 0
M  V30 6343 C 606.727 1.21846 4.11645 0
M  V30 6344 C 605.96 0.669526 5.29484 0
M  V30 6345 O 606.183 -0.508228 5.68131 0
M  V30 6346 O 605.117 1.42361 5.84822 0
M  V30 6347 H 608.943 1.65107 2.54899 0
M  V30 6348 H 606.528 0.866584 1.21699 0
M  V30 6349 H 608.41 -0.152592 4.21124 0
M  V30 6350 H 607.085 -0.716573 3.15669 0
M  V30 6351 H 605.992 1.58931 3.38662 0
M  V30 6352 H 607.325 2.07321 4.46407 0
M  V30 6353 N 608.977 -1.30795 0.87923 0
M  V30 6354 C 610.226 -1.95636 0.490875 0
M  V30 6355 C 610.539 -1.70214 -0.963674 0
M  V30 6356 O 611.745 -2.28991 -1.45861 0
M  V30 6357 C 610.201 -3.50271 0.826929 0
M  V30 6358 C 609.809 -3.84521 2.29886 0
M  V30 6359 C 611.553 -4.21456 0.507494 0
M  V30 6360 C 609.46 -5.32309 2.57685 0
M  V30 6361 H 608.39 -0.732238 0.179841 0
M  V30 6362 H 611.041 -1.48829 1.07341 0
M  V30 6363 H 609.423 -3.9562 0.173542 0
M  V30 6364 H 610.597 -3.50102 2.99609 0
M  V30 6365 H 608.912 -3.26425 2.58526 0
M  V30 6366 H 611.509 -5.30199 0.692293 0
M  V30 6367 H 611.852 -4.12614 -0.552718 0
M  V30 6368 H 612.385 -3.81772 1.11782 0
M  V30 6369 H 609.124 -5.46195 3.62424 0
M  V30 6370 H 608.644 -5.68048 1.92566 0
M  V30 6371 H 610.323 -5.99678 2.42889 0
M  V30 6372 N 610.455 -0.639598 -1.44038 0
M  V30 6373 C 611.402 0.0602458 -2.30721 0
M  V30 6374 C 612.372 0.828352 -1.43971 0
M  V30 6375 O 613.557 0.807693 -1.72861 0
M  V30 6376 C 610.697 1.03008 -3.29368 0
M  V30 6377 C 609.81 0.259502 -4.3122 0
M  V30 6378 C 608.945 1.22191 -5.16955 0
M  V30 6379 C 607.984 0.440978 -6.10509 0
M  V30 6380 N 607.121 1.35428 -6.88915 0
M  V30 6381 H 611.961 -0.684867 -2.90023 0
M  V30 6382 H 609.498 -0.349509 -1.42888 0
M  V30 6383 H 611.456 1.60583 -3.85057 0
M  V30 6384 H 610.086 1.74222 -2.71747 0
M  V30 6385 H 609.138 -0.432317 -3.77935 0
M  V30 6386 H 610.45 -0.348347 -4.97582 0
M  V30 6387 H 609.604 1.86873 -5.77203 0
M  V30 6388 H 608.343 1.86367 -4.50687 0
M  V30 6389 H 607.348 -0.219279 -5.49363 0
M  V30 6390 H 608.573 -0.196192 -6.78817 0
M  V30 6391 H 606.519 1.9831 -6.25307 0
M  V30 6392 H 606.436 0.800657 -7.51748 0
M  V30 6393 H 607.704 1.98967 -7.53679 0
M  V30 6394 N 611.933 1.52934 -0.380664 0
M  V30 6395 C 613.158 2.06363 0.207157 0
M  V30 6396 C 613.583 1.25122 1.4045 0
M  V30 6397 O 612.941 0.274062 1.79217 0
M  V30 6398 C 612.989 3.56162 0.563996 0
M  V30 6399 O 612.093 3.77552 1.65917 0
M  V30 6400 H 611.434 0.663468 0.0265859 0
M  V30 6401 H 613.964 1.9719 -0.545635 0
M  V30 6402 H 613.974 3.99453 0.830752 0
M  V30 6403 H 612.649 4.14732 -0.311427 0
M  V30 6404 H 611.226 3.46154 1.3868 0
M  V30 6405 N 613.412 0.11024 1.57214 0
M  V30 6406 C 614.66 -0.548783 1.94506 0
M  V30 6407 C 614.981 -1.67772 0.99386 0
M  V30 6408 O 614.251 -1.9584 0.0485841 0
M  V30 6409 H 612.831 -0.205715 0.718116 0
M  V30 6410 H 615.493 0.177127 1.94093 0
M  V30 6411 H 614.589 -0.949096 2.97319 0
M  V30 6412 N 614.89 -1.56749 -0.16351 0
M  V30 6413 C 615.822 -1.93587 -1.22705 0
M  V30 6414 C 616.835 -0.829824 -1.40063 0
M  V30 6415 O 618.024 -1.10826 -1.39928 0
M  V30 6416 C 615.124 -2.1803 -2.59454 0
M  V30 6417 C 614.297 -3.4928 -2.63292 0
M  V30 6418 C 613.356 -3.62457 -3.8146 0
M  V30 6419 O 612.382 -4.35004 -3.67096 0
M  V30 6420 N 613.584 -2.97888 -4.9824 0
M  V30 6421 H 616.349 -2.8542 -0.914081 0
M  V30 6422 H 613.91 -1.58 -0.353214 0
M  V30 6423 H 615.902 -2.24102 -3.36987 0
M  V30 6424 H 614.472 -1.32543 -2.8311 0
M  V30 6425 H 613.692 -3.54795 -1.71796 0
M  V30 6426 H 614.98 -4.35632 -2.62873 0
M  V30 6427 H 614.378 -2.38833 -5.12811 0
M  V30 6428 H 612.935 -3.09545 -5.73607 0
M  V30 6429 N 616.368 0.432326 -1.51554 0
M  V30 6430 C 617.298 1.53242 -1.76179 0
M  V30 6431 C 618.279 1.58717 -0.611801 0
M  V30 6432 O 619.464 1.74364 -0.855033 0
M  V30 6433 C 616.594 2.91278 -1.89141 0
M  V30 6434 C 615.548 3.00663 -3.04608 0
M  V30 6435 C 614.874 4.40728 -3.02759 0
M  V30 6436 C 616.174 2.74281 -4.44485 0
M  V30 6437 H 617.868 1.32886 -2.68294 0
M  V30 6438 H 615.414 0.637841 -1.29103 0
M  V30 6439 H 617.367 3.68203 -2.04951 0
M  V30 6440 H 616.091 3.12877 -0.936785 0
M  V30 6441 H 614.75 2.26179 -2.88511 0
M  V30 6442 H 614.398 4.59301 -2.05065 0
M  V30 6443 H 614.098 4.47936 -3.80299 0
M  V30 6444 H 615.622 5.19619 -3.20669 0
M  V30 6445 H 617.036 3.40936 -4.60907 0
M  V30 6446 H 615.433 2.92893 -5.23769 0
M  V30 6447 H 616.503 1.69856 -4.54177 0
M  V30 6448 N 617.846 1.41785 0.688094 0
M  V30 6449 C 619.071 1.45117 1.48175 0
M  V30 6450 C 619.496 0.060129 1.88004 0
M  V30 6451 O 618.854 -0.938385 1.55126 0
M  V30 6452 C 618.902 2.37224 2.71583 0
M  V30 6453 O 618.006 1.83443 3.69354 0
M  V30 6454 H 617.347 0.492208 0.445676 0
M  V30 6455 H 619.877 1.86329 0.845145 0
M  V30 6456 H 619.887 2.53353 3.19806 0
M  V30 6457 H 618.562 3.38293 2.41931 0
M  V30 6458 H 617.139 1.76802 3.28322 0
M  V30 6459 N 619.324 -0.923095 1.27737 0
M  V30 6460 C 620.254 -2.04124 1.13383 0
M  V30 6461 C 621.235 -1.70066 0.0340658 0
M  V30 6462 O 622.42 -1.93068 0.209383 0
M  V30 6463 C 619.55 -3.3831 0.785097 0
M  V30 6464 C 618.504 -3.86496 1.8386 0
M  V30 6465 C 617.83 -5.1754 1.34373 0
M  V30 6466 C 619.13 -4.09381 3.24353 0
M  V30 6467 H 620.824 -2.1639 2.06919 0
M  V30 6468 H 618.37 -1.03976 0.996243 0
M  V30 6469 H 620.323 -4.16016 0.671485 0
M  V30 6470 H 619.047 -3.2607 -0.185969 0
M  V30 6471 H 617.706 -3.10987 1.9412 0
M  V30 6472 H 617.354 -5.01696 0.361989 0
M  V30 6473 H 617.054 -5.50751 2.04811 0
M  V30 6474 H 618.578 -5.97811 1.24315 0
M  V30 6475 H 619.992 -4.77641 3.17067 0
M  V30 6476 H 618.389 -4.53906 3.92542 0
M  V30 6477 H 619.459 -3.14515 3.69064 0
M  V30 6478 N 620.802 -1.09834 -1.13024 0
M  V30 6479 C 622.218 -0.828875 -1.36388 0
M  V30 6480 C 622.418 0.554756 -1.93713 0
M  V30 6481 O 621.474 1.30882 -2.15931 0
M  V30 6482 C 622.787 -1.92352 -2.3113 0
M  V30 6483 C 624.335 -1.95124 -2.44735 0
M  V30 6484 C 624.81 -3.03745 -3.42787 0
M  V30 6485 N 626.301 -3.03012 -3.5034 0
M  V30 6486 C 627.036 -3.83699 -4.26101 0
M  V30 6487 N 626.532 -4.74306 -5.04981 0
M  V30 6488 N 628.325 -3.71942 -4.21445 0
M  V30 6489 H 620.476 -1.99029 -0.74169 0
M  V30 6490 H 622.739 -0.864557 -0.388903 0
M  V30 6491 H 622.445 -2.91906 -1.96172 0
M  V30 6492 H 622.319 -1.80536 -3.3119 0
M  V30 6493 H 624.706 -0.962069 -2.78977 0
M  V30 6494 H 624.787 -2.11018 -1.44586 0
M  V30 6495 H 624.431 -4.02878 -3.09276 0
M  V30 6496 H 624.361 -2.85094 -4.42752 0
M  V30 6497 H 626.852 -2.37352 -2.94062 0
M  V30 6498 H 627.165 -5.32446 -5.60108 0
M  V30 6499 H 625.51 -4.78339 -5.04199 0
M  V30 6500 H 628.701 -3.00513 -3.589 0
M  V30 6501 H 628.874 -4.35062 -4.80235 0
M  V30 6502 N 622.28 1.30327 -0.886154 0
M  V30 6503 C 623.527 1.96097 -0.505192 0
M  V30 6504 C 623.855 1.69952 0.945868 0
M  V30 6505 O 623.11 0.997653 1.68361 0
M  V30 6506 C 623.409 3.49906 -0.728042 0
M  V30 6507 C 623.075 3.96103 -2.15437 0
M  V30 6508 C 621.737 4.08428 -2.5444 0
M  V30 6509 C 624.089 4.20177 -3.08384 0
M  V30 6510 C 621.417 4.42189 -3.85598 0
M  V30 6511 C 623.769 4.55407 -4.39075 0
M  V30 6512 C 622.433 4.65941 -4.7797 0
M  V30 6513 H 621.703 0.71757 -0.184863 0
M  V30 6514 H 624.35 1.55171 -1.12223 0
M  V30 6515 H 622.655 3.9179 -0.027978 0
M  V30 6516 H 624.352 3.98869 -0.412862 0
M  V30 6517 H 620.942 3.87017 -1.84162 0
M  V30 6518 H 625.126 4.10134 -2.7947 0
M  V30 6519 H 620.382 4.48544 -4.15473 0
M  V30 6520 H 624.556 4.72986 -5.11133 0
M  V30 6521 H 622.183 4.91856 -5.79639 0
M  V30 6522 N 623.758 0.647228 1.43697 0
M  V30 6523 C 625.004 0.158422 2.0218 0
M  V30 6524 C 625.337 -1.22233 1.50907 0
M  V30 6525 O 624.612 -1.81478 0.699702 0
M  V30 6526 C 624.895 0.1627 3.59732 0
M  V30 6527 C 624.748 1.57694 4.21251 0
M  V30 6528 C 626.067 -0.504138 4.37203 0
M  V30 6529 H 623.186 0.059042 0.734631 0
M  V30 6530 H 625.828 0.826772 1.71069 0
M  V30 6531 H 623.978 -0.406414 3.86368 0
M  V30 6532 H 625.65 2.19618 4.05667 0
M  V30 6533 H 623.893 2.12603 3.7813 0
M  V30 6534 H 624.564 1.53183 5.3032 0
M  V30 6535 H 627.04 -0.0199841 4.16095 0
M  V30 6536 H 625.916 -0.470394 5.46881 0
M  V30 6537 H 626.177 -1.57726 4.13007 0
M  V30 6538 N 625.236 -1.5273 0.388769 0
M  V30 6539 C 626.461 -2.0647 -0.19621 0
M  V30 6540 C 626.886 -1.25865 -1.39784 0
M  V30 6541 O 626.244 -0.283562 -1.79069 0
M  V30 6542 C 626.292 -3.56456 -0.5451 0
M  V30 6543 O 625.396 -3.78426 -1.63912 0
M  V30 6544 H 624.737 -0.663599 -0.023067 0
M  V30 6545 H 627.267 -1.96898 0.556084 0
M  V30 6546 H 627.277 -3.99888 -0.809557 0
M  V30 6547 H 625.952 -4.14561 0.333417 0
M  V30 6548 H 624.529 -3.46884 -1.36842 0
M  V30 6549 N 626.714 -0.118576 -1.57153 0
M  V30 6550 C 627.939 0.550582 -1.99958 0
M  V30 6551 C 628.364 1.59458 -0.997736 0
M  V30 6552 O 627.722 1.81274 0.0306269 0
M  V30 6553 C 627.77 1.15379 -3.41643 0
M  V30 6554 O 626.874 2.26932 -3.44348 0
M  V30 6555 H 626.215 0.137567 -0.649593 0
M  V30 6556 H 628.745 -0.206926 -2.03551 0
M  V30 6557 H 628.755 1.48942 -3.79843 0
M  V30 6558 H 627.43 0.389087 -4.14076 0
M  V30 6559 H 626.007 1.94812 -3.17967 0
M  V30 6560 N 628.193 1.56834 0.155195 0
M  V30 6561 C 629.423 1.86778 0.883044 0
M  V30 6562 C 629.831 0.703824 1.75622 0
M  V30 6563 O 629.174 -0.33581 1.80605 0
M  V30 6564 C 629.236 3.1133 1.79761 0
M  V30 6565 C 628.9 4.43504 1.10242 0
M  V30 6566 C 629.897 5.17859 0.460204 0
M  V30 6567 C 627.582 4.90233 1.09437 0
M  V30 6568 C 629.576 6.37144 -0.180782 0
M  V30 6569 C 627.263 6.09444 0.449569 0
M  V30 6570 C 628.261 6.82744 -0.186888 0
M  V30 6571 O 627.949 7.99692 -0.821486 0
M  V30 6572 H 627.681 0.62352 0.261149 0
M  V30 6573 H 630.235 2.04813 0.155204 0
M  V30 6574 H 628.465 2.89282 2.56618 0
M  V30 6575 H 630.154 3.27587 2.39669 0
M  V30 6576 H 630.92 4.8283 0.458289 0
M  V30 6577 H 626.799 4.33109 1.57917 0
M  V30 6578 H 630.343 6.94296 -0.678154 0
M  V30 6579 H 626.24 6.43936 0.449123 0
M  V30 6580 H 627.008 8.15306 -0.722337 0
M  V30 6581 N 629.671 -0.424282 1.51781 0
M  V30 6582 C 630.917 -1.17434 1.6534 0
M  V30 6583 C 631.25 -1.90549 0.374806 0
M  V30 6584 O 630.525 -1.84145 -0.626179 0
M  V30 6585 C 630.808 -2.18093 2.86544 0
M  V30 6586 C 630.661 -1.48975 4.24413 0
M  V30 6587 C 631.98 -3.18934 3.03264 0
M  V30 6588 H 629.099 -0.425566 0.601716 0
M  V30 6589 H 631.741 -0.461921 1.84299 0
M  V30 6590 H 629.891 -2.78849 2.7051 0
M  V30 6591 H 631.563 -0.914551 4.52143 0
M  V30 6592 H 629.806 -0.791893 4.26511 0
M  V30 6593 H 630.477 -2.22347 5.05238 0
M  V30 6594 H 632.953 -2.68243 3.18096 0
M  V30 6595 H 631.829 -3.86645 3.89611 0
M  V30 6596 H 632.09 -3.85793 2.15908 0
M  V30 6597 N 631.149 -1.42148 -0.680565 0
M  V30 6598 C 632.374 -1.45901 -1.47403 0
M  V30 6599 C 632.799 -0.0700985 -1.87969 0
M  V30 6600 O 632.157 0.930145 -1.55621 0
M  V30 6601 C 632.205 -2.38661 -2.70321 0
M  V30 6602 O 631.309 -1.85399 -3.68376 0
M  V30 6603 H 630.65 -0.494565 -0.443059 0
M  V30 6604 H 633.18 -1.86774 -0.835251 0
M  V30 6605 H 633.19 -2.55046 -3.18458 0
M  V30 6606 H 631.865 -3.39571 -2.40134 0
M  V30 6607 H 630.442 -1.78541 -3.2738 0
M  V30 6608 N 632.627 0.916307 -1.28225 0
M  V30 6609 C 633.537 2.05165 -1.13775 0
M  V30 6610 C 634.553 1.73879 -0.0649418 0
M  V30 6611 O 635.729 1.99531 -0.273722 0
M  V30 6612 C 632.794 3.37385 -0.798267 0
M  V30 6613 C 631.855 3.82296 -1.95316 0
M  V30 6614 C 631.088 5.08206 -1.62978 0
M  V30 6615 O 631.311 5.6781 -0.542948 0
M  V30 6616 O 630.245 5.48768 -2.47261 0
M  V30 6617 H 634.071 2.20273 -2.09078 0
M  V30 6618 H 631.656 1.0373 -1.07519 0
M  V30 6619 H 633.538 4.16773 -0.62278 0
M  V30 6620 H 632.213 3.23458 0.125139 0
M  V30 6621 H 631.12 3.03746 -2.18378 0
M  V30 6622 H 632.453 4.00782 -2.85718 0
M  V30 6623 N 634.105 1.10431 1.1244 0
M  V30 6624 C 635.351 0.847972 1.84221 0
M  V30 6625 C 635.684 -0.624903 1.83871 0
M  V30 6626 O 634.959 -1.46074 1.28423 0
M  V30 6627 C 635.242 1.39695 3.319 0
M  V30 6628 C 635.095 2.93668 3.40704 0
M  V30 6629 C 636.414 1.03924 4.27654 0
M  V30 6630 H 633.533 0.309502 0.668863 0
M  V30 6631 H 636.175 1.36745 1.31912 0
M  V30 6632 H 634.325 0.955095 3.76577 0
M  V30 6633 H 635.997 3.46379 3.04662 0
M  V30 6634 H 634.24 3.30272 2.81252 0
M  V30 6635 H 634.911 3.27162 4.446 0
M  V30 6636 H 637.387 1.42049 3.91102 0
M  V30 6637 H 636.263 1.45027 5.29394 0
M  V30 6638 H 636.524 -0.051336 4.4207 0
M  V30 6639 N 635.583 -1.29855 0.893053 0
M  V30 6640 C 636.493 -2.31661 0.370157 0
M  V30 6641 C 637.509 -1.65677 -0.531723 0
M  V30 6642 O 638.685 -1.9691 -0.422902 0
M  V30 6643 C 635.75 -3.44388 -0.399741 0
M  V30 6644 C 634.811 -4.2598 0.532861 0
M  V30 6645 C 634.044 -5.33324 -0.200388 0
M  V30 6646 O 634.267 -5.52305 -1.42531 0
M  V30 6647 O 633.201 -6.00188 0.453668 0
M  V30 6648 H 637.027 -2.78354 1.2146 0
M  V30 6649 H 634.612 -1.34171 0.657153 0
M  V30 6650 H 636.494 -4.13037 -0.835358 0
M  V30 6651 H 635.169 -2.99815 -1.22035 0
M  V30 6652 H 634.076 -3.59998 1.01746 0
M  V30 6653 H 635.409 -4.74178 1.3197 0
M  V30 6654 N 637.061 -0.65484 -1.43351 0
M  V30 6655 C 638.31 -0.166215 -2.01014 0
M  V30 6656 C 638.623 1.22764 -1.52278 0
M  V30 6657 O 639.829 1.81156 -2.02224 0
M  V30 6658 C 638.285 -0.246341 -3.59056 0
M  V30 6659 C 637.893 -1.64299 -4.16785 0
M  V30 6660 C 639.637 0.184597 -4.24098 0
M  V30 6661 C 637.544 -1.67695 -5.67126 0
M  V30 6662 H 636.474 -0.0583769 -0.751737 0
M  V30 6663 H 639.125 -0.817111 -1.64303 0
M  V30 6664 H 637.507 0.472092 -3.93176 0
M  V30 6665 H 638.681 -2.3869 -3.94162 0
M  V30 6666 H 636.996 -2.02004 -3.6412 0
M  V30 6667 H 639.593 0.179088 -5.344 0
M  V30 6668 H 639.936 1.21632 -3.98135 0
M  V30 6669 H 640.469 -0.482141 -3.94867 0
M  V30 6670 H 637.208 -2.68783 -5.9786 0
M  V30 6671 H 636.728 -0.976313 -5.91801 0
M  V30 6672 H 638.407 -1.42142 -6.31193 0
M  V30 6673 N 638.539 1.52521 -0.396863 0
M  V30 6674 C 639.767 2.06091 0.18275 0
M  V30 6675 C 640.182 1.26796 1.39886 0
M  V30 6676 O 639.539 0.316585 1.79733 0
M  V30 6677 C 639.59 3.57362 0.545377 0
M  V30 6678 O 639.311 4.33656 -0.622428 0
M  V30 6679 C 640.812 4.27305 1.18004 0
M  V30 6680 H 638.032 0.670504 0.025789 0
M  V30 6681 H 640.576 1.96561 -0.564276 0
M  V30 6682 H 638.731 3.66941 1.2423 0
M  V30 6683 H 639.145 5.23507 -0.322662 0
M  V30 6684 H 640.619 5.34366 1.38408 0
M  V30 6685 H 641.096 3.83 2.1496 0
M  V30 6686 H 641.702 4.22064 0.523671 0
M  V30 6687 N 640.017 0.126909 1.57088 0
M  V30 6688 C 641.428 -0.397201 1.82426 0
M  V30 6689 C 641.779 -1.66084 1.04453 0
M  V30 6690 O 640.904 -2.14534 0.283552 0
M  V30 6691 C 641.499 -0.727411 3.30899 0
M  V30 6692 C 640.058 -1.19612 3.56889 0
M  V30 6693 C 639.205 -0.20885 2.76512 0
M  V30 6694 H 642.156 0.351924 1.54749 0
M  V30 6695 H 642.177 -1.58407 3.45959 0
M  V30 6696 H 641.689 0.19247 3.87622 0
M  V30 6697 H 639.79 -2.13263 3.05532 0
M  V30 6698 H 639.903 -1.13598 4.65438 0
M  V30 6699 H 638.267 -0.697479 2.44964 0
M  V30 6700 H 639.05 0.704267 3.35998 0
M  V30 6701 N 641.495 -1.56914 -0.146875 0
M  V30 6702 C 642.72 -1.87881 -0.878386 0
M  V30 6703 C 643.145 -0.715945 -1.73942 0
M  V30 6704 O 642.503 0.334447 -1.78189 0
M  V30 6705 C 642.551 -3.17431 -1.71084 0
M  V30 6706 O 641.655 -3.01374 -2.81509 0
M  V30 6707 H 640.996 -0.617289 -0.244644 0
M  V30 6708 H 643.526 -2.04136 -0.137654 0
M  V30 6709 H 643.536 -3.49455 -2.10582 0
M  V30 6710 H 642.211 -4.01671 -1.07856 0
M  V30 6711 H 640.788 -2.80758 -2.45416 0
M  V30 6712 N 642.974 0.416227 -1.52004 0
M  V30 6713 C 644.214 1.17307 -1.67387 0
M  V30 6714 C 644.578 1.87959 -0.39183 0
M  V30 6715 O 645.779 2.65472 -0.421671 0
M  V30 6716 C 644.05 2.14661 -2.85754 0
M  V30 6717 S 645.609 2.98549 -3.21581 0
M  V30 6718 H 642.427 0.397505 -0.5895 0
M  V30 6719 H 645.029 0.461431 -1.89976 0
M  V30 6720 H 643.733 1.61431 -3.77317 0
M  V30 6721 H 643.264 2.90375 -2.65417 0
M  V30 6722 H 645.279 4.16536 -2.69652 0
M  V30 6723 N 644.452 1.42507 0.673017 0
M  V30 6724 C 645.701 1.42364 1.42883 0
M  V30 6725 C 646.014 0.0441598 1.9555 0
M  V30 6726 O 647.22 -0.0798679 2.71382 0
M  V30 6727 C 645.676 2.5043 2.58482 0
M  V30 6728 C 645.284 3.94392 2.12506 0
M  V30 6729 C 647.028 2.59455 3.35981 0
M  V30 6730 C 644.935 4.93964 3.25198 0
M  V30 6731 H 643.865 0.52951 0.536782 0
M  V30 6732 H 646.516 1.68422 0.728448 0
M  V30 6733 H 644.898 2.1754 3.30896 0
M  V30 6734 H 646.072 4.36645 1.47233 0
M  V30 6735 H 644.387 3.89233 1.4794 0
M  V30 6736 H 646.984 3.31025 4.19912 0
M  V30 6737 H 647.327 1.63869 3.82691 0
M  V30 6738 H 647.86 2.91549 2.70637 0
M  V30 6739 H 644.599 5.91034 2.83477 0
M  V30 6740 H 644.119 4.56341 3.89247 0
M  V30 6741 H 645.798 5.15763 3.90637 0
M  V30 6742 N 645.93 -0.909495 1.28709 0
M  V30 6743 C 647.341 -1.47419 1.14563 0
M  V30 6744 C 647.692 -1.94432 -0.262832 0
M  V30 6745 O 646.817 -1.82842 -1.15748 0
M  V30 6746 C 647.412 -2.67933 2.07358 0
M  V30 6747 C 645.971 -3.20568 1.97264 0
M  V30 6748 C 645.118 -1.93269 1.98852 0
M  V30 6749 H 648.069 -0.721787 1.41336 0
M  V30 6750 H 648.09 -3.43339 1.64007 0
M  V30 6751 H 647.602 -2.33685 3.09859 0
M  V30 6752 H 645.703 -3.59531 0.978157 0
M  V30 6753 H 645.816 -3.85529 2.84436 0
M  V30 6754 H 644.18 -2.10553 1.43317 0
M  V30 6755 H 644.963 -1.61312 3.0304 0
M  V30 6756 N 647.408 -1.11026 -1.11852 0
M  V30 6757 C 648.654 -0.857729 -1.83768 0
M  V30 6758 C 648.987 0.615143 -1.842 0
M  V30 6759 O 648.262 1.45391 -1.29196 0
M  V30 6760 C 648.545 -1.41453 -3.31154 0
M  V30 6761 C 648.398 -2.95471 -3.39142 0
M  V30 6762 C 649.717 -1.0619 -4.27097 0
M  V30 6763 H 646.836 -0.313044 -0.667212 0
M  V30 6764 H 649.478 -1.37443 -1.31185 0
M  V30 6765 H 647.628 -0.975052 -3.76065 0
M  V30 6766 H 649.3 -3.4799 -3.02821 0
M  V30 6767 H 647.543 -3.31759 -2.79497 0
M  V30 6768 H 648.214 -3.29515 -4.42859 0
M  V30 6769 H 650.69 -1.44122 -3.90344 0
M  V30 6770 H 649.566 -1.47832 -5.28618 0
M  V30 6771 H 649.827 0.0278912 -4.42091 0
M  V30 6772 N 648.886 1.2938 -0.899927 0
M  V30 6773 C 650.132 1.9584 -0.526742 0
M  V30 6774 C 650.465 1.70774 0.924651 0
M  V30 6775 O 649.74 1.02084 1.65557 0
M  V30 6776 C 650.023 3.50638 -0.820062 0
M  V30 6777 C 649.876 3.85161 -2.32317 0
M  V30 6778 C 651.195 4.3903 -0.30671 0
M  V30 6779 H 648.314 0.711322 -0.192848 0
M  V30 6780 H 650.956 1.52992 -1.12665 0
M  V30 6781 H 649.106 3.87265 -0.309491 0
M  V30 6782 H 650.778 3.58477 -2.9033 0
M  V30 6783 H 649.021 3.32696 -2.78381 0
M  V30 6784 H 649.692 4.93204 -2.47898 0
M  V30 6785 H 652.168 4.09396 -0.743908 0
M  V30 6786 H 651.044 5.46226 -0.541144 0
M  V30 6787 H 651.305 4.34937 0.792588 0
M  V30 6788 N 650.364 0.662433 1.43002 0
M  V30 6789 C 651.592 0.187615 2.06048 0
M  V30 6790 C 652.007 -1.15039 1.49705 0
M  V30 6791 O 651.364 -1.71209 0.631956 0
M  V30 6792 C 651.415 0.100498 3.6136 0
M  V30 6793 O 651.136 1.38562 4.15611 0
M  V30 6794 C 652.637 -0.399298 4.41498 0
M  V30 6795 H 649.857 0.0941675 0.664359 0
M  V30 6796 H 652.401 0.905681 1.83351 0
M  V30 6797 H 650.556 -0.568181 3.83211 0
M  V30 6798 H 650.97 1.25084 5.09366 0
M  V30 6799 H 652.444 -0.409187 5.50481 0
M  V30 6800 H 652.921 -1.43232 4.15188 0
M  V30 6801 H 653.527 0.23721 4.24638 0
M  V30 6802 N 651.842 -1.52309 0.404946 0
M  V30 6803 C 652.79 -2.28452 -0.437321 0
M  V30 6804 C 653.784 -1.32975 -1.04948 0
M  V30 6805 O 654.99 -1.50451 -0.988159 0
M  V30 6806 H 651.365 -0.734824 -0.159805 0
M  V30 6807 H 653.336 -2.97542 0.22615 0
M  V30 6808 C 652.085 -3.11536 -1.54404 0
M  V30 6809 H 651.408 -3.84871 -1.08233 0
M  V30 6810 H 652.848 -3.67926 -2.10729 0
M  V30 6811 C 651.307 -2.24833 -2.50902 0
M  V30 6812 O 651.837 -1.88574 -3.54687 0
M  V30 6813 N 650.043 -1.88685 -2.21012 0
M  V30 6814 H 649.59 -2.18371 -1.36646 0
M  V30 6815 H 649.548 -1.30966 -2.85824 0
M  V30 6816 N 653.32 -0.135238 -1.57019 0
M  V30 6817 C 654.253 0.846618 -2.11914 0
M  V30 6818 C 655.231 1.25019 -1.03966 0
M  V30 6819 O 656.415 1.34838 -1.31723 0
M  V30 6820 C 653.542 2.1352 -2.6292 0
M  V30 6821 C 652.588 1.87846 -3.82905 0
M  V30 6822 S 653.421 1.08005 -5.24495 0
M  V30 6823 C 654.577 2.38008 -5.78881 0
M  V30 6824 H 654.81 0.379752 -2.94865 0
M  V30 6825 H 652.343 0.0788387 -1.54199 0
M  V30 6826 H 654.301 2.87551 -2.92958 0
M  V30 6827 H 652.962 2.57323 -1.80121 0
M  V30 6828 H 652.155 2.83365 -4.16797 0
M  V30 6829 H 651.757 1.21929 -3.53567 0
M  V30 6830 H 654.049 3.33742 -5.89595 0
M  V30 6831 H 654.992 2.08638 -6.76665 0
M  V30 6832 H 655.4 2.48119 -5.07048 0
M  V30 6833 N 654.798 1.5699 0.138552 0
M  V30 6834 C 655.708 2.02174 1.19008 0
M  V30 6835 C 656.724 0.938622 1.46512 0
M  V30 6836 O 657.9 1.24872 1.58016 0
M  V30 6837 C 654.965 2.40045 2.50159 0
M  V30 6838 C 654.026 3.62346 2.30226 0
M  V30 6839 C 653.259 3.98401 3.55123 0
M  V30 6840 O 653.482 3.35019 4.61647 0
M  V30 6841 O 652.416 4.91606 3.47285 0
M  V30 6842 H 656.242 2.91954 0.836452 0
M  V30 6843 H 653.827 1.45293 0.347907 0
M  V30 6844 H 655.709 2.65225 3.27465 0
M  V30 6845 H 654.384 1.53417 2.85035 0
M  V30 6846 H 653.291 3.42341 1.50843 0
M  V30 6847 H 654.624 4.49617 2.00262 0
M  V30 6848 N 656.276 -0.40816 1.52223 0
M  V30 6849 C 657.239 -1.48 1.7501 0
M  V30 6850 C 658.239 -1.48367 0.619996 0
M  V30 6851 O 659.429 -1.49874 0.887881 0
M  V30 6852 C 656.561 -2.87403 1.83336 0
M  V30 6853 H 657.754 -1.29086 2.70697 0
M  V30 6854 H 655.307 -0.638715 1.42654 0
M  V30 6855 H 656.042 -3.11686 0.895677 0
M  V30 6856 H 655.827 -2.8854 2.65494 0
M  V30 6857 H 657.317 -3.65103 2.02705 0
M  V30 6858 N 657.755 -1.42862 -0.66545 0
M  V30 6859 C 659.002 -1.4383 -1.42546 0
M  V30 6860 C 659.33 -0.0581114 -1.94413 0
M  V30 6861 O 658.585 0.935002 -1.71919 0
M  V30 6862 C 658.884 -2.4175 -2.63233 0
M  V30 6863 C 658.55 -3.87915 -2.29854 0
M  V30 6864 C 657.212 -4.27726 -2.20463 0
M  V30 6865 C 659.564 -4.80074 -2.02924 0
M  V30 6866 C 656.892 -5.57666 -1.82279 0
M  V30 6867 C 659.244 -6.10366 -1.66242 0
M  V30 6868 C 657.908 -6.49167 -1.55367 0
M  V30 6869 H 657.178 -0.52631 -0.521612 0
M  V30 6870 H 659.825 -1.75863 -0.757914 0
M  V30 6871 H 658.13 -2.03077 -3.35063 0
M  V30 6872 H 659.827 -2.39759 -3.21429 0
M  V30 6873 H 656.417 -3.564 -2.3807 0
M  V30 6874 H 660.601 -4.50097 -2.09108 0
M  V30 6875 H 655.857 -5.8658 -1.72436 0
M  V30 6876 H 660.031 -6.81258 -1.44432 0
M  V30 6877 H 657.658 -7.49761 -1.2555 0
M  V30 6878 N 659.233 0.902656 -1.29189 0
M  V30 6879 C 660.458 1.69167 -1.19989 0
M  V30 6880 C 660.883 1.86607 0.236495 0
M  V30 6881 O 660.241 1.38425 1.17082 0
M  V30 6882 C 660.289 3.05532 -1.91527 0
M  V30 6883 O 659.393 3.93621 -1.2303 0
M  V30 6884 H 658.734 0.517584 -0.415936 0
M  V30 6885 H 661.264 1.12785 -1.70706 0
M  V30 6886 H 661.274 3.55693 -1.99866 0
M  V30 6887 H 659.949 2.92156 -2.96003 0
M  V30 6888 H 658.526 3.52055 -1.22928 0
M  V30 6889 N 660.711 1.11618 1.11262 0
M  V30 6890 C 661.936 0.889013 1.8738 0
M  V30 6891 C 662.361 -0.555884 1.79698 0
M  V30 6892 O 661.719 -1.39272 1.16073 0
M  V30 6893 C 661.767 1.35759 3.34069 0
M  V30 6894 O 660.871 0.530499 4.08974 0
M  V30 6895 H 660.212 0.320082 0.581759 0
M  V30 6896 H 662.742 1.48611 1.40627 0
M  V30 6897 H 662.752 1.35291 3.84916 0
M  V30 6898 H 661.427 2.40973 3.38976 0
M  V30 6899 H 660.004 0.601439 3.68018 0
M  V30 6900 N 662.189 -1.289 0.906776 0
M  V30 6901 C 663.099 -2.31256 0.394707 0
M  V30 6902 C 664.115 -1.66231 -0.514121 0
M  V30 6903 O 665.291 -1.97347 -0.401994 0
M  V30 6904 C 662.356 -3.44792 -0.363191 0
M  V30 6905 C 661.417 -4.25391 0.578012 0
M  V30 6906 C 660.65 -5.33506 -0.143811 0
M  V30 6907 O 660.873 -5.53786 -1.36665 0
M  V30 6908 O 659.807 -5.99673 0.5173 0
M  V30 6909 H 663.633 -2.77051 1.24405 0
M  V30 6910 H 661.218 -1.33466 0.671346 0
M  V30 6911 H 663.1 -4.139 -0.791503 0
M  V30 6912 H 661.775 -3.01093 -1.18848 0
M  V30 6913 H 660.682 -3.58899 1.05558 0
M  V30 6914 H 662.015 -4.72752 1.36992 0
M  V30 6915 N 663.667 -0.670007 -1.42649 0
M  V30 6916 C 664.617 0.0339546 -2.27975 0
M  V30 6917 C 665.601 0.778295 -1.40824 0
M  V30 6918 O 666.793 0.657997 -1.64315 0
M  V30 6919 C 663.922 0.987899 -3.28779 0
M  V30 6920 C 663.008 0.241153 -4.23414 0
M  V30 6921 N 663.399 -0.751392 -5.00188 0
M  V30 6922 C 661.697 0.480269 -4.43407 0
M  V30 6923 C 662.398 -1.19615 -5.69269 0
M  V30 6924 N 661.374 -0.527045 -5.41039 0
M  V30 6925 H 665.176 -0.727425 -2.84756 0
M  V30 6926 H 662.69 -0.498673 -1.54554 0
M  V30 6927 H 664.687 1.50716 -3.88703 0
M  V30 6928 H 663.347 1.74916 -2.73559 0
M  V30 6929 H 664.358 -1.13075 -5.05405 0
M  V30 6930 H 661.035 1.2214 -3.99234 0
M  V30 6931 H 662.425 -2.01836 -6.40868 0
M  V30 6932 N 665.145 1.52092 -0.413018 0
M  V30 6933 C 666.392 2.01855 0.161497 0
M  V30 6934 C 666.72 1.29845 1.44812 0
M  V30 6935 O 665.975 0.394471 1.91683 0
M  V30 6936 C 666.274 3.54529 0.4521 0
M  V30 6937 C 665.94 4.4469 -0.745788 0
M  V30 6938 C 664.602 4.69053 -1.07435 0
M  V30 6939 C 666.954 4.97742 -1.54604 0
M  V30 6940 C 664.282 5.43717 -2.20429 0
M  V30 6941 C 666.634 5.73642 -2.66678 0
M  V30 6942 C 665.298 5.96277 -3.00016 0
M  V30 6943 H 664.568 0.73864 0.0590961 0
M  V30 6944 H 667.215 1.83274 -0.555234 0
M  V30 6945 H 665.52 3.7131 1.25045 0
M  V30 6946 H 667.217 3.90546 0.909647 0
M  V30 6947 H 663.807 4.25907 -0.479725 0
M  V30 6948 H 667.991 4.78824 -1.30543 0
M  V30 6949 H 663.247 5.59462 -2.46602 0
M  V30 6950 H 667.421 6.13746 -3.29072 0
M  V30 6951 H 665.048 6.53913 -3.87688 0
M  V30 6952 N 666.623 0.143563 1.56945 0
M  V30 6953 C 667.571 -0.814556 2.17871 0
M  V30 6954 C 668.565 -1.25778 1.13474 0
M  V30 6955 O 669.771 -1.22666 1.31731 0
M  V30 6956 H 666.146 -0.280873 0.697578 0
M  V30 6957 H 668.117 -0.276459 2.97117 0
M  V30 6958 C 666.866 -2.04503 2.81201 0
M  V30 6959 H 666.189 -1.71296 3.61245 0
M  V30 6960 H 667.629 -2.69493 3.27337 0
M  V30 6961 C 666.088 -2.85079 1.79532 0
M  V30 6962 O 666.618 -3.81306 1.26368 0
M  V30 6963 N 664.824 -2.49546 1.48913 0
M  V30 6964 H 664.371 -1.71359 1.92338 0
M  V30 6965 H 664.329 -3.03751 0.811348 0
M  V30 6966 N 668.101 -1.57061 -0.130224 0
M  V30 6967 C 669.031 -2.02552 -1.16168 0
M  V30 6968 C 670.012 -0.907971 -1.4384 0
M  V30 6969 O 671.197 -1.17693 -1.54473 0
M  V30 6970 C 668.327 -2.42035 -2.49071 0
M  V30 6971 C 667.281 -3.5713 -2.35886 0
M  V30 6972 C 666.607 -3.82478 -3.7365 0
M  V30 6973 C 667.907 -4.89236 -1.8288 0
M  V30 6974 H 669.601 -2.8897 -0.783359 0
M  V30 6975 H 667.147 -1.39021 -0.375376 0
M  V30 6976 H 669.1 -2.72462 -3.21469 0
M  V30 6977 H 667.824 -1.52573 -2.88771 0
M  V30 6978 H 666.483 -3.26895 -1.65938 0
M  V30 6979 H 666.131 -2.9024 -4.10816 0
M  V30 6980 H 665.831 -4.59944 -3.65685 0
M  V30 6981 H 667.355 -4.15347 -4.47571 0
M  V30 6982 H 668.769 -5.18272 -2.45085 0
M  V30 6983 H 667.166 -5.70624 -1.85763 0
M  V30 6984 H 668.236 -4.78494 -0.785571 0
M  V30 6985 N 669.579 0.400081 -1.52437 0
M  V30 6986 C 670.489 1.51253 -1.79331 0
M  V30 6987 C 671.505 1.60188 -0.679396 0
M  V30 6988 O 672.681 1.76733 -0.965791 0
M  V30 6989 C 669.746 2.869 -1.94652 0
M  V30 6990 C 668.807 2.87777 -3.18564 0
M  V30 6991 C 668.04 4.16954 -3.33145 0
M  V30 6992 O 668.263 5.11329 -2.52783 0
M  V30 6993 O 667.197 4.2487 -4.26343 0
M  V30 6994 H 671.023 1.31461 -2.73773 0
M  V30 6995 H 668.608 0.586834 -1.37392 0
M  V30 6996 H 670.49 3.67336 -2.065 0
M  V30 6997 H 669.165 3.06741 -1.034 0
M  V30 6998 H 668.072 2.06162 -3.12167 0
M  V30 6999 H 669.405 2.72886 -4.09627 0
M  V30 7000 N 671.057 1.43213 0.657864 0
M  V30 7001 C 672.306 1.43871 1.41365 0
M  V30 7002 C 672.619 0.064898 1.95492 0
M  V30 7003 O 673.825 -0.0510796 2.71452 0
M  V30 7004 C 672.281 2.53158 2.55811 0
M  V30 7005 C 671.889 3.96624 2.08311 0
M  V30 7006 C 673.633 2.63004 3.3321 0
M  V30 7007 C 671.54 4.97385 3.1994 0
M  V30 7008 H 670.47 0.535174 0.531136 0
M  V30 7009 H 673.121 1.69185 0.710543 0
M  V30 7010 H 671.503 2.21037 3.2857 0
M  V30 7011 H 672.677 4.38182 1.42593 0
M  V30 7012 H 670.992 3.90781 1.43804 0
M  V30 7013 H 673.589 3.3546 4.16378 0
M  V30 7014 H 673.932 1.67918 3.80932 0
M  V30 7015 H 674.465 2.94403 2.67529 0
M  V30 7016 H 671.204 5.94007 2.77192 0
M  V30 7017 H 670.724 4.60444 3.84385 0
M  V30 7018 H 672.403 5.19877 3.85145 0
M  V30 7019 N 672.536 -0.895792 1.29666 0
M  V30 7020 C 673.766 -1.67757 1.20586 0
M  V30 7021 C 674.174 -1.87729 -0.235432 0
M  V30 7022 O 673.517 -1.41706 -1.16898 0
M  V30 7023 C 673.579 -3.08117 1.85215 0
M  V30 7024 C 673.243 -3.1136 3.3452 0
M  V30 7025 C 674.24 -2.91217 4.30684 0
M  V30 7026 C 671.925 -3.33302 3.75786 0
M  V30 7027 C 673.919 -2.92955 5.66089 0
M  V30 7028 C 671.606 -3.3467 5.11311 0
M  V30 7029 C 672.604 -3.14519 6.06273 0
M  V30 7030 O 672.292 -3.15684 7.39323 0
M  V30 7031 H 672.024 -0.530601 0.418854 0
M  V30 7032 H 674.578 -1.12831 1.71634 0
M  V30 7033 H 672.808 -3.64661 1.28683 0
M  V30 7034 H 674.497 -3.68399 1.70403 0
M  V30 7035 H 675.263 -2.74074 4.00136 0
M  V30 7036 H 671.142 -3.48025 3.02324 0
M  V30 7037 H 674.686 -2.77145 6.40185 0
M  V30 7038 H 670.583 -3.51346 5.41504 0
M  V30 7039 H 671.351 -3.31924 7.48177 0
M  V30 7040 N 674.014 -1.12206 -1.10668 0
M  V30 7041 C 675.43 -0.857619 -1.346 0
M  V30 7042 C 675.63 0.513542 -1.94846 0
M  V30 7043 O 674.686 1.26273 -2.18658 0
M  V30 7044 C 675.999 -1.97212 -2.26998 0
M  V30 7045 C 677.547 -2.00272 -2.40542 0
M  V30 7046 C 678.022 -3.10948 -3.36267 0
M  V30 7047 N 679.513 -3.10375 -3.43834 0
M  V30 7048 C 680.248 -3.92651 -4.17867 0
M  V30 7049 N 679.744 -4.84911 -4.94807 0
M  V30 7050 N 681.537 -3.80798 -4.1346 0
M  V30 7051 H 673.688 -2.00558 -0.699306 0
M  V30 7052 H 675.951 -0.872612 -0.370477 0
M  V30 7053 H 675.657 -2.96002 -1.89936 0
M  V30 7054 H 675.531 -1.87521 -3.27286 0
M  V30 7055 H 677.918 -1.02103 -2.76874 0
M  V30 7056 H 677.999 -2.14037 -1.40077 0
M  V30 7057 H 677.643 -4.09348 -3.00661 0
M  V30 7058 H 677.573 -2.94421 -4.36605 0
M  V30 7059 H 680.064 -2.43536 -2.88961 0
M  V30 7060 H 680.377 -5.44207 -5.48688 0
M  V30 7061 H 678.722 -4.88926 -4.93939 0
M  V30 7062 H 681.913 -3.08058 -3.52445 0
M  V30 7063 H 682.086 -4.4515 -4.70898 0
M  V30 7064 N 675.492 1.28418 -0.913599 0
M  V30 7065 C 676.424 2.26368 -0.359169 0
M  V30 7066 C 677.437 1.54858 0.502285 0
M  V30 7067 O 678.626 1.75659 0.31719 0
M  V30 7068 C 675.726 3.35112 0.50526 0
M  V30 7069 C 674.899 4.36126 -0.333648 0
M  V30 7070 C 673.958 5.24134 0.465845 0
M  V30 7071 O 672.984 5.6907 -0.121538 0
M  V30 7072 N 674.186 5.52892 1.76891 0
M  V30 7073 H 676.951 2.74579 -1.2011 0
M  V30 7074 H 674.512 1.41898 -0.779532 0
M  V30 7075 H 676.504 3.90926 1.04684 0
M  V30 7076 H 675.074 2.86611 1.2479 0
M  V30 7077 H 674.294 3.79776 -1.0566 0
M  V30 7078 H 675.582 5.00638 -0.907669 0
M  V30 7079 H 674.98 5.18217 2.26865 0
M  V30 7080 H 673.537 6.11464 2.25732 0
M  V30 7081 N 676.97 0.677563 1.42291 0
M  V30 7082 C 677.918 -0.0106755 2.32598 0
M  V30 7083 C 678.912 -0.787643 1.49975 0
M  V30 7084 O 680.118 -0.695295 1.66029 0
M  V30 7085 H 676.493 -0.0222482 0.751671 0
M  V30 7086 H 678.464 0.768312 2.88339 0
M  V30 7087 C 677.213 -0.946142 3.3458 0
M  V30 7088 H 676.536 -0.357701 3.98197 0
M  V30 7089 H 677.976 -1.39634 4.00348 0
M  V30 7090 C 676.435 -2.05383 2.67057 0
M  V30 7091 O 676.965 -3.1406 2.50458 0
M  V30 7092 N 675.171 -1.82635 2.26038 0
M  V30 7093 H 674.718 -0.942534 2.39737 0
M  V30 7094 H 674.676 -2.56937 1.81192 0
M  V30 7095 N 678.448 -1.51871 0.421078 0
M  V30 7096 C 679.378 -2.30231 -0.389363 0
M  V30 7097 C 680.359 -1.34946 -1.03555 0
M  V30 7098 O 681.544 -1.63859 -1.04229 0
M  V30 7099 C 678.674 -3.13247 -1.49979 0
M  V30 7100 C 677.628 -4.16677 -0.977966 0
M  V30 7101 C 676.954 -4.88112 -2.1829 0
M  V30 7102 C 678.254 -5.22295 -0.0236775 0
M  V30 7103 H 679.948 -2.98229 0.264524 0
M  V30 7104 H 677.494 -1.43424 0.12866 0
M  V30 7105 H 679.447 -3.66838 -2.07383 0
M  V30 7106 H 678.171 -2.4304 -2.18173 0
M  V30 7107 H 676.83 -3.64114 -0.426245 0
M  V30 7108 H 676.478 -4.14423 -2.85066 0
M  V30 7109 H 676.178 -5.58041 -1.84021 0
M  V30 7110 H 677.702 -5.44521 -2.76278 0
M  V30 7111 H 679.116 -5.71055 -0.506899 0
M  V30 7112 H 677.513 -5.99656 0.230782 0
M  V30 7113 H 678.583 -4.76131 0.917999 0
M  V30 7114 N 679.926 -0.151884 -1.56866 0
M  V30 7115 C 680.858 0.817008 -2.14144 0
M  V30 7116 C 681.871 1.20735 -1.0921 0
M  V30 7117 O 683.06 1.15058 -1.36469 0
M  V30 7118 C 680.16 2.10844 -2.65326 0
M  V30 7119 C 679.333 1.88471 -3.94712 0
M  V30 7120 C 678.392 3.01649 -4.31155 0
M  V30 7121 O 677.418 2.73127 -4.9939 0
M  V30 7122 N 678.62 4.28947 -3.91132 0
M  V30 7123 H 681.385 0.327448 -2.97906 0
M  V30 7124 H 678.946 0.0315313 -1.61869 0
M  V30 7125 H 680.938 2.85616 -2.86715 0
M  V30 7126 H 679.508 2.51049 -1.86262 0
M  V30 7127 H 678.728 0.977088 -3.81899 0
M  V30 7128 H 680.016 1.70866 -4.79252 0
M  V30 7129 H 679.414 4.54986 -3.36161 0
M  V30 7130 H 677.971 5.00484 -4.17563 0
M  V30 7131 N 681.404 1.57128 0.121893 0
M  V30 7132 C 682.632 1.88883 0.844451 0
M  V30 7133 C 683.047 0.742824 1.73573 0
M  V30 7134 O 682.404 -0.286475 1.80238 0
M  V30 7135 C 682.455 3.20076 1.68029 0
M  V30 7136 O 682.176 4.30264 0.824898 0
M  V30 7137 C 683.677 3.65515 2.50826 0
M  V30 7138 H 680.897 0.62549 0.242907 0
M  V30 7139 H 683.441 2.04219 0.107151 0
M  V30 7140 H 681.596 3.06418 2.37038 0
M  V30 7141 H 682.01 5.05439 1.40113 0
M  V30 7142 H 683.484 4.60081 3.05008 0
M  V30 7143 H 683.961 2.92029 3.28048 0
M  V30 7144 H 684.567 3.81952 1.87064 0
M  V30 7145 N 682.882 -0.391992 1.52647 0
M  V30 7146 C 683.829 -1.47866 1.77213 0
M  V30 7147 C 684.799 -1.54286 0.615223 0
M  V30 7148 O 685.984 -1.7059 0.854622 0
M  V30 7149 C 683.124 -2.85129 1.94411 0
M  V30 7150 C 682.237 -2.87883 3.22098 0
M  V30 7151 C 681.372 -4.16553 3.29631 0
M  V30 7152 C 680.411 -4.13348 4.51453 0
M  V30 7153 N 679.548 -5.33619 4.56284 0
M  V30 7154 H 684.388 -1.26219 2.6995 0
M  V30 7155 H 681.925 -0.612367 1.33748 0
M  V30 7156 H 683.883 -3.64833 2.02367 0
M  V30 7157 H 682.513 -3.05232 1.05038 0
M  V30 7158 H 681.565 -2.00567 3.23229 0
M  V30 7159 H 682.877 -2.81382 4.11856 0
M  V30 7160 H 682.031 -5.0466 3.36753 0
M  V30 7161 H 680.77 -4.25773 2.37842 0
M  V30 7162 H 679.775 -3.23629 4.44459 0
M  V30 7163 H 681 -4.05754 5.44555 0
M  V30 7164 H 678.946 -5.43474 3.67385 0
M  V30 7165 H 678.863 -5.29182 5.3991 0
M  V30 7166 H 680.131 -6.23632 4.67657 0
M  V30 7167 N 684.36 -1.4356 -0.65026 0
M  V30 7168 C 685.292 -1.44918 -1.77571 0
M  V30 7169 C 686.305 -0.344925 -1.59104 0
M  V30 7170 O 687.494 -0.609537 -1.6777 0
M  V30 7171 C 684.594 -1.24914 -3.15039 0
M  V30 7172 C 683.767 -2.48232 -3.60138 0
M  V30 7173 C 682.826 -2.23409 -4.76419 0
M  V30 7174 O 681.852 -2.9678 -4.85706 0
M  V30 7175 N 683.054 -1.25259 -5.66825 0
M  V30 7176 H 685.819 -2.41935 -1.76883 0
M  V30 7177 H 683.38 -1.38754 -0.834202 0
M  V30 7178 H 685.372 -1.06185 -3.90521 0
M  V30 7179 H 683.942 -0.363319 -3.10481 0
M  V30 7180 H 683.162 -2.82366 -2.75069 0
M  V30 7181 H 684.45 -3.30296 -3.87017 0
M  V30 7182 H 683.848 -0.646246 -5.61997 0
M  V30 7183 H 682.405 -1.12513 -6.42016 0
M  V30 7184 N 685.838 0.888903 -1.30139 0
M  V30 7185 C 686.768 2.01046 -1.18755 0
M  V30 7186 C 687.749 1.69916 -0.0791438 0
M  V30 7187 O 688.934 1.92445 -0.260498 0
M  V30 7188 C 686.064 3.36109 -0.874518 0
M  V30 7189 C 685.018 3.81486 -1.94043 0
M  V30 7190 C 684.344 5.13796 -1.48047 0
M  V30 7191 C 685.644 4.00637 -3.35093 0
M  V30 7192 H 687.338 2.10828 -2.12584 0
M  V30 7193 H 684.884 1.01298 -1.02346 0
M  V30 7194 H 686.837 4.14089 -0.781548 0
M  V30 7195 H 685.561 3.26449 0.0994519 0
M  V30 7196 H 684.22 3.05731 -2.02297 0
M  V30 7197 H 683.868 5.0056 -0.494878 0
M  V30 7198 H 683.568 5.45127 -2.19341 0
M  V30 7199 H 685.092 5.94305 -1.40121 0
M  V30 7200 H 686.506 4.69067 -3.2962 0
M  V30 7201 H 684.903 4.43339 -4.04438 0
M  V30 7202 H 685.973 3.0462 -3.77273 0
M  V30 7203 N 687.317 1.12792 1.10072 0
M  V30 7204 C 688.565 0.883796 1.81751 0
M  V30 7205 C 688.886 -0.591891 1.858 0
M  V30 7206 O 688.156 -1.43017 1.33876 0
M  V30 7207 H 686.736 0.323978 0.673088 0
M  V30 7208 H 689.398 1.42314 1.33164 0
M  V30 7209 H 688.494 1.26863 2.85153 0
M  V30 7210 N 688.795 -1.27931 0.920396 0
M  V30 7211 C 689.742 -2.27085 0.412422 0
M  V30 7212 C 690.712 -1.57858 -0.516725 0
M  V30 7213 O 691.897 -1.85717 -0.437475 0
M  V30 7214 C 689.037 -3.43466 -0.335399 0
M  V30 7215 C 688.15 -4.27425 0.627017 0
M  V30 7216 C 687.285 -5.31016 -0.139916 0
M  V30 7217 C 686.324 -6.06641 0.815683 0
M  V30 7218 N 685.461 -7.02052 0.0818439 0
M  V30 7219 H 690.301 -2.69913 1.26298 0
M  V30 7220 H 687.838 -1.32732 0.634076 0
M  V30 7221 H 689.796 -4.09744 -0.785226 0
M  V30 7222 H 688.426 -3.01611 -1.15025 0
M  V30 7223 H 687.478 -3.6113 1.19537 0
M  V30 7224 H 688.79 -4.79969 1.35763 0
M  V30 7225 H 687.944 -6.03208 -0.649998 0
M  V30 7226 H 686.683 -4.79257 -0.903543 0
M  V30 7227 H 685.688 -5.33294 1.33708 0
M  V30 7228 H 686.913 -6.60489 1.57897 0
M  V30 7229 H 684.859 -6.52634 -0.663671 0
M  V30 7230 H 684.776 -7.52249 0.752163 0
M  V30 7231 H 686.044 -7.78432 -0.407825 0
M  V30 7232 N 690.273 -0.685099 -1.4193 0
M  V30 7233 C 691.519 -0.211971 -2.01689 0
M  V30 7234 C 691.852 1.18189 -1.54094 0
M  V30 7235 O 691.127 1.79559 -0.747572 0
M  V30 7236 C 691.41 -0.258019 -3.59174 0
M  V30 7237 C 691.263 -1.68807 -4.16922 0
M  V30 7238 C 692.582 0.388044 -4.38386 0
M  V30 7239 H 689.701 -0.0784987 -0.732808 0
M  V30 7240 H 692.343 -0.871837 -1.68816 0
M  V30 7241 H 690.493 0.303832 -3.8731 0
M  V30 7242 H 692.165 -2.30296 -3.99702 0
M  V30 7243 H 690.408 -2.22553 -3.72361 0
M  V30 7244 H 691.079 -1.6719 -5.26072 0
M  V30 7245 H 693.555 -0.0903432 -4.16002 0
M  V30 7246 H 692.431 0.325232 -5.47936 0
M  V30 7247 H 692.692 1.4672 -4.17044 0
M  V30 7248 N 691.751 1.51645 -0.429126 0
M  V30 7249 C 693 2.01203 0.141538 0
M  V30 7250 C 693.313 1.31828 1.44502 0
M  V30 7251 O 694.519 1.7231 2.09813 0
M  V30 7252 C 692.975 3.58624 0.302786 0
M  V30 7253 C 692.583 4.3693 -0.989775 0
M  V30 7254 C 694.327 4.16353 0.827661 0
M  V30 7255 C 692.234 5.86037 -0.794619 0
M  V30 7256 H 691.164 0.751867 0.05667 0
M  V30 7257 H 693.815 1.74822 -0.557633 0
M  V30 7258 H 692.197 3.81417 1.06476 0
M  V30 7259 H 693.371 4.25887 -1.75945 0
M  V30 7260 H 691.686 3.90614 -1.44256 0
M  V30 7261 H 694.283 5.25455 0.990026 0
M  V30 7262 H 694.626 3.74995 1.80787 0
M  V30 7263 H 695.159 3.97606 0.124213 0
M  V30 7264 H 691.898 6.31792 -1.74697 0
M  V30 7265 H 691.418 5.99765 -0.0645968 0
M  V30 7266 H 693.097 6.45471 -0.444591 0
M  V30 7267 N 693.229 0.160201 1.56784 0
M  V30 7268 C 694.159 -0.770264 2.2043 0
M  V30 7269 C 695.14 -1.24736 1.15651 0
M  V30 7270 O 696.325 -1.30253 1.44041 0
M  V30 7271 C 693.455 -2.00427 2.83631 0
M  V30 7272 C 692.409 -1.66345 3.94352 0
M  V30 7273 C 691.735 -2.97119 4.4455 0
M  V30 7274 C 693.035 -0.899972 5.14488 0
M  V30 7275 H 694.729 -0.239783 2.98438 0
M  V30 7276 H 692.275 -0.113891 1.43549 0
M  V30 7277 H 694.228 -2.66012 3.26827 0
M  V30 7278 H 692.952 -2.5587 2.02973 0
M  V30 7279 H 691.611 -1.03133 3.51794 0
M  V30 7280 H 691.259 -3.5058 3.60698 0
M  V30 7281 H 690.959 -2.75073 5.19238 0
M  V30 7282 H 692.483 -3.63753 4.90425 0
M  V30 7283 H 693.897 -1.45818 5.54446 0
M  V30 7284 H 692.294 -0.778968 5.95023 0
M  V30 7285 H 693.364 0.105827 4.84785 0
M  V30 7286 N 694.707 -1.5719 -0.113559 0
M  V30 7287 C 695.954 -1.85138 -0.820382 0
M  V30 7288 C 696.282 -0.74608 -1.79622 0
M  V30 7289 O 695.537 0.262077 -1.93937 0
M  V30 7290 C 695.836 -3.19593 -1.59984 0
M  V30 7291 C 695.502 -4.44315 -0.767809 0
M  V30 7292 C 694.164 -4.78179 -0.538379 0
M  V30 7293 C 696.516 -5.2086 -0.188203 0
M  V30 7294 C 693.844 -5.86028 0.28082 0
M  V30 7295 C 696.196 -6.29572 0.618217 0
M  V30 7296 C 694.86 -6.61964 0.857912 0
M  V30 7297 H 694.13 -0.677467 -0.300199 0
M  V30 7298 H 696.777 -1.91322 -0.0825443 0
M  V30 7299 H 695.082 -3.0901 -2.40874 0
M  V30 7300 H 696.779 -3.3844 -2.1508 0
M  V30 7301 H 693.369 -4.17786 -0.956724 0
M  V30 7302 H 697.553 -4.95045 -0.352658 0
M  V30 7303 H 692.809 -6.09547 0.475693 0
M  V30 7304 H 696.983 -6.88064 1.0743 0
M  V30 7305 H 694.61 -7.45365 1.49451 0
M  V30 7306 N 696.185 0.383891 -1.52853 0
M  V30 7307 C 697.148 1.45197 -1.77343 0
M  V30 7308 C 698.148 1.47362 -0.643522 0
M  V30 7309 O 699.338 1.48443 -0.911613 0
M  V30 7310 C 696.47 2.8445 -1.87885 0
M  V30 7311 H 697.663 1.24764 -2.72716 0
M  V30 7312 H 695.216 0.615939 -1.43652 0
M  V30 7313 H 695.951 3.10222 -0.94515 0
M  V30 7314 H 695.736 2.8428 -2.70051 0
M  V30 7315 H 697.226 3.61832 -2.08488 0
M  V30 7316 N 697.663 1.43903 0.642637 0
M  V30 7317 C 698.573 1.52349 1.78401 0
M  V30 7318 C 699.589 0.409869 1.69104 0
M  V30 7319 O 700.765 0.665548 1.90085 0
M  V30 7320 C 697.83 1.45408 3.14734 0
M  V30 7321 C 696.891 2.67528 3.35749 0
M  V30 7322 C 696.124 2.60909 4.65577 0
M  V30 7323 O 696.347 1.6627 5.45628 0
M  V30 7324 O 695.281 3.5158 4.88544 0
M  V30 7325 H 699.107 2.48752 1.7423 0
M  V30 7326 H 696.692 1.26021 0.802439 0
M  V30 7327 H 698.574 1.44019 3.96026 0
M  V30 7328 H 697.249 0.521437 3.19473 0
M  V30 7329 H 696.156 2.74487 2.5418 0
M  V30 7330 H 697.489 3.598 3.35864 0
M  V30 7331 N 699.141 -0.881989 1.30609 0
M  V30 7332 C 700.387 -1.63647 1.19781 0
M  V30 7333 C 700.72 -1.92632 -0.246265 0
M  V30 7334 O 699.995 -1.54938 -1.17577 0
M  V30 7335 C 700.278 -2.97437 2.02985 0
M  V30 7336 C 700.131 -2.75406 3.55628 0
M  V30 7337 C 701.45 -3.98397 1.86997 0
M  V30 7338 H 698.569 -0.593841 0.436488 0
M  V30 7339 H 701.211 -1.02041 1.60273 0
M  V30 7340 H 699.361 -3.50018 1.68581 0
M  V30 7341 H 701.033 -2.2959 4.00107 0
M  V30 7342 H 699.276 -2.09856 3.79662 0
M  V30 7343 H 699.947 -3.70552 4.09139 0
M  V30 7344 H 702.423 -3.54986 2.17081 0
M  V30 7345 H 701.299 -4.89916 2.47536 0
M  V30 7346 H 701.56 -4.3424 0.829943 0
M  V30 7347 N 700.619 -1.13374 -1.09472 0
M  V30 7348 C 701.847 -0.918351 -1.85402 0
M  V30 7349 C 702.262 0.53281 -1.81126 0
M  V30 7350 O 701.619 1.36879 -1.20708 0
M  V30 7351 C 701.67 -1.39743 -3.33398 0
M  V30 7352 O 701.391 -2.79172 -3.37631 0
M  V30 7353 C 702.892 -1.22042 -4.2617 0
M  V30 7354 H 700.112 -0.327511 -0.585643 0
M  V30 7355 H 702.656 -1.50617 -1.38328 0
M  V30 7356 H 700.811 -0.852619 -3.77901 0
M  V30 7357 H 701.225 -3.00428 -4.29934 0
M  V30 7358 H 702.699 -1.60438 -5.2817 0
M  V30 7359 H 703.176 -0.162047 -4.38901 0
M  V30 7360 H 703.782 -1.75323 -3.87482 0
M  V30 7361 N 702.098 1.27442 -0.927168 0
M  V30 7362 C 703.509 1.76385 -0.611979 0
M  V30 7363 C 703.86 1.75715 0.872853 0
M  V30 7364 O 702.985 1.3603 1.683 0
M  V30 7365 C 703.58 3.20303 -1.10414 0
M  V30 7366 C 702.139 3.66916 -0.839628 0
M  V30 7367 C 701.286 2.46859 -1.26317 0
M  V30 7368 H 704.237 1.13716 -1.107 0
M  V30 7369 H 704.258 3.77811 -0.451578 0
M  V30 7370 H 703.77 3.20759 -2.18484 0
M  V30 7371 H 701.871 3.71906 0.227292 0
M  V30 7372 H 701.984 4.56415 -1.45679 0
M  V30 7373 H 700.348 2.45407 -0.681723 0
M  V30 7374 H 701.131 2.50025 -2.3525 0
M  V30 7375 N 703.576 0.692616 1.41565 0
M  V30 7376 C 704.804 0.231279 2.05603 0
M  V30 7377 C 705.219 -1.11837 1.52111 0
M  V30 7378 O 704.576 -1.6983 0.66813 0
M  V30 7379 C 704.627 0.177125 3.61066 0
M  V30 7380 O 704.348 1.47346 4.12578 0
M  V30 7381 C 705.849 -0.30556 4.42246 0
M  V30 7382 H 703.069 0.108238 0.662213 0
M  V30 7383 H 705.613 0.944369 1.81389 0
M  V30 7384 H 703.768 -0.486769 3.8433 0
M  V30 7385 H 704.182 1.35861 5.06599 0
M  V30 7386 H 705.656 -0.29233 5.51225 0
M  V30 7387 H 706.133 -1.34393 4.18133 0
M  V30 7388 H 706.739 0.327229 4.24039 0
M  V30 7389 N 705.054 -1.51416 0.437162 0
M  V30 7390 C 706.282 -2.06503 -0.128045 0
M  V30 7391 C 706.697 -1.30461 -1.36475 0
M  V30 7392 O 706.054 -0.364127 -1.78831 0
M  V30 7393 C 706.105 -3.58683 -0.450437 0
M  V30 7394 O 705.826 -4.31853 0.737186 0
M  V30 7395 C 707.327 -4.30284 -1.06633 0
M  V30 7396 H 704.547 -0.670952 -0.00800269 0
M  V30 7397 H 707.091 -1.94996 0.616193 0
M  V30 7398 H 705.246 -3.70106 -1.14457 0
M  V30 7399 H 705.66 -5.22467 0.461347 0
M  V30 7400 H 707.134 -5.37848 -1.24191 0
M  V30 7401 H 707.611 -3.88564 -2.0473 0
M  V30 7402 H 708.217 -4.23304 -0.411585 0
M  V30 7403 N 706.532 -0.168513 -1.56696 0
M  V30 7404 C 707.465 0.801477 -2.13662 0
M  V30 7405 C 708.443 1.22786 -1.06594 0
M  V30 7406 O 709.627 1.32014 -1.34554 0
M  V30 7407 C 706.754 2.07896 -2.6739 0
M  V30 7408 C 705.8 1.79681 -3.86803 0
M  V30 7409 S 706.633 0.968556 -5.26668 0
M  V30 7410 C 707.789 2.25676 -5.83799 0
M  V30 7411 H 708.022 0.317121 -2.95604 0
M  V30 7412 H 705.555 0.0461132 -1.54331 0
M  V30 7413 H 707.513 2.81272 -2.98992 0
M  V30 7414 H 706.174 2.53445 -1.85539 0
M  V30 7415 H 705.367 2.74461 -4.22714 0
M  V30 7416 H 704.969 1.14402 -3.56073 0
M  V30 7417 H 707.261 3.2116 -5.96542 0
M  V30 7418 H 708.204 1.94238 -6.80939 0
M  V30 7419 H 708.612 2.37308 -5.12197 0
M  V30 7420 N 708.01 1.57248 0.105221 0
M  V30 7421 C 709.426 1.52853 0.459153 0
M  V30 7422 C 709.626 0.883674 1.8109 0
M  V30 7423 O 708.682 0.471864 2.48052 0
M  V30 7424 C 709.995 2.97596 0.43096 0
M  V30 7425 C 711.543 3.08758 0.513536 0
M  V30 7426 C 712.018 4.55089 0.515593 0
M  V30 7427 N 713.509 4.59597 0.576639 0
M  V30 7428 C 714.244 5.70253 0.599904 0
M  V30 7429 N 713.74 6.90368 0.579985 0
M  V30 7430 N 715.533 5.58399 0.643953 0
M  V30 7431 H 707.684 1.97547 -0.780306 0
M  V30 7432 H 709.947 0.902758 -0.289363 0
M  V30 7433 H 709.653 3.48201 -0.494903 0
M  V30 7434 H 709.527 3.55756 1.2537 0
M  V30 7435 H 711.914 2.58148 1.42982 0
M  V30 7436 H 711.995 2.53568 -0.337148 0
M  V30 7437 H 711.639 5.06348 -0.396701 0
M  V30 7438 H 711.569 5.08105 1.38335 0
M  V30 7439 H 714.06 3.73144 0.597639 0
M  V30 7440 H 714.373 7.70462 0.600741 0
M  V30 7441 H 712.718 6.92843 0.547191 0
M  V30 7442 H 715.909 4.63467 0.656975 0
M  V30 7443 H 716.082 6.44644 0.658616 0
M  V30 7444 N 709.488 -0.375779 1.53054 0
M  V30 7445 C 710.418 -1.46598 1.81745 0
M  V30 7446 C 711.399 -1.56337 0.670286 0
M  V30 7447 O 712.584 -1.71071 0.919158 0
M  V30 7448 C 709.714 -2.84058 1.99821 0
M  V30 7449 C 708.668 -2.8915 3.15557 0
M  V30 7450 C 707.994 -4.29187 3.18908 0
M  V30 7451 C 709.294 -2.57595 4.54359 0
M  V30 7452 H 710.988 -1.22837 2.73041 0
M  V30 7453 H 708.534 -0.589485 1.31381 0
M  V30 7454 H 710.487 -3.60342 2.18475 0
M  V30 7455 H 709.211 -3.09184 1.05226 0
M  V30 7456 H 707.87 -2.15316 2.96706 0
M  V30 7457 H 707.518 -4.51374 2.2197 0
M  V30 7458 H 707.218 -4.33512 3.96662 0
M  V30 7459 H 708.742 -5.07359 3.39734 0
M  V30 7460 H 710.156 -3.23595 4.73243 0
M  V30 7461 H 708.553 -2.73252 5.34279 0
M  V30 7462 H 709.623 -1.52882 4.60169 0
M  V30 7463 N 710.966 -1.44241 -0.634997 0
M  V30 7464 C 711.896 -1.53632 -1.7584 0
M  V30 7465 C 712.877 -0.389603 -1.65578 0
M  V30 7466 O 714.062 -0.609219 -1.84397 0
M  V30 7467 C 711.192 -1.47644 -3.14354 0
M  V30 7468 C 710.146 -2.60752 -3.394 0
M  V30 7469 C 709.472 -2.39817 -4.77904 0
M  V30 7470 C 710.772 -4.02921 -3.32343 0
M  V30 7471 H 712.466 -2.47662 -1.68238 0
M  V30 7472 H 710.012 -1.19197 -0.807969 0
M  V30 7473 H 711.965 -1.52815 -3.92716 0
M  V30 7474 H 710.689 -0.501284 -3.2273 0
M  V30 7475 H 709.348 -2.54965 -2.63417 0
M  V30 7476 H 708.996 -1.40502 -4.82978 0
M  V30 7477 H 708.696 -3.15649 -4.9562 0
M  V30 7478 H 710.22 -2.46799 -5.585 0
M  V30 7479 H 711.634 -4.10098 -4.00615 0
M  V30 7480 H 710.031 -4.78925 -3.61595 0
M  V30 7481 H 711.101 -4.26766 -2.30215 0
M  V30 7482 N 712.444 0.87505 -1.31075 0
M  V30 7483 C 713.721 1.60976 -1.11113 0
M  V30 7484 C 714.101 2.08409 0.336006 0
M  V30 7485 O 713.449 1.85858 1.32924 0
M  V30 7486 C 713.659 2.77166 -2.12085 0
M  V30 7487 C 715.007 3.47254 -2.44335 0
M  V30 7488 O 716.031 2.87367 -2.10472 0
M  V30 7489 O 714.89 4.55276 -3.02301 0
M  V30 7490 H 711.984 0.707982 -0.427424 0
M  V30 7491 H 714.53 0.920957 -1.42536 0
M  V30 7492 H 713.302 2.39494 -3.09449 0
M  V30 7493 H 712.925 3.53737 -1.81538 0
M  V30 7494 N 713.922 1.13953 1.08869 0
M  V30 7495 C 715.17 0.903023 1.80803 0
M  V30 7496 C 715.491 -0.572151 1.86417 0
M  V30 7497 O 714.761 -1.41589 1.35386 0
M  V30 7498 H 713.341 0.331099 0.669614 0
M  V30 7499 H 716.003 1.43719 1.31647 0
M  V30 7500 H 715.099 1.29881 2.83791 0
M  V30 7501 N 715.4 -1.26948 0.933913 0
M  V30 7502 C 716.33 -2.29017 0.45534 0
M  V30 7503 C 717.311 -1.62961 -0.487605 0
M  V30 7504 O 718.496 -1.90223 -0.391022 0
M  V30 7505 C 715.626 -3.46112 -0.287015 0
M  V30 7506 C 714.58 -4.24205 0.568682 0
M  V30 7507 C 713.906 -5.3384 -0.303206 0
M  V30 7508 C 715.206 -4.88954 1.83633 0
M  V30 7509 H 716.9 -2.69298 1.30839 0
M  V30 7510 H 714.446 -1.29459 0.630579 0
M  V30 7511 H 716.399 -4.16622 -0.6328 0
M  V30 7512 H 715.123 -3.04765 -1.17414 0
M  V30 7513 H 713.782 -3.5545 0.897261 0
M  V30 7514 H 713.43 -4.88734 -1.18947 0
M  V30 7515 H 713.13 -5.86998 0.265879 0
M  V30 7516 H 714.654 -6.0719 -0.644423 0
M  V30 7517 H 716.068 -5.51717 1.55823 0
M  V30 7518 H 714.465 -5.52198 2.34941 0
M  V30 7519 H 715.535 -4.12305 2.55211 0
M  V30 7520 N 716.879 -0.700114 -1.41195 0
M  V30 7521 C 717.812 0.0129614 -2.28196 0
M  V30 7522 C 718.79 0.783367 -1.42486 0
M  V30 7523 O 719.974 0.773238 -1.71911 0
M  V30 7524 C 717.101 1.02575 -3.22794 0
M  V30 7525 C 716.147 0.347977 -4.25078 0
M  V30 7526 S 716.98 -0.912938 -5.27661 0
M  V30 7527 C 718.136 0.0981362 -6.25823 0
M  V30 7528 H 718.369 -0.724927 -2.88326 0
M  V30 7529 H 715.902 -0.490554 -1.464 0
M  V30 7530 H 717.86 1.60491 -3.77826 0
M  V30 7531 H 716.521 1.73624 -2.61751 0
M  V30 7532 H 715.714 1.11305 -4.91556 0
M  V30 7533 H 715.316 -0.15823 -3.73665 0
M  V30 7534 H 717.608 0.949965 -6.70807 0
M  V30 7535 H 718.551 -0.532838 -7.06092 0
M  V30 7536 H 718.959 0.454944 -5.62664 0
M  V30 7537 N 718.357 1.51182 -0.445186 0
M  V30 7538 C 719.604 2.02152 0.118645 0
M  V30 7539 C 719.932 1.32888 1.42025 0
M  V30 7540 O 719.187 0.435041 1.90803 0
M  V30 7541 C 719.486 3.55408 0.376797 0
M  V30 7542 C 719.152 4.43008 -0.839945 0
M  V30 7543 C 717.814 4.66669 -1.17361 0
M  V30 7544 C 720.166 4.9435 -1.65127 0
M  V30 7545 C 717.494 5.38919 -2.31913 0
M  V30 7546 C 719.846 5.67857 -2.78786 0
M  V30 7547 C 718.51 5.89779 -3.12597 0
M  V30 7548 H 717.78 0.739727 0.0434152 0
M  V30 7549 H 720.427 1.82055 -0.593984 0
M  V30 7550 H 718.732 3.73879 1.1714 0
M  V30 7551 H 720.429 3.92388 0.826602 0
M  V30 7552 H 717.019 4.24793 -0.569958 0
M  V30 7553 H 721.203 4.75947 -1.4067 0
M  V30 7554 H 716.459 5.54105 -2.58413 0
M  V30 7555 H 720.633 6.06628 -3.42017 0
M  V30 7556 H 718.26 6.45542 -4.01471 0
M  V30 7557 N 719.835 0.176821 1.56605 0
M  V30 7558 C 720.767 -0.782836 2.15417 0
M  V30 7559 C 721.78 -1.18982 1.11117 0
M  V30 7560 O 722.969 -1.12872 1.38283 0
M  V30 7561 C 720.069 -2.06596 2.68647 0
M  V30 7562 C 719.242 -1.82167 3.9766 0
M  V30 7563 C 718.301 -2.94751 4.35899 0
M  V30 7564 O 717.327 -2.65148 5.03672 0
M  V30 7565 N 718.529 -4.2267 3.97907 0
M  V30 7566 H 721.294 -0.280012 2.98389 0
M  V30 7567 H 718.855 -0.00577529 1.61899 0
M  V30 7568 H 720.847 -2.81018 2.91223 0
M  V30 7569 H 719.417 -2.48054 1.90232 0
M  V30 7570 H 718.637 -0.916208 3.83405 0
M  V30 7571 H 719.925 -1.6322 4.81909 0
M  V30 7572 H 719.323 -4.4958 3.43357 0
M  V30 7573 H 717.88 -4.93778 4.25472 0
M  V30 7574 N 721.313 -1.57302 -0.09688 0
M  V30 7575 C 722.541 -1.90202 -0.814295 0
M  V30 7576 C 722.956 -0.770344 -1.72369 0
M  V30 7577 O 722.313 0.257764 -1.8067 0
M  V30 7578 C 722.364 -3.22708 -1.62916 0
M  V30 7579 O 722.085 -4.31522 -0.756343 0
M  V30 7580 C 723.586 -3.69459 -2.44979 0
M  V30 7581 H 720.806 -0.629275 -0.232925 0
M  V30 7582 H 723.35 -2.04364 -0.0746482 0
M  V30 7583 H 721.505 -3.1015 -2.32133 0
M  V30 7584 H 721.919 -5.07604 -1.32054 0
M  V30 7585 H 723.393 -4.64875 -2.9765 0
M  V30 7586 H 723.87 -2.97211 -3.23361 0
M  V30 7587 H 724.476 -3.84879 -1.80964 0
M  V30 7588 N 722.791 0.367657 -1.53252 0
M  V30 7589 C 724.202 0.944563 -1.61043 0
M  V30 7590 C 724.553 1.90325 -0.476546 0
M  V30 7591 O 723.678 2.12721 0.397333 0
M  V30 7592 C 724.273 1.71992 -2.91898 0
M  V30 7593 C 722.832 2.2462 -3.02031 0
M  V30 7594 C 721.979 1.05799 -2.56324 0
M  V30 7595 H 724.93 0.146516 -1.58022 0
M  V30 7596 H 724.951 2.58095 -2.79584 0
M  V30 7597 H 724.463 1.02192 -3.74404 0
M  V30 7598 H 722.564 2.97668 -2.24108 0
M  V30 7599 H 722.677 2.52644 -4.07073 0
M  V30 7600 H 721.041 1.42435 -2.1115 0
M  V30 7601 H 721.824 0.375008 -3.41246 0
M  V30 7602 N 724.269 1.44576 0.627338 0
M  V30 7603 C 725.201 1.47724 1.75243 0
M  V30 7604 C 726.214 0.370193 1.58535 0
M  V30 7605 O 727.403 0.636151 1.66779 0
M  V30 7606 C 724.503 1.2991 3.13012 0
M  V30 7607 C 723.676 2.5393 3.56143 0
M  V30 7608 C 722.735 2.30961 4.72804 0
M  V30 7609 O 721.761 3.04469 4.80923 0
M  V30 7610 N 722.963 1.34261 5.6476 0
M  V30 7611 H 725.728 2.44718 1.73012 0
M  V30 7612 H 723.289 1.40064 0.812022 0
M  V30 7613 H 725.281 1.12385 3.88782 0
M  V30 7614 H 723.851 0.412668 3.09864 0
M  V30 7615 H 723.071 2.86707 2.70542 0
M  V30 7616 H 724.359 3.36411 3.81713 0
M  V30 7617 H 723.757 0.735573 5.60897 0
M  V30 7618 H 722.314 1.22713 6.40144 0
M  V30 7619 N 725.747 -0.868086 1.31537 0
M  V30 7620 C 726.657 -2.00801 1.21311 0
M  V30 7621 C 727.673 -1.73518 0.129431 0
M  V30 7622 O 728.849 -1.98378 0.347588 0
M  V30 7623 C 725.914 -3.3419 0.922935 0
M  V30 7624 C 724.975 -3.74783 2.0937 0
M  V30 7625 C 724.208 -5.01807 1.81728 0
M  V30 7626 O 724.431 -5.65404 0.753313 0
M  V30 7627 O 723.365 -5.39213 2.67457 0
M  V30 7628 H 727.191 -2.12361 2.17109 0
M  V30 7629 H 724.776 -0.996684 1.11295 0
M  V30 7630 H 726.658 -4.14174 0.777033 0
M  V30 7631 H 725.333 -3.237 -0.00500301 0
M  V30 7632 H 724.24 -2.95432 2.29501 0
M  V30 7633 H 725.573 -3.89902 3.00396 0
M  V30 7634 N 727.225 -1.14528 -1.08264 0
M  V30 7635 C 728.158 -0.777154 -2.14559 0
M  V30 7636 C 729.136 0.242165 -1.60787 0
M  V30 7637 O 730.32 0.130882 -1.88045 0
M  V30 7638 C 727.447 -0.154092 -3.38349 0
M  V30 7639 C 726.493 -1.14382 -4.10876 0
M  V30 7640 S 727.326 -2.68173 -4.63512 0
M  V30 7641 C 728.482 -2.0726 -5.90588 0
M  V30 7642 H 728.715 -1.67748 -2.45454 0
M  V30 7643 H 726.248 -0.966661 -1.20395 0
M  V30 7644 H 728.206 0.19897 -4.10018 0
M  V30 7645 H 726.867 0.723688 -3.05649 0
M  V30 7646 H 726.06 -0.655908 -4.99714 0
M  V30 7647 H 725.662 -1.44095 -3.45127 0
M  V30 7648 H 727.954 -1.42895 -6.62259 0
M  V30 7649 H 728.897 -2.94227 -6.44078 0
M  V30 7650 H 729.305 -1.51935 -5.43669 0
M  V30 7651 N 728.703 1.26451 -0.940633 0
M  V30 7652 C 729.951 1.93395 -0.586748 0
M  V30 7653 C 730.272 1.7417 0.876921 0
M  V30 7654 O 729.542 1.097 1.62304 0
M  V30 7655 H 728.122 0.715687 -0.214012 0
M  V30 7656 H 730.784 1.53902 -1.19584 0
M  V30 7657 H 729.88 3.01565 -0.804059 0
M  V30 7658 N 730.181 0.707592 1.40822 0
M  V30 7659 C 731.111 0.0644925 2.33411 0
M  V30 7660 C 732.092 -0.754205 1.52466 0
M  V30 7661 O 733.277 -0.704749 1.80961 0
M  V30 7662 C 730.407 -0.863865 3.36385 0
M  V30 7663 C 729.361 -0.15138 4.27732 0
M  V30 7664 C 728.687 -1.19491 5.21177 0
M  V30 7665 C 729.987 0.989607 5.12839 0
M  V30 7666 H 731.681 0.837829 2.87438 0
M  V30 7667 H 729.227 0.404346 1.38207 0
M  V30 7668 H 731.18 -1.32309 4.0009 0
M  V30 7669 H 729.904 -1.66901 2.80734 0
M  V30 7670 H 728.563 0.287937 3.65467 0
M  V30 7671 H 728.211 -1.9929 4.61836 0
M  V30 7672 H 727.911 -0.723123 5.83134 0
M  V30 7673 H 729.435 -1.6544 5.8776 0
M  V30 7674 H 730.849 0.610114 5.70044 0
M  V30 7675 H 729.246 1.38926 5.83798 0
M  V30 7676 H 730.316 1.82389 4.49291 0
M  V30 7677 N 731.66 -1.50943 0.453197 0
M  V30 7678 C 732.909 -2.01402 -0.10951 0
M  V30 7679 C 733.222 -1.3411 -1.42386 0
M  V30 7680 O 734.428 -1.75626 -2.07045 0
M  V30 7681 C 732.884 -3.5906 -0.245693 0
M  V30 7682 C 732.492 -4.353 1.05916 0
M  V30 7683 C 734.236 -4.17617 -0.761318 0
M  V30 7684 C 732.143 -5.84699 0.887752 0
M  V30 7685 H 731.073 -0.752674 -0.0447013 0
M  V30 7686 H 733.724 -1.73913 0.585375 0
M  V30 7687 H 732.106 -3.83062 -1.00395 0
M  V30 7688 H 733.28 -4.23034 1.82698 0
M  V30 7689 H 731.595 -3.88269 1.50452 0
M  V30 7690 H 734.192 -5.26963 -0.906306 0
M  V30 7691 H 734.535 -3.77824 -1.74799 0
M  V30 7692 H 735.068 -3.97753 -0.0609416 0
M  V30 7693 H 731.807 -6.28933 1.84726 0
M  V30 7694 H 731.327 -5.99587 0.160006 0
M  V30 7695 H 733.006 -6.44682 0.547223 0
M  V30 7696 N 733.138 -0.185124 -1.56509 0
M  V30 7697 C 734.384 0.456934 -1.97585 0
M  V30 7698 C 734.717 1.61957 -1.07161 0
M  V30 7699 O 733.992 1.9412 -0.121546 0
M  V30 7700 C 734.275 0.926666 -3.47973 0
M  V30 7701 C 734.128 -0.237097 -4.49175 0
M  V30 7702 C 735.447 1.79561 -4.01803 0
M  V30 7703 H 732.566 0.164619 -0.71838 0
M  V30 7704 H 735.208 -0.274039 -1.88013 0
M  V30 7705 H 733.358 1.54954 -3.56261 0
M  V30 7706 H 735.03 -0.87454 -4.52934 0
M  V30 7707 H 733.273 -0.890446 -4.24563 0
M  V30 7708 H 733.944 0.133924 -5.51838 0
M  V30 7709 H 736.42 1.27039 -3.96232 0
M  V30 7710 H 735.296 2.09327 -5.07418 0
M  V30 7711 H 735.557 2.74629 -3.46455 0
M  V30 7712 N 734.616 1.57351 0.0885366 0
M  V30 7713 C 735.865 1.85604 0.789556 0
M  V30 7714 C 736.178 0.775352 1.79576 0
M  V30 7715 O 737.384 0.945206 2.54515 0
M  V30 7716 C 735.84 3.29175 1.45506 0
M  V30 7717 C 735.448 4.45331 0.488278 0
M  V30 7718 C 737.192 3.66646 2.13942 0
M  V30 7719 C 735.099 5.79937 1.15874 0
M  V30 7720 H 734.029 0.692346 0.298619 0
M  V30 7721 H 736.68 1.83451 0.0425821 0
M  V30 7722 H 735.062 3.25889 2.24972 0
M  V30 7723 H 736.236 4.59977 -0.275359 0
M  V30 7724 H 734.551 4.16301 -0.0907363 0
M  V30 7725 H 737.148 4.64498 2.6485 0
M  V30 7726 H 737.491 2.956 2.93132 0
M  V30 7727 H 738.024 3.71848 1.41328 0
M  V30 7728 H 734.763 6.54232 0.407508 0
M  V30 7729 H 734.283 5.69123 1.89364 0
M  V30 7730 H 735.962 6.24718 1.68336 0
M  V30 7731 N 736.094 -0.359525 1.53444 0
M  V30 7732 C 737.057 -1.42357 1.7963 0
M  V30 7733 C 738.057 -1.46319 0.666884 0
M  V30 7734 O 739.247 -1.46974 0.935113 0
M  V30 7735 C 736.379 -2.81425 1.92387 0
M  V30 7736 H 737.572 -1.20409 2.74666 0
M  V30 7737 H 735.125 -0.593007 1.44614 0
M  V30 7738 H 735.86 -3.08679 0.994384 0
M  V30 7739 H 735.645 -2.79947 2.74539 0
M  V30 7740 H 737.135 -3.5847 2.14218 0
M  V30 7741 N 737.572 -1.44907 -0.619662 0
M  V30 7742 C 738.535 -1.52282 -1.71297 0
M  V30 7743 C 739.535 -0.40359 -1.55653 0
M  V30 7744 O 740.725 -0.666638 -1.6094 0
M  V30 7745 C 737.857 -1.40778 -3.10474 0
M  V30 7746 H 739.05 -2.49683 -1.66128 0
M  V30 7747 H 736.603 -1.32168 -0.834339 0
M  V30 7748 H 737.338 -0.445156 -3.2123 0
M  V30 7749 H 737.123 -2.21947 -3.23237 0
M  V30 7750 H 738.613 -1.48946 -3.90135 0
M  V30 7751 N 739.05 0.861098 -1.31996 0
M  V30 7752 C 740.466 1.14827 -1.10846 0
M  V30 7753 C 740.666 2.0117 0.11528 0
M  V30 7754 O 739.722 2.39423 0.802048 0
M  V30 7755 C 741.035 1.83183 -2.38462 0
M  V30 7756 C 742.583 1.95847 -2.44158 0
M  V30 7757 C 743.058 2.67617 -3.71679 0
M  V30 7758 N 744.549 2.75147 -3.72624 0
M  V30 7759 C 745.284 3.31314 -4.67994 0
M  V30 7760 N 744.78 3.88343 -5.73726 0
M  V30 7761 N 746.573 3.29356 -4.55501 0
M  V30 7762 H 738.724 0.285951 -2.10466 0
M  V30 7763 H 740.987 0.189303 -0.928907 0
M  V30 7764 H 740.693 1.27193 -3.27895 0
M  V30 7765 H 740.567 2.83393 -2.48935 0
M  V30 7766 H 742.954 2.50999 -1.55189 0
M  V30 7767 H 743.035 0.94653 -2.37644 0
M  V30 7768 H 742.679 2.13131 -4.61018 0
M  V30 7769 H 742.609 3.69237 -3.75462 0
M  V30 7770 H 745.1 2.34682 -2.96197 0
M  V30 7771 H 745.413 4.29338 -6.42564 0
M  V30 7772 H 743.758 3.86693 -5.77489 0
M  V30 7773 H 746.949 2.84047 -3.72069 0
M  V30 7774 H 747.122 3.7283 -5.30001 0
M  V30 7775 N 740.528 1.15101 1.07655 0
M  V30 7776 C 741.46 0.802722 2.14684 0
M  V30 7777 C 742.473 -0.183874 1.61758 0
M  V30 7778 O 743.662 0.0389349 1.78458 0
M  V30 7779 C 740.762 0.172135 3.38463 0
M  V30 7780 C 739.935 1.19538 4.20749 0
M  V30 7781 C 738.994 0.58714 5.22914 0
M  V30 7782 O 738.02 1.25224 5.55255 0
M  V30 7783 N 739.222 -0.632566 5.77043 0
M  V30 7784 H 741.987 1.72379 2.45164 0
M  V30 7785 H 739.548 1.04647 1.23534 0
M  V30 7786 H 741.54 -0.247465 4.03943 0
M  V30 7787 H 740.11 -0.652214 3.0572 0
M  V30 7788 H 739.33 1.79165 3.51132 0
M  V30 7789 H 740.618 1.88636 4.7254 0
M  V30 7790 H 740.016 -1.19135 5.53013 0
M  V30 7791 H 738.573 -0.994566 6.44167 0
M  V30 7792 N 742.006 -1.2595 0.947325 0
M  V30 7793 C 743.234 -1.97544 0.615127 0
M  V30 7794 C 743.649 -1.70484 -0.811221 0
M  V30 7795 O 743.006 -0.97662 -1.5417 0
M  V30 7796 C 743.057 -3.51236 0.855328 0
M  V30 7797 O 742.778 -3.77359 2.22558 0
M  V30 7798 C 744.279 -4.40066 0.534515 0
M  V30 7799 H 741.499 -0.629888 0.231263 0
M  V30 7800 H 744.043 -1.60308 1.26971 0
M  V30 7801 H 742.198 -3.8661 0.247266 0
M  V30 7802 H 742.612 -4.71857 2.29022 0
M  V30 7803 H 744.086 -5.46838 0.753168 0
M  V30 7804 H 744.563 -4.35982 -0.530701 0
M  V30 7805 H 745.169 -4.10245 1.12158 0
M  V30 7806 N 743.484 -0.715051 -1.40445 0
M  V30 7807 C 744.394 -0.0631624 -2.34515 0
M  V30 7808 C 745.41 0.744397 -1.57273 0
M  V30 7809 O 746.586 0.677475 -1.89663 0
M  V30 7810 C 743.651 0.847915 -3.36172 0
M  V30 7811 C 742.712 0.0303655 -4.29289 0
M  V30 7812 C 741.945 0.898051 -5.2609 0
M  V30 7813 O 742.168 2.13729 -5.28844 0
M  V30 7814 O 741.102 0.337328 -6.00954 0
M  V30 7815 H 744.928 -0.839078 -2.91879 0
M  V30 7816 H 742.513 -0.475527 -1.4163 0
M  V30 7817 H 744.395 1.3698 -3.98515 0
M  V30 7818 H 743.07 1.60299 -2.81222 0
M  V30 7819 H 741.977 -0.536573 -3.70232 0
M  V30 7820 H 743.31 -0.686474 -4.87389 0
M  V30 7821 N 744.962 1.50701 -0.461195 0
M  V30 7822 C 746.21 2.01867 0.0970051 0
M  V30 7823 C 746.531 1.34591 1.41104 0
M  V30 7824 O 745.801 0.488041 1.89723 0
M  V30 7825 H 744.381 0.74599 0.0388392 0
M  V30 7826 H 747.043 1.85129 -0.609357 0
M  V30 7827 H 746.139 3.11051 0.255688 0
M  V30 7828 N 746.441 0.193421 1.56409 0
M  V30 7829 C 747.388 -0.728124 2.19014 0
M  V30 7830 C 748.358 -1.21098 1.13686 0
M  V30 7831 O 749.543 -1.27517 1.4193 0
M  V30 7832 C 746.683 -1.94277 2.8522 0
M  V30 7833 C 745.796 -1.50143 4.05069 0
M  V30 7834 C 744.931 -2.67145 4.59137 0
M  V30 7835 C 743.97 -2.19609 5.71348 0
M  V30 7836 N 743.107 -3.29782 6.19829 0
M  V30 7837 H 747.947 -0.187499 2.9741 0
M  V30 7838 H 745.484 -0.0808064 1.46878 0
M  V30 7839 H 747.442 -2.65551 3.21774 0
M  V30 7840 H 746.072 -2.45673 2.09391 0
M  V30 7841 H 745.124 -0.684624 3.74189 0
M  V30 7842 H 746.436 -1.11266 4.86232 0
M  V30 7843 H 745.59 -3.46544 4.97988 0
M  V30 7844 H 744.329 -3.09295 3.77078 0
M  V30 7845 H 743.334 -1.38664 5.32027 0
M  V30 7846 H 744.559 -1.78492 6.55223 0
M  V30 7847 H 742.505 -3.71466 5.40693 0
M  V30 7848 H 742.422 -2.95069 6.96039 0
M  V30 7849 H 743.69 -4.094 6.63334 0
M  V30 7850 N 747.919 -1.57396 -0.0801906 0
M  V30 7851 C 749.167 -1.86467 -0.779384 0
M  V30 7852 C 749.488 -0.784243 -1.78535 0
M  V30 7853 O 748.758 0.187986 -1.94996 0
M  V30 7854 H 747.338 -0.68806 -0.29083 0
M  V30 7855 H 750 -1.94813 -0.0582749 0
M  V30 7856 H 749.096 -2.83701 -1.30078 0
M  V30 7857 N 749.397 0.351382 -1.53633 0
M  V30 7858 C 750.813 0.693987 -1.43722 0
M  V30 7859 C 751.013 1.9274 -0.587669 0
M  V30 7860 O 750.069 2.52387 -0.0756082 0
M  V30 7861 C 751.382 0.893937 -2.87105 0
M  V30 7862 C 752.93 0.993051 -2.96829 0
M  V30 7863 C 753.405 1.22537 -4.41303 0
M  V30 7864 N 754.896 1.29275 -4.44795 0
M  V30 7865 C 755.631 1.48988 -5.53706 0
M  V30 7866 N 755.127 1.65924 -6.72637 0
M  V30 7867 N 756.92 1.51472 -5.41306 0
M  V30 7868 H 749.071 -0.459688 -2.07366 0
M  V30 7869 H 751.334 -0.143684 -0.937048 0
M  V30 7870 H 751.04 0.0592517 -3.5165 0
M  V30 7871 H 750.914 1.79795 -3.31592 0
M  V30 7872 H 753.301 1.81827 -2.32429 0
M  V30 7873 H 753.382 0.0661119 -2.55715 0
M  V30 7874 H 753.026 0.405117 -5.06282 0
M  V30 7875 H 752.956 2.16575 -4.80003 0
M  V30 7876 H 755.447 1.17743 -3.59089 0
M  V30 7877 H 755.76 1.80578 -7.51406 0
M  V30 7878 H 754.105 1.63075 -6.75597 0
M  V30 7879 H 757.296 1.37818 -4.47352 0
M  V30 7880 H 757.469 1.66493 -6.26246 0
M  V30 7881 N 750.875 1.45233 0.611969 0
M  V30 7882 C 752.123 1.48727 1.36838 0
M  V30 7883 C 752.444 0.128616 1.94575 0
M  V30 7884 O 751.714 -0.84149 1.76906 0
M  V30 7885 H 750.294 0.547695 0.507976 0
M  V30 7886 H 752.956 1.81156 0.718925 0
M  V30 7887 H 752.052 2.2236 2.19003 0
M  V30 7888 N 752.353 -0.854086 1.3245 0
M  V30 7889 C 753.601 -1.60513 1.228 0
M  V30 7890 C 753.922 -1.93865 -0.210073 0
M  V30 7891 O 753.192 -1.59673 -1.13496 0
M  V30 7892 H 751.772 -0.595099 0.451516 0
M  V30 7893 H 754.434 -1.0216 1.6598 0
M  V30 7894 H 753.53 -2.54182 1.81102 0
M  V30 7895 N 753.831 -1.1567 -1.07043 0
M  V30 7896 C 754.779 -0.852204 -2.16426 0
M  V30 7897 C 755.773 0.175661 -1.68487 0
M  V30 7898 O 756.979 0.0303874 -1.79974 0
M  V30 7899 H 753.354 -0.257942 -0.706378 0
M  V30 7900 H 755.325 -1.78231 -2.39324 0
M  V30 7901 C 754.074 -0.361362 -3.45817 0
M  V30 7902 H 753.397 -1.14369 -3.83092 0
M  V30 7903 H 754.837 -0.186997 -4.23587 0
M  V30 7904 C 753.296 0.917703 -3.2416 0
M  V30 7905 O 753.826 1.98858 -3.49025 0
M  V30 7906 N 752.032 0.858456 -2.77631 0
M  V30 7907 H 751.579 -0.0131821 -2.57597 0
M  V30 7908 H 751.537 1.71478 -2.6352 0
M  V30 7909 N 755.309 1.25446 -0.953992 0
M  V30 7910 C 756.555 1.9343 -0.60933 0
M  V30 7911 C 756.888 1.74542 0.851388 0
M  V30 7912 O 756.163 1.09014 1.61078 0
M  V30 7913 C 756.446 3.46844 -0.968041 0
M  V30 7914 C 756.299 3.74961 -2.48444 0
M  V30 7915 C 757.618 4.37334 -0.492641 0
M  V30 7916 H 754.737 0.702502 -0.222844 0
M  V30 7917 H 757.379 1.48076 -1.19053 0
M  V30 7918 H 755.529 3.85604 -0.473465 0
M  V30 7919 H 757.201 3.45841 -3.05273 0
M  V30 7920 H 755.444 3.20589 -2.92241 0
M  V30 7921 H 756.115 4.82246 -2.68594 0
M  V30 7922 H 758.591 4.05873 -0.916878 0
M  V30 7923 H 757.467 5.43439 -0.772331 0
M  V30 7924 H 757.728 4.37908 0.607403 0
M  V30 7925 N 756.787 0.722489 1.40064 0
M  V30 7926 C 758.033 0.27422 2.01543 0
M  V30 7927 C 758.388 -1.12224 1.5628 0
M  V30 7928 O 757.681 -1.75179 0.776063 0
M  V30 7929 C 757.875 0.300682 3.56133 0
M  V30 7930 C 757.704 1.69818 4.16404 0
M  V30 7931 C 756.474 2.30747 4.49537 0
M  V30 7932 C 758.672 2.64962 4.40794 0
M  V30 7933 N 756.654 3.62781 4.9524 0
M  V30 7934 C 758.025 3.81712 4.88565 0
M  V30 7935 C 760.08 2.62885 4.22842 0
M  V30 7936 C 758.783 4.96703 5.20268 0
M  V30 7937 C 760.809 3.77009 4.55652 0
M  V30 7938 C 760.171 4.92492 5.03618 0
M  V30 7939 H 756.27 0.146328 0.768188 0
M  V30 7940 H 758.854 0.94577 1.70186 0
M  V30 7941 H 757.025 -0.340461 3.86905 0
M  V30 7942 H 758.757 -0.164951 4.04364 0
M  V30 7943 H 755.512 1.82783 4.36907 0
M  V30 7944 H 755.936 4.30533 5.22465 0
M  V30 7945 H 760.578 1.74803 3.84972 0
M  V30 7946 H 758.296 5.85425 5.57049 0
M  V30 7947 H 761.882 3.76685 4.43396 0
M  V30 7948 H 760.762 5.79336 5.28525 0
M  V30 7949 N 758.265 -1.50454 0.469181 0
M  V30 7950 C 759.195 -2.31353 -0.31592 0
M  V30 7951 C 760.176 -1.38172 -0.992094 0
M  V30 7952 O 761.361 -1.67093 -0.989633 0
M  V30 7953 C 758.491 -3.1786 -1.39937 0
M  V30 7954 C 757.445 -4.19578 -0.844909 0
M  V30 7955 C 756.771 -4.9481 -2.0265 0
M  V30 7956 C 758.071 -5.22106 0.142499 0
M  V30 7957 H 759.765 -2.97237 0.359269 0
M  V30 7958 H 757.311 -1.42942 0.174224 0
M  V30 7959 H 759.264 -3.7325 -1.95607 0
M  V30 7960 H 757.988 -2.49858 -2.1033 0
M  V30 7961 H 756.647 -3.65285 -0.310189 0
M  V30 7962 H 756.295 -4.23282 -2.71737 0
M  V30 7963 H 755.995 -5.63613 -1.66174 0
M  V30 7964 H 757.519 -5.53035 -2.58815 0
M  V30 7965 H 758.933 -5.72378 -0.324966 0
M  V30 7966 H 757.33 -5.98618 0.421441 0
M  V30 7967 H 758.4 -4.7297 1.06901 0
M  V30 7968 N 759.743 -0.201713 -1.56304 0
M  V30 7969 C 760.968 0.443815 -2.02596 0
M  V30 7970 C 761.393 1.53945 -1.08086 0
M  V30 7971 O 760.751 1.81182 -0.0655056 0
M  V30 7972 C 760.799 0.971066 -3.47279 0
M  V30 7973 O 759.903 2.0836 -3.55893 0
M  V30 7974 H 759.244 0.10294 -0.655972 0
M  V30 7975 H 761.774 -0.314533 -2.02168 0
M  V30 7976 H 761.784 1.28598 -3.87204 0
M  V30 7977 H 760.459 0.169048 -4.15556 0
M  V30 7978 H 759.036 1.77683 -3.27846 0
M  V30 7979 N 761.222 1.57436 0.0718424 0
M  V30 7980 C 762.633 1.75975 0.623678 0
M  V30 7981 C 762.984 0.827155 1.77912 0
M  V30 7982 O 762.109 0.0112425 2.16397 0
M  V30 7983 C 762.704 3.1911 1.13816 0
M  V30 7984 C 761.263 3.38994 1.63586 0
M  V30 7985 C 760.41 2.71684 0.555261 0
M  V30 7986 H 763.361 1.57948 -0.154328 0
M  V30 7987 H 763.382 3.23267 2.00696 0
M  V30 7988 H 762.894 3.86962 0.296998 0
M  V30 7989 H 760.995 2.76256 2.50027 0
M  V30 7990 H 761.108 4.47436 1.71283 0
M  V30 7991 H 759.472 2.34236 1.00029 0
M  V30 7992 H 760.255 3.42191 -0.275712 0
M  V30 7993 N 762.7 -0.34323 1.53817 0
M  V30 7994 C 763.946 -1.08504 1.71332 0
M  V30 7995 C 764.279 -1.88294 0.475285 0
M  V30 7996 O 763.554 -1.87205 -0.527688 0
M  V30 7997 C 763.837 -2.02597 2.97702 0
M  V30 7998 C 763.69 -1.26268 4.31713 0
M  V30 7999 C 765.009 -3.0241 3.19744 0
M  V30 8000 H 762.128 -0.393072 0.623429 0
M  V30 8001 H 764.77 -0.363579 1.86489 0
M  V30 8002 H 762.92 -2.64118 2.8491 0
M  V30 8003 H 764.592 -0.673594 4.56356 0
M  V30 8004 H 762.835 -0.564696 4.30109 0
M  V30 8005 H 763.506 -1.95253 5.16314 0
M  V30 8006 H 765.982 -2.51004 3.31868 0
M  V30 8007 H 764.858 -3.65449 4.09558 0
M  V30 8008 H 765.119 -3.73806 2.36054 0
M  V30 8009 N 764.178 -1.45556 -0.604258 0
M  V30 8010 C 765.426 -1.4945 -1.36048 0
M  V30 8011 C 765.747 -0.138933 -1.94504 0
M  V30 8012 O 765.017 0.832097 -1.7735 0
M  V30 8013 H 763.597 -0.550381 -0.505064 0
M  V30 8014 H 766.259 -1.81535 -0.709308 0
M  V30 8015 H 765.355 -2.23519 -2.17821 0
M  V30 8016 N 765.656 0.84705 -1.32902 0
M  V30 8017 C 766.896 1.61554 -1.25218 0
M  V30 8018 C 767.26 1.91141 0.18143 0
M  V30 8019 O 768.461 2.6607 0.382106 0
M  V30 8020 C 766.732 2.89553 -2.09509 0
M  V30 8021 S 768.291 3.80283 -2.18931 0
M  V30 8022 H 765.109 0.554031 -0.445613 0
M  V30 8023 H 767.711 1.00251 -1.67839 0
M  V30 8024 H 766.415 2.65776 -3.12716 0
M  V30 8025 H 765.946 3.55868 -1.67694 0
M  V30 8026 H 767.961 4.77641 -1.34438 0
M  V30 8027 N 767.134 1.16236 1.06428 0
M  V30 8028 C 768.097 0.870163 2.1204 0
M  V30 8029 C 769.097 -0.134239 1.60239 0
M  V30 8030 O 770.287 0.0964932 1.73933 0
M  V30 8031 C 767.419 0.301033 3.39568 0
M  V30 8032 H 768.612 1.8064 2.39394 0
M  V30 8033 H 766.165 0.971116 1.2247 0
M  V30 8034 H 766.9 -0.642948 3.17863 0
M  V30 8035 H 766.685 1.02475 3.78472 0
M  V30 8036 H 768.175 0.114494 4.17443 0
M  V30 8037 N 768.612 -1.24939 0.960631 0
M  V30 8038 C 769.542 -2.28 0.503815 0
M  V30 8039 C 770.523 -1.63959 -0.452928 0
M  V30 8040 O 771.708 -1.91009 -0.350585 0
M  V30 8041 C 768.838 -3.46643 -0.213535 0
M  V30 8042 C 767.792 -4.22903 0.658535 0
M  V30 8043 C 767.118 -5.34363 -0.189902 0
M  V30 8044 C 768.418 -4.84949 1.93963 0
M  V30 8045 H 770.112 -2.66462 1.36521 0
M  V30 8046 H 767.658 -1.28093 0.657897 0
M  V30 8047 H 769.611 -4.1787 -0.544286 0
M  V30 8048 H 768.335 -3.07187 -1.10923 0
M  V30 8049 H 766.994 -3.53467 0.972455 0
M  V30 8050 H 766.642 -4.91147 -1.08553 0
M  V30 8051 H 766.342 -5.86302 0.390331 0
M  V30 8052 H 767.866 -6.0842 -0.515484 0
M  V30 8053 H 769.28 -5.48288 1.67491 0
M  V30 8054 H 767.677 -5.47091 2.46601 0
M  V30 8055 H 768.747 -4.06799 2.639 0
M  V30 8056 N 770.09 -0.729906 -1.39679 0
M  V30 8057 C 771.315 -0.284345 -2.05442 0
M  V30 8058 C 771.74 1.07056 -1.54663 0
M  V30 8059 O 771.098 1.67732 -0.688157 0
M  V30 8060 C 771.146 -0.290089 -3.59431 0
M  V30 8061 O 770.25 0.723978 -4.05995 0
M  V30 8062 H 769.591 -0.130311 -0.651088 0
M  V30 8063 H 772.121 -0.994403 -1.78809 0
M  V30 8064 H 772.131 -0.132712 -4.07784 0
M  V30 8065 H 770.806 -1.27877 -3.95753 0
M  V30 8066 H 769.383 0.533154 -3.69069 0
M  V30 8067 N 771.568 1.50203 -0.477153 0
M  V30 8068 C 772.796 2.0677 0.0732489 0
M  V30 8069 C 773.211 1.34033 1.32968 0
M  V30 8070 O 772.568 0.411412 1.77802 0
M  V30 8071 C 772.619 3.59751 0.35518 0
M  V30 8072 O 772.34 4.29747 -0.851425 0
M  V30 8073 C 773.841 4.3296 0.951877 0
M  V30 8074 H 771.061 0.670929 -0.00978923 0
M  V30 8075 H 773.605 1.93293 -0.667676 0
M  V30 8076 H 771.76 3.7301 1.04605 0
M  V30 8077 H 772.174 5.2106 -0.599708 0
M  V30 8078 H 773.648 5.40952 1.09888 0
M  V30 8079 H 774.125 3.93856 1.94356 0
M  V30 8080 H 774.731 4.24246 0.299208 0
M  V30 8081 N 773.046 0.209999 1.56195 0
M  V30 8082 C 773.976 -0.699746 2.22769 0
M  V30 8083 C 774.957 -1.20993 1.1956 0
M  V30 8084 O 776.142 -1.25605 1.48112 0
M  V30 8085 C 773.272 -1.91302 2.89863 0
M  V30 8086 C 772.226 -1.53715 3.99444 0
M  V30 8087 C 771.552 -2.82826 4.53777 0
M  V30 8088 C 772.852 -0.735836 5.17091 0
M  V30 8089 H 774.546 -0.144716 2.9905 0
M  V30 8090 H 772.092 -0.0681645 1.43839 0
M  V30 8091 H 774.045 -2.5548 3.35124 0
M  V30 8092 H 772.769 -2.49283 2.11011 0
M  V30 8093 H 771.428 -0.918892 3.54897 0
M  V30 8094 H 771.076 -3.38927 3.71669 0
M  V30 8095 H 770.776 -2.58415 5.27727 0
M  V30 8096 H 772.3 -3.47966 5.01749 0
M  V30 8097 H 773.714 -1.28105 5.58804 0
M  V30 8098 H 772.111 -0.589272 5.972 0
M  V30 8099 H 773.181 0.260004 4.84202 0
M  V30 8100 N 774.524 -1.57472 -0.0634922 0
M  V30 8101 C 775.454 -2.07297 -1.07473 0
M  V30 8102 C 776.435 -0.968162 -1.39859 0
M  V30 8103 O 777.62 -1.24139 -1.49343 0
M  V30 8104 C 774.75 -2.52381 -2.38581 0
M  V30 8105 C 773.704 -3.66813 -2.20526 0
M  V30 8106 C 773.03 -3.97982 -3.57092 0
M  V30 8107 C 774.33 -4.96553 -1.61965 0
M  V30 8108 H 776.024 -2.92033 -0.660092 0
M  V30 8109 H 773.57 -1.40488 -0.316074 0
M  V30 8110 H 775.523 -2.85852 -3.09624 0
M  V30 8111 H 774.247 -1.64684 -2.8204 0
M  V30 8112 H 772.906 -3.33639 -1.51924 0
M  V30 8113 H 772.554 -3.07403 -3.98136 0
M  V30 8114 H 772.254 -4.7504 -3.45848 0
M  V30 8115 H 773.778 -4.33956 -4.29552 0
M  V30 8116 H 775.192 -5.28201 -2.22883 0
M  V30 8117 H 773.589 -5.7799 -1.61394 0
M  V30 8118 H 774.659 -4.81396 -0.581918 0
M  V30 8119 N 776.003 0.335068 -1.53997 0
M  V30 8120 C 777.252 1.07182 -1.70865 0
M  V30 8121 C 777.565 1.89541 -0.483078 0
M  V30 8122 O 778.771 2.66219 -0.532879 0
M  V30 8123 C 777.227 1.95497 -3.02174 0
M  V30 8124 C 776.835 1.18304 -4.32097 0
M  V30 8125 C 778.579 2.68978 -3.28407 0
M  V30 8126 C 776.486 2.05699 -5.54474 0
M  V30 8127 H 775.416 0.403857 -0.636722 0
M  V30 8128 H 778.067 0.33076 -1.80494 0
M  V30 8129 H 776.449 2.73456 -2.86423 0
M  V30 8130 H 777.623 0.451969 -4.58578 0
M  V30 8131 H 775.938 0.565556 -4.12541 0
M  V30 8132 H 778.535 3.34651 -4.17029 0
M  V30 8133 H 778.878 3.36 -2.45784 0
M  V30 8134 H 779.411 1.98087 -3.44973 0
M  V30 8135 H 776.15 1.43204 -6.39666 0
M  V30 8136 H 775.67 2.76572 -5.32229 0
M  V30 8137 H 777.349 2.64554 -5.90441 0
M  V30 8138 N 777.481 1.45874 0.596531 0
M  V30 8139 C 778.706 1.54247 1.38646 0
M  V30 8140 C 779.131 0.179571 1.87241 0
M  V30 8141 O 778.489 -0.837831 1.6078 0
M  V30 8142 C 778.537 2.54015 2.55946 0
M  V30 8143 O 777.641 2.06561 3.5694 0
M  V30 8144 H 776.982 0.519555 0.413471 0
M  V30 8145 H 779.512 1.91327 0.724936 0
M  V30 8146 H 779.522 2.73179 3.03047 0
M  V30 8147 H 778.197 3.52994 2.19928 0
M  V30 8148 H 776.774 1.97324 3.16414 0
M  V30 8149 N 778.959 -0.83999 1.33349 0
M  V30 8150 C 780.208 -1.59011 1.2409 0
M  V30 8151 C 780.521 -1.94655 -0.192029 0
M  V30 8152 O 781.727 -2.68438 -0.406617 0
M  V30 8153 C 780.183 -2.86801 2.17425 0
M  V30 8154 C 779.791 -2.58525 3.65881 0
M  V30 8155 C 781.535 -3.64823 2.17036 0
M  V30 8156 C 779.442 -3.82404 4.51133 0
M  V30 8157 H 778.372 -0.596731 0.460899 0
M  V30 8158 H 781.023 -0.926274 1.58406 0
M  V30 8159 H 779.405 -3.54719 1.7604 0
M  V30 8160 H 780.579 -1.98824 4.15699 0
M  V30 8161 H 778.894 -1.93808 3.68548 0
M  V30 8162 H 781.491 -4.56774 2.7796 0
M  V30 8163 H 781.834 -3.99663 1.16513 0
M  V30 8164 H 782.367 -3.03826 2.56777 0
M  V30 8165 H 779.106 -3.52696 5.52527 0
M  V30 8166 H 778.626 -4.41447 4.0606 0
M  V30 8167 H 780.305 -4.49995 4.6488 0
M  V30 8168 N 780.437 -1.16799 -1.0581 0
M  V30 8169 C 781.848 -0.95945 -1.60161 0
M  V30 8170 C 782.199 0.49543 -1.89842 0
M  V30 8171 O 781.324 1.36957 -1.67546 0
M  V30 8172 C 781.919 -1.73527 -2.90987 0
M  V30 8173 C 780.478 -1.57158 -3.42021 0
M  V30 8174 C 779.625 -1.74089 -2.15843 0
M  V30 8175 H 782.576 -1.31598 -0.886992 0
M  V30 8176 H 782.597 -1.21397 -3.60615 0
M  V30 8177 H 782.109 -2.79411 -2.69353 0
M  V30 8178 H 780.21 -0.537361 -3.68705 0
M  V30 8179 H 780.323 -2.35858 -4.17022 0
M  V30 8180 H 778.687 -1.16874 -2.26302 0
M  V30 8181 H 779.47 -2.81371 -1.96686 0
M  V30 8182 N 781.915 1.24427 -0.967243 0
M  V30 8183 C 782.845 2.2773 -0.515899 0
M  V30 8184 C 783.826 1.64197 0.444227 0
M  V30 8185 O 785.011 1.91193 0.340451 0
M  V30 8186 C 782.141 3.46751 0.195149 0
M  V30 8187 C 781.095 4.22548 -0.680953 0
M  V30 8188 C 780.421 5.34456 0.161561 0
M  V30 8189 C 781.721 4.83914 -1.96532 0
M  V30 8190 H 783.415 2.65735 -1.37933 0
M  V30 8191 H 780.961 1.27742 -0.664681 0
M  V30 8192 H 782.914 4.18153 0.522117 0
M  V30 8193 H 781.638 3.07771 1.09292 0
M  V30 8194 H 780.297 3.52946 -0.991186 0
M  V30 8195 H 779.945 4.91716 1.05947 0
M  V30 8196 H 779.645 5.86087 -0.421418 0
M  V30 8197 H 781.169 6.08685 0.483211 0
M  V30 8198 H 782.583 5.47392 -1.70396 0
M  V30 8199 H 780.98 5.45775 -2.49499 0
M  V30 8200 H 782.05 4.05393 -2.66053 0
M  V30 8201 N 783.393 0.737304 1.3929 0
M  V30 8202 C 784.809 0.413132 1.5416 0
M  V30 8203 C 785.009 -1.07574 1.70382 0
M  V30 8204 O 784.065 -1.86185 1.70562 0
M  V30 8205 C 785.378 1.19817 2.75798 0
M  V30 8206 C 786.926 1.18662 2.89635 0
M  V30 8207 C 787.401 1.95427 4.14213 0
M  V30 8208 N 788.892 1.92605 4.21257 0
M  V30 8209 C 789.627 2.48808 5.16606 0
M  V30 8210 N 789.123 3.13659 6.1773 0
M  V30 8211 N 790.916 2.38829 5.08839 0
M  V30 8212 H 783.067 1.70243 1.27008 0
M  V30 8213 H 785.33 0.720802 0.61575 0
M  V30 8214 H 785.036 2.25179 2.70161 0
M  V30 8215 H 784.91 0.804144 3.68529 0
M  V30 8216 H 787.297 0.141112 2.94762 0
M  V30 8217 H 787.378 1.62003 1.97961 0
M  V30 8218 H 787.022 2.9998 4.09847 0
M  V30 8219 H 786.952 1.4949 5.04936 0
M  V30 8220 H 789.443 1.45362 3.48824 0
M  V30 8221 H 789.756 3.54006 6.8695 0
M  V30 8222 H 788.101 3.17749 6.1811 0
M  V30 8223 H 791.292 1.87806 4.28773 0
M  V30 8224 H 791.465 2.82929 5.82971 0
M  V30 8225 N 784.871 -1.49948 0.485112 0
M  V30 8226 C 786.096 -2.073 -0.0645059 0
M  V30 8227 C 786.521 -1.345 -1.31497 0
M  V30 8228 O 785.879 -0.39687 -1.76903 0
M  V30 8229 C 785.927 -3.59201 -0.317304 0
M  V30 8230 O 785.031 -3.88085 -1.39514 0
M  V30 8231 H 784.372 -0.663723 0.0191822 0
M  V30 8232 H 786.902 -1.92963 0.680179 0
M  V30 8233 H 786.912 -4.04227 -0.553604 0
M  V30 8234 H 785.587 -4.11602 0.596387 0
M  V30 8235 H 784.164 -3.54885 -1.14504 0
M  V30 8236 N 786.349 -0.21828 -1.56081 0
M  V30 8237 C 787.281 0.725447 -2.17416 0
M  V30 8238 C 788.294 1.15995 -1.14233 0
M  V30 8239 O 789.483 1.09166 -1.41227 0
M  V30 8240 C 786.583 1.99401 -2.7403 0
M  V30 8241 C 785.756 1.7156 -4.02351 0
M  V30 8242 C 784.815 2.8309 -4.43561 0
M  V30 8243 O 783.841 2.51701 -5.10525 0
M  V30 8244 N 785.043 4.11972 -4.08973 0
M  V30 8245 H 787.808 0.200801 -2.99027 0
M  V30 8246 H 785.369 -0.0371514 -1.61857 0
M  V30 8247 H 787.361 2.73198 -2.98571 0
M  V30 8248 H 785.931 2.42923 -1.96742 0
M  V30 8249 H 785.151 0.814233 -3.85699 0
M  V30 8250 H 786.439 1.50385 -4.86068 0
M  V30 8251 H 785.837 4.40319 -3.55156 0
M  V30 8252 H 784.394 4.82323 -4.38415 0
M  V30 8253 N 787.827 1.57504 0.0551401 0
M  V30 8254 C 788.757 2.07864 1.06372 0
M  V30 8255 C 789.738 0.975565 1.39344 0
M  V30 8256 O 790.923 1.24929 1.48682 0
M  V30 8257 C 788.053 2.53643 2.3724 0
M  V30 8258 C 787.007 3.67978 2.18578 0
M  V30 8259 C 786.333 3.9987 3.54976 0
M  V30 8260 C 787.633 4.97405 1.59329 0
M  V30 8261 H 789.327 2.92379 0.644595 0
M  V30 8262 H 786.873 1.40654 0.308619 0
M  V30 8263 H 788.826 2.8749 3.08103 0
M  V30 8264 H 787.55 1.66177 2.81163 0
M  V30 8265 H 786.209 3.3444 1.50152 0
M  V30 8266 H 785.857 3.0951 3.965 0
M  V30 8267 H 785.557 4.76867 3.43324 0
M  V30 8268 H 787.081 4.36228 4.27244 0
M  V30 8269 H 788.495 5.29375 2.20078 0
M  V30 8270 H 786.892 5.78837 1.58327 0
M  V30 8271 H 787.962 4.81697 0.55638 0
M  V30 8272 N 789.305 -0.326896 1.54172 0
M  V30 8273 C 790.553 -1.06313 1.71878 0
M  V30 8274 C 790.874 -1.88652 0.493498 0
M  V30 8275 O 790.144 -1.89608 -0.492522 0
M  V30 8276 H 788.724 -0.39549 0.633716 0
M  V30 8277 H 791.386 -0.364139 1.91468 0
M  V30 8278 H 790.482 -1.73105 2.59694 0
M  V30 8279 N 790.784 -1.46188 -0.588786 0
M  V30 8280 C 791.716 -1.52319 -1.71265 0
M  V30 8281 C 792.729 -0.412096 -1.57498 0
M  V30 8282 O 793.918 -0.680146 -1.65034 0
M  V30 8283 C 791.018 -1.38164 -3.09458 0
M  V30 8284 C 790.191 -2.63284 -3.49286 0
M  V30 8285 C 789.25 -2.43415 -4.66514 0
M  V30 8286 O 788.276 -3.17113 -4.72682 0
M  V30 8287 N 789.478 -1.49187 -5.61002 0
M  V30 8288 H 792.243 -2.49219 -1.66463 0
M  V30 8289 H 789.804 -1.42167 -0.774601 0
M  V30 8290 H 791.796 -1.22653 -3.85666 0
M  V30 8291 H 790.366 -0.494678 -3.08661 0
M  V30 8292 H 789.586 -2.93779 -2.62845 0
M  V30 8293 H 790.874 -3.46413 -3.7266 0
M  V30 8294 H 790.272 -0.884027 -5.5875 0
M  V30 8295 H 788.829 -1.39642 -6.36666 0
M  V30 8296 N 792.262 0.832906 -1.33792 0
M  V30 8297 C 793.678 1.1245 -1.13257 0
M  V30 8298 C 793.878 2.01369 0.0725832 0
M  V30 8299 O 792.934 2.41071 0.751082 0
M  V30 8300 C 794.247 1.78084 -2.42294 0
M  V30 8301 C 795.795 1.90624 -2.48257 0
M  V30 8302 C 796.27 2.59673 -3.77271 0
M  V30 8303 N 797.761 2.67181 -3.78376 0
M  V30 8304 C 798.496 3.21313 -4.74916 0
M  V30 8305 N 797.992 3.76086 -5.81835 0
M  V30 8306 N 799.785 3.19621 -4.62384 0
M  V30 8307 H 791.936 0.241244 -2.11026 0
M  V30 8308 H 794.199 0.169557 -0.932713 0
M  V30 8309 H 793.905 1.20209 -3.30519 0
M  V30 8310 H 793.779 2.78049 -2.5489 0
M  V30 8311 H 796.166 2.4765 -1.60478 0
M  V30 8312 H 796.247 0.89591 -2.39598 0
M  V30 8313 H 795.891 2.03304 -4.65435 0
M  V30 8314 H 795.821 3.61189 -3.8321 0
M  V30 8315 H 798.312 2.28346 -3.01108 0
M  V30 8316 H 798.625 4.15612 -6.51526 0
M  V30 8317 H 796.97 3.74357 -5.85561 0
M  V30 8318 H 800.161 2.76091 -3.7801 0
M  V30 8319 H 800.334 3.61504 -5.37791 0
M  V30 8320 N 793.74 1.17359 1.05189 0
M  V30 8321 C 794.989 0.956412 1.77583 0
M  V30 8322 C 795.302 -0.516018 1.88671 0
M  V30 8323 O 796.508 -0.851401 2.57805 0
M  V30 8324 C 794.964 1.66203 3.19225 0
M  V30 8325 C 794.572 3.17299 3.16267 0
M  V30 8326 C 796.316 1.52725 3.96075 0
M  V30 8327 C 794.223 3.8055 4.52698 0
M  V30 8328 H 793.153 0.354204 0.665624 0
M  V30 8329 H 795.804 1.40612 1.17901 0
M  V30 8330 H 794.186 1.14006 3.79234 0
M  V30 8331 H 795.36 3.76431 2.65776 0
M  V30 8332 H 793.675 3.3079 2.52917 0
M  V30 8333 H 796.272 1.97351 4.96947 0
M  V30 8334 H 796.615 0.477803 4.13549 0
M  V30 8335 H 797.148 2.02139 3.42614 0
M  V30 8336 H 793.887 4.85492 4.4043 0
M  V30 8337 H 793.407 3.26206 5.03339 0
M  V30 8338 H 795.086 3.82757 5.21638 0
M  V30 8339 N 795.218 -1.23913 0.973828 0
M  V30 8340 C 796.629 -1.73992 0.677021 0
M  V30 8341 C 796.98 -1.78833 -0.807036 0
M  V30 8342 O 796.105 -1.42183 -1.63135 0
M  V30 8343 C 796.7 -3.15985 1.22226 0
M  V30 8344 C 795.259 -3.63547 0.975228 0
M  V30 8345 C 794.406 -2.42001 1.35392 0
M  V30 8346 H 797.357 -1.09529 1.14844 0
M  V30 8347 H 797.378 -3.75875 0.591489 0
M  V30 8348 H 796.89 -3.12429 2.30238 0
M  V30 8349 H 794.991 -3.72493 -0.0891047 0
M  V30 8350 H 795.104 -4.50693 1.62518 0
M  V30 8351 H 793.468 -2.42708 0.772334 0
M  V30 8352 H 794.251 -2.41122 2.44367 0
M  V30 8353 N 796.696 -0.74468 -1.38897 0
M  V30 8354 C 797.943 -0.296884 -2.00312 0
M  V30 8355 C 798.271 1.11878 -1.59102 0
M  V30 8356 O 797.526 1.7789 -0.815702 0
M  V30 8357 C 797.825 -0.357302 -3.55609 0
M  V30 8358 C 797.491 -1.72736 -4.16501 0
M  V30 8359 C 796.153 -2.10232 -4.32846 0
M  V30 8360 C 798.505 -2.62647 -4.50184 0
M  V30 8361 C 795.833 -3.3713 -4.80167 0
M  V30 8362 C 798.185 -3.88926 -4.98918 0
M  V30 8363 C 796.849 -4.26503 -5.1347 0
M  V30 8364 H 796.119 -0.108638 -0.732993 0
M  V30 8365 H 798.766 -0.953419 -1.66079 0
M  V30 8366 H 797.071 0.382805 -3.89925 0
M  V30 8367 H 798.768 0.0074596 -4.00999 0
M  V30 8368 H 795.358 -1.42585 -4.04187 0
M  V30 8369 H 799.542 -2.34945 -4.37166 0
M  V30 8370 H 794.798 -3.66174 -4.89619 0
M  V30 8371 H 798.972 -4.58745 -5.23952 0
M  V30 8372 H 796.599 -5.24896 -5.49898 0
M  V30 8373 N 798.174 1.49689 -0.493057 0
M  V30 8374 C 799.42 2.02727 0.0543518 0
M  V30 8375 C 799.753 1.37264 1.37376 0
M  V30 8376 O 799.028 0.505644 1.87812 0
M  V30 8377 C 799.311 3.59456 0.215226 0
M  V30 8378 C 799.164 4.35459 -1.12675 0
M  V30 8379 C 800.483 4.29511 0.959586 0
M  V30 8380 H 797.602 0.736773 0.0182786 0
M  V30 8381 H 800.244 1.78792 -0.642924 0
M  V30 8382 H 798.394 3.79981 0.809122 0
M  V30 8383 H 800.066 4.2645 -1.75891 0
M  V30 8384 H 798.309 3.9833 -1.71801 0
M  V30 8385 H 798.98 5.43454 -0.967578 0
M  V30 8386 H 801.456 4.13594 0.455977 0
M  V30 8387 H 800.332 5.38939 1.04098 0
M  V30 8388 H 800.593 3.94202 2.00144 0
M  V30 8389 N 799.652 0.226554 1.55963 0
M  V30 8390 C 800.584 -0.713907 2.17798 0
M  V30 8391 C 801.597 -1.15387 1.14846 0
M  V30 8392 O 802.786 -1.08416 1.41804 0
M  V30 8393 C 799.886 -1.97945 2.75084 0
M  V30 8394 C 799.059 -1.69424 4.03255 0
M  V30 8395 C 798.118 -2.80734 4.45056 0
M  V30 8396 O 797.144 -2.4899 5.11852 0
M  V30 8397 N 798.346 -4.09797 4.11152 0
M  V30 8398 H 801.111 -0.18494 2.99129 0
M  V30 8399 H 798.672 0.0457346 1.61835 0
M  V30 8400 H 800.664 -2.71611 3.00016 0
M  V30 8401 H 799.234 -2.41876 1.98027 0
M  V30 8402 H 798.454 -0.793767 3.86126 0
M  V30 8403 H 799.742 -1.47806 4.86858 0
M  V30 8404 H 799.14 -4.38429 3.57486 0
M  V30 8405 H 797.697 -4.79992 4.40966 0
M  V30 8406 N 801.13 -1.57531 -0.0467866 0
M  V30 8407 C 802.08 -2.01845 -1.06031 0
M  V30 8408 C 803.064 -0.904662 -1.33059 0
M  V30 8409 O 804.256 -1.16858 -1.32941 0
M  V30 8410 C 801.385 -2.48673 -2.36679 0
M  V30 8411 C 800.471 -3.66837 -2.12818 0
M  V30 8412 N 800.862 -4.80172 -1.5896 0
M  V30 8413 C 799.16 -3.73869 -2.43183 0
M  V30 8414 C 799.861 -5.61895 -1.50494 0
M  V30 8415 N 798.837 -5.0648 -1.97431 0
M  V30 8416 H 802.639 -2.869 -0.637623 0
M  V30 8417 H 800.153 -1.6041 -0.253427 0
M  V30 8418 H 802.15 -2.78671 -3.10077 0
M  V30 8419 H 800.81 -1.65016 -2.79642 0
M  V30 8420 H 801.821 -5.01967 -1.27474 0
M  V30 8421 H 798.498 -3.00977 -2.89342 0
M  V30 8422 H 799.888 -6.62918 -1.09494 0
M  V30 8423 N 802.608 0.318715 -1.54344 0
M  V30 8424 C 803.538 1.39751 -1.87061 0
M  V30 8425 C 804.519 1.53741 -0.727848 0
M  V30 8426 O 805.704 1.67541 -0.982016 0
M  V30 8427 C 802.834 2.76446 -2.10226 0
M  V30 8428 C 801.788 2.77239 -3.26071 0
M  V30 8429 C 801.114 4.17056 -3.34617 0
M  V30 8430 C 802.414 2.40555 -4.63606 0
M  V30 8431 H 804.108 1.12619 -2.77412 0
M  V30 8432 H 801.654 0.540318 -1.33479 0
M  V30 8433 H 803.607 3.51985 -2.31699 0
M  V30 8434 H 802.331 3.05066 -1.16629 0
M  V30 8435 H 800.99 2.04155 -3.04493 0
M  V30 8436 H 800.638 4.42824 -2.3857 0
M  V30 8437 H 800.338 4.18492 -4.12478 0
M  V30 8438 H 801.862 4.94401 -3.5833 0
M  V30 8439 H 803.276 3.05808 -4.84927 0
M  V30 8440 H 801.673 2.53234 -5.44052 0
M  V30 8441 H 802.743 1.35698 -4.65526 0
M  V30 8442 N 804.086 1.46499 0.581025 0
M  V30 8443 C 805.019 1.51706 1.70472 0
M  V30 8444 C 805.997 0.371036 1.5831 0
M  V30 8445 O 807.181 0.575426 1.79502 0
M  V30 8446 C 804.308 1.3972 3.08538 0
M  V30 8447 C 803.354 2.58525 3.39215 0
M  V30 8448 S 804.187 4.20872 3.311 0
M  V30 8449 C 805.343 4.11398 4.71702 0
M  V30 8450 H 805.576 2.46777 1.65796 0
M  V30 8451 H 803.109 1.34405 0.759908 0
M  V30 8452 H 805.067 1.33492 3.88188 0
M  V30 8453 H 803.728 0.460742 3.10702 0
M  V30 8454 H 802.921 2.46137 4.3981 0
M  V30 8455 H 802.523 2.61752 2.67136 0
M  V30 8456 H 804.815 3.78182 5.62125 0
M  V30 8457 H 805.758 5.11997 4.89147 0
M  V30 8458 H 806.166 3.42624 4.48631 0
M  V30 8459 N 805.565 -0.825799 1.34232 0
M  V30 8460 C 806.79 -1.61883 1.29648 0
M  V30 8461 C 807.215 -1.87669 -0.127295 0
M  V30 8462 O 806.573 -1.45016 -1.08813 0
M  V30 8463 C 806.621 -2.93846 2.09014 0
M  V30 8464 O 805.725 -3.85778 1.4577 0
M  V30 8465 H 805.066 -0.492454 0.445405 0
M  V30 8466 H 807.596 -1.02641 1.76992 0
M  V30 8467 H 807.606 -3.43435 2.20264 0
M  V30 8468 H 806.281 -2.74401 3.12533 0
M  V30 8469 H 804.858 -3.4429 1.43245 0
M  V30 8470 N 807.043 -1.17915 -1.04565 0
M  V30 8471 C 808.289 -0.972863 -1.77942 0
M  V30 8472 C 808.622 0.496753 -1.87739 0
M  V30 8473 O 807.897 1.3688 -1.38181 0
M  V30 8474 C 808.18 -1.62227 -3.21488 0
M  V30 8475 C 808.033 -3.16441 -3.19664 0
M  V30 8476 C 809.352 -1.33137 -4.19479 0
M  V30 8477 H 806.471 -0.354843 -0.645953 0
M  V30 8478 H 809.113 -1.45508 -1.22178 0
M  V30 8479 H 807.263 -1.21224 -3.69103 0
M  V30 8480 H 808.935 -3.66544 -2.80077 0
M  V30 8481 H 807.178 -3.48863 -2.57832 0
M  V30 8482 H 807.849 -3.57012 -4.21006 0
M  V30 8483 H 810.325 -1.68654 -3.80388 0
M  V30 8484 H 809.201 -1.81151 -5.18146 0
M  V30 8485 H 809.462 -0.253319 -4.41374 0
M  V30 8486 N 808.521 1.23394 -0.980386 0
M  V30 8487 C 809.484 2.23092 -0.525619 0
M  V30 8488 C 810.484 1.56129 0.384745 0
M  V30 8489 O 811.674 1.73284 0.178439 0
M  V30 8490 C 808.806 3.40074 0.23712 0
M  V30 8491 H 809.999 2.64839 -1.40714 0
M  V30 8492 H 807.552 1.36227 -0.766275 0
M  V30 8493 H 808.287 3.03783 1.13518 0
M  V30 8494 H 808.072 3.89883 -0.416356 0
M  V30 8495 H 809.562 4.14043 0.543892 0
M  V30 8496 N 809.999 0.752036 1.385 0
M  V30 8497 C 811.245 0.307958 2.00448 0
M  V30 8498 C 811.578 -1.10702 1.59558 0
M  V30 8499 O 810.853 -1.75788 0.832391 0
M  V30 8500 C 811.136 0.429092 3.57534 0
M  V30 8501 C 810.989 1.88507 4.08393 0
M  V30 8502 C 812.308 -0.178442 4.39738 0
M  V30 8503 H 809.427 0.113373 0.728228 0
M  V30 8504 H 812.069 0.951389 1.64465 0
M  V30 8505 H 810.219 -0.118695 3.88319 0
M  V30 8506 H 811.891 2.49104 3.88259 0
M  V30 8507 H 810.134 2.40066 3.61318 0
M  V30 8508 H 810.805 1.92099 5.17496 0
M  V30 8509 H 813.281 0.28872 4.15097 0
M  V30 8510 H 812.157 -0.0634349 5.48863 0
M  V30 8511 H 812.418 -1.26655 4.23569 0
M  V30 8512 N 811.477 -1.49425 0.500989 0
M  V30 8513 C 812.723 -2.02753 -0.0436 0
M  V30 8514 C 813.056 -1.37991 -1.36646 0
M  V30 8515 O 812.331 -0.515597 -1.87542 0
M  V30 8516 C 812.614 -3.59565 -0.19616 0
M  V30 8517 C 812.467 -4.34855 1.14982 0
M  V30 8518 C 813.786 -4.30014 -0.936795 0
M  V30 8519 H 810.905 -0.73686 -0.0143711 0
M  V30 8520 H 813.547 -1.78448 0.652397 0
M  V30 8521 H 811.697 -3.80405 -0.788959 0
M  V30 8522 H 813.369 -4.25512 1.7815 0
M  V30 8523 H 811.612 -3.97414 1.73911 0
M  V30 8524 H 812.283 -5.42933 0.996385 0
M  V30 8525 H 814.759 -4.1383 -0.434036 0
M  V30 8526 H 813.635 -5.39483 -1.01238 0
M  V30 8527 H 813.896 -3.95257 -1.9805 0
M  V30 8528 N 812.955 -0.234822 -1.55841 0
M  V30 8529 C 813.865 0.680828 -2.24504 0
M  V30 8530 C 814.881 1.20306 -1.25708 0
M  V30 8531 O 816.057 1.24188 -1.58554 0
M  V30 8532 C 813.122 1.86636 -2.92178 0
M  V30 8533 C 812.183 1.3848 -4.06352 0
M  V30 8534 C 811.416 2.51382 -4.70789 0
M  V30 8535 O 811.639 3.69831 -4.34259 0
M  V30 8536 O 810.573 2.21828 -5.59532 0
M  V30 8537 H 814.399 0.12583 -3.03439 0
M  V30 8538 H 811.984 -0.00381817 -1.494 0
M  V30 8539 H 813.866 2.55845 -3.34845 0
M  V30 8540 H 812.541 2.40921 -2.16192 0
M  V30 8541 H 811.448 0.660341 -3.68226 0
M  V30 8542 H 812.781 0.888177 -4.8412 0
M  V30 8543 N 814.433 1.57553 0.0384317 0
M  V30 8544 C 815.396 2.04927 1.02653 0
M  V30 8545 C 816.396 0.951768 1.29607 0
M  V30 8546 O 817.586 1.21568 1.24768 0
M  V30 8547 C 814.718 2.45828 2.36181 0
M  V30 8548 H 815.911 2.93474 0.617508 0
M  V30 8549 H 813.464 1.53679 0.285031 0
M  V30 8550 H 814.199 1.60408 2.8185 0
M  V30 8551 H 813.984 3.25945 2.1795 0
M  V30 8552 H 815.474 2.82939 3.0714 0
M  V30 8553 N 815.911 -0.310526 1.54511 0
M  V30 8554 C 817.157 -1.04846 1.73595 0
M  V30 8555 C 817.49 -1.87244 0.515118 0
M  V30 8556 O 816.765 -1.88282 -0.48786 0
M  V30 8557 C 817.048 -1.96237 3.01932 0
M  V30 8558 C 816.901 -1.17082 4.34295 0
M  V30 8559 C 818.22 -2.9556 3.26086 0
M  V30 8560 H 815.339 -0.37976 0.631626 0
M  V30 8561 H 817.981 -0.32394 1.87218 0
M  V30 8562 H 816.131 -2.58015 2.90449 0
M  V30 8563 H 817.803 -0.576643 4.57682 0
M  V30 8564 H 816.046 -0.473336 4.3121 0
M  V30 8565 H 816.717 -1.84257 5.20339 0
M  V30 8566 H 819.193 -2.43908 3.37117 0
M  V30 8567 H 818.069 -3.5668 4.17218 0
M  V30 8568 H 818.33 -3.68715 2.4393 0
M  V30 8569 N 817.389 -1.46805 -0.573248 0
M  V30 8570 C 818.805 -1.31969 -0.897577 0
M  V30 8571 C 819.005 -0.298171 -1.99282 0
M  V30 8572 O 818.061 0.295953 -2.5076 0
M  V30 8573 C 819.374 -2.70859 -1.30598 0
M  V30 8574 C 820.922 -2.79022 -1.4183 0
M  V30 8575 C 821.397 -4.18516 -1.86033 0
M  V30 8576 N 822.888 -4.2098 -1.9321 0
M  V30 8577 C 823.623 -5.25814 -2.28707 0
M  V30 8578 N 823.119 -6.40968 -2.6293 0
M  V30 8579 N 824.912 -5.13184 -2.29343 0
M  V30 8580 H 817.063 -2.11869 0.150094 0
M  V30 8581 H 819.326 -0.947989 0.00447895 0
M  V30 8582 H 819.032 -3.46965 -0.575161 0
M  V30 8583 H 818.906 -3.01585 -2.26554 0
M  V30 8584 H 821.293 -2.03198 -2.13996 0
M  V30 8585 H 821.374 -2.51969 -0.441024 0
M  V30 8586 H 821.018 -4.94839 -1.14442 0
M  V30 8587 H 820.948 -4.42982 -2.84735 0
M  V30 8588 H 823.439 -3.37898 -1.69214 0
M  V30 8589 H 823.752 -7.16729 -2.88996 0
M  V30 8590 H 822.097 -6.44314 -2.60547 0
M  V30 8591 H 825.288 -4.22255 -2.02036 0
M  V30 8592 H 825.461 -5.94996 -2.56679 0
M  V30 8593 N 818.867 0.818669 -1.34668 0
M  V30 8594 C 820.092 1.61193 -1.30505 0
M  V30 8595 C 820.517 1.87734 0.117341 0
M  V30 8596 O 819.875 1.45591 1.08042 0
M  V30 8597 C 819.923 2.92733 -2.1057 0
M  V30 8598 O 819.027 3.85 -1.47813 0
M  V30 8599 H 818.368 0.490085 -0.44801 0
M  V30 8600 H 820.898 1.01701 -1.77534 0
M  V30 8601 H 820.908 3.42262 -2.22082 0
M  V30 8602 H 819.583 2.7274 -3.13984 0
M  V30 8603 H 818.16 3.43525 -1.45069 0
M  V30 8604 N 820.346 1.18468 1.03938 0
M  V30 8605 C 821.595 0.975193 1.76558 0
M  V30 8606 C 821.908 -0.495978 1.89207 0
M  V30 8607 O 823.114 -0.824009 2.58694 0
M  V30 8608 C 821.57 1.69579 3.17444 0
M  V30 8609 C 821.178 3.20636 3.12884 0
M  V30 8610 C 822.922 1.56917 3.94433 0
M  V30 8611 C 820.829 3.8533 4.48636 0
M  V30 8612 H 819.759 0.361244 0.66183 0
M  V30 8613 H 822.41 1.41854 1.16403 0
M  V30 8614 H 820.792 1.18022 3.78004 0
M  V30 8615 H 821.966 3.79228 2.61768 0
M  V30 8616 H 820.281 3.33454 2.49394 0
M  V30 8617 H 822.878 2.02611 4.94826 0
M  V30 8618 H 823.221 0.521638 4.13019 0
M  V30 8619 H 823.754 2.05762 3.40451 0
M  V30 8620 H 820.493 4.90136 4.35255 0
M  V30 8621 H 820.013 3.31526 4.99851 0
M  V30 8622 H 821.692 3.88269 5.17549 0
M  V30 8623 N 821.824 -1.22873 0.986916 0
M  V30 8624 C 823.235 -1.73264 0.695438 0
M  V30 8625 C 823.586 -1.79679 -0.788023 0
M  V30 8626 O 822.711 -1.43905 -1.61618 0
M  V30 8627 C 823.306 -3.14671 1.2557 0
M  V30 8628 C 821.865 -3.62492 1.01373 0
M  V30 8629 C 821.012 -2.40551 1.37951 0
M  V30 8630 H 823.963 -1.08304 1.15999 0
M  V30 8631 H 823.984 -3.75226 0.631322 0
M  V30 8632 H 823.496 -3.0997 2.33539 0
M  V30 8633 H 821.597 -3.72567 -0.0495917 0
M  V30 8634 H 821.71 -4.48944 1.67289 0
M  V30 8635 H 820.074 -2.41875 0.798033 0
M  V30 8636 H 820.857 -2.38516 2.46911 0
M  V30 8637 N 823.302 -0.75937 -1.38099 0
M  V30 8638 C 824.212 -0.13774 -2.34195 0
M  V30 8639 C 825.228 0.693985 -1.59561 0
M  V30 8640 O 826.404 0.616792 -1.91723 0
M  V30 8641 C 823.469 0.740535 -3.38699 0
M  V30 8642 C 822.53 -0.106225 -4.29169 0
M  V30 8643 C 821.763 0.730225 -5.28681 0
M  V30 8644 O 821.986 1.96796 -5.35376 0
M  V30 8645 O 820.92 0.145969 -6.01723 0
M  V30 8646 H 824.746 -0.931512 -2.89061 0
M  V30 8647 H 822.331 -0.520345 -1.40046 0
M  V30 8648 H 824.213 1.24232 -4.02672 0
M  V30 8649 H 822.888 1.51271 -2.8618 0
M  V30 8650 H 821.795 -0.654088 -3.68337 0
M  V30 8651 H 823.128 -0.841186 -4.84959 0
M  V30 8652 N 824.78 1.49157 -0.508906 0
M  V30 8653 C 826.01 2.06579 0.0293308 0
M  V30 8654 C 826.418 1.36852 1.30645 0
M  V30 8655 O 825.761 0.443079 1.78276 0
M  V30 8656 C 825.823 3.57838 0.345296 0
M  V30 8657 C 825.487 4.49302 -0.835256 0
M  V30 8658 C 826.484 4.90345 -1.72793 0
M  V30 8659 C 824.169 4.91494 -1.0363 0
M  V30 8660 C 826.163 5.72327 -2.80573 0
M  V30 8661 C 823.85 5.7325 -2.11726 0
M  V30 8662 C 824.848 6.13572 -3.00032 0
M  V30 8663 O 824.536 6.93691 -4.06261 0
M  V30 8664 H 824.268 0.675679 -0.0208193 0
M  V30 8665 H 826.822 1.9282 -0.707789 0
M  V30 8666 H 825.052 3.69634 1.13612 0
M  V30 8667 H 826.741 3.97467 0.823089 0
M  V30 8668 H 827.507 4.58388 -1.58446 0
M  V30 8669 H 823.386 4.59605 -0.358308 0
M  V30 8670 H 826.93 6.03719 -3.49527 0
M  V30 8671 H 822.827 6.0462 -2.26065 0
M  V30 8672 H 823.595 7.12011 -4.03711 0
M  V30 8673 N 826.258 0.243083 1.55714 0
M  V30 8674 C 827.19 -0.690766 2.18543 0
M  V30 8675 C 828.203 -1.14163 1.16064 0
M  V30 8676 O 829.392 -1.06906 1.42946 0
M  V30 8677 C 826.492 -1.95016 2.77168 0
M  V30 8678 C 825.665 -1.65137 4.05029 0
M  V30 8679 C 824.724 -2.75998 4.48009 0
M  V30 8680 O 823.75 -2.43547 5.14464 0
M  V30 8681 N 824.952 -4.05414 4.15476 0
M  V30 8682 H 827.717 -0.153203 2.99308 0
M  V30 8683 H 825.278 0.0628968 1.61778 0
M  V30 8684 H 827.27 -2.68414 3.0288 0
M  V30 8685 H 825.84 -2.39762 2.00582 0
M  V30 8686 H 825.06 -0.752768 3.86946 0
M  V30 8687 H 826.348 -1.42633 4.88399 0
M  V30 8688 H 825.746 -4.34613 3.62116 0
M  V30 8689 H 824.303 -4.75288 4.46032 0
M  V30 8690 N 827.736 -1.57571 -0.0300757 0
M  V30 8691 C 829.013 -1.80381 -0.756447 0
M  V30 8692 C 829.393 -0.840906 -1.93628 0
M  V30 8693 O 828.741 0.117143 -2.282 0
M  V30 8694 C 828.951 -3.2807 -1.19043 0
M  V30 8695 C 830.299 -3.93025 -1.60676 0
M  V30 8696 O 831.323 -3.32213 -1.28503 0
M  V30 8697 O 830.182 -5.00092 -2.20386 0
M  V30 8698 H 827.276 -0.741737 -0.365725 0
M  V30 8699 H 829.822 -1.69699 -0.00693177 0
M  V30 8700 H 828.594 -3.89748 -0.348128 0
M  V30 8701 H 828.217 -3.43637 -1.99999 0
M  V30 8702 N 829.214 0.302327 -1.54673 0
M  V30 8703 C 830.463 1.03533 -1.73101 0
M  V30 8704 C 830.776 1.88473 -0.523174 0
M  V30 8705 O 831.982 2.65029 -0.589229 0
M  V30 8706 C 830.438 1.89043 -3.06252 0
M  V30 8707 C 830.046 1.09112 -4.3451 0
M  V30 8708 C 831.79 2.61951 -3.34039 0
M  V30 8709 C 829.697 1.93891 -5.58713 0
M  V30 8710 H 828.627 0.390261 -0.645145 0
M  V30 8711 H 831.278 0.2924 -1.81155 0
M  V30 8712 H 829.66 2.67319 -2.92159 0
M  V30 8713 H 830.834 0.354596 -4.59434 0
M  V30 8714 H 829.149 0.477923 -4.13648 0
M  V30 8715 H 831.746 3.25729 -4.24033 0
M  V30 8716 H 832.089 3.30711 -2.52855 0
M  V30 8717 H 832.622 1.90725 -3.49097 0
M  V30 8718 H 829.361 1.29604 -6.4256 0
M  V30 8719 H 828.881 2.6522 -5.37976 0
M  V30 8720 H 830.56 2.51971 -5.95919 0
M  V30 8721 N 830.692 1.47107 0.565454 0
M  V30 8722 C 831.64 1.59368 1.69424 0
M  V30 8723 C 832.634 0.461344 1.62997 0
M  V30 8724 O 833.84 0.638849 1.68282 0
M  V30 8725 H 830.215 0.501387 0.560459 0
M  V30 8726 H 832.186 2.54242 1.56217 0
M  V30 8727 C 830.935 1.61739 3.07792 0
M  V30 8728 H 830.258 2.48215 3.13416 0
M  V30 8729 H 831.698 1.7437 3.86486 0
M  V30 8730 C 830.157 0.349156 3.35086 0
M  V30 8731 O 830.687 -0.553287 3.97871 0
M  V30 8732 N 828.893 0.231723 2.89675 0
M  V30 8733 H 828.44 0.967021 2.3876 0
M  V30 8734 H 828.398 -0.615911 3.08308 0
M  V30 8735 N 832.17 -0.811516 1.35101 0
M  V30 8736 C 833.1 -1.9378 1.30275 0
M  V30 8737 C 834.081 -1.69165 0.178075 0
M  V30 8738 O 835.266 -1.90599 0.372256 0
M  V30 8739 C 832.396 -3.30439 1.06899 0
M  V30 8740 C 831.35 -3.69523 2.15955 0
M  V30 8741 C 830.676 -5.0429 1.77751 0
M  V30 8742 C 831.976 -3.80419 3.57881 0
M  V30 8743 H 833.67 -1.98075 2.24514 0
M  V30 8744 H 831.216 -0.951586 1.08078 0
M  V30 8745 H 833.169 -4.08828 1.02164 0
M  V30 8746 H 831.893 -3.26473 0.0910462 0
M  V30 8747 H 830.552 -2.93416 2.19778 0
M  V30 8748 H 830.2 -4.96823 0.785876 0
M  V30 8749 H 829.9 -5.31411 2.5075 0
M  V30 8750 H 831.424 -5.85125 1.74533 0
M  V30 8751 H 832.838 -4.49051 3.56407 0
M  V30 8752 H 831.235 -4.19005 4.29598 0
M  V30 8753 H 832.305 -2.82105 3.94391 0
M  V30 8754 N 833.648 -1.19017 -1.03309 0
M  V30 8755 C 835.064 -0.941483 -1.28873 0
M  V30 8756 C 835.264 0.388587 -1.97718 0
M  V30 8757 O 834.32 1.12111 -2.26246 0
M  V30 8758 C 835.633 -2.11249 -2.13996 0
M  V30 8759 C 837.181 -2.15164 -2.27318 0
M  V30 8760 C 837.656 -3.31704 -3.15811 0
M  V30 8761 N 839.147 -3.31613 -3.23399 0
M  V30 8762 C 839.882 -4.18431 -3.9205 0
M  V30 8763 N 839.378 -5.15397 -4.62966 0
M  V30 8764 N 841.171 -4.06321 -3.88406 0
M  V30 8765 H 833.322 -2.04599 -0.570343 0
M  V30 8766 H 835.585 -0.894406 -0.314232 0
M  V30 8767 H 835.291 -3.07482 -1.70727 0
M  V30 8768 H 835.165 -2.07955 -3.14697 0
M  V30 8769 H 837.552 -1.19504 -2.6982 0
M  V30 8770 H 837.633 -2.22513 -1.26182 0
M  V30 8771 H 837.277 -4.2764 -2.74019 0
M  V30 8772 H 837.207 -3.21592 -4.16997 0
M  V30 8773 H 839.698 -2.6142 -2.72888 0
M  V30 8774 H 840.011 -5.78 -5.12968 0
M  V30 8775 H 838.356 -5.19349 -4.61846 0
M  V30 8776 H 841.547 -3.29849 -3.3214 0
M  V30 8777 H 841.72 -4.74196 -4.41635 0
M  V30 8778 N 835.127 1.22348 -0.993418 0
M  V30 8779 C 836.373 1.91393 -0.67056 0
M  V30 8780 C 836.706 1.77163 0.795428 0
M  V30 8781 O 835.981 1.14084 1.57528 0
M  V30 8782 C 836.264 3.43589 -1.0779 0
M  V30 8783 C 836.117 3.66867 -2.60248 0
M  V30 8784 C 837.436 4.35545 -0.631527 0
M  V30 8785 H 834.555 0.695057 -0.24508 0
M  V30 8786 H 837.197 1.44213 -1.23703 0
M  V30 8787 H 835.347 3.83903 -0.595902 0
M  V30 8788 H 837.019 3.35954 -3.16121 0
M  V30 8789 H 835.262 3.1113 -3.02293 0
M  V30 8790 H 835.933 4.73457 -2.838 0
M  V30 8791 H 838.409 4.0275 -1.04554 0
M  V30 8792 H 837.285 5.40707 -0.944831 0
M  V30 8793 H 837.546 4.39618 0.467779 0
M  V30 8794 N 836.605 0.766683 1.37694 0
M  V30 8795 C 837.552 0.147725 2.30327 0
M  V30 8796 C 838.522 -0.695366 1.50844 0
M  V30 8797 O 839.707 -0.64878 1.79431 0
M  V30 8798 C 836.847 -0.72935 3.37305 0
M  V30 8799 C 835.96 0.129795 4.31805 0
M  V30 8800 C 835.095 -0.751511 5.25857 0
M  V30 8801 C 834.134 0.110475 6.12 0
M  V30 8802 N 833.271 -0.728522 6.9831 0
M  V30 8803 H 838.111 0.943204 2.82679 0
M  V30 8804 H 835.648 0.476736 1.3916 0
M  V30 8805 H 837.606 -1.25263 3.97951 0
M  V30 8806 H 836.236 -1.49048 2.86329 0
M  V30 8807 H 835.288 0.770829 3.72508 0
M  V30 8808 H 836.6 0.794923 4.92425 0
M  V30 8809 H 835.754 -1.34146 5.91684 0
M  V30 8810 H 834.493 -1.45034 4.65636 0
M  V30 8811 H 833.498 0.712999 5.45157 0
M  V30 8812 H 834.723 0.806557 6.74293 0
M  V30 8813 H 832.669 -1.41206 6.40622 0
M  V30 8814 H 832.586 -0.12058 7.55904 0
M  V30 8815 H 833.854 -1.30303 7.68532 0
M  V30 8816 N 838.083 -1.48885 0.516809 0
M  V30 8817 C 839.329 -2.03395 -0.0140225 0
M  V30 8818 C 839.684 -1.38808 -1.33229 0
M  V30 8819 O 838.977 -0.520104 -1.84406 0
M  V30 8820 C 839.171 -3.56801 -0.206798 0
M  V30 8821 C 839 -4.36259 1.09124 0
M  V30 8822 C 837.77 -4.77689 1.64745 0
M  V30 8823 C 839.968 -4.73881 1.99854 0
M  V30 8824 N 837.95 -5.41634 2.88975 0
M  V30 8825 C 839.321 -5.37707 3.08661 0
M  V30 8826 C 841.376 -4.55816 2.00341 0
M  V30 8827 C 840.079 -5.85379 4.18001 0
M  V30 8828 C 842.105 -5.04459 3.08666 0
M  V30 8829 C 841.467 -5.68299 4.16191 0
M  V30 8830 H 837.566 -0.781169 0.036042 0
M  V30 8831 H 840.15 -1.81867 0.695173 0
M  V30 8832 H 838.321 -3.78181 -0.885064 0
M  V30 8833 H 840.053 -3.9795 -0.736053 0
M  V30 8834 H 836.808 -4.58392 1.19054 0
M  V30 8835 H 837.232 -5.78181 3.52187 0
M  V30 8836 H 841.874 -4.05851 1.18511 0
M  V30 8837 H 839.592 -6.34356 5.00618 0
M  V30 8838 H 843.178 -4.92281 3.10082 0
M  V30 8839 H 842.058 -6.05257 4.98631 0
M  V30 8840 N 839.561 -0.251338 -1.55583 0
M  V30 8841 C 840.972 0.25098 -1.85005 0
M  V30 8842 C 841.323 1.57259 -1.17321 0
M  V30 8843 O 840.448 2.11603 -0.453136 0
M  V30 8844 C 841.043 0.462161 -3.35633 0
M  V30 8845 C 839.602 0.908737 -3.65266 0
M  V30 8846 C 838.749 -0.0115418 -2.77298 0
M  V30 8847 H 841.7 -0.473782 -1.51463 0
M  V30 8848 H 841.721 1.30415 -3.57452 0
M  V30 8849 H 841.233 -0.499886 -3.84867 0
M  V30 8850 H 839.334 1.8831 -3.21512 0
M  V30 8851 H 839.447 0.762526 -4.72993 0
M  V30 8852 H 837.811 0.500612 -2.49732 0
M  V30 8853 H 838.594 -0.969042 -3.29339 0
M  V30 8854 N 841.039 1.57585 0.0217189 0
M  V30 8855 C 841.987 2.08134 1.03842 0
M  V30 8856 C 842.981 0.996662 1.36978 0
M  V30 8857 O 844.187 1.18149 1.35797 0
M  V30 8858 H 840.562 0.664298 0.352438 0
M  V30 8859 H 842.533 2.92583 0.58634 0
M  V30 8860 C 841.282 2.58218 2.32849 0
M  V30 8861 H 840.605 3.41302 2.08214 0
M  V30 8862 H 842.045 2.97289 3.02316 0
M  V30 8863 C 840.504 1.48664 3.02325 0
M  V30 8864 O 841.034 0.857075 3.9245 0
M  V30 8865 N 839.24 1.21938 2.63779 0
M  V30 8866 H 838.787 1.73319 1.90574 0
M  V30 8867 H 838.745 0.488523 3.10581 0
M  V30 8868 N 842.517 -0.29412 1.54831 0
M  V30 8869 C 843.794 -1.04847 1.65126 0
M  V30 8870 C 844.174 -2.04996 0.503986 0
M  V30 8871 O 843.522 -2.22996 -0.498496 0
M  V30 8872 C 843.732 -1.72418 3.03435 0
M  V30 8873 C 845.08 -2.24362 3.60481 0
M  V30 8874 O 846.104 -1.8244 3.05932 0
M  V30 8875 O 844.963 -3.01196 4.56008 0
M  V30 8876 H 842.057 -0.485032 0.669831 0
M  V30 8877 H 844.603 -0.291659 1.67175 0
M  V30 8878 H 843.375 -0.997351 3.78376 0
M  V30 8879 H 842.998 -2.54839 3.05193 0
M  V30 8880 N 843.995 -1.47404 -0.557645 0
M  V30 8881 C 845.244 -1.53268 -1.31118 0
M  V30 8882 C 845.557 -0.199414 -1.94581 0
M  V30 8883 O 846.763 -0.136039 -2.71159 0
M  V30 8884 C 845.219 -2.70178 -2.37764 0
M  V30 8885 C 844.827 -4.10032 -1.80493 0
M  V30 8886 C 846.571 -2.85334 -3.14301 0
M  V30 8887 C 844.478 -5.18244 -2.84916 0
M  V30 8888 H 843.408 -0.570491 -0.493007 0
M  V30 8889 H 846.059 -1.73678 -0.592308 0
M  V30 8890 H 844.441 -2.43147 -3.12563 0
M  V30 8891 H 845.615 -4.46964 -1.12069 0
M  V30 8892 H 843.93 -3.99759 -1.16542 0
M  V30 8893 H 846.527 -3.63347 -3.92279 0
M  V30 8894 H 846.87 -1.93761 -3.68459 0
M  V30 8895 H 847.403 -3.12133 -2.46613 0
M  V30 8896 H 844.142 -6.11691 -2.35614 0
M  V30 8897 H 843.662 -4.85829 -3.51753 0
M  V30 8898 H 845.341 -5.45174 -3.48417 0
M  V30 8899 N 845.473 0.80434 -1.35529 0
M  V30 8900 C 846.703 1.59052 -1.31856 0
M  V30 8901 C 847.111 1.88905 0.105549 0
M  V30 8902 O 846.454 1.49422 1.06858 0
M  V30 8903 C 846.516 2.94626 -2.06 0
M  V30 8904 C 846.18 2.87576 -3.55175 0
M  V30 8905 C 847.177 2.60856 -4.49722 0
M  V30 8906 C 844.862 3.06623 -3.97854 0
M  V30 8907 C 846.856 2.53262 -5.84925 0
M  V30 8908 C 844.543 2.98652 -5.33151 0
M  V30 8909 C 845.541 2.72007 -6.26499 0
M  V30 8910 O 845.229 2.64003 -7.59314 0
M  V30 8911 H 844.961 0.500486 -0.454411 0
M  V30 8912 H 847.515 1.0074 -1.78999 0
M  V30 8913 H 845.745 3.5493 -1.53498 0
M  V30 8914 H 847.434 3.55785 -1.95376 0
M  V30 8915 H 848.2 2.45858 -4.18066 0
M  V30 8916 H 844.079 3.26372 -3.2558 0
M  V30 8917 H 847.623 2.32386 -6.57756 0
M  V30 8918 H 843.52 3.13208 -5.64421 0
M  V30 8919 H 844.288 2.79595 -7.69265 0
M  V30 8920 N 846.951 1.19563 1.02676 0
M  V30 8921 C 848.181 1.0234 1.79472 0
M  V30 8922 C 848.589 -0.430891 1.84228 0
M  V30 8923 O 847.932 -1.31106 1.28674 0
M  V30 8924 C 847.994 1.51901 3.25832 0
M  V30 8925 C 847.658 3.00045 3.44706 0
M  V30 8926 C 848.655 3.9779 3.34752 0
M  V30 8927 C 846.34 3.38784 3.70851 0
M  V30 8928 C 848.334 5.32267 3.50672 0
M  V30 8929 C 846.021 4.73419 3.86416 0
M  V30 8930 C 847.019 5.69969 3.7633 0
M  V30 8931 O 846.707 7.02165 3.91432 0
M  V30 8932 H 846.439 0.360936 0.571578 0
M  V30 8933 H 848.993 1.58863 1.30198 0
M  V30 8934 H 847.223 0.897546 3.7614 0
M  V30 8935 H 848.912 1.30853 3.84229 0
M  V30 8936 H 849.678 3.69207 3.14502 0
M  V30 8937 H 845.557 2.64183 3.77794 0
M  V30 8938 H 849.101 6.07612 3.42715 0
M  V30 8939 H 844.998 5.01697 4.06165 0
M  V30 8940 H 845.766 7.09268 4.08511 0
M  V30 8941 N 848.429 -1.21819 0.999893 0
M  V30 8942 C 849.654 -1.95298 0.698094 0
M  V30 8943 C 850.079 -1.73273 -0.731982 0
M  V30 8944 O 849.437 -1.01634 -1.50134 0
M  V30 8945 C 849.485 -3.45922 1.01834 0
M  V30 8946 O 848.589 -4.12223 0.120801 0
M  V30 8947 H 847.93 -0.610729 0.260588 0
M  V30 8948 H 850.46 -1.5472 1.33876 0
M  V30 8949 H 850.47 -3.96471 0.963074 0
M  V30 8950 H 849.145 -3.61278 2.06037 0
M  V30 8951 H 847.722 -3.72177 0.232153 0
M  V30 8952 N 849.908 -0.773975 -1.37286 0
M  V30 8953 C 851.185 -0.263942 -1.93811 0
M  V30 8954 C 851.565 1.24138 -1.70743 0
M  V30 8955 O 850.913 2.02557 -1.05749 0
M  V30 8956 C 851.123 -0.639753 -3.43086 0
M  V30 8957 C 852.471 -0.610796 -4.20184 0
M  V30 8958 O 853.495 -0.579278 -3.51458 0
M  V30 8959 O 852.354 -0.639862 -5.42741 0
M  V30 8960 H 849.448 -0.0614331 -0.824715 0
M  V30 8961 H 851.994 -0.855477 -1.46559 0
M  V30 8962 H 850.766 -1.67856 -3.53469 0
M  V30 8963 H 850.389 -0.0212827 -3.97594 0
M  V30 8964 N 851.386 1.48609 -0.524698 0
M  V30 8965 C 852.316 2.32366 0.229837 0
M  V30 8966 C 853.297 1.41759 0.940129 0
M  V30 8967 O 854.482 1.7065 0.926936 0
M  V30 8968 C 851.612 3.22835 1.28043 0
M  V30 8969 C 850.566 4.22424 0.688603 0
M  V30 8970 C 849.892 5.0199 1.84146 0
M  V30 8971 C 851.192 5.21217 -0.336176 0
M  V30 8972 H 852.886 2.95698 -0.469339 0
M  V30 8973 H 850.432 1.42197 -0.227156 0
M  V30 8974 H 852.385 3.80253 1.8162 0
M  V30 8975 H 851.109 2.57492 2.00912 0
M  V30 8976 H 849.768 3.66185 0.174402 0
M  V30 8977 H 849.416 4.33076 2.5584 0
M  V30 8978 H 849.116 5.69392 1.45142 0
M  V30 8979 H 850.64 5.62259 2.38111 0
M  V30 8980 H 852.054 5.7319 0.112307 0
M  V30 8981 H 850.451 5.96642 -0.643324 0
M  V30 8982 H 851.521 4.68676 -1.24381 0
M  V30 8983 N 852.864 0.259585 1.55447 0
M  V30 8984 C 853.797 -0.675542 2.17972 0
M  V30 8985 C 854.775 -1.16362 1.13572 0
M  V30 8986 O 855.959 -1.23944 1.42021 0
M  V30 8987 C 853.086 -1.91952 2.79056 0
M  V30 8988 C 852.132 -1.56824 3.96621 0
M  V30 8989 S 852.965 -0.659846 5.31419 0
M  V30 8990 C 854.121 -1.91255 5.95963 0
M  V30 8991 H 854.354 -0.144236 2.9695 0
M  V30 8992 H 851.887 0.0439448 1.54337 0
M  V30 8993 H 853.845 -2.63362 3.14882 0
M  V30 8994 H 852.506 -2.42196 2 0
M  V30 8995 H 851.699 -2.49348 4.37997 0
M  V30 8996 H 851.301 -0.934472 3.62138 0
M  V30 8997 H 853.593 -2.85834 6.14252 0
M  V30 8998 H 854.536 -1.54207 6.91105 0
M  V30 8999 H 854.944 -2.07042 5.25161 0
M  V30 9000 N 854.342 -1.57594 -0.0133615 0
M  V30 9001 C 855.289 -2.07574 -1.00905 0
M  V30 9002 C 856.259 -0.968231 -1.34961 0
M  V30 9003 O 857.444 -1.23981 -1.45028 0
M  V30 9004 C 854.584 -2.5728 -2.30002 0
M  V30 9005 C 853.697 -3.81881 -2.01967 0
M  V30 9006 C 852.832 -4.20139 -3.25049 0
M  V30 9007 C 851.871 -5.37614 -2.92639 0
M  V30 9008 N 851.008 -5.71229 -4.08218 0
M  V30 9009 H 855.848 -2.92382 -0.575899 0
M  V30 9010 H 853.385 -1.4455 -0.272722 0
M  V30 9011 H 855.343 -2.84171 -3.05454 0
M  V30 9012 H 853.973 -1.75365 -2.71011 0
M  V30 9013 H 853.025 -3.61979 -1.16942 0
M  V30 9014 H 854.337 -4.67441 -1.74069 0
M  V30 9015 H 853.491 -4.48242 -4.08857 0
M  V30 9016 H 852.23 -3.33262 -3.56073 0
M  V30 9017 H 851.235 -5.09248 -2.07235 0
M  V30 9018 H 852.46 -6.26157 -2.62876 0
M  V30 9019 H 850.406 -4.8731 -4.39164 0
M  V30 9020 H 850.323 -6.51333 -3.83799 0
M  V30 9021 H 851.591 -6.03917 -4.92854 0
M  V30 9022 N 855.82 0.285905 -1.54985 0
M  V30 9023 C 857.069 1.01691 -1.74189 0
M  V30 9024 C 857.382 1.87908 -0.543135 0
M  V30 9025 O 858.588 2.64389 -0.617305 0
M  V30 9026 C 857.044 1.85785 -3.0824 0
M  V30 9027 C 856.652 1.04497 -4.35642 0
M  V30 9028 C 858.396 2.58393 -3.36798 0
M  V30 9029 C 856.303 1.87955 -5.60738 0
M  V30 9030 H 855.233 0.383396 -0.649248 0
M  V30 9031 H 857.884 0.27317 -1.81455 0
M  V30 9032 H 856.266 2.64205 -2.94978 0
M  V30 9033 H 857.44 0.305847 -4.59784 0
M  V30 9034 H 855.755 0.434023 -4.14132 0
M  V30 9035 H 858.352 3.21214 -4.27464 0
M  V30 9036 H 858.695 3.28011 -2.56349 0
M  V30 9037 H 859.228 1.87012 -3.511 0
M  V30 9038 H 855.967 1.22781 -6.43898 0
M  V30 9039 H 855.487 2.59499 -5.40759 0
M  V30 9040 H 857.166 2.45636 -5.98558 0
M  V30 9041 N 857.298 1.47698 0.54982 0
M  V30 9042 C 858.546 1.54397 1.30407 0
M  V30 9043 C 858.867 0.211026 1.93855 0
M  V30 9044 O 858.137 -0.765701 1.80316 0
M  V30 9045 H 856.717 0.568747 0.484289 0
M  V30 9046 H 859.379 1.84042 0.641444 0
M  V30 9047 H 858.475 2.31449 2.09375 0
M  V30 9048 N 858.776 -0.797141 1.35954 0
M  V30 9049 C 860.024 -1.55161 1.29497 0
M  V30 9050 C 860.345 -1.94582 -0.127659 0
M  V30 9051 O 859.615 -1.64343 -1.06622 0
M  V30 9052 H 858.195 -0.575413 0.47635 0
M  V30 9053 H 860.857 -0.950282 1.70164 0
M  V30 9054 H 859.953 -2.46272 1.9172 0
M  V30 9055 N 860.254 -1.20106 -1.0204 0
M  V30 9056 C 861.5 -1.01039 -1.75838 0
M  V30 9057 C 861.833 0.456819 -1.88751 0
M  V30 9058 O 861.108 1.33919 -1.41053 0
M  V30 9059 C 861.391 -1.69009 -3.17975 0
M  V30 9060 C 861.244 -3.2315 -3.1288 0
M  V30 9061 C 862.563 -1.42005 -4.16561 0
M  V30 9062 H 859.682 -0.368465 -0.638281 0
M  V30 9063 H 862.324 -1.48066 -1.19064 0
M  V30 9064 H 860.474 -1.29026 -3.66449 0
M  V30 9065 H 862.146 -3.72402 -2.72239 0
M  V30 9066 H 860.389 -3.54253 -2.50374 0
M  V30 9067 H 861.06 -3.65862 -4.13339 0
M  V30 9068 H 863.536 -1.76685 -3.76725 0
M  V30 9069 H 862.412 -1.92101 -5.14187 0
M  V30 9070 H 862.673 -0.346884 -4.40737 0
M  V30 9071 N 861.732 1.21287 -1.00634 0
M  V30 9072 C 862.662 2.25973 -0.588089 0
M  V30 9073 C 863.643 1.65527 0.391764 0
M  V30 9074 O 864.828 1.92179 0.279452 0
M  V30 9075 C 861.958 3.47197 0.0847336 0
M  V30 9076 C 860.912 4.20168 -0.815039 0
M  V30 9077 C 860.238 5.34699 -0.00855393 0
M  V30 9078 C 861.538 4.77416 -2.11828 0
M  V30 9079 H 863.232 2.61212 -1.46317 0
M  V30 9080 H 860.778 1.25563 -0.704985 0
M  V30 9081 H 862.731 4.19602 0.388821 0
M  V30 9082 H 861.455 3.11092 0.994456 0
M  V30 9083 H 860.114 3.49614 -1.10297 0
M  V30 9084 H 859.762 4.94837 0.902499 0
M  V30 9085 H 859.462 5.84449 -0.607664 0
M  V30 9086 H 860.986 6.09914 0.289317 0
M  V30 9087 H 862.4 5.41694 -1.87725 0
M  V30 9088 H 860.797 5.37561 -2.66736 0
M  V30 9089 H 861.867 3.96724 -2.78816 0
M  V30 9090 N 863.21 0.781244 1.36873 0
M  V30 9091 C 864.456 0.350407 1.9975 0
M  V30 9092 C 864.789 -1.07293 1.6187 0
M  V30 9093 O 864.064 -1.73983 0.869491 0
M  V30 9094 C 864.347 0.504834 3.56544 0
M  V30 9095 C 864.2 1.97127 4.04303 0
M  V30 9096 C 865.519 -0.0851272 4.40018 0
M  V30 9097 H 862.638 0.128794 0.725659 0
M  V30 9098 H 865.28 0.98606 1.6241 0
M  V30 9099 H 863.43 -0.0363006 3.88483 0
M  V30 9100 H 865.102 2.57284 3.82887 0
M  V30 9101 H 863.345 2.47676 3.56145 0
M  V30 9102 H 864.016 2.03033 5.13305 0
M  V30 9103 H 866.492 0.376704 4.14391 0
M  V30 9104 H 865.368 0.0530015 5.48874 0
M  V30 9105 H 865.629 -1.17642 4.2616 0
M  V30 9106 N 864.689 -1.48329 0.532571 0
M  V30 9107 C 865.637 -2.31336 -0.242133 0
M  V30 9108 C 866.631 -1.41391 -0.933006 0
M  V30 9109 O 867.837 -1.58284 -0.857096 0
M  V30 9110 H 864.212 -0.745724 -0.0969536 0
M  V30 9111 H 866.183 -2.94555 0.477504 0
M  V30 9112 C 864.932 -3.23501 -1.27446 0
M  V30 9113 H 864.255 -3.92659 -0.752261 0
M  V30 9114 H 865.695 -3.84461 -1.78789 0
M  V30 9115 C 864.154 -2.45288 -2.30944 0
M  V30 9116 O 864.684 -2.17955 -3.37429 0
M  V30 9117 N 862.89 -2.06737 -2.04226 0
M  V30 9118 H 862.437 -2.29166 -1.17647 0
M  V30 9119 H 862.395 -1.54719 -2.73696 0
M  V30 9120 N 866.167 -0.267825 -1.55308 0
M  V30 9121 C 867.392 0.357487 -2.04296 0
M  V30 9122 C 867.817 1.49222 -1.14518 0
M  V30 9123 O 867.175 1.80741 -0.142292 0
M  V30 9124 C 867.223 0.822899 -3.51085 0
M  V30 9125 O 866.327 1.93078 -3.6441 0
M  V30 9126 H 865.668 0.075025 -0.659748 0
M  V30 9127 H 868.198 -0.399996 -2.00652 0
M  V30 9128 H 868.208 1.12059 -3.92309 0
M  V30 9129 H 866.883 -0.0073562 -4.15899 0
M  V30 9130 H 865.46 1.63618 -3.35087 0
M  V30 9131 N 867.645 1.57599 0.00500368 0
M  V30 9132 C 868.873 1.94626 0.702016 0
M  V30 9133 C 869.288 0.86953 1.67585 0
M  V30 9134 O 868.645 -0.15199 1.81866 0
M  V30 9135 C 868.696 3.31658 1.43824 0
M  V30 9136 O 868.417 4.35197 0.503467 0
M  V30 9137 C 869.918 3.83114 2.23021 0
M  V30 9138 H 867.138 0.641785 0.195841 0
M  V30 9139 H 869.682 2.04451 -0.0446287 0
M  V30 9140 H 867.837 3.23156 2.13655 0
M  V30 9141 H 868.251 5.1444 1.02235 0
M  V30 9142 H 869.725 4.81438 2.7004 0
M  V30 9143 H 870.202 3.15559 3.05482 0
M  V30 9144 H 870.808 3.94775 1.58216 0
M  V30 9145 N 869.123 -0.277682 1.55134 0
M  V30 9146 C 870.053 -1.34742 1.90701 0
M  V30 9147 C 871.034 -1.51757 0.768354 0
M  V30 9148 O 872.219 -1.64879 1.02609 0
M  V30 9149 C 869.349 -2.70775 2.17481 0
M  V30 9150 C 868.303 -2.68497 3.33307 0
M  V30 9151 C 867.629 -4.08037 3.45557 0
M  V30 9152 C 868.929 -2.28178 4.69821 0
M  V30 9153 H 870.623 -1.05224 2.803 0
M  V30 9154 H 868.169 -0.504738 1.34864 0
M  V30 9155 H 870.122 -3.45719 2.40949 0
M  V30 9156 H 868.846 -3.01867 1.24676 0
M  V30 9157 H 867.505 -1.9601 3.09799 0
M  V30 9158 H 867.153 -4.36344 2.50226 0
M  V30 9159 H 866.853 -4.07409 4.23429 0
M  V30 9160 H 868.377 -4.84726 3.71312 0
M  V30 9161 H 869.791 -2.92843 4.92865 0
M  V30 9162 H 868.188 -2.3872 5.50575 0
M  V30 9163 H 869.258 -1.23308 4.6896 0
M  V30 9164 N 870.601 -1.47988 -0.541979 0
M  V30 9165 C 871.534 -1.56172 -1.66389 0
M  V30 9166 C 872.512 -0.412879 -1.57271 0
M  V30 9167 O 873.696 -0.622816 -1.77914 0
M  V30 9168 C 870.823 -1.47851 -3.04726 0
M  V30 9169 C 869.869 -2.67428 -3.32242 0
M  V30 9170 S 870.702 -4.29502 -3.19825 0
M  V30 9171 C 871.858 -4.2376 -4.60628 0
M  V30 9172 H 872.091 -2.51086 -1.59195 0
M  V30 9173 H 869.624 -1.36373 -0.724005 0
M  V30 9174 H 871.582 -1.43738 -3.84512 0
M  V30 9175 H 870.243 -0.542958 -3.09372 0
M  V30 9176 H 869.436 -2.57711 -4.33129 0
M  V30 9177 H 869.038 -2.68743 -2.60103 0
M  V30 9178 H 871.33 -3.92953 -5.51901 0
M  V30 9179 H 872.273 -5.24786 -4.75401 0
M  V30 9180 H 872.681 -3.54398 -4.39389 0
M  V30 9181 N 872.079 0.78992 -1.36375 0
M  V30 9182 C 873.327 1.54472 -1.30319 0
M  V30 9183 C 873.648 1.94647 0.117338 0
M  V30 9184 O 872.918 1.64906 1.05748 0
M  V30 9185 H 871.498 0.572879 -0.479394 0
M  V30 9186 H 874.16 0.941245 -1.70665 0
M  V30 9187 H 873.256 2.45252 -1.93024 0
M  V30 9188 N 873.557 1.20646 1.01402 0
M  V30 9189 C 874.467 0.973385 2.13453 0
M  V30 9190 C 875.483 -0.0715865 1.73853 0
M  V30 9191 O 876.659 0.116438 2.01063 0
M  V30 9192 C 873.724 0.531285 3.42605 0
M  V30 9193 C 872.785 1.64741 3.96433 0
M  V30 9194 C 872.018 1.22631 5.1942 0
M  V30 9195 O 872.241 0.0960891 5.70319 0
M  V30 9196 O 871.175 2.03474 5.66465 0
M  V30 9197 H 875.001 1.91164 2.35987 0
M  V30 9198 H 872.586 0.990553 1.11841 0
M  V30 9199 H 874.468 0.294095 4.20373 0
M  V30 9200 H 873.143 -0.378358 3.21481 0
M  V30 9201 H 872.05 1.93891 3.19933 0
M  V30 9202 H 873.383 2.53415 4.2195 0
M  V30 9203 N 875.035 -1.20752 1.01276 0
M  V30 9204 C 876.263 -1.94006 0.718976 0
M  V30 9205 C 876.678 -1.74544 -0.719711 0
M  V30 9206 O 876.035 -1.05697 -1.48776 0
M  V30 9207 C 876.086 -3.46208 1.04031 0
M  V30 9208 O 875.807 -3.65031 2.42248 0
M  V30 9209 C 877.308 -4.36614 0.767032 0
M  V30 9210 H 874.528 -0.616743 0.264327 0
M  V30 9211 H 877.072 -1.53352 1.3529 0
M  V30 9212 H 875.227 -3.84756 0.451852 0
M  V30 9213 H 875.641 -4.59054 2.53712 0
M  V30 9214 H 877.115 -5.42076 1.04198 0
M  V30 9215 H 877.592 -4.38182 -0.298851 0
M  V30 9216 H 878.198 -4.03723 1.33746 0
M  V30 9217 N 876.513 -0.788492 -1.36457 0
M  V30 9218 C 877.76 -0.360461 -1.99266 0
M  V30 9219 C 878.088 1.0676 -1.62581 0
M  V30 9220 O 877.343 1.75205 -0.871884 0
M  V30 9221 C 877.642 -0.470255 -3.54293 0
M  V30 9222 C 877.308 -1.85899 -4.10795 0
M  V30 9223 C 875.97 -2.23896 -4.25939 0
M  V30 9224 C 878.322 -2.76836 -4.41601 0
M  V30 9225 C 875.65 -3.52235 -4.69199 0
M  V30 9226 C 878.002 -4.04602 -4.86292 0
M  V30 9227 C 876.666 -4.42623 -4.99641 0
M  V30 9228 H 875.936 -0.131902 -0.729166 0
M  V30 9229 H 878.583 -1.00577 -1.62962 0
M  V30 9230 H 876.888 0.258559 -3.90946 0
M  V30 9231 H 878.585 -0.120119 -4.0082 0
M  V30 9232 H 875.175 -1.55372 -3.99447 0
M  V30 9233 H 879.359 -2.48735 -4.2947 0
M  V30 9234 H 874.615 -3.81565 -4.77722 0
M  V30 9235 H 878.789 -4.75182 -5.09092 0
M  V30 9236 H 876.416 -5.42125 -5.32921 0
M  V30 9237 N 877.991 1.48044 -0.54043 0
M  V30 9238 C 879.221 2.06595 -0.0144943 0
M  V30 9239 C 879.629 1.39593 1.27713 0
M  V30 9240 O 878.972 0.480794 1.77297 0
M  V30 9241 C 879.034 3.5849 0.269316 0
M  V30 9242 C 878.698 4.47429 -0.930372 0
M  V30 9243 C 879.695 4.8657 -1.83155 0
M  V30 9244 C 877.38 4.89185 -1.14032 0
M  V30 9245 C 879.374 5.66246 -2.92649 0
M  V30 9246 C 877.061 5.6863 -2.23838 0
M  V30 9247 C 878.059 6.07069 -3.12979 0
M  V30 9248 O 877.747 6.84917 -4.20884 0
M  V30 9249 H 877.479 0.675086 -0.0351467 0
M  V30 9250 H 880.033 1.91275 -0.74853 0
M  V30 9251 H 878.263 3.71961 1.05745 0
M  V30 9252 H 879.952 3.99124 0.738595 0
M  V30 9253 H 880.718 4.54924 -1.68134 0
M  V30 9254 H 876.597 4.58742 -0.455717 0
M  V30 9255 H 880.141 5.96169 -3.62254 0
M  V30 9256 H 876.038 5.99688 -2.38839 0
M  V30 9257 H 876.806 7.03287 -4.18723 0
M  V30 9258 N 879.47 0.276058 1.55163 0
M  V30 9259 C 880.719 -0.341098 1.98795 0
M  V30 9260 C 881.032 -1.56905 1.16791 0
M  V30 9261 O 882.238 -2.25922 1.50571 0
M  V30 9262 C 880.694 -0.658231 3.5383 0
M  V30 9263 C 880.302 0.549972 4.44611 0
M  V30 9264 C 882.046 -1.23796 4.06048 0
M  V30 9265 C 879.953 0.207373 5.91036 0
M  V30 9266 H 878.883 -0.131224 0.742493 0
M  V30 9267 H 881.534 0.380858 1.79504 0
M  V30 9268 H 879.916 -1.43911 3.68925 0
M  V30 9269 H 881.09 1.32681 4.41285 0
M  V30 9270 H 879.405 1.04661 4.03032 0
M  V30 9271 H 882.002 -1.50811 5.12991 0
M  V30 9272 H 882.345 -2.17214 3.55139 0
M  V30 9273 H 882.878 -0.519345 3.94395 0
M  V30 9274 H 879.617 1.10946 6.46043 0
M  V30 9275 H 879.137 -0.532687 5.9743 0
M  V30 9276 H 880.816 -0.200072 6.46691 0
M  V30 9277 N 880.948 -1.576 0.00335426 0
M  V30 9278 C 881.878 -2.11668 -0.985839 0
M  V30 9279 C 882.859 -1.02661 -1.35627 0
M  V30 9280 O 884.044 -1.30361 -1.43943 0
M  V30 9281 C 881.174 -2.62273 -2.27662 0
M  V30 9282 C 880.128 -3.75837 -2.0477 0
M  V30 9283 C 879.454 -4.12769 -3.39891 0
M  V30 9284 C 880.754 -5.02975 -1.40759 0
M  V30 9285 H 882.448 -2.9457 -0.535637 0
M  V30 9286 H 879.994 -1.41702 -0.256204 0
M  V30 9287 H 881.947 -2.98727 -2.97221 0
M  V30 9288 H 880.671 -1.76498 -2.74802 0
M  V30 9289 H 879.33 -3.39782 -1.37636 0
M  V30 9290 H 878.978 -3.24013 -3.8474 0
M  V30 9291 H 878.678 -4.89281 -3.25389 0
M  V30 9292 H 880.202 -4.51784 -4.1076 0
M  V30 9293 H 881.616 -5.37179 -2.00279 0
M  V30 9294 H 880.013 -5.84315 -1.36734 0
M  V30 9295 H 881.083 -4.83431 -0.377218 0
M  V30 9296 N 882.426 0.269451 -1.5528 0
M  V30 9297 C 883.675 0.998381 -1.75258 0
M  V30 9298 C 883.988 1.87321 -0.563034 0
M  V30 9299 O 885.194 2.63719 -0.645313 0
M  V30 9300 C 883.65 1.82505 -3.10193 0
M  V30 9301 C 883.258 0.99871 -4.36726 0
M  V30 9302 C 885.002 2.54807 -3.3952 0
M  V30 9303 C 882.909 1.81997 -5.627 0
M  V30 9304 H 881.839 0.376488 -0.653278 0
M  V30 9305 H 884.49 0.253909 -1.81735 0
M  V30 9306 H 882.872 2.61061 -2.97763 0
M  V30 9307 H 884.046 0.257064 -4.60082 0
M  V30 9308 H 882.361 0.390074 -4.14569 0
M  V30 9309 H 884.958 3.16662 -4.30847 0
M  V30 9310 H 885.301 3.25273 -2.59813 0
M  V30 9311 H 885.834 1.83278 -3.53064 0
M  V30 9312 H 882.573 1.15945 -6.45164 0
M  V30 9313 H 882.093 2.53749 -5.43481 0
M  V30 9314 H 883.772 2.39274 -6.0113 0
M  V30 9315 N 883.904 1.48273 0.534124 0
M  V30 9316 C 885.152 1.55771 1.28762 0
M  V30 9317 C 885.473 0.231575 1.9362 0
M  V30 9318 O 884.743 -0.746533 1.81118 0
M  V30 9319 H 883.323 0.573851 0.47823 0
M  V30 9320 H 885.985 1.84712 0.621888 0
M  V30 9321 H 885.081 2.33657 2.06908 0
M  V30 9322 N 885.382 -0.782676 1.36792 0
M  V30 9323 C 886.622 -1.55396 1.32784 0
M  V30 9324 C 886.986 -1.91789 -0.0900272 0
M  V30 9325 O 888.187 -2.6759 -0.254725 0
M  V30 9326 C 886.458 -2.79227 2.23085 0
M  V30 9327 S 888.017 -3.69404 2.36825 0
M  V30 9328 H 884.835 -0.532139 0.471539 0
M  V30 9329 H 887.437 -0.921285 1.72431 0
M  V30 9330 H 886.141 -2.50553 3.25041 0
M  V30 9331 H 885.672 -3.47462 1.84482 0
M  V30 9332 H 887.687 -4.70683 1.57074 0
M  V30 9333 N 886.86 -1.21182 -1.00761 0
M  V30 9334 C 888.108 -1.02543 -1.74153 0
M  V30 9335 C 888.429 0.442372 -1.89916 0
M  V30 9336 O 887.699 1.31927 -1.44818 0
M  V30 9337 H 886.279 -0.37644 -0.645214 0
M  V30 9338 H 888.941 -1.52446 -1.21434 0
M  V30 9339 H 888.037 -1.49122 -2.7417 0
M  V30 9340 N 888.338 1.20213 -1.01915 0
M  V30 9341 C 889.585 1.89647 -0.709955 0
M  V30 9342 C 889.913 1.7901 0.760631 0
M  V30 9343 O 889.168 1.17028 1.56853 0
M  V30 9344 C 889.467 3.40232 -1.09438 0
M  V30 9345 C 889.133 3.7107 -2.5616 0
M  V30 9346 C 887.795 3.79196 -2.96249 0
M  V30 9347 C 890.147 3.85169 -3.51133 0
M  V30 9348 C 887.475 3.98882 -4.30244 0
M  V30 9349 C 889.827 4.06365 -4.8482 0
M  V30 9350 C 888.491 4.12722 -5.24611 0
M  V30 9351 H 887.761 0.693967 -0.259791 0
M  V30 9352 H 890.408 1.42419 -1.2802 0
M  V30 9353 H 888.713 3.89292 -0.442596 0
M  V30 9354 H 890.41 3.92257 -0.832811 0
M  V30 9355 H 887 3.65346 -2.24099 0
M  V30 9356 H 891.184 3.78243 -3.21319 0
M  V30 9357 H 886.44 4.02039 -4.60624 0
M  V30 9358 H 890.614 4.16216 -5.58334 0
M  V30 9359 H 888.241 4.27728 -6.28453 0
M  V30 9360 N 889.816 0.795718 1.36037 0
M  V30 9361 C 890.764 0.18649 2.31851 0
M  V30 9362 C 891.758 -0.657704 1.56111 0
M  V30 9363 O 892.964 -0.552083 1.71324 0
M  V30 9364 H 889.339 0.0415363 0.750852 0
M  V30 9365 H 891.31 1.00992 2.8079 0
M  V30 9366 C 890.059 -0.65918 3.41394 0
M  V30 9367 H 889.382 -0.01894 3.99796 0
M  V30 9368 H 890.822 -1.05202 4.10741 0
M  V30 9369 C 889.281 -1.82011 2.83502 0
M  V30 9370 O 889.811 -2.91703 2.76174 0
M  V30 9371 N 888.017 -1.62821 2.40703 0
M  V30 9372 H 887.564 -0.735965 2.46863 0
M  V30 9373 H 887.522 -2.40657 2.02316 0
M  V30 9374 N 891.294 -1.47756 0.548274 0
M  V30 9375 C 892.54 -2.02789 0.0209265 0
M  V30 9376 C 892.873 -1.42268 -1.32187 0
M  V30 9377 O 892.148 -0.575001 -1.85806 0
M  V30 9378 C 892.431 -3.60007 -0.0816674 0
M  V30 9379 C 892.284 -4.30977 1.28759 0
M  V30 9380 C 893.603 -4.32777 -0.799515 0
M  V30 9381 H 890.722 -0.736944 0.00907884 0
M  V30 9382 H 893.364 -1.76282 0.708839 0
M  V30 9383 H 891.514 -3.82722 -0.667537 0
M  V30 9384 H 893.186 -4.19629 1.91597 0
M  V30 9385 H 891.429 -3.9168 1.86466 0
M  V30 9386 H 892.1 -5.39488 1.16861 0
M  V30 9387 H 894.576 -4.15001 -0.30216 0
M  V30 9388 H 893.452 -5.42431 -0.840239 0
M  V30 9389 H 893.713 -4.01358 -1.85375 0
M  V30 9390 N 892.772 -0.284283 -1.55015 0
M  V30 9391 C 894 0.332948 -2.04203 0
M  V30 9392 C 894.415 1.48783 -1.16229 0
M  V30 9393 O 893.772 1.81567 -0.184323 0
M  V30 9394 C 893.823 0.805207 -3.52418 0
M  V30 9395 O 893.544 -0.303689 -4.37046 0
M  V30 9396 C 895.045 1.48931 -4.17534 0
M  V30 9397 H 892.265 0.0747447 -0.666824 0
M  V30 9398 H 894.809 -0.419048 -2.00161 0
M  V30 9399 H 892.964 1.50727 -3.56876 0
M  V30 9400 H 893.378 0.0609703 -5.24465 0
M  V30 9401 H 894.852 1.77108 -5.22816 0
M  V30 9402 H 895.329 2.42389 -3.66257 0
M  V30 9403 H 895.935 0.830867 -4.17105 0
M  V30 9404 N 894.251 1.57596 -0.0117121 0
M  V30 9405 C 895.199 2.1029 0.994035 0
M  V30 9406 C 896.193 1.02549 1.34833 0
M  V30 9407 O 897.399 1.21003 1.3326 0
M  V30 9408 H 893.774 0.671624 0.338268 0
M  V30 9409 H 895.745 2.93761 0.524147 0
M  V30 9410 C 894.494 2.63099 2.27319 0
M  V30 9411 H 893.817 3.45642 2.00927 0
M  V30 9412 H 895.257 3.03635 2.95942 0
M  V30 9413 C 893.716 1.55044 2.99104 0
M  V30 9414 O 894.246 0.940127 3.90544 0
M  V30 9415 N 892.452 1.27506 2.61133 0
M  V30 9416 H 891.999 1.77322 1.86855 0
M  V30 9417 H 891.957 0.554292 3.09475 0
M  V30 9418 N 895.729 -0.261212 1.5542 0
M  V30 9419 C 896.954 -1.01341 1.80955 0
M  V30 9420 C 897.379 -1.78711 0.586849 0
M  V30 9421 O 896.737 -1.75266 -0.463837 0
M  V30 9422 C 896.785 -1.93835 3.04073 0
M  V30 9423 O 895.889 -3.02791 2.79985 0
M  V30 9424 H 895.23 -0.289123 0.597749 0
M  V30 9425 H 897.76 -0.286543 2.02584 0
M  V30 9426 H 897.77 -2.3557 3.33123 0
M  V30 9427 H 896.445 -1.36936 3.9271 0
M  V30 9428 H 895.022 -2.65287 2.62063 0
M  V30 9429 N 897.207 -1.48554 -0.526253 0
M  V30 9430 C 898.155 -1.63804 -1.65139 0
M  V30 9431 C 899.149 -0.504398 -1.61716 0
M  V30 9432 O 900.355 -0.683241 -1.66529 0
M  V30 9433 H 896.73 -0.516071 -0.546969 0
M  V30 9434 H 898.701 -2.58294 -1.49421 0
M  V30 9435 C 897.45 -1.69843 -3.03395 0
M  V30 9436 H 896.773 -2.56438 -3.06724 0
M  V30 9437 H 898.213 -1.84555 -3.81727 0
M  V30 9438 C 896.672 -0.437875 -3.34042 0
M  V30 9439 O 897.202 0.447604 -3.99198 0
M  V30 9440 N 895.408 -0.308444 -2.88958 0
M  V30 9441 H 894.955 -1.02998 -2.36112 0
M  V30 9442 H 894.913 0.533952 -3.09833 0
M  V30 9443 N 898.685 0.775411 -1.37205 0
M  V30 9444 C 900.096 1.35147 -1.28811 0
M  V30 9445 C 900.447 1.96089 0.0659168 0
M  V30 9446 O 899.572 1.93558 0.967684 0
M  V30 9447 C 900.167 2.45715 -2.33258 0
M  V30 9448 C 898.726 2.99099 -2.2851 0
M  V30 9449 C 897.873 1.72286 -2.17285 0
M  V30 9450 H 900.824 0.575954 -1.4788 0
M  V30 9451 H 900.845 3.251 -1.97712 0
M  V30 9452 H 900.357 2.01331 -3.31795 0
M  V30 9453 H 898.458 3.47868 -1.33485 0
M  V30 9454 H 898.571 3.54962 -3.21774 0
M  V30 9455 H 896.935 1.95068 -1.6377 0
M  V30 9456 H 897.718 1.3001 -3.1773 0
M  V30 9457 N 900.163 1.21714 1.00117 0
M  V30 9458 C 901.391 1.06278 1.77518 0
M  V30 9459 C 901.806 -0.387193 1.84787 0
M  V30 9460 O 901.163 -1.26854 1.31203 0
M  V30 9461 C 901.214 1.65795 3.21239 0
M  V30 9462 O 900.935 3.05119 3.14378 0
M  V30 9463 C 902.436 1.55521 4.15124 0
M  V30 9464 H 899.656 0.373013 0.557765 0
M  V30 9465 H 902.2 1.61133 1.25922 0
M  V30 9466 H 900.355 1.15022 3.69931 0
M  V30 9467 H 900.769 3.33643 4.04701 0
M  V30 9468 H 902.243 2.01902 5.13751 0
M  V30 9469 H 902.72 0.510307 4.36225 0
M  V30 9470 H 903.326 2.0556 3.72324 0
M  V30 9471 N 901.641 -1.19671 1.02551 0
M  V30 9472 C 902.89 -1.88591 0.715272 0
M  V30 9473 C 903.203 -1.80274 -0.758982 0
M  V30 9474 O 904.409 -2.44413 -1.18213 0
M  V30 9475 C 902.865 -3.38264 1.22905 0
M  V30 9476 C 902.473 -3.55146 2.73084 0
M  V30 9477 C 904.217 -4.12683 0.994649 0
M  V30 9478 C 902.124 -4.98693 3.17897 0
M  V30 9479 H 901.054 -0.706326 0.263857 0
M  V30 9480 H 903.705 -1.35322 1.23936 0
M  V30 9481 H 902.087 -3.9091 0.632892 0
M  V30 9482 H 903.261 -3.12845 3.38326 0
M  V30 9483 H 901.576 -2.94112 2.94766 0
M  V30 9484 H 904.173 -5.18536 1.30478 0
M  V30 9485 H 904.516 -4.16243 -0.0686466 0
M  V30 9486 H 905.049 -3.66164 1.55464 0
M  V30 9487 H 901.788 -5.00293 4.23542 0
M  V30 9488 H 901.308 -5.4177 2.57381 0
M  V30 9489 H 902.987 -5.67327 3.11045 0
M  V30 9490 N 903.119 -0.802921 -1.35613 0
M  V30 9491 C 904.359 -0.387163 -2.007 0
M  V30 9492 C 904.723 1.02546 -1.62322 0
M  V30 9493 O 905.924 1.54303 -2.201 0
M  V30 9494 C 904.195 -0.560813 -3.52973 0
M  V30 9495 S 905.754 -0.234935 -4.38171 0
M  V30 9496 H 902.572 -0.147218 -0.695592 0
M  V30 9497 H 905.174 -1.04437 -1.65267 0
M  V30 9498 H 903.878 -1.58897 -3.78391 0
M  V30 9499 H 903.409 0.111845 -3.93241 0
M  V30 9500 H 905.424 0.958715 -4.8685 0
M  V30 9501 N 904.597 1.47463 -0.556102 0
M  V30 9502 C 905.846 2.01678 -0.029492 0
M  V30 9503 C 906.159 1.436 1.32809 0
M  V30 9504 O 907.365 1.89472 1.94455 0
M  V30 9505 C 905.821 3.599 -0.00223937 0
M  V30 9506 C 905.429 4.26969 -1.35651 0
M  V30 9507 C 907.173 4.2187 0.471822 0
M  V30 9508 C 905.08 5.77194 -1.28843 0
M  V30 9509 H 904.01 0.753965 -0.00725504 0
M  V30 9510 H 906.661 1.69467 -0.703789 0
M  V30 9511 H 905.043 3.89068 0.737682 0
M  V30 9512 H 906.217 4.09444 -2.11406 0
M  V30 9513 H 904.532 3.76983 -1.76842 0
M  V30 9514 H 907.129 5.31955 0.541139 0
M  V30 9515 H 907.472 3.88968 1.48356 0
M  V30 9516 H 908.005 3.97228 -0.213207 0
M  V30 9517 H 904.744 6.14713 -2.27613 0
M  V30 9518 H 904.264 5.9706 -0.572668 0
M  V30 9519 H 905.943 6.3938 -0.990031 0
M  V30 9520 N 906.075 0.2925 1.54862 0
M  V30 9521 C 907.023 -0.603186 2.24643 0
M  V30 9522 C 908.017 -1.1439 1.24946 0
M  V30 9523 O 909.223 -1.09552 1.42823 0
M  V30 9524 H 905.598 -0.213105 0.721173 0
M  V30 9525 H 907.569 0.00799278 2.98399 0
M  V30 9526 C 906.318 -1.76769 2.99413 0
M  V30 9527 H 905.641 -1.36084 3.75927 0
M  V30 9528 H 907.081 -2.37066 3.51533 0
M  V30 9529 C 905.54 -2.66669 2.05886 0
M  V30 9530 O 906.07 -3.67525 1.62136 0
M  V30 9531 N 904.276 -2.34216 1.7202 0
M  V30 9532 H 903.823 -1.52246 2.07795 0
M  V30 9533 H 903.781 -2.94635 1.09717 0
M  V30 9534 N 907.553 -1.57587 0.0200696 0
M  V30 9535 C 908.83 -1.82696 -0.698677 0
M  V30 9536 C 909.21 -0.902082 -1.90855 0
M  V30 9537 O 908.558 0.0444834 -2.28457 0
M  V30 9538 C 908.768 -3.31691 -1.08546 0
M  V30 9539 C 910.116 -3.97938 -1.4809 0
M  V30 9540 O 911.14 -3.36133 -1.17869 0
M  V30 9541 O 909.999 -5.06851 -2.04364 0
M  V30 9542 H 907.093 -0.752997 -0.341942 0
M  V30 9543 H 909.639 -1.69635 0.04706 0
M  V30 9544 H 908.411 -3.90659 -0.223956 0
M  V30 9545 H 908.034 -3.49825 -1.88965 0
M  V30 9546 N 909.032 0.252966 -1.55557 0
M  V30 9547 C 909.962 1.31691 -1.9282 0
M  V30 9548 C 910.943 1.50516 -0.7924 0
M  V30 9549 O 912.128 1.63225 -1.05219 0
M  V30 9550 C 909.258 2.67281 -2.21762 0
M  V30 9551 C 908.212 2.6316 -3.37536 0
M  V30 9552 C 907.538 4.02488 -3.52005 0
M  V30 9553 C 908.838 2.20675 -4.73392 0
M  V30 9554 H 910.532 1.00751 -2.81939 0
M  V30 9555 H 908.078 0.483219 -1.3565 0
M  V30 9556 H 910.031 3.41842 -2.46419 0
M  V30 9557 H 908.755 2.99845 -1.29463 0
M  V30 9558 H 907.414 1.91057 -3.12878 0
M  V30 9559 H 907.062 4.32307 -2.57137 0
M  V30 9560 H 906.762 4.00621 -4.29857 0
M  V30 9561 H 908.286 4.78758 -3.78977 0
M  V30 9562 H 909.7 2.84965 -4.97461 0
M  V30 9563 H 908.097 2.29931 -5.54303 0
M  V30 9564 H 909.167 1.15831 -4.70862 0
M  V30 9565 N 910.51 1.48831 0.518367 0
M  V30 9566 C 911.759 1.5669 1.27008 0
M  V30 9567 C 912.072 0.250934 1.93984 0
M  V30 9568 O 913.278 0.207884 2.70703 0
M  V30 9569 C 911.734 2.76387 2.30517 0
M  V30 9570 C 911.342 4.14673 1.69559 0
M  V30 9571 C 913.086 2.93566 3.06625 0
M  V30 9572 C 910.993 5.25616 2.71076 0
M  V30 9573 H 909.923 0.583362 0.477708 0
M  V30 9574 H 912.574 1.75187 0.546052 0
M  V30 9575 H 910.956 2.51348 3.06006 0
M  V30 9576 H 912.13 4.49779 1.00179 0
M  V30 9577 H 910.445 4.02708 1.05902 0
M  V30 9578 H 913.042 3.7362 3.82508 0
M  V30 9579 H 913.385 2.03462 3.63193 0
M  V30 9580 H 913.918 3.18562 2.38251 0
M  V30 9581 H 910.657 6.17723 2.19313 0
M  V30 9582 H 910.177 4.94985 3.38748 0
M  V30 9583 H 911.856 5.5422 3.3384 0
M  V30 9584 N 911.988 -0.768124 1.37614 0
M  V30 9585 C 913.216 -1.55726 1.36224 0
M  V30 9586 C 913.631 -1.8873 -0.0515357 0
M  V30 9587 O 912.988 -1.51718 -1.0143 0
M  V30 9588 C 913.039 -2.86533 2.20412 0
M  V30 9589 O 912.76 -2.54942 3.56281 0
M  V30 9590 C 914.261 -3.80745 2.27041 0
M  V30 9591 H 911.481 -0.482325 0.46648 0
M  V30 9592 H 914.025 -0.95176 1.81002 0
M  V30 9593 H 912.18 -3.43496 1.79134 0
M  V30 9594 H 912.594 -3.38732 4.00451 0
M  V30 9595 H 914.068 -4.69523 2.90263 0
M  V30 9596 H 914.545 -4.20138 1.27987 0
M  V30 9597 H 915.151 -3.2971 2.68647 0
M  V30 9598 N 913.466 -1.22244 -0.994698 0
M  V30 9599 C 914.376 -1.00722 -2.11878 0
M  V30 9600 C 915.392 0.043919 -1.73945 0
M  V30 9601 O 916.568 -0.148411 -2.00852 0
M  V30 9602 C 913.633 -0.585723 -3.41717 0
M  V30 9603 C 912.694 -1.71027 -3.93762 0
M  V30 9604 C 911.927 -1.30879 -5.17403 0
M  V30 9605 O 912.15 -0.18681 -5.70094 0
M  V30 9606 O 911.084 -2.1246 -5.63156 0
M  V30 9607 H 914.91 -1.94894 -2.32916 0
M  V30 9608 H 912.495 -1.00822 -1.10251 0
M  V30 9609 H 914.377 -0.360935 -4.19851 0
M  V30 9610 H 913.052 0.327166 -3.22042 0
M  V30 9611 H 911.959 -1.98956 -3.16808 0
M  V30 9612 H 913.292 -2.60096 -4.17865 0
M  V30 9613 N 914.944 1.19125 -1.03184 0
M  V30 9614 C 916.174 1.92558 -0.748663 0
M  V30 9615 C 916.582 1.759 0.696837 0
M  V30 9616 O 915.925 1.08019 1.48585 0
M  V30 9617 C 915.987 3.4461 -1.02391 0
M  V30 9618 C 915.651 3.85041 -2.46155 0
M  V30 9619 C 916.648 3.89554 -3.44302 0
M  V30 9620 C 914.333 4.16594 -2.80633 0
M  V30 9621 C 916.327 4.25055 -4.74981 0
M  V30 9622 C 914.014 4.51767 -4.11521 0
M  V30 9623 C 915.012 4.55972 -5.08506 0
M  V30 9624 O 914.7 4.9033 -6.37049 0
M  V30 9625 H 914.432 0.618397 -0.273059 0
M  V30 9626 H 916.986 1.52122 -1.38015 0
M  V30 9627 H 915.216 3.85244 -0.335284 0
M  V30 9628 H 916.905 3.99283 -0.729927 0
M  V30 9629 H 917.671 3.65324 -3.19003 0
M  V30 9630 H 913.55 4.12503 -2.05821 0
M  V30 9631 H 917.094 4.28252 -5.50678 0
M  V30 9632 H 912.991 4.75455 -4.36592 0
M  V30 9633 H 913.759 5.08266 -6.41566 0
M  V30 9634 N 916.422 0.810101 1.35185 0
M  V30 9635 C 917.37 0.211071 2.3164 0
M  V30 9636 C 918.364 -0.641109 1.568 0
M  V30 9637 O 919.57 -0.533881 1.719 0
M  V30 9638 H 915.945 0.0494978 0.750369 0
M  V30 9639 H 917.916 1.03964 2.79703 0
M  V30 9640 C 916.665 -0.622933 3.42074 0
M  V30 9641 H 915.988 0.0234648 3.99793 0
M  V30 9642 H 917.428 -1.0084 4.11834 0
M  V30 9643 C 915.887 -1.78994 2.85417 0
M  V30 9644 O 916.417 -2.88758 2.79252 0
M  V30 9645 N 914.623 -1.60259 2.42416 0
M  V30 9646 H 914.17 -0.70974 2.4763 0
M  V30 9647 H 914.128 -2.38498 2.04857 0
M  V30 9648 N 917.9 -1.47166 0.563914 0
M  V30 9649 C 918.847 -2.30097 -0.180013 0
M  V30 9650 C 919.817 -1.39473 -0.902019 0
M  V30 9651 O 921.002 -1.68432 -0.896396 0
M  V30 9652 C 918.142 -3.23573 -1.19978 0
M  V30 9653 C 917.255 -4.2929 -0.483149 0
M  V30 9654 C 916.39 -5.0991 -1.48879 0
M  V30 9655 C 915.429 -6.07395 -0.757513 0
M  V30 9656 N 914.566 -6.8095 -1.71031 0
M  V30 9657 H 919.406 -2.93189 0.53329 0
M  V30 9658 H 916.943 -1.4451 0.274814 0
M  V30 9659 H 918.901 -3.76196 -1.80368 0
M  V30 9660 H 917.531 -2.6233 -1.88103 0
M  V30 9661 H 916.583 -3.79671 0.235414 0
M  V30 9662 H 917.895 -4.9872 0.0894075 0
M  V30 9663 H 917.049 -5.66717 -2.16603 0
M  V30 9664 H 915.788 -4.40397 -2.09527 0
M  V30 9665 H 914.793 -5.4976 -0.0663841 0
M  V30 9666 H 916.018 -6.78919 -0.156685 0
M  V30 9667 H 913.964 -6.14162 -2.30524 0
M  V30 9668 H 913.881 -7.46574 -1.19007 0
M  V30 9669 H 915.149 -7.42326 -2.37849 0
M  V30 9670 N 919.378 -0.300708 -1.54705 0
M  V30 9671 C 920.31 0.609179 -2.20956 0
M  V30 9672 C 921.323 1.09776 -1.20221 0
M  V30 9673 O 922.512 1.01527 -1.46815 0
M  V30 9674 C 919.612 1.84595 -2.84214 0
M  V30 9675 C 918.785 1.49991 -4.10879 0
M  V30 9676 C 917.844 2.5918 -4.57943 0
M  V30 9677 O 916.87 2.24285 -5.23149 0
M  V30 9678 N 918.072 3.89714 -4.30236 0
M  V30 9679 H 920.837 0.0420111 -2.99671 0
M  V30 9680 H 918.398 -0.122896 -1.61433 0
M  V30 9681 H 920.39 2.56988 -3.12633 0
M  V30 9682 H 918.96 2.32152 -2.09342 0
M  V30 9683 H 918.18 0.608637 -3.89473 0
M  V30 9684 H 919.468 1.24409 -4.93356 0
M  V30 9685 H 918.866 4.20874 -3.77997 0
M  V30 9686 H 917.423 4.58406 -4.63365 0
M  V30 9687 N 920.856 1.57574 -0.0284266 0
M  V30 9688 C 921.806 2.06674 0.962804 0
M  V30 9689 C 922.79 0.967115 1.28591 0
M  V30 9690 O 923.982 1.23068 1.27214 0
M  V30 9691 C 921.111 2.59682 2.24545 0
M  V30 9692 C 920.197 3.76573 1.95073 0
M  V30 9693 N 920.588 4.8721 1.35869 0
M  V30 9694 C 918.886 3.85046 2.25068 0
M  V30 9695 C 919.587 5.68436 1.23514 0
M  V30 9696 N 918.563 5.15323 1.73041 0
M  V30 9697 H 922.365 2.89615 0.500013 0
M  V30 9698 H 919.879 1.61437 0.176604 0
M  V30 9699 H 921.876 2.93148 2.96428 0
M  V30 9700 H 920.536 1.7817 2.71451 0
M  V30 9701 H 921.547 5.07477 1.03379 0
M  V30 9702 H 918.224 3.14439 2.74653 0
M  V30 9703 H 919.614 6.67387 0.777403 0
M  V30 9704 N 922.334 -0.244713 1.55689 0
M  V30 9705 C 923.281 -1.30301 1.905 0
M  V30 9706 C 924.251 -1.4772 0.759478 0
M  V30 9707 O 925.436 -1.61667 1.01333 0
M  V30 9708 C 922.576 -2.653 2.20703 0
M  V30 9709 C 921.689 -2.55872 3.48071 0
M  V30 9710 C 920.824 -3.83238 3.67834 0
M  V30 9711 C 919.863 -3.68436 4.88796 0
M  V30 9712 N 919 -4.877 5.05068 0
M  V30 9713 H 923.84 -0.999143 2.80751 0
M  V30 9714 H 921.377 -0.482099 1.38976 0
M  V30 9715 H 923.335 -3.43884 2.36219 0
M  V30 9716 H 921.965 -2.93831 1.33653 0
M  V30 9717 H 921.017 -1.68846 3.40874 0
M  V30 9718 H 922.329 -2.40845 4.36801 0
M  V30 9719 H 921.483 -4.70266 3.83321 0
M  V30 9720 H 920.222 -4.01165 2.77341 0
M  V30 9721 H 919.227 -2.79793 4.73282 0
M  V30 9722 H 920.452 -3.52003 5.8075 0
M  V30 9723 H 918.398 -5.05983 4.17513 0
M  V30 9724 H 918.315 -4.75312 5.8789 0
M  V30 9725 H 919.583 -5.76219 5.24969 0
M  V30 9726 N 923.813 -1.49104 -0.510467 0
M  V30 9727 C 924.776 -1.64569 -1.59529 0
M  V30 9728 C 925.776 -0.517937 -1.5223 0
M  V30 9729 O 926.966 -0.784183 -1.55551 0
M  V30 9730 C 924.098 -1.6342 -2.99177 0
M  V30 9731 H 925.291 -2.61318 -1.4715 0
M  V30 9732 H 922.844 -1.37993 -0.734001 0
M  V30 9733 H 923.579 -0.68221 -3.17043 0
M  V30 9734 H 923.364 -2.45312 -3.05883 0
M  V30 9735 H 924.854 -1.77474 -3.78011 0
M  V30 9736 N 925.291 0.760815 -1.38019 0
M  V30 9737 C 926.201 1.90526 -1.36884 0
M  V30 9738 C 927.217 1.71941 -0.266908 0
M  V30 9739 O 928.393 1.94988 -0.50413 0
M  V30 9740 C 925.458 3.25799 -1.18558 0
M  V30 9741 C 924.519 3.56961 -2.3849 0
M  V30 9742 C 923.752 4.8578 -2.21029 0
M  V30 9743 O 923.975 5.57629 -1.20023 0
M  V30 9744 O 922.909 5.16254 -3.0946 0
M  V30 9745 H 926.735 1.94437 -2.33298 0
M  V30 9746 H 924.32 0.905091 -1.18863 0
M  V30 9747 H 926.202 4.0669 -1.1037 0
M  V30 9748 H 924.877 3.22716 -0.252241 0
M  V30 9749 H 923.784 2.7626 -2.52252 0
M  V30 9750 H 925.117 3.64798 -3.30429 0
M  V30 9751 N 926.769 1.22769 0.988202 0
M  V30 9752 C 927.699 1.02627 2.09738 0
M  V30 9753 C 928.68 -0.0543211 1.70013 0
M  V30 9754 O 929.865 0.108811 1.93895 0
M  V30 9755 C 926.995 0.608302 3.41931 0
M  V30 9756 C 925.949 1.63536 3.95525 0
M  V30 9757 C 925.275 1.07308 5.23822 0
M  V30 9758 C 926.575 3.02649 4.25677 0
M  V30 9759 H 928.269 1.954 2.26847 0
M  V30 9760 H 925.815 0.940888 1.09011 0
M  V30 9761 H 927.768 0.454478 4.18942 0
M  V30 9762 H 926.492 -0.355095 3.24664 0
M  V30 9763 H 925.151 1.77704 3.20651 0
M  V30 9764 H 924.799 0.100894 5.02899 0
M  V30 9765 H 924.499 1.75925 5.60646 0
M  V30 9766 H 926.023 0.930938 6.03462 0
M  V30 9767 H 927.437 2.91828 4.93467 0
M  V30 9768 H 925.834 3.68434 4.73684 0
M  V30 9769 H 926.904 3.52228 3.33262 0
M  V30 9770 N 928.247 -1.18576 1.03814 0
M  V30 9771 C 929.194 -2.2212 0.626988 0
M  V30 9772 C 930.164 -1.62064 -0.363912 0
M  V30 9773 O 931.349 -1.89041 -0.258469 0
M  V30 9774 C 928.489 -3.45099 -0.00650133 0
M  V30 9775 C 927.602 -4.19503 1.03156 0
M  V30 9776 C 926.737 -5.29932 0.366852 0
M  V30 9777 C 925.776 -5.96104 1.39018 0
M  V30 9778 N 924.913 -6.98076 0.750625 0
M  V30 9779 H 929.753 -2.56646 1.51449 0
M  V30 9780 H 927.29 -1.26084 0.757702 0
M  V30 9781 H 929.248 -4.15363 -0.391108 0
M  V30 9782 H 927.878 -3.11201 -0.857536 0
M  V30 9783 H 926.93 -3.48092 1.53414 0
M  V30 9784 H 928.242 -4.64843 1.80893 0
M  V30 9785 H 927.396 -6.06657 -0.0720979 0
M  V30 9786 H 926.135 -4.85687 -0.442631 0
M  V30 9787 H 925.14 -5.18122 1.8393 0
M  V30 9788 H 926.365 -6.42432 2.20132 0
M  V30 9789 H 924.311 -6.55989 -0.0385981 0
M  V30 9790 H 924.228 -7.41655 1.46574 0
M  V30 9791 H 925.496 -7.78776 0.335986 0
M  V30 9792 N 929.725 -0.817259 -1.34754 0
M  V30 9793 C 931.136 -0.462215 -1.80888 0
M  V30 9794 C 931.487 1.01685 -1.67794 0
M  V30 9795 O 930.612 1.79094 -1.21468 0
M  V30 9796 C 931.207 -0.832204 -3.2842 0
M  V30 9797 C 929.766 -0.52961 -3.72655 0
M  V30 9798 C 928.913 -1.05214 -2.56564 0
M  V30 9799 H 931.864 -1.00795 -1.22581 0
M  V30 9800 H 931.885 -0.133804 -3.80265 0
M  V30 9801 H 931.397 -1.90873 -3.37919 0
M  V30 9802 H 929.498 0.537743 -3.68699 0
M  V30 9803 H 929.611 -1.06971 -4.67005 0
M  V30 9804 H 927.975 -0.473949 -2.50251 0
M  V30 9805 H 928.758 -2.135 -2.68836 0
M  V30 9806 N 931.203 1.46865 -0.571711 0
M  V30 9807 C 932.133 2.3298 0.155795 0
M  V30 9808 C 933.114 1.44678 0.894553 0
M  V30 9809 O 934.299 1.73513 0.872176 0
M  V30 9810 C 931.429 3.26745 1.17708 0
M  V30 9811 C 930.383 4.24401 0.553863 0
M  V30 9812 C 929.709 5.07595 1.68083 0
M  V30 9813 C 931.009 5.19884 -0.501827 0
M  V30 9814 H 932.703 2.94056 -0.563176 0
M  V30 9815 H 930.249 1.41402 -0.27228 0
M  V30 9816 H 932.202 3.85838 1.6943 0
M  V30 9817 H 930.926 2.63753 1.92618 0
M  V30 9818 H 929.585 3.66554 0.057815 0
M  V30 9819 H 929.233 4.40996 2.41933 0
M  V30 9820 H 928.933 5.73722 1.26953 0
M  V30 9821 H 930.457 5.6955 2.20103 0
M  V30 9822 H 931.871 5.73257 -0.0701057 0
M  V30 9823 H 930.268 5.94293 -0.832815 0
M  V30 9824 H 931.338 4.64482 -1.39229 0
M  V30 9825 N 932.681 0.308908 1.54543 0
M  V30 9826 C 934.097 -0.0442273 1.59539 0
M  V30 9827 C 934.297 -1.51743 1.32575 0
M  V30 9828 O 933.353 -2.27134 1.10302 0
M  V30 9829 C 934.666 0.360826 2.98527 0
M  V30 9830 C 936.214 0.310252 3.11459 0
M  V30 9831 C 936.689 0.690246 4.52769 0
M  V30 9832 N 938.18 0.643084 4.58714 0
M  V30 9833 C 938.915 0.909483 5.66141 0
M  V30 9834 N 938.411 1.24226 6.81572 0
M  V30 9835 N 940.204 0.836018 5.55848 0
M  V30 9836 H 932.355 1.26893 1.70329 0
M  V30 9837 H 934.618 0.514986 0.795923 0
M  V30 9838 H 934.324 1.38669 3.23209 0
M  V30 9839 H 934.198 -0.281563 3.76148 0
M  V30 9840 H 936.585 -0.706375 2.86521 0
M  V30 9841 H 936.666 0.987373 2.35976 0
M  V30 9842 H 936.31 1.70472 4.78437 0
M  V30 9843 H 936.24 -0.00903075 5.26599 0
M  V30 9844 H 938.731 0.397138 3.75807 0
M  V30 9845 H 939.044 1.4313 7.5943 0
M  V30 9846 H 937.389 1.28038 6.83104 0
M  V30 9847 H 940.58 0.575637 4.64547 0
M  V30 9848 H 940.753 1.047 6.39486 0
M  V30 9849 N 934.159 -1.57557 0.0367827 0
M  V30 9850 C 935.122 -2.09591 -0.927589 0
M  V30 9851 C 936.122 -1.01252 -1.24919 0
M  V30 9852 O 937.312 -1.27382 -1.18825 0
M  V30 9853 C 934.444 -2.56816 -2.24184 0
M  V30 9854 H 935.637 -2.96086 -0.476784 0
M  V30 9855 H 933.19 -1.54864 -0.211385 0
M  V30 9856 H 933.925 -1.73673 -2.73876 0
M  V30 9857 H 933.71 -3.35973 -2.0215 0
M  V30 9858 H 935.2 -2.97271 -2.93291 0
M  V30 9859 N 935.637 0.236453 -1.55816 0
M  V30 9860 C 936.914 0.986463 -1.68903 0
M  V30 9861 C 937.294 2.02984 -0.579722 0
M  V30 9862 O 936.642 2.24693 0.415389 0
M  V30 9863 C 936.852 1.61038 -3.09625 0
M  V30 9864 C 938.2 2.10829 -3.6856 0
M  V30 9865 O 939.224 1.7096 -3.12492 0
M  V30 9866 O 938.083 2.84064 -4.66873 0
M  V30 9867 H 935.177 0.459837 -0.687371 0
M  V30 9868 H 937.723 0.229412 -1.68142 0
M  V30 9869 H 936.495 0.856232 -3.81817 0
M  V30 9870 H 936.118 2.43336 -3.14441 0
M  V30 9871 N 937.115 1.49373 0.502552 0
M  V30 9872 C 938.345 1.62252 1.27898 0
M  V30 9873 C 938.753 0.292555 1.86924 0
M  V30 9874 O 938.096 -0.731823 1.68493 0
M  V30 9875 C 938.158 2.63153 2.4493 0
M  V30 9876 C 937.822 4.07541 2.06784 0
M  V30 9877 C 938.819 4.94392 1.60849 0
M  V30 9878 C 936.504 4.53263 2.16466 0
M  V30 9879 C 938.498 6.25003 1.25098 0
M  V30 9880 C 936.185 5.83888 1.80327 0
M  V30 9881 C 937.183 6.69582 1.34718 0
M  V30 9882 O 936.871 7.97773 0.990661 0
M  V30 9883 H 936.603 0.54918 0.394179 0
M  V30 9884 H 939.157 1.96132 0.610031 0
M  V30 9885 H 937.387 2.2445 3.14895 0
M  V30 9886 H 939.076 2.65578 3.06957 0
M  V30 9887 H 939.842 4.60296 1.52816 0
M  V30 9888 H 935.721 3.86731 2.50919 0
M  V30 9889 H 939.265 6.91844 0.894269 0
M  V30 9890 H 935.162 6.17513 1.8801 0
M  V30 9891 H 935.93 8.1077 1.12227 0
M  V30 9892 N 938.594 -0.753485 1.38421 0
M  V30 9893 C 939.524 -1.8808 1.38377 0
M  V30 9894 C 940.505 -1.68258 0.249664 0
M  V30 9895 O 941.69 -1.88848 0.45276 0
M  V30 9896 C 938.82 -3.25608 1.20818 0
M  V30 9897 C 937.774 -3.60032 2.31433 0
M  V30 9898 C 937.1 -4.96297 1.9898 0
M  V30 9899 C 938.4 -3.64898 3.73694 0
M  V30 9900 H 940.094 -1.88375 2.32713 0
M  V30 9901 H 937.64 -0.90489 1.12017 0
M  V30 9902 H 939.593 -4.04127 1.19412 0
M  V30 9903 H 938.317 -3.25793 0.229433 0
M  V30 9904 H 936.976 -2.83831 2.32025 0
M  V30 9905 H 936.624 -4.93043 0.995889 0
M  V30 9906 H 936.324 -5.20298 2.73063 0
M  V30 9907 H 937.848 -5.77196 1.99193 0
M  V30 9908 H 939.262 -4.33531 3.75132 0
M  V30 9909 H 937.659 -4.00407 4.46983 0
M  V30 9910 H 938.729 -2.65124 4.06002 0
M  V30 9911 N 940.072 -1.23292 -0.981677 0
M  V30 9912 C 941.321 -1.05832 -1.71705 0
M  V30 9913 C 941.634 0.40514 -1.91358 0
M  V30 9914 O 942.84 0.699645 -2.6233 0
M  V30 9915 C 941.296 -1.84532 -3.08992 0
M  V30 9916 C 940.904 -3.35199 -2.9723 0
M  V30 9917 C 942.648 -1.75557 -3.86497 0
M  V30 9918 C 940.555 -4.06296 -4.29741 0
M  V30 9919 H 939.485 -0.39241 -0.64384 0
M  V30 9920 H 942.136 -1.47247 -1.09502 0
M  V30 9921 H 940.518 -1.35923 -3.71942 0
M  V30 9922 H 941.692 -3.91286 -2.43377 0
M  V30 9923 H 940.007 -3.44973 -2.332 0
M  V30 9924 H 942.604 -2.25989 -4.84596 0
M  V30 9925 H 942.947 -0.718101 -4.1006 0
M  V30 9926 H 943.48 -2.21771 -3.30246 0
M  V30 9927 H 940.219 -5.10344 -4.11375 0
M  V30 9928 H 939.739 -3.54997 -4.83464 0
M  V30 9929 H 941.418 -4.12519 -4.98434 0
M  V30 9930 N 941.55 1.18024 -1.04442 0
M  V30 9931 C 942.513 2.19992 -0.643136 0
M  V30 9932 C 943.513 1.57949 0.301444 0
M  V30 9933 O 944.703 1.73986 0.0863341 0
M  V30 9934 C 941.835 3.40853 0.0565208 0
M  V30 9935 H 943.028 2.57008 -1.54554 0
M  V30 9936 H 940.581 1.31974 -0.837408 0
M  V30 9937 H 941.316 3.09373 0.972553 0
M  V30 9938 H 941.101 3.87128 -0.622439 0
M  V30 9939 H 942.591 4.16344 0.323652 0
M  V30 9940 N 943.028 0.824394 1.34319 0
M  V30 9941 C 944.444 0.510336 1.51221 0
M  V30 9942 C 944.644 -0.965201 1.76879 0
M  V30 9943 O 943.7 -1.74961 1.82057 0
M  V30 9944 C 945.013 1.37114 2.6762 0
M  V30 9945 C 946.561 1.36842 2.81502 0
M  V30 9946 C 947.036 2.21374 4.00946 0
M  V30 9947 N 948.527 2.19005 4.08156 0
M  V30 9948 C 949.262 2.81159 4.99737 0
M  V30 9949 N 948.758 3.52309 5.96532 0
M  V30 9950 N 950.551 2.70706 4.9262 0
M  V30 9951 H 942.702 1.77976 1.15924 0
M  V30 9952 H 944.965 0.758503 0.568663 0
M  V30 9953 H 944.671 2.41905 2.55294 0
M  V30 9954 H 944.545 1.03689 3.62669 0
M  V30 9955 H 946.932 0.328284 2.93268 0
M  V30 9956 H 947.013 1.74265 1.87257 0
M  V30 9957 H 946.657 3.25437 3.8994 0
M  V30 9958 H 946.587 1.813 4.94407 0
M  V30 9959 H 949.078 1.67252 3.38874 0
M  V30 9960 H 949.391 3.96977 6.63045 0
M  V30 9961 H 947.736 3.56415 5.96652 0
M  V30 9962 H 950.927 2.14694 4.15962 0
M  V30 9963 H 951.1 3.19431 5.63798 0
M  V30 9964 N 944.506 -1.46559 0.579492 0
M  V30 9965 C 945.752 -2.02699 0.0639363 0
M  V30 9966 C 946.085 -1.4504 -1.29139 0
M  V30 9967 O 945.36 -0.614284 -1.84545 0
M  V30 9968 C 945.643 -3.601 -0.00528618 0
M  V30 9969 C 945.496 -4.28149 1.37871 0
M  V30 9970 C 946.815 -4.34375 -0.707537 0
M  V30 9971 H 943.934 -0.736586 0.0247085 0
M  V30 9972 H 946.576 -1.74739 0.746071 0
M  V30 9973 H 944.726 -3.84052 -0.586206 0
M  V30 9974 H 946.398 -4.1547 2.00455 0
M  V30 9975 H 944.641 -3.87636 1.94732 0
M  V30 9976 H 945.312 -5.36888 1.28278 0
M  V30 9977 H 947.788 -4.15549 -0.214064 0
M  V30 9978 H 946.664 -5.44091 -0.724992 0
M  V30 9979 H 946.925 -4.052 -1.7682 0
M  V30 9980 N 945.984 -0.3171 -1.54377 0
M  V30 9981 C 947.23 0.287836 -2.00747 0
M  V30 9982 C 947.563 1.52292 -1.20502 0
M  V30 9983 O 946.838 1.92391 -0.285626 0
M  V30 9984 C 947.121 0.628423 -3.54574 0
M  V30 9985 C 946.974 -0.616922 -4.45549 0
M  V30 9986 C 948.293 1.44862 -4.15575 0
M  V30 9987 H 945.412 0.103144 -0.729747 0
M  V30 9988 H 948.054 -0.432396 -1.85014 0
M  V30 9989 H 946.204 1.24203 -3.68111 0
M  V30 9990 H 947.876 -1.25526 -4.43893 0
M  V30 9991 H 946.119 -1.24706 -4.15489 0
M  V30 9992 H 946.79 -0.334243 -5.50987 0
M  V30 9993 H 949.266 0.930015 -4.05574 0
M  V30 9994 H 948.142 1.6557 -5.23333 0
M  V30 9995 H 948.403 2.44279 -3.68484 0
M  V30 9996 N 947.462 1.57535 -0.0451378 0
M  V30 9997 C 948.69 1.96761 0.639742 0
M  V30 9998 C 949.105 0.922405 1.64734 0
M  V30 9999 O 948.462 -0.0940535 1.82257 0
M  V30 10000 C 948.513 3.36066 1.33199 0
M  V30 10001 O 948.234 4.36579 0.364757 0
M  V30 10002 C 949.735 3.90015 2.1072 0
M  V30 10003 H 946.955 0.64769 0.175324 0
M  V30 10004 H 949.499 2.04206 -0.109651 0
M  V30 10005 H 947.654 3.2979 2.03266 0
M  V30 10006 H 948.068 5.17432 0.858168 0
M  V30 10007 H 949.542 4.89785 2.54586 0
M  V30 10008 H 950.019 3.25117 2.95288 0
M  V30 10009 H 950.625 3.99609 1.45577 0
M  V30 10010 N 948.94 -0.228186 1.55939 0
M  V30 10011 C 950.186 -0.954964 1.78909 0
M  V30 10012 C 950.519 -1.8425 0.613648 0
M  V30 10013 O 949.794 -1.90604 -0.38737 0
M  V30 10014 C 950.077 -1.79957 3.1191 0
M  V30 10015 C 949.93 -0.938968 4.3989 0
M  V30 10016 C 951.249 -2.77859 3.41295 0
M  V30 10017 H 948.368 -0.345745 0.650868 0
M  V30 10018 H 951.01 -0.224244 1.88672 0
M  V30 10019 H 949.16 -2.42256 3.03717 0
M  V30 10020 H 950.832 -0.333225 4.60095 0
M  V30 10021 H 949.075 -0.244096 4.33113 0
M  V30 10022 H 949.746 -1.56416 5.29375 0
M  V30 10023 H 952.222 -2.25695 3.49572 0
M  V30 10024 H 951.098 -3.34062 4.35538 0
M  V30 10025 H 951.359 -3.55266 2.63132 0
M  V30 10026 N 950.418 -1.49637 -0.494624 0
M  V30 10027 C 951.348 -1.69692 -1.60396 0
M  V30 10028 C 952.329 -0.545648 -1.61111 0
M  V30 10029 O 953.514 -0.782202 -1.77751 0
M  V30 10030 C 950.644 -1.76934 -2.9885 0
M  V30 10031 C 949.598 -2.91915 -3.13001 0
M  V30 10032 C 948.924 -2.84276 -4.5287 0
M  V30 10033 C 950.224 -4.32764 -2.92426 0
M  V30 10034 H 951.918 -2.6257 -1.43866 0
M  V30 10035 H 949.464 -1.26355 -0.690679 0
M  V30 10036 H 951.417 -1.8955 -3.76362 0
M  V30 10037 H 950.141 -0.806609 -3.16483 0
M  V30 10038 H 948.8 -2.78911 -2.37916 0
M  V30 10039 H 948.448 -1.85897 -4.67388 0
M  V30 10040 H 948.148 -3.61452 -4.63278 0
M  V30 10041 H 949.672 -2.98909 -5.32434 0
M  V30 10042 H 951.086 -4.46415 -3.59703 0
M  V30 10043 H 949.483 -5.1121 -3.143 0
M  V30 10044 H 950.553 -4.46765 -1.88491 0
M  V30 10045 N 951.896 0.746133 -1.38819 0
M  V30 10046 C 952.806 1.89063 -1.38897 0
M  V30 10047 C 953.822 1.71648 -0.28513 0
M  V30 10048 O 954.998 1.94443 -0.524783 0
M  V30 10049 C 952.063 3.24523 -1.22007 0
M  V30 10050 C 951.124 3.54411 -2.42263 0
M  V30 10051 C 950.357 4.83408 -2.26169 0
M  V30 10052 O 950.58 5.56325 -1.25931 0
M  V30 10053 O 949.514 5.12943 -3.14918 0
M  V30 10054 H 953.34 1.91951 -2.35347 0
M  V30 10055 H 950.925 0.892433 -1.19816 0
M  V30 10056 H 952.807 4.05496 -1.14677 0
M  V30 10057 H 951.482 3.2243 -0.286455 0
M  V30 10058 H 950.389 2.73569 -2.55168 0
M  V30 10059 H 951.722 3.61273 -3.3428 0
M  V30 10060 N 953.375 1.23811 0.975125 0
M  V30 10061 C 954.322 1.02394 2.06843 0
M  V30 10062 C 955.292 -0.060337 1.6599 0
M  V30 10063 O 956.477 0.0928187 1.90574 0
M  V30 10064 C 953.617 0.626882 3.39359 0
M  V30 10065 C 952.73 1.78385 3.9345 0
M  V30 10066 C 951.865 1.33307 5.14201 0
M  V30 10067 C 950.904 2.46045 5.60471 0
M  V30 10068 N 950.041 2.01888 6.72448 0
M  V30 10069 H 954.881 1.95973 2.24496 0
M  V30 10070 H 952.418 0.976206 1.10039 0
M  V30 10071 H 954.376 0.377742 4.15486 0
M  V30 10072 H 953.006 -0.271907 3.21653 0
M  V30 10073 H 952.058 2.14685 3.14029 0
M  V30 10074 H 953.37 2.63122 4.23755 0
M  V30 10075 H 952.524 1.04237 5.97678 0
M  V30 10076 H 951.263 0.456143 4.85562 0
M  V30 10077 H 950.268 2.75884 4.75571 0
M  V30 10078 H 951.493 3.34283 5.91127 0
M  V30 10079 H 949.439 1.16583 6.45558 0
M  V30 10080 H 949.356 2.80182 7.02164 0
M  V30 10081 H 950.624 1.75937 7.59386 0
M  V30 10082 N 954.853 -1.17469 1.05066 0
M  V30 10083 C 955.783 -2.23635 0.671552 0
M  V30 10084 C 956.764 -1.66867 -0.33006 0
M  V30 10085 O 957.949 -1.93084 -0.207933 0
M  V30 10086 C 955.079 -3.47272 0.0441845 0
M  V30 10087 C 954.033 -4.16854 0.97042 0
M  V30 10088 C 953.359 -5.34299 0.206998 0
M  V30 10089 C 954.659 -4.69225 2.29401 0
M  V30 10090 H 956.353 -2.55602 1.55911 0
M  V30 10091 H 953.899 -1.2286 0.751101 0
M  V30 10092 H 955.852 -4.20756 -0.23282 0
M  V30 10093 H 954.576 -3.14568 -0.878311 0
M  V30 10094 H 953.235 -3.4528 1.23197 0
M  V30 10095 H 952.883 -4.97846 -0.718222 0
M  V30 10096 H 952.583 -5.81792 0.82416 0
M  V30 10097 H 954.107 -6.10568 -0.0627525 0
M  V30 10098 H 955.521 -5.34353 2.077 0
M  V30 10099 H 953.918 -5.27291 2.86503 0
M  V30 10100 H 954.988 -3.86102 2.93348 0
M  V30 10101 N 956.331 -0.831506 -1.3388 0
M  V30 10102 C 957.58 -0.420028 -1.97278 0
M  V30 10103 C 957.893 1.02441 -1.66629 0
M  V30 10104 O 959.099 1.54021 -2.23584 0
M  V30 10105 C 957.555 -0.700116 -3.53025 0
M  V30 10106 C 957.163 -2.15874 -3.92559 0
M  V30 10107 C 958.907 -0.355226 -4.23011 0
M  V30 10108 C 956.814 -2.38327 -5.41252 0
M  V30 10109 H 955.744 -0.153326 -0.738246 0
M  V30 10110 H 958.395 -1.01906 -1.52602 0
M  V30 10111 H 956.777 -0.0308044 -3.95988 0
M  V30 10112 H 957.951 -2.86792 -3.60675 0
M  V30 10113 H 956.266 -2.4659 -3.35533 0
M  V30 10114 H 958.863 -0.500701 -5.32351 0
M  V30 10115 H 959.206 0.70111 -4.10354 0
M  V30 10116 H 959.739 -0.979466 -3.85553 0
M  V30 10117 H 956.478 -3.42498 -5.58906 0
M  V30 10118 H 955.998 -1.71962 -5.74621 0
M  V30 10119 H 957.677 -2.21113 -6.08045 0
M  V30 10120 N 957.809 1.4625 -0.587256 0
M  V30 10121 C 958.756 2.30354 0.143384 0
M  V30 10122 C 959.726 1.40891 0.879716 0
M  V30 10123 O 960.911 1.69837 0.869486 0
M  V30 10124 C 958.051 3.25441 1.14815 0
M  V30 10125 C 957.164 4.30004 0.414792 0
M  V30 10126 C 956.299 5.12214 1.40748 0
M  V30 10127 C 955.338 6.08523 0.660786 0
M  V30 10128 N 954.475 6.83585 1.60176 0
M  V30 10129 H 959.315 2.92304 -0.579866 0
M  V30 10130 H 956.852 1.44055 -0.29777 0
M  V30 10131 H 958.81 3.79018 1.7436 0
M  V30 10132 H 957.44 2.6529 1.83906 0
M  V30 10133 H 956.492 3.79248 -0.295787 0
M  V30 10134 H 957.804 4.98515 -0.168738 0
M  V30 10135 H 956.958 5.70091 2.0756 0
M  V30 10136 H 955.697 4.43675 2.02494 0
M  V30 10137 H 954.702 5.49796 -0.0210864 0
M  V30 10138 H 955.927 6.79083 0.0486551 0
M  V30 10139 H 953.873 6.17752 2.20724 0
M  V30 10140 H 953.79 7.48373 1.07115 0
M  V30 10141 H 955.058 7.46016 2.26009 0
M  V30 10142 N 959.287 0.325282 1.54207 0
M  V30 10143 C 960.197 -0.548778 2.28091 0
M  V30 10144 C 961.213 -1.12772 1.32508 0
M  V30 10145 O 962.389 -1.14732 1.65525 0
M  V30 10146 C 959.454 -1.69284 3.02562 0
M  V30 10147 C 958.515 -1.14553 4.13734 0
M  V30 10148 C 957.748 -2.23506 4.84645 0
M  V30 10149 O 957.971 -3.43884 4.55082 0
M  V30 10150 O 956.905 -1.88828 5.71513 0
M  V30 10151 H 960.731 0.0512974 3.03657 0
M  V30 10152 H 958.316 0.0909159 1.49123 0
M  V30 10153 H 960.198 -2.35887 3.49192 0
M  V30 10154 H 958.873 -2.27906 2.2987 0
M  V30 10155 H 957.78 -0.444532 3.71449 0
M  V30 10156 H 959.113 -0.60441 4.88475 0
M  V30 10157 N 960.765 -1.57509 0.0534917 0
M  V30 10158 C 962.012 -1.92782 -0.619772 0
M  V30 10159 C 962.34 -0.932046 -1.70714 0
M  V30 10160 O 961.595 0.0552891 -1.95622 0
M  V30 10161 C 961.894 -3.34734 -1.25251 0
M  V30 10162 C 961.56 -4.49946 -0.293113 0
M  V30 10163 C 960.222 -4.81191 -0.0291223 0
M  V30 10164 C 962.574 -5.19925 0.364271 0
M  V30 10165 C 959.902 -5.79761 0.899649 0
M  V30 10166 C 962.254 -6.19489 1.28125 0
M  V30 10167 C 960.918 -6.49161 1.55389 0
M  V30 10168 H 960.188 -0.705441 -0.226791 0
M  V30 10169 H 962.835 -1.91121 0.120466 0
M  V30 10170 H 961.14 -3.32774 -2.06807 0
M  V30 10171 H 962.837 -3.59308 -1.78042 0
M  V30 10172 H 959.427 -4.25566 -0.509053 0
M  V30 10173 H 963.611 -4.95997 0.173411 0
M  V30 10174 H 958.867 -6.01085 1.11833 0
M  V30 10175 H 963.041 -6.72824 1.79669 0
M  V30 10176 H 960.668 -7.25354 2.2752 0
M  V30 10177 N 962.243 0.219913 -1.56058 0
M  V30 10178 C 963.175 1.29604 -1.89038 0
M  V30 10179 C 964.188 1.42964 -0.778791 0
M  V30 10180 O 965.377 1.43832 -1.0571 0
M  V30 10181 C 962.477 2.67145 -2.08534 0
M  V30 10182 C 961.65 2.75712 -3.39561 0
M  V30 10183 C 960.709 3.94279 -3.48469 0
M  V30 10184 O 959.735 3.8254 -4.21487 0
M  V30 10185 N 960.937 5.08655 -2.79732 0
M  V30 10186 H 963.702 1.01638 -2.81939 0
M  V30 10187 H 961.263 0.409945 -1.56624 0
M  V30 10188 H 963.255 3.44847 -2.11808 0
M  V30 10189 H 961.825 2.87704 -1.2225 0
M  V30 10190 H 961.045 1.84475 -3.48371 0
M  V30 10191 H 962.333 2.78407 -4.25872 0
M  V30 10192 H 961.731 5.21088 -2.2019 0
M  V30 10193 H 960.288 5.84394 -2.88665 0
M  V30 10194 N 963.721 1.49897 0.486681 0
M  V30 10195 C 964.998 1.50614 1.24799 0
M  V30 10196 C 965.378 0.24193 2.09709 0
M  V30 10197 O 964.726 -0.775237 2.14947 0
M  V30 10198 C 964.936 2.79318 2.09243 0
M  V30 10199 C 966.284 3.29371 2.67955 0
M  V30 10200 O 967.308 2.80533 2.19499 0
M  V30 10201 O 966.167 4.14466 3.56202 0
M  V30 10202 H 963.261 0.603447 0.565491 0
M  V30 10203 H 965.807 1.62174 0.499778 0
M  V30 10204 H 964.579 3.62812 1.46572 0
M  V30 10205 H 964.202 2.70687 2.91229 0
M  V30 10206 N 965.199 -0.738761 1.39212 0
M  V30 10207 C 966.146 -1.85273 1.37631 0
M  V30 10208 C 967.116 -1.64407 0.236572 0
M  V30 10209 O 968.301 -1.85866 0.431104 0
M  V30 10210 C 965.441 -3.22745 1.22188 0
M  V30 10211 C 964.554 -3.55342 2.45674 0
M  V30 10212 C 963.689 -4.82195 2.22847 0
M  V30 10213 C 962.728 -5.07625 3.42029 0
M  V30 10214 N 961.865 -6.25679 3.18543 0
M  V30 10215 H 966.705 -1.85959 2.32859 0
M  V30 10216 H 964.242 -0.908716 1.15675 0
M  V30 10217 H 966.2 -4.02095 1.11245 0
M  V30 10218 H 964.83 -3.21347 0.30592 0
M  V30 10219 H 963.882 -2.70722 2.67233 0
M  V30 10220 H 965.194 -3.70054 3.34457 0
M  V30 10221 H 964.348 -5.69518 2.09126 0
M  V30 10222 H 963.087 -4.6965 1.31454 0
M  V30 10223 H 962.092 -4.18765 3.56253 0
M  V30 10224 H 963.317 -5.22058 4.34319 0
M  V30 10225 H 961.263 -6.14429 2.2981 0
M  V30 10226 H 961.18 -6.40961 4.0088 0
M  V30 10227 H 962.448 -7.15851 3.08508 0
M  V30 10228 N 966.677 -1.24326 -0.968545 0
M  V30 10229 C 967.925 -1.08032 -1.70803 0
M  V30 10230 C 968.246 0.381728 -1.91227 0
M  V30 10231 O 967.516 1.27253 -1.48942 0
M  V30 10232 H 966.096 -0.396777 -0.632912 0
M  V30 10233 H 968.758 -1.56232 -1.16523 0
M  V30 10234 H 967.854 -1.57769 -2.69287 0
M  V30 10235 N 968.156 1.1691 -1.05688 0
M  V30 10236 C 969.567 1.68915 -0.795273 0
M  V30 10237 C 969.918 1.83968 0.681925 0
M  V30 10238 O 969.043 1.53083 1.52953 0
M  V30 10239 C 969.638 3.06814 -1.43703 0
M  V30 10240 C 968.197 3.55965 -1.22335 0
M  V30 10241 C 967.344 2.32099 -1.51741 0
M  V30 10242 H 970.295 1.01357 -1.22116 0
M  V30 10243 H 970.316 3.70907 -0.849016 0
M  V30 10244 H 969.828 2.95826 -2.51214 0
M  V30 10245 H 967.929 3.72222 -0.16771 0
M  V30 10246 H 968.042 4.38427 -1.9318 0
M  V30 10247 H 966.406 2.36811 -0.937696 0
M  V30 10248 H 967.189 2.23715 -2.60397 0
M  V30 10249 N 969.634 0.838594 1.33437 0
M  V30 10250 C 970.582 0.260158 2.31141 0
M  V30 10251 C 971.576 -0.607706 1.58124 0
M  V30 10252 O 972.782 -0.497298 1.72994 0
M  V30 10253 H 969.157 0.0654031 0.74915 0
M  V30 10254 H 971.128 1.09874 2.77435 0
M  V30 10255 C 969.877 -0.550234 3.43319 0
M  V30 10256 H 969.2 0.108262 3.99653 0
M  V30 10257 H 970.64 -0.920815 4.1388 0
M  V30 10258 C 969.099 -1.729 2.89149 0
M  V30 10259 O 969.629 -2.82769 2.85315 0
M  V30 10260 N 967.835 -1.5508 2.45761 0
M  V30 10261 H 967.382 -0.657055 2.49079 0
M  V30 10262 H 967.34 -2.34099 2.0987 0
M  V30 10263 N 971.112 -1.45937 0.595003 0
M  V30 10264 C 972.337 -2.07207 0.0894416 0
M  V30 10265 C 972.762 -1.43884 -1.21157 0
M  V30 10266 O 972.12 -0.526998 -1.73472 0
M  V30 10267 C 972.168 -3.60565 -0.0499828 0
M  V30 10268 O 971.272 -3.97364 -1.10342 0
M  V30 10269 H 970.613 -0.660471 0.0683627 0
M  V30 10270 H 973.143 -1.87386 0.82144 0
M  V30 10271 H 973.153 -4.0722 -0.252234 0
M  V30 10272 H 971.828 -4.06044 0.90006 0
M  V30 10273 H 970.405 -3.62401 -0.878645 0
M  V30 10274 N 972.59 -0.333456 -1.54032 0
M  V30 10275 C 973.836 0.266527 -2.01041 0
M  V30 10276 C 974.169 1.51006 -1.2211 0
M  V30 10277 O 973.444 1.92078 -0.306016 0
M  V30 10278 C 973.727 0.59078 -3.55221 0
M  V30 10279 C 973.58 -0.664143 -4.4487 0
M  V30 10280 C 974.899 1.40447 -4.17088 0
M  V30 10281 H 972.018 0.0953979 -0.7308 0
M  V30 10282 H 974.66 -0.451995 -1.84545 0
M  V30 10283 H 972.81 1.20292 -3.69408 0
M  V30 10284 H 974.482 -1.30227 -4.42537 0
M  V30 10285 H 972.725 -1.29106 -4.14143 0
M  V30 10286 H 973.396 -0.392664 -5.50602 0
M  V30 10287 H 975.872 0.886946 -4.06537 0
M  V30 10288 H 974.748 1.6001 -5.2506 0
M  V30 10289 H 975.009 2.40357 -3.71054 0
M  V30 10290 N 974.068 1.57479 -0.061844 0
M  V30 10291 C 974.998 2.15181 0.9066 0
M  V30 10292 C 975.979 1.07624 1.31724 0
M  V30 10293 O 977.164 1.35614 1.39006 0
M  V30 10294 C 974.294 2.70542 2.17771 0
M  V30 10295 C 973.248 3.83178 1.9068 0
M  V30 10296 C 972.574 4.25099 3.24337 0
M  V30 10297 C 973.874 5.07853 1.21994 0
M  V30 10298 H 975.568 2.96355 0.42594 0
M  V30 10299 H 973.114 1.42556 0.203435 0
M  V30 10300 H 975.067 3.09552 2.85929 0
M  V30 10301 H 973.791 1.86575 2.68062 0
M  V30 10302 H 972.45 3.44656 1.24931 0
M  V30 10303 H 972.098 3.38069 3.72449 0
M  V30 10304 H 971.798 5.01021 3.07005 0
M  V30 10305 H 973.322 4.66718 3.93709 0
M  V30 10306 H 974.736 5.44242 1.80204 0
M  V30 10307 H 973.133 5.88987 1.14954 0
M  V30 10308 H 974.203 4.84497 0.197536 0
M  V30 10309 N 975.546 -0.211634 1.56173 0
M  V30 10310 C 976.957 -0.777776 1.69728 0
M  V30 10311 C 977.308 -1.84566 0.66558 0
M  V30 10312 O 976.433 -2.15639 -0.181338 0
M  V30 10313 C 977.028 -1.41757 3.07718 0
M  V30 10314 C 975.587 -1.93098 3.23094 0
M  V30 10315 C 974.734 -0.794785 2.65666 0
M  V30 10316 H 977.685 0.0131839 1.58695 0
M  V30 10317 H 977.706 -2.28662 3.04128 0
M  V30 10318 H 977.218 -0.640114 3.82785 0
M  V30 10319 H 975.319 -2.73615 2.52914 0
M  V30 10320 H 975.432 -2.10414 4.30422 0
M  V30 10321 H 973.796 -1.20473 2.24407 0
M  V30 10322 H 974.579 -0.0298408 3.43287 0
M  V30 10323 N 977.024 -1.50153 -0.478725 0
M  V30 10324 C 977.954 -1.71384 -1.58587 0
M  V30 10325 C 978.935 -0.562705 -1.60523 0
M  V30 10326 O 980.12 -0.80101 -1.76911 0
M  V30 10327 C 977.25 -1.80094 -2.96957 0
M  V30 10328 C 976.204 -2.95218 -3.09888 0
M  V30 10329 C 975.53 -2.89063 -4.49829 0
M  V30 10330 C 976.83 -4.35841 -2.8782 0
M  V30 10331 H 978.524 -2.64081 -1.41073 0
M  V30 10332 H 976.07 -1.27081 -0.677239 0
M  V30 10333 H 978.023 -1.93531 -3.74331 0
M  V30 10334 H 976.747 -0.840131 -3.1561 0
M  V30 10335 H 975.406 -2.81419 -2.34944 0
M  V30 10336 H 975.054 -1.90844 -4.6539 0
M  V30 10337 H 974.754 -3.66345 -4.59418 0
M  V30 10338 H 976.278 -3.04539 -5.29234 0
M  V30 10339 H 977.692 -4.50205 -3.54948 0
M  V30 10340 H 976.089 -5.14515 -3.0886 0
M  V30 10341 H 977.159 -4.48739 -1.83742 0
M  V30 10342 N 978.502 0.731368 -1.39602 0
M  V30 10343 C 979.732 1.51839 -1.40102 0
M  V30 10344 C 980.14 1.89199 0.00526634 0
M  V30 10345 O 979.483 1.54877 0.987874 0
M  V30 10346 C 979.545 2.83292 -2.21328 0
M  V30 10347 C 979.209 2.68345 -3.69919 0
M  V30 10348 C 980.206 2.36651 -4.62917 0
M  V30 10349 C 977.891 2.85102 -4.13548 0
M  V30 10350 C 979.885 2.21901 -5.97527 0
M  V30 10351 C 977.572 2.69971 -5.48233 0
M  V30 10352 C 978.57 2.38416 -6.40037 0
M  V30 10353 O 978.258 2.23383 -7.72241 0
M  V30 10354 H 977.99 0.475695 -0.480302 0
M  V30 10355 H 980.544 0.911096 -1.84087 0
M  V30 10356 H 978.774 3.46294 -1.72096 0
M  V30 10357 H 980.463 3.44928 -2.13961 0
M  V30 10358 H 981.229 2.23352 -4.3051 0
M  V30 10359 H 977.108 3.08655 -3.42423 0
M  V30 10360 H 980.652 1.97193 -6.69149 0
M  V30 10361 H 976.549 2.82849 -5.8023 0
M  V30 10362 H 977.317 2.38425 -7.83004 0
M  V30 10363 N 979.98 1.24838 0.961938 0
M  V30 10364 C 981.21 1.11709 1.73795 0
M  V30 10365 C 981.618 -0.33263 1.86253 0
M  V30 10366 O 980.961 -1.24101 1.35443 0
M  V30 10367 C 981.023 1.68959 3.17322 0
M  V30 10368 C 980.687 3.17895 3.28316 0
M  V30 10369 C 981.684 4.14975 3.13196 0
M  V30 10370 C 979.369 3.57966 3.52372 0
M  V30 10371 C 981.363 5.50107 3.21965 0
M  V30 10372 C 979.05 4.93237 3.60778 0
M  V30 10373 C 980.048 5.89116 3.45588 0
M  V30 10374 O 979.736 7.21927 3.53662 0
M  V30 10375 H 979.468 0.390726 0.551642 0
M  V30 10376 H 982.022 1.65541 1.21594 0
M  V30 10377 H 980.252 1.09567 3.70853 0
M  V30 10378 H 981.941 1.51036 3.76753 0
M  V30 10379 H 982.707 3.85359 2.94489 0
M  V30 10380 H 978.586 2.83837 3.63259 0
M  V30 10381 H 982.13 6.24924 3.10025 0
M  V30 10382 H 978.027 5.22522 3.79 0
M  V30 10383 H 978.795 7.29925 3.7034 0
M  V30 10384 N 981.458 -1.16348 1.06306 0
M  V30 10385 C 982.874 -1.38873 0.786543 0
M  V30 10386 C 983.074 -1.91915 -0.614061 0
M  V30 10387 O 982.13 -2.11804 -1.3746 0
M  V30 10388 C 983.443 -2.36936 1.85154 0
M  V30 10389 C 984.991 -2.5062 1.87506 0
M  V30 10390 C 985.466 -3.51965 2.9306 0
M  V30 10391 N 986.957 -3.59492 2.92095 0
M  V30 10392 C 987.692 -4.37699 3.70415 0
M  V30 10393 N 987.188 -5.19327 4.58553 0
M  V30 10394 N 988.981 -4.32683 3.58806 0
M  V30 10395 H 981.132 -0.802542 1.96655 0
M  V30 10396 H 983.395 -0.415304 0.852189 0
M  V30 10397 H 983.101 -2.05056 2.85736 0
M  V30 10398 H 982.975 -3.36585 1.70267 0
M  V30 10399 H 985.362 -2.81804 0.875827 0
M  V30 10400 H 985.443 -1.51006 2.06472 0
M  V30 10401 H 985.087 -3.21518 3.93177 0
M  V30 10402 H 985.017 -4.51309 2.71344 0
M  V30 10403 H 987.508 -3.01222 2.28197 0
M  V30 10404 H 987.821 -5.76216 5.1497 0
M  V30 10405 H 986.166 -5.1867 4.62608 0
M  V30 10406 H 989.357 -3.67971 2.89335 0
M  V30 10407 H 989.53 -4.93386 4.20088 0
M  V30 10408 N 982.937 -0.845659 -1.3299 0
M  V30 10409 C 984.167 -0.457686 -2.01467 0
M  V30 10410 C 984.575 0.947664 -1.63756 0
M  V30 10411 O 983.918 1.62841 -0.850213 0
M  V30 10412 C 983.98 -0.506589 -3.55913 0
M  V30 10413 C 983.644 -1.86924 -4.17023 0
M  V30 10414 C 984.641 -2.83344 -4.35904 0
M  V30 10415 C 982.326 -2.16394 -4.53298 0
M  V30 10416 C 984.32 -4.07391 -4.90216 0
M  V30 10417 C 982.007 -3.40695 -5.07316 0
M  V30 10418 C 983.005 -4.3601 -5.25722 0
M  V30 10419 O 982.693 -5.58112 -5.7859 0
M  V30 10420 H 982.425 -0.179258 -0.651799 0
M  V30 10421 H 984.979 -1.14172 -1.70745 0
M  V30 10422 H 983.209 0.234253 -3.8599 0
M  V30 10423 H 984.898 -0.135487 -4.05674 0
M  V30 10424 H 985.664 -2.61879 -4.08221 0
M  V30 10425 H 981.543 -1.42994 -4.38262 0
M  V30 10426 H 985.087 -4.81796 -5.04498 0
M  V30 10427 H 980.984 -3.62014 -5.3443 0
M  V30 10428 H 981.752 -5.59946 -5.96995 0
M  V30 10429 N 984.415 1.45619 -0.602734 0
M  V30 10430 C 985.661 2.03131 -0.104587 0
M  V30 10431 C 986.016 1.4634 1.2491 0
M  V30 10432 O 985.309 0.626733 1.8106 0
M  V30 10433 C 985.503 3.574 -0.00157909 0
M  V30 10434 C 985.332 4.29155 -1.34373 0
M  V30 10435 C 984.102 4.67272 -1.92316 0
M  V30 10436 C 986.3 4.61422 -2.27143 0
M  V30 10437 N 984.282 5.23864 -3.20062 0
M  V30 10438 C 985.653 5.18796 -3.39485 0
M  V30 10439 C 987.708 4.4336 -2.26575 0
M  V30 10440 C 986.411 5.60012 -4.51419 0
M  V30 10441 C 988.437 4.85605 -3.37553 0
M  V30 10442 C 987.799 5.43068 -4.48617 0
M  V30 10443 H 983.898 0.777739 -0.0815251 0
M  V30 10444 H 986.482 1.77504 -0.800024 0
M  V30 10445 H 984.653 3.82698 0.663068 0
M  V30 10446 H 986.385 4.01565 0.502784 0
M  V30 10447 H 983.14 4.50671 -1.45577 0
M  V30 10448 H 983.564 5.56664 -3.85298 0
M  V30 10449 H 988.206 3.98251 -1.41971 0
M  V30 10450 H 985.924 6.04089 -5.36751 0
M  V30 10451 H 989.51 4.73365 -3.38255 0
M  V30 10452 H 988.39 5.75156 -5.33072 0
M  V30 10453 N 985.893 0.34162 1.53853 0
M  V30 10454 C 987.139 -0.255862 2.01179 0
M  V30 10455 C 987.472 -1.50356 1.22909 0
M  V30 10456 O 986.747 -1.91913 0.316198 0
M  V30 10457 C 987.03 -0.571934 3.55529 0
M  V30 10458 C 986.883 0.687727 4.44511 0
M  V30 10459 C 988.202 -1.38233 4.17827 0
M  V30 10460 H 985.321 -0.091521 0.731295 0
M  V30 10461 H 987.963 0.461775 1.84303 0
M  V30 10462 H 986.113 -1.18331 3.70041 0
M  V30 10463 H 987.785 1.32572 4.4184 0
M  V30 10464 H 986.028 1.313 4.13452 0
M  V30 10465 H 986.699 0.421858 5.50386 0
M  V30 10466 H 989.175 -0.865374 4.07002 0
M  V30 10467 H 988.051 -1.57223 5.25901 0
M  V30 10468 H 988.312 -2.38386 3.72323 0
M  V30 10469 N 987.371 -1.57444 0.0701946 0
M  V30 10470 C 988.321 -2.09154 -0.90767 0
M  V30 10471 C 989.305 -1.00087 -1.25982 0
M  V30 10472 O 990.497 -1.26397 -1.23906 0
M  V30 10473 C 987.626 -2.65544 -2.17581 0
M  V30 10474 C 986.712 -3.81613 -1.85021 0
M  V30 10475 N 987.103 -4.90641 -1.22904 0
M  V30 10476 C 985.401 -3.90878 -2.1478 0
M  V30 10477 C 986.102 -5.71511 -1.084 0
M  V30 10478 N 985.078 -5.1973 -1.59318 0
M  V30 10479 H 988.88 -2.90839 -0.423051 0
M  V30 10480 H 986.394 -1.61848 -0.13374 0
M  V30 10481 H 988.391 -3.00904 -2.88552 0
M  V30 10482 H 987.051 -1.85304 -2.66632 0
M  V30 10483 H 988.062 -5.1004 -0.898878 0
M  V30 10484 H 984.739 -3.21611 -2.66219 0
M  V30 10485 H 986.129 -6.69214 -0.600183 0
M  V30 10486 N 988.849 0.203349 -1.56283 0
M  V30 10487 C 990.074 0.945548 -1.84592 0
M  V30 10488 C 990.499 1.7641 -0.652772 0
M  V30 10489 O 989.857 1.76867 0.398468 0
M  V30 10490 C 989.905 1.82416 -3.11057 0
M  V30 10491 O 989.009 2.92191 -2.9103 0
M  V30 10492 H 988.35 0.266739 -0.608068 0
M  V30 10493 H 990.88 0.211158 -2.03507 0
M  V30 10494 H 990.89 2.23044 -3.41636 0
M  V30 10495 H 989.565 1.22267 -3.97522 0
M  V30 10496 H 988.142 2.55378 -2.71728 0
M  V30 10497 N 990.327 1.50405 0.470755 0
M  V30 10498 C 991.575 1.61092 1.2204 0
M  V30 10499 C 991.896 0.313487 1.92464 0
M  V30 10500 O 991.166 -0.669043 1.84121 0
M  V30 10501 H 989.746 0.593618 0.45346 0
M  V30 10502 H 992.408 1.87184 0.542985 0
M  V30 10503 H 991.504 2.42222 1.96812 0
M  V30 10504 N 991.805 -0.723954 1.39988 0
M  V30 10505 C 992.737 -1.84859 1.35498 0
M  V30 10506 C 993.75 -1.60681 0.261812 0
M  V30 10507 O 994.939 -1.7071 0.521566 0
M  V30 10508 C 992.039 -3.21103 1.08381 0
M  V30 10509 C 991.212 -3.72546 2.2919 0
M  V30 10510 C 990.271 -4.8738 1.9836 0
M  V30 10511 O 989.297 -5.00467 2.71149 0
M  V30 10512 N 990.499 -5.72566 0.956461 0
M  V30 10513 H 993.264 -1.89212 2.3242 0
M  V30 10514 H 990.825 -0.905152 1.34233 0
M  V30 10515 H 992.817 -3.9551 0.857564 0
M  V30 10516 H 991.387 -3.1195 0.201549 0
M  V30 10517 H 990.607 -2.89365 2.67697 0
M  V30 10518 H 991.895 -4.03652 3.09746 0
M  V30 10519 H 991.293 -5.64595 0.353444 0
M  V30 10520 H 989.85 -6.46993 0.790118 0
M  V30 10521 N 993.283 -1.25346 -0.955304 0
M  V30 10522 C 994.215 -1.0146 -2.0552 0
M  V30 10523 C 995.228 0.0202256 -1.62787 0
M  V30 10524 O 996.417 -0.218251 -1.77161 0
M  V30 10525 C 993.517 -0.511727 -3.35014 0
M  V30 10526 C 992.69 -1.61256 -4.0659 0
M  V30 10527 C 991.749 -1.11017 -5.14356 0
M  V30 10528 O 990.775 -1.80443 -5.39842 0
M  V30 10529 N 991.977 0.0489001 -5.80479 0
M  V30 10530 H 994.742 -1.96166 -2.26581 0
M  V30 10531 H 992.303 -1.16543 -1.12381 0
M  V30 10532 H 994.295 -0.160123 -4.04383 0
M  V30 10533 H 992.865 0.341377 -3.1073 0
M  V30 10534 H 992.085 -2.13577 -3.31328 0
M  V30 10535 H 993.373 -2.35213 -4.51168 0
M  V30 10536 H 992.771 0.629021 -5.62192 0
M  V30 10537 H 991.328 0.341542 -6.50905 0
M  V30 10538 N 994.761 1.15782 -1.06922 0
M  V30 10539 C 996.007 1.86741 -0.790922 0
M  V30 10540 C 996.34 1.81863 0.681149 0
M  V30 10541 O 995.615 1.23871 1.49954 0
M  V30 10542 C 995.898 3.36038 -1.29422 0
M  V30 10543 C 995.751 3.49573 -2.83052 0
M  V30 10544 C 997.07 4.30647 -0.907239 0
M  V30 10545 H 994.189 0.678064 -0.288787 0
M  V30 10546 H 996.831 1.36054 -1.32624 0
M  V30 10547 H 994.981 3.79336 -0.838843 0
M  V30 10548 H 996.653 3.1517 -3.36847 0
M  V30 10549 H 994.896 2.91275 -3.21467 0
M  V30 10550 H 995.567 4.5445 -3.13335 0
M  V30 10551 H 998.043 3.95286 -1.29956 0
M  V30 10552 H 996.919 5.33604 -1.28679 0
M  V30 10553 H 997.18 4.41703 0.187251 0
M  V30 10554 N 996.239 0.8527 1.3254 0
M  V30 10555 C 997.189 0.267711 2.26423 0
M  V30 10556 C 998.173 -0.585305 1.49877 0
M  V30 10557 O 999.365 -0.435008 1.71571 0
M  V30 10558 C 996.494 -0.544605 3.38953 0
M  V30 10559 C 995.58 0.32069 4.22886 0
M  V30 10560 N 995.971 1.40601 4.85865 0
M  V30 10561 C 994.269 0.110101 4.45864 0
M  V30 10562 C 994.97 1.93819 5.48461 0
M  V30 10563 N 993.946 1.23764 5.29324 0
M  V30 10564 H 997.748 1.09747 2.7264 0
M  V30 10565 H 995.262 0.698607 1.46606 0
M  V30 10566 H 997.259 -0.98009 4.05216 0
M  V30 10567 H 995.919 -1.37218 2.94281 0
M  V30 10568 H 996.93 1.78894 4.86022 0
M  V30 10569 H 993.607 -0.682917 4.11877 0
M  V30 10570 H 994.997 2.84783 6.08562 0
M  V30 10571 N 997.718 -1.45297 0.610449 0
M  V30 10572 C 998.648 -2.33311 -0.0939698 0
M  V30 10573 C 999.629 -1.46999 -0.85588 0
M  V30 10574 O 1000.81 -1.75764 -0.825865 0
M  V30 10575 C 997.944 -3.29751 -1.09003 0
M  V30 10576 C 996.898 -4.2572 -0.441146 0
M  V30 10577 C 996.224 -5.11873 -1.54566 0
M  V30 10578 C 997.524 -5.1837 0.639489 0
M  V30 10579 H 999.218 -2.92459 0.640941 0
M  V30 10580 H 996.764 -1.40631 0.309675 0
M  V30 10581 H 998.717 -3.90195 -1.59141 0
M  V30 10582 H 997.441 -2.68768 -1.85557 0
M  V30 10583 H 996.1 -3.66579 0.0393908 0
M  V30 10584 H 995.748 -4.47256 -2.30155 0
M  V30 10585 H 995.448 -5.76886 -1.11698 0
M  V30 10586 H 996.972 -5.75185 -2.04925 0
M  V30 10587 H 998.386 -5.7287 0.22207 0
M  V30 10588 H 996.783 -5.91876 0.990089 0
M  V30 10589 H 997.853 -4.60627 1.51495 0
M  V30 10590 N 999.196 -0.349774 -1.5367 0
M  V30 10591 C 1000.44 0.244343 -2.00617 0
M  V30 10592 C 1000.76 1.50567 -1.23914 0
M  V30 10593 O 1000.03 1.92784 -0.348016 0
M  V30 10594 H 998.615 0.0932792 -0.741153 0
M  V30 10595 H 1001.28 -0.472367 -1.89089 0
M  V30 10596 H 1000.37 0.482433 -3.08349 0
M  V30 10597 N 1000.67 1.57404 -0.0785433 0
M  V30 10598 C 1001.9 1.98492 0.601292 0
M  V30 10599 C 1002.32 0.956832 1.61945 0
M  V30 10600 O 1001.68 -0.0767502 1.81137 0
M  V30 10601 C 1001.73 3.38596 1.24036 0
M  V30 10602 O 1000.83 3.38461 2.35622 0
M  V30 10603 H 1000.17 0.645882 0.154054 0
M  V30 10604 H 1002.7 2.04012 -0.155056 0
M  V30 10605 H 1002.71 3.75929 1.5856 0
M  V30 10606 H 1001.39 4.12952 0.494341 0
M  V30 10607 H 999.967 3.12906 2.02841 0
M  V30 10608 N 1002.15 -0.195058 1.56388 0
M  V30 10609 C 1003.11 -1.2254 1.93692 0
M  V30 10610 C 1004.11 -1.38437 0.81804 0
M  V30 10611 O 1005.3 -1.36248 1.08545 0
M  V30 10612 C 1002.44 -2.59476 2.21099 0
M  V30 10613 H 1003.63 -0.906544 2.8587 0
M  V30 10614 H 1001.18 -0.436577 1.50079 0
M  V30 10615 H 1001.92 -2.96417 1.31558 0
M  V30 10616 H 1001.7 -2.4931 3.02634 0
M  V30 10617 H 1003.19 -3.33777 2.50964 0
M  V30 10618 N 1003.63 -1.50653 -0.462772 0
M  V30 10619 C 1004.54 -1.72923 -1.58539 0
M  V30 10620 C 1005.56 -0.612577 -1.6286 0
M  V30 10621 O 1006.73 -0.891885 -1.80575 0
M  V30 10622 C 1003.8 -1.82623 -2.94703 0
M  V30 10623 C 1002.86 -3.06392 -3.00704 0
M  V30 10624 C 1002.09 -3.15618 -4.30373 0
M  V30 10625 O 1002.31 -2.31423 -5.21344 0
M  V30 10626 O 1001.25 -4.0841 -4.42136 0
M  V30 10627 H 1005.07 -2.68103 -1.42669 0
M  V30 10628 H 1002.66 -1.34848 -0.643144 0
M  V30 10629 H 1004.54 -1.91134 -3.7556 0
M  V30 10630 H 1003.22 -0.906275 -3.10754 0
M  V30 10631 H 1002.12 -3.03375 -2.18894 0
M  V30 10632 H 1003.46 -3.97992 -2.89591 0
M  V30 10633 N 1005.11 0.71652 -1.4037 0
M  V30 10634 C 1006.36 1.47347 -1.38324 0
M  V30 10635 C 1006.68 1.94995 0.0139949 0
M  V30 10636 O 1005.95 1.7028 0.968585 0
M  V30 10637 H 1004.53 0.546662 -0.509087 0
M  V30 10638 H 1007.19 0.849455 -1.75415 0
M  V30 10639 H 1006.29 2.34675 -2.05752 0
M  V30 10640 N 1006.59 1.25851 0.948643 0
M  V30 10641 C 1008 1.09975 1.50872 0
M  V30 10642 C 1008.35 -0.322497 1.93531 0
M  V30 10643 O 1007.47 -1.21316 1.79197 0
M  V30 10644 C 1008.07 1.99021 2.74182 0
M  V30 10645 C 1006.63 1.87313 3.26483 0
M  V30 10646 C 1005.77 1.92815 1.99293 0
M  V30 10647 H 1008.73 1.3905 0.764908 0
M  V30 10648 H 1008.75 1.53372 3.4822 0
M  V30 10649 H 1008.26 3.02527 2.43103 0
M  V30 10650 H 1006.36 0.867136 3.62369 0
M  V30 10651 H 1006.47 2.72446 3.94094 0
M  V30 10652 H 1004.84 1.36774 2.1486 0
M  V30 10653 H 1005.62 2.97936 1.70554 0
M  V30 10654 N 1008.06 -1.15214 1.07534 0
M  V30 10655 C 1009.01 -2.20013 0.697337 0
M  V30 10656 C 1009.98 -1.6314 -0.312168 0
M  V30 10657 O 1011.17 -1.89768 -0.198196 0
M  V30 10658 C 1008.31 -3.44945 0.103293 0
M  V30 10659 C 1007.42 -4.16009 1.1645 0
M  V30 10660 C 1006.55 -5.28496 0.535261 0
M  V30 10661 C 1005.59 -5.9138 1.57912 0
M  V30 10662 N 1004.73 -6.95335 0.972332 0
M  V30 10663 H 1009.57 -2.51698 1.59538 0
M  V30 10664 H 1007.11 -1.2361 0.797431 0
M  V30 10665 H 1009.07 -4.16397 -0.258766 0
M  V30 10666 H 1007.7 -3.13772 -0.758096 0
M  V30 10667 H 1006.75 -3.43035 1.64411 0
M  V30 10668 H 1008.06 -4.58853 1.9559 0
M  V30 10669 H 1007.21 -6.06579 0.120942 0
M  V30 10670 H 1005.95 -4.8685 -0.287889 0
M  V30 10671 H 1004.96 -5.12008 2.0032 0
M  V30 10672 H 1006.18 -6.35103 2.40459 0
M  V30 10673 H 1004.13 -6.55779 0.170119 0
M  V30 10674 H 1004.05 -7.36616 1.70095 0
M  V30 10675 H 1005.31 -7.77312 0.583577 0
M  V30 10676 N 1009.54 -0.859717 -1.32086 0
M  V30 10677 C 1010.79 -0.466271 -1.97367 0
M  V30 10678 C 1011.12 0.976728 -1.6785 0
M  V30 10679 O 1010.4 1.68618 -0.969449 0
M  V30 10680 C 1010.68 -0.711851 -3.52994 0
M  V30 10681 C 1010.53 -2.20364 -3.92122 0
M  V30 10682 C 1011.85 -0.17156 -4.39765 0
M  V30 10683 H 1008.97 -0.170883 -0.716916 0
M  V30 10684 H 1011.61 -1.07907 -1.56384 0
M  V30 10685 H 1009.76 -0.190258 -3.88034 0
M  V30 10686 H 1011.43 -2.7917 -3.67236 0
M  V30 10687 H 1009.68 -2.68019 -3.41099 0
M  V30 10688 H 1010.35 -2.32615 -5.00594 0
M  V30 10689 H 1012.82 -0.617665 -4.1149 0
M  V30 10690 H 1011.7 -0.372921 -5.47632 0
M  V30 10691 H 1011.96 0.925959 -4.32294 0
M  V30 10692 N 1011.02 1.44971 -0.618145 0
M  V30 10693 C 1012.25 2.07039 -0.122395 0
M  V30 10694 C 1012.67 1.45793 1.18853 0
M  V30 10695 O 1012.03 0.55453 1.72611 0
M  V30 10696 C 1012.08 3.60599 -0.0073864 0
M  V30 10697 O 1011.18 3.99069 1.04007 0
M  V30 10698 H 1010.52 0.6593 -0.0788615 0
M  V30 10699 H 1013.05 1.86055 -0.851147 0
M  V30 10700 H 1013.06 4.07569 0.187417 0
M  V30 10701 H 1011.74 4.04561 -0.964544 0
M  V30 10702 H 1010.31 3.63753 0.820879 0
M  V30 10703 N 1012.5 0.357919 1.53482 0
M  V30 10704 C 1013.75 -0.235241 2.00324 0
M  V30 10705 C 1014.06 -1.50494 1.24944 0
M  V30 10706 O 1015.27 -2.17623 1.62335 0
M  V30 10707 C 1013.72 -0.469748 3.56821 0
M  V30 10708 C 1013.33 0.784877 4.41071 0
M  V30 10709 C 1015.07 -1.02098 4.12039 0
M  V30 10710 C 1012.98 0.520377 5.89106 0
M  V30 10711 H 1011.91 -0.0916816 0.748405 0
M  V30 10712 H 1014.56 0.475474 1.77233 0
M  V30 10713 H 1012.94 -1.24153 3.76035 0
M  V30 10714 H 1014.12 1.55886 4.33631 0
M  V30 10715 H 1012.43 1.25878 3.96918 0
M  V30 10716 H 1015.03 -1.23406 5.20264 0
M  V30 10717 H 1015.37 -1.98084 3.66154 0
M  V30 10718 H 1015.91 -0.309554 3.96594 0
M  V30 10719 H 1012.65 1.45035 6.39254 0
M  V30 10720 H 1012.17 -0.215254 5.99414 0
M  V30 10721 H 1013.84 0.143006 6.46842 0
M  V30 10722 N 1013.98 -1.5736 0.0868897 0
M  V30 10723 C 1015.22 -1.94341 -0.579598 0
M  V30 10724 C 1015.56 -0.968238 -1.68341 0
M  V30 10725 O 1014.83 8.29649e-05 -1.945 0
M  V30 10726 C 1015.11 -3.41497 -1.14245 0
M  V30 10727 C 1014.97 -4.49778 -0.044255 0
M  V30 10728 C 1016.29 -3.89788 -2.04336 0
M  V30 10729 H 1013.4 -0.70668 -0.20922 0
M  V30 10730 H 1016.05 -1.89359 0.15593 0
M  V30 10731 H 1014.2 -3.45873 -1.76929 0
M  V30 10732 H 1015.87 -4.57517 0.58959 0
M  V30 10733 H 1014.11 -4.293 0.623207 0
M  V30 10734 H 1014.78 -5.4992 -0.478749 0
M  V30 10735 H 1017.26 -3.87513 -1.51569 0
M  V30 10736 H 1016.13 -4.93335 -2.40648 0
M  V30 10737 H 1016.4 -3.28603 -2.95757 0
M  V30 10738 N 1015.45 0.186762 -1.56489 0
M  V30 10739 C 1016.7 0.904063 -1.80752 0
M  V30 10740 C 1017.02 1.83443 -0.661343 0
M  V30 10741 O 1016.29 1.93272 0.319811 0
M  V30 10742 H 1014.87 0.336828 -0.66675 0
M  V30 10743 H 1017.54 0.190275 -1.93969 0
M  V30 10744 H 1016.63 1.49021 -2.74225 0
M  V30 10745 N 1016.93 1.50896 0.454776 0
M  V30 10746 C 1017.86 1.73885 1.5584 0
M  V30 10747 C 1018.84 0.588172 1.59607 0
M  V30 10748 O 1020.03 0.829054 1.75614 0
M  V30 10749 C 1017.16 1.84796 2.94054 0
M  V30 10750 C 1016.11 3.00111 3.05152 0
M  V30 10751 C 1015.44 2.96183 4.45174 0
M  V30 10752 C 1016.74 4.40365 2.80849 0
M  V30 10753 H 1018.43 2.66292 1.36854 0
M  V30 10754 H 1015.98 1.28142 0.656936 0
M  V30 10755 H 1017.93 1.99462 3.71204 0
M  V30 10756 H 1016.66 0.890235 3.14233 0
M  V30 10757 H 1015.31 2.85121 2.30438 0
M  V30 10758 H 1014.96 1.98224 4.62295 0
M  V30 10759 H 1014.66 3.73608 4.53532 0
M  V30 10760 H 1016.19 3.1292 5.24322 0
M  V30 10761 H 1017.6 4.55795 3.47741 0
M  V30 10762 H 1016 5.19363 3.00636 0
M  V30 10763 H 1017.07 4.51606 1.76579 0
M  V30 10764 N 1018.41 -0.709066 1.40748 0
M  V30 10765 C 1019.69 -1.4626 1.29874 0
M  V30 10766 C 1020.07 -2.10949 -0.0799322 0
M  V30 10767 O 1019.42 -2.00651 -1.09323 0
M  V30 10768 C 1019.63 -2.49302 2.44232 0
M  V30 10769 C 1020.97 -3.14945 2.84771 0
M  V30 10770 O 1022 -2.59623 2.43873 0
M  V30 10771 O 1020.86 -4.15111 3.5545 0
M  V30 10772 H 1017.95 -0.650716 0.51039 0
M  V30 10773 H 1020.5 -0.740687 1.52682 0
M  V30 10774 H 1019.27 -2.00063 3.36289 0
M  V30 10775 H 1018.89 -3.29021 2.23229 0
M  V30 10776 N 1019.89 -1.26353 -0.941956 0
M  V30 10777 C 1021.17 -1.02601 -1.6653 0
M  V30 10778 C 1021.55 0.44381 -2.06382 0
M  V30 10779 O 1020.89 1.42399 -1.78703 0
M  V30 10780 C 1021.1 -1.97401 -2.87809 0
M  V30 10781 C 1022.45 -2.25967 -3.59478 0
M  V30 10782 O 1023.48 -1.95261 -2.97912 0
M  V30 10783 O 1022.34 -2.78244 -4.70364 0
M  V30 10784 H 1019.43 -0.39007 -0.729228 0
M  V30 10785 H 1021.98 -1.37559 -0.993754 0
M  V30 10786 H 1020.75 -2.9659 -2.55245 0
M  V30 10787 H 1020.37 -1.62918 -3.62689 0
M  V30 10788 N 1021.37 1.14642 -1.08144 0
M  V30 10789 C 1022.59 1.90025 -0.830972 0
M  V30 10790 C 1023.02 1.77904 0.610879 0
M  V30 10791 O 1022.38 1.11735 1.42776 0
M  V30 10792 C 1022.42 3.38085 -1.25422 0
M  V30 10793 O 1021.53 4.10412 -0.404486 0
M  V30 10794 H 1020.87 0.591327 -0.302041 0
M  V30 10795 H 1023.4 1.4513 -1.44216 0
M  V30 10796 H 1023.41 3.88894 -1.23391 0
M  V30 10797 H 1022.08 3.46226 -2.30435 0
M  V30 10798 H 1020.66 3.69693 -0.487987 0
M  V30 10799 N 1022.85 0.866709 1.31628 0
M  V30 10800 C 1024.09 0.475086 1.96437 0
M  V30 10801 C 1024.41 -0.975179 1.68865 0
M  V30 10802 O 1023.68 -1.68317 1.0023 0
M  V30 10803 H 1022.26 0.172695 0.726764 0
M  V30 10804 H 1024.93 1.10578 1.60494 0
M  V30 10805 H 1024.02 0.630123 3.05673 0
M  V30 10806 N 1024.32 -1.44642 0.625825 0
M  V30 10807 C 1025.57 -2.02094 0.128201 0
M  V30 10808 C 1025.9 -1.49181 -1.24801 0
M  V30 10809 O 1025.15 -0.663965 -1.84092 0
M  V30 10810 C 1025.45 -3.57352 0.0584381 0
M  V30 10811 C 1025.12 -4.29496 1.37272 0
M  V30 10812 C 1023.78 -4.48922 1.7327 0
M  V30 10813 C 1026.13 -4.70586 2.2405 0
M  V30 10814 C 1023.46 -5.06697 2.95762 0
M  V30 10815 C 1025.81 -5.29717 3.45807 0
M  V30 10816 C 1024.48 -5.47363 3.82034 0
M  V30 10817 H 1023.75 -0.739514 0.0469122 0
M  V30 10818 H 1026.39 -1.73475 0.811083 0
M  V30 10819 H 1024.7 -3.85354 -0.707791 0
M  V30 10820 H 1026.4 -3.9953 -0.34303 0
M  V30 10821 H 1022.99 -4.14702 1.08258 0
M  V30 10822 H 1027.17 -4.55295 1.97535 0
M  V30 10823 H 1022.43 -5.18546 3.23913 0
M  V30 10824 H 1026.6 -5.60507 4.13286 0
M  V30 10825 H 1024.23 -5.91898 4.77033 0
M  V30 10826 N 1025.8 -0.366053 -1.5329 0
M  V30 10827 C 1026.73 0.47211 -2.28677 0
M  V30 10828 C 1027.71 1.08353 -1.31125 0
M  V30 10829 O 1028.9 1.10069 -1.59995 0
M  V30 10830 C 1026.03 1.61174 -3.07637 0
M  V30 10831 C 1024.98 1.12755 -4.12881 0
M  V30 10832 C 1024.31 2.35745 -4.79925 0
M  V30 10833 C 1025.61 0.211954 -5.2187 0
M  V30 10834 H 1027.3 -0.156838 -2.98989 0
M  V30 10835 H 1024.85 -0.0768709 -1.43795 0
M  V30 10836 H 1026.8 2.20473 -3.59123 0
M  V30 10837 H 1025.52 2.26793 -2.35016 0
M  V30 10838 H 1024.18 0.557234 -3.6234 0
M  V30 10839 H 1023.83 2.99821 -4.03877 0
M  V30 10840 H 1023.53 2.04019 -5.51044 0
M  V30 10841 H 1025.06 2.95729 -5.34207 0
M  V30 10842 H 1026.47 0.71244 -5.68856 0
M  V30 10843 H 1024.87 -0.0144501 -6.00098 0
M  V30 10844 H 1025.94 -0.745753 -4.79131 0
M  V30 10845 N 1027.28 1.57312 -0.0952337 0
M  V30 10846 C 1028.21 2.11059 0.893678 0
M  V30 10847 C 1029.22 1.04787 1.24594 0
M  V30 10848 O 1030.41 1.32233 1.19903 0
M  V30 10849 C 1027.51 2.57552 2.20272 0
M  V30 10850 C 1026.69 3.87661 2.02578 0
M  V30 10851 C 1025.75 4.2 3.16996 0
M  V30 10852 O 1024.77 4.89219 2.90953 0
M  V30 10853 N 1025.97 3.75414 4.42769 0
M  V30 10854 H 1028.74 2.96532 0.434632 0
M  V30 10855 H 1026.3 1.6165 0.0898661 0
M  V30 10856 H 1028.29 2.76232 2.95766 0
M  V30 10857 H 1026.86 1.7709 2.576 0
M  V30 10858 H 1026.08 3.78128 1.11413 0
M  V30 10859 H 1027.37 4.7278 1.88032 0
M  V30 10860 H 1026.77 3.1954 4.66809 0
M  V30 10861 H 1025.32 3.99249 5.15212 0
M  V30 10862 N 1028.76 -0.17846 1.56586 0
M  V30 10863 C 1030 -0.897562 1.81856 0
M  V30 10864 C 1030.34 -1.82204 0.671955 0
M  V30 10865 O 1029.61 -1.91739 -0.326535 0
M  V30 10866 C 1029.89 -1.69942 3.17477 0
M  V30 10867 C 1029.75 -0.798545 4.42655 0
M  V30 10868 C 1031.07 -2.66861 3.49962 0
M  V30 10869 H 1028.19 -0.324863 0.661539 0
M  V30 10870 H 1030.83 -0.164106 1.8929 0
M  V30 10871 H 1028.98 -2.32471 3.11271 0
M  V30 10872 H 1030.65 -0.18668 4.60922 0
M  V30 10873 H 1028.89 -0.106181 4.3367 0
M  V30 10874 H 1029.56 -1.39496 5.34083 0
M  V30 10875 H 1032.04 -2.1446 3.56576 0
M  V30 10876 H 1030.92 -3.20037 4.45946 0
M  V30 10877 H 1031.18 -3.46715 2.74301 0
M  V30 10878 N 1030.24 -1.51135 -0.446768 0
M  V30 10879 C 1031.19 -1.68152 -1.53977 0
M  V30 10880 C 1032.17 -0.53563 -1.51723 0
M  V30 10881 O 1033.36 -0.791134 -1.58335 0
M  V30 10882 C 1030.49 -1.80133 -2.92245 0
M  V30 10883 C 1029.58 -3.00476 -2.99291 0
M  V30 10884 N 1029.97 -4.23796 -2.76099 0
M  V30 10885 C 1028.27 -2.99536 -3.30445 0
M  V30 10886 C 1028.97 -5.04977 -2.88744 0
M  V30 10887 N 1027.94 -4.39428 -3.20006 0
M  V30 10888 H 1031.74 -2.61172 -1.34784 0
M  V30 10889 H 1029.26 -1.48653 -0.653923 0
M  V30 10890 H 1031.26 -1.90432 -3.70866 0
M  V30 10891 H 1029.92 -0.882879 -3.12467 0
M  V30 10892 H 1030.93 -4.52896 -2.51209 0
M  V30 10893 H 1027.6 -2.17286 -3.56501 0
M  V30 10894 H 1028.99 -6.13114 -2.74847 0
M  V30 10895 N 1031.71 0.701592 -1.41122 0
M  V30 10896 C 1032.65 1.8268 -1.38422 0
M  V30 10897 C 1033.66 1.60244 -0.287342 0
M  V30 10898 O 1034.85 1.69859 -0.548658 0
M  V30 10899 C 1031.95 3.19338 -1.13475 0
M  V30 10900 C 1031.12 3.68853 -2.35088 0
M  V30 10901 C 1030.18 4.84163 -2.06089 0
M  V30 10902 O 1029.21 4.9609 -2.79077 0
M  V30 10903 N 1030.41 5.70972 -1.04743 0
M  V30 10904 H 1033.17 1.8549 -2.35401 0
M  V30 10905 H 1030.73 0.883682 -1.35656 0
M  V30 10906 H 1032.73 3.94095 -0.920377 0
M  V30 10907 H 1031.3 3.11589 -0.251152 0
M  V30 10908 H 1030.52 2.8507 -2.72266 0
M  V30 10909 H 1031.8 3.98673 -3.16129 0
M  V30 10910 H 1031.2 5.63961 -0.443221 0
M  V30 10911 H 1029.76 6.45654 -0.892949 0
M  V30 10912 N 1033.19 1.2685 0.935242 0
M  V30 10913 C 1034.1 1.10716 2.06831 0
M  V30 10914 C 1035.12 0.0391222 1.73956 0
M  V30 10915 O 1036.29 0.244071 1.99916 0
M  V30 10916 C 1033.36 0.748093 3.38533 0
M  V30 10917 C 1032.42 1.89619 3.85153 0
M  V30 10918 C 1031.65 1.55416 5.1057 0
M  V30 10919 O 1031.88 0.458596 5.68553 0
M  V30 10920 O 1030.81 2.39087 5.52378 0
M  V30 10921 H 1034.64 2.05785 2.23352 0
M  V30 10922 H 1032.22 1.05967 1.05315 0
M  V30 10923 H 1034.1 0.560841 4.17651 0
M  V30 10924 H 1032.78 -0.173142 3.23237 0
M  V30 10925 H 1031.68 2.13845 3.06954 0
M  V30 10926 H 1033.02 2.79737 4.04979 0
M  V30 10927 N 1034.67 -1.14067 1.0875 0
M  V30 10928 C 1035.92 -1.84819 0.817698 0
M  V30 10929 C 1036.24 -1.83545 -0.658488 0
M  V30 10930 O 1035.51 -1.28633 -1.47751 0
M  V30 10931 H 1034.09 -0.68433 0.299502 0
M  V30 10932 H 1036.75 -1.38208 1.37421 0
M  V30 10933 H 1035.85 -2.89541 1.16501 0
M  V30 10934 N 1036.15 -0.873678 -1.31166 0
M  V30 10935 C 1037.4 -0.485497 -1.96182 0
M  V30 10936 C 1037.72 0.96621 -1.69379 0
M  V30 10937 O 1036.99 1.67783 -1.01121 0
M  V30 10938 H 1035.57 -0.176547 -0.725838 0
M  V30 10939 H 1038.23 -1.11428 -1.59906 0
M  V30 10940 H 1037.33 -0.646325 -3.05334 0
M  V30 10941 N 1037.63 1.44308 -0.633487 0
M  V30 10942 C 1038.54 2.34492 0.0711787 0
M  V30 10943 C 1039.55 1.52754 0.8332 0
M  V30 10944 O 1040.73 1.85475 0.784929 0
M  V30 10945 C 1037.79 3.30767 1.03895 0
M  V30 10946 C 1036.85 4.28412 0.276043 0
M  V30 10947 C 1036.09 5.20087 1.19772 0
M  V30 10948 O 1036.31 5.15743 2.4365 0
M  V30 10949 O 1035.24 5.98038 0.680764 0
M  V30 10950 H 1039.07 2.96203 -0.67063 0
M  V30 10951 H 1036.66 1.4412 -0.393678 0
M  V30 10952 H 1038.54 3.90021 1.59566 0
M  V30 10953 H 1037.21 2.71586 1.76133 0
M  V30 10954 H 1036.12 3.72696 -0.32377 0
M  V30 10955 H 1037.45 4.9052 -0.406364 0
M  V30 10956 N 1039.1 0.374177 1.53094 0
M  V30 10957 C 1040.35 -0.213131 2.01677 0
M  V30 10958 C 1040.68 -1.47715 1.26071 0
M  V30 10959 O 1039.96 -1.91199 0.356834 0
M  V30 10960 C 1040.24 -0.496392 3.56662 0
M  V30 10961 C 1040.09 0.781859 4.42953 0
M  V30 10962 C 1041.41 -1.29339 4.20666 0
M  V30 10963 H 1038.53 -0.0759885 0.733072 0
M  V30 10964 H 1041.17 0.500765 1.83282 0
M  V30 10965 H 1039.32 -1.10455 3.72467 0
M  V30 10966 H 1041 1.41914 4.38928 0
M  V30 10967 H 1039.24 1.40041 4.10574 0
M  V30 10968 H 1039.91 0.538508 5.49367 0
M  V30 10969 H 1042.39 -0.778848 4.08746 0
M  V30 10970 H 1041.26 -1.46033 5.29118 0
M  V30 10971 H 1041.52 -2.30435 3.77296 0
M  V30 10972 N 1040.58 -1.57259 0.103575 0
M  V30 10973 C 1041.83 -1.94945 -0.558953 0
M  V30 10974 C 1042.16 -0.986038 -1.67305 0
M  V30 10975 O 1041.44 -0.0205464 -1.94489 0
M  V30 10976 C 1041.72 -3.42689 -1.10617 0
M  V30 10977 C 1041.57 -4.498 0.00345246 0
M  V30 10978 C 1042.89 -3.91933 -2.00191 0
M  V30 10979 H 1040.01 -0.708859 -0.201713 0
M  V30 10980 H 1042.65 -1.89183 0.176006 0
M  V30 10981 H 1040.8 -3.4773 -1.73251 0
M  V30 10982 H 1042.47 -4.56866 0.638082 0
M  V30 10983 H 1040.72 -4.28615 0.668705 0
M  V30 10984 H 1041.39 -5.50397 -0.420396 0
M  V30 10985 H 1043.86 -3.89098 -1.4745 0
M  V30 10986 H 1042.74 -4.9586 -2.35402 0
M  V30 10987 H 1043 -3.31722 -2.92255 0
M  V30 10988 N 1042.06 0.170153 -1.56679 0
M  V30 10989 C 1043.29 0.902134 -1.86197 0
M  V30 10990 C 1043.7 1.75775 -0.689098 0
M  V30 10991 O 1043.06 1.79271 0.341763 0
M  V30 10992 C 1043.11 1.77792 -3.14757 0
M  V30 10993 O 1042.83 0.956817 -4.27524 0
M  V30 10994 C 1044.33 2.61947 -3.57629 0
M  V30 10995 H 1041.55 0.262026 -0.617724 0
M  V30 10996 H 1044.1 0.169899 -2.03793 0
M  V30 10997 H 1042.25 2.46348 -2.98984 0
M  V30 10998 H 1042.67 1.5559 -5.00891 0
M  V30 10999 H 1044.14 3.19011 -4.50484 0
M  V30 11000 H 1044.62 3.36873 -2.81803 0
M  V30 11001 H 1045.22 1.98721 -3.76019 0
M  V30 11002 N 1043.54 1.5137 0.438746 0
M  V30 11003 C 1044.78 1.64211 1.19006 0
M  V30 11004 C 1045.12 0.356607 1.90898 0
M  V30 11005 O 1044.39 -0.643722 1.83539 0
M  V30 11006 C 1044.68 2.8445 2.20817 0
M  V30 11007 C 1044.53 4.22972 1.53018 0
M  V30 11008 C 1045.85 3.00207 3.21813 0
M  V30 11009 H 1042.97 0.597628 0.431288 0
M  V30 11010 H 1045.61 1.8385 0.479487 0
M  V30 11011 H 1043.76 2.67836 2.81418 0
M  V30 11012 H 1045.43 4.5125 0.957654 0
M  V30 11013 H 1043.67 4.25736 0.832556 0
M  V30 11014 H 1044.34 5.03094 2.27158 0
M  V30 11015 H 1046.82 3.15522 2.71266 0
M  V30 11016 H 1045.7 3.85904 3.90345 0
M  V30 11017 H 1045.96 2.12216 3.87836 0
M  V30 11018 N 1045.02 -0.694098 1.41492 0
M  V30 11019 C 1045.97 -1.80016 1.39923 0
M  V30 11020 C 1046.95 -1.58561 0.273377 0
M  V30 11021 O 1048.14 -1.69368 0.514157 0
M  V30 11022 C 1045.27 -3.18333 1.28526 0
M  V30 11023 C 1044.36 -3.45478 2.45979 0
M  V30 11024 N 1044.75 -3.43313 3.71443 0
M  V30 11025 C 1043.05 -3.76033 2.39824 0
M  V30 11026 C 1043.75 -3.69404 4.4935 0
M  V30 11027 N 1042.72 -3.89221 3.79484 0
M  V30 11028 H 1046.53 -1.76707 2.34844 0
M  V30 11029 H 1044.04 -0.894148 1.35568 0
M  V30 11030 H 1046.04 -3.97567 1.25484 0
M  V30 11031 H 1044.7 -3.22852 0.345904 0
M  V30 11032 H 1045.71 -3.2366 4.04308 0
M  V30 11033 H 1042.38 -3.87913 1.54368 0
M  V30 11034 H 1043.77 -3.73854 5.58285 0
M  V30 11035 N 1046.49 -1.27344 -0.928501 0
M  V30 11036 C 1047.91 -1.12361 -1.49103 0
M  V30 11037 C 1048.26 0.291667 -1.9402 0
M  V30 11038 O 1047.38 1.18449 -1.81104 0
M  V30 11039 C 1047.98 -2.03358 -2.70981 0
M  V30 11040 C 1046.54 -1.92483 -3.23461 0
M  V30 11041 C 1045.68 -1.95961 -1.962 0
M  V30 11042 H 1048.63 -1.40249 -0.742689 0
M  V30 11043 H 1048.65 -1.58892 -3.45736 0
M  V30 11044 H 1048.17 -3.06356 -2.38259 0
M  V30 11045 H 1046.27 -0.924676 -3.60944 0
M  V30 11046 H 1046.38 -2.78682 -3.89709 0
M  V30 11047 H 1044.74 -1.40175 -2.12657 0
M  V30 11048 H 1045.53 -3.00612 -1.65793 0
M  V30 11049 N 1047.97 1.13488 -1.09353 0
M  V30 11050 C 1049.25 1.80998 -0.741559 0
M  V30 11051 C 1049.63 1.96418 0.773505 0
M  V30 11052 O 1048.98 1.53168 1.69563 0
M  V30 11053 C 1049.19 3.16078 -1.47972 0
M  V30 11054 C 1050.54 3.91438 -1.64504 0
M  V30 11055 O 1051.56 3.25699 -1.44218 0
M  V30 11056 O 1050.42 5.0935 -1.98054 0
M  V30 11057 H 1047.51 0.782953 -0.266297 0
M  V30 11058 H 1050.06 1.20422 -1.19569 0
M  V30 11059 H 1048.83 3.00076 -2.51137 0
M  V30 11060 H 1048.45 3.84354 -1.01772 0
M  V30 11061 N 1049.45 0.880621 1.30701 0
M  V30 11062 C 1050.7 0.495894 1.95922 0
M  V30 11063 C 1051.02 -0.957214 1.69889 0
M  V30 11064 O 1050.29 -1.67245 1.0201 0
M  V30 11065 H 1048.87 0.180394 0.724891 0
M  V30 11066 H 1051.53 1.12274 1.59313 0
M  V30 11067 H 1050.63 0.662508 3.04987 0
M  V30 11068 N 1050.93 -1.4397 0.641131 0
M  V30 11069 C 1051.88 -2.32495 -0.0698668 0
M  V30 11070 C 1052.87 -1.47922 -0.825555 0
M  V30 11071 O 1054.08 -1.64206 -0.737323 0
M  V30 11072 H 1050.45 -0.750861 -0.0413706 0
M  V30 11073 H 1052.42 -2.90201 0.694682 0
M  V30 11074 C 1051.17 -3.32063 -1.03098 0
M  V30 11075 H 1050.5 -3.97157 -0.458923 0
M  V30 11076 H 1051.94 -3.96664 -1.49778 0
M  V30 11077 C 1050.39 -2.61743 -2.12113 0
M  V30 11078 O 1050.92 -2.42385 -3.20332 0
M  V30 11079 N 1049.13 -2.21316 -1.88328 0
M  V30 11080 H 1048.68 -2.37261 -1.00324 0
M  V30 11081 H 1048.64 -1.74594 -2.61465 0
M  V30 11082 N 1052.41 -0.382291 -1.52893 0
M  V30 11083 C 1053.63 0.204961 -2.06385 0
M  V30 11084 C 1054.06 1.40316 -1.25271 0
M  V30 11085 O 1053.42 1.79187 -0.275969 0
M  V30 11086 C 1053.46 0.560205 -3.56222 0
M  V30 11087 O 1052.57 1.65515 -3.77728 0
M  V30 11088 H 1051.91 0.0258798 -0.663495 0
M  V30 11089 H 1054.44 -0.547733 -1.97132 0
M  V30 11090 H 1054.45 0.826501 -3.99541 0
M  V30 11091 H 1053.12 -0.31584 -4.14699 0
M  V30 11092 H 1051.7 1.38311 -3.46301 0
M  V30 11093 N 1053.89 1.57202 -0.111913 0
M  V30 11094 C 1055.13 1.9495 0.547795 0
M  V30 11095 C 1055.46 0.994763 1.67137 0
M  V30 11096 O 1054.72 0.0173528 1.95692 0
M  V30 11097 C 1055.01 3.39152 1.12741 0
M  V30 11098 C 1054.68 4.50724 0.125916 0
M  V30 11099 C 1053.34 4.80968 -0.149489 0
M  V30 11100 C 1055.69 5.18215 -0.556987 0
M  V30 11101 C 1053.02 5.76023 -1.1142 0
M  V30 11102 C 1055.37 6.14307 -1.51029 0
M  V30 11103 C 1054.04 6.42947 -1.79375 0
M  V30 11104 H 1053.31 0.713372 0.200453 0
M  V30 11105 H 1055.96 1.90542 -0.191316 0
M  V30 11106 H 1054.26 3.4022 1.94313 0
M  V30 11107 H 1055.96 3.65668 1.64584 0
M  V30 11108 H 1052.55 4.27162 0.350756 0
M  V30 11109 H 1056.73 4.95012 -0.357378 0
M  V30 11110 H 1051.99 5.9652 -1.34064 0
M  V30 11111 H 1056.16 6.65692 -2.04516 0
M  V30 11112 H 1053.79 7.1641 -2.54284 0
M  V30 11113 N 1055.36 -0.161842 1.56767 0
M  V30 11114 C 1056.64 -0.904754 1.73417 0
M  V30 11115 C 1057.02 -1.99987 0.675908 0
M  V30 11116 O 1056.37 -2.26419 -0.307712 0
M  V30 11117 C 1056.58 -1.46082 3.16956 0
M  V30 11118 C 1057.93 -1.93004 3.78199 0
M  V30 11119 O 1058.95 -1.55856 3.20293 0
M  V30 11120 O 1057.81 -2.61465 4.79894 0
M  V30 11121 H 1054.9 -0.426518 0.708528 0
M  V30 11122 H 1057.45 -0.148928 1.69045 0
M  V30 11123 H 1056.22 -0.673087 3.85468 0
M  V30 11124 H 1055.84 -2.28056 3.25693 0
M  V30 11125 N 1056.84 -1.516 -0.430713 0
M  V30 11126 C 1057.77 -1.68084 -1.54347 0
M  V30 11127 C 1058.75 -0.528401 -1.53775 0
M  V30 11128 O 1059.94 -0.753072 -1.72804 0
M  V30 11129 C 1057.06 -1.70048 -2.92919 0
M  V30 11130 C 1056.11 -2.91336 -3.11489 0
M  V30 11131 S 1056.94 -4.52043 -2.87084 0
M  V30 11132 C 1058.1 -4.56761 -4.27926 0
M  V30 11133 H 1058.33 -2.62203 -1.40131 0
M  V30 11134 H 1055.86 -1.41368 -0.620853 0
M  V30 11135 H 1057.82 -1.71864 -3.72791 0
M  V30 11136 H 1056.48 -0.770946 -3.04492 0
M  V30 11137 H 1055.68 -2.8913 -4.1282 0
M  V30 11138 H 1055.28 -2.87296 -2.39451 0
M  V30 11139 H 1057.57 -4.32809 -5.21232 0
M  V30 11140 H 1058.51 -5.58604 -4.35163 0
M  V30 11141 H 1058.92 -3.86014 -4.1189 0
M  V30 11142 N 1058.32 0.686584 -1.41858 0
M  V30 11143 C 1059.25 1.81264 -1.47193 0
M  V30 11144 C 1060.23 1.66875 -0.329657 0
M  V30 11145 O 1061.42 1.86473 -0.542347 0
M  V30 11146 C 1058.55 3.19472 -1.36216 0
M  V30 11147 C 1057.5 3.4858 -2.48347 0
M  V30 11148 C 1056.83 4.86239 -2.22432 0
M  V30 11149 C 1058.13 3.46653 -3.90678 0
M  V30 11150 H 1059.82 1.77057 -2.41436 0
M  V30 11151 H 1057.37 0.850415 -1.16206 0
M  V30 11152 H 1059.32 3.97969 -1.38558 0
M  V30 11153 H 1058.04 3.24327 -0.384611 0
M  V30 11154 H 1056.7 2.72437 -2.45303 0
M  V30 11155 H 1056.35 4.8773 -1.22999 0
M  V30 11156 H 1056.05 5.06677 -2.97577 0
M  V30 11157 H 1057.57 5.67034 -2.26505 0
M  V30 11158 H 1058.99 4.15139 -3.95389 0
M  V30 11159 H 1057.38 3.78625 -4.65578 0
M  V30 11160 H 1058.45 2.45451 -4.18189 0
M  V30 11161 N 1059.8 1.27835 0.921735 0
M  V30 11162 C 1061.21 1.05369 1.19873 0
M  V30 11163 C 1061.41 -0.208997 2.00413 0
M  V30 11164 O 1060.47 -0.912861 2.35421 0
M  V30 11165 C 1061.78 2.29658 1.94108 0
M  V30 11166 C 1063.33 2.34756 2.07023 0
M  V30 11167 C 1063.81 3.5879 2.84664 0
M  V30 11168 N 1065.3 3.59383 2.9223 0
M  V30 11169 C 1066.03 4.52029 3.52785 0
M  V30 11170 N 1065.53 5.54986 4.14683 0
M  V30 11171 N 1067.32 4.39641 3.50246 0
M  V30 11172 H 1059.47 2.08903 0.383819 0
M  V30 11173 H 1061.73 0.919065 0.232429 0
M  V30 11174 H 1061.44 3.21604 1.4235 0
M  V30 11175 H 1061.31 2.35444 2.94696 0
M  V30 11176 H 1063.7 1.43312 2.57965 0
M  V30 11177 H 1063.78 2.32969 1.05636 0
M  V30 11178 H 1063.43 4.50574 2.34404 0
M  V30 11179 H 1063.36 3.57829 3.86349 0
M  V30 11180 H 1065.85 2.84927 2.48244 0
M  V30 11181 H 1066.16 6.21837 4.58845 0
M  V30 11182 H 1064.51 5.58822 4.13211 0
M  V30 11183 H 1067.7 3.58413 3.01094 0
M  V30 11184 H 1067.87 5.12033 3.97148 0
M  V30 11185 N 1061.28 -1.12907 1.09954 0
M  V30 11186 C 1062.22 -2.20561 0.73863 0
M  V30 11187 C 1063.22 -1.67347 -0.262944 0
M  V30 11188 O 1064.42 -1.79574 -0.123834 0
M  V30 11189 H 1060.8 -0.718823 0.220901 0
M  V30 11190 H 1062.77 -2.4826 1.65559 0
M  V30 11191 C 1061.52 -3.47227 0.181239 0
M  V30 11192 H 1060.84 -3.88516 0.943144 0
M  V30 11193 H 1062.28 -4.23987 -0.0332888 0
M  V30 11194 C 1060.74 -3.18956 -1.08485 0
M  V30 11195 O 1061.27 -3.38224 -2.1672 0
M  V30 11196 N 1059.48 -2.72797 -1.00151 0
M  V30 11197 H 1059.02 -2.57317 -0.120645 0
M  V30 11198 H 1058.98 -2.54256 -1.84935 0
M  V30 11199 N 1062.75 -0.88754 -1.30232 0
M  V30 11200 C 1063.68 -0.372481 -2.3051 0
M  V30 11201 C 1064.66 0.546037 -1.61098 0
M  V30 11202 O 1065.85 0.459345 -1.88689 0
M  V30 11203 C 1062.98 0.411605 -3.44852 0
M  V30 11204 C 1061.93 -0.415383 -4.2598 0
M  V30 11205 C 1061.26 0.495463 -5.324 0
M  V30 11206 C 1062.56 -1.65886 -4.95257 0
M  V30 11207 H 1064.25 -1.21045 -2.7384 0
M  V30 11208 H 1061.8 -0.583498 -1.31648 0
M  V30 11209 H 1063.75 0.782584 -4.1407 0
M  V30 11210 H 1062.48 1.28325 -3.00334 0
M  V30 11211 H 1061.14 -0.768534 -3.58454 0
M  V30 11212 H 1060.78 1.36489 -4.84128 0
M  V30 11213 H 1060.48 -0.0540885 -5.87575 0
M  V30 11214 H 1062.01 0.862901 -6.04472 0
M  V30 11215 H 1063.42 -1.35832 -5.56976 0
M  V30 11216 H 1061.82 -2.14881 -5.60309 0
M  V30 11217 H 1062.89 -2.40181 -4.21237 0
M  V30 11218 N 1064.23 1.43628 -0.648757 0
M  V30 11219 C 1065.48 2.01083 -0.157692 0
M  V30 11220 C 1065.79 1.51756 1.23408 0
M  V30 11221 O 1067 2.01455 1.82012 0
M  V30 11222 C 1065.46 3.59157 -0.231118 0
M  V30 11223 C 1065.06 4.17478 -1.6253 0
M  V30 11224 C 1066.81 4.24016 0.202573 0
M  V30 11225 C 1064.72 5.67832 -1.6529 0
M  V30 11226 H 1063.65 0.751977 -0.0551897 0
M  V30 11227 H 1066.3 1.64648 -0.810139 0
M  V30 11228 H 1064.68 3.92972 0.488755 0
M  V30 11229 H 1065.85 3.9517 -2.37017 0
M  V30 11230 H 1064.17 3.64973 -2.00459 0
M  V30 11231 H 1066.76 5.34319 0.20174 0
M  V30 11232 H 1067.11 3.97616 1.23319 0
M  V30 11233 H 1067.64 3.95068 -0.465398 0
M  V30 11234 H 1064.38 5.98994 -2.66246 0
M  V30 11235 H 1063.9 5.92209 -0.951217 0
M  V30 11236 H 1065.58 6.3179 -1.39465 0
M  V30 11237 N 1065.71 0.390394 1.52688 0
M  V30 11238 C 1066.64 -0.43567 2.294 0
M  V30 11239 C 1067.62 -1.06253 1.32832 0
M  V30 11240 O 1068.81 -1.07509 1.61726 0
M  V30 11241 C 1065.94 -1.56259 3.10162 0
M  V30 11242 C 1064.89 -1.06172 4.14622 0
M  V30 11243 C 1064.22 -2.2808 4.83615 0
M  V30 11244 C 1065.52 -0.128902 5.22141 0
M  V30 11245 H 1067.21 0.204384 2.98702 0
M  V30 11246 H 1064.76 0.0997377 1.43654 0
M  V30 11247 H 1066.71 -2.14732 3.62585 0
M  V30 11248 H 1065.43 -2.23025 2.38595 0
M  V30 11249 H 1064.09 -0.499518 3.63181 0
M  V30 11250 H 1063.74 -2.93358 4.08595 0
M  V30 11251 H 1063.44 -1.95227 5.5422 0
M  V30 11252 H 1064.96 -2.87193 5.38844 0
M  V30 11253 H 1066.38 -0.621849 5.69917 0
M  V30 11254 H 1064.78 0.109919 5.99999 0
M  V30 11255 H 1065.85 0.821884 4.77884 0
M  V30 11256 N 1067.19 -1.57141 0.120249 0
M  V30 11257 C 1068.6 -1.82256 -0.404931 0
M  V30 11258 C 1068.95 -1.03748 -1.66526 0
M  V30 11259 O 1068.08 -0.274456 -2.14653 0
M  V30 11260 C 1068.67 -3.30588 -0.741431 0
M  V30 11261 C 1067.23 -3.56379 -1.21124 0
M  V30 11262 C 1066.38 -2.76421 -0.220569 0
M  V30 11263 H 1069.33 -1.54897 0.345361 0
M  V30 11264 H 1069.35 -3.45284 -1.59872 0
M  V30 11265 H 1068.86 -3.87701 0.176036 0
M  V30 11266 H 1066.96 -3.04625 -2.14556 0
M  V30 11267 H 1067.07 -4.64952 -1.1557 0
M  V30 11268 H 1065.44 -2.44666 -0.707857 0
M  V30 11269 H 1066.22 -3.36294 0.690018 0
M  V30 11270 N 1068.67 0.153526 -1.5685 0
M  V30 11271 C 1069.61 1.18973 -1.97773 0
M  V30 11272 C 1070.58 1.43041 -0.844311 0
M  V30 11273 O 1071.77 1.55484 -1.10586 0
M  V30 11274 C 1068.91 2.51981 -2.35795 0
M  V30 11275 C 1068.02 2.35143 -3.62397 0
M  V30 11276 C 1067.16 3.61141 -3.89552 0
M  V30 11277 C 1066.2 3.39311 -5.09445 0
M  V30 11278 N 1065.33 4.57423 -5.32643 0
M  V30 11279 H 1070.17 0.833758 -2.86099 0
M  V30 11280 H 1067.71 0.400252 -1.4155 0
M  V30 11281 H 1069.67 3.29527 -2.55867 0
M  V30 11282 H 1068.3 2.85539 -1.50557 0
M  V30 11283 H 1067.35 1.48684 -3.50139 0
M  V30 11284 H 1068.66 2.14969 -4.501 0
M  V30 11285 H 1067.82 4.47117 -4.10087 0
M  V30 11286 H 1066.55 3.84312 -3.00259 0
M  V30 11287 H 1065.56 2.51723 -4.8879 0
M  V30 11288 H 1066.78 3.17545 -6.00285 0
M  V30 11289 H 1064.73 4.8078 -4.46303 0
M  V30 11290 H 1064.65 4.40228 -6.14602 0
M  V30 11291 H 1065.92 5.44632 -5.57671 0
M  V30 11292 N 1070.14 1.51827 0.422667 0
M  V30 11293 C 1071.56 1.40328 0.760275 0
M  V30 11294 C 1071.76 0.497119 1.95272 0
M  V30 11295 O 1070.82 -0.0422083 2.52465 0
M  V30 11296 C 1072.13 2.82622 1.02689 0
M  V30 11297 C 1073.68 2.91874 1.13044 0
M  V30 11298 C 1074.15 4.35107 1.4299 0
M  V30 11299 N 1075.64 4.3828 1.49883 0
M  V30 11300 C 1076.38 5.46153 1.74655 0
M  V30 11301 N 1075.87 6.64165 1.9712 0
M  V30 11302 N 1077.67 5.33651 1.76558 0
M  V30 11303 H 1069.82 2.09285 -0.362455 0
M  V30 11304 H 1072.08 0.94273 -0.0998161 0
M  V30 11305 H 1071.79 3.50991 0.223226 0
M  V30 11306 H 1071.66 3.22844 1.95068 0
M  V30 11307 H 1074.05 2.23694 1.92471 0
M  V30 11308 H 1074.13 2.55128 0.185326 0
M  V30 11309 H 1073.77 5.03841 0.640848 0
M  V30 11310 H 1073.7 4.69377 2.38731 0
M  V30 11311 H 1076.19 3.53206 1.34366 0
M  V30 11312 H 1076.51 7.42165 2.15434 0
M  V30 11313 H 1074.85 6.67255 1.94413 0
M  V30 11314 H 1078.04 4.40436 1.58536 0
M  V30 11315 H 1078.22 6.17798 1.95525 0
M  V30 11316 N 1071.62 -0.679052 1.4222 0
M  V30 11317 C 1073.04 -0.991665 1.25053 0
M  V30 11318 C 1073.24 -2.00928 0.151665 0
M  V30 11319 O 1072.29 -2.47925 -0.478507 0
M  V30 11320 C 1073.61 -1.50053 2.60585 0
M  V30 11321 C 1075.16 -1.61852 2.67905 0
M  V30 11322 C 1075.63 -2.16135 4.03794 0
M  V30 11323 N 1077.12 -2.23474 4.05726 0
M  V30 11324 C 1077.86 -2.66541 5.07685 0
M  V30 11325 N 1077.35 -3.09092 6.20028 0
M  V30 11326 N 1079.15 -2.66252 4.95042 0
M  V30 11327 H 1071.3 -0.00521851 2.12399 0
M  V30 11328 H 1073.56 -0.0648465 0.94578 0
M  V30 11329 H 1073.27 -0.82731 3.41831 0
M  V30 11330 H 1073.14 -2.47998 2.84213 0
M  V30 11331 H 1075.53 -2.28281 1.87008 0
M  V30 11332 H 1075.61 -0.624074 2.4807 0
M  V30 11333 H 1075.25 -1.50316 4.85147 0
M  V30 11334 H 1075.18 -3.16363 4.20978 0
M  V30 11335 H 1077.67 -1.93467 3.24621 0
M  V30 11336 H 1077.99 -3.40627 6.93681 0
M  V30 11337 H 1076.33 -3.06959 6.23539 0
M  V30 11338 H 1079.52 -2.32369 4.06352 0
M  V30 11339 H 1079.69 -2.99496 5.74636 0
M  V30 11340 O 1073.14 -1.39044 -0.821532 0
M  V30 11341 H 1073.83 -1.2672 -1.46498 0
M  V30 END ATOM
M  V30 BEGIN BOND
M  V30 END BOND
M  V30 END CTAB
M  END
$$$$
