drugbank_target|Q9Y646 Carboxypeptidase Q (DB00142)
 OpenBabel12092120573D

  0  0  0     0  0            999 V3000
M  V30 BEGIN CTAB
M  V30 COUNTS 7303 7377 0 0 0
M  V30 BEGIN ATOM
M  V30 1 H -0.908 1.98254 -0.117106 0
M  V30 2 N 0 1.576 0 0
M  V30 3 C 0.933 2.03868 1.02534 0
M  V30 4 C 1.911 0.928543 1.3348 0
M  V30 5 O 3.095 1.19667 1.45644 0
M  V30 6 C 0.222 2.43627 2.35294 0
M  V30 7 C -0.732 3.65373 2.2001 0
M  V30 8 S 0.101 5.13292 1.52614 0
M  V30 9 C 1.257 5.56322 2.86805 0
M  V30 10 H 1.49 2.90518 0.631377 0
M  V30 11 H -0.977 1.52953 0.210867 0
M  V30 12 H 0.981 2.67203 3.11629 0
M  V30 13 H -0.358 1.57376 2.7183 0
M  V30 14 H -1.165 3.90944 3.18086 0
M  V30 15 H -1.563 3.418 1.51819 0
M  V30 16 H 0.729 5.58782 3.83104 0
M  V30 17 H 1.672 6.56266 2.65933 0
M  V30 18 H 2.08 4.83886 2.90714 0
M  V30 19 N 1.4781 -0.272755 1.55222 0
M  V30 20 C 2.4251 -1.33716 1.88119 0
M  V30 21 C 3.3951 -1.49066 0.73271 0
M  V30 22 O 4.5801 -1.63469 0.984002 0
M  V30 23 C 1.7201 -2.69238 2.15882 0
M  V30 24 C 0.8331 -2.62108 3.43399 0
M  V30 25 C -0.0319 -3.89811 3.60861 0
M  V30 26 C -0.9929 -3.77193 4.8207 0
M  V30 27 N -1.8559 -4.9673 4.96189 0
M  V30 28 H 2.9841 -1.04962 2.78903 0
M  V30 29 H 0.5211 -0.507088 1.38083 0
M  V30 30 H 2.4791 -3.48089 2.29978 0
M  V30 31 H 1.1091 -2.96194 1.28331 0
M  V30 32 H 0.1611 -1.74967 3.37773 0
M  V30 33 H 1.4731 -2.48685 4.32386 0
M  V30 34 H 0.6271 -4.77103 3.74777 0
M  V30 35 H -0.6339 -4.06102 2.7006 0
M  V30 36 H -1.6289 -2.88284 4.68159 0
M  V30 37 H -0.4039 -3.62421 5.74307 0
M  V30 38 H -2.4579 -5.13431 4.08319 0
M  V30 39 H -2.5409 -4.85839 5.79221 0
M  V30 40 H -1.2729 -5.85594 5.1449 0
M  V30 41 N 2.9562 -1.48159 -0.537278 0
M  V30 42 C 4.2032 -1.55804 -1.29349 0
M  V30 43 C 4.5312 -0.228802 -1.9315 0
M  V30 44 O 3.7862 0.780242 -1.79473 0
M  V30 45 C 4.0852 -2.63956 -2.40961 0
M  V30 46 C 3.7512 -4.0662 -1.94861 0
M  V30 47 C 2.4132 -4.45452 -1.82006 0
M  V30 48 C 4.7652 -4.96055 -1.59933 0
M  V30 49 C 2.0932 -5.71531 -1.32547 0
M  V30 50 C 4.4452 -6.22617 -1.11939 0
M  V30 51 C 3.1092 -6.60312 -0.976951 0
M  V30 52 H 2.3792 -0.570129 -0.473322 0
M  V30 53 H 5.0262 -1.81845 -0.600372 0
M  V30 54 H 3.3312 -2.31747 -3.15912 0
M  V30 55 H 5.0282 -2.67089 -2.99107 0
M  V30 56 H 1.6182 -3.75949 -2.05815 0
M  V30 57 H 5.8022 -4.66738 -1.68728 0
M  V30 58 H 1.0582 -5.99468 -1.202 0
M  V30 59 H 5.2322 -6.91318 -0.839811 0
M  V30 60 H 2.8592 -7.57895 -0.591501 0
M  V30 61 N 4.4343 0.785586 -1.36625 0
M  V30 62 C 5.3643 1.91259 -1.33949 0
M  V30 63 C 6.3453 1.68795 -0.210325 0
M  V30 64 O 7.5303 1.89854 -0.408561 0
M  V30 65 C 4.6603 3.28339 -1.13186 0
M  V30 66 C 3.6143 3.65335 -2.22967 0
M  V30 67 C 2.9403 5.00806 -1.87342 0
M  V30 68 C 4.2403 3.7352 -3.65075 0
M  V30 69 H 5.9343 1.93755 -2.28253 0
M  V30 70 H 3.4803 0.930788 -1.09874 0
M  V30 71 H 5.4333 4.06804 -1.09948 0
M  V30 72 H 4.1573 3.2624 -0.153332 0
M  V30 73 H 2.8163 2.89169 -2.25337 0
M  V30 74 H 2.4643 4.95233 -0.880545 0
M  V30 75 H 2.1643 5.26529 -2.60846 0
M  V30 76 H 3.6883 5.81687 -1.85667 0
M  V30 77 H 5.1023 4.42168 -3.64911 0
M  V30 78 H 3.4993 4.10731 -4.37516 0
M  V30 79 H 4.5693 2.74527 -3.99703 0
M  V30 80 N 5.9124 1.20967 1.01018 0
M  V30 81 C 7.1614 1.01796 1.74128 0
M  V30 82 C 7.4744 -0.449691 1.90361 0
M  V30 83 O 8.6804 -0.76068 2.60626 0
M  V30 84 C 7.1364 1.7727 3.13215 0
M  V30 85 C 6.7444 3.28171 3.04972 0
M  V30 86 C 8.4884 1.66489 3.90489 0
M  V30 87 C 6.3954 3.96156 4.39107 0
M  V30 88 H 5.3254 0.377276 0.652824 0
M  V30 89 H 7.9764 1.44651 1.12909 0
M  V30 90 H 6.3584 1.27205 3.75013 0
M  V30 91 H 7.5324 3.85499 2.52443 0
M  V30 92 H 5.8474 3.39437 2.41188 0
M  V30 93 H 8.4444 2.14617 4.89738 0
M  V30 94 H 8.7874 0.6222 4.11624 0
M  V30 95 H 9.3204 2.14003 3.35332 0
M  V30 96 H 6.0594 5.00604 4.23174 0
M  V30 97 H 5.5794 3.43617 4.91617 0
M  V30 98 H 7.2584 4.00774 5.07926 0
M  V30 99 N 7.3905 -1.2043 1.01659 0
M  V30 100 C 8.6375 -1.89797 0.705917 0
M  V30 101 C 8.9655 -1.78848 -0.764439 0
M  V30 102 O 8.2205 -1.16694 -1.57102 0
M  V30 103 C 8.5195 -3.40464 1.08714 0
M  V30 104 C 8.1855 -3.71614 2.5537 0
M  V30 105 C 6.8475 -3.79826 2.95441 0
M  V30 106 C 9.1995 -3.85915 3.50313 0
M  V30 107 C 6.5275 -3.99797 4.29394 0
M  V30 108 C 8.8795 -4.07396 4.83954 0
M  V30 109 C 7.5435 -4.13837 5.23732 0
M  V30 110 H 6.8135 -0.694518 0.258313 0
M  V30 111 H 9.4605 -1.42691 1.27717 0
M  V30 112 H 7.7655 -3.89385 0.434309 0
M  V30 113 H 9.4625 -3.92433 0.824461 0
M  V30 114 H 6.0525 -3.65822 2.23321 0
M  V30 115 H 10.2365 -3.78926 3.20513 0
M  V30 116 H 5.4925 -4.03018 4.59768 0
M  V30 117 H 9.6665 -4.17404 5.57447 0
M  V30 118 H 7.2935 -4.29064 6.27541 0
M  V30 119 N 8.8686 -0.792821 -1.36206 0
M  V30 120 C 9.8316 -0.199459 -2.2833 0
M  V30 121 C 10.8316 0.605189 -1.48977 0
M  V30 122 O 12.0216 0.425685 -1.68919 0
M  V30 123 C 9.1536 0.723523 -3.33134 0
M  V30 124 H 10.3466 -1.01181 -2.82316 0
M  V30 125 H 7.8996 -0.562485 -1.45828 0
M  V30 126 H 8.6346 1.56008 -2.84309 0
M  V30 127 H 8.4196 0.148436 -3.91819 0
M  V30 128 H 9.9096 1.13344 -4.01924 0
M  V30 129 N 10.3467 1.47872 -0.545128 0
M  V30 130 C 11.5937 2.02493 -0.0165858 0
M  V30 131 C 11.9217 1.42073 1.32836 0
M  V30 132 O 11.1767 0.561459 1.87473 0
M  V30 133 C 11.4757 3.57131 0.13867 0
M  V30 134 C 11.1417 4.36411 -1.13384 0
M  V30 135 C 9.8037 4.57792 -1.48256 0
M  V30 136 C 12.1557 4.82223 -1.97764 0
M  V30 137 C 9.4837 5.22233 -2.67376 0
M  V30 138 C 11.8357 5.47977 -3.16076 0
M  V30 139 C 10.4997 5.67593 -3.51275 0
M  V30 140 H 9.7697 0.740975 -0.00606918 0
M  V30 141 H 12.4167 1.77683 -0.714207 0
M  V30 142 H 10.7217 3.80865 0.919172 0
M  V30 143 H 12.4187 3.97031 0.562782 0
M  V30 144 H 9.0087 4.2004 -0.852297 0
M  V30 145 H 13.1927 4.65493 -1.72132 0
M  V30 146 H 8.4487 5.35616 -2.94831 0
M  V30 147 H 12.6227 5.8244 -3.81755 0
M  V30 148 H 10.2497 6.17298 -4.43675 0
M  V30 149 N 11.8248 0.280983 1.55075 0
M  V30 150 C 13.0718 -0.334115 1.99725 0
M  V30 151 C 13.3998 -1.5542 1.1694 0
M  V30 152 O 12.6548 -1.94361 0.228531 0
M  V30 153 C 12.9538 -0.754656 3.49342 0
M  V30 154 C 12.6198 0.361445 4.49449 0
M  V30 155 C 11.2818 0.667893 4.76542 0
M  V30 156 C 13.6338 1.11322 5.09173 0
M  V30 157 C 10.9618 1.7296 5.60626 0
M  V30 158 C 13.3138 2.1647 5.9441 0
M  V30 159 C 11.9778 2.47742 6.19822 0
M  V30 160 H 11.2478 -0.122261 0.730844 0
M  V30 161 H 13.8948 0.395917 1.87363 0
M  V30 162 H 12.1998 -1.56446 3.5921 0
M  V30 163 H 13.8968 -1.24142 3.813 0
M  V30 164 H 10.4868 0.112481 4.28452 0
M  V30 165 H 14.6708 0.88973 4.8826 0
M  V30 166 H 9.9268 1.97684 5.78559 0
M  V30 167 H 14.1008 2.75193 6.3972 0
M  V30 168 H 11.7278 3.30145 6.84769 0
M  V30 169 N 13.3029 -1.57598 0.00835791 0
M  V30 170 C 14.5509 -1.90551 -0.6734 0
M  V30 171 C 14.8719 -0.883301 -1.73847 0
M  V30 172 O 14.1419 0.0781442 -1.95744 0
M  V30 173 H 12.7219 -0.703312 -0.251717 0
M  V30 174 H 15.3839 -1.94833 0.0512592 0
M  V30 175 H 14.4799 -2.9056 -1.13935 0
M  V30 176 N 14.781 0.264519 -1.55364 0
M  V30 177 C 16.029 0.993021 -1.76021 0
M  V30 178 C 16.35 1.86511 -0.569099 0
M  V30 179 O 15.62 1.91438 0.415735 0
M  V30 180 H 14.2 0.369639 -0.649135 0
M  V30 181 H 16.862 0.286707 -1.9278 0
M  V30 182 H 15.958 1.62502 -2.66457 0
M  V30 183 N 16.2591 1.48442 0.529413 0
M  V30 184 C 17.5051 1.5672 1.28711 0
M  V30 185 C 17.8381 0.2406 1.92704 0
M  V30 186 O 17.1131 -0.753454 1.79313 0
M  V30 187 C 17.3961 2.70587 2.37603 0
M  V30 188 C 17.2491 4.12953 1.78297 0
M  V30 189 C 18.5681 2.80212 3.39366 0
M  V30 190 H 15.6871 0.570474 0.466613 0
M  V30 191 H 18.3291 1.80617 0.589706 0
M  V30 192 H 16.4791 2.50342 2.97088 0
M  V30 193 H 18.1511 4.44639 1.22858 0
M  V30 194 H 16.3941 4.19927 1.0883 0
M  V30 195 H 17.0651 4.88448 2.57144 0
M  V30 196 H 19.5411 2.98553 2.89836 0
M  V30 197 H 18.4171 3.61611 4.12951 0
M  V30 198 H 18.6781 1.88393 3.99951 0
M  V30 199 N 17.7372 -0.778329 1.37039 0
M  V30 200 C 18.6872 -1.88142 1.28789 0
M  V30 201 C 19.6712 -1.59923 0.177063 0
M  V30 202 O 20.8632 -1.72165 0.410873 0
M  V30 203 C 17.9922 -3.25518 1.09055 0
M  V30 204 C 17.0782 -3.5971 2.24654 0
M  V30 205 N 17.4692 -3.65131 3.50018 0
M  V30 206 C 15.7672 -3.89837 2.16663 0
M  V30 207 C 16.4682 -3.95882 4.26207 0
M  V30 208 N 15.4442 -4.11441 3.55271 0
M  V30 209 H 19.2462 -1.90575 2.23737 0
M  V30 210 H 16.7602 -0.974435 1.29917 0
M  V30 211 H 18.7572 -4.04423 1.0123 0
M  V30 212 H 17.4172 -3.24353 0.15018 0
M  V30 213 H 18.4282 -3.475 3.84011 0
M  V30 214 H 15.1052 -3.96533 1.30645 0
M  V30 215 H 16.4952 -4.06907 5.34674 0
M  V30 216 N 19.2153 -1.21501 -1.00376 0
M  V30 217 C 20.1453 -0.999478 -2.11028 0
M  V30 218 C 21.1263 0.0759671 -1.6993 0
M  V30 219 O 22.3113 -0.0841106 -1.94018 0
M  V30 220 C 19.4413 -0.564709 -3.42678 0
M  V30 221 C 18.3953 -1.58486 -3.97576 0
M  V30 222 C 17.7213 -1.00628 -5.25146 0
M  V30 223 C 19.0213 -2.97204 -4.29496 0
M  V30 224 H 20.7153 -1.92495 -2.29317 0
M  V30 225 H 18.2613 -0.92693 -1.102 0
M  V30 226 H 20.2143 -0.401091 -4.19487 0
M  V30 227 H 18.9383 0.396411 -3.24185 0
M  V30 228 H 17.5973 -1.73606 -3.22888 0
M  V30 229 H 17.2453 -0.0368439 -5.02987 0
M  V30 230 H 16.9453 -1.68771 -5.62841 0
M  V30 231 H 18.4693 -0.854015 -6.04598 0
M  V30 232 H 19.8833 -2.8552 -4.97143 0
M  V30 233 H 18.2803 -3.62372 -4.78338 0
M  V30 234 H 19.3503 -3.47956 -3.3772 0
M  V30 235 N 20.6934 1.19889 -1.02296 0
M  V30 236 C 21.6234 2.25141 -0.619174 0
M  V30 237 C 22.6044 1.66051 0.368915 0
M  V30 238 O 23.7894 1.92546 0.252941 0
M  V30 239 C 20.9194 3.4728 0.0368783 0
M  V30 240 C 19.8734 4.19005 -0.872865 0
M  V30 241 C 19.1994 5.34637 -0.0822402 0
M  V30 242 C 20.4994 4.74452 -2.18387 0
M  V30 243 H 22.1934 2.59171 -1.49903 0
M  V30 244 H 19.7394 1.24579 -0.722222 0
M  V30 245 H 21.6924 4.20098 0.330958 0
M  V30 246 H 20.4164 3.12433 0.95149 0
M  V30 247 H 19.0754 3.48061 -1.15105 0
M  V30 248 H 18.7234 4.96034 0.83422 0
M  V30 249 H 18.4234 5.83557 -0.688149 0
M  V30 250 H 19.9474 6.10255 0.205238 0
M  V30 251 H 21.3614 5.39055 -1.95172 0
M  V30 252 H 19.7584 5.33834 -2.74119 0
M  V30 253 H 20.8284 3.92844 -2.84257 0
M  V30 254 N 22.1715 0.800033 1.35784 0
M  V30 255 C 23.3965 0.388511 2.03729 0
M  V30 256 C 23.8215 -0.990481 1.5991 0
M  V30 257 O 23.1795 -1.64013 0.772612 0
M  V30 258 C 23.2275 0.4726 3.5749 0
M  V30 259 O 22.3315 -0.51646 4.09153 0
M  V30 260 H 21.6725 0.163271 0.643614 0
M  V30 261 H 24.2025 1.0841 1.73518 0
M  V30 262 H 24.2125 0.34003 4.06581 0
M  V30 263 H 22.8875 1.47848 3.88734 0
M  V30 264 H 21.4645 -0.344673 3.71304 0
M  V30 265 N 23.6496 -1.47581 0.552962 0
M  V30 266 C 24.5796 -2.32762 -0.185451 0
M  V30 267 C 25.5606 -1.43527 -0.912905 0
M  V30 268 O 26.7456 -1.72388 -0.894201 0
M  V30 269 C 23.8756 -3.25219 -1.21859 0
M  V30 270 C 22.8296 -4.23661 -0.607864 0
M  V30 271 C 22.1556 -5.05413 -1.74533 0
M  V30 272 C 23.4556 -5.20481 0.435582 0
M  V30 273 H 25.1496 -2.94749 0.525684 0
M  V30 274 H 22.6956 -1.41738 0.254251 0
M  V30 275 H 24.6486 -3.8365 -1.7433 0
M  V30 276 H 23.3726 -2.61279 -1.95961 0
M  V30 277 H 22.0316 -3.66451 -0.104489 0
M  V30 278 H 21.6796 -4.3788 -2.47529 0
M  V30 279 H 21.3796 -5.72059 -1.34249 0
M  V30 280 H 22.9036 -5.66701 -2.27338 0
M  V30 281 H 24.3176 -5.733 -0.00290157 0
M  V30 282 H 22.7146 -5.95305 0.757067 0
M  V30 283 H 23.7846 -4.66217 1.33303 0
M  V30 284 N 25.1277 -0.289203 -1.54924 0
M  V30 285 C 26.3677 0.324536 -2.01807 0
M  V30 286 C 26.7317 1.5199 -1.17316 0
M  V30 287 O 27.9327 2.20422 -1.53843 0
M  V30 288 C 26.2037 0.683578 -3.50802 0
M  V30 289 S 27.7627 1.28185 -4.19659 0
M  V30 290 H 24.5807 0.100236 -0.703899 0
M  V30 291 H 27.1827 -0.414325 -1.91059 0
M  V30 292 H 25.8867 -0.195073 -4.09936 0
M  V30 293 H 25.4177 1.45354 -3.65562 0
M  V30 294 H 27.4327 2.57006 -4.24456 0
M  V30 295 N 26.6058 1.57591 -0.0167156 0
M  V30 296 C 27.8308 1.9598 0.67872 0
M  V30 297 C 28.2558 0.892546 1.65575 0
M  V30 298 O 27.6138 -0.147772 1.80697 0
M  V30 299 C 27.6618 3.33468 1.37227 0
M  V30 300 O 26.7658 3.28954 2.48722 0
M  V30 301 H 26.1068 0.639339 0.17928 0
M  V30 302 H 28.6368 2.04463 -0.0748802 0
M  V30 303 H 28.6468 3.69417 1.7319 0
M  V30 304 H 27.3218 4.10694 0.656007 0
M  V30 305 H 25.8988 3.04705 2.14963 0
M  V30 306 N 28.0839 -0.256276 1.55502 0
M  V30 307 C 29.3319 -0.983672 1.76545 0
M  V30 308 C 29.6529 -1.86206 0.578982 0
M  V30 309 O 28.9229 -1.91656 -0.405577 0
M  V30 310 H 27.5029 -0.366191 0.651086 0
M  V30 311 H 30.1649 -0.276479 1.92929 0
M  V30 312 H 29.2609 -1.61087 2.67315 0
M  V30 313 N 29.562 -1.4872 -0.521534 0
M  V30 314 C 30.509 -1.63871 -1.62527 0
M  V30 315 C 31.479 -0.480559 -1.58996 0
M  V30 316 O 32.664 -0.705085 -1.77294 0
M  V30 317 C 29.804 -1.69227 -3.00759 0
M  V30 318 C 28.917 -2.96207 -3.14461 0
M  V30 319 C 28.052 -2.92671 -4.43303 0
M  V30 320 C 27.091 -4.14318 -4.50563 0
M  V30 321 N 26.228 -4.0881 -5.70805 0
M  V30 322 H 31.068 -2.58123 -1.48918 0
M  V30 323 H 28.605 -1.28 -0.724878 0
M  V30 324 H 30.563 -1.70314 -3.80853 0
M  V30 325 H 29.193 -0.784586 -3.1312 0
M  V30 326 H 28.245 -3.04826 -2.27564 0
M  V30 327 H 29.557 -3.86192 -3.15686 0
M  V30 328 H 28.711 -2.92206 -5.31696 0
M  V30 329 H 27.45 -2.00429 -4.44612 0
M  V30 330 H 26.455 -4.15049 -3.60575 0
M  V30 331 H 27.68 -5.07729 -4.50986 0
M  V30 332 H 25.626 -3.19394 -5.72995 0
M  V30 333 H 25.543 -4.92509 -5.7356 0
M  V30 334 H 26.811 -4.12418 -6.61462 0
M  V30 335 N 31.0401 0.771051 -1.3745 0
M  V30 336 C 32.0031 1.86598 -1.33093 0
M  V30 337 C 33.0031 1.59076 -0.234845 0
M  V30 338 O 34.1931 1.67145 -0.490732 0
M  V30 339 C 31.3251 3.23747 -1.06773 0
M  V30 340 H 32.5181 1.91873 -2.30488 0
M  V30 341 H 30.0711 0.970876 -1.2249 0
M  V30 342 H 30.8061 3.24148 -0.099129 0
M  V30 343 H 30.5911 3.45115 -1.86112 0
M  V30 344 H 32.0811 4.03824 -1.06377 0
M  V30 345 N 32.5182 1.22032 0.997298 0
M  V30 346 C 33.7672 1.03637 1.73038 0
M  V30 347 C 34.0802 -0.429475 1.90827 0
M  V30 348 O 35.2862 -0.732995 2.61418 0
M  V30 349 C 33.7422 1.80582 3.11317 0
M  V30 350 C 33.3502 3.31387 3.01474 0
M  V30 351 C 35.0942 1.70621 3.88701 0
M  V30 352 C 33.0012 4.00791 4.3488 0
M  V30 353 H 31.9312 0.384179 0.648785 0
M  V30 354 H 34.5822 1.4584 1.11368 0
M  V30 355 H 32.9642 1.31175 3.73643 0
M  V30 356 H 34.1382 3.88155 2.4834 0
M  V30 357 H 32.4532 3.41976 2.37575 0
M  V30 358 H 35.0502 2.19799 4.87434 0
M  V30 359 H 35.3932 0.665823 4.10941 0
M  V30 360 H 35.9262 2.17547 3.33044 0
M  V30 361 H 32.6652 5.05064 4.1784 0
M  V30 362 H 32.1852 3.48811 4.87945 0
M  V30 363 H 33.8642 4.06139 5.03647 0
M  V30 364 N 33.9963 -1.19345 1.0293 0
M  V30 365 C 35.2363 -1.90738 0.734727 0
M  V30 366 C 35.6003 -1.7785 -0.723414 0
M  V30 367 O 36.8013 -2.43844 -1.13108 0
M  V30 368 C 35.0723 -3.37569 1.17396 0
M  V30 369 S 36.6313 -4.27176 1.00329 0
M  V30 370 H 33.4493 -0.658771 0.267474 0
M  V30 371 H 36.0513 -1.4428 1.31922 0
M  V30 372 H 34.7553 -3.44475 2.23081 0
M  V30 373 H 34.2863 -3.8906 0.582772 0
M  V30 374 H 36.3013 -4.96126 -0.0859152 0
M  V30 375 N 35.4744 -0.807222 -1.35358 0
M  V30 376 C 36.4214 -0.216037 -2.29787 0
M  V30 377 C 37.3914 0.650278 -1.52842 0
M  V30 378 O 38.5764 0.595227 -1.81278 0
M  V30 379 C 35.7164 0.628893 -3.39321 0
M  V30 380 C 34.8294 -0.257927 -4.31229 0
M  V30 381 C 33.9644 0.595069 -5.27856 0
M  V30 382 C 33.0034 -0.292111 -6.11403 0
M  V30 383 N 32.1404 0.520895 -7.00165 0
M  V30 384 H 36.9804 -1.02671 -2.79755 0
M  V30 385 H 34.5174 -0.517839 -1.37684 0
M  V30 386 H 36.4754 1.13393 -4.01494 0
M  V30 387 H 35.1054 1.40482 -2.90628 0
M  V30 388 H 34.1574 -0.881076 -3.70056 0
M  V30 389 H 35.4694 -0.940759 -4.89848 0
M  V30 390 H 34.6234 1.16522 -5.95405 0
M  V30 391 H 33.3624 1.31146 -4.69736 0
M  V30 392 H 32.3674 -0.874525 -5.428 0
M  V30 393 H 33.5924 -1.00638 -6.71602 0
M  V30 394 H 31.5384 1.22125 -6.44532 0
M  V30 395 H 31.4554 -0.103877 -7.55929 0
M  V30 396 H 32.7234 1.0743 -7.72062 0
M  V30 397 N 36.9525 1.47285 -0.560781 0
M  V30 398 C 37.9005 2.31756 0.197942 0
M  V30 399 C 38.8945 1.43146 0.905854 0
M  V30 400 O 40.1005 1.59891 0.826733 0
M  V30 401 H 36.4755 0.747438 0.0827049 0
M  V30 402 H 38.4465 2.9359 -0.533629 0
M  V30 403 C 37.1955 3.25874 1.21249 0
M  V30 404 H 36.5185 3.94023 0.67719 0
M  V30 405 H 37.9585 3.87803 1.71419 0
M  V30 406 C 36.4175 2.49651 2.26221 0
M  V30 407 O 36.9475 2.24355 3.33208 0
M  V30 408 N 35.1535 2.10597 2.00243 0
M  V30 409 H 34.7005 2.31369 1.13252 0
M  V30 410 H 34.6585 1.59913 2.70694 0
M  V30 411 N 38.4306 0.297415 1.54768 0
M  V30 412 C 39.6786 -0.312295 1.99673 0
M  V30 413 C 39.9996 -1.54686 1.18732 0
M  V30 414 O 39.2696 -1.93854 0.282382 0
M  V30 415 H 37.8496 -0.118381 0.73756 0
M  V30 416 H 40.5116 0.407915 1.90583 0
M  V30 417 H 39.6076 -0.586813 3.06534 0
M  V30 418 N 39.9087 -1.5758 0.0250728 0
M  V30 419 C 41.1577 -1.90811 -0.653767 0
M  V30 420 C 41.4707 -0.90273 -1.73523 0
M  V30 421 O 42.6767 -1.12614 -2.47043 0
M  V30 422 C 41.1327 -3.38804 -1.21409 0
M  V30 423 C 40.7407 -4.47692 -0.166126 0
M  V30 424 C 42.4847 -3.81108 -1.86967 0
M  V30 425 C 40.3917 -5.86779 -0.737856 0
M  V30 426 H 39.3217 -0.712063 -0.247956 0
M  V30 427 H 41.9727 -1.83281 0.0897137 0
M  V30 428 H 40.3547 -3.41252 -2.00905 0
M  V30 429 H 41.5287 -4.56797 0.606079 0
M  V30 430 H 39.8437 -4.14565 0.390466 0
M  V30 431 H 42.4407 -4.82375 -2.30692 0
M  V30 432 H 42.7837 -3.15953 -2.71071 0
M  V30 433 H 43.3167 -3.81065 -1.14167 0
M  V30 434 H 40.0557 -6.55468 0.0649577 0
M  V30 435 H 39.5757 -5.81288 -1.47864 0
M  V30 436 H 41.2547 -6.35223 -1.22884 0
M  V30 437 N 41.3868 0.248026 -1.55636 0
M  V30 438 C 42.6118 0.998028 -1.81808 0
M  V30 439 C 43.0368 1.78207 -0.601979 0
M  V30 440 O 42.3948 1.75653 0.448961 0
M  V30 441 C 42.4428 1.9125 -3.05705 0
M  V30 442 O 41.5468 3.00406 -2.82542 0
M  V30 443 H 40.8878 0.284045 -0.600179 0
M  V30 444 H 43.4178 0.269357 -2.02819 0
M  V30 445 H 43.4278 2.32737 -3.35108 0
M  V30 446 H 42.1028 1.33602 -3.93857 0
M  V30 447 H 40.6798 2.63056 -2.64303 0
M  V30 448 N 42.8649 1.48995 0.513639 0
M  V30 449 C 43.8119 1.6473 1.61656 0
M  V30 450 C 44.7819 0.488984 1.58739 0
M  V30 451 O 45.9669 0.714478 1.76918 0
M  V30 452 C 43.1069 1.7082 2.99858 0
M  V30 453 C 42.2199 2.9787 3.12885 0
M  V30 454 C 41.3549 2.95017 4.41744 0
M  V30 455 C 40.3939 4.16702 4.48359 0
M  V30 456 N 39.5309 4.11832 5.68629 0
M  V30 457 H 44.3709 2.58909 1.47547 0
M  V30 458 H 41.9079 1.28382 0.71808 0
M  V30 459 H 43.8659 1.72331 3.79944 0
M  V30 460 H 42.4959 0.801181 3.12699 0
M  V30 461 H 41.5479 3.06029 2.25944 0
M  V30 462 H 42.8599 3.8786 3.13633 0
M  V30 463 H 42.0139 2.95021 5.30139 0
M  V30 464 H 40.7529 2.02784 4.43542 0
M  V30 465 H 39.7579 4.16955 3.58369 0
M  V30 466 H 40.9829 5.10113 4.48287 0
M  V30 467 H 38.9289 3.22428 5.71293 0
M  V30 468 H 38.8459 4.95543 5.7094 0
M  V30 469 H 40.1139 4.1592 6.59266 0
M  V30 470 N 44.343 -0.763751 1.37857 0
M  V30 471 C 45.759 -1.06542 1.18832 0
M  V30 472 C 45.959 -2.01478 0.0299722 0
M  V30 473 O 45.015 -2.4458 -0.627447 0
M  V30 474 C 46.328 -1.65525 2.51042 0
M  V30 475 C 47.876 -1.77745 2.57635 0
M  V30 476 C 48.351 -2.4014 3.89996 0
M  V30 477 N 49.842 -2.47582 3.91481 0
M  V30 478 C 50.577 -2.96732 4.9065 0
M  V30 479 N 50.073 -3.45993 6.00217 0
M  V30 480 N 51.866 -2.95679 4.78048 0
M  V30 481 H 44.017 -0.133556 2.1198 0
M  V30 482 H 46.28 -0.121879 0.940133 0
M  V30 483 H 45.986 -1.03236 3.36207 0
M  V30 484 H 45.86 -2.64719 2.68707 0
M  V30 485 H 48.247 -2.39164 1.72872 0
M  V30 486 H 48.328 -0.772836 2.43846 0
M  V30 487 H 47.972 -1.79358 4.75177 0
M  V30 488 H 47.902 -3.41223 4.01092 0
M  V30 489 H 50.393 -2.1273 3.12337 0
M  V30 490 H 50.706 -3.81922 6.7183 0
M  V30 491 H 49.051 -3.44077 6.03851 0
M  V30 492 H 52.242 -2.56499 3.91568 0
M  V30 493 H 52.415 -3.33672 5.55488 0
M  V30 494 N 45.8211 -1.22559 -0.990812 0
M  V30 495 C 47.0491 -1.07779 -1.76611 0
M  V30 496 C 47.4641 0.371513 -1.85109 0
M  V30 497 O 46.8211 1.25737 -1.32274 0
M  V30 498 C 46.8721 -1.68512 -3.19822 0
M  V30 499 O 46.5931 -3.07774 -3.1178 0
M  V30 500 C 48.0941 -1.59035 -4.13791 0
M  V30 501 H 45.3141 -0.377729 -0.554583 0
M  V30 502 H 47.8581 -1.62195 -1.24551 0
M  V30 503 H 46.0131 -1.18154 -3.68942 0
M  V30 504 H 46.4271 -3.37062 -4.01858 0
M  V30 505 H 47.9011 -2.0625 -5.1202 0
M  V30 506 H 48.3781 -0.547273 -4.35777 0
M  V30 507 H 48.9841 -2.08709 -3.70568 0
M  V30 508 N 47.2992 1.18797 -1.03562 0
M  V30 509 C 48.5462 1.8865 -0.736023 0
M  V30 510 C 48.8742 1.80041 0.735889 0
M  V30 511 O 48.1292 1.19179 1.55225 0
M  V30 512 C 48.4282 3.38692 -1.14117 0
M  V30 513 C 48.0942 3.67504 -2.6125 0
M  V30 514 C 46.7562 3.75078 -3.01447 0
M  V30 515 C 49.1082 3.80293 -3.56408 0
M  V30 516 C 46.4362 3.92915 -4.35701 0
M  V30 517 C 48.7882 3.99645 -4.90374 0
M  V30 518 C 47.4522 4.05453 -5.30249 0
M  V30 519 H 46.7222 0.690321 -0.26933 0
M  V30 520 H 49.3692 1.40641 -1.29971 0
M  V30 521 H 47.6742 3.88645 -0.496202 0
M  V30 522 H 49.3712 3.91072 -0.886789 0
M  V30 523 H 45.9612 3.62223 -2.29113 0
M  V30 524 H 50.1452 3.73779 -3.26501 0
M  V30 525 H 45.4012 3.95653 -4.66121 0
M  V30 526 H 49.5752 4.08482 -5.64017 0
M  V30 527 H 47.2022 4.19027 -6.34288 0
M  V30 528 N 48.7773 0.814389 1.34928 0
M  V30 529 C 49.6873 0.231978 2.3345 0
M  V30 530 C 50.7033 -0.629139 1.62228 0
M  V30 531 O 51.8793 -0.539052 1.94052 0
M  V30 532 C 48.9443 -0.603482 3.41407 0
M  V30 533 C 48.0053 0.279037 4.28392 0
M  V30 534 C 47.2383 -0.516643 5.31193 0
M  V30 535 O 47.4613 -1.75068 5.4287 0
M  V30 536 O 46.3953 0.0965652 6.01823 0
M  V30 537 H 50.2213 1.04721 2.85074 0
M  V30 538 H 47.8063 0.576343 1.37836 0
M  V30 539 H 49.6883 -1.07908 4.0735 0
M  V30 540 H 48.3633 -1.39618 2.92042 0
M  V30 541 H 47.2703 0.801948 3.65403 0
M  V30 542 H 48.6033 1.03588 4.81176 0
M  V30 543 N 50.2554 -1.46986 0.568584 0
M  V30 544 C 51.1654 -2.33942 -0.17555 0
M  V30 545 C 52.1814 -1.48891 -0.90041 0
M  V30 546 O 53.3574 -1.81794 -0.86676 0
M  V30 547 C 50.4224 -3.25811 -1.18524 0
M  V30 548 C 49.4834 -4.26757 -0.466582 0
M  V30 549 C 48.7164 -5.14236 -1.42817 0
M  V30 550 O 48.9394 -5.04379 -2.66379 0
M  V30 551 O 47.8734 -5.94412 -0.946453 0
M  V30 552 H 51.6994 -2.98896 0.538036 0
M  V30 553 H 49.2844 -1.4573 0.329097 0
M  V30 554 H 51.1664 -3.82527 -1.76779 0
M  V30 555 H 49.8414 -2.63471 -1.88055 0
M  V30 556 H 48.7484 -3.73769 0.157451 0
M  V30 557 H 50.0814 -4.91843 0.187485 0
M  V30 558 N 51.7335 -0.305618 -1.54608 0
M  V30 559 C 52.9825 0.303098 -1.9941 0
M  V30 560 C 53.2955 1.54648 -1.19764 0
M  V30 561 O 54.5015 2.23007 -1.54855 0
M  V30 562 C 52.9575 0.590588 -3.55021 0
M  V30 563 C 52.5655 -0.634719 -4.43481 0
M  V30 564 C 54.3095 1.16025 -4.08336 0
M  V30 565 C 52.2165 -0.320126 -5.90533 0
M  V30 566 H 51.1465 0.117031 -0.744862 0
M  V30 567 H 53.7975 -0.415045 -1.78745 0
M  V30 568 H 52.1795 1.36845 -3.71604 0
M  V30 569 H 53.3535 -1.41079 -4.38672 0
M  V30 570 H 51.6685 -1.12333 -4.00962 0
M  V30 571 H 54.2655 1.40994 -5.15776 0
M  V30 572 H 54.6085 2.10397 -3.5922 0
M  V30 573 H 55.1415 0.443985 -3.95315 0
M  V30 574 H 51.8805 -1.23254 -6.43808 0
M  V30 575 H 51.4005 0.418579 -5.98338 0
M  V30 576 H 53.0795 0.0766241 -6.46955 0
M  V30 577 N 53.2116 1.57565 -0.0334293 0
M  V30 578 C 54.1586 2.10478 0.946981 0
M  V30 579 C 55.1286 1.00787 1.32027 0
M  V30 580 O 56.3136 1.28232 1.41284 0
M  V30 581 C 53.4536 2.63994 2.22263 0
M  V30 582 C 52.5666 3.87709 1.90541 0
M  V30 583 C 51.7016 4.29604 3.12433 0
M  V30 584 C 50.7406 5.46065 2.76549 0
M  V30 585 N 49.8776 5.83096 3.9108 0
M  V30 586 H 54.7176 2.93963 0.488846 0
M  V30 587 H 52.2546 1.45296 0.22969 0
M  V30 588 H 54.2126 2.93114 2.96884 0
M  V30 589 H 52.8426 1.83333 2.65685 0
M  V30 590 H 51.8946 3.65291 1.06144 0
M  V30 591 H 53.2066 4.72403 1.60116 0
M  V30 592 H 52.3606 4.60182 3.9537 0
M  V30 593 H 51.0996 3.43685 3.46023 0
M  V30 594 H 50.1046 5.15176 1.92026 0
M  V30 595 H 51.3296 6.33685 2.44171 0
M  V30 596 H 49.2756 5.00132 4.24504 0
M  V30 597 H 49.1926 6.6244 3.64293 0
M  V30 598 H 50.4606 6.18282 4.74708 0
M  V30 599 N 54.6897 -0.239769 1.55765 0
M  V30 600 C 55.5997 -1.31831 1.94056 0
M  V30 601 C 56.6157 -1.52275 0.841925 0
M  V30 602 O 57.7917 -1.65759 1.14394 0
M  V30 603 C 54.8567 -2.65156 2.23368 0
M  V30 604 C 53.9177 -2.53173 3.46701 0
M  V30 605 C 53.1507 -3.8014 3.74606 0
M  V30 606 O 53.3737 -4.82343 3.04469 0
M  V30 607 O 52.3077 -3.78344 4.68123 0
M  V30 608 H 56.1337 -1.02347 2.85935 0
M  V30 609 H 53.7187 -0.441123 1.42739 0
M  V30 610 H 55.6007 -3.43929 2.43497 0
M  V30 611 H 54.2757 -2.94358 1.34666 0
M  V30 612 H 53.1827 -1.72662 3.31871 0
M  V30 613 H 54.5157 -2.28915 4.35728 0
M  V30 614 N 56.1678 -1.49265 -0.50573 0
M  V30 615 C 57.0778 -1.68312 -1.63427 0
M  V30 616 C 58.0938 -0.565682 -1.64548 0
M  V30 617 O 59.2698 -0.839801 -1.83055 0
M  V30 618 C 56.3348 -1.74107 -2.99813 0
M  V30 619 C 55.3958 -2.97653 -3.09356 0
M  V30 620 C 54.6288 -3.03163 -4.39236 0
M  V30 621 O 54.8518 -2.16396 -5.27758 0
M  V30 622 O 53.7858 -3.9558 -4.53652 0
M  V30 623 H 57.6118 -2.63907 -1.50289 0
M  V30 624 H 55.1968 -1.32951 -0.681502 0
M  V30 625 H 57.0788 -1.803 -3.80881 0
M  V30 626 H 55.7538 -0.816901 -3.13223 0
M  V30 627 H 54.6608 -2.96981 -2.27493 0
M  V30 628 H 55.9938 -3.89535 -3.00871 0
M  V30 629 N 57.6459 0.756429 -1.3826 0
M  V30 630 C 58.8949 1.51082 -1.3363 0
M  V30 631 C 59.2079 1.95467 0.0720068 0
M  V30 632 O 60.4139 2.7043 0.240834 0
M  V30 633 C 58.8699 2.72893 -2.34644 0
M  V30 634 C 58.4779 2.35544 -3.81081 0
M  V30 635 C 60.2219 3.50791 -2.39052 0
M  V30 636 C 58.1289 3.53948 -4.73787 0
M  V30 637 H 57.0589 0.56727 -0.49671 0
M  V30 638 H 59.7099 0.827147 -1.638 0
M  V30 639 H 58.0919 3.43227 -1.97513 0
M  V30 640 H 59.2659 1.72894 -4.27135 0
M  V30 641 H 57.5809 1.70786 -3.79764 0
M  V30 642 H 60.1779 4.38823 -3.05513 0
M  V30 643 H 60.5209 3.91745 -1.40861 0
M  V30 644 H 61.0539 2.87467 -2.74968 0
M  V30 645 H 57.7929 3.18064 -5.73163 0
M  V30 646 H 57.3129 4.15651 -4.32428 0
M  V30 647 H 58.9919 4.20566 -4.91663 0
M  V30 648 N 59.124 1.23083 0.984299 0
M  V30 649 C 60.087 1.00979 2.05757 0
M  V30 650 C 61.087 -0.0269573 1.60777 0
M  V30 651 O 62.277 0.212403 1.729 0
M  V30 652 C 59.409 0.527072 3.36801 0
M  V30 653 H 60.602 1.9622 2.26799 0
M  V30 654 H 58.155 1.05072 1.15714 0
M  V30 655 H 58.89 -0.429294 3.21446 0
M  V30 656 H 58.675 1.27515 3.70786 0
M  V30 657 H 60.165 0.392942 4.15747 0
M  V30 658 N 60.6021 -1.18246 1.0419 0
M  V30 659 C 61.8271 -1.92736 0.765996 0
M  V30 660 C 62.2521 -1.75728 -0.67091 0
M  V30 661 O 61.6101 -1.06825 -1.46486 0
M  V30 662 C 61.6581 -3.42148 1.13875 0
M  V30 663 O 60.7621 -4.11548 0.264954 0
M  V30 664 H 60.1031 -0.601238 0.281797 0
M  V30 665 H 62.6331 -1.49942 1.39207 0
M  V30 666 H 62.6431 -3.92858 1.1012 0
M  V30 667 H 61.3181 -3.53848 2.18551 0
M  V30 668 H 59.8951 -3.71137 0.362226 0
M  V30 669 N 62.0802 -0.821533 -1.34494 0
M  V30 670 C 63.3202 -0.414785 -2.00147 0
M  V30 671 C 63.6842 1.00299 -1.6372 0
M  V30 672 O 64.8852 1.51255 -2.22206 0
M  V30 673 C 63.1562 -0.609403 -3.52166 0
M  V30 674 S 64.7152 -0.295297 -4.37805 0
M  V30 675 H 61.5332 -0.15679 -0.693497 0
M  V30 676 H 64.1352 -1.06705 -1.63812 0
M  V30 677 H 62.8392 -1.64096 -3.76166 0
M  V30 678 H 62.3702 0.0576414 -3.93358 0
M  V30 679 H 64.3852 0.891531 -4.88125 0
M  V30 680 N 63.5583 1.46682 -0.576371 0
M  V30 681 C 64.8063 2.02013 -0.0594163 0
M  V30 682 C 65.1273 1.45101 1.30271 0
M  V30 683 O 64.3973 0.633317 1.8538 0
M  V30 684 H 62.9773 0.746759 -0.0189745 0
M  V30 685 H 65.6393 1.79862 -0.750717 0
M  V30 686 H 64.7353 3.12097 0.014345 0
M  V30 687 N 65.0364 0.313813 1.54444 0
M  V30 688 C 66.3134 -0.345447 1.92525 0
M  V30 689 C 66.6934 -1.70667 1.24242 0
M  V30 690 O 66.0414 -2.25273 0.382654 0
M  V30 691 C 66.2514 -0.44737 3.46121 0
M  V30 692 C 67.5994 -0.712238 4.18584 0
M  V30 693 O 68.6234 -0.530678 3.52225 0
M  V30 694 O 67.4824 -1.06183 5.36085 0
M  V30 695 H 64.5764 -0.195407 0.803583 0
M  V30 696 H 67.1224 0.362813 1.65776 0
M  V30 697 H 65.8944 0.509043 3.87975 0
M  V30 698 H 65.5174 -1.20359 3.78945 0
M  V30 699 N 66.5145 -1.57545 0.0417849 0
M  V30 700 C 67.7605 -1.92601 -0.635021 0
M  V30 701 C 68.0935 -0.919627 -1.71045 0
M  V30 702 O 67.3685 0.0557892 -1.9442 0
M  V30 703 C 67.6515 -3.38085 -1.23979 0
M  V30 704 C 67.5045 -4.49467 -0.173057 0
M  V30 705 C 68.8235 -3.83776 -2.15416 0
M  V30 706 H 65.9425 -0.700397 -0.229374 0
M  V30 707 H 68.5845 -1.89728 0.101633 0
M  V30 708 H 66.7345 -3.40664 -1.86762 0
M  V30 709 H 68.4065 -4.59018 0.458312 0
M  V30 710 H 66.6495 -4.30909 0.499996 0
M  V30 711 H 67.3205 -5.48323 -0.636054 0
M  V30 712 H 69.7965 -3.83013 -1.62605 0
M  V30 713 H 68.6725 -4.8624 -2.54679 0
M  V30 714 H 68.9335 -3.19998 -3.05047 0
M  V30 715 N 67.9926 0.231505 -1.5589 0
M  V30 716 C 68.9556 1.27028 -1.90779 0
M  V30 717 C 69.9556 1.40308 -0.785507 0
M  V30 718 O 71.1456 1.38744 -1.05336 0
M  V30 719 C 68.2776 2.64566 -2.14983 0
M  V30 720 H 69.4706 0.973017 -2.83677 0
M  V30 721 H 67.0236 0.471486 -1.49019 0
M  V30 722 H 67.7586 2.99406 -1.24604 0
M  V30 723 H 67.5436 2.56305 -2.96732 0
M  V30 724 H 69.0336 3.39543 -2.43105 0
M  V30 725 N 69.4707 1.49531 0.497807 0
M  V30 726 C 70.4177 1.66436 1.59899 0
M  V30 727 C 71.3877 0.505793 1.58212 0
M  V30 728 O 72.5727 0.733202 1.7615 0
M  V30 729 C 69.7127 1.7399 2.98029 0
M  V30 730 C 68.8257 3.01172 3.09708 0
M  V30 731 C 67.9607 2.99686 4.38591 0
M  V30 732 C 66.9997 4.21434 4.43914 0
M  V30 733 N 66.1367 4.1784 5.64229 0
M  V30 734 H 70.9767 2.60459 1.44793 0
M  V30 735 H 68.5137 1.29137 0.704423 0
M  V30 736 H 70.4717 1.76352 3.78095 0
M  V30 737 H 69.1017 0.834301 3.11832 0
M  V30 738 H 68.1537 3.08408 2.22685 0
M  V30 739 H 69.4657 3.91165 3.09502 0
M  V30 740 H 68.6197 3.00628 5.2698 0
M  V30 741 H 67.3587 2.07477 4.41367 0
M  V30 742 H 66.3637 4.20733 3.53926 0
M  V30 743 H 67.5887 5.14839 4.42851 0
M  V30 744 H 65.5347 3.28469 5.67841 0
M  V30 745 H 65.4517 5.01571 5.65652 0
M  V30 746 H 66.7197 4.22889 6.54817 0
M  V30 747 N 70.9488 -0.749086 1.3866 0
M  V30 748 C 71.9118 -1.84457 1.36045 0
M  V30 749 C 72.9118 -1.58682 0.260122 0
M  V30 750 O 74.1018 -1.66343 0.517261 0
M  V30 751 C 71.2338 -3.22008 1.11911 0
M  V30 752 H 72.4268 -1.88182 2.33512 0
M  V30 753 H 69.9798 -0.951266 1.24019 0
M  V30 754 H 70.7148 -3.2395 0.150686 0
M  V30 755 H 70.4998 -3.42111 1.91579 0
M  V30 756 H 71.9898 -4.0208 1.12788 0
M  V30 757 N 72.4269 -1.23603 -0.977757 0
M  V30 758 C 73.6759 -1.06377 -1.71368 0
M  V30 759 C 73.9889 0.399062 -1.91486 0
M  V30 760 O 75.1949 0.691312 -2.62551 0
M  V30 761 C 73.6509 -1.85512 -3.08404 0
M  V30 762 C 73.2589 -3.36141 -2.96164 0
M  V30 763 C 75.0029 -1.76783 -3.85938 0
M  V30 764 C 72.9099 -4.07659 -4.28449 0
M  V30 765 H 71.8399 -0.394452 -0.642591 0
M  V30 766 H 74.4909 -1.47594 -1.09034 0
M  V30 767 H 72.8729 -1.37103 -3.71509 0
M  V30 768 H 74.0469 -3.92056 -2.42133 0
M  V30 769 H 72.3619 -3.45712 -2.32104 0
M  V30 770 H 74.9589 -2.27526 -4.83876 0
M  V30 771 H 75.3019 -0.731116 -4.0983 0
M  V30 772 H 75.8349 -2.22818 -3.2954 0
M  V30 773 H 72.5739 -5.11648 -4.09752 0
M  V30 774 H 72.0939 -3.5653 -4.82334 0
M  V30 775 H 73.7729 -4.141 -4.97122 0
M  V30 776 N 73.905 1.17692 -1.04816 0
M  V30 777 C 75.154 1.87192 -0.751132 0
M  V30 778 C 75.467 1.8169 0.724441 0
M  V30 779 O 76.673 2.46625 1.13527 0
M  V30 780 C 75.129 3.35857 -1.29338 0
M  V30 781 C 74.737 3.4987 -2.79812 0
M  V30 782 C 76.481 4.10709 -1.07322 0
M  V30 783 C 74.388 4.92536 -3.27356 0
M  V30 784 H 73.318 0.701162 -0.277288 0
M  V30 785 H 75.969 1.32932 -1.26496 0
M  V30 786 H 74.351 3.89631 -0.707376 0
M  V30 787 H 75.525 3.06332 -3.44235 0
M  V30 788 H 73.84 2.88433 -3.00325 0
M  V30 789 H 76.437 5.15952 -1.4035 0
M  V30 790 H 76.78 4.16299 -0.0108001 0
M  V30 791 H 77.313 3.6313 -1.62423 0
M  V30 792 H 74.052 4.92119 -4.33012 0
M  V30 793 H 73.572 5.3676 -2.67673 0
M  V30 794 H 75.251 5.61288 -3.21815 0
M  V30 795 N 75.3831 0.828654 1.34056 0
M  V30 796 C 76.3311 0.242973 2.31327 0
M  V30 797 C 77.3251 -0.61944 1.57668 0
M  V30 798 O 78.5311 -0.51014 1.7262 0
M  V30 799 H 74.9061 0.059834 0.749616 0
M  V30 800 H 76.8771 1.07809 2.78244 0
M  V30 801 C 75.6261 -0.575733 3.429 0
M  V30 802 H 74.9491 0.0785582 3.99723 0
M  V30 803 H 76.3891 -0.951547 4.13185 0
M  V30 804 C 74.8481 -1.75044 2.87856 0
M  V30 805 O 75.3781 -2.84882 2.83205 0
M  V30 806 N 73.5841 -1.56903 2.44602 0
M  V30 807 H 73.1311 -0.675547 2.48584 0
M  V30 808 H 73.0891 -2.35652 2.08124 0
M  V30 809 N 76.8612 -1.46375 0.584142 0
M  V30 810 C 77.7912 -2.33103 -0.136037 0
M  V30 811 C 78.7722 -1.45431 -0.882255 0
M  V30 812 O 79.9572 -1.74246 -0.857434 0
M  V30 813 C 77.0872 -3.27731 -1.14933 0
M  V30 814 C 76.0412 -4.24855 -0.517862 0
M  V30 815 C 75.3672 -5.09001 -1.63773 0
M  V30 816 C 76.6672 -5.19439 0.545886 0
M  V30 817 H 78.3612 -2.93568 0.588086 0
M  V30 818 H 75.9072 -1.41166 0.284259 0
M  V30 819 H 77.8602 -3.87261 -1.66153 0
M  V30 820 H 76.5842 -2.65377 -1.90375 0
M  V30 821 H 75.2432 -3.6659 -0.0267361 0
M  V30 822 H 74.8912 -4.43031 -2.38185 0
M  V30 823 H 74.5912 -5.74777 -1.22085 0
M  V30 824 H 76.1152 -5.71396 -2.15266 0
M  V30 825 H 77.5292 -5.73177 0.118704 0
M  V30 826 H 75.9262 -5.93566 0.88317 0
M  V30 827 H 76.9962 -4.63285 1.43162 0
M  V30 828 N 78.3393 -0.321999 -1.54275 0
M  V30 829 C 79.3023 0.531975 -2.22941 0
M  V30 830 C 80.3023 1.04478 -1.22234 0
M  V30 831 O 81.4923 0.937452 -1.46825 0
M  V30 832 C 78.6243 1.73874 -2.93224 0
M  V30 833 H 79.8173 -0.0682612 -2.99822 0
M  V30 834 H 77.3703 -0.0730644 -1.56129 0
M  V30 835 H 78.1053 2.37825 -2.20476 0
M  V30 836 H 77.8903 1.37847 -3.6707 0
M  V30 837 H 79.3803 2.34496 -3.45545 0
M  V30 838 N 79.8174 1.5752 -0.0501392 0
M  V30 839 C 81.0634 1.92936 0.624798 0
M  V30 840 C 81.3964 0.928685 1.70555 0
M  V30 841 O 80.6714 -0.0454779 1.94447 0
M  V30 842 C 80.9544 3.38737 1.22185 0
M  V30 843 C 80.8074 4.49552 0.149218 0
M  V30 844 C 82.1264 3.84913 2.13378 0
M  V30 845 H 79.2454 0.701604 0.225657 0
M  V30 846 H 81.8874 1.89671 -0.111693 0
M  V30 847 H 80.0374 3.4165 1.84953 0
M  V30 848 H 81.7094 4.58768 -0.482648 0
M  V30 849 H 79.9524 4.30638 -0.522841 0
M  V30 850 H 80.6234 5.48653 0.606966 0
M  V30 851 H 83.0994 3.8387 1.60572 0
M  V30 852 H 81.9754 4.87584 2.52097 0
M  V30 853 H 82.2364 3.21611 3.03346 0
M  V30 854 N 81.2955 -0.223234 1.56011 0
M  V30 855 C 82.5255 -0.963413 1.82762 0
M  V30 856 C 82.9335 -1.78516 0.626804 0
M  V30 857 O 82.2765 -1.78974 -0.414014 0
M  V30 858 C 82.3385 -1.93126 3.0322 0
M  V30 859 C 82.0025 -1.2942 4.38291 0
M  V30 860 C 82.9995 -0.684916 5.15369 0
M  V30 861 C 80.6845 -1.30647 4.85012 0
M  V30 862 C 82.6785 -0.0963971 6.37327 0
M  V30 863 C 80.3655 -0.71411 6.06913 0
M  V30 864 C 81.3635 -0.110123 6.82911 0
M  V30 865 O 81.0515 0.47303 8.02507 0
M  V30 866 H 80.7835 -0.288011 0.611576 0
M  V30 867 H 83.3375 -0.244103 2.03944 0
M  V30 868 H 81.5675 -2.68952 2.77852 0
M  V30 869 H 83.2565 -2.53685 3.16857 0
M  V30 870 H 84.0225 -0.667774 4.80381 0
M  V30 871 H 79.9015 -1.76598 4.25833 0
M  V30 872 H 83.4455 0.375657 6.96588 0
M  V30 873 H 79.3425 -0.728659 6.41374 0
M  V30 874 H 80.1105 0.367186 8.17676 0
M  V30 875 N 82.7736 -1.49793 -0.48987 0
M  V30 876 C 84.0216 -1.59525 -1.24081 0
M  V30 877 C 84.3426 -0.288953 -1.92847 0
M  V30 878 O 83.6126 0.692436 -1.83254 0
M  V30 879 H 82.1926 -0.587796 -0.460983 0
M  V30 880 H 84.8546 -1.86477 -0.566778 0
M  V30 881 H 83.9506 -2.39696 -1.99881 0
M  V30 882 N 84.2517 0.741722 -1.39055 0
M  V30 883 C 85.1987 1.85566 -1.37237 0
M  V30 884 C 86.1687 1.64457 -0.233072 0
M  V30 885 O 87.3537 1.85957 -0.427147 0
M  V30 886 C 84.4937 3.23004 -1.215 0
M  V30 887 C 83.6067 3.55864 -2.44918 0
M  V30 888 C 82.7417 4.82669 -2.21821 0
M  V30 889 C 81.7807 5.08351 -3.40948 0
M  V30 890 N 80.9177 6.26356 -3.17211 0
M  V30 891 H 85.7577 1.86455 -2.32462 0
M  V30 892 H 83.2947 0.911176 -1.15482 0
M  V30 893 H 85.2527 4.02331 -1.10389 0
M  V30 894 H 83.8827 3.21411 -0.29908 0
M  V30 895 H 82.9347 2.7129 -2.66657 0
M  V30 896 H 84.2467 3.70765 -3.33668 0
M  V30 897 H 83.4007 5.69962 -2.07914 0
M  V30 898 H 82.1397 4.69929 -1.30454 0
M  V30 899 H 81.1447 4.19522 -3.55361 0
M  V30 900 H 82.3697 5.22981 -4.33207 0
M  V30 901 H 80.3157 6.14917 -2.28502 0
M  V30 902 H 80.2327 6.41813 -3.99515 0
M  V30 903 H 81.5007 7.16506 -3.06984 0
M  V30 904 N 85.7298 1.2412 0.971189 0
M  V30 905 C 86.6928 1.03156 2.04674 0
M  V30 906 C 87.6928 -0.00990322 1.60797 0
M  V30 907 O 88.8828 0.230729 1.72665 0
M  V30 908 C 86.0148 0.562765 3.36223 0
M  V30 909 H 87.2078 1.98614 2.24705 0
M  V30 910 H 84.7608 1.06293 1.14593 0
M  V30 911 H 85.4958 -0.395176 3.21883 0
M  V30 912 H 85.2808 1.31441 3.69413 0
M  V30 913 H 86.7708 0.437015 4.15307 0
M  V30 914 N 87.2079 -1.17134 1.05439 0
M  V30 915 C 88.1399 -2.2078 0.615539 0
M  V30 916 C 89.1529 -1.59584 -0.322001 0
M  V30 917 O 90.3419 -1.78133 -0.114344 0
M  V30 918 C 87.4419 -3.38691 -0.118938 0
M  V30 919 C 86.6149 -4.29454 0.829924 0
M  V30 920 C 85.6739 -5.26024 0.136258 0
M  V30 921 O 84.6999 -5.63952 0.77115 0
M  V30 922 N 85.9019 -5.69487 -1.1254 0
M  V30 923 H 88.6669 -2.59052 1.50705 0
M  V30 924 H 86.2279 -1.32058 0.936603 0
M  V30 925 H 88.2199 -4.00329 -0.593179 0
M  V30 926 H 86.7899 -2.98996 -0.91215 0
M  V30 927 H 86.0099 -3.65211 1.48373 0
M  V30 928 H 87.2979 -4.86984 1.47392 0
M  V30 929 H 86.6959 -5.4075 -1.6615 0
M  V30 930 H 85.2529 -6.33257 -1.54366 0
M  V30 931 N 88.686 -0.835752 -1.33615 0
M  V30 932 C 89.634 -0.255238 -2.31195 0
M  V30 933 C 90.628 0.61107 -1.57995 0
M  V30 934 O 91.834 0.500979 -1.72888 0
M  V30 935 H 88.209 -0.0638085 -0.749288 0
M  V30 936 H 90.18 -1.09283 -2.77669 0
M  V30 937 C 88.929 0.55754 -3.43201 0
M  V30 938 H 88.252 -0.0997553 -3.99676 0
M  V30 939 H 89.692 0.929622 -4.13683 0
M  V30 940 C 88.151 1.73515 -2.88781 0
M  V30 941 O 88.681 2.83376 -2.84712 0
M  V30 942 N 86.887 1.55603 -2.4543 0
M  V30 943 H 86.434 0.662354 -2.48939 0
M  V30 944 H 86.392 2.34545 -2.09371 0
M  V30 945 N 90.1641 1.46063 -0.591896 0
M  V30 946 C 91.5801 1.57561 -0.254288 0
M  V30 947 C 91.7801 1.58565 1.24336 0
M  V30 948 O 90.8361 1.50753 2.02558 0
M  V30 949 C 92.1491 2.86549 -0.911611 0
M  V30 950 C 93.6971 3.00197 -0.886059 0
M  V30 951 C 94.1721 4.31933 -1.5231 0
M  V30 952 N 95.6631 4.38654 -1.48786 0
M  V30 953 C 96.3981 5.39222 -1.95006 0
M  V30 954 N 95.8941 6.46414 -2.49241 0
M  V30 955 N 97.6871 5.3048 -1.85868 0
M  V30 956 H 89.8381 1.43655 -1.56451 0
M  V30 957 H 92.1011 0.68583 -0.654478 0
M  V30 958 H 91.8071 2.91651 -1.96551 0
M  V30 959 H 91.6811 3.74794 -0.425368 0
M  V30 960 H 94.0681 2.9467 0.159246 0
M  V30 961 H 94.1491 2.13403 -1.41041 0
M  V30 962 H 93.7931 4.38217 -2.56765 0
M  V30 963 H 93.7231 5.17516 -0.973891 0
M  V30 964 H 96.2141 3.61793 -1.09151 0
M  V30 965 H 96.5271 7.19376 -2.82344 0
M  V30 966 H 94.8721 6.47208 -2.53272 0
M  V30 967 H 98.0631 4.45643 -1.43248 0
M  V30 968 H 98.2361 6.08711 -2.22204 0
M  V30 969 N 91.6422 0.330177 1.54103 0
M  V30 970 C 92.8672 -0.274893 2.0557 0
M  V30 971 C 93.2922 -1.44487 1.20437 0
M  V30 972 O 92.6502 -1.80021 0.214991 0
M  V30 973 C 92.6982 -0.68079 3.54115 0
M  V30 974 O 91.8022 -1.7824 3.71893 0
M  V30 975 H 91.1432 -0.0483849 0.662235 0
M  V30 976 H 93.6732 0.480508 1.98878 0
M  V30 977 H 93.6832 -0.961635 3.96505 0
M  V30 978 H 92.3582 0.174903 4.15532 0
M  V30 979 H 90.9352 -1.49985 3.41407 0
M  V30 980 N 93.1203 -1.57491 0.0584922 0
M  V30 981 C 94.3503 -1.9701 -0.622134 0
M  V30 982 C 94.7583 -0.935034 -1.6448 0
M  V30 983 O 94.1013 0.0882904 -1.83488 0
M  V30 984 C 94.1633 -3.32794 -1.35972 0
M  V30 985 C 93.8273 -4.54343 -0.492043 0
M  V30 986 C 94.8243 -5.19323 0.244901 0
M  V30 987 C 92.5093 -5.00534 -0.420821 0
M  V30 988 C 94.5033 -6.28835 1.04143 0
M  V30 989 C 92.1903 -6.09921 0.379389 0
M  V30 990 C 93.1883 -6.73933 1.10919 0
M  V30 991 O 92.8763 -7.81216 1.89623 0
M  V30 992 H 92.6083 -0.653127 -0.174359 0
M  V30 993 H 95.1623 -2.05029 0.123418 0
M  V30 994 H 93.3923 -3.21351 -2.15105 0
M  V30 995 H 95.0813 -3.5701 -1.93129 0
M  V30 996 H 95.8473 -4.8459 0.19939 0
M  V30 997 H 91.7263 -4.50496 -0.978474 0
M  V30 998 H 95.2703 -6.7873 1.61157 0
M  V30 999 H 91.1673 -6.44089 0.426512 0
M  V30 1000 H 91.9353 -7.98029 1.81913 0
M  V30 1001 N 94.5984 0.214957 -1.56127 0
M  V30 1002 C 95.5084 1.28727 -1.96129 0
M  V30 1003 C 96.5244 1.50916 -0.866044 0
M  V30 1004 O 97.7004 1.63918 -1.17016 0
M  V30 1005 C 94.7654 2.61569 -2.27558 0
M  V30 1006 C 93.8264 2.47625 -3.50685 0
M  V30 1007 C 93.0594 3.74132 -3.80606 0
M  V30 1008 O 93.2824 4.77438 -3.12104 0
M  V30 1009 O 92.2164 3.70849 -4.74083 0
M  V30 1010 H 96.0424 0.977855 -2.87527 0
M  V30 1011 H 93.6274 0.418358 -1.43423 0
M  V30 1012 H 95.5094 3.40012 -2.48938 0
M  V30 1013 H 94.1844 2.92178 -1.39332 0
M  V30 1014 H 93.0914 1.67361 -3.34576 0
M  V30 1015 H 94.4244 2.21954 -4.39315 0
M  V30 1016 N 96.0765 1.50051 0.48192 0
M  V30 1017 C 97.4925 1.37237 0.814756 0
M  V30 1018 C 97.6925 0.420109 1.97072 0
M  V30 1019 O 96.7485 -0.141246 2.52105 0
M  V30 1020 C 98.0615 2.78375 1.13701 0
M  V30 1021 C 99.6095 2.87213 1.2441 0
M  V30 1022 C 100.084 4.29161 1.59954 0
M  V30 1023 N 101.575 4.32061 1.66967 0
M  V30 1024 C 102.31 5.38879 1.95952 0
M  V30 1025 N 101.806 6.55918 2.23031 0
M  V30 1026 N 103.599 5.26312 1.97363 0
M  V30 1027 H 95.7505 2.10546 -0.28005 0
M  V30 1028 H 98.0135 0.945921 -0.0627454 0
M  V30 1029 H 97.7195 3.49845 0.360787 0
M  V30 1030 H 97.5935 3.14941 2.07586 0
M  V30 1031 H 99.9805 2.15969 2.01101 0
M  V30 1032 H 100.061 2.54204 0.285299 0
M  V30 1033 H 99.7055 5.00938 0.838067 0
M  V30 1034 H 99.6355 4.59648 2.56966 0
M  V30 1035 H 102.126 3.47661 1.48123 0
M  V30 1036 H 102.439 7.33139 2.44391 0
M  V30 1037 H 100.784 6.59112 2.20447 0
M  V30 1038 H 103.975 4.33876 1.75697 0
M  V30 1039 H 104.148 6.09649 2.19618 0
M  V30 1040 N 97.5546 -0.734337 1.39446 0
M  V30 1041 C 98.4846 -1.86155 1.40955 0
M  V30 1042 C 99.4656 -1.67898 0.272827 0
M  V30 1043 O 100.651 -1.88207 0.478743 0
M  V30 1044 C 97.7806 -3.23912 1.25294 0
M  V30 1045 C 96.7346 -3.56808 2.36373 0
M  V30 1046 C 96.0606 -4.93508 2.058 0
M  V30 1047 C 97.3606 -3.59713 3.78687 0
M  V30 1048 H 99.0546 -1.8515 2.35287 0
M  V30 1049 H 96.6006 -0.889367 1.13253 0
M  V30 1050 H 98.5536 -4.02443 1.2497 0
M  V30 1051 H 97.2776 -3.25446 0.274308 0
M  V30 1052 H 95.9366 -2.80606 2.35914 0
M  V30 1053 H 95.5846 -4.91623 1.06374 0
M  V30 1054 H 95.2846 -5.16486 2.80208 0
M  V30 1055 H 96.8086 -5.74396 2.07128 0
M  V30 1056 H 98.2226 -4.2832 3.81071 0
M  V30 1057 H 96.6196 -3.94209 4.52459 0
M  V30 1058 H 97.6896 -2.59504 4.09617 0
M  V30 1059 N 99.0327 -1.24633 -0.964593 0
M  V30 1060 C 99.9957 -1.0424 -2.04124 0
M  V30 1061 C 100.996 0.00137563 -1.608 0
M  V30 1062 O 102.186 -0.239883 -1.7254 0
M  V30 1063 C 99.3177 -0.580588 -3.3592 0
M  V30 1064 H 100.511 -1.99803 -2.23649 0
M  V30 1065 H 98.0637 -1.06899 -1.14027 0
M  V30 1066 H 98.7987 0.3781 -3.22088 0
M  V30 1067 H 98.5837 -1.33398 -3.6871 0
M  V30 1068 H 100.074 -0.459034 -4.15069 0
M  V30 1069 N 100.511 1.16574 -1.06058 0
M  V30 1070 C 101.441 2.23057 -0.690488 0
M  V30 1071 C 102.422 1.67141 0.315901 0
M  V30 1072 O 103.607 1.93253 0.191556 0
M  V30 1073 C 100.737 3.47222 -0.073625 0
M  V30 1074 C 99.6908 4.16016 -1.00573 0
M  V30 1075 C 99.0168 5.34104 -0.252289 0
M  V30 1076 C 100.317 4.67264 -2.33371 0
M  V30 1077 H 102.011 2.54271 -1.58072 0
M  V30 1078 H 99.5568 1.22218 -0.76149 0
M  V30 1079 H 101.51 4.20939 0.19714 0
M  V30 1080 H 100.234 3.15302 0.85161 0
M  V30 1081 H 98.8928 3.44223 -1.2612 0
M  V30 1082 H 98.5408 4.98437 0.675988 0
M  V30 1083 H 98.2408 5.81072 -0.873455 0
M  V30 1084 H 99.7648 6.10599 0.0109857 0
M  V30 1085 H 101.179 5.32573 -2.12223 0
M  V30 1086 H 99.5758 5.24843 -2.90963 0
M  V30 1087 H 100.646 3.83602 -2.96611 0
M  V30 1088 N 101.989 0.842826 1.3317 0
M  V30 1089 C 102.919 0.294028 2.31641 0
M  V30 1090 C 103.9 -0.600401 1.59151 0
M  V30 1091 O 105.085 -0.523124 1.87022 0
M  V30 1092 C 102.215 -0.528416 3.43257 0
M  V30 1093 C 101.169 0.27056 4.27144 0
M  V30 1094 C 100.495 -0.675881 5.30411 0
M  V30 1095 C 101.795 1.48981 5.00602 0
M  V30 1096 H 103.489 1.11681 2.77791 0
M  V30 1097 H 101.035 0.538478 1.33553 0
M  V30 1098 H 102.988 -0.922674 4.11175 0
M  V30 1099 H 101.712 -1.38445 2.95805 0
M  V30 1100 H 100.371 0.646427 3.60856 0
M  V30 1101 H 100.019 -1.52842 4.79216 0
M  V30 1102 H 99.7189 -0.145374 5.8742 0
M  V30 1103 H 101.243 -1.06757 6.01195 0
M  V30 1104 H 102.657 1.16849 5.61266 0
M  V30 1105 H 101.054 1.95739 5.6728 0
M  V30 1106 H 102.124 2.25746 4.29147 0
M  V30 1107 N 103.467 -1.45747 0.599634 0
M  V30 1108 C 104.713 -2.02592 0.0918643 0
M  V30 1109 C 105.046 -1.46806 -1.27128 0
M  V30 1110 O 104.321 -0.639658 -1.83681 0
M  V30 1111 C 104.604 -3.60073 0.0443398 0
M  V30 1112 C 104.457 -4.26208 1.43759 0
M  V30 1113 C 105.776 -4.35309 -0.647608 0
M  V30 1114 H 102.895 -0.736175 0.034857 0
M  V30 1115 H 105.537 -1.73694 0.770081 0
M  V30 1116 H 103.687 -3.84823 -0.533224 0
M  V30 1117 H 105.359 -4.12668 2.06162 0
M  V30 1118 H 103.602 -3.84916 2.00056 0
M  V30 1119 H 104.273 -5.35069 1.35665 0
M  V30 1120 H 106.749 -4.15805 -0.156776 0
M  V30 1121 H 105.625 -5.45038 -0.649942 0
M  V30 1122 H 105.886 -4.07598 -1.71219 0
M  V30 1123 N 104.945 -0.338344 -1.53925 0
M  V30 1124 C 106.222 0.314774 -1.93051 0
M  V30 1125 C 106.602 1.68669 -1.26941 0
M  V30 1126 O 105.95 2.24636 -0.418445 0
M  V30 1127 C 106.16 0.392249 -3.46789 0
M  V30 1128 C 107.508 0.645554 -4.19664 0
M  V30 1129 O 108.532 0.474575 -3.53024 0
M  V30 1130 O 107.391 0.976408 -5.37707 0
M  V30 1131 H 104.485 0.182598 -0.80659 0
M  V30 1132 H 107.031 -0.389141 -1.65178 0
M  V30 1133 H 105.803 -0.570702 -3.87116 0
M  V30 1134 H 105.426 1.14316 -3.80812 0
M  V30 1135 N 106.423 1.57458 -0.0668435 0
M  V30 1136 C 107.651 1.97624 0.612565 0
M  V30 1137 C 108.066 0.94502 1.63447 0
M  V30 1138 O 107.423 -0.0689276 1.8237 0
M  V30 1139 C 107.474 3.37869 1.28555 0
M  V30 1140 O 107.195 4.3704 0.304557 0
M  V30 1141 C 108.696 3.92882 2.05325 0
M  V30 1142 H 105.916 0.650045 0.166381 0
M  V30 1143 H 108.46 2.04035 -0.137782 0
M  V30 1144 H 106.615 3.3256 1.98702 0
M  V30 1145 H 107.029 5.18565 0.786779 0
M  V30 1146 H 108.503 4.93247 2.47812 0
M  V30 1147 H 108.98 3.29156 2.9078 0
M  V30 1148 H 109.586 4.01577 1.40056 0
M  V30 1149 N 107.901 -0.206675 1.56239 0
M  V30 1150 C 109.147 -0.930218 1.80208 0
M  V30 1151 C 109.48 -1.83387 0.638981 0
M  V30 1152 O 108.755 -1.91119 -0.361066 0
M  V30 1153 C 109.038 -1.75641 3.1436 0
M  V30 1154 C 108.891 -0.878257 4.41142 0
M  V30 1155 C 110.21 -2.73129 3.45092 0
M  V30 1156 H 107.329 -0.336742 0.655571 0
M  V30 1157 H 109.971 -0.198222 1.88963 0
M  V30 1158 H 108.121 -2.38048 3.07027 0
M  V30 1159 H 109.793 -0.269787 4.6051 0
M  V30 1160 H 108.036 -0.184385 4.33408 0
M  V30 1161 H 108.707 -1.49106 5.3148 0
M  V30 1162 H 111.183 -2.20856 3.52649 0
M  V30 1163 H 110.059 -3.28028 4.40101 0
M  V30 1164 H 110.32 -3.51606 2.68003 0
M  V30 1165 N 109.379 -1.50304 -0.473955 0
M  V30 1166 C 110.627 -1.60832 -1.22382 0
M  V30 1167 C 110.948 -0.30939 -1.9253 0
M  V30 1168 O 110.218 0.67296 -1.83978 0
M  V30 1169 H 108.798 -0.592652 -0.454723 0
M  V30 1170 H 111.46 -1.87068 -0.546968 0
M  V30 1171 H 110.556 -2.41803 -1.97327 0
M  V30 1172 N 110.857 0.726932 -1.39834 0
M  V30 1173 C 112.268 1.30558 -1.3346 0
M  V30 1174 C 112.619 1.962 -0.00273003 0
M  V30 1175 O 111.744 1.96826 0.899371 0
M  V30 1176 C 112.339 2.37404 -2.41713 0
M  V30 1177 C 110.898 2.90921 -2.38835 0
M  V30 1178 C 110.045 1.64578 -2.2318 0
M  V30 1179 H 112.996 0.523862 -1.49804 0
M  V30 1180 H 113.017 3.17984 -2.08966 0
M  V30 1181 H 112.529 1.89599 -3.38635 0
M  V30 1182 H 110.63 3.42985 -1.45575 0
M  V30 1183 H 110.743 3.43487 -3.33997 0
M  V30 1184 H 109.107 1.89219 -1.70494 0
M  V30 1185 H 109.89 1.18814 -3.22084 0
M  V30 1186 N 112.336 1.25143 0.95797 0
M  V30 1187 C 113.752 1.01892 1.22842 0
M  V30 1188 C 113.952 -0.266311 1.99732 0
M  V30 1189 O 113.008 -0.979913 2.3271 0
M  V30 1190 C 114.321 2.24004 2.00606 0
M  V30 1191 C 115.869 2.28731 2.13662 0
M  V30 1192 C 116.344 3.5049 2.94823 0
M  V30 1193 N 117.835 3.50866 3.02403 0
M  V30 1194 C 118.57 4.4174 3.65586 0
M  V30 1195 N 118.066 5.42882 4.30408 0
M  V30 1196 N 119.859 4.29429 3.62694 0
M  V30 1197 H 112.01 2.07718 0.443493 0
M  V30 1198 H 114.273 0.912031 0.258657 0
M  V30 1199 H 113.979 3.17395 1.51503 0
M  V30 1200 H 113.853 2.26907 3.01319 0
M  V30 1201 H 116.24 1.35865 2.61963 0
M  V30 1202 H 116.321 2.29848 1.12265 0
M  V30 1203 H 115.965 4.43676 2.47213 0
M  V30 1204 H 115.895 3.46617 3.96439 0
M  V30 1205 H 118.386 2.777 2.56302 0
M  V30 1206 H 118.699 6.0844 4.76467 0
M  V30 1207 H 117.044 5.46758 4.29047 0
M  V30 1208 H 120.235 3.49643 3.11236 0
M  V30 1209 H 120.408 5.00448 4.1165 0
M  V30 1210 N 113.814 -1.1601 1.06675 0
M  V30 1211 C 114.744 -2.22688 0.702307 0
M  V30 1212 C 115.725 -1.67306 -0.307032 0
M  V30 1213 O 116.91 -1.93352 -0.181305 0
M  V30 1214 C 114.04 -3.47178 0.092038 0
M  V30 1215 C 112.994 -4.15477 1.02777 0
M  V30 1216 C 112.32 -5.33963 0.28061 0
M  V30 1217 C 113.62 -4.66019 2.35846 0
M  V30 1218 H 115.314 -2.53429 1.59419 0
M  V30 1219 H 112.86 -1.21813 0.767961 0
M  V30 1220 H 114.813 -4.21037 -0.174814 0
M  V30 1221 H 113.537 -3.15749 -0.834877 0
M  V30 1222 H 112.196 -3.43549 1.27944 0
M  V30 1223 H 111.844 -4.98788 -0.649545 0
M  V30 1224 H 111.544 -5.806 0.904258 0
M  V30 1225 H 113.068 -6.10596 0.021396 0
M  V30 1226 H 114.482 -5.3144 2.15045 0
M  V30 1227 H 112.879 -5.23293 2.93743 0
M  V30 1228 H 113.949 -3.82023 2.98641 0
M  V30 1229 N 115.292 -0.849877 -1.32721 0
M  V30 1230 C 116.517 -0.463856 -2.02146 0
M  V30 1231 C 116.942 0.930449 -1.63476 0
M  V30 1232 O 116.3 1.61033 -0.832952 0
M  V30 1233 C 116.348 -0.604955 -3.55489 0
M  V30 1234 O 115.452 0.36425 -4.10788 0
M  V30 1235 H 114.793 -0.187046 -0.637111 0
M  V30 1236 H 117.323 -1.14775 -1.69375 0
M  V30 1237 H 117.333 -0.490696 -4.05038 0
M  V30 1238 H 116.008 -1.62174 -3.82978 0
M  V30 1239 H 114.585 0.206628 -3.72327 0
M  V30 1240 N 116.77 1.45427 -0.607355 0
M  V30 1241 C 118.018 2.01841 -0.102253 0
M  V30 1242 C 118.339 1.47832 1.27164 0
M  V30 1243 O 117.609 0.672497 1.83995 0
M  V30 1244 H 116.189 0.746188 -0.0348101 0
M  V30 1245 H 118.851 1.78229 -0.7887 0
M  V30 1246 H 117.947 3.12057 -0.0518585 0
M  V30 1247 N 118.248 0.346503 1.53744 0
M  V30 1248 C 119.473 -0.253074 2.0585 0
M  V30 1249 C 119.898 -1.43202 1.21962 0
M  V30 1250 O 119.256 -1.79783 0.234073 0
M  V30 1251 C 119.304 -0.643193 3.54817 0
M  V30 1252 O 118.408 -1.74286 3.73762 0
M  V30 1253 H 117.749 -0.0413583 0.662711 0
M  V30 1254 H 120.279 0.501574 1.98357 0
M  V30 1255 H 120.289 -0.919526 3.97503 0
M  V30 1256 H 118.964 0.218966 4.15323 0
M  V30 1257 H 117.541 -1.46356 3.42979 0
M  V30 1258 N 119.726 -1.57421 0.075193 0
M  V30 1259 C 120.673 -2.12915 -0.890843 0
M  V30 1260 C 121.643 -1.04252 -1.29309 0
M  V30 1261 O 122.828 -1.31933 -1.37834 0
M  V30 1262 C 119.968 -2.69795 -2.15186 0
M  V30 1263 C 119.081 -3.92624 -1.80194 0
M  V30 1264 C 118.216 -4.37736 -3.00933 0
M  V30 1265 C 117.255 -5.53205 -2.61974 0
M  V30 1266 N 116.392 -5.9326 -3.75483 0
M  V30 1267 H 121.232 -2.95156 -0.410735 0
M  V30 1268 H 118.769 -1.45854 -0.191086 0
M  V30 1269 H 120.727 -3.00883 -2.89008 0
M  V30 1270 H 119.357 -1.90313 -2.60731 0
M  V30 1271 H 118.409 -3.67977 -0.964218 0
M  V30 1272 H 119.721 -4.76482 -1.47534 0
M  V30 1273 H 118.875 -4.70503 -3.8303 0
M  V30 1274 H 117.614 -3.52739 -3.36789 0
M  V30 1275 H 116.619 -5.20086 -1.783 0
M  V30 1276 H 117.844 -6.39936 -2.27284 0
M  V30 1277 H 115.79 -5.11212 -4.11094 0
M  V30 1278 H 115.707 -6.71865 -3.46602 0
M  V30 1279 H 116.975 -6.30651 -4.58148 0
M  V30 1280 N 121.204 0.198386 -1.56346 0
M  V30 1281 C 122.152 1.26538 -1.95169 0
M  V30 1282 C 123.146 1.47295 -0.836685 0
M  V30 1283 O 124.352 1.48195 -1.02167 0
M  V30 1284 H 120.727 0.424744 -0.620561 0
M  V30 1285 H 122.698 0.910904 -2.84157 0
M  V30 1286 C 121.447 2.6035 -2.30463 0
M  V30 1287 H 120.77 2.45192 -3.15786 0
M  V30 1288 H 122.21 3.33762 -2.61494 0
M  V30 1289 C 120.669 3.17096 -1.13806 0
M  V30 1290 O 121.199 3.99588 -0.41135 0
M  V30 1291 N 119.405 2.75795 -0.915736 0
M  V30 1292 H 118.952 2.08816 -1.50843 0
M  V30 1293 H 118.91 3.14101 -0.136979 0
M  V30 1294 N 122.682 1.50554 0.465978 0
M  V30 1295 C 123.612 1.72722 1.57128 0
M  V30 1296 C 124.593 0.576294 1.6004 0
M  V30 1297 O 125.778 0.81598 1.76225 0
M  V30 1298 C 122.908 1.82605 2.95419 0
M  V30 1299 C 121.862 2.97835 3.07373 0
M  V30 1300 C 121.188 2.92867 4.47363 0
M  V30 1301 C 122.488 4.38265 2.84114 0
M  V30 1302 H 124.182 2.65267 1.38829 0
M  V30 1303 H 121.728 1.2765 0.666441 0
M  V30 1304 H 123.681 1.96698 3.72677 0
M  V30 1305 H 122.405 0.866858 3.14886 0
M  V30 1306 H 121.064 2.83401 2.3255 0
M  V30 1307 H 120.712 1.94783 4.63755 0
M  V30 1308 H 120.412 3.70227 4.56296 0
M  V30 1309 H 121.936 3.09015 5.26633 0
M  V30 1310 H 123.35 4.53198 3.51118 0
M  V30 1311 H 121.747 5.17115 3.04487 0
M  V30 1312 H 122.817 4.50281 1.7993 0
M  V30 1313 N 124.16 -0.719506 1.40217 0
M  V30 1314 C 125.07 -1.86378 1.42479 0
M  V30 1315 C 126.086 -1.71073 0.317834 0
M  V30 1316 O 127.262 -1.93406 0.561794 0
M  V30 1317 C 124.327 -3.22136 1.28178 0
M  V30 1318 C 123.388 -3.49723 2.48982 0
M  V30 1319 C 122.621 -4.79004 2.35353 0
M  V30 1320 O 122.844 -5.53821 1.36524 0
M  V30 1321 O 121.778 -5.06839 3.2465 0
M  V30 1322 H 125.604 -1.87425 2.38968 0
M  V30 1323 H 123.189 -0.869405 1.21498 0
M  V30 1324 H 125.071 -4.03234 1.22395 0
M  V30 1325 H 123.746 -3.21825 0.347934 0
M  V30 1326 H 122.653 -2.6865 2.60342 0
M  V30 1327 H 123.986 -3.54828 3.41113 0
M  V30 1328 N 125.638 -1.25649 -0.95132 0
M  V30 1329 C 126.585 -1.06323 -2.04851 0
M  V30 1330 C 127.555 0.0286491 -1.66075 0
M  V30 1331 O 128.74 -0.12917 -1.90362 0
M  V30 1332 C 125.88 -0.691529 -3.381 0
M  V30 1333 C 124.993 -1.85861 -3.89974 0
M  V30 1334 C 124.128 -1.43096 -5.11563 0
M  V30 1335 C 123.167 -2.56696 -5.55674 0
M  V30 1336 N 122.304 -2.14684 -6.68472 0
M  V30 1337 H 127.144 -2.00222 -2.20715 0
M  V30 1338 H 124.681 -0.997027 -1.08156 0
M  V30 1339 H 126.639 -0.456963 -4.1469 0
M  V30 1340 H 125.269 0.210474 -3.22113 0
M  V30 1341 H 124.321 -2.20639 -3.09875 0
M  V30 1342 H 125.633 -2.71161 -4.18657 0
M  V30 1343 H 124.787 -1.15624 -5.9558 0
M  V30 1344 H 123.526 -0.548722 -4.84603 0
M  V30 1345 H 122.531 -2.84909 -4.7022 0
M  V30 1346 H 123.756 -3.45503 -5.8464 0
M  V30 1347 H 121.702 -1.28881 -6.43215 0
M  V30 1348 H 121.619 -2.9353 -6.96689 0
M  V30 1349 H 122.887 -1.90397 -7.5589 0
M  V30 1350 N 127.117 1.15442 -1.07289 0
M  V30 1351 C 128.08 2.18358 -0.696591 0
M  V30 1352 C 129.08 1.58637 0.262837 0
M  V30 1353 O 130.27 1.74145 0.0438809 0
M  V30 1354 C 127.402 3.4089 -0.0266151 0
M  V30 1355 H 128.595 2.53162 -1.60776 0
M  V30 1356 H 126.148 1.29893 -0.869342 0
M  V30 1357 H 126.883 3.11653 0.896822 0
M  V30 1358 H 126.668 3.85495 -0.716657 0
M  V30 1359 H 128.158 4.17009 0.222028 0
M  V30 1360 N 128.595 0.856903 1.32268 0
M  V30 1361 C 129.844 0.457599 1.96441 0
M  V30 1362 C 130.157 -0.992426 1.68553 0
M  V30 1363 O 131.363 -1.49727 2.26482 0
M  V30 1364 C 129.819 0.767358 3.51624 0
M  V30 1365 C 129.427 2.23326 3.88367 0
M  V30 1366 C 131.171 0.435887 4.22256 0
M  V30 1367 C 129.078 2.48613 5.36606 0
M  V30 1368 H 128.008 0.167387 0.735185 0
M  V30 1369 H 130.659 1.048 1.5063 0
M  V30 1370 H 129.041 0.106367 3.95857 0
M  V30 1371 H 130.215 2.93623 3.55137 0
M  V30 1372 H 128.53 2.52948 3.30766 0
M  V30 1373 H 131.127 0.602202 5.31298 0
M  V30 1374 H 131.47 -0.622672 4.11617 0
M  V30 1375 H 132.003 1.05286 3.83614 0
M  V30 1376 H 128.742 3.53101 5.52268 0
M  V30 1377 H 128.262 1.82896 5.71235 0
M  V30 1378 H 129.941 2.32676 6.03714 0
M  V30 1379 N 130.073 -1.45103 0.615059 0
M  V30 1380 C 131.005 -2.28786 -0.13762 0
M  V30 1381 C 132.018 -1.40376 -0.824525 0
M  V30 1382 O 133.207 -1.64681 -0.688662 0
M  V30 1383 C 130.307 -3.16322 -1.21628 0
M  V30 1384 C 129.48 -4.33054 -0.615039 0
M  V30 1385 C 128.539 -5.01743 -1.58556 0
M  V30 1386 O 127.565 -5.58293 -1.10895 0
M  V30 1387 N 128.767 -5.01714 -2.91998 0
M  V30 1388 H 131.532 -2.94025 0.580483 0
M  V30 1389 H 129.093 -1.55373 0.45507 0
M  V30 1390 H 131.085 -3.59139 -1.86552 0
M  V30 1391 H 129.655 -2.52943 -1.83681 0
M  V30 1392 H 128.875 -3.93627 0.21245 0
M  V30 1393 H 130.163 -5.08431 -0.193704 0
M  V30 1394 H 129.561 -4.57075 -3.33316 0
M  V30 1395 H 128.118 -5.48371 -3.52325 0
M  V30 1396 N 131.551 -0.354651 -1.53558 0
M  V30 1397 C 132.8 0.239504 -2.00273 0
M  V30 1398 C 133.113 1.50759 -1.24623 0
M  V30 1399 O 134.319 2.17968 -1.61871 0
M  V30 1400 C 132.775 0.477341 -3.5672 0
M  V30 1401 C 132.383 -0.775488 -4.41237 0
M  V30 1402 C 134.127 1.02975 -4.11821 0
M  V30 1403 C 132.034 -0.507838 -5.89216 0
M  V30 1404 H 130.964 0.0932743 -0.748208 0
M  V30 1405 H 133.615 -0.471701 -1.77334 0
M  V30 1406 H 131.997 1.24953 -3.7577 0
M  V30 1407 H 133.171 -1.54963 -4.33962 0
M  V30 1408 H 131.486 -1.25033 -3.97185 0
M  V30 1409 H 134.083 1.24513 -5.2 0
M  V30 1410 H 134.426 1.98862 -3.65731 0
M  V30 1411 H 134.959 0.317994 -3.96527 0
M  V30 1412 H 131.698 -1.43674 -6.39561 0
M  V30 1413 H 131.218 0.228011 -5.99366 0
M  V30 1414 H 132.897 -0.129238 -6.46871 0
M  V30 1415 N 133.029 1.57378 -0.0835403 0
M  V30 1416 C 133.962 2.09016 0.915833 0
M  V30 1417 C 134.94 0.997993 1.2837 0
M  V30 1418 O 136.124 1.27219 1.39096 0
M  V30 1419 C 133.251 2.55757 2.22049 0
M  V30 1420 C 132.297 3.76522 2.00333 0
M  V30 1421 S 133.13 5.20661 1.25191 0
M  V30 1422 C 134.286 5.70743 2.56912 0
M  V30 1423 H 134.519 2.93457 0.476492 0
M  V30 1424 H 132.052 1.53856 0.129493 0
M  V30 1425 H 134.01 2.83346 2.97027 0
M  V30 1426 H 132.671 1.71564 2.63106 0
M  V30 1427 H 131.864 4.07256 2.96916 0
M  V30 1428 H 131.466 3.49367 1.33488 0
M  V30 1429 H 133.758 5.78304 3.52946 0
M  V30 1430 H 134.701 6.6944 2.30772 0
M  V30 1431 H 135.109 4.98616 2.64655 0
M  V30 1432 N 134.507 -0.190092 1.56449 0
M  V30 1433 C 135.737 -0.92443 1.84764 0
M  V30 1434 C 136.145 -1.77146 0.664529 0
M  V30 1435 O 135.488 -1.79812 -0.375957 0
M  V30 1436 C 135.55 -1.86651 3.07248 0
M  V30 1437 C 135.214 -1.20094 4.40938 0
M  V30 1438 C 136.211 -0.575445 5.16706 0
M  V30 1439 C 133.896 -1.2033 4.87674 0
M  V30 1440 C 135.89 0.0388111 6.37388 0
M  V30 1441 C 133.577 -0.585214 6.08291 0
M  V30 1442 C 134.575 0.0347578 6.82991 0
M  V30 1443 O 134.263 0.643147 8.01323 0
M  V30 1444 H 133.995 -0.274974 0.617548 0
M  V30 1445 H 136.549 -0.200788 2.04416 0
M  V30 1446 H 134.779 -2.62998 2.83494 0
M  V30 1447 H 136.468 -2.46907 3.22167 0
M  V30 1448 H 137.234 -0.565728 4.81689 0
M  V30 1449 H 133.113 -1.67526 4.29484 0
M  V30 1450 H 136.657 0.523329 6.95634 0
M  V30 1451 H 132.554 -0.592451 6.42775 0
M  V30 1452 H 133.322 0.540545 8.16713 0
M  V30 1453 N 135.985 -1.50799 -0.457987 0
M  V30 1454 C 136.917 -1.66786 -1.57211 0
M  V30 1455 C 137.93 -0.548962 -1.53265 0
M  V30 1456 O 139.119 -0.8226 -1.58416 0
M  V30 1457 C 136.219 -1.64834 -2.96113 0
M  V30 1458 C 135.392 -2.92971 -3.24787 0
M  V30 1459 C 134.451 -2.83485 -4.43309 0
M  V30 1460 O 133.477 -3.5744 -4.42973 0
M  V30 1461 N 134.679 -1.97929 -5.45714 0
M  V30 1462 H 137.444 -2.62889 -1.43909 0
M  V30 1463 H 135.005 -1.48427 -0.646617 0
M  V30 1464 H 136.997 -1.56084 -3.7339 0
M  V30 1465 H 135.567 -0.764118 -3.03117 0
M  V30 1466 H 134.787 -3.15749 -2.36 0
M  V30 1467 H 136.075 -3.77834 -3.40762 0
M  V30 1468 H 135.473 -1.37182 -5.48815 0
M  V30 1469 H 134.03 -1.95073 -6.21924 0
M  V30 1470 N 137.463 0.71206 -1.40597 0
M  V30 1471 C 138.411 1.84746 -1.41321 0
M  V30 1472 C 139.405 1.66842 -0.293268 0
M  V30 1473 O 140.611 1.73904 -0.464481 0
M  V30 1474 H 136.986 0.608522 -0.441819 0
M  V30 1475 H 138.957 1.81252 -2.37045 0
M  V30 1476 C 137.706 3.22638 -1.29614 0
M  V30 1477 H 137.029 3.37023 -2.15071 0
M  V30 1478 H 138.469 4.02209 -1.3418 0
M  V30 1479 C 136.928 3.36899 -0.00673121 0
M  V30 1480 O 137.458 3.90186 0.954859 0
M  V30 1481 N 135.664 2.9053 0.0639327 0
M  V30 1482 H 135.211 2.47353 -0.719311 0
M  V30 1483 H 135.169 3.0045 0.926118 0
M  V30 1484 N 138.941 1.26152 0.944643 0
M  V30 1485 C 139.871 1.09902 2.06019 0
M  V30 1486 C 140.852 0.00519538 1.70099 0
M  V30 1487 O 142.037 0.176583 1.93396 0
M  V30 1488 C 139.167 0.727562 3.39594 0
M  V30 1489 C 138.121 1.77274 3.89561 0
M  V30 1490 C 137.447 1.25569 5.19747 0
M  V30 1491 C 138.747 3.17357 4.14827 0
M  V30 1492 H 140.441 2.03217 2.19871 0
M  V30 1493 H 137.987 0.978452 1.05652 0
M  V30 1494 H 139.94 0.600777 4.17095 0
M  V30 1495 H 138.664 -0.241287 3.25707 0
M  V30 1496 H 137.323 1.88814 3.14237 0
M  V30 1497 H 136.971 0.276783 5.02238 0
M  V30 1498 H 136.671 1.95433 5.54148 0
M  V30 1499 H 138.195 1.1415 5.99835 0
M  V30 1500 H 139.609 3.08914 4.82954 0
M  V30 1501 H 138.006 3.84781 4.60504 0
M  V30 1502 H 139.076 3.63673 3.20734 0
M  V30 1503 N 140.419 -1.14872 1.07899 0
M  V30 1504 C 141.351 -2.19425 0.662231 0
M  V30 1505 C 142.364 -1.60231 -0.288079 0
M  V30 1506 O 143.553 -1.78336 -0.076534 0
M  V30 1507 C 140.653 -3.38867 -0.0470695 0
M  V30 1508 C 139.826 -4.27597 0.920831 0
M  V30 1509 C 138.885 -5.25616 0.247805 0
M  V30 1510 O 137.911 -5.62189 0.890599 0
M  V30 1511 N 139.113 -5.71746 -1.00435 0
M  V30 1512 H 141.878 -2.55797 1.56166 0
M  V30 1513 H 139.439 -1.30042 0.964404 0
M  V30 1514 H 141.431 -4.01497 -0.50813 0
M  V30 1515 H 140.001 -3.00864 -0.848523 0
M  V30 1516 H 139.221 -3.61982 1.56087 0
M  V30 1517 H 140.509 -4.83748 1.57688 0
M  V30 1518 H 139.907 -5.44153 -1.54642 0
M  V30 1519 H 138.464 -6.36389 -1.40899 0
M  V30 1520 N 141.898 -0.863906 -1.31812 0
M  V30 1521 C 142.83 -0.272485 -2.27575 0
M  V30 1522 C 143.843 0.56104 -1.52827 0
M  V30 1523 O 145.032 0.384021 -1.7432 0
M  V30 1524 C 142.132 0.63283 -3.32939 0
M  V30 1525 C 141.305 -0.166902 -4.37081 0
M  V30 1526 C 140.364 0.665608 -5.21973 0
M  V30 1527 O 139.39 0.0958091 -5.69119 0
M  V30 1528 N 140.592 1.9787 -5.45736 0
M  V30 1529 H 143.357 -1.0954 -2.78964 0
M  V30 1530 H 140.918 -0.724791 -1.4477 0
M  V30 1531 H 142.91 1.19532 -3.86645 0
M  V30 1532 H 141.48 1.35642 -2.81638 0
M  V30 1533 H 140.7 -0.910838 -3.83533 0
M  V30 1534 H 141.988 -0.715874 -5.03739 0
M  V30 1535 H 141.386 2.46484 -5.09178 0
M  V30 1536 H 139.943 2.48911 -6.024 0
M  V30 1537 N 143.376 1.44774 -0.622745 0
M  V30 1538 C 144.653 1.95522 -0.0551974 0
M  V30 1539 C 145.033 1.5649 1.41683 0
M  V30 1540 O 144.381 0.834848 2.12703 0
M  V30 1541 C 144.591 3.4796 -0.269242 0
M  V30 1542 C 145.939 4.24306 -0.158014 0
M  V30 1543 O 146.963 3.55637 -0.200162 0
M  V30 1544 O 145.822 5.46471 -0.0558693 0
M  V30 1545 H 142.916 0.826556 0.0271015 0
M  V30 1546 H 145.462 1.54866 -0.693864 0
M  V30 1547 H 144.234 3.6939 -1.29099 0
M  V30 1548 H 143.857 3.95543 0.403966 0
M  V30 1549 N 144.854 0.36279 1.53368 0
M  V30 1550 C 146.102 -0.227326 2.00817 0
M  V30 1551 C 146.423 -1.49511 1.25186 0
M  V30 1552 O 145.693 -1.92482 0.364348 0
M  V30 1553 H 144.273 -0.0869923 0.741917 0
M  V30 1554 H 146.935 0.488381 1.88682 0
M  V30 1555 H 146.031 -0.456273 3.08747 0
M  V30 1556 N 146.332 -1.57332 0.0918853 0
M  V30 1557 C 147.262 -2.16872 -0.865371 0
M  V30 1558 C 148.243 -1.10118 -1.29646 0
M  V30 1559 O 149.428 -1.38242 -1.36392 0
M  V30 1560 C 146.558 -2.74649 -2.12569 0
M  V30 1561 C 145.512 -3.86747 -1.83333 0
M  V30 1562 C 144.838 -4.31212 -3.16166 0
M  V30 1563 C 146.138 -5.10089 -1.1228 0
M  V30 1564 H 147.832 -2.97114 -0.369307 0
M  V30 1565 H 145.378 -1.42918 -0.176194 0
M  V30 1566 H 147.331 -3.14952 -2.7997 0
M  V30 1567 H 146.055 -1.91657 -2.64452 0
M  V30 1568 H 144.714 -3.46978 -1.18331 0
M  V30 1569 H 144.362 -3.45115 -3.6593 0
M  V30 1570 H 144.062 -5.06788 -2.97388 0
M  V30 1571 H 145.586 -4.74146 -3.84731 0
M  V30 1572 H 147 -5.47582 -1.69785 0
M  V30 1573 H 145.397 -5.91073 -1.03693 0
M  V30 1574 H 146.467 -4.84786 -0.105041 0
M  V30 1575 N 147.81 0.181792 -1.56548 0
M  V30 1576 C 148.72 1.24538 -1.98815 0
M  V30 1577 C 149.736 1.49045 -0.897861 0
M  V30 1578 O 150.912 1.61399 -1.20467 0
M  V30 1579 C 147.977 2.56683 -2.33055 0
M  V30 1580 C 147.038 2.40131 -3.55859 0
M  V30 1581 C 146.271 3.65975 -3.88456 0
M  V30 1582 O 146.494 4.70711 -3.22161 0
M  V30 1583 O 145.428 3.6071 -4.81842 0
M  V30 1584 H 149.254 0.916647 -2.89536 0
M  V30 1585 H 146.839 0.387842 -1.44278 0
M  V30 1586 H 148.721 3.34655 -2.56094 0
M  V30 1587 H 147.396 2.89157 -1.45498 0
M  V30 1588 H 146.303 1.60226 -3.38051 0
M  V30 1589 H 147.636 2.12585 -4.43924 0
M  V30 1590 N 149.288 1.51039 0.449983 0
M  V30 1591 C 150.235 1.71439 1.54523 0
M  V30 1592 C 151.205 0.555871 1.56522 0
M  V30 1593 O 152.39 0.788871 1.73728 0
M  V30 1594 C 149.53 1.83384 2.92343 0
M  V30 1595 C 148.643 3.10873 2.9997 0
M  V30 1596 C 147.778 3.13488 4.28834 0
M  V30 1597 C 146.817 4.35343 4.30282 0
M  V30 1598 N 145.954 4.35579 5.5065 0
M  V30 1599 H 150.794 2.64934 1.36433 0
M  V30 1600 H 148.331 1.31312 0.662982 0
M  V30 1601 H 150.289 1.88291 3.72293 0
M  V30 1602 H 148.919 0.933086 3.0902 0
M  V30 1603 H 147.971 3.15336 2.12761 0
M  V30 1604 H 149.283 4.00814 2.96901 0
M  V30 1605 H 148.437 3.17241 5.17149 0
M  V30 1606 H 147.176 2.21414 4.34543 0
M  V30 1607 H 146.181 4.3178 3.40362 0
M  V30 1608 H 147.406 5.28668 4.26248 0
M  V30 1609 H 145.352 3.46369 5.57104 0
M  V30 1610 H 145.269 5.19313 5.49409 0
M  V30 1611 H 146.537 4.43507 6.41032 0
M  V30 1612 N 150.766 -0.704594 1.40972 0
M  V30 1613 C 152.012 -1.46675 1.40051 0
M  V30 1614 C 152.345 -1.94199 0.00641102 0
M  V30 1615 O 151.62 -1.68916 -0.964235 0
M  V30 1616 C 151.903 -2.68505 2.39952 0
M  V30 1617 C 151.756 -2.26805 3.88432 0
M  V30 1618 C 153.075 -3.70686 2.37233 0
M  V30 1619 H 150.194 -0.532015 0.510028 0
M  V30 1620 H 152.836 -0.803255 1.72185 0
M  V30 1621 H 150.986 -3.25114 2.1268 0
M  V30 1622 H 152.658 -1.75592 4.26574 0
M  V30 1623 H 150.901 -1.58685 4.03734 0
M  V30 1624 H 151.572 -3.14181 4.53866 0
M  V30 1625 H 154.048 -3.23731 2.61415 0
M  V30 1626 H 152.924 -4.53553 3.09162 0
M  V30 1627 H 153.185 -4.19754 1.38777 0
M  V30 1628 N 152.244 -1.26651 -0.937939 0
M  V30 1629 C 153.194 -1.05156 -2.02302 0
M  V30 1630 C 154.178 0.0171233 -1.60891 0
M  V30 1631 O 155.37 -0.200213 -1.75864 0
M  V30 1632 C 152.499 -0.689962 -3.36295 0
M  V30 1633 C 151.585 -1.79626 -3.84181 0
M  V30 1634 N 151.976 -3.03422 -4.04684 0
M  V30 1635 C 150.274 -1.6806 -4.13124 0
M  V30 1636 C 150.975 -3.75345 -4.444 0
M  V30 1637 N 149.951 -3.03051 -4.51288 0
M  V30 1638 H 153.753 -1.99117 -2.1617 0
M  V30 1639 H 151.267 -1.17216 -1.12402 0
M  V30 1640 H 153.264 -0.517112 -4.13681 0
M  V30 1641 H 151.924 0.242139 -3.23796 0
M  V30 1642 H 152.935 -3.39293 -3.91281 0
M  V30 1643 H 149.612 -0.818629 -4.09396 0
M  V30 1644 H 151.002 -4.81691 -4.68427 0
M  V30 1645 N 153.722 1.14298 -1.08507 0
M  V30 1646 C 154.652 2.21542 -0.737646 0
M  V30 1647 C 155.633 1.67773 0.280377 0
M  V30 1648 O 156.818 1.93616 0.150521 0
M  V30 1649 C 153.948 3.46988 -0.147259 0
M  V30 1650 C 152.902 4.13789 -1.09374 0
M  V30 1651 C 152.228 5.33449 -0.365524 0
M  V30 1652 C 153.528 4.62208 -2.4323 0
M  V30 1653 H 155.222 2.5086 -1.6343 0
M  V30 1654 H 152.768 1.20576 -0.787243 0
M  V30 1655 H 154.721 4.21262 0.107808 0
M  V30 1656 H 153.445 3.17037 0.784538 0
M  V30 1657 H 152.104 3.4147 -1.33393 0
M  V30 1658 H 151.752 4.99759 0.57011 0
M  V30 1659 H 151.452 5.79088 -0.996512 0
M  V30 1660 H 152.976 6.10485 -0.118534 0
M  V30 1661 H 154.39 5.27952 -2.23472 0
M  V30 1662 H 152.787 5.18553 -3.02031 0
M  V30 1663 H 153.857 3.77224 -3.04681 0
M  V30 1664 N 155.201 0.870884 1.31352 0
M  V30 1665 C 156.111 0.330783 2.32256 0
M  V30 1666 C 157.127 -0.559767 1.6475 0
M  V30 1667 O 158.303 -0.456263 1.96164 0
M  V30 1668 C 155.368 -0.458137 3.4366 0
M  V30 1669 C 154.429 0.460482 4.26823 0
M  V30 1670 C 153.662 -0.290881 5.32907 0
M  V30 1671 O 153.885 -1.51885 5.49806 0
M  V30 1672 O 152.819 0.351732 6.00871 0
M  V30 1673 H 156.645 1.16718 2.80376 0
M  V30 1674 H 154.23 0.634285 1.35267 0
M  V30 1675 H 156.112 -0.905343 4.1156 0
M  V30 1676 H 154.787 -1.27106 2.97701 0
M  V30 1677 H 153.694 0.956207 3.61673 0
M  V30 1678 H 155.027 1.23903 4.7635 0
M  V30 1679 N 156.679 -1.44442 0.630414 0
M  V30 1680 C 158.09 -1.85434 0.217063 0
M  V30 1681 C 158.441 -1.52748 -1.23136 0
M  V30 1682 O 157.566 -0.965205 -1.93682 0
M  V30 1683 C 158.161 -3.36581 0.387168 0
M  V30 1684 C 156.72 -3.76389 0.0283297 0
M  V30 1685 C 155.867 -2.68296 0.700889 0
M  V30 1686 H 158.818 -1.34919 0.83562 0
M  V30 1687 H 158.839 -3.78657 -0.374086 0
M  V30 1688 H 158.351 -3.60339 1.44144 0
M  V30 1689 H 156.452 -3.58246 -1.02423 0
M  V30 1690 H 156.565 -4.77095 0.437892 0
M  V30 1691 H 154.929 -2.54335 0.136267 0
M  V30 1692 H 155.712 -2.94887 1.75774 0
M  V30 1693 N 158.157 -0.370918 -1.53173 0
M  V30 1694 C 159.403 0.217423 -2.01631 0
M  V30 1695 C 159.736 1.47983 -1.25756 0
M  V30 1696 O 159.011 1.91274 -0.352764 0
M  V30 1697 C 159.294 0.503982 -3.56556 0
M  V30 1698 C 159.147 -0.77243 -4.43118 0
M  V30 1699 C 160.466 1.30234 -4.20389 0
M  V30 1700 H 157.585 0.0775486 -0.732909 0
M  V30 1701 H 160.227 -0.496863 -1.83388 0
M  V30 1702 H 158.377 1.11248 -3.72231 0
M  V30 1703 H 160.049 -1.4098 -4.39229 0
M  V30 1704 H 158.292 -1.39167 -4.10871 0
M  V30 1705 H 158.963 -0.526815 -5.4948 0
M  V30 1706 H 161.439 0.787546 -4.08579 0
M  V30 1707 H 160.315 1.47158 -5.28806 0
M  V30 1708 H 160.576 2.31237 -3.76805 0
M  V30 1709 N 159.635 1.57281 -0.100228 0
M  V30 1710 C 161.051 1.57527 0.256416 0
M  V30 1711 C 161.251 1.11173 1.68056 0
M  V30 1712 O 160.307 0.79053 2.39806 0
M  V30 1713 C 161.62 3.00673 0.0401747 0
M  V30 1714 C 163.168 3.12815 0.107528 0
M  V30 1715 C 163.643 4.57929 -0.0807834 0
M  V30 1716 N 165.134 4.63193 -0.0261207 0
M  V30 1717 C 165.869 5.73212 -0.146999 0
M  V30 1718 N 165.365 6.92047 -0.322999 0
M  V30 1719 N 167.158 5.62031 -0.0879044 0
M  V30 1720 H 159.309 1.85718 -1.03065 0
M  V30 1721 H 161.572 0.857446 -0.404339 0
M  V30 1722 H 161.278 3.38804 -0.943649 0
M  V30 1723 H 161.152 3.69042 0.780262 0
M  V30 1724 H 163.539 2.74554 1.08186 0
M  V30 1725 H 163.62 2.47028 -0.664134 0
M  V30 1726 H 163.264 4.96886 -1.05201 0
M  V30 1727 H 163.194 5.21783 0.710635 0
M  V30 1728 H 165.685 3.77748 0.107161 0
M  V30 1729 H 165.998 7.7173 -0.406608 0
M  V30 1730 H 164.343 6.94074 -0.358733 0
M  V30 1731 H 167.534 4.68075 0.048498 0
M  V30 1732 H 167.707 6.47734 -0.185557 0
M  V30 1733 N 161.113 -0.173488 1.56642 0
M  V30 1734 C 162.362 -0.888758 1.81063 0
M  V30 1735 C 162.675 -1.83506 0.67712 0
M  V30 1736 O 163.881 -2.59254 0.806206 0
M  V30 1737 C 162.337 -1.63091 3.20826 0
M  V30 1738 C 161.945 -0.728357 4.4204 0
M  V30 1739 C 163.689 -2.33454 3.54541 0
M  V30 1740 C 161.596 -1.47062 5.72823 0
M  V30 1741 H 160.526 -0.335618 0.675186 0
M  V30 1742 H 163.177 -0.141712 1.82952 0
M  V30 1743 H 161.559 -2.42263 3.13248 0
M  V30 1744 H 162.733 0.0262449 4.60793 0
M  V30 1745 H 161.048 -0.134492 4.16183 0
M  V30 1746 H 163.645 -2.89578 4.49498 0
M  V30 1747 H 163.988 -3.08687 2.79317 0
M  V30 1748 H 164.521 -1.61227 3.63663 0
M  V30 1749 H 161.26 -0.760658 6.51072 0
M  V30 1750 H 160.78 -2.1986 5.58052 0
M  V30 1751 H 162.459 -2.01868 6.14702 0
M  V30 1752 N 162.591 -1.51276 -0.441967 0
M  V30 1753 C 164.002 -1.56244 -1.02199 0
M  V30 1754 C 164.353 -0.383149 -1.92422 0
M  V30 1755 O 163.478 0.500613 -2.1053 0
M  V30 1756 C 164.073 -2.83162 -1.86024 0
M  V30 1757 C 162.632 -2.90716 -2.39084 0
M  V30 1758 C 161.779 -2.50858 -1.18175 0
M  V30 1759 H 164.73 -1.5712 -0.223416 0
M  V30 1760 H 164.751 -2.66663 -2.71425 0
M  V30 1761 H 164.263 -3.68974 -1.20331 0
M  V30 1762 H 162.364 -2.09323 -3.08244 0
M  V30 1763 H 162.477 -3.94266 -2.72198 0
M  V30 1764 H 160.841 -2.03951 -1.52565 0
M  V30 1765 H 161.624 -3.3901 -0.541001 0
M  V30 1766 N 164.069 0.697108 -1.41344 0
M  V30 1767 C 165.019 1.80313 -1.39539 0
M  V30 1768 C 166.003 1.58618 -0.270001 0
M  V30 1769 O 167.195 1.69477 -0.510551 0
M  V30 1770 C 164.324 3.18606 -1.27848 0
M  V30 1771 C 163.41 3.46001 -2.45244 0
M  V30 1772 N 163.801 3.44103 -3.70711 0
M  V30 1773 C 162.099 3.76542 -2.39023 0
M  V30 1774 C 162.8 3.7036 -4.48563 0
M  V30 1775 N 161.776 3.90027 -3.78655 0
M  V30 1776 H 165.578 1.77207 -2.34468 0
M  V30 1777 H 163.092 0.897031 -1.35378 0
M  V30 1778 H 165.089 3.97833 -1.24637 0
M  V30 1779 H 163.749 3.22925 -0.339032 0
M  V30 1780 H 164.76 3.2452 -4.03618 0
M  V30 1781 H 161.437 3.88241 -1.53542 0
M  V30 1782 H 162.827 3.75042 -5.57488 0
M  V30 1783 N 165.547 1.27147 0.931209 0
M  V30 1784 C 166.793 1.14455 1.68141 0
M  V30 1785 C 167.148 -0.307172 1.89932 0
M  V30 1786 O 166.441 -1.22158 1.47607 0
M  V30 1787 C 166.635 1.8579 3.05314 0
M  V30 1788 C 166.464 3.3775 2.96909 0
M  V30 1789 C 165.234 4.07062 2.99381 0
M  V30 1790 C 167.432 4.33783 2.76291 0
M  V30 1791 N 165.414 5.45618 2.8138 0
M  V30 1792 C 166.785 5.59582 2.6696 0
M  V30 1793 C 168.84 4.23915 2.61152 0
M  V30 1794 C 167.543 6.76639 2.44033 0
M  V30 1795 C 169.569 5.40689 2.39602 0
M  V30 1796 C 168.931 6.65443 2.3101 0
M  V30 1797 H 165.03 0.473667 0.622225 0
M  V30 1798 H 167.614 1.60568 1.10118 0
M  V30 1799 H 165.785 1.42138 3.61457 0
M  V30 1800 H 167.517 1.65634 3.69253 0
M  V30 1801 H 164.272 3.585 3.09475 0
M  V30 1802 H 164.696 6.184 2.75519 0
M  V30 1803 H 169.338 3.28189 2.66555 0
M  V30 1804 H 167.056 7.72451 2.3737 0
M  V30 1805 H 170.642 5.34932 2.28778 0
M  V30 1806 H 169.522 7.54277 2.14558 0
M  V30 1807 N 167.025 -1.13721 1.09112 0
M  V30 1808 C 167.935 -2.22638 0.73957 0
M  V30 1809 C 168.951 -1.72091 -0.257068 0
M  V30 1810 O 170.127 -2.01155 -0.0992154 0
M  V30 1811 C 167.192 -3.46322 0.16191 0
M  V30 1812 C 166.253 -4.11775 1.21408 0
M  V30 1813 C 165.486 -5.29555 0.663891 0
M  V30 1814 O 165.709 -5.68077 -0.514274 0
M  V30 1815 O 164.643 -5.84973 1.41738 0
M  V30 1816 H 168.469 -2.55074 1.64836 0
M  V30 1817 H 166.054 -1.21791 0.865289 0
M  V30 1818 H 167.936 -4.21107 -0.157073 0
M  V30 1819 H 166.611 -3.15593 -0.719932 0
M  V30 1820 H 165.518 -3.3883 1.58571 0
M  V30 1821 H 166.851 -4.46627 2.06845 0
M  V30 1822 N 168.503 -0.877838 -1.30888 0
M  V30 1823 C 169.919 -0.570844 -1.49042 0
M  V30 1824 C 170.119 0.893159 -1.80624 0
M  V30 1825 O 169.175 1.67485 -1.88958 0
M  V30 1826 C 170.488 -1.47784 -2.61878 0
M  V30 1827 C 172.036 -1.48071 -2.75761 0
M  V30 1828 C 172.511 -2.37347 -3.91702 0
M  V30 1829 N 174.002 -2.35271 -3.99001 0
M  V30 1830 C 174.737 -3.01063 -4.88004 0
M  V30 1831 N 174.233 -3.76055 -5.81854 0
M  V30 1832 N 176.026 -2.90332 -4.81315 0
M  V30 1833 H 168.177 -1.82502 -1.0866 0
M  V30 1834 H 170.44 -0.780797 -0.537644 0
M  V30 1835 H 170.146 -2.51993 -2.45341 0
M  V30 1836 H 170.02 -1.18215 -3.58197 0
M  V30 1837 H 172.407 -0.446166 -2.91708 0
M  V30 1838 H 172.488 -1.81668 -1.80085 0
M  V30 1839 H 172.132 -3.40883 -3.76512 0
M  V30 1840 H 172.062 -2.01071 -4.86701 0
M  V30 1841 H 174.553 -1.80768 -3.3186 0
M  V30 1842 H 174.866 -4.23366 -6.46514 0
M  V30 1843 H 173.211 -3.80163 -5.81808 0
M  V30 1844 H 176.402 -2.31278 -4.06974 0
M  V30 1845 H 176.575 -3.41885 -5.50471 0
M  V30 1846 N 169.982 1.44106 -0.638065 0
M  V30 1847 C 171.23 2.01579 -0.145043 0
M  V30 1848 C 171.551 1.50496 1.24 0
M  V30 1849 O 170.821 0.711374 1.82527 0
M  V30 1850 H 169.401 0.745282 -0.05063 0
M  V30 1851 H 172.063 1.76516 -0.826327 0
M  V30 1852 H 171.159 3.11877 -0.118039 0
M  V30 1853 N 171.46 0.379036 1.52974 0
M  V30 1854 C 172.37 -0.468639 2.29872 0
M  V30 1855 C 173.386 -1.08067 1.36373 0
M  V30 1856 O 174.562 -1.08871 1.69438 0
M  V30 1857 C 171.627 -1.58594 3.083 0
M  V30 1858 C 170.688 -1.00007 4.17489 0
M  V30 1859 C 169.921 -2.06413 4.92168 0
M  V30 1860 O 170.144 -3.27751 4.66835 0
M  V30 1861 O 169.078 -1.68717 5.7777 0
M  V30 1862 H 172.904 0.157508 3.03291 0
M  V30 1863 H 170.489 0.143035 1.48714 0
M  V30 1864 H 172.371 -2.23525 3.57232 0
M  V30 1865 H 171.046 -2.19724 2.37703 0
M  V30 1866 H 169.953 -0.314299 3.72777 0
M  V30 1867 H 171.286 -0.433135 4.90291 0
M  V30 1868 N 172.938 -1.57226 0.108567 0
M  V30 1869 C 173.848 -2.18292 -0.859401 0
M  V30 1870 C 174.864 -1.15612 -1.30038 0
M  V30 1871 O 176.04 -1.48039 -1.36552 0
M  V30 1872 C 173.105 -2.762 -2.09558 0
M  V30 1873 C 172.166 -3.93881 -1.70752 0
M  V30 1874 C 171.399 -4.49018 -2.88477 0
M  V30 1875 O 171.622 -4.03068 -4.036 0
M  V30 1876 O 170.556 -5.39852 -2.66164 0
M  V30 1877 H 174.382 -3.01441 -0.369769 0
M  V30 1878 H 171.967 -1.48945 -0.1165 0
M  V30 1879 H 173.849 -3.13156 -2.81978 0
M  V30 1880 H 172.524 -1.96089 -2.57548 0
M  V30 1881 H 171.431 -3.61713 -0.954714 0
M  V30 1882 H 172.764 -4.75396 -1.27513 0
M  V30 1883 N 174.416 0.165178 -1.56732 0
M  V30 1884 C 175.641 0.900253 -1.86843 0
M  V30 1885 C 176.066 1.74766 -0.695596 0
M  V30 1886 O 175.424 1.77786 0.35522 0
M  V30 1887 C 175.472 1.74777 -3.15413 0
M  V30 1888 O 174.576 2.85007 -2.98068 0
M  V30 1889 H 173.917 0.251832 -0.614391 0
M  V30 1890 H 176.447 0.161468 -2.03962 0
M  V30 1891 H 176.457 2.14646 -3.46974 0
M  V30 1892 H 175.132 1.12537 -4.00385 0
M  V30 1893 H 173.709 2.48676 -2.77875 0
M  V30 1894 N 175.894 1.51508 0.433938 0
M  V30 1895 C 176.857 1.72473 1.50949 0
M  V30 1896 C 177.857 0.594725 1.49398 0
M  V30 1897 O 179.047 0.862315 1.5136 0
M  V30 1898 C 176.179 1.78431 2.90474 0
M  V30 1899 H 177.372 2.68467 1.33662 0
M  V30 1900 H 174.925 1.41549 0.662836 0
M  V30 1901 H 175.66 0.842645 3.13161 0
M  V30 1902 H 175.445 2.60558 2.93005 0
M  V30 1903 H 176.935 1.96479 3.68491 0
M  V30 1904 N 177.372 -0.689602 1.41712 0
M  V30 1905 C 178.618 -1.45181 1.41599 0
M  V30 1906 C 178.951 -1.94181 0.0270081 0
M  V30 1907 O 178.226 -1.6993 -0.946265 0
M  V30 1908 C 178.509 -2.65945 2.42787 0
M  V30 1909 C 178.362 -2.22672 3.90816 0
M  V30 1910 C 179.681 -3.68149 2.41151 0
M  V30 1911 H 176.8 -0.526576 0.515642 0
M  V30 1912 H 179.442 -0.784947 1.73028 0
M  V30 1913 H 177.592 -3.2284 2.16116 0
M  V30 1914 H 179.264 -1.71058 4.28412 0
M  V30 1915 H 177.507 -1.54394 4.05395 0
M  V30 1916 H 178.178 -3.0935 4.57172 0
M  V30 1917 H 180.654 -3.2094 2.64834 0
M  V30 1918 H 179.53 -4.50248 3.13955 0
M  V30 1919 H 179.791 -4.18259 1.43221 0
M  V30 1920 N 178.85 -1.27639 -0.924453 0
M  V30 1921 C 179.783 -1.04966 -2.02626 0
M  V30 1922 C 180.761 0.0309505 -1.62571 0
M  V30 1923 O 181.945 -0.114846 -1.8815 0
M  V30 1924 C 179.072 -0.59292 -3.3347 0
M  V30 1925 C 178.118 -1.66858 -3.92506 0
M  V30 1926 S 178.951 -3.2619 -4.24689 0
M  V30 1927 C 180.107 -2.82325 -5.58609 0
M  V30 1928 H 180.34 -1.98252 -2.21547 0
M  V30 1929 H 177.873 -1.11506 -1.06798 0
M  V30 1930 H 179.831 -0.336086 -4.09122 0
M  V30 1931 H 178.492 0.319939 -3.12466 0
M  V30 1932 H 177.685 -1.30038 -4.86935 0
M  V30 1933 H 177.287 -1.87766 -3.2345 0
M  V30 1934 H 179.579 -2.2783 -6.38044 0
M  V30 1935 H 180.522 -3.75511 -6.00331 0
M  V30 1936 H 180.93 -2.21367 -5.19285 0
M  V30 1937 N 180.328 1.1314 -1.09713 0
M  V30 1938 C 181.258 2.20748 -0.761102 0
M  V30 1939 C 182.239 1.68061 0.262566 0
M  V30 1940 O 183.424 1.93765 0.129977 0
M  V30 1941 C 180.554 3.46812 -0.184054 0
M  V30 1942 C 179.508 4.12606 -1.13757 0
M  V30 1943 C 178.834 5.33031 -0.422083 0
M  V30 1944 C 180.134 4.59603 -2.48118 0
M  V30 1945 H 181.828 2.49113 -1.66082 0
M  V30 1946 H 179.374 1.19734 -0.799987 0
M  V30 1947 H 181.327 4.21353 0.0631215 0
M  V30 1948 H 180.051 3.17851 0.750868 0
M  V30 1949 H 178.71 3.40036 -1.37007 0
M  V30 1950 H 178.358 5.00335 0.517072 0
M  V30 1951 H 178.058 5.77999 -1.05788 0
M  V30 1952 H 179.582 6.10325 -0.183277 0
M  V30 1953 H 180.996 5.25552 -2.29059 0
M  V30 1954 H 179.393 5.15321 -3.07514 0
M  V30 1955 H 180.463 3.73971 -3.08665 0
M  V30 1956 N 181.806 0.884767 1.30421 0
M  V30 1957 C 182.716 0.355398 2.31892 0
M  V30 1958 C 183.732 -0.542261 1.65335 0
M  V30 1959 O 184.908 -0.435432 1.96637 0
M  V30 1960 C 181.973 -0.421661 3.44126 0
M  V30 1961 C 181.034 0.505727 4.26311 0
M  V30 1962 C 180.267 -0.234343 5.33185 0
M  V30 1963 O 180.49 -1.46045 5.51386 0
M  V30 1964 O 179.424 0.415443 6.00465 0
M  V30 1965 H 183.25 1.19685 2.79122 0
M  V30 1966 H 180.835 0.648596 1.34587 0
M  V30 1967 H 182.717 -0.861641 4.12497 0
M  V30 1968 H 181.392 -1.23942 2.99032 0
M  V30 1969 H 180.299 0.994513 3.60639 0
M  V30 1970 H 181.632 1.28948 4.75009 0
M  V30 1971 N 183.284 -1.43765 0.645699 0
M  V30 1972 C 184.695 -1.85193 0.236719 0
M  V30 1973 C 185.046 -1.54045 -1.21509 0
M  V30 1974 O 184.171 -0.985694 -1.92647 0
M  V30 1975 C 184.766 -3.36151 0.422845 0
M  V30 1976 C 183.325 -3.76338 0.0682492 0
M  V30 1977 C 182.472 -2.67538 0.729306 0
M  V30 1978 H 185.423 -1.34025 0.849883 0
M  V30 1979 H 185.444 -3.79032 -0.333904 0
M  V30 1980 H 184.956 -3.5879 1.47958 0
M  V30 1981 H 183.057 -3.59312 -0.986179 0
M  V30 1982 H 183.17 -4.76603 0.488469 0
M  V30 1983 H 181.534 -2.54176 0.163235 0
M  V30 1984 H 182.317 -2.93006 1.78892 0
M  V30 1985 N 184.763 -0.387143 -1.52771 0
M  V30 1986 C 186.179 -0.037007 -1.59557 0
M  V30 1987 C 186.379 1.44801 -1.40124 0
M  V30 1988 O 185.435 2.21227 -1.21716 0
M  V30 1989 C 186.748 -0.512256 -2.96305 0
M  V30 1990 C 188.296 -0.468328 -3.09476 0
M  V30 1991 C 188.771 -0.919731 -4.4867 0
M  V30 1992 N 190.262 -0.875656 -4.54848 0
M  V30 1993 C 190.997 -1.19637 -5.6078 0
M  V30 1994 N 190.493 -1.58745 -6.74368 0
M  V30 1995 N 192.286 -1.11776 -5.50874 0
M  V30 1996 H 184.437 -1.35395 -1.63652 0
M  V30 1997 H 186.7 -0.554818 -0.768688 0
M  V30 1998 H 186.406 -1.54935 -3.15734 0
M  V30 1999 H 186.28 0.089805 -3.77093 0
M  V30 2000 H 188.667 0.559671 -2.89744 0
M  V30 2001 H 188.748 -1.10616 -2.30646 0
M  V30 2002 H 188.392 -1.94595 -4.69143 0
M  V30 2003 H 188.322 -0.258927 -5.25963 0
M  V30 2004 H 190.813 -0.587843 -3.733 0
M  V30 2005 H 191.126 -1.81586 -7.51163 0
M  V30 2006 H 189.471 -1.6263 -6.75705 0
M  V30 2007 H 192.662 -0.811264 -4.61016 0
M  V30 2008 H 192.835 -1.37103 -6.3333 0
M  V30 2009 N 186.241 1.57166 -0.116904 0
M  V30 2010 C 187.49 1.94298 0.541407 0
M  V30 2011 C 187.803 1.00236 1.67964 0
M  V30 2012 O 189.009 1.26826 2.40057 0
M  V30 2013 C 187.465 3.45306 1.01449 0
M  V30 2014 C 187.073 4.47899 -0.0951738 0
M  V30 2015 C 188.817 3.91361 1.6443 0
M  V30 2016 C 186.724 5.90083 0.394491 0
M  V30 2017 H 185.654 0.725308 0.206019 0
M  V30 2018 H 188.305 1.82446 -0.196419 0
M  V30 2019 H 186.687 3.52385 1.80667 0
M  V30 2020 H 187.861 4.52486 -0.871374 0
M  V30 2021 H 186.176 4.11583 -0.631505 0
M  V30 2022 H 188.773 4.95004 2.02176 0
M  V30 2023 H 189.116 3.3122 2.52189 0
M  V30 2024 H 189.649 3.87073 0.917559 0
M  V30 2025 H 186.388 6.53974 -0.447004 0
M  V30 2026 H 185.908 5.88921 1.13722 0
M  V30 2027 H 187.587 6.41307 0.856399 0
M  V30 2028 N 187.719 -0.156864 1.56817 0
M  V30 2029 C 188.669 -1.19891 1.93934 0
M  V30 2030 C 189.653 -1.39061 0.809372 0
M  V30 2031 O 190.845 -1.40789 1.07273 0
M  V30 2032 C 187.974 -2.53493 2.31508 0
M  V30 2033 C 187.06 -2.37957 3.51052 0
M  V30 2034 N 187.451 -1.92158 4.67877 0
M  V30 2035 C 185.749 -2.68739 3.55943 0
M  V30 2036 C 186.45 -1.8943 5.49992 0
M  V30 2037 N 185.426 -2.32375 4.91429 0
M  V30 2038 H 189.228 -0.836746 2.81737 0
M  V30 2039 H 186.742 -0.365012 1.58245 0
M  V30 2040 H 188.739 -3.28811 2.56299 0
M  V30 2041 H 187.399 -2.905 1.45051 0
M  V30 2042 H 188.41 -1.62274 4.91821 0
M  V30 2043 H 185.087 -3.09687 2.80001 0
M  V30 2044 H 186.477 -1.55596 6.53636 0
M  V30 2045 N 189.197 -1.51736 -0.425897 0
M  V30 2046 C 190.144 -1.73875 -1.51776 0
M  V30 2047 C 191.114 -0.580702 -1.55618 0
M  V30 2048 O 192.299 -0.81641 -1.72451 0
M  V30 2049 C 189.439 -1.88012 -2.89388 0
M  V30 2050 C 188.552 -3.15606 -2.94986 0
M  V30 2051 C 187.687 -3.20271 -4.23793 0
M  V30 2052 C 186.726 -4.42134 -4.23302 0
M  V30 2053 N 185.863 -4.44284 -5.43651 0
M  V30 2054 H 190.703 -2.67071 -1.32201 0
M  V30 2055 H 188.24 -1.32351 -0.642008 0
M  V30 2056 H 190.198 -1.9419 -3.69251 0
M  V30 2057 H 188.828 -0.98213 -3.07496 0
M  V30 2058 H 187.88 -3.18681 -2.07717 0
M  V30 2059 H 189.192 -4.05486 -2.90486 0
M  V30 2060 H 188.346 -3.25428 -5.12036 0
M  V30 2061 H 187.085 -2.28299 -4.30965 0
M  V30 2062 H 186.09 -4.3714 -3.3345 0
M  V30 2063 H 187.315 -5.35382 -4.17783 0
M  V30 2064 H 185.261 -3.55188 -5.51523 0
M  V30 2065 H 185.178 -5.27988 -5.41078 0
M  V30 2066 H 186.446 -4.53649 -6.33895 0
M  V30 2067 N 190.675 0.682077 -1.42076 0
M  V30 2068 C 191.924 1.43786 -1.41451 0
M  V30 2069 C 192.237 1.95574 -0.0317074 0
M  V30 2070 O 193.443 2.71326 0.0971462 0
M  V30 2071 C 191.899 2.60071 -2.48779 0
M  V30 2072 C 191.507 2.15013 -3.93031 0
M  V30 2073 C 193.251 3.37626 -2.57311 0
M  V30 2074 C 191.158 3.28336 -4.91883 0
M  V30 2075 H 190.088 0.540143 -0.526082 0
M  V30 2076 H 192.739 0.739157 -1.67955 0
M  V30 2077 H 191.121 3.32275 -2.15429 0
M  V30 2078 H 192.295 1.5001 -4.35699 0
M  V30 2079 H 190.61 1.50416 -3.88284 0
M  V30 2080 H 193.207 4.22012 -3.28345 0
M  V30 2081 H 193.55 3.83727 -1.61429 0
M  V30 2082 H 194.083 2.72488 -2.89819 0
M  V30 2083 H 190.822 2.87234 -5.89217 0
M  V30 2084 H 190.342 3.92145 -4.53853 0
M  V30 2085 H 192.021 3.93913 -5.13265 0
M  V30 2086 N 192.153 1.28127 0.917671 0
M  V30 2087 C 193.116 1.11744 2.00115 0
M  V30 2088 C 194.116 0.0583052 1.60694 0
M  V30 2089 O 195.306 0.303755 1.71531 0
M  V30 2090 C 192.438 0.704862 3.33533 0
M  V30 2091 H 193.631 2.07966 2.16079 0
M  V30 2092 H 191.184 1.11058 1.09981 0
M  V30 2093 H 191.919 -0.258299 3.2327 0
M  V30 2094 H 191.704 1.4699 3.63505 0
M  V30 2095 H 193.194 0.612768 4.1308 0
M  V30 2096 N 193.631 -1.12557 1.10312 0
M  V30 2097 C 194.88 -1.83395 0.839588 0
M  V30 2098 C 195.193 -1.84939 -0.636929 0
M  V30 2099 O 196.399 -2.51761 -1.01631 0
M  V30 2100 C 194.855 -3.29303 1.45215 0
M  V30 2101 C 194.463 -3.36122 2.96186 0
M  V30 2102 C 196.207 -4.05121 1.26796 0
M  V30 2103 C 194.114 -4.76357 3.50483 0
M  V30 2104 H 193.044 -0.687133 0.310425 0
M  V30 2105 H 195.695 -1.26746 1.32694 0
M  V30 2106 H 194.077 -3.85812 0.892469 0
M  V30 2107 H 195.251 -2.89559 3.58458 0
M  V30 2108 H 193.566 -2.73776 3.13745 0
M  V30 2109 H 196.163 -5.08668 1.64806 0
M  V30 2110 H 196.506 -4.15773 0.209409 0
M  V30 2111 H 197.039 -3.54967 1.79563 0
M  V30 2112 H 193.778 -4.70899 4.55998 0
M  V30 2113 H 193.298 -5.23377 2.92978 0
M  V30 2114 H 194.977 -5.45294 3.48228 0
M  V30 2115 N 195.109 -0.891671 -1.2995 0
M  V30 2116 C 196.039 -0.379797 -2.30391 0
M  V30 2117 C 197.02 0.540919 -1.6127 0
M  V30 2118 O 198.205 0.453352 -1.88834 0
M  V30 2119 C 195.335 0.400654 -3.44981 0
M  V30 2120 C 194.289 -0.428905 -4.25846 0
M  V30 2121 C 193.615 0.478557 -5.32554 0
M  V30 2122 C 194.915 -1.67458 -4.94727 0
M  V30 2123 H 196.609 -1.21914 -2.73454 0
M  V30 2124 H 194.155 -0.587675 -1.31462 0
M  V30 2125 H 196.108 0.769434 -4.14316 0
M  V30 2126 H 194.832 1.27371 -3.0074 0
M  V30 2127 H 193.491 -0.779911 -3.58208 0
M  V30 2128 H 193.139 1.34951 -4.84559 0
M  V30 2129 H 192.839 -0.0727433 -5.87555 0
M  V30 2130 H 194.363 0.843705 -6.04743 0
M  V30 2131 H 195.777 -1.376 -5.56542 0
M  V30 2132 H 194.174 -2.16659 -5.59624 0
M  V30 2133 H 195.244 -2.41518 -4.20473 0
M  V30 2134 N 196.587 1.43421 -0.653314 0
M  V30 2135 C 197.835 2.01414 -0.166415 0
M  V30 2136 C 198.156 1.51803 1.22397 0
M  V30 2137 O 197.426 0.730693 1.81763 0
M  V30 2138 H 196.006 0.744703 -0.0585319 0
M  V30 2139 H 198.668 1.75629 -0.845003 0
M  V30 2140 H 197.764 3.11734 -0.151111 0
M  V30 2141 N 198.065 0.39524 1.52563 0
M  V30 2142 C 198.995 -0.428384 2.29537 0
M  V30 2143 C 199.976 -1.05831 1.33169 0
M  V30 2144 O 201.161 -1.06995 1.62067 0
M  V30 2145 C 198.291 -1.55274 3.10656 0
M  V30 2146 C 197.245 -1.04855 4.14957 0
M  V30 2147 C 196.571 -2.26543 4.84337 0
M  V30 2148 C 197.871 -0.112324 5.22179 0
M  V30 2149 H 199.565 0.213867 2.98635 0
M  V30 2150 H 197.111 0.104298 1.43622 0
M  V30 2151 H 199.064 -2.1358 3.63265 0
M  V30 2152 H 197.788 -2.22266 2.39302 0
M  V30 2153 H 196.447 -0.487985 3.63338 0
M  V30 2154 H 196.095 -2.92059 4.09525 0
M  V30 2155 H 195.795 -1.93466 5.54837 0
M  V30 2156 H 197.319 -2.85481 5.39753 0
M  V30 2157 H 198.733 -0.603752 5.70112 0
M  V30 2158 H 197.13 0.128968 5.99961 0
M  V30 2159 H 198.2 0.837052 4.77621 0
M  V30 2160 N 199.544 -1.57102 0.125237 0
M  V30 2161 C 200.792 -1.95021 -0.530198 0
M  V30 2162 C 201.113 -1.00982 -1.66816 0
M  V30 2163 O 200.383 -0.0672693 -1.95784 0
M  V30 2164 H 198.963 -0.720046 -0.198853 0
M  V30 2165 H 201.625 -1.93916 0.19564 0
M  V30 2166 H 200.721 -2.98211 -0.920681 0
M  V30 2167 N 201.022 0.148545 -1.56898 0
M  V30 2168 C 202.247 0.880385 -1.87787 0
M  V30 2169 C 202.672 1.74018 -0.714093 0
M  V30 2170 O 202.03 1.78153 0.336343 0
M  V30 2171 C 202.078 1.71422 -3.17249 0
M  V30 2172 O 201.182 2.8183 -3.01074 0
M  V30 2173 H 200.523 0.245301 -0.617028 0
M  V30 2174 H 203.053 0.139826 -2.04122 0
M  V30 2175 H 203.063 2.10954 -3.49231 0
M  V30 2176 H 201.738 1.08284 -4.01556 0
M  V30 2177 H 200.315 2.45715 -2.80497 0
M  V30 2178 N 202.5 1.5196 0.417844 0
M  V30 2179 C 203.725 1.69717 1.1921 0
M  V30 2180 C 204.15 0.402148 1.83751 0
M  V30 2181 O 203.508 -0.639593 1.69643 0
M  V30 2182 C 203.556 2.82794 2.2374 0
M  V30 2183 O 202.66 2.47756 3.29683 0
M  V30 2184 H 202.001 0.565263 0.348387 0
M  V30 2185 H 204.531 1.98621 0.490985 0
M  V30 2186 H 204.541 3.07452 2.68212 0
M  V30 2187 H 203.216 3.76756 1.76146 0
M  V30 2188 H 201.793 2.33739 2.90552 0
M  V30 2189 N 203.978 -0.674533 1.42435 0
M  V30 2190 C 205.227 -1.43034 1.42212 0
M  V30 2191 C 205.54 -1.95555 0.0420788 0
M  V30 2192 O 206.746 -2.71374 -0.0827558 0
M  V30 2193 C 205.202 -2.58748 2.50155 0
M  V30 2194 C 204.81 -2.12925 3.94166 0
M  V30 2195 C 206.554 -3.36257 2.59098 0
M  V30 2196 C 204.461 -3.25723 4.93618 0
M  V30 2197 H 203.391 -0.537345 0.528939 0
M  V30 2198 H 206.042 -0.73024 1.68344 0
M  V30 2199 H 204.424 -3.31128 2.17188 0
M  V30 2200 H 205.598 -1.47697 4.36488 0
M  V30 2201 H 203.913 -1.48354 3.89076 0
M  V30 2202 H 206.51 -4.20264 3.30578 0
M  V30 2203 H 206.853 -3.82866 1.63461 0
M  V30 2204 H 207.386 -2.70947 2.9126 0
M  V30 2205 H 204.125 -2.84105 5.90732 0
M  V30 2206 H 203.645 -3.89732 4.55926 0
M  V30 2207 H 205.324 -3.91186 5.15347 0
M  V30 2208 N 205.456 -1.28612 -0.910864 0
M  V30 2209 C 206.704 -1.15705 -1.65701 0
M  V30 2210 C 207.025 0.29416 -1.92769 0
M  V30 2211 O 206.295 1.20331 -1.54588 0
M  V30 2212 H 204.875 -0.425216 -0.614167 0
M  V30 2213 H 207.537 -1.61381 -1.0928 0
M  V30 2214 H 206.633 -1.6988 -2.61815 0
M  V30 2215 N 206.934 1.1197 -1.10907 0
M  V30 2216 C 208.162 1.87402 -0.876824 0
M  V30 2217 C 208.577 1.79894 0.573025 0
M  V30 2218 O 207.934 1.17629 1.39534 0
M  V30 2219 C 207.985 3.36428 -1.32282 0
M  V30 2220 O 207.706 3.43765 -2.71582 0
M  V30 2221 C 209.207 4.28783 -1.12518 0
M  V30 2222 H 206.427 0.592793 -0.314384 0
M  V30 2223 H 208.971 1.41649 -1.47499 0
M  V30 2224 H 207.126 3.79706 -0.768229 0
M  V30 2225 H 207.54 4.3652 -2.90776 0
M  V30 2226 H 209.014 5.31613 -1.48633 0
M  V30 2227 H 209.491 4.39153 -0.0642394 0
M  V30 2228 H 210.097 3.91291 -1.66648 0
M  V30 2229 N 208.412 0.89855 1.29475 0
M  V30 2230 C 209.823 0.572537 1.77705 0
M  V30 2231 C 210.174 -0.911778 1.73727 0
M  V30 2232 O 209.299 -1.71288 1.32247 0
M  V30 2233 C 209.894 1.03252 3.22683 0
M  V30 2234 C 208.453 0.757687 3.68695 0
M  V30 2235 C 207.6 1.20787 2.49612 0
M  V30 2236 H 210.551 1.08139 1.16153 0
M  V30 2237 H 210.572 0.367307 3.78723 0
M  V30 2238 H 210.084 2.11285 3.25546 0
M  V30 2239 H 208.185 -0.310079 3.71308 0
M  V30 2240 H 208.298 1.35476 4.59547 0
M  V30 2241 H 206.662 0.626888 2.46865 0
M  V30 2242 H 207.445 2.29622 2.55203 0
M  V30 2243 N 209.89 -1.43072 0.660911 0
M  V30 2244 C 211.301 -1.84932 0.256348 0
M  V30 2245 C 211.652 -1.55325 -1.19868 0
M  V30 2246 O 210.777 -1.00607 -1.91591 0
M  V30 2247 C 211.372 -3.35684 0.458475 0
M  V30 2248 C 209.931 -3.76245 0.108161 0
M  V30 2249 C 209.078 -2.66749 0.757641 0
M  V30 2250 H 212.029 -1.33116 0.864051 0
M  V30 2251 H 212.05 -3.79365 -0.293683 0
M  V30 2252 H 211.562 -3.572 1.51755 0
M  V30 2253 H 209.663 -3.60338 -0.948014 0
M  V30 2254 H 209.776 -4.76058 0.538992 0
M  V30 2255 H 208.14 -2.53989 0.190185 0
M  V30 2256 H 208.923 -2.91092 1.81989 0
M  V30 2257 N 211.368 -0.403325 -1.52352 0
M  V30 2258 C 212.278 0.432009 -2.30588 0
M  V30 2259 C 213.294 1.05884 -1.38075 0
M  V30 2260 O 214.47 1.06161 -1.71148 0
M  V30 2261 C 211.535 1.53669 -3.10784 0
M  V30 2262 C 210.596 0.933525 -4.19027 0
M  V30 2263 C 209.829 1.98557 -4.9539 0
M  V30 2264 O 210.052 3.20283 -4.71991 0
M  V30 2265 O 208.986 1.59504 -5.80381 0
M  V30 2266 H 212.812 -0.205739 -3.03002 0
M  V30 2267 H 210.397 -0.166675 -1.48467 0
M  V30 2268 H 212.279 2.17814 -3.60742 0
M  V30 2269 H 210.954 2.15915 -2.41169 0
M  V30 2270 H 209.861 0.254954 -3.7323 0
M  V30 2271 H 211.194 0.35508 -4.90918 0
M  V30 2272 N 212.846 1.57033 -0.133567 0
M  V30 2273 C 214.094 1.953 0.519848 0
M  V30 2274 C 214.415 1.01866 1.66278 0
M  V30 2275 O 213.685 0.0776513 1.95746 0
M  V30 2276 H 212.265 0.721091 0.195032 0
M  V30 2277 H 214.927 1.93809 -0.205921 0
M  V30 2278 H 214.023 2.98695 0.904854 0
M  V30 2279 N 214.325 -0.140222 1.56975 0
M  V30 2280 C 215.574 -0.850152 1.82908 0
M  V30 2281 C 215.887 -1.82028 0.715892 0
M  V30 2282 O 217.093 -2.57485 0.861016 0
M  V30 2283 C 215.549 -1.5625 3.24213 0
M  V30 2284 C 215.157 -0.63443 4.43485 0
M  V30 2285 C 216.901 -2.25881 3.59413 0
M  V30 2286 C 214.808 -1.34879 5.75814 0
M  V30 2287 H 213.738 -0.321221 0.682153 0
M  V30 2288 H 216.389 -0.102874 1.83211 0
M  V30 2289 H 214.771 -2.35565 3.18316 0
M  V30 2290 H 215.945 0.12398 4.60633 0
M  V30 2291 H 214.26 -0.0461836 4.16374 0
M  V30 2292 H 216.857 -2.79978 4.5554 0
M  V30 2293 H 217.2 -3.02693 2.85802 0
M  V30 2294 H 217.733 -1.53477 3.67001 0
M  V30 2295 H 214.472 -0.622385 6.52539 0
M  V30 2296 H 213.992 -2.07974 5.6259 0
M  V30 2297 H 215.671 -1.88784 6.18845 0
M  V30 2298 N 215.803 -1.52179 -0.40978 0
M  V30 2299 C 217.031 -1.70054 -1.17853 0
M  V30 2300 C 217.446 -0.409735 -1.843 0
M  V30 2301 O 216.803 0.614183 -1.71855 0
M  V30 2302 C 216.854 -2.83568 -2.24213 0
M  V30 2303 O 216.575 -4.0765 -1.60478 0
M  V30 2304 C 218.076 -3.12947 -3.13973 0
M  V30 2305 H 215.296 -0.569917 -0.354169 0
M  V30 2306 H 217.84 -1.98734 -0.482198 0
M  V30 2307 H 215.995 -2.57409 -2.89516 0
M  V30 2308 H 216.409 -4.70899 -2.30986 0
M  V30 2309 H 217.883 -3.95889 -3.84677 0
M  V30 2310 H 218.36 -2.26472 -3.76307 0
M  V30 2311 H 218.966 -3.40868 -2.5434 0
M  V30 2312 N 217.281 0.66697 -1.42791 0
M  V30 2313 C 218.244 1.76211 -1.46568 0
M  V30 2314 C 219.244 1.56896 -0.352196 0
M  V30 2315 O 220.434 1.63044 -0.613364 0
M  V30 2316 C 217.566 3.14935 -1.30494 0
M  V30 2317 H 218.759 1.74247 -2.44086 0
M  V30 2318 H 216.312 0.877342 -1.29354 0
M  V30 2319 H 217.047 3.2252 -0.339301 0
M  V30 2320 H 216.832 3.30359 -2.11199 0
M  V30 2321 H 218.322 3.94821 -1.36038 0
M  V30 2322 N 218.759 1.29093 0.90403 0
M  V30 2323 C 219.669 1.15727 2.0407 0
M  V30 2324 C 220.685 0.0815308 1.73809 0
M  V30 2325 O 221.861 0.292749 1.99261 0
M  V30 2326 C 218.926 0.830424 3.36608 0
M  V30 2327 C 217.987 1.98955 3.80415 0
M  V30 2328 C 217.22 1.6782 5.06628 0
M  V30 2329 O 217.443 0.597105 5.67266 0
M  V30 2330 O 216.377 2.52486 5.46383 0
M  V30 2331 H 220.203 2.11171 2.18267 0
M  V30 2332 H 217.788 1.08504 1.027 0
M  V30 2333 H 219.67 0.662521 4.16159 0
M  V30 2334 H 218.345 -0.0942678 3.23563 0
M  V30 2335 H 217.252 2.21267 3.01648 0
M  V30 2336 H 218.585 2.89529 3.98037 0
M  V30 2337 N 220.237 -1.11381 1.11499 0
M  V30 2338 C 221.483 -1.83403 0.865512 0
M  V30 2339 C 221.816 -1.84459 -0.607329 0
M  V30 2340 O 221.091 -1.29811 -1.44842 0
M  V30 2341 C 221.374 -3.30552 1.42855 0
M  V30 2342 C 221.227 -3.37886 2.96906 0
M  V30 2343 C 222.546 -4.26643 1.08 0
M  V30 2344 H 219.665 -0.665879 0.31587 0
M  V30 2345 H 222.307 -1.30601 1.37998 0
M  V30 2346 H 220.457 -3.75648 0.990985 0
M  V30 2347 H 222.129 -3.01343 3.49271 0
M  V30 2348 H 220.372 -2.78088 3.32941 0
M  V30 2349 H 221.043 -4.41458 3.31389 0
M  V30 2350 H 223.519 -3.89729 1.45775 0
M  V30 2351 H 222.395 -5.27986 1.50072 0
M  V30 2352 H 222.656 -4.42099 -0.00915037 0
M  V30 2353 N 221.715 -0.905404 -1.28997 0
M  V30 2354 C 222.645 -0.404212 -2.29975 0
M  V30 2355 C 223.626 0.523784 -1.61835 0
M  V30 2356 O 224.811 0.433298 -1.89304 0
M  V30 2357 C 221.941 0.364042 -3.45387 0
M  V30 2358 C 220.895 -0.474048 -4.25367 0
M  V30 2359 C 220.221 0.422045 -5.33032 0
M  V30 2360 C 221.521 -1.72696 -4.92923 0
M  V30 2361 H 223.215 -1.24807 -2.72146 0
M  V30 2362 H 220.761 -0.601585 -1.30832 0
M  V30 2363 H 222.714 0.725447 -4.15109 0
M  V30 2364 H 221.438 1.24174 -3.02074 0
M  V30 2365 H 220.097 -0.81786 -3.57361 0
M  V30 2366 H 219.745 1.29804 -4.85963 0
M  V30 2367 H 219.445 -0.135057 -5.87445 0
M  V30 2368 H 220.969 0.779517 -6.05604 0
M  V30 2369 H 222.383 -1.43495 -5.55051 0
M  V30 2370 H 220.78 -2.22582 -5.57295 0
M  V30 2371 H 221.85 -2.45964 -4.17887 0
M  V30 2372 N 223.193 1.4272 -0.668489 0
M  V30 2373 C 224.439 2.01923 -0.188419 0
M  V30 2374 C 224.772 1.52704 1.19979 0
M  V30 2375 O 224.047 0.726566 1.8042 0
M  V30 2376 C 224.33 3.59451 -0.216085 0
M  V30 2377 C 224.183 4.18864 -1.6393 0
M  V30 2378 C 225.502 4.37903 0.439179 0
M  V30 2379 H 222.621 0.733674 -0.0699412 0
M  V30 2380 H 225.263 1.69822 -0.852076 0
M  V30 2381 H 223.413 3.86929 0.349012 0
M  V30 2382 H 225.085 4.02362 -2.25616 0
M  V30 2383 H 223.328 3.74933 -2.18193 0
M  V30 2384 H 223.999 5.27987 -1.61039 0
M  V30 2385 H 226.475 4.16079 -0.0417878 0
M  V30 2386 H 225.351 5.47519 0.389157 0
M  V30 2387 H 225.612 4.15303 1.51577 0
M  V30 2388 N 224.671 0.411399 1.52136 0
M  V30 2389 C 225.917 -0.163888 2.02137 0
M  V30 2390 C 226.25 -1.44597 1.29636 0
M  V30 2391 O 225.525 -1.90272 0.403353 0
M  V30 2392 C 225.808 -0.40927 3.57767 0
M  V30 2393 C 225.661 0.889643 4.40914 0
M  V30 2394 C 226.98 -1.19042 4.23694 0
M  V30 2395 H 224.099 -0.0580896 0.734707 0
M  V30 2396 H 226.741 0.54531 1.82007 0
M  V30 2397 H 224.891 -1.0134 3.7505 0
M  V30 2398 H 226.563 1.52575 4.35337 0
M  V30 2399 H 224.806 1.50011 4.07037 0
M  V30 2400 H 225.477 0.672314 5.4789 0
M  V30 2401 H 227.953 -0.678942 4.10524 0
M  V30 2402 H 226.829 -1.33086 5.32522 0
M  V30 2403 H 227.09 -2.21166 3.82803 0
M  V30 2404 N 226.149 -1.5696 0.141893 0
M  V30 2405 C 227.377 -2.00322 -0.517579 0
M  V30 2406 C 227.792 -1.02193 -1.58752 0
M  V30 2407 O 227.149 -0.0181619 -1.82491 0
M  V30 2408 C 227.2 -3.43618 -1.12289 0
M  V30 2409 O 226.921 -4.37995 -0.0956929 0
M  V30 2410 C 228.422 -4.02231 -1.86347 0
M  V30 2411 H 225.642 -0.657243 -0.135177 0
M  V30 2412 H 228.186 -2.03146 0.234973 0
M  V30 2413 H 226.341 -3.41662 -1.82609 0
M  V30 2414 H 226.755 -5.21729 -0.538469 0
M  V30 2415 H 228.229 -5.04509 -2.23997 0
M  V30 2416 H 228.706 -3.42655 -2.74744 0
M  V30 2417 H 229.312 -4.07802 -1.20737 0
M  V30 2418 N 227.627 0.131896 -1.57047 0
M  V30 2419 C 228.852 0.860418 -1.8871 0
M  V30 2420 C 229.277 1.73251 -0.73251 0
M  V30 2421 O 228.635 1.785 0.317429 0
M  V30 2422 C 228.683 1.68047 -3.19049 0
M  V30 2423 O 227.787 2.7862 -3.04047 0
M  V30 2424 H 227.128 0.238743 -0.619595 0
M  V30 2425 H 229.658 0.118169 -2.04258 0
M  V30 2426 H 229.668 2.07238 -3.51449 0
M  V30 2427 H 228.343 1.04018 -4.02682 0
M  V30 2428 H 226.92 2.42726 -2.83088 0
M  V30 2429 N 229.106 1.52395 0.401703 0
M  V30 2430 C 230.353 1.66817 1.14796 0
M  V30 2431 C 230.681 0.401772 1.90305 0
M  V30 2432 O 229.936 -0.615487 1.85769 0
M  V30 2433 C 230.235 2.84578 2.16217 0
M  V30 2434 C 229.901 4.22513 1.5746 0
M  V30 2435 C 228.563 4.60029 1.41161 0
M  V30 2436 C 230.915 5.0844 1.14622 0
M  V30 2437 C 228.243 5.81144 0.80552 0
M  V30 2438 C 230.595 6.30167 0.55428 0
M  V30 2439 C 229.259 6.66426 0.378482 0
M  V30 2440 H 228.529 0.610428 0.420069 0
M  V30 2441 H 231.176 1.86512 0.434212 0
M  V30 2442 H 229.481 2.59248 2.93764 0
M  V30 2443 H 231.178 2.92933 2.73845 0
M  V30 2444 H 227.768 3.92953 1.71132 0
M  V30 2445 H 231.952 4.80034 1.26021 0
M  V30 2446 H 227.208 6.07855 0.657399 0
M  V30 2447 H 231.382 6.96071 0.213983 0
M  V30 2448 H 229.009 7.60143 -0.0932606 0
M  V30 2449 N 230.584 -0.659388 1.43143 0
M  V30 2450 C 231.861 -1.41627 1.34912 0
M  V30 2451 C 232.241 -2.11099 -0.00607785 0
M  V30 2452 O 231.589 -2.04353 -1.02236 0
M  V30 2453 C 231.799 -2.40604 2.52805 0
M  V30 2454 C 233.147 -3.04789 2.95616 0
M  V30 2455 O 234.171 -2.50932 2.52807 0
M  V30 2456 O 233.03 -4.02421 3.69756 0
M  V30 2457 H 230.124 -0.63246 0.532844 0
M  V30 2458 H 232.67 -0.686814 1.5518 0
M  V30 2459 H 231.442 -1.88174 3.43083 0
M  V30 2460 H 231.065 -3.21009 2.34604 0
M  V30 2461 N 232.062 -1.29571 -0.897171 0
M  V30 2462 C 232.972 -1.16808 -2.03453 0
M  V30 2463 C 233.988 -0.0907471 -1.73763 0
M  V30 2464 O 235.164 -0.303312 -1.99103 0
M  V30 2465 C 232.229 -0.848264 -3.36163 0
M  V30 2466 C 231.29 -2.0097 -3.79354 0
M  V30 2467 C 230.523 -1.70505 -5.05731 0
M  V30 2468 O 230.746 -0.62718 -5.66941 0
M  V30 2469 O 229.68 -2.5538 -5.45036 0
M  V30 2470 H 233.506 -2.12325 -2.17144 0
M  V30 2471 H 231.091 -1.09047 -1.02123 0
M  V30 2472 H 232.973 -0.684581 -4.15802 0
M  V30 2473 H 231.648 0.0771071 -3.23608 0
M  V30 2474 H 230.555 -2.22863 -3.00471 0
M  V30 2475 H 231.888 -2.91636 -3.96496 0
M  V30 2476 N 233.54 1.10788 -1.12088 0
M  V30 2477 C 234.47 2.19083 -0.807755 0
M  V30 2478 C 235.451 1.6858 0.226859 0
M  V30 2479 O 236.636 1.93997 0.0888475 0
M  V30 2480 C 233.766 3.46344 -0.257576 0
M  V30 2481 C 232.72 4.101 -1.22483 0
M  V30 2482 C 232.046 5.32016 -0.535052 0
M  V30 2483 C 233.346 4.54236 -2.57811 0
M  V30 2484 H 235.04 2.45534 -1.71328 0
M  V30 2485 H 232.586 1.1801 -0.825205 0
M  V30 2486 H 234.539 4.21392 -0.0262679 0
M  V30 2487 H 233.263 3.19373 0.683278 0
M  V30 2488 H 231.922 3.37054 -1.44189 0
M  V30 2489 H 231.57 5.01319 0.410827 0
M  V30 2490 H 231.27 5.75625 -1.18024 0
M  V30 2491 H 232.794 6.09799 -0.312695 0
M  V30 2492 H 234.208 5.20575 -2.40155 0
M  V30 2493 H 232.605 5.08682 -3.18375 0
M  V30 2494 H 233.675 3.6734 -3.16528 0
M  V30 2495 N 235.018 0.912232 1.28515 0
M  V30 2496 C 235.95 0.35676 2.26406 0
M  V30 2497 C 236.963 -0.503933 1.54804 0
M  V30 2498 O 238.152 -0.319059 1.75625 0
M  V30 2499 C 235.252 -0.508825 3.35058 0
M  V30 2500 C 234.425 0.329007 4.36161 0
M  V30 2501 C 233.484 -0.471422 5.24084 0
M  V30 2502 O 232.51 0.115482 5.69083 0
M  V30 2503 N 233.712 -1.77479 5.52704 0
M  V30 2504 H 236.477 1.19818 2.74707 0
M  V30 2505 H 234.038 0.778022 1.4198 0
M  V30 2506 H 236.03 -1.051 3.90815 0
M  V30 2507 H 234.6 -1.25095 2.86478 0
M  V30 2508 H 233.82 1.05256 3.79888 0
M  V30 2509 H 235.108 0.90234 5.00735 0
M  V30 2510 H 234.506 -2.27417 5.17975 0
M  V30 2511 H 233.063 -2.26382 6.11224 0
M  V30 2512 N 236.496 -1.42363 0.676048 0
M  V30 2513 C 237.912 -1.55811 0.345718 0
M  V30 2514 C 238.112 -1.65544 -1.14879 0
M  V30 2515 O 237.168 -1.62306 -1.93424 0
M  V30 2516 C 238.481 -2.80746 1.07713 0
M  V30 2517 C 240.029 -2.9452 1.05958 0
M  V30 2518 C 240.504 -4.22318 1.77233 0
M  V30 2519 N 241.995 -4.29233 1.74108 0
M  V30 2520 C 242.73 -5.26935 2.26113 0
M  V30 2521 N 242.226 -6.30783 2.86505 0
M  V30 2522 N 244.019 -5.18741 2.1648 0
M  V30 2523 H 236.17 -1.34289 1.6456 0
M  V30 2524 H 238.433 -0.646506 0.69335 0
M  V30 2525 H 238.139 -2.79696 2.13221 0
M  V30 2526 H 238.013 -3.71676 0.64316 0
M  V30 2527 H 240.4 -2.95097 0.0128255 0
M  V30 2528 H 240.481 -2.04817 1.53244 0
M  V30 2529 H 240.125 -4.22502 2.81877 0
M  V30 2530 H 240.055 -5.10958 1.27396 0
M  V30 2531 H 242.546 -3.54814 1.30059 0
M  V30 2532 H 242.859 -7.01691 3.23805 0
M  V30 2533 H 241.204 -6.31341 2.90575 0
M  V30 2534 H 244.395 -4.36533 1.68987 0
M  V30 2535 H 244.568 -5.94721 2.57316 0
M  V30 2536 N 237.974 -0.419461 -1.51915 0
M  V30 2537 C 239.39 -0.0708431 -1.59443 0
M  V30 2538 C 239.59 1.41796 -1.43164 0
M  V30 2539 O 238.646 2.18596 -1.26381 0
M  V30 2540 C 239.959 -0.574991 -2.95151 0
M  V30 2541 C 241.507 -0.533867 -3.08413 0
M  V30 2542 C 241.982 -1.01469 -4.46618 0
M  V30 2543 N 243.473 -0.971939 -4.52888 0
M  V30 2544 C 244.208 -1.31505 -5.58116 0
M  V30 2545 N 243.704 -1.73014 -6.70849 0
M  V30 2546 N 245.497 -1.23436 -5.48379 0
M  V30 2547 H 237.648 -1.38836 -1.60743 0
M  V30 2548 H 239.911 -0.570998 -0.756747 0
M  V30 2549 H 239.617 -1.61597 -3.12377 0
M  V30 2550 H 239.491 0.00979777 -3.77199 0
M  V30 2551 H 241.878 0.498086 -2.90866 0
M  V30 2552 H 241.959 -1.15484 -2.28248 0
M  V30 2553 H 241.603 -2.04502 -4.6491 0
M  V30 2554 H 241.533 -0.370433 -5.25295 0
M  V30 2555 H 244.024 -0.666893 -3.71969 0
M  V30 2556 H 244.337 -1.97479 -7.47143 0
M  V30 2557 H 242.682 -1.76926 -6.72103 0
M  V30 2558 H 245.873 -0.908869 -4.59192 0
M  V30 2559 H 246.046 -1.50506 -6.30279 0
M  V30 2560 N 239.452 1.56882 -0.150215 0
M  V30 2561 C 240.415 2.1573 0.774157 0
M  V30 2562 C 241.415 1.0999 1.17298 0
M  V30 2563 O 242.605 1.35613 1.09338 0
M  V30 2564 C 239.737 2.72302 2.05096 0
M  V30 2565 H 240.93 2.98752 0.262201 0
M  V30 2566 H 238.483 1.55985 0.099248 0
M  V30 2567 H 239.218 1.92956 2.6065 0
M  V30 2568 H 239.003 3.49665 1.77416 0
M  V30 2569 H 240.493 3.17632 2.71109 0
M  V30 2570 N 240.93 -0.123565 1.57115 0
M  V30 2571 C 242.155 -0.850398 1.89164 0
M  V30 2572 C 242.58 -1.7286 0.741688 0
M  V30 2573 O 241.938 -1.78665 -0.307958 0
M  V30 2574 C 241.986 -1.66353 3.19936 0
M  V30 2575 O 241.09 -2.77004 3.0552 0
M  V30 2576 H 240.431 -0.235454 0.620852 0
M  V30 2577 H 242.961 -0.107335 2.04318 0
M  V30 2578 H 242.971 -2.05372 3.52543 0
M  V30 2579 H 241.646 -1.01881 4.03228 0
M  V30 2580 H 240.223 -2.41221 2.84371 0
M  V30 2581 N 242.408 -1.52605 -0.393616 0
M  V30 2582 C 243.318 -1.79971 -1.50492 0
M  V30 2583 C 244.334 -0.686181 -1.59899 0
M  V30 2584 O 245.51 -0.973274 -1.76322 0
M  V30 2585 C 242.575 -1.95867 -2.86072 0
M  V30 2586 C 241.636 -3.19781 -2.86424 0
M  V30 2587 C 240.869 -3.34909 -4.15538 0
M  V30 2588 O 241.092 -2.54948 -5.10253 0
M  V30 2589 O 240.026 -4.28141 -4.23059 0
M  V30 2590 H 243.852 -2.74328 -1.30299 0
M  V30 2591 H 241.437 -1.3764 -0.581005 0
M  V30 2592 H 243.319 -2.08056 -3.66457 0
M  V30 2593 H 241.994 -1.04699 -3.063 0
M  V30 2594 H 240.901 -3.13038 -2.04837 0
M  V30 2595 H 242.234 -4.1078 -2.71147 0
M  V30 2596 N 243.887 0.651787 -1.4349 0
M  V30 2597 C 244.85 1.74647 -1.48429 0
M  V30 2598 C 245.85 1.56513 -0.368817 0
M  V30 2599 O 247.04 1.62385 -0.630623 0
M  V30 2600 C 244.172 3.13533 -1.33827 0
M  V30 2601 H 245.365 1.71649 -2.4592 0
M  V30 2602 H 242.918 0.863573 -1.30277 0
M  V30 2603 H 243.653 3.22142 -0.37349 0
M  V30 2604 H 243.438 3.28101 -2.14691 0
M  V30 2605 H 244.928 3.93356 -1.40218 0
M  V30 2606 N 245.365 1.30045 0.890287 0
M  V30 2607 C 246.781 1.08261 1.17268 0
M  V30 2608 C 246.981 -0.160063 2.00863 0
M  V30 2609 O 246.037 -0.855181 2.37577 0
M  V30 2610 C 247.35 2.34323 1.8845 0
M  V30 2611 C 248.898 2.39735 2.01237 0
M  V30 2612 C 249.373 3.65625 2.7583 0
M  V30 2613 N 250.864 3.66402 2.83379 0
M  V30 2614 C 251.599 4.60498 3.41657 0
M  V30 2615 N 251.095 5.64933 4.01026 0
M  V30 2616 N 252.888 4.48051 3.39421 0
M  V30 2617 H 245.039 2.09777 0.332762 0
M  V30 2618 H 247.302 0.92446 0.209948 0
M  V30 2619 H 247.008 3.2498 1.34465 0
M  V30 2620 H 246.882 2.4256 2.88867 0
M  V30 2621 H 249.269 1.4956 2.54393 0
M  V30 2622 H 249.35 2.35476 0.999232 0
M  V30 2623 H 248.994 4.56156 2.23347 0
M  V30 2624 H 248.924 3.67144 3.77509 0
M  V30 2625 H 251.415 2.90896 2.41222 0
M  V30 2626 H 251.728 6.32841 4.43545 0
M  V30 2627 H 250.073 5.68732 3.99461 0
M  V30 2628 H 253.264 3.65649 2.92264 0
M  V30 2629 H 253.437 5.21565 3.84544 0
M  V30 2630 N 246.843 -1.10192 1.12674 0
M  V30 2631 C 248.091 -1.81845 0.881861 0
M  V30 2632 C 248.412 -1.85737 -0.593867 0
M  V30 2633 O 247.682 -1.33724 -1.4316 0
M  V30 2634 H 246.262 -0.673432 0.323261 0
M  V30 2635 H 248.924 -1.33316 1.42172 0
M  V30 2636 H 248.02 -2.85288 1.2656 0
M  V30 2637 N 248.321 -0.919034 -1.28029 0
M  V30 2638 C 249.268 -0.410005 -2.27129 0
M  V30 2639 C 250.238 0.518405 -1.57803 0
M  V30 2640 O 251.423 0.439451 -1.8567 0
M  V30 2641 C 248.563 0.339054 -3.4343 0
M  V30 2642 C 247.676 -0.622468 -4.27492 0
M  V30 2643 C 246.811 0.145567 -5.31001 0
M  V30 2644 C 245.85 -0.809226 -6.06727 0
M  V30 2645 N 244.987 -0.0743728 -7.02061 0
M  V30 2646 H 249.827 -1.26011 -2.70047 0
M  V30 2647 H 247.364 -0.632663 -1.328 0
M  V30 2648 H 249.322 0.789586 -4.0966 0
M  V30 2649 H 247.952 1.15346 -3.01488 0
M  V30 2650 H 247.004 -1.19153 -3.61257 0
M  V30 2651 H 248.316 -1.35252 -4.80113 0
M  V30 2652 H 247.47 0.656417 -6.03139 0
M  V30 2653 H 246.209 0.908643 -4.79161 0
M  V30 2654 H 245.214 -1.3314 -5.33436 0
M  V30 2655 H 246.439 -1.57194 -6.60656 0
M  V30 2656 H 244.385 0.670616 -6.52563 0
M  V30 2657 H 244.302 -0.744157 -7.52329 0
M  V30 2658 H 245.57 0.416109 -7.78389 0
M  V30 2659 N 249.799 1.42003 -0.683588 0
M  V30 2660 C 251.048 2.00638 -0.206681 0
M  V30 2661 C 251.361 1.5472 1.19671 0
M  V30 2662 O 252.567 2.05833 1.77045 0
M  V30 2663 C 251.023 3.58487 -0.318632 0
M  V30 2664 C 250.631 4.1339 -1.72663 0
M  V30 2665 C 252.375 4.24384 0.0991141 0
M  V30 2666 C 250.282 5.63633 -1.79087 0
M  V30 2667 H 249.212 0.750408 -0.0735107 0
M  V30 2668 H 251.863 1.62624 -0.850048 0
M  V30 2669 H 250.245 3.94047 0.392781 0
M  V30 2670 H 251.419 3.89273 -2.46583 0
M  V30 2671 H 249.734 3.59976 -2.09299 0
M  V30 2672 H 252.331 5.34652 0.0713833 0
M  V30 2673 H 252.674 4.00505 1.13586 0
M  V30 2674 H 253.207 3.93816 -0.561599 0
M  V30 2675 H 249.946 5.92323 -2.80774 0
M  V30 2676 H 249.466 5.89714 -1.09535 0
M  V30 2677 H 251.145 6.28201 -1.5483 0
M  V30 2678 N 251.277 0.427512 1.51691 0
M  V30 2679 C 252.523 -0.142439 2.02299 0
M  V30 2680 C 252.856 -1.43214 1.31162 0
M  V30 2681 O 252.131 -1.89833 0.423511 0
M  V30 2682 C 252.414 -0.371301 3.58181 0
M  V30 2683 C 252.267 0.936358 4.39946 0
M  V30 2684 C 253.586 -1.14542 4.24933 0
M  V30 2685 H 250.705 -0.0502937 0.735282 0
M  V30 2686 H 253.347 0.564584 1.81418 0
M  V30 2687 H 251.497 -0.973559 3.76104 0
M  V30 2688 H 253.169 1.57184 4.33694 0
M  V30 2689 H 251.412 1.5432 4.05423 0
M  V30 2690 H 252.083 0.730388 5.47147 0
M  V30 2691 H 254.559 -0.635362 4.11221 0
M  V30 2692 H 253.435 -1.27431 5.33903 0
M  V30 2693 H 253.696 -2.17093 3.85127 0
M  V30 2694 N 252.755 -1.56801 0.158532 0
M  V30 2695 C 254.001 -1.96781 -0.490405 0
M  V30 2696 C 254.334 -1.04397 -1.63753 0
M  V30 2697 O 253.609 -0.0885805 -1.94298 0
M  V30 2698 C 253.892 -3.4635 -0.985594 0
M  V30 2699 C 253.745 -4.49512 0.160824 0
M  V30 2700 C 255.064 -3.98697 -1.86355 0
M  V30 2701 H 252.183 -0.715482 -0.176788 0
M  V30 2702 H 254.825 -1.88451 0.242088 0
M  V30 2703 H 252.975 -3.53579 -1.60978 0
M  V30 2704 H 254.647 -4.54353 0.797537 0
M  V30 2705 H 252.89 -4.26013 0.818256 0
M  V30 2706 H 253.561 -5.51531 -0.227569 0
M  V30 2707 H 256.037 -3.94019 -1.33746 0
M  V30 2708 H 254.913 -5.03792 -2.17909 0
M  V30 2709 H 255.174 -3.41744 -2.8047 0
M  V30 2710 N 254.233 0.115231 -1.57178 0
M  V30 2711 C 255.463 0.835224 -1.88964 0
M  V30 2712 C 255.871 1.73774 -0.74829 0
M  V30 2713 O 255.214 1.81401 0.289739 0
M  V30 2714 C 255.276 1.7178 -3.15804 0
M  V30 2715 C 254.94 0.989198 -4.46166 0
M  V30 2716 C 255.937 0.328263 -5.18863 0
M  V30 2717 C 253.622 0.969256 -4.9286 0
M  V30 2718 C 255.616 -0.342873 -6.36477 0
M  V30 2719 C 253.303 0.294324 -6.10391 0
M  V30 2720 C 254.301 -0.360582 -6.82048 0
M  V30 2721 O 253.989 -1.02474 -7.97342 0
M  V30 2722 H 253.721 0.245197 -0.629964 0
M  V30 2723 H 256.275 0.10303 -2.05141 0
M  V30 2724 H 254.505 2.49173 -2.95719 0
M  V30 2725 H 256.194 2.31255 -3.33581 0
M  V30 2726 H 256.96 0.335263 -4.8384 0
M  V30 2727 H 252.839 1.46844 -4.36987 0
M  V30 2728 H 256.383 -0.854629 -6.92345 0
M  V30 2729 H 252.28 0.285099 -6.4487 0
M  V30 2730 H 253.048 -0.929594 -8.13204 0
M  V30 2731 N 255.711 1.52812 0.385517 0
M  V30 2732 C 256.659 1.78482 1.49155 0
M  V30 2733 C 257.653 0.652914 1.56312 0
M  V30 2734 O 258.859 0.835464 1.59436 0
M  V30 2735 H 255.234 0.5648 0.496493 0
M  V30 2736 H 257.205 2.71095 1.24699 0
M  V30 2737 C 255.954 1.97378 2.86247 0
M  V30 2738 H 255.277 2.83907 2.81491 0
M  V30 2739 H 256.717 2.19327 3.62866 0
M  V30 2740 C 255.176 0.74728 3.28508 0
M  V30 2741 O 255.706 -0.0736232 4.01633 0
M  V30 2742 N 253.912 0.576396 2.84826 0
M  V30 2743 H 253.459 1.24555 2.25486 0
M  V30 2744 H 253.417 -0.24288 3.1346 0
M  V30 2745 N 257.189 -0.644168 1.43834 0
M  V30 2746 C 258.121 -1.76955 1.45669 0
M  V30 2747 C 259.134 -1.58956 0.351666 0
M  V30 2748 O 260.323 -1.6751 0.616644 0
M  V30 2749 C 257.423 -3.14507 1.26248 0
M  V30 2750 C 256.596 -3.59083 2.49757 0
M  V30 2751 C 255.655 -4.75467 2.25427 0
M  V30 2752 O 254.681 -4.84444 2.98836 0
M  V30 2753 N 255.883 -5.66289 1.27661 0
M  V30 2754 H 258.648 -1.75856 2.42682 0
M  V30 2755 H 256.209 -0.828312 1.39106 0
M  V30 2756 H 258.201 -3.90067 1.0784 0
M  V30 2757 H 256.771 -3.10325 0.376478 0
M  V30 2758 H 255.991 -2.7387 2.8353 0
M  V30 2759 H 257.279 -3.85613 3.31934 0
M  V30 2760 H 256.677 -5.61718 0.670064 0
M  V30 2761 H 255.234 -6.41533 1.15234 0
M  V30 2762 N 258.668 -1.30515 -0.883378 0
M  V30 2763 C 260.079 -1.17509 -1.45081 0
M  V30 2764 C 260.43 0.223605 -1.94922 0
M  V30 2765 O 259.555 1.12041 -1.85137 0
M  V30 2766 C 260.15 -2.12715 -2.63701 0
M  V30 2767 C 258.709 -2.03682 -3.16529 0
M  V30 2768 C 257.856 -2.02706 -1.89224 0
M  V30 2769 H 260.807 -1.42762 -0.693165 0
M  V30 2770 H 260.828 -1.70891 -3.39965 0
M  V30 2771 H 260.34 -3.14505 -2.27395 0
M  V30 2772 H 258.441 -1.05039 -3.57488 0
M  V30 2773 H 258.554 -2.92146 -3.7972 0
M  V30 2774 H 256.918 -1.4753 -2.07622 0
M  V30 2775 H 257.701 -3.06229 -1.55174 0
M  V30 2776 N 260.146 1.09593 -1.13257 0
M  V30 2777 C 261.376 1.85231 -0.915049 0
M  V30 2778 C 261.784 1.81345 0.539498 0
M  V30 2779 O 261.127 1.20664 1.38513 0
M  V30 2780 C 261.189 3.34275 -1.3229 0
M  V30 2781 C 260.853 3.6191 -2.79052 0
M  V30 2782 C 261.85 3.57777 -3.77216 0
M  V30 2783 C 259.535 3.90309 -3.16171 0
M  V30 2784 C 261.529 3.81652 -5.1051 0
M  V30 2785 C 259.216 4.13839 -4.49644 0
M  V30 2786 C 260.214 4.09502 -5.46623 0
M  V30 2787 O 259.902 4.32426 -6.77689 0
M  V30 2788 H 259.634 0.591997 -0.326367 0
M  V30 2789 H 262.188 1.394 -1.50854 0
M  V30 2790 H 260.418 3.80805 -0.672667 0
M  V30 2791 H 262.107 3.9132 -1.07812 0
M  V30 2792 H 262.873 3.35865 -3.49885 0
M  V30 2793 H 258.752 3.92811 -2.41289 0
M  V30 2794 H 262.296 3.78182 -5.86195 0
M  V30 2795 H 258.193 4.35232 -4.767 0
M  V30 2796 H 258.961 4.49896 -6.83766 0
M  V30 2797 N 261.624 0.925811 1.2754 0
M  V30 2798 C 262.873 0.561084 1.93739 0
M  V30 2799 C 263.186 -0.901685 1.73577 0
M  V30 2800 O 264.392 -1.37511 2.34101 0
M  V30 2801 C 262.848 0.952668 3.47062 0
M  V30 2802 C 262.456 2.43599 3.75983 0
M  V30 2803 C 264.2 0.659103 4.19352 0
M  V30 2804 C 262.107 2.76707 5.22673 0
M  V30 2805 H 261.037 0.206122 0.725279 0
M  V30 2806 H 263.688 1.12637 1.44863 0
M  V30 2807 H 262.07 0.316053 3.94737 0
M  V30 2808 H 263.244 3.12035 3.39073 0
M  V30 2809 H 261.559 2.70125 3.16893 0
M  V30 2810 H 264.156 0.882985 5.27359 0
M  V30 2811 H 264.499 -0.403607 4.14339 0
M  V30 2812 H 265.032 1.25473 3.77494 0
M  V30 2813 H 261.771 3.8188 5.32774 0
M  V30 2814 H 261.291 2.12919 5.60737 0
M  V30 2815 H 262.97 2.6435 5.90532 0
M  V30 2816 N 263.102 -1.41638 0.69111 0
M  V30 2817 C 264.05 -2.32597 0.0115199 0
M  V30 2818 C 265.044 -1.5072 -0.773296 0
M  V30 2819 O 266.25 -1.66685 -0.67942 0
M  V30 2820 H 262.625 -0.751849 -0.0150746 0
M  V30 2821 H 264.596 -2.87593 0.795791 0
M  V30 2822 C 263.345 -3.35467 -0.914172 0
M  V30 2823 H 262.668 -3.9852 -0.319687 0
M  V30 2824 H 264.108 -4.01662 -1.35808 0
M  V30 2825 C 262.567 -2.69004 -2.02826 0
M  V30 2826 O 263.097 -2.53444 -3.11655 0
M  V30 2827 N 261.303 -2.2777 -1.80469 0
M  V30 2828 H 260.85 -2.40626 -0.919615 0
M  V30 2829 H 260.808 -1.83635 -2.55197 0
M  V30 2830 N 264.58 -0.43555 -1.51462 0
M  V30 2831 C 265.81 0.130053 -2.0619 0
M  V30 2832 C 266.218 1.37164 -1.30317 0
M  V30 2833 O 265.561 1.80225 -0.355598 0
M  V30 2834 C 265.623 0.519418 -3.55728 0
M  V30 2835 C 265.287 -0.615119 -4.52841 0
M  V30 2836 C 266.284 -1.48671 -4.9819 0
M  V30 2837 C 263.969 -0.795341 -4.95963 0
M  V30 2838 C 265.963 -2.52324 -5.8533 0
M  V30 2839 C 263.65 -1.83514 -5.82894 0
M  V30 2840 C 264.648 -2.69748 -6.27475 0
M  V30 2841 O 264.336 -3.71944 -7.1268 0
M  V30 2842 H 264.068 0.0121612 -0.675891 0
M  V30 2843 H 266.622 -0.6129 -1.96043 0
M  V30 2844 H 264.852 1.31505 -3.63653 0
M  V30 2845 H 266.541 1.01597 -3.92979 0
M  V30 2846 H 267.307 -1.359 -4.65571 0
M  V30 2847 H 263.186 -0.133713 -4.60806 0
M  V30 2848 H 266.73 -3.19665 -6.20048 0
M  V30 2849 H 262.627 -1.96306 -6.14926 0
M  V30 2850 H 263.395 -3.68503 -7.30854 0
M  V30 2851 N 266.058 1.56714 -0.166846 0
M  V30 2852 C 267.283 2.01557 0.488833 0
M  V30 2853 C 267.708 1.0463 1.56314 0
M  V30 2854 O 267.066 0.0251304 1.81283 0
M  V30 2855 C 267.114 3.4503 1.04818 0
M  V30 2856 O 266.218 3.51163 2.16236 0
M  V30 2857 H 265.559 0.653516 0.117526 0
M  V30 2858 H 268.089 2.02818 -0.269421 0
M  V30 2859 H 268.099 3.84243 1.37191 0
M  V30 2860 H 266.774 4.15077 0.261572 0
M  V30 2861 H 265.351 3.23807 1.84942 0
M  V30 2862 N 267.536 -0.106894 1.57237 0
M  V30 2863 C 268.952 -0.46078 1.52804 0
M  V30 2864 C 269.152 -1.81184 0.881746 0
M  V30 2865 O 268.208 -2.48102 0.469224 0
M  V30 2866 C 269.521 -0.434127 2.9755 0
M  V30 2867 C 271.069 -0.516821 3.08704 0
M  V30 2868 C 271.544 -0.520436 4.55033 0
M  V30 2869 N 273.035 -0.58153 4.59535 0
M  V30 2870 C 273.77 -0.605973 5.70189 0
M  V30 2871 N 273.266 -0.587331 6.90306 0
M  V30 2872 N 275.059 -0.649895 5.5833 0
M  V30 2873 H 267.21 0.778203 1.9763 0
M  V30 2874 H 269.473 0.288403 0.903066 0
M  V30 2875 H 269.179 0.491197 3.48253 0
M  V30 2876 H 269.053 -1.25748 3.55622 0
M  V30 2877 H 271.44 -1.43256 2.57995 0
M  V30 2878 H 271.521 0.334449 2.53604 0
M  V30 2879 H 271.165 0.391313 5.0639 0
M  V30 2880 H 271.095 -1.38876 5.07958 0
M  V30 2881 H 273.586 -0.60161 3.73081 0
M  V30 2882 H 273.899 -0.60894 7.70397 0
M  V30 2883 H 272.244 -0.554564 6.92784 0
M  V30 2884 H 275.435 -0.661907 4.63397 0
M  V30 2885 H 275.608 -0.665476 6.44574 0
M  V30 2886 N 269.014 -1.53014 -0.377408 0
M  V30 2887 C 270.242 -1.72515 -1.14219 0
M  V30 2888 C 270.657 -0.448735 -1.8339 0
M  V30 2889 O 270.014 0.577592 -1.73119 0
M  V30 2890 C 270.065 -2.8826 -2.18148 0
M  V30 2891 O 269.786 -4.10962 -1.51795 0
M  V30 2892 C 271.287 -3.19536 -3.07264 0
M  V30 2893 H 268.507 -0.577301 -0.342001 0
M  V30 2894 H 271.051 -1.99712 -0.439935 0
M  V30 2895 H 269.206 -2.63492 -2.83991 0
M  V30 2896 H 269.62 -4.75693 -2.20945 0
M  V30 2897 H 271.094 -4.03959 -3.76193 0
M  V30 2898 H 271.571 -2.34403 -3.71419 0
M  V30 2899 H 272.177 -3.46186 -2.47053 0
M  V30 2900 N 270.492 0.636531 -1.44174 0
M  V30 2901 C 271.738 1.39826 -1.4689 0
M  V30 2902 C 272.071 1.93947 -0.0990585 0
M  V30 2903 O 271.346 1.73325 0.882544 0
M  V30 2904 C 271.629 2.56751 -2.5249 0
M  V30 2905 C 271.482 2.08014 -3.98811 0
M  V30 2906 C 272.801 3.58946 -2.54649 0
M  V30 2907 H 269.92 0.507075 -0.53483 0
M  V30 2908 H 272.562 0.720188 -1.75822 0
M  V30 2909 H 270.712 3.14597 -2.2795 0
M  V30 2910 H 272.384 1.5504 -4.34466 0
M  V30 2911 H 270.627 1.39242 -4.10846 0
M  V30 2912 H 271.298 2.92169 -4.68339 0
M  V30 2913 H 273.774 3.1089 -2.76563 0
M  V30 2914 H 272.65 4.38286 -3.3045 0
M  V30 2915 H 272.911 4.12655 -1.58646 0
M  V30 2916 N 271.97 1.30982 0.876444 0
M  V30 2917 C 272.902 1.13902 1.98894 0
M  V30 2918 C 273.915 0.0798815 1.62604 0
M  V30 2919 O 275.104 0.326743 1.75484 0
M  V30 2920 C 272.204 0.716699 3.31235 0
M  V30 2921 C 271.377 1.85945 3.95908 0
M  V30 2922 C 270.436 1.42426 5.06558 0
M  V30 2923 O 269.462 2.13287 5.27729 0
M  V30 2924 N 270.664 0.308025 5.79682 0
M  V30 2925 H 273.429 2.09724 2.14094 0
M  V30 2926 H 270.99 1.2323 1.05004 0
M  V30 2927 H 272.982 0.408403 4.02634 0
M  V30 2928 H 271.552 -0.149719 3.12241 0
M  V30 2929 H 270.772 2.33541 3.17573 0
M  V30 2930 H 272.06 2.62503 4.35855 0
M  V30 2931 H 271.458 -0.282241 5.64995 0
M  V30 2932 H 270.015 0.0592282 6.51773 0
M  V30 2933 N 273.449 -1.08991 1.13837 0
M  V30 2934 C 274.679 -1.84743 0.924859 0
M  V30 2935 C 275.087 -1.81629 -0.529874 0
M  V30 2936 O 274.43 -1.21397 -1.37872 0
M  V30 2937 C 274.492 -3.33568 1.34061 0
M  V30 2938 C 274.156 -3.60425 2.80968 0
M  V30 2939 C 275.153 -3.55771 3.79108 0
M  V30 2940 C 272.838 -3.88627 3.18236 0
M  V30 2941 C 274.832 -3.78939 5.12527 0
M  V30 2942 C 272.519 -4.11449 4.51833 0
M  V30 2943 C 273.517 -4.06598 5.48787 0
M  V30 2944 O 273.205 -4.28826 6.79973 0
M  V30 2945 H 272.937 -0.590258 0.329502 0
M  V30 2946 H 275.491 -1.38598 1.51591 0
M  V30 2947 H 273.721 -3.80442 0.692853 0
M  V30 2948 H 275.41 -3.90743 1.09886 0
M  V30 2949 H 276.176 -3.34005 3.51661 0
M  V30 2950 H 272.055 -3.91526 2.43369 0
M  V30 2951 H 275.599 -3.75068 5.88192 0
M  V30 2952 H 271.496 -4.32698 4.79002 0
M  V30 2953 H 272.264 -4.46264 6.86142 0
M  V30 2954 N 274.927 -0.932562 -1.27047 0
M  V30 2955 C 276.343 -0.633544 -1.46487 0
M  V30 2956 C 276.543 0.815746 -1.84249 0
M  V30 2957 O 275.599 1.59319 -1.95892 0
M  V30 2958 C 276.912 -1.58758 -2.55375 0
M  V30 2959 C 278.46 -1.59634 -2.69232 0
M  V30 2960 C 278.935 -2.53747 -3.81283 0
M  V30 2961 N 280.426 -2.51982 -3.88664 0
M  V30 2962 C 281.161 -3.21491 -4.74796 0
M  V30 2963 N 280.657 -4.00395 -5.65381 0
M  V30 2964 N 282.45 -3.10485 -4.68568 0
M  V30 2965 H 274.601 -1.86946 -1.00821 0
M  V30 2966 H 276.864 -0.802897 -0.504044 0
M  V30 2967 H 276.57 -2.62172 -2.34432 0
M  V30 2968 H 276.444 -1.33301 -3.52861 0
M  V30 2969 H 278.831 -0.569488 -2.89553 0
M  V30 2970 H 278.912 -1.89142 -1.72218 0
M  V30 2971 H 278.556 -3.56545 -3.61715 0
M  V30 2972 H 278.486 -2.21532 -4.77735 0
M  V30 2973 H 280.977 -1.94681 -3.23895 0
M  V30 2974 H 281.29 -4.50406 -6.27976 0
M  V30 2975 H 279.635 -4.04498 -5.65161 0
M  V30 2976 H 282.826 -2.48331 -3.96799 0
M  V30 2977 H 282.999 -3.64925 -5.35475 0
M  V30 2978 N 276.405 1.4127 -0.698611 0
M  V30 2979 C 277.633 2.05503 -0.239992 0
M  V30 2980 C 278.048 1.52584 1.11191 0
M  V30 2981 O 277.405 0.675323 1.69545 0
M  V30 2982 C 277.456 3.60987 -0.192429 0
M  V30 2983 O 277.177 4.1195 -1.49094 0
M  V30 2984 C 278.678 4.42371 0.28681 0
M  V30 2985 H 275.898 0.661748 -0.111045 0
M  V30 2986 H 278.442 1.80987 -0.95205 0
M  V30 2987 H 276.597 3.84533 0.470472 0
M  V30 2988 H 277.011 5.06018 -1.38007 0
M  V30 2989 H 278.485 5.51344 0.26896 0
M  V30 2990 H 278.962 4.18699 1.32619 0
M  V30 2991 H 279.568 4.23897 -0.345201 0
M  V30 2992 N 277.883 0.443576 1.51229 0
M  V30 2993 C 278.815 -0.400608 2.25672 0
M  V30 2994 C 279.828 -0.980945 1.29928 0
M  V30 2995 O 281.017 -0.874024 1.55638 0
M  V30 2996 C 278.117 -1.57304 3.00181 0
M  V30 2997 C 277.29 -1.11046 4.23069 0
M  V30 2998 C 276.349 -2.15374 4.80105 0
M  V30 2999 O 275.375 -1.74554 5.41774 0
M  V30 3000 N 276.577 -3.47922 4.64683 0
M  V30 3001 H 279.342 0.23745 2.98758 0
M  V30 3002 H 276.903 0.272809 1.59585 0
M  V30 3003 H 278.895 -2.26733 3.35223 0
M  V30 3004 H 277.465 -2.11632 2.30066 0
M  V30 3005 H 276.685 -0.243019 3.9345 0
M  V30 3006 H 277.973 -0.778888 5.02803 0
M  V30 3007 H 277.371 -3.83815 4.15575 0
M  V30 3008 H 275.928 -4.13228 5.0407 0
M  V30 3009 N 279.361 -1.56624 0.175154 0
M  V30 3010 C 280.609 -1.96609 -0.467885 0
M  V30 3011 C 280.93 -1.06238 -1.63519 0
M  V30 3012 O 280.2 -0.129523 -1.95471 0
M  V30 3013 H 278.78 -0.726008 -0.175845 0
M  V30 3014 H 281.442 -1.93195 0.257234 0
M  V30 3015 H 280.538 -3.00989 -0.825342 0
M  V30 3016 N 280.839 0.0985539 -1.57292 0
M  V30 3017 C 281.802 1.10402 -2.00858 0
M  V30 3018 C 282.802 1.33146 -0.901593 0
M  V30 3019 O 283.992 1.29318 -1.16716 0
M  V30 3020 C 281.124 2.45394 -2.36632 0
M  V30 3021 H 282.317 0.729099 -2.90902 0
M  V30 3022 H 279.87 0.343495 -1.52479 0
M  V30 3023 H 280.605 2.87769 -1.49531 0
M  V30 3024 H 280.39 2.30235 -3.17387 0
M  V30 3025 H 281.88 3.17718 -2.71007 0
M  V30 3026 N 282.317 1.53212 0.369288 0
M  V30 3027 C 283.563 1.69466 1.11397 0
M  V30 3028 C 283.896 0.443257 1.89074 0
M  V30 3029 O 283.171 -0.559386 1.86282 0
M  V30 3030 C 283.454 2.9422 2.07621 0
M  V30 3031 C 283.307 4.29508 1.33577 0
M  V30 3032 C 284.626 3.14565 3.07794 0
M  V30 3033 H 281.745 0.616667 0.403597 0
M  V30 3034 H 284.387 1.85845 0.395179 0
M  V30 3035 H 282.537 2.80387 2.68916 0
M  V30 3036 H 284.209 4.55147 0.750955 0
M  V30 3037 H 282.452 4.29088 0.637618 0
M  V30 3038 H 283.123 5.12926 2.03989 0
M  V30 3039 H 285.599 3.2756 2.56601 0
M  V30 3040 H 284.475 4.03297 3.72348 0
M  V30 3041 H 284.736 2.29675 3.77759 0
M  V30 3042 N 283.795 -0.628877 1.44509 0
M  V30 3043 C 284.705 -1.7694 1.54044 0
M  V30 3044 C 285.721 -1.68705 0.425987 0
M  V30 3045 O 286.897 -1.89442 0.683656 0
M  V30 3046 C 283.962 -3.13332 1.48405 0
M  V30 3047 C 283.023 -3.33181 2.70719 0
M  V30 3048 C 282.256 -4.63067 2.6534 0
M  V30 3049 O 282.479 -5.44017 1.71469 0
M  V30 3050 O 281.413 -4.85167 3.56226 0
M  V30 3051 H 285.239 -1.71848 2.50403 0
M  V30 3052 H 282.824 -0.790378 1.26781 0
M  V30 3053 H 284.706 -3.94634 1.47791 0
M  V30 3054 H 283.381 -3.1896 0.551898 0
M  V30 3055 H 282.288 -2.51549 2.769 0
M  V30 3056 H 283.621 -3.32416 3.62988 0
M  V30 3057 N 285.273 -1.31445 -0.869486 0
M  V30 3058 C 286.236 -1.19094 -1.9583 0
M  V30 3059 C 287.236 -0.117906 -1.60367 0
M  V30 3060 O 288.426 -0.367208 -1.70286 0
M  V30 3061 C 285.558 -0.828165 -3.30688 0
M  V30 3062 H 286.751 -2.15842 -2.08212 0
M  V30 3063 H 284.304 -1.15063 -1.05784 0
M  V30 3064 H 285.039 0.138142 -3.24006 0
M  V30 3065 H 284.824 -1.6038 -3.578 0
M  V30 3066 H 286.314 -0.765658 -4.10521 0
M  V30 3067 N 286.751 1.08385 -1.14413 0
M  V30 3068 C 287.714 2.13486 -0.834048 0
M  V30 3069 C 288.714 1.59988 0.161418 0
M  V30 3070 O 289.904 1.74071 -0.0669575 0
M  V30 3071 C 287.036 3.4003 -0.243354 0
M  V30 3072 H 288.229 2.42425 -1.7655 0
M  V30 3073 H 285.782 1.24101 -0.950189 0
M  V30 3074 H 286.517 3.16726 0.696807 0
M  V30 3075 H 286.302 3.80157 -0.960367 0
M  V30 3076 H 287.792 4.17577 -0.0436242 0
M  V30 3077 N 288.23 0.939286 1.26551 0
M  V30 3078 C 289.177 0.446088 2.26448 0
M  V30 3079 C 290.147 -0.493234 1.58608 0
M  V30 3080 O 291.332 -0.409857 1.86346 0
M  V30 3081 C 288.472 -0.284375 3.43926 0
M  V30 3082 C 287.585 0.690399 4.26448 0
M  V30 3083 C 286.72 -0.0610712 5.31165 0
M  V30 3084 C 285.759 0.905649 6.05363 0
M  V30 3085 N 284.896 0.186055 7.01853 0
M  V30 3086 H 289.736 1.30291 2.68008 0
M  V30 3087 H 287.273 0.65371 1.31776 0
M  V30 3088 H 289.231 -0.724313 4.10864 0
M  V30 3089 H 287.861 -1.10535 3.03285 0
M  V30 3090 H 286.913 1.24885 3.59316 0
M  V30 3091 H 288.225 1.42873 4.779 0
M  V30 3092 H 287.379 -0.56038 6.04106 0
M  V30 3093 H 286.118 -0.832297 4.80546 0
M  V30 3094 H 285.123 1.4161 5.3125 0
M  V30 3095 H 286.348 1.67685 6.58072 0
M  V30 3096 H 284.294 -0.566714 6.53548 0
M  V30 3097 H 284.211 0.863752 7.51049 0
M  V30 3098 H 285.479 -0.292221 7.78952 0
M  V30 3099 N 289.708 -1.40897 0.706093 0
M  V30 3100 C 290.954 -2.01352 0.241889 0
M  V30 3101 C 291.287 -1.55832 -1.15888 0
M  V30 3102 O 290.562 -0.774145 -1.7843 0
M  V30 3103 C 290.845 -3.58752 0.311311 0
M  V30 3104 C 290.698 -4.1437 1.74978 0
M  V30 3105 C 292.017 -4.38914 -0.322922 0
M  V30 3106 H 289.136 -0.731562 0.0893687 0
M  V30 3107 H 291.778 -1.67504 0.896802 0
M  V30 3108 H 289.928 -3.87718 -0.246302 0
M  V30 3109 H 291.6 -3.96239 2.36205 0
M  V30 3110 H 289.843 -3.69016 2.28057 0
M  V30 3111 H 290.514 -5.23532 1.74981 0
M  V30 3112 H 292.99 -4.15822 0.152089 0
M  V30 3113 H 291.866 -5.48358 -0.243855 0
M  V30 3114 H 292.127 -4.19176 -1.40513 0
M  V30 3115 N 291.186 -0.45159 -1.50991 0
M  V30 3116 C 292.434 0.109857 -2.01801 0
M  V30 3117 C 292.755 1.41958 -1.3369 0
M  V30 3118 O 292.025 1.9003 -0.475951 0
M  V30 3119 H 290.605 0.0435884 -0.745727 0
M  V30 3120 H 293.267 -0.597557 -1.85514 0
M  V30 3121 H 292.363 0.275489 -3.10882 0
M  V30 3122 N 292.664 1.56529 -0.183458 0
M  V30 3123 C 293.627 2.17324 0.728223 0
M  V30 3124 C 294.627 1.12453 1.14939 0
M  V30 3125 O 295.817 1.37902 1.06437 0
M  V30 3126 C 292.949 2.76591 1.99274 0
M  V30 3127 H 294.142 2.99241 0.198772 0
M  V30 3128 H 291.695 1.5616 0.0661391 0
M  V30 3129 H 292.43 1.98441 2.56499 0
M  V30 3130 H 292.215 3.5335 1.69959 0
M  V30 3131 H 293.705 3.23311 2.6431 0
M  V30 3132 N 294.142 -0.090211 1.57342 0
M  V30 3133 C 295.072 -1.10976 2.05443 0
M  V30 3134 C 296.053 -1.41482 0.944284 0
M  V30 3135 O 297.238 -1.51428 1.21586 0
M  V30 3136 C 294.368 -2.42831 2.48295 0
M  V30 3137 C 293.322 -2.26721 3.63018 0
M  V30 3138 C 292.648 -3.63796 3.91863 0
M  V30 3139 C 293.948 -1.7037 4.93732 0
M  V30 3140 H 295.642 -0.709564 2.9087 0
M  V30 3141 H 293.188 -0.339874 1.39932 0
M  V30 3142 H 295.141 -3.14431 2.80555 0
M  V30 3143 H 293.865 -2.84795 1.59873 0
M  V30 3144 H 292.524 -1.57565 3.31012 0
M  V30 3145 H 292.172 -4.03297 3.00601 0
M  V30 3146 H 291.872 -3.53861 4.69101 0
M  V30 3147 H 293.396 -4.36855 4.26603 0
M  V30 3148 H 294.81 -2.31816 5.24342 0
M  V30 3149 H 293.207 -1.71181 5.75167 0
M  V30 3150 H 294.277 -0.663542 4.80339 0
M  V30 3151 N 295.62 -1.53406 -0.361157 0
M  V30 3152 C 296.583 -1.79479 -1.42548 0
M  V30 3153 C 297.583 -0.665327 -1.4639 0
M  V30 3154 O 298.773 -0.933549 -1.47073 0
M  V30 3155 C 295.905 -1.92087 -2.8163 0
M  V30 3156 H 297.098 -2.74538 -1.20701 0
M  V30 3157 H 294.651 -1.4455 -0.594546 0
M  V30 3158 H 295.386 -0.991099 -3.08784 0
M  V30 3159 H 295.171 -2.74241 -2.80239 0
M  V30 3160 H 296.661 -2.13836 -3.58697 0
M  V30 3161 N 297.098 0.621204 -1.44841 0
M  V30 3162 C 298.323 1.41244 -1.51871 0
M  V30 3163 C 298.748 1.87519 -0.147764 0
M  V30 3164 O 298.106 1.59334 0.865 0
M  V30 3165 C 298.154 2.60221 -2.49634 0
M  V30 3166 O 297.258 3.60395 -2.00473 0
M  V30 3167 H 296.599 0.42223 -0.512463 0
M  V30 3168 H 299.129 0.757305 -1.90069 0
M  V30 3169 H 299.139 3.0764 -2.67996 0
M  V30 3170 H 297.814 2.25887 -3.4921 0
M  V30 3171 H 296.391 3.19717 -1.91925 0
M  V30 3172 N 298.576 1.31904 0.862503 0
M  V30 3173 C 299.506 1.22782 1.98612 0
M  V30 3174 C 300.487 0.113362 1.69722 0
M  V30 3175 O 301.672 0.299218 1.91881 0
M  V30 3176 C 298.802 0.942058 3.34279 0
M  V30 3177 C 297.756 2.0169 3.77499 0
M  V30 3178 C 297.082 1.58369 5.10709 0
M  V30 3179 C 298.382 3.43096 3.93805 0
M  V30 3180 H 300.076 2.16788 2.06502 0
M  V30 3181 H 297.622 1.04366 0.992154 0
M  V30 3182 H 299.575 0.864818 4.1243 0
M  V30 3183 H 298.299 -0.0336603 3.26583 0
M  V30 3184 H 296.958 2.08416 3.01593 0
M  V30 3185 H 296.606 0.595628 4.99461 0
M  V30 3186 H 296.306 2.30279 5.40597 0
M  V30 3187 H 297.83 1.52067 5.91361 0
M  V30 3188 H 299.244 3.39003 4.62331 0
M  V30 3189 H 297.641 4.13288 4.35101 0
M  V30 3190 H 298.711 3.83334 2.96957 0
M  V30 3191 N 300.054 -1.07777 1.14986 0
M  V30 3192 C 301.303 -1.79669 0.916617 0
M  V30 3193 C 301.616 -1.87474 -0.557917 0
M  V30 3194 O 302.822 -2.55845 -0.908617 0
M  V30 3195 C 301.278 -3.22848 1.59051 0
M  V30 3196 C 300.886 -3.23257 3.10176 0
M  V30 3197 C 302.63 -3.99379 1.43864 0
M  V30 3198 C 300.537 -4.61063 3.70372 0
M  V30 3199 H 299.467 -0.673349 0.33929 0
M  V30 3200 H 302.118 -1.21003 1.37951 0
M  V30 3201 H 300.5 -3.8168 1.0553 0
M  V30 3202 H 301.674 -2.74095 3.70417 0
M  V30 3203 H 299.989 -2.60222 3.25074 0
M  V30 3204 H 302.586 -5.0122 1.86232 0
M  V30 3205 H 302.929 -4.14511 0.385564 0
M  V30 3206 H 303.462 -3.47032 1.94457 0
M  V30 3207 H 300.201 -4.51135 4.7556 0
M  V30 3208 H 299.721 -5.1048 3.14913 0
M  V30 3209 H 301.4 -5.30034 3.71043 0
M  V30 3210 N 301.532 -0.945985 -1.26051 0
M  V30 3211 C 302.948 -0.649045 -1.45807 0
M  V30 3212 C 303.148 0.796158 -1.85104 0
M  V30 3213 O 302.204 1.57233 -1.97571 0
M  V30 3214 C 303.517 -1.61458 -2.53677 0
M  V30 3215 C 305.065 -1.62481 -2.67524 0
M  V30 3216 C 305.54 -2.57776 -3.7857 0
M  V30 3217 N 307.031 -2.5609 -3.85969 0
M  V30 3218 C 307.766 -3.26508 -4.7136 0
M  V30 3219 N 307.262 -4.0637 -5.61102 0
M  V30 3220 N 309.055 -3.15437 -4.65248 0
M  V30 3221 H 301.206 -1.88005 -0.988328 0
M  V30 3222 H 303.469 -0.808198 -0.4955 0
M  V30 3223 H 303.175 -2.64644 -2.31638 0
M  V30 3224 H 303.049 -1.37036 -3.51427 0
M  V30 3225 H 305.436 -0.600167 -2.88933 0
M  V30 3226 H 305.517 -1.90958 -1.70202 0
M  V30 3227 H 305.161 -3.60361 -3.57913 0
M  V30 3228 H 305.091 -2.26587 -4.75359 0
M  V30 3229 H 307.582 -1.98105 -3.21812 0
M  V30 3230 H 307.895 -4.57042 -6.23164 0
M  V30 3231 H 306.24 -4.10469 -5.60839 0
M  V30 3232 H 309.431 -2.52525 -3.94143 0
M  V30 3233 H 309.604 -3.70584 -5.31575 0
M  V30 3234 N 303.011 1.40521 -0.713556 0
M  V30 3235 C 304.236 2.05759 -0.26035 0
M  V30 3236 C 304.661 1.53403 1.08854 0
M  V30 3237 O 304.019 0.668535 1.68524 0
M  V30 3238 C 304.067 3.59745 -0.248122 0
M  V30 3239 O 303.171 4.05123 0.77131 0
M  V30 3240 H 302.512 0.652564 -0.122703 0
M  V30 3241 H 305.042 1.79958 -0.973467 0
M  V30 3242 H 305.052 4.07911 -0.0851129 0
M  V30 3243 H 303.727 3.97218 -1.2325 0
M  V30 3244 H 302.304 3.68422 0.57619 0
M  V30 3245 N 304.489 0.459591 1.5075 0
M  V30 3246 C 305.735 -0.0994966 2.02556 0
M  V30 3247 C 306.068 -1.40399 1.3417 0
M  V30 3248 O 305.343 -1.88892 0.463683 0
M  V30 3249 C 305.626 -0.295242 3.58888 0
M  V30 3250 C 305.479 1.02947 4.37861 0
M  V30 3251 C 306.798 -1.05502 4.27267 0
M  V30 3252 H 303.917 -0.034686 0.736183 0
M  V30 3253 H 306.559 0.602938 1.8018 0
M  V30 3254 H 304.709 -0.893563 3.78084 0
M  V30 3255 H 306.381 1.66348 4.30263 0
M  V30 3256 H 304.624 1.62885 4.02058 0
M  V30 3257 H 305.295 0.846281 5.45474 0
M  V30 3258 H 307.771 -0.547993 4.12476 0
M  V30 3259 H 306.647 -1.16077 5.36486 0
M  V30 3260 H 306.908 -2.08875 3.89645 0
M  V30 3261 N 305.967 -1.56429 0.191757 0
M  V30 3262 C 306.93 -2.17707 -0.716688 0
M  V30 3263 C 307.93 -1.13061 -1.14341 0
M  V30 3264 O 309.12 -1.38464 -1.05704 0
M  V30 3265 C 306.252 -2.77644 -1.97804 0
M  V30 3266 H 307.445 -2.99342 -0.1829 0
M  V30 3267 H 304.998 -1.56193 -0.0578566 0
M  V30 3268 H 305.733 -1.99799 -2.55443 0
M  V30 3269 H 305.518 -3.54246 -1.68083 0
M  V30 3270 H 307.008 -3.24708 -2.62592 0
M  V30 3271 N 307.445 0.0818655 -1.57387 0
M  V30 3272 C 308.67 0.799946 -1.91352 0
M  V30 3273 C 309.095 1.70833 -0.787258 0
M  V30 3274 O 308.453 1.79419 0.26048 0
M  V30 3275 C 308.501 1.57812 -3.24234 0
M  V30 3276 O 307.605 2.68806 -3.12757 0
M  V30 3277 H 306.946 0.21891 -0.626877 0
M  V30 3278 H 309.476 0.0531256 -2.04531 0
M  V30 3279 H 309.486 1.95952 -3.57864 0
M  V30 3280 H 308.161 0.911548 -4.05788 0
M  V30 3281 H 306.738 2.33597 -2.90666 0
M  V30 3282 N 308.923 1.53595 0.353017 0
M  V30 3283 C 310.17 1.70385 1.09431 0
M  V30 3284 C 310.498 0.462113 1.88931 0
M  V30 3285 O 309.753 -0.556074 1.87633 0
M  V30 3286 C 310.052 2.91313 2.07054 0
M  V30 3287 C 309.718 4.27308 1.43939 0
M  V30 3288 C 308.38 4.64287 1.26454 0
M  V30 3289 C 310.732 5.11829 0.983883 0
M  V30 3290 C 308.06 5.83412 0.620226 0
M  V30 3291 C 310.412 6.31611 0.353516 0
M  V30 3292 C 309.076 6.67293 0.166272 0
M  V30 3293 H 308.346 0.623484 0.400436 0
M  V30 3294 H 310.993 1.87799 0.374655 0
M  V30 3295 H 309.298 2.68463 2.85368 0
M  V30 3296 H 310.995 3.01497 2.64387 0
M  V30 3297 H 307.585 3.98198 1.58543 0
M  V30 3298 H 311.769 4.838 1.10685 0
M  V30 3299 H 307.025 6.09639 0.463681 0
M  V30 3300 H 311.199 6.964 -0.00757555 0
M  V30 3301 H 308.826 7.59461 -0.335047 0
M  V30 3302 N 310.401 -0.613514 1.45168 0
M  V30 3303 C 311.626 -1.40437 1.52618 0
M  V30 3304 C 312.051 -1.87438 0.157707 0
M  V30 3305 O 311.409 -1.59791 -0.856537 0
M  V30 3306 C 311.457 -2.58894 2.51011 0
M  V30 3307 O 310.561 -3.59326 2.02382 0
M  V30 3308 H 309.902 -0.419506 0.514695 0
M  V30 3309 H 312.432 -0.747215 1.90467 0
M  V30 3310 H 312.442 -3.06214 2.69624 0
M  V30 3311 H 311.117 -2.24032 3.50403 0
M  V30 3312 H 309.694 -3.18695 1.93618 0
M  V30 3313 N 311.879 -1.3236 -0.855495 0
M  V30 3314 C 313.128 -1.22226 -1.60448 0
M  V30 3315 C 313.441 0.214733 -1.94418 0
M  V30 3316 O 314.647 0.437917 -2.67945 0
M  V30 3317 C 313.103 -2.14063 -2.89318 0
M  V30 3318 C 312.711 -3.62839 -2.62777 0
M  V30 3319 C 314.455 -2.12764 -3.67331 0
M  V30 3320 C 312.362 -4.4664 -3.87643 0
M  V30 3321 H 311.292 -0.453904 -0.602069 0
M  V30 3322 H 313.943 -1.57314 -0.944698 0
M  V30 3323 H 312.325 -1.71889 -3.5675 0
M  V30 3324 H 313.499 -4.1335 -2.03662 0
M  V30 3325 H 311.814 -3.66261 -1.98096 0
M  V30 3326 H 314.411 -2.72611 -4.59987 0
M  V30 3327 H 314.754 -1.11841 -4.00995 0
M  V30 3328 H 315.287 -2.53214 -3.06802 0
M  V30 3329 H 312.026 -5.48373 -3.5912 0
M  V30 3330 H 311.546 -4.0088 -4.46156 0
M  V30 3331 H 313.225 -4.59597 -4.55389 0
M  V30 3332 N 313.357 1.07166 -1.15556 0
M  V30 3333 C 314.587 1.83248 -0.954133 0
M  V30 3334 C 314.995 1.82449 0.500911 0
M  V30 3335 O 314.338 1.23575 1.35923 0
M  V30 3336 C 314.4 3.31393 -1.39351 0
M  V30 3337 C 314.064 3.5591 -2.86666 0
M  V30 3338 C 315.061 3.49695 -3.8472 0
M  V30 3339 C 312.746 3.83515 -3.24379 0
M  V30 3340 C 314.74 3.70737 -5.18491 0
M  V30 3341 C 312.427 4.04209 -4.58321 0
M  V30 3342 C 313.425 3.97815 -5.55186 0
M  V30 3343 O 313.113 4.17954 -6.86709 0
M  V30 3344 H 312.845 0.584941 -0.338851 0
M  V30 3345 H 315.399 1.36169 -1.53777 0
M  V30 3346 H 313.629 3.79292 -0.75329 0
M  V30 3347 H 315.318 3.88945 -1.16089 0
M  V30 3348 H 316.084 3.28368 -3.56931 0
M  V30 3349 H 311.963 3.87605 -2.49567 0
M  V30 3350 H 315.507 3.65663 -5.94085 0
M  V30 3351 H 311.404 4.25023 -4.85825 0
M  V30 3352 H 312.172 4.35291 -6.93155 0
M  V30 3353 N 314.835 0.952656 1.25548 0
M  V30 3354 C 316.06 0.623025 1.97821 0
M  V30 3355 C 316.485 -0.7976 1.70352 0
M  V30 3356 O 315.843 -1.53905 0.958283 0
M  V30 3357 C 315.891 0.885532 3.49558 0
M  V30 3358 O 314.995 -0.0366641 4.12384 0
M  V30 3359 H 314.336 0.237082 0.620232 0
M  V30 3360 H 316.866 1.27871 1.59719 0
M  V30 3361 H 316.876 0.811009 3.99858 0
M  V30 3362 H 315.551 1.92094 3.6888 0
M  V30 3363 H 314.128 0.0898954 3.72792 0
M  V30 3364 N 316.313 -1.40141 0.720998 0
M  V30 3365 C 317.724 -1.83678 0.334553 0
M  V30 3366 C 318.075 -1.6027 -1.13173 0
M  V30 3367 O 317.2 -1.08643 -1.87152 0
M  V30 3368 C 317.795 -3.33437 0.600437 0
M  V30 3369 C 316.354 -3.75447 0.267642 0
M  V30 3370 C 315.501 -2.63296 0.870097 0
M  V30 3371 H 318.452 -1.29331 0.919732 0
M  V30 3372 H 318.473 -3.80269 -0.132517 0
M  V30 3373 H 317.985 -3.50442 1.66768 0
M  V30 3374 H 316.086 -3.64035 -0.794329 0
M  V30 3375 H 316.199 -4.73344 0.74042 0
M  V30 3376 H 314.563 -2.52954 0.297739 0
M  V30 3377 H 315.346 -2.83112 1.94172 0
M  V30 3378 N 317.792 -0.46758 -1.50504 0
M  V30 3379 C 318.742 0.34698 -2.25344 0
M  V30 3380 C 319.726 0.964469 -1.2879 0
M  V30 3381 O 320.918 0.8776 -1.53711 0
M  V30 3382 C 318.047 1.43042 -3.1208 0
M  V30 3383 C 317.133 0.82084 -4.16081 0
M  V30 3384 N 317.524 -0.0567602 -5.05768 0
M  V30 3385 C 315.822 1.08517 -4.32597 0
M  V30 3386 C 316.523 -0.402343 -5.80307 0
M  V30 3387 N 315.499 0.221607 -5.43148 0
M  V30 3388 H 319.301 -0.329129 -2.92051 0
M  V30 3389 H 316.815 -0.281508 -1.59942 0
M  V30 3390 H 318.812 2.02712 -3.64299 0
M  V30 3391 H 317.472 2.10856 -2.46921 0
M  V30 3392 H 318.483 -0.425349 -5.1615 0
M  V30 3393 H 315.16 1.75855 -3.78657 0
M  V30 3394 H 316.55 -1.11834 -6.62528 0
M  V30 3395 N 319.27 1.56325 -0.20005 0
M  V30 3396 C 320.498 2.02105 0.442874 0
M  V30 3397 C 320.913 1.08014 1.5485 0
M  V30 3398 O 320.27 0.0858797 1.82298 0
M  V30 3399 C 320.321 3.47549 0.994583 0
M  V30 3400 O 320.042 4.38049 -0.0669322 0
M  V30 3401 C 321.543 4.0887 1.7129 0
M  V30 3402 H 318.763 0.661807 0.110691 0
M  V30 3403 H 321.307 2.02134 -0.310207 0
M  V30 3404 H 319.462 3.48204 1.69803 0
M  V30 3405 H 319.876 5.23368 0.344462 0
M  V30 3406 H 321.35 5.12475 2.05118 0
M  V30 3407 H 321.827 3.52615 2.61838 0
M  V30 3408 H 322.433 4.12002 1.05518 0
M  V30 3409 N 320.748 -0.0735177 1.57428 0
M  V30 3410 C 321.996 -0.771472 1.86796 0
M  V30 3411 C 322.317 -1.78201 0.791804 0
M  V30 3412 O 321.587 -1.95074 -0.179718 0
M  V30 3413 H 320.167 -0.28791 0.689287 0
M  V30 3414 H 322.829 -0.0500161 1.94836 0
M  V30 3415 H 321.925 -1.28874 2.8425 0
M  V30 3416 N 322.226 -1.5378 -0.344866 0
M  V30 3417 C 323.475 -1.7018 -1.08267 0
M  V30 3418 C 323.788 -0.471 -1.89845 0
M  V30 3419 O 324.994 -0.515917 -2.66553 0
M  V30 3420 C 323.45 -3.00923 -1.97417 0
M  V30 3421 C 323.058 -4.31335 -1.21053 0
M  V30 3422 C 324.802 -3.26688 -2.71063 0
M  V30 3423 C 322.709 -5.53153 -2.09225 0
M  V30 3424 H 321.639 -0.634138 -0.407903 0
M  V30 3425 H 324.29 -1.8028 -0.342246 0
M  V30 3426 H 322.672 -2.84676 -2.75274 0
M  V30 3427 H 323.846 -4.58281 -0.481159 0
M  V30 3428 H 322.161 -4.12173 -0.591813 0
M  V30 3429 H 324.758 -4.1489 -3.37299 0
M  V30 3430 H 325.101 -2.43639 -3.37558 0
M  V30 3431 H 325.634 -3.43705 -2.0028 0
M  V30 3432 H 322.373 -6.38741 -1.47274 0
M  V30 3433 H 321.893 -5.30458 -2.79955 0
M  V30 3434 H 323.572 -5.88744 -2.68308 0
M  V30 3435 N 323.704 0.605807 -1.45491 0
M  V30 3436 C 324.636 1.73031 -1.5031 0
M  V30 3437 C 325.649 1.57968 -0.393687 0
M  V30 3438 O 326.838 1.65817 -0.660839 0
M  V30 3439 C 323.938 3.11049 -1.34543 0
M  V30 3440 C 323.111 3.52334 -2.59189 0
M  V30 3441 C 322.17 4.69323 -2.37954 0
M  V30 3442 O 321.196 4.7635 -3.11575 0
M  V30 3443 N 322.398 5.62705 -1.4263 0
M  V30 3444 H 325.163 1.6936 -2.4726 0
M  V30 3445 H 322.724 0.79114 -1.41254 0
M  V30 3446 H 324.716 3.87071 -1.18144 0
M  V30 3447 H 323.286 3.09217 -0.458623 0
M  V30 3448 H 322.506 2.66256 -2.90691 0
M  V30 3449 H 323.794 3.76677 -3.42041 0
M  V30 3450 H 323.192 5.59744 -0.818758 0
M  V30 3451 H 321.749 6.38252 -1.32202 0
M  V30 3452 N 325.182 1.32811 0.848464 0
M  V30 3453 C 326.092 1.24278 1.98978 0
M  V30 3454 C 327.108 0.155176 1.73307 0
M  V30 3455 O 328.284 0.376999 1.9784 0
M  V30 3456 C 325.349 0.972444 3.32783 0
M  V30 3457 C 324.41 2.14911 3.71634 0
M  V30 3458 C 323.643 1.89157 4.99054 0
M  V30 3459 O 323.866 0.837165 5.64223 0
M  V30 3460 O 322.8 2.75433 5.35183 0
M  V30 3461 H 326.626 2.20238 2.09115 0
M  V30 3462 H 324.211 1.12762 0.980052 0
M  V30 3463 H 326.093 0.838432 4.12975 0
M  V30 3464 H 324.768 0.043051 3.23671 0
M  V30 3465 H 323.675 2.33862 2.91992 0
M  V30 3466 H 325.008 3.06151 3.85399 0
M  V30 3467 N 326.66 -1.06551 1.16123 0
M  V30 3468 C 327.89 -1.8274 0.963838 0
M  V30 3469 C 328.298 -1.82712 -0.491228 0
M  V30 3470 O 327.641 -1.24294 -1.35265 0
M  V30 3471 C 327.703 -3.3065 1.41106 0
M  V30 3472 C 327.367 -3.54384 2.88549 0
M  V30 3473 C 328.364 -3.4765 3.86569 0
M  V30 3474 C 326.049 -3.81789 3.26408 0
M  V30 3475 C 328.043 -3.67982 5.2045 0
M  V30 3476 C 325.73 -4.01772 4.60459 0
M  V30 3477 C 326.728 -3.94866 5.57288 0
M  V30 3478 O 326.416 -4.14306 6.88916 0
M  V30 3479 H 326.148 -0.583136 0.341948 0
M  V30 3480 H 328.702 -1.35351 1.54497 0
M  V30 3481 H 326.932 -3.78887 0.773394 0
M  V30 3482 H 328.621 -3.88324 1.1815 0
M  V30 3483 H 329.387 -3.2647 3.58667 0
M  V30 3484 H 325.266 -3.86276 2.51619 0
M  V30 3485 H 328.81 -3.62507 5.96015 0
M  V30 3486 H 324.707 -4.2244 4.88072 0
M  V30 3487 H 325.475 -4.31609 6.95454 0
M  V30 3488 N 328.138 -0.959301 -1.25041 0
M  V30 3489 C 329.07 -0.440543 -2.24926 0
M  V30 3490 C 330.083 0.446131 -1.56568 0
M  V30 3491 O 331.272 0.253657 -1.76689 0
M  V30 3492 C 328.372 0.38412 -3.36716 0
M  V30 3493 C 327.545 -0.490658 -4.34639 0
M  V30 3494 C 326.604 0.276587 -5.25473 0
M  V30 3495 O 325.63 -0.326614 -5.68262 0
M  V30 3496 N 326.832 1.56844 -5.5891 0
M  V30 3497 H 329.597 -1.29931 -2.70071 0
M  V30 3498 H 327.158 -0.830181 -1.38995 0
M  V30 3499 H 329.15 0.905228 -3.94446 0
M  V30 3500 H 327.72 1.14377 -2.90924 0
M  V30 3501 H 326.94 -1.19282 -3.7572 0
M  V30 3502 H 328.228 -1.08756 -4.97041 0
M  V30 3503 H 327.626 2.08036 -5.26059 0
M  V30 3504 H 326.183 2.03541 -6.19205 0
M  V30 3505 N 329.616 1.39756 -0.72842 0
M  V30 3506 C 330.893 1.94574 -0.200079 0
M  V30 3507 C 331.273 1.66569 1.29684 0
M  V30 3508 O 330.621 0.990326 2.05924 0
M  V30 3509 C 330.831 3.45004 -0.526608 0
M  V30 3510 C 332.179 4.21965 -0.472318 0
M  V30 3511 O 333.203 3.53173 -0.463413 0
M  V30 3512 O 332.062 5.44552 -0.461075 0
M  V30 3513 H 329.156 0.826289 -0.0342851 0
M  V30 3514 H 331.702 1.49293 -0.806829 0
M  V30 3515 H 330.474 3.58796 -1.56144 0
M  V30 3516 H 330.097 3.97449 0.109449 0
M  V30 3517 N 331.094 0.475555 1.50254 0
M  V30 3518 C 332.342 -0.077738 2.0195 0
M  V30 3519 C 332.663 -1.39813 1.35931 0
M  V30 3520 O 331.933 -1.89249 0.506123 0
M  V30 3521 H 330.513 -0.031719 0.746326 0
M  V30 3522 H 333.175 0.626995 1.84539 0
M  V30 3523 H 332.271 -0.225995 3.11281 0
M  V30 3524 N 332.573 -1.56217 0.208337 0
M  V30 3525 C 333.819 -1.98242 -0.427552 0
M  V30 3526 C 334.152 -1.09554 -1.60348 0
M  V30 3527 O 333.427 -0.15035 -1.93918 0
M  V30 3528 C 333.71 -3.4931 -0.874907 0
M  V30 3529 C 333.563 -4.48773 0.303751 0
M  V30 3530 C 334.882 -4.04424 -1.73577 0
M  V30 3531 H 332.001 -0.720744 -0.153936 0
M  V30 3532 H 334.643 -1.87586 0.30192 0
M  V30 3533 H 332.793 -3.58522 -1.49648 0
M  V30 3534 H 334.465 -4.51586 0.941682 0
M  V30 3535 H 332.708 -4.23194 0.953375 0
M  V30 3536 H 333.379 -5.51976 -0.0519883 0
M  V30 3537 H 335.855 -3.98075 -1.21143 0
M  V30 3538 H 334.731 -5.1047 -2.01771 0
M  V30 3539 H 334.992 -3.50494 -2.69456 0
M  V30 3540 N 334.051 0.0651679 -1.57465 0
M  V30 3541 C 335.462 0.616213 -1.76238 0
M  V30 3542 C 335.813 1.7756 -0.834689 0
M  V30 3543 O 334.938 2.1639 -0.0204156 0
M  V30 3544 C 335.533 1.12462 -3.1959 0
M  V30 3545 C 334.092 1.62147 -3.39684 0
M  V30 3546 C 333.239 0.543739 -2.71917 0
M  V30 3547 H 336.19 -0.161022 -1.57881 0
M  V30 3548 H 336.211 1.99324 -3.24114 0
M  V30 3549 H 335.723 0.280592 -3.87084 0
M  V30 3550 H 333.824 2.48854 -2.77313 0
M  V30 3551 H 333.937 1.69385 -4.48158 0
M  V30 3552 H 332.301 0.990352 -2.34657 0
M  V30 3553 H 333.084 -0.290216 -3.42071 0
M  V30 3554 N 335.529 1.53961 0.336706 0
M  V30 3555 C 336.476 1.82428 1.41381 0
M  V30 3556 C 337.446 0.670444 1.51968 0
M  V30 3557 O 338.631 0.915565 1.67398 0
M  V30 3558 C 335.771 2.04564 2.77934 0
M  V30 3559 C 334.884 3.32267 2.76084 0
M  V30 3560 C 334.019 3.44434 4.04399 0
M  V30 3561 C 333.058 4.66061 3.96804 0
M  V30 3562 N 332.195 4.75224 5.16823 0
M  V30 3563 H 337.035 2.74324 1.16405 0
M  V30 3564 H 334.572 1.35869 0.563752 0
M  V30 3565 H 336.53 2.15388 3.57301 0
M  V30 3566 H 335.16 1.15974 3.01247 0
M  V30 3567 H 334.212 3.3025 1.88784 0
M  V30 3568 H 335.524 4.21733 2.66351 0
M  V30 3569 H 334.678 3.54728 4.92192 0
M  V30 3570 H 333.417 2.53037 4.16921 0
M  V30 3571 H 332.422 4.55838 3.07396 0
M  V30 3572 H 333.647 5.58829 3.85858 0
M  V30 3573 H 331.593 3.86739 5.29876 0
M  V30 3574 H 331.51 5.58636 5.09374 0
M  V30 3575 H 332.778 4.89835 6.06367 0
M  V30 3576 N 337.007 -0.598083 1.45811 0
M  V30 3577 C 338.256 -1.35295 1.49594 0
M  V30 3578 C 338.569 -1.95057 0.145679 0
M  V30 3579 O 339.775 -2.71431 0.0612099 0
M  V30 3580 C 338.231 -2.45124 2.63519 0
M  V30 3581 C 337.839 -1.91732 4.04899 0
M  V30 3582 C 339.583 -3.2205 2.76558 0
M  V30 3583 C 337.49 -2.991 5.1019 0
M  V30 3584 H 336.42 -0.508552 0.556679 0
M  V30 3585 H 339.071 -0.639977 1.71978 0
M  V30 3586 H 337.453 -3.19149 2.34435 0
M  V30 3587 H 338.627 -1.24352 4.43704 0
M  V30 3588 H 336.942 -1.27522 3.96393 0
M  V30 3589 H 339.539 -4.0215 3.52391 0
M  V30 3590 H 339.882 -3.73663 1.83526 0
M  V30 3591 H 340.415 -2.55127 3.05213 0
M  V30 3592 H 337.154 -2.52393 6.04961 0
M  V30 3593 H 336.674 -3.65017 4.75944 0
M  V30 3594 H 338.353 -3.63318 5.35359 0
M  V30 3595 N 338.485 -1.33259 -0.841409 0
M  V30 3596 C 339.896 -1.22066 -1.41269 0
M  V30 3597 C 340.247 0.161479 -1.95534 0
M  V30 3598 O 339.372 1.06094 -1.88608 0
M  V30 3599 C 339.967 -2.20996 -2.568 0
M  V30 3600 C 338.526 -2.13649 -3.09888 0
M  V30 3601 C 337.673 -2.08623 -1.82679 0
M  V30 3602 H 340.624 -1.44895 -0.647395 0
M  V30 3603 H 340.645 -1.81621 -3.34356 0
M  V30 3604 H 340.157 -3.2158 -2.17274 0
M  V30 3605 H 338.258 -1.16359 -3.53965 0
M  V30 3606 H 338.371 -3.04079 -3.70234 0
M  V30 3607 H 336.735 -1.54061 -2.02824 0
M  V30 3608 H 337.518 -3.1101 -1.45353 0
M  V30 3609 N 339.963 1.05934 -1.16686 0
M  V30 3610 C 341.191 1.8249 -0.974929 0
M  V30 3611 C 341.606 1.82679 0.476861 0
M  V30 3612 O 340.963 1.2486 1.33103 0
M  V30 3613 C 341.014 3.28943 -1.49929 0
M  V30 3614 O 340.735 3.28886 -2.89423 0
M  V30 3615 C 342.236 4.22215 -1.35089 0
M  V30 3616 H 339.456 0.575295 -0.345365 0
M  V30 3617 H 342 1.33631 -1.548 0
M  V30 3618 H 340.155 3.751 -0.968423 0
M  V30 3619 H 340.569 4.20493 -3.13506 0
M  V30 3620 H 342.043 5.22987 -1.76603 0
M  V30 3621 H 342.52 4.38195 -0.296935 0
M  V30 3622 H 343.126 3.81907 -1.87155 0
M  V30 3623 N 341.441 0.965919 1.2453 0
M  V30 3624 C 342.404 0.499547 2.2369 0
M  V30 3625 C 343.404 -0.40294 1.5567 0
M  V30 3626 O 344.594 -0.19865 1.73064 0
M  V30 3627 C 341.726 -0.276792 3.39774 0
M  V30 3628 H 342.919 1.37613 2.66463 0
M  V30 3629 H 340.472 0.750324 1.37112 0
M  V30 3630 H 341.207 -1.17055 3.02438 0
M  V30 3631 H 340.992 0.370826 3.90343 0
M  V30 3632 H 342.482 -0.592175 4.1338 0
M  V30 3633 N 342.919 -1.39368 0.735821 0
M  V30 3634 C 344.159 -2.02349 0.288813 0
M  V30 3635 C 344.523 -1.57127 -1.10341 0
M  V30 3636 O 345.724 -2.12312 -1.64854 0
M  V30 3637 C 343.995 -3.55288 0.387986 0
M  V30 3638 S 345.554 -4.38795 0.0209408 0
M  V30 3639 H 342.372 -0.701944 0.113115 0
M  V30 3640 H 344.974 -1.70164 0.962518 0
M  V30 3641 H 343.678 -3.85691 1.40252 0
M  V30 3642 H 343.209 -3.92227 -0.303512 0
M  V30 3643 H 345.224 -4.81595 -1.19503 0
M  V30 3644 N 344.397 -0.483516 -1.5 0
M  V30 3645 C 345.646 0.0689102 -2.01582 0
M  V30 3646 C 345.959 1.39655 -1.36952 0
M  V30 3647 O 347.165 2.03465 -1.79762 0
M  V30 3648 C 345.621 0.173302 -3.59483 0
M  V30 3649 C 345.229 -1.14665 -4.33077 0
M  V30 3650 C 346.973 0.677024 -4.19066 0
M  V30 3651 C 344.88 -1.00537 -5.82792 0
M  V30 3652 H 343.81 0.0295277 -0.753422 0
M  V30 3653 H 346.461 -0.620295 -1.72698 0
M  V30 3654 H 344.843 0.926569 -3.85007 0
M  V30 3655 H 346.017 -1.91184 -4.19268 0
M  V30 3656 H 344.332 -1.58244 -3.85159 0
M  V30 3657 H 346.929 0.799952 -5.28682 0
M  V30 3658 H 347.272 1.67151 -3.81269 0
M  V30 3659 H 347.805 -0.0192083 -3.97795 0
M  V30 3660 H 344.544 -1.9736 -6.25083 0
M  V30 3661 H 344.064 -0.280776 -5.99142 0
M  V30 3662 H 345.743 -0.677 -6.43448 0
M  V30 3663 N 345.875 1.56104 -0.216619 0
M  V30 3664 C 347.103 2.02563 0.421413 0
M  V30 3665 C 347.518 1.0965 1.53695 0
M  V30 3666 O 346.875 0.10521 1.82196 0
M  V30 3667 C 346.926 3.48584 0.957665 0
M  V30 3668 O 346.647 4.37953 -0.113389 0
M  V30 3669 C 348.148 4.10664 1.66943 0
M  V30 3670 H 345.368 0.662944 0.103665 0
M  V30 3671 H 347.912 2.01793 -0.331629 0
M  V30 3672 H 346.067 3.49985 1.661 0
M  V30 3673 H 346.481 5.23704 0.288932 0
M  V30 3674 H 347.955 5.14622 1.99671 0
M  V30 3675 H 348.432 3.55373 2.58083 0
M  V30 3676 H 349.038 4.13098 1.01142 0
M  V30 3677 N 347.353 -0.0568162 1.57498 0
M  V30 3678 C 348.599 -0.75422 1.88253 0
M  V30 3679 C 348.932 -1.76461 0.810865 0
M  V30 3680 O 348.207 -1.93691 -0.177259 0
M  V30 3681 C 348.49 -1.44878 3.2967 0
M  V30 3682 C 348.343 -0.453789 4.47505 0
M  V30 3683 C 349.662 -2.38994 3.69554 0
M  V30 3684 H 346.781 -0.272724 0.684683 0
M  V30 3685 H 349.423 -0.0172113 1.89992 0
M  V30 3686 H 347.573 -2.077 3.28318 0
M  V30 3687 H 349.245 0.170371 4.60985 0
M  V30 3688 H 347.488 0.229552 4.33192 0
M  V30 3689 H 348.159 -0.977699 5.43273 0
M  V30 3690 H 350.635 -1.86239 3.72095 0
M  V30 3691 H 349.511 -2.84587 4.69363 0
M  V30 3692 H 349.772 -3.24461 3.00296 0
M  V30 3693 N 348.832 -1.54138 -0.328536 0
M  V30 3694 C 349.742 -1.86192 -1.42723 0
M  V30 3695 C 350.758 -0.753382 -1.56844 0
M  V30 3696 O 351.934 -1.04718 -1.72035 0
M  V30 3697 C 348.999 -2.07824 -2.77507 0
M  V30 3698 C 348.06 -3.31641 -2.72603 0
M  V30 3699 C 347.293 -3.52232 -4.00959 0
M  V30 3700 O 347.516 -2.7636 -4.9898 0
M  V30 3701 O 346.45 -4.45699 -4.0452 0
M  V30 3702 H 350.276 -2.79608 -1.18547 0
M  V30 3703 H 347.861 -1.3998 -0.522104 0
M  V30 3704 H 349.743 -2.23411 -3.57303 0
M  V30 3705 H 348.418 -1.17596 -3.01584 0
M  V30 3706 H 347.325 -3.21444 -1.91376 0
M  V30 3707 H 348.658 -4.2191 -2.53481 0
M  V30 3708 N 350.31 0.590341 -1.46126 0
M  V30 3709 C 351.587 1.35029 -1.41515 0
M  V30 3710 C 351.967 2.10888 -0.0946472 0
M  V30 3711 O 351.315 2.08998 0.923693 0
M  V30 3712 C 351.525 2.28269 -2.63997 0
M  V30 3713 C 352.873 2.90338 -3.09821 0
M  V30 3714 O 353.897 2.38585 -2.64492 0
M  V30 3715 O 352.756 3.84321 -3.88535 0
M  V30 3716 H 349.85 0.606317 -0.562413 0
M  V30 3717 H 352.396 0.611994 -1.58281 0
M  V30 3718 H 351.168 1.71591 -3.51671 0
M  V30 3719 H 350.791 3.0945 -2.49652 0
M  V30 3720 N 351.788 1.33704 0.83433 0
M  V30 3721 C 352.751 1.24244 1.92603 0
M  V30 3722 C 353.751 0.160383 1.59998 0
M  V30 3723 O 354.941 0.412228 1.69252 0
M  V30 3724 C 352.073 0.91555 3.28376 0
M  V30 3725 H 353.266 2.21287 2.02416 0
M  V30 3726 H 350.819 1.17827 1.02696 0
M  V30 3727 H 351.554 -0.0521886 3.24258 0
M  V30 3728 H 351.339 1.69811 3.53422 0
M  V30 3729 H 352.829 0.874231 4.08347 0
M  V30 3730 N 353.266 -1.05314 1.17247 0
M  V30 3731 C 354.176 -2.16538 0.90268 0
M  V30 3732 C 355.192 -1.73523 -0.128707 0
M  V30 3733 O 356.368 -2.01337 0.0502701 0
M  V30 3734 C 353.433 -3.44167 0.418356 0
M  V30 3735 C 352.494 -4.01635 1.51618 0
M  V30 3736 C 351.727 -5.23171 1.05487 0
M  V30 3737 O 351.95 -5.70327 -0.0914715 0
M  V30 3738 O 350.884 -5.72848 1.8474 0
M  V30 3739 H 354.71 -2.42145 1.83302 0
M  V30 3740 H 352.295 -1.15037 0.953246 0
M  V30 3741 H 354.177 -4.21112 0.155726 0
M  V30 3742 H 352.852 -3.20063 -0.48385 0
M  V30 3743 H 351.759 -3.26135 1.83268 0
M  V30 3744 H 353.092 -4.30053 2.39405 0
M  V30 3745 N 354.744 -0.972509 -1.24016 0
M  V30 3746 C 355.677 -0.45117 -2.23696 0
M  V30 3747 C 356.655 0.477378 -1.55434 0
M  V30 3748 O 357.839 0.407647 -1.84039 0
M  V30 3749 C 354.966 0.34818 -3.36906 0
M  V30 3750 C 354.012 -0.523355 -4.23277 0
M  V30 3751 S 354.845 -1.96647 -4.98087 0
M  V30 3752 C 356.001 -1.17604 -6.14752 0
M  V30 3753 H 356.234 -1.29588 -2.67571 0
M  V30 3754 H 353.767 -0.777903 -1.33372 0
M  V30 3755 H 355.725 0.803387 -4.02562 0
M  V30 3756 H 354.386 1.16792 -2.91579 0
M  V30 3757 H 353.579 0.0906181 -5.03919 0
M  V30 3758 H 353.181 -0.914485 -3.62647 0
M  V30 3759 H 355.473 -0.433434 -6.76112 0
M  V30 3760 H 356.416 -1.95701 -6.8052 0
M  V30 3761 H 356.824 -0.698295 -5.60164 0
M  V30 3762 N 356.222 1.38976 -0.743202 0
M  V30 3763 C 357.155 2.28128 -0.0572165 0
M  V30 3764 C 358.133 1.44827 0.739182 0
M  V30 3765 O 359.317 1.74207 0.720009 0
M  V30 3766 C 356.444 3.25796 0.926001 0
M  V30 3767 C 355.49 4.25947 0.217099 0
M  V30 3768 S 356.323 5.24604 -1.07477 0
M  V30 3769 C 357.479 6.25829 -0.0943545 0
M  V30 3770 H 357.712 2.85961 -0.813246 0
M  V30 3771 H 355.245 1.44822 -0.535341 0
M  V30 3772 H 357.203 3.82583 1.48797 0
M  V30 3773 H 355.864 2.66966 1.65493 0
M  V30 3774 H 355.057 4.94746 0.961372 0
M  V30 3775 H 354.659 3.73002 -0.273059 0
M  V30 3776 H 356.951 6.73411 0.743239 0
M  V30 3777 H 357.894 7.0412 -0.749713 0
M  V30 3778 H 358.302 5.63797 0.281706 0
M  V30 3779 N 357.7 0.491464 1.49741 0
M  V30 3780 C 358.925 -0.0557177 2.07325 0
M  V30 3781 C 359.35 -1.30925 1.35056 0
M  V30 3782 O 358.708 -1.76733 0.404365 0
M  V30 3783 C 358.756 -0.302074 3.59333 0
M  V30 3784 O 357.86 -1.37868 3.88672 0
M  V30 3785 H 357.201 0.0219956 0.663636 0
M  V30 3786 H 359.731 0.688352 1.92673 0
M  V30 3787 H 359.741 -0.536464 4.04458 0
M  V30 3788 H 358.416 0.61383 4.11345 0
M  V30 3789 H 356.993 -1.12999 3.55367 0
M  V30 3790 N 359.178 -1.55987 0.224894 0
M  V30 3791 C 360.594 -1.59066 -0.130426 0
M  V30 3792 C 360.794 -1.24176 -1.5869 0
M  V30 3793 O 359.85 -0.978592 -2.32766 0
M  V30 3794 C 361.163 -3.00042 0.198883 0
M  V30 3795 C 362.711 -3.1268 0.141391 0
M  V30 3796 C 363.186 -4.55839 0.444422 0
M  V30 3797 N 364.677 -4.6152 0.394115 0
M  V30 3798 C 365.412 -5.70231 0.602038 0
M  V30 3799 N 364.908 -6.87291 0.871914 0
M  V30 3800 N 366.701 -5.59555 0.534245 0
M  V30 3801 H 358.852 -1.76941 1.17497 0
M  V30 3802 H 361.115 -0.822604 0.471197 0
M  V30 3803 H 360.821 -3.30234 1.2099 0
M  V30 3804 H 360.695 -3.74075 -0.484535 0
M  V30 3805 H 363.082 -2.82283 -0.860265 0
M  V30 3806 H 363.163 -2.40969 0.858335 0
M  V30 3807 H 362.807 -4.86954 1.44353 0
M  V30 3808 H 362.737 -5.2578 -0.293752 0
M  V30 3809 H 365.228 -3.77405 0.193356 0
M  V30 3810 H 365.541 -7.66058 1.01858 0
M  V30 3811 H 363.886 -6.89028 0.909145 0
M  V30 3812 H 367.077 -4.6698 0.323612 0
M  V30 3813 H 367.25 -6.44211 0.699693 0
M  V30 3814 N 360.656 0.0484629 -1.57525 0
M  V30 3815 C 361.589 1.08755 -2.00618 0
M  V30 3816 C 362.567 1.36272 -0.887058 0
M  V30 3817 O 363.751 1.49255 -1.15131 0
M  V30 3818 C 360.878 2.42675 -2.36277 0
M  V30 3819 C 359.924 2.31142 -3.58435 0
M  V30 3820 S 360.757 1.68326 -5.08357 0
M  V30 3821 C 361.913 3.03776 -5.47239 0
M  V30 3822 H 362.146 0.720415 -2.88439 0
M  V30 3823 H 359.679 0.257801 -1.52233 0
M  V30 3824 H 361.637 3.19699 -2.57494 0
M  V30 3825 H 360.298 2.76541 -1.48942 0
M  V30 3826 H 359.491 3.29957 -3.80978 0
M  V30 3827 H 359.093 1.62258 -3.36969 0
M  V30 3828 H 361.385 4.00106 -5.46737 0
M  V30 3829 H 362.328 2.85988 -6.47778 0
M  V30 3830 H 362.736 3.05456 -4.74718 0
M  V30 3831 N 362.134 1.5431 0.320358 0
M  V30 3832 C 363.097 1.83195 1.3774 0
M  V30 3833 C 364.097 0.703906 1.44575 0
M  V30 3834 O 365.287 0.972214 1.44546 0
M  V30 3835 C 362.419 1.99487 2.76438 0
M  V30 3836 H 363.612 2.77642 1.1338 0
M  V30 3837 H 361.165 1.46076 0.556012 0
M  V30 3838 H 361.9 1.07262 3.06048 0
M  V30 3839 H 361.685 2.81575 2.7287 0
M  V30 3840 H 363.175 2.23271 3.52902 0
M  V30 3841 N 363.613 -0.582584 1.46437 0
M  V30 3842 C 364.838 -1.37168 1.55563 0
M  V30 3843 C 365.263 -1.87061 0.19743 0
M  V30 3844 O 364.621 -1.61572 -0.822451 0
M  V30 3845 C 364.669 -2.53511 2.56446 0
M  V30 3846 O 363.773 -3.54953 2.09958 0
M  V30 3847 H 363.114 -0.408494 0.523477 0
M  V30 3848 H 365.644 -0.706646 1.9201 0
M  V30 3849 H 365.654 -3.00426 2.76058 0
M  V30 3850 H 364.329 -2.16549 3.55076 0
M  V30 3851 H 362.906 -3.14516 2.00334 0
M  V30 3852 N 365.091 -1.34144 -0.827227 0
M  V30 3853 C 366.041 -1.21923 -1.92663 0
M  V30 3854 C 367.025 -0.119294 -1.60457 0
M  V30 3855 O 368.217 -0.348539 -1.73534 0
M  V30 3856 C 365.346 -0.972492 -3.29238 0
M  V30 3857 C 364.432 -2.1154 -3.67576 0
M  V30 3858 N 364.823 -3.36627 -3.77512 0
M  V30 3859 C 363.121 -2.02468 -3.97395 0
M  V30 3860 C 363.822 -4.11658 -4.1099 0
M  V30 3861 N 362.798 -3.40207 -4.23981 0
M  V30 3862 H 366.6 -2.16721 -1.98517 0
M  V30 3863 H 364.114 -1.2632 -1.02064 0
M  V30 3864 H 366.111 -0.865847 -4.0781 0
M  V30 3865 H 364.771 -0.0331509 -3.24683 0
M  V30 3866 H 365.782 -3.71234 -3.61118 0
M  V30 3867 H 362.459 -1.16265 -4.00985 0
M  V30 3868 H 363.849 -5.19657 -4.25918 0
M  V30 3869 N 366.569 1.04691 -1.17803 0
M  V30 3870 C 367.817 1.7743 -0.967617 0
M  V30 3871 C 368.138 1.88359 0.504574 0
M  V30 3872 O 367.408 1.40402 1.36617 0
M  V30 3873 H 365.988 0.657242 -0.355024 0
M  V30 3874 H 368.65 1.2638 -1.48371 0
M  V30 3875 H 367.746 2.78924 -1.40027 0
M  V30 3876 N 368.047 0.979072 1.23499 0
M  V30 3877 C 369.296 0.642751 1.91185 0
M  V30 3878 C 369.609 -0.827253 1.77245 0
M  V30 3879 O 370.815 -1.27458 2.39722 0
M  V30 3880 C 369.271 1.09901 3.42709 0
M  V30 3881 C 368.879 2.59327 3.65313 0
M  V30 3882 C 370.623 0.836371 4.16179 0
M  V30 3883 C 368.53 2.98627 5.10467 0
M  V30 3884 H 367.46 0.236698 0.715884 0
M  V30 3885 H 370.111 1.1868 1.39955 0
M  V30 3886 H 368.493 0.48319 3.93041 0
M  V30 3887 H 369.667 3.26136 3.25533 0
M  V30 3888 H 367.982 2.83323 3.05151 0
M  V30 3889 H 370.579 1.10586 5.23139 0
M  V30 3890 H 370.922 -0.227509 4.15678 0
M  V30 3891 H 371.455 1.41371 3.71832 0
M  V30 3892 H 368.194 4.04133 5.16098 0
M  V30 3893 H 367.714 2.3651 5.51201 0
M  V30 3894 H 369.393 2.89159 5.78788 0
M  V30 3895 N 369.525 -1.3858 0.750561 0
M  V30 3896 C 370.472 -2.30483 0.120835 0
M  V30 3897 C 371.442 -1.50022 -0.712923 0
M  V30 3898 O 372.627 -1.78662 -0.669676 0
M  V30 3899 C 369.767 -3.36431 -0.768666 0
M  V30 3900 C 368.88 -4.31927 0.0793922 0
M  V30 3901 C 368.015 -5.24944 -0.81283 0
M  V30 3902 C 367.054 -6.12088 0.0390447 0
M  V30 3903 N 366.191 -6.97412 -0.809969 0
M  V30 3904 H 371.031 -2.83761 0.91015 0
M  V30 3905 H 368.568 -1.39707 0.460463 0
M  V30 3906 H 370.526 -3.96462 -1.29898 0
M  V30 3907 H 369.156 -2.8457 -1.5238 0
M  V30 3908 H 368.208 -3.73382 0.727303 0
M  V30 3909 H 369.52 -4.93319 0.737401 0
M  V30 3910 H 368.674 -5.90078 -1.41042 0
M  V30 3911 H 367.413 -4.63911 -1.50458 0
M  V30 3912 H 366.418 -5.45952 0.649328 0
M  V30 3913 H 367.643 -6.75189 0.727809 0
M  V30 3914 H 365.589 -6.38931 -1.48672 0
M  V30 3915 H 365.506 -7.55712 -0.208789 0
M  V30 3916 H 366.774 -7.66959 -1.39263 0
M  V30 3917 N 371.003 -0.499398 -1.49478 0
M  V30 3918 C 372.252 0.0475259 -2.01644 0
M  V30 3919 C 372.565 1.38195 -1.38425 0
M  V30 3920 O 373.771 2.01547 -1.8191 0
M  V30 3921 C 372.227 0.135164 -3.59646 0
M  V30 3922 C 371.835 -1.19252 -4.31837 0
M  V30 3923 C 373.579 0.632538 -4.19761 0
M  V30 3924 C 371.486 -1.06713 -5.81693 0
M  V30 3925 H 370.416 0.0215349 -0.753692 0
M  V30 3926 H 373.067 -0.638577 -1.7203 0
M  V30 3927 H 371.449 0.885681 -3.85969 0
M  V30 3928 H 372.623 -1.9562 -4.17216 0
M  V30 3929 H 370.938 -1.62321 -3.83459 0
M  V30 3930 H 373.535 0.743833 -5.29501 0
M  V30 3931 H 373.878 1.63098 -3.83021 0
M  V30 3932 H 374.411 -0.0613987 -3.97753 0
M  V30 3933 H 371.15 -2.03979 -6.22955 0
M  V30 3934 H 370.67 -0.344307 -5.98811 0
M  V30 3935 H 372.349 -0.745208 -6.42694 0
M  V30 3936 N 372.481 1.55866 -0.233164 0
M  V30 3937 C 373.727 1.98897 0.395959 0
M  V30 3938 C 374.06 1.12091 1.58585 0
M  V30 3939 O 373.335 0.181182 1.93654 0
M  V30 3940 C 373.618 3.50658 0.819224 0
M  V30 3941 C 373.471 4.48233 -0.375109 0
M  V30 3942 C 374.79 4.07135 1.67121 0
M  V30 3943 H 371.909 0.723102 0.142451 0
M  V30 3944 H 374.551 1.87082 -0.331725 0
M  V30 3945 H 372.701 3.60857 1.43925 0
M  V30 3946 H 374.373 4.50031 -1.01341 0
M  V30 3947 H 372.616 4.21624 -1.02058 0
M  V30 3948 H 373.287 5.51988 -0.0358328 0
M  V30 3949 H 375.763 3.99952 1.14795 0
M  V30 3950 H 374.639 5.13615 1.93625 0
M  V30 3951 H 374.9 3.54736 2.63846 0
M  V30 3952 N 373.959 -0.0401083 1.57549 0
M  V30 3953 C 375.208 -0.732108 1.87944 0
M  V30 3954 C 375.521 -1.77107 0.830206 0
M  V30 3955 O 376.727 -2.51488 1.02302 0
M  V30 3956 C 375.183 -1.35315 3.33494 0
M  V30 3957 C 374.791 -0.351105 4.46622 0
M  V30 3958 C 376.535 -2.02566 3.73051 0
M  V30 3959 C 374.442 -0.979859 5.83226 0
M  V30 3960 H 373.372 -0.277188 0.701201 0
M  V30 3961 H 376.023 0.0138501 1.83495 0
M  V30 3962 H 374.405 -2.14844 3.32653 0
M  V30 3963 H 375.579 0.416674 4.58912 0
M  V30 3964 H 373.894 0.218708 4.15825 0
M  V30 3965 H 376.491 -2.50441 4.72423 0
M  V30 3966 H 376.834 -2.83904 3.04474 0
M  V30 3967 H 377.367 -1.29827 3.76018 0
M  V30 3968 H 374.106 -0.206135 6.55176 0
M  V30 3969 H 373.626 -1.71774 5.74677 0
M  V30 3970 H 375.305 -1.49046 6.29599 0
M  V30 3971 N 375.437 -1.54477 -0.31217 0
M  V30 3972 C 376.369 -1.81011 -1.40598 0
M  V30 3973 C 377.382 -0.692546 -1.47335 0
M  V30 3974 O 378.571 -0.969847 -1.49854 0
M  V30 3975 C 375.671 -1.92307 -2.79054 0
M  V30 3976 C 374.844 -3.22594 -2.95384 0
M  V30 3977 C 373.903 -3.24448 -4.1427 0
M  V30 3978 O 372.929 -3.98035 -4.06887 0
M  V30 3979 N 374.131 -2.49042 -5.24365 0
M  V30 3980 H 376.896 -2.75408 -1.18196 0
M  V30 3981 H 374.457 -1.53914 -0.502202 0
M  V30 3982 H 376.449 -1.90962 -3.56813 0
M  V30 3983 H 375.019 -1.04955 -2.94454 0
M  V30 3984 H 374.239 -3.36806 -2.04831 0
M  V30 3985 H 375.527 -4.08593 -3.03198 0
M  V30 3986 H 374.925 -1.88867 -5.33241 0
M  V30 3987 H 373.482 -2.53463 -6.005 0
M  V30 3988 N 376.915 0.57481 -1.46744 0
M  V30 3989 C 377.845 1.69337 -1.60771 0
M  V30 3990 C 378.826 1.63825 -0.457736 0
M  V30 3991 O 380.011 1.8172 -0.684947 0
M  V30 3992 C 377.141 3.0798 -1.60517 0
M  V30 3993 C 376.095 3.28327 -2.74564 0
M  V30 3994 C 375.421 4.67578 -2.59373 0
M  V30 3995 C 376.721 3.15398 -4.16319 0
M  V30 3996 H 378.415 1.57853 -2.54407 0
M  V30 3997 H 375.961 0.75799 -1.22436 0
M  V30 3998 H 377.914 3.86061 -1.68923 0
M  V30 3999 H 376.638 3.20381 -0.634305 0
M  V30 4000 H 375.297 2.52649 -2.65639 0
M  V30 4001 H 374.945 4.76755 -1.60353 0
M  V30 4002 H 374.645 4.82144 -3.35873 0
M  V30 4003 H 376.169 5.47817 -2.69682 0
M  V30 4004 H 377.583 3.83315 -4.26313 0
M  V30 4005 H 375.98 3.41482 -4.93468 0
M  V30 4006 H 377.05 2.12372 -4.3592 0
M  V30 4007 N 378.394 1.34581 0.820102 0
M  V30 4008 C 379.341 1.2639 1.93117 0
M  V30 4009 C 380.311 0.138554 1.65521 0
M  V30 4010 O 381.496 0.320004 1.88097 0
M  V30 4011 C 378.636 1.02812 3.29429 0
M  V30 4012 C 377.749 2.24146 3.693 0
M  V30 4013 C 376.884 1.93829 4.94574 0
M  V30 4014 C 375.923 3.1129 5.27034 0
M  V30 4015 N 375.06 2.80838 6.43486 0
M  V30 4016 H 379.9 2.21408 1.99455 0
M  V30 4017 H 377.437 1.10077 0.975784 0
M  V30 4018 H 379.395 0.871788 4.0799 0
M  V30 4019 H 378.025 0.114612 3.22596 0
M  V30 4020 H 377.077 2.50691 2.86109 0
M  V30 4021 H 378.389 3.11899 3.89257 0
M  V30 4022 H 377.543 1.74948 5.80929 0
M  V30 4023 H 376.282 1.03341 4.76626 0
M  V30 4024 H 375.287 3.30764 4.39175 0
M  V30 4025 H 376.512 4.02561 5.4692 0
M  V30 4026 H 374.458 1.92929 6.26988 0
M  V30 4027 H 374.375 3.62123 6.63629 0
M  V30 4028 H 375.643 2.65467 7.32903 0
M  V30 4029 N 379.872 -1.04064 1.18357 0
M  V30 4030 C 380.805 -2.11618 0.854 0
M  V30 4031 C 381.783 -1.61555 -0.184043 0
M  V30 4032 O 382.967 -1.88395 -0.0630048 0
M  V30 4033 C 380.094 -3.37574 0.27597 0
M  V30 4034 C 379.14 -4.06485 1.2912 0
M  V30 4035 S 379.973 -4.53543 2.84709 0
M  V30 4036 C 381.129 -5.82732 2.28417 0
M  V30 4037 H 381.362 -2.39247 1.76488 0
M  V30 4038 H 378.895 -1.16832 1.00944 0
M  V30 4039 H 380.853 -4.10468 -0.051026 0
M  V30 4040 H 379.514 -3.0806 -0.613028 0
M  V30 4041 H 378.707 -4.97024 0.835633 0
M  V30 4042 H 378.309 -3.39708 1.56443 0
M  V30 4043 H 380.601 -6.56677 1.66677 0
M  V30 4044 H 381.544 -6.33052 3.17256 0
M  V30 4045 H 381.952 -5.37838 1.71436 0
M  V30 4046 N 381.35 -0.985608 -1.22978 0
M  V30 4047 C 382.598 -0.656087 -1.91154 0
M  V30 4048 C 382.919 0.813561 -1.77218 0
M  V30 4049 O 382.189 1.58244 -1.1548 0
M  V30 4050 H 380.769 -0.239674 -0.707506 0
M  V30 4051 H 383.431 -1.25054 -1.49491 0
M  V30 4052 H 382.527 -0.912253 -2.9847 0
M  V30 4053 N 382.828 1.3818 -0.7579 0
M  V30 4054 C 383.791 2.28764 -0.141286 0
M  V30 4055 C 384.791 1.47388 0.642907 0
M  V30 4056 O 385.981 1.67781 0.468536 0
M  V30 4057 C 383.113 3.31184 0.808069 0
M  V30 4058 H 384.306 2.848 -0.939633 0
M  V30 4059 H 381.859 1.47212 -0.525191 0
M  V30 4060 H 382.594 2.80247 1.63193 0
M  V30 4061 H 382.379 3.91314 0.248104 0
M  V30 4062 H 383.869 3.98909 1.23536 0
M  V30 4063 N 384.306 0.507319 1.49211 0
M  V30 4064 C 385.253 -0.267728 2.29242 0
M  V30 4065 C 386.223 -0.954609 1.35928 0
M  V30 4066 O 387.408 -0.960046 1.64887 0
M  V30 4067 C 384.548 -1.32243 3.18756 0
M  V30 4068 C 383.661 -0.64669 4.27132 0
M  V30 4069 C 382.796 -1.68238 5.03855 0
M  V30 4070 C 381.835 -0.98885 6.0406 0
M  V30 4071 N 380.972 -1.96903 6.73924 0
M  V30 4072 H 385.812 0.420968 2.95012 0
M  V30 4073 H 383.349 0.219443 1.45454 0
M  V30 4074 H 385.307 -1.94599 3.69036 0
M  V30 4075 H 383.937 -1.97981 2.54958 0
M  V30 4076 H 382.989 0.0902926 3.80293 0
M  V30 4077 H 384.301 -0.101058 4.98698 0
M  V30 4078 H 383.455 -2.38081 5.58034 0
M  V30 4079 H 382.194 -2.26187 4.32077 0
M  V30 4080 H 381.199 -0.276222 5.49106 0
M  V30 4081 H 382.424 -0.415767 6.77826 0
M  V30 4082 H 380.37 -2.53803 6.04913 0
M  V30 4083 H 380.287 -1.47423 7.41487 0
M  V30 4084 H 381.555 -2.66015 7.32705 0
M  V30 4085 N 385.784 -1.5574 0.241426 0
M  V30 4086 C 387.012 -2.03208 -0.389134 0
M  V30 4087 C 387.427 -1.12082 -1.51931 0
M  V30 4088 O 386.784 -0.134183 -1.82006 0
M  V30 4089 C 386.835 -3.50064 -0.902087 0
M  V30 4090 O 386.556 -4.37717 0.18305 0
M  V30 4091 C 388.057 -4.13268 -1.60389 0
M  V30 4092 H 385.277 -0.664509 -0.0931053 0
M  V30 4093 H 387.821 -2.0124 0.36369 0
M  V30 4094 H 385.976 -3.52583 -1.60511 0
M  V30 4095 H 386.39 -5.24097 -0.205579 0
M  V30 4096 H 387.864 -5.17733 -1.91458 0
M  V30 4097 H 388.341 -3.59434 -2.52397 0
M  V30 4098 H 388.947 -4.14655 -0.945576 0
M  V30 4099 N 387.262 0.0317525 -1.57568 0
M  V30 4100 C 388.492 0.733884 -1.93126 0
M  V30 4101 C 388.9 1.69563 -0.839352 0
M  V30 4102 O 388.243 1.82681 0.193175 0
M  V30 4103 C 388.305 1.54798 -3.24465 0
M  V30 4104 C 387.969 0.751304 -4.50782 0
M  V30 4105 C 388.966 0.0527632 -5.19873 0
M  V30 4106 C 386.651 0.706639 -4.97305 0
M  V30 4107 C 388.645 -0.679774 -6.33765 0
M  V30 4108 C 386.332 -0.0296449 -6.11093 0
M  V30 4109 C 387.33 -0.721614 -6.79177 0
M  V30 4110 O 387.018 -1.44595 -7.90789 0
M  V30 4111 H 386.75 0.211459 -0.642076 0
M  V30 4112 H 389.304 -0.00585615 -2.05399 0
M  V30 4113 H 387.534 2.33147 -3.08512 0
M  V30 4114 H 389.223 2.13247 -3.4537 0
M  V30 4115 H 389.989 0.0783188 -4.84937 0
M  V30 4116 H 385.868 1.23474 -4.44157 0
M  V30 4117 H 389.412 -1.22042 -6.86842 0
M  V30 4118 H 385.309 -0.0571331 -6.45475 0
M  V30 4119 H 386.077 -1.35935 -8.07133 0
M  V30 4120 N 388.74 1.54641 0.303973 0
M  V30 4121 C 390.151 1.64811 0.877163 0
M  V30 4122 C 390.502 0.554838 1.88191 0
M  V30 4123 O 389.627 -0.309033 2.14182 0
M  V30 4124 C 390.222 2.9876 1.59775 0
M  V30 4125 C 388.781 3.11061 2.11938 0
M  V30 4126 C 387.928 2.60479 0.951097 0
M  V30 4127 H 390.879 1.58493 0.0810486 0
M  V30 4128 H 390.9 2.90017 2.46314 0
M  V30 4129 H 390.412 3.7831 0.866226 0
M  V30 4130 H 388.513 2.36225 2.88146 0
M  V30 4131 H 388.626 4.17171 2.35595 0
M  V30 4132 H 386.99 2.16859 1.33583 0
M  V30 4133 H 387.773 3.42504 0.233581 0
M  V30 4134 N 390.218 -0.567019 1.47046 0
M  V30 4135 C 391.495 -1.3276 1.43646 0
M  V30 4136 C 391.875 -2.1071 0.128186 0
M  V30 4137 O 391.223 -2.10441 -0.890326 0
M  V30 4138 C 391.433 -2.2404 2.67595 0
M  V30 4139 C 392.781 -2.85372 3.14401 0
M  V30 4140 O 393.805 -2.34346 2.68254 0
M  V30 4141 O 392.664 -3.78091 3.946 0
M  V30 4142 H 389.758 -0.597293 0.571988 0
M  V30 4143 H 392.304 -0.586735 1.59234 0
M  V30 4144 H 391.076 -1.65975 3.54356 0
M  V30 4145 H 390.699 -3.05439 2.54544 0
M  V30 4146 N 391.696 -1.35014 -0.812953 0
M  V30 4147 C 392.924 -1.31031 -1.6012 0
M  V30 4148 C 393.339 0.113558 -1.88458 0
M  V30 4149 O 392.696 1.06363 -1.48301 0
M  V30 4150 C 392.747 -2.10872 -2.93624 0
M  V30 4151 O 392.468 -3.47706 -2.66518 0
M  V30 4152 C 393.969 -2.14401 -3.88004 0
M  V30 4153 H 391.189 -0.45037 -0.497401 0
M  V30 4154 H 393.733 -1.77775 -1.01076 0
M  V30 4155 H 391.888 -1.67744 -3.492 0
M  V30 4156 H 392.302 -3.89097 -3.51715 0
M  V30 4157 H 393.776 -2.74669 -4.78812 0
M  V30 4158 H 394.253 -1.14105 -4.24119 0
M  V30 4159 H 394.859 -2.57662 -3.38364 0
M  V30 4160 N 393.175 1.03435 -1.18907 0
M  V30 4161 C 394.452 1.73778 -0.89781 0
M  V30 4162 C 394.832 2.02458 0.597832 0
M  V30 4163 O 394.18 1.67482 1.55441 0
M  V30 4164 C 394.39 3.01845 -1.75187 0
M  V30 4165 C 395.738 3.7546 -1.9828 0
M  V30 4166 O 396.762 3.11759 -1.72293 0
M  V30 4167 O 395.621 4.89966 -2.42065 0
M  V30 4168 H 392.715 0.75651 -0.334098 0
M  V30 4169 H 395.261 1.09444 -1.29693 0
M  V30 4170 H 394.033 2.76836 -2.76545 0
M  V30 4171 H 393.656 3.73919 -1.35167 0
M  V30 4172 N 394.653 0.992116 1.22453 0
M  V30 4173 C 395.878 0.685644 1.95739 0
M  V30 4174 C 396.303 -0.743 1.72804 0
M  V30 4175 O 395.661 -1.50778 1.00676 0
M  V30 4176 C 395.709 0.996293 3.46564 0
M  V30 4177 O 394.813 0.0945512 4.12292 0
M  V30 4178 H 394.154 0.256694 0.612376 0
M  V30 4179 H 396.684 1.32888 1.5557 0
M  V30 4180 H 396.694 0.93781 3.97076 0
M  V30 4181 H 395.369 2.03733 3.62582 0
M  V30 4182 H 393.946 0.208451 3.72317 0
M  V30 4183 N 396.131 -1.37776 0.765217 0
M  V30 4184 C 397.378 -1.99849 0.326588 0
M  V30 4185 C 397.706 -1.60746 -1.09504 0
M  V30 4186 O 396.961 -0.84202 -1.76659 0
M  V30 4187 C 397.26 -3.5504 0.410053 0
M  V30 4188 C 396.926 -4.13891 1.78899 0
M  V30 4189 C 395.588 -4.29678 2.16635 0
M  V30 4190 C 397.94 -4.46236 2.69301 0
M  V30 4191 C 395.268 -4.7511 3.44221 0
M  V30 4192 C 397.62 -4.93089 3.9629 0
M  V30 4193 C 396.284 -5.07082 4.34078 0
M  V30 4194 H 395.554 -0.7313 0.119507 0
M  V30 4195 H 398.201 -1.64645 0.977968 0
M  V30 4196 H 396.506 -3.90451 -0.324878 0
M  V30 4197 H 398.203 -4.00966 0.0520699 0
M  V30 4198 H 394.793 -4.02026 1.48569 0
M  V30 4199 H 398.977 -4.3363 2.41409 0
M  V30 4200 H 394.233 -4.84129 3.73402 0
M  V30 4201 H 398.407 -5.17084 4.66472 0
M  V30 4202 H 396.034 -5.42046 5.33001 0
M  V30 4203 N 397.609 -0.515225 -1.4894 0
M  V30 4204 C 398.557 0.269115 -2.31038 0
M  V30 4205 C 399.551 0.949443 -1.40292 0
M  V30 4206 O 400.757 0.87551 -1.57273 0
M  V30 4207 H 397.132 0.10565 -0.744542 0
M  V30 4208 H 399.103 -0.443096 -2.95092 0
M  V30 4209 C 397.852 1.31213 -3.21991 0
M  V30 4210 H 397.175 0.798034 -3.91754 0
M  V30 4211 H 398.615 1.83263 -3.82349 0
M  V30 4212 C 397.074 2.33791 -2.42576 0
M  V30 4213 O 397.604 3.3995 -2.14003 0
M  V30 4214 N 395.81 2.06625 -2.0434 0
M  V30 4215 H 395.357 1.20314 -2.27777 0
M  V30 4216 H 395.315 2.75483 -1.51514 0
M  V30 4217 N 399.087 1.5561 -0.249682 0
M  V30 4218 C 400.315 2.03411 0.378352 0
M  V30 4219 C 400.73 1.12886 1.51335 0
M  V30 4220 O 400.087 0.143833 1.81932 0
M  V30 4221 C 400.138 3.50537 0.88351 0
M  V30 4222 O 399.859 4.37614 -0.20626 0
M  V30 4223 C 401.36 4.14113 1.58195 0
M  V30 4224 H 398.58 0.664994 0.08958 0
M  V30 4225 H 401.124 2.01044 -0.374357 0
M  V30 4226 H 399.279 3.5343 1.58639 0
M  V30 4227 H 399.693 5.24199 0.177782 0
M  V30 4228 H 401.167 5.18741 1.8871 0
M  V30 4229 H 401.644 3.60767 2.50487 0
M  V30 4230 H 402.25 4.15151 0.923573 0
M  V30 4231 N 400.565 -0.0233959 1.57583 0
M  V30 4232 C 401.811 -0.714119 1.89811 0
M  V30 4233 C 402.144 -1.74702 0.848113 0
M  V30 4234 O 401.419 -1.94023 -0.136135 0
M  V30 4235 C 401.702 -1.37853 3.32669 0
M  V30 4236 C 401.555 -0.358764 4.48367 0
M  V30 4237 C 402.874 -2.31101 3.7454 0
M  V30 4238 H 399.993 -0.25814 0.690314 0
M  V30 4239 H 402.635 0.0230927 1.89986 0
M  V30 4240 H 400.785 -2.00689 3.3265 0
M  V30 4241 H 402.457 0.268115 4.6052 0
M  V30 4242 H 400.7 0.321387 4.32608 0
M  V30 4243 H 401.371 -0.862242 5.45224 0
M  V30 4244 H 403.847 -1.78304 3.75961 0
M  V30 4245 H 402.723 -2.74567 4.75294 0
M  V30 4246 H 402.984 -3.18018 3.0711 0
M  V30 4247 N 402.043 -1.548 -0.295768 0
M  V30 4248 C 403.006 -1.85363 -1.34808 0
M  V30 4249 C 404.006 -0.726817 -1.43436 0
M  V30 4250 O 405.196 -0.995088 -1.42981 0
M  V30 4251 C 402.328 -2.03859 -2.73229 0
M  V30 4252 H 403.521 -2.7941 -1.08949 0
M  V30 4253 H 401.074 -1.46942 -0.532702 0
M  V30 4254 H 401.809 -1.12117 -3.04303 0
M  V30 4255 H 401.594 -2.8588 -2.68356 0
M  V30 4256 H 403.084 -2.28857 -3.49305 0
M  V30 4257 N 403.521 0.559213 -1.47345 0
M  V30 4258 C 404.431 1.69388 -1.62311 0
M  V30 4259 C 405.447 1.6648 -0.505993 0
M  V30 4260 O 406.623 1.85964 -0.773262 0
M  V30 4261 C 403.688 3.05894 -1.63185 0
M  V30 4262 C 402.749 3.19885 -2.86307 0
M  V30 4263 C 401.982 4.49879 -2.87131 0
M  V30 4264 O 402.205 5.35217 -1.97229 0
M  V30 4265 O 401.139 4.67618 -3.78968 0
M  V30 4266 H 404.965 1.59706 -2.58317 0
M  V30 4267 H 402.55 0.728989 -1.30407 0
M  V30 4268 H 404.432 3.87133 -1.66451 0
M  V30 4269 H 403.107 3.15964 -0.70345 0
M  V30 4270 H 402.014 2.38052 -2.88587 0
M  V30 4271 H 403.347 3.14718 -3.78435 0
M  V30 4272 N 404.999 1.35443 0.805782 0
M  V30 4273 C 406.248 1.28097 1.55801 0
M  V30 4274 C 406.561 -0.142428 1.95081 0
M  V30 4275 O 407.767 -0.33817 2.69386 0
M  V30 4276 C 406.223 2.24653 2.81174 0
M  V30 4277 C 405.831 3.72342 2.49129 0
M  V30 4278 C 407.575 2.2625 3.59181 0
M  V30 4279 C 405.482 4.60719 3.70799 0
M  V30 4280 H 404.412 0.475937 0.584808 0
M  V30 4281 H 407.063 1.60712 0.885661 0
M  V30 4282 H 405.445 1.85011 3.50124 0
M  V30 4283 H 406.619 4.20624 1.88181 0
M  V30 4284 H 404.934 3.73361 1.84366 0
M  V30 4285 H 407.531 2.89495 4.49552 0
M  V30 4286 H 407.874 1.26647 3.96568 0
M  V30 4287 H 408.407 2.64426 2.97193 0
M  V30 4288 H 405.146 5.61324 3.3852 0
M  V30 4289 H 404.666 4.17163 4.3097 0
M  V30 4290 H 406.345 4.76182 4.38018 0
M  V30 4291 N 406.477 -1.02803 1.19454 0
M  V30 4292 C 407.705 -1.79841 1.02297 0
M  V30 4293 C 408.12 -1.83879 -0.428259 0
M  V30 4294 O 407.477 -1.28345 -1.29745 0
M  V30 4295 C 407.528 -3.24852 1.58598 0
M  V30 4296 O 407.249 -3.21097 2.98041 0
M  V30 4297 C 408.75 -4.18485 1.46236 0
M  V30 4298 H 405.97 -0.565936 0.360496 0
M  V30 4299 H 408.514 -1.2948 1.58288 0
M  V30 4300 H 406.669 -3.72401 1.06753 0
M  V30 4301 H 407.083 -4.12033 3.24545 0
M  V30 4302 H 408.557 -5.18121 1.90407 0
M  V30 4303 H 409.034 -4.37254 0.41301 0
M  V30 4304 H 409.64 -3.76811 1.97215 0
M  V30 4305 N 407.956 -0.998596 -1.21925 0
M  V30 4306 C 409.204 -0.676325 -1.90448 0
M  V30 4307 C 409.525 0.794719 -1.78071 0
M  V30 4308 O 408.795 1.5701 -1.17152 0
M  V30 4309 H 407.375 -0.247165 -0.704925 0
M  V30 4310 H 410.037 -1.26633 -1.48156 0
M  V30 4311 H 409.133 -0.943858 -2.97486 0
M  V30 4312 N 409.434 1.37368 -0.772513 0
M  V30 4313 C 410.659 2.0447 -0.347386 0
M  V30 4314 C 411.084 1.57882 1.0225 0
M  V30 4315 O 410.442 0.73941 1.65537 0
M  V30 4316 C 410.49 3.58369 -0.400479 0
M  V30 4317 O 409.594 4.0803 0.598789 0
M  V30 4318 H 408.935 0.646773 -0.15027 0
M  V30 4319 H 411.465 1.75667 -1.04892 0
M  V30 4320 H 411.475 4.07183 -0.258045 0
M  V30 4321 H 410.15 3.91633 -1.39986 0
M  V30 4322 H 408.727 3.70534 0.419411 0
M  V30 4323 N 410.912 0.523116 1.48665 0
M  V30 4324 C 411.859 -0.243398 2.29513 0
M  V30 4325 C 412.829 -0.940139 1.36933 0
M  V30 4326 O 414.014 -0.942503 1.65896 0
M  V30 4327 C 411.154 -1.28855 3.20141 0
M  V30 4328 C 410.267 -0.60135 4.27794 0
M  V30 4329 C 409.402 -1.62884 5.05611 0
M  V30 4330 C 408.441 -0.924726 6.05075 0
M  V30 4331 N 407.578 -1.89744 6.75975 0
M  V30 4332 H 412.418 0.452234 2.94549 0
M  V30 4333 H 409.955 0.234858 1.45213 0
M  V30 4334 H 411.913 -1.90674 3.71079 0
M  V30 4335 H 410.543 -1.95266 2.57043 0
M  V30 4336 H 409.595 0.130623 3.80176 0
M  V30 4337 H 410.907 -0.0481585 4.98777 0
M  V30 4338 H 410.061 -2.32149 5.60528 0
M  V30 4339 H 408.8 -2.21592 4.34452 0
M  V30 4340 H 407.805 -0.217966 5.49368 0
M  V30 4341 H 409.03 -0.343851 6.78229 0
M  V30 4342 H 406.976 -2.47373 6.07571 0
M  V30 4343 H 406.893 -1.3955 7.43009 0
M  V30 4344 H 408.161 -2.58229 7.35485 0
M  V30 4345 N 412.39 -1.55475 0.257931 0
M  V30 4346 C 413.62 -2.03314 -0.367026 0
M  V30 4347 C 414.028 -1.13625 -1.51281 0
M  V30 4348 O 413.371 -0.145334 -1.83124 0
M  V30 4349 C 413.433 -3.47362 -0.926284 0
M  V30 4350 C 413.097 -4.56914 0.0886584 0
M  V30 4351 C 414.094 -5.12013 0.902123 0
M  V30 4352 C 411.779 -5.01827 0.217936 0
M  V30 4353 C 413.773 -6.10529 1.83122 0
M  V30 4354 C 411.46 -6.00172 1.15052 0
M  V30 4355 C 412.458 -6.54402 1.95568 0
M  V30 4356 O 412.146 -7.50827 2.87253 0
M  V30 4357 H 411.878 -0.669976 -0.0900443 0
M  V30 4358 H 414.432 -2.01804 0.382673 0
M  V30 4359 H 412.662 -3.46056 -1.72575 0
M  V30 4360 H 414.351 -3.78637 -1.46249 0
M  V30 4361 H 415.117 -4.78139 0.812891 0
M  V30 4362 H 410.996 -4.59272 -0.398721 0
M  V30 4363 H 414.54 -6.52783 2.46008 0
M  V30 4364 H 410.437 -6.33465 1.24064 0
M  V30 4365 H 411.205 -7.68483 2.81739 0
M  V30 4366 N 413.868 0.0150385 -1.57593 0
M  V30 4367 C 415.279 0.559832 -1.78109 0
M  V30 4368 C 415.63 1.74814 -0.890756 0
M  V30 4369 O 414.755 2.16216 -0.0892482 0
M  V30 4370 C 415.35 1.02238 -3.23006 0
M  V30 4371 C 413.909 1.51258 -3.44671 0
M  V30 4372 C 413.056 0.456955 -2.73509 0
M  V30 4373 H 416.007 -0.211169 -1.57289 0
M  V30 4374 H 416.028 1.88912 -3.30292 0
M  V30 4375 H 415.54 0.157302 -3.87781 0
M  V30 4376 H 413.641 2.39905 -2.8509 0
M  V30 4377 H 413.754 1.55042 -4.5332 0
M  V30 4378 H 412.118 0.915196 -2.37689 0
M  V30 4379 H 412.901 -0.398896 -3.40975 0
M  V30 4380 N 415.346 1.54954 0.287554 0
M  V30 4381 C 416.256 1.8991 1.37736 0
M  V30 4382 C 417.272 0.794701 1.54792 0
M  V30 4383 O 418.448 1.09243 1.69198 0
M  V30 4384 C 415.513 2.15108 2.71899 0
M  V30 4385 C 414.574 3.38752 2.63715 0
M  V30 4386 C 413.807 3.62739 3.91479 0
M  V30 4387 O 414.03 2.89492 4.91478 0
M  V30 4388 O 412.964 4.56267 3.92561 0
M  V30 4389 H 416.79 2.82652 1.11092 0
M  V30 4390 H 414.375 1.41315 0.484807 0
M  V30 4391 H 416.257 2.32806 3.51254 0
M  V30 4392 H 414.932 1.25551 2.9836 0
M  V30 4393 H 413.839 3.26405 1.82786 0
M  V30 4394 H 415.172 4.28483 2.42205 0
M  V30 4395 N 416.824 -0.551391 1.4764 0
M  V30 4396 C 417.756 -1.67333 1.56628 0
M  V30 4397 C 418.769 -1.56398 0.452045 0
M  V30 4398 O 419.958 -1.6325 0.721926 0
M  V30 4399 C 417.058 -3.05841 1.45994 0
M  V30 4400 C 416.231 -3.42472 2.72088 0
M  V30 4401 C 415.29 -4.60168 2.55209 0
M  V30 4402 O 414.316 -4.64458 3.2904 0
M  V30 4403 N 415.518 -5.57024 1.63416 0
M  V30 4404 H 418.283 -1.60066 2.53375 0
M  V30 4405 H 415.844 -0.738169 1.44093 0
M  V30 4406 H 417.836 -3.8242 1.32428 0
M  V30 4407 H 416.406 -3.07302 0.573071 0
M  V30 4408 H 415.626 -2.55284 3.00373 0
M  V30 4409 H 416.914 -3.63723 3.55785 0
M  V30 4410 H 416.312 -5.56319 1.02594 0
M  V30 4411 H 414.869 -6.32906 1.558 0
M  V30 4412 N 418.302 -1.35869 -0.798587 0
M  V30 4413 C 419.548 -1.2978 -1.55836 0
M  V30 4414 C 419.881 0.125322 -1.93795 0
M  V30 4415 O 419.156 1.07658 -1.61987 0
M  V30 4416 C 419.439 -2.21188 -2.84162 0
M  V30 4417 C 419.292 -3.72155 -2.52628 0
M  V30 4418 C 420.611 -2.11545 -3.85923 0
M  V30 4419 H 417.73 -0.472769 -0.565383 0
M  V30 4420 H 420.372 -1.66341 -0.918192 0
M  V30 4421 H 418.522 -1.90139 -3.38791 0
M  V30 4422 H 420.194 -4.13682 -2.04121 0
M  V30 4423 H 418.437 -3.92042 -1.85704 0
M  V30 4424 H 419.108 -4.31511 -3.44242 0
M  V30 4425 H 421.584 -2.38855 -3.40716 0
M  V30 4426 H 420.46 -2.77688 -4.73477 0
M  V30 4427 H 420.721 -1.09987 -4.282 0
M  V30 4428 N 419.78 1.02168 -1.19998 0
M  V30 4429 C 421.026 1.75945 -1.00852 0
M  V30 4430 C 421.359 1.88702 0.458828 0
M  V30 4431 O 420.634 1.40911 1.34069 0
M  V30 4432 C 420.917 3.18154 -1.68671 0
M  V30 4433 C 420.77 3.13224 -3.22817 0
M  V30 4434 C 422.089 4.16711 -1.41561 0
M  V30 4435 H 419.208 0.638673 -0.367785 0
M  V30 4436 H 421.85 1.19222 -1.4794 0
M  V30 4437 H 420 3.66586 -1.28636 0
M  V30 4438 H 421.672 2.72635 -3.72112 0
M  V30 4439 H 419.915 2.50751 -3.53986 0
M  V30 4440 H 420.586 4.13728 -3.65422 0
M  V30 4441 H 423.062 3.76913 -1.76284 0
M  V30 4442 H 421.938 5.14391 -1.91553 0
M  V30 4443 H 422.199 4.40774 -0.342193 0
M  V30 4444 N 421.258 1.00505 1.21394 0
M  V30 4445 C 422.188 0.585684 2.26035 0
M  V30 4446 C 423.169 -0.393525 1.65485 0
M  V30 4447 O 424.354 -0.281497 1.92149 0
M  V30 4448 C 421.484 -0.0884283 3.47187 0
M  V30 4449 C 420.438 0.810567 4.20254 0
M  V30 4450 C 419.764 0.00286382 5.347 0
M  V30 4451 C 421.064 2.1132 4.77641 0
M  V30 4452 H 422.758 1.46039 2.61368 0
M  V30 4453 H 420.304 0.703648 1.25638 0
M  V30 4454 H 422.257 -0.393286 4.19561 0
M  V30 4455 H 420.981 -0.997766 3.10986 0
M  V30 4456 H 419.64 1.09925 3.49731 0
M  V30 4457 H 419.288 -0.907765 4.94741 0
M  V30 4458 H 418.988 0.601444 5.84514 0
M  V30 4459 H 420.512 -0.295808 6.09883 0
M  V30 4460 H 421.926 1.87148 5.41893 0
M  V30 4461 H 420.323 2.66164 5.37845 0
M  V30 4462 H 421.393 2.78393 3.9702 0
M  V30 4463 N 422.737 -1.36956 0.779787 0
M  V30 4464 C 423.983 -1.99787 0.348281 0
M  V30 4465 C 424.316 -1.61756 -1.07465 0
M  V30 4466 O 423.591 -0.867639 -1.74075 0
M  V30 4467 C 423.874 -3.56597 0.50104 0
M  V30 4468 C 423.727 -4.04513 1.96697 0
M  V30 4469 C 425.046 -4.40008 -0.0898097 0
M  V30 4470 H 422.165 -0.725796 0.128022 0
M  V30 4471 H 424.807 -1.62514 0.984331 0
M  V30 4472 H 422.957 -3.88479 -0.0404347 0
M  V30 4473 H 424.629 -3.83161 2.56876 0
M  V30 4474 H 422.872 -3.56408 2.47297 0
M  V30 4475 H 423.543 -5.1352 2.02486 0
M  V30 4476 H 426.019 -4.14431 0.372293 0
M  V30 4477 H 424.895 -5.4888 0.0471605 0
M  V30 4478 H 425.156 -4.26035 -1.18096 0
M  V30 4479 N 424.215 -0.530993 -1.48385 0
M  V30 4480 C 425.44 0.000729535 -2.074 0
M  V30 4481 C 425.865 1.27298 -1.3848 0
M  V30 4482 O 425.223 1.75599 -0.451081 0
M  V30 4483 C 425.271 0.206697 -3.60007 0
M  V30 4484 O 424.375 1.27514 -3.92191 0
M  V30 4485 H 423.716 -0.039583 -0.662819 0
M  V30 4486 H 426.246 -0.739194 -1.9078 0
M  V30 4487 H 426.256 0.42904 -4.05738 0
M  V30 4488 H 424.931 -0.722675 -4.09573 0
M  V30 4489 H 423.508 1.03537 -3.58238 0
M  V30 4490 N 425.693 1.55336 -0.266172 0
M  V30 4491 C 426.941 1.99003 0.35246 0
M  V30 4492 C 427.262 1.15591 1.57047 0
M  V30 4493 O 426.532 0.243268 1.94384 0
M  V30 4494 H 425.112 0.735025 0.133217 0
M  V30 4495 H 427.774 1.91367 -0.369434 0
M  V30 4496 H 426.87 3.05289 0.648453 0
M  V30 4497 N 427.171 -0.0066808 1.57599 0
M  V30 4498 C 428.121 -1.0086 2.04478 0
M  V30 4499 C 429.105 -1.30714 0.938231 0
M  V30 4500 O 430.297 -1.29924 1.20203 0
M  V30 4501 C 427.426 -2.30273 2.54615 0
M  V30 4502 C 426.512 -2.03413 3.72134 0
M  V30 4503 N 426.903 -1.46688 4.84062 0
M  V30 4504 C 425.201 -2.33589 3.79937 0
M  V30 4505 C 425.902 -1.36146 5.65543 0
M  V30 4506 N 424.878 -1.84477 5.1134 0
M  V30 4507 H 428.68 -0.564402 2.8843 0
M  V30 4508 H 426.194 -0.212521 1.61003 0
M  V30 4509 H 428.191 -3.02885 2.86472 0
M  V30 4510 H 426.851 -2.75352 1.72079 0
M  V30 4511 H 427.862 -1.14658 5.05049 0
M  V30 4512 H 424.539 -2.81589 3.08243 0
M  V30 4513 H 425.929 -0.925873 6.6549 0
M  V30 4514 N 428.649 -1.55105 -0.279332 0
M  V30 4515 C 429.579 -1.90557 -1.34945 0
M  V30 4516 C 430.56 -0.766738 -1.51839 0
M  V30 4517 O 431.745 -1.02434 -1.64988 0
M  V30 4518 C 428.875 -2.17193 -2.71006 0
M  V30 4519 C 427.829 -3.33021 -2.68851 0
M  V30 4520 C 427.155 -3.45123 -4.08405 0
M  V30 4521 C 428.455 -4.69578 -2.28678 0
M  V30 4522 H 430.149 -2.80188 -1.05522 0
M  V30 4523 H 427.695 -1.34811 -0.506173 0
M  V30 4524 H 429.648 -2.40581 -3.45975 0
M  V30 4525 H 428.372 -1.24355 -3.01999 0
M  V30 4526 H 427.031 -3.0959 -1.9634 0
M  V30 4527 H 426.679 -2.49762 -4.3661 0
M  V30 4528 H 426.379 -4.22995 -4.07859 0
M  V30 4529 H 427.903 -3.70796 -4.85121 0
M  V30 4530 H 429.317 -4.92553 -2.93368 0
M  V30 4531 H 427.714 -5.5032 -2.39306 0
M  V30 4532 H 428.784 -4.68828 -1.23807 0
M  V30 4533 N 430.127 0.543554 -1.4793 0
M  V30 4534 C 431.404 1.30458 -1.4574 0
M  V30 4535 C 431.784 2.1048 -0.161692 0
M  V30 4536 O 431.132 2.11831 0.856734 0
M  V30 4537 C 431.342 2.19754 -2.71126 0
M  V30 4538 C 432.69 2.80334 -3.18901 0
M  V30 4539 O 433.714 2.30049 -2.71948 0
M  V30 4540 O 432.573 3.71766 -4.00565 0
M  V30 4541 H 429.667 0.588117 -0.581418 0
M  V30 4542 H 432.213 0.561328 -1.60147 0
M  V30 4543 H 430.985 1.60316 -3.56952 0
M  V30 4544 H 430.608 3.01351 -2.59371 0
M  V30 4545 N 431.605 1.3629 0.791371 0
M  V30 4546 C 432.83 1.33726 1.58531 0
M  V30 4547 C 433.255 -0.0794933 1.87932 0
M  V30 4548 O 432.613 -1.05087 1.47738 0
M  V30 4549 C 432.661 2.16425 2.88431 0
M  V30 4550 O 431.765 1.5554 3.81944 0
M  V30 4551 H 431.106 0.457793 0.480959 0
M  V30 4552 H 433.636 1.79547 0.981031 0
M  V30 4553 H 433.646 2.28933 3.37718 0
M  V30 4554 H 432.321 3.19415 2.66359 0
M  V30 4555 H 430.898 1.51961 3.40532 0
M  V30 4556 N 433.083 -1.0153 1.20538 0
M  V30 4557 C 434.329 -1.75517 1.02787 0
M  V30 4558 C 434.684 -1.87411 -0.435289 0
M  V30 4559 O 433.977 -1.38982 -1.31889 0
M  V30 4560 C 434.171 -3.17213 1.64654 0
M  V30 4561 C 434 -3.19134 3.16834 0
M  V30 4562 C 432.77 -3.26301 3.85818 0
M  V30 4563 C 434.968 -3.05077 4.14044 0
M  V30 4564 N 432.95 -3.17739 5.25276 0
M  V30 4565 C 434.321 -3.04299 5.40187 0
M  V30 4566 C 436.376 -2.89303 4.05226 0
M  V30 4567 C 435.079 -2.89365 6.58529 0
M  V30 4568 C 437.105 -2.75723 5.23193 0
M  V30 4569 C 436.467 -2.75612 6.48242 0
M  V30 4570 H 432.566 -0.652919 0.430373 0
M  V30 4571 H 435.15 -1.20755 1.52729 0
M  V30 4572 H 433.321 -3.70266 1.17294 0
M  V30 4573 H 435.053 -3.79637 1.40208 0
M  V30 4574 H 431.808 -3.33078 3.36684 0
M  V30 4575 H 432.232 -3.16829 5.98288 0
M  V30 4576 H 436.874 -2.88201 3.09354 0
M  V30 4577 H 434.592 -2.89216 7.54573 0
M  V30 4578 H 438.178 -2.64533 5.18183 0
M  V30 4579 H 437.058 -2.65224 7.37988 0
M  V30 4580 N 434.561 -1.01147 -1.20859 0
M  V30 4581 C 435.838 -0.613136 -1.85742 0
M  V30 4582 C 436.218 0.909004 -1.90526 0
M  V30 4583 O 435.566 1.79862 -1.40932 0
M  V30 4584 C 435.776 -1.255 -3.25654 0
M  V30 4585 C 437.124 -1.3672 -4.01986 0
M  V30 4586 O 438.148 -1.21082 -3.34989 0
M  V30 4587 O 437.007 -1.6194 -5.21956 0
M  V30 4588 H 434.101 -0.210878 -0.799662 0
M  V30 4589 H 436.647 -1.10853 -1.2849 0
M  V30 4590 H 435.419 -2.29532 -3.16908 0
M  V30 4591 H 435.042 -0.746369 -3.90532 0
M  V30 4592 N 436.039 1.36541 -0.78704 0
M  V30 4593 C 437.285 1.99599 -0.358872 0
M  V30 4594 C 437.618 1.62323 1.06606 0
M  V30 4595 O 436.893 0.876858 1.73613 0
M  V30 4596 C 437.176 3.56327 -0.519944 0
M  V30 4597 C 437.029 4.03464 -1.98839 0
M  V30 4598 C 438.348 4.4005 0.0664737 0
M  V30 4599 H 435.467 0.725107 -0.131869 0
M  V30 4600 H 438.109 1.6199 -0.992936 0
M  V30 4601 H 436.259 3.88495 0.0198321 0
M  V30 4602 H 437.931 3.81793 -2.58905 0
M  V30 4603 H 436.174 3.55092 -2.49183 0
M  V30 4604 H 436.845 5.12439 -2.05207 0
M  V30 4605 H 439.321 4.14228 -0.394267 0
M  V30 4606 H 438.197 5.48847 -0.0762682 0
M  V30 4607 H 438.458 4.26655 1.15835 0
M  V30 4608 N 437.518 0.538854 1.48102 0
M  V30 4609 C 438.766 0.00798599 2.02098 0
M  V30 4610 C 439.087 -1.33922 1.41739 0
M  V30 4611 O 438.357 -1.86932 0.585934 0
M  V30 4612 H 436.937 -3.62179e-05 0.747 0
M  V30 4613 H 439.599 0.7047 1.81714 0
M  V30 4614 H 438.695 -0.0937672 3.11959 0
M  V30 4615 N 438.996 -1.55193 0.274407 0
M  V30 4616 C 439.928 -2.1989 -0.646595 0
M  V30 4617 C 440.941 -1.1834 -1.11801 0
M  V30 4618 O 442.13 -1.4507 -1.04004 0
M  V30 4619 C 439.23 -2.8104 -1.89393 0
M  V30 4620 C 438.403 -4.08274 -1.56943 0
M  V30 4621 C 437.462 -4.53478 -2.66916 0
M  V30 4622 O 436.488 -5.19267 -2.33132 0
M  V30 4623 N 437.69 -4.2356 -3.9696 0
M  V30 4624 H 440.455 -2.99556 -0.0928686 0
M  V30 4625 H 438.016 -1.61618 0.0954783 0
M  V30 4626 H 440.008 -3.08226 -2.62257 0
M  V30 4627 H 438.578 -2.05372 -2.35672 0
M  V30 4628 H 437.798 -3.88384 -0.674655 0
M  V30 4629 H 439.086 -4.91173 -1.32764 0
M  V30 4630 H 438.484 -3.70799 -4.27229 0
M  V30 4631 H 437.041 -4.55518 -4.66205 0
M  V30 4632 N 440.474 -0.00167713 -1.576 0
M  V30 4633 C 441.722 0.681471 -1.90264 0
M  V30 4634 C 442.043 1.7422 -0.875924 0
M  V30 4635 O 441.313 1.95709 0.0864412 0
M  V30 4636 H 439.893 0.254696 -0.702239 0
M  V30 4637 H 442.555 -0.0429996 -1.94853 0
M  V30 4638 H 441.651 1.15166 -2.90075 0
M  V30 4639 N 441.952 1.55251 0.271103 0
M  V30 4640 C 442.915 1.87484 1.31842 0
M  V30 4641 C 443.915 0.749545 1.42262 0
M  V30 4642 O 445.105 1.01771 1.4138 0
M  V30 4643 C 442.237 2.0818 2.69951 0
M  V30 4644 H 443.43 2.81108 1.0449 0
M  V30 4645 H 440.983 1.47771 0.509258 0
M  V30 4646 H 441.718 1.16944 3.02481 0
M  V30 4647 H 441.503 2.90114 2.63774 0
M  V30 4648 H 442.993 2.34385 3.4562 0
M  V30 4649 N 443.43 -0.535701 1.48216 0
M  V30 4650 C 444.363 -1.65726 1.56876 0
M  V30 4651 C 445.341 -1.57094 0.419542 0
M  V30 4652 O 446.525 -1.77648 0.630352 0
M  V30 4653 C 443.652 -3.04096 1.49142 0
M  V30 4654 C 442.698 -3.31105 2.68834 0
M  V30 4655 S 443.531 -3.18001 4.30854 0
M  V30 4656 C 444.687 -4.58828 4.25709 0
M  V30 4657 H 444.92 -1.58129 2.51759 0
M  V30 4658 H 442.453 -0.718218 1.36678 0
M  V30 4659 H 444.411 -3.839 1.45366 0
M  V30 4660 H 443.072 -3.09139 0.556067 0
M  V30 4661 H 442.265 -4.32033 2.59545 0
M  V30 4662 H 441.867 -2.58961 2.69843 0
M  V30 4663 H 444.159 -5.5023 3.95289 0
M  V30 4664 H 445.102 -4.73172 5.26796 0
M  V30 4665 H 445.51 -4.37883 3.56257 0
M  V30 4666 N 444.908 -1.36708 -0.784132 0
M  V30 4667 C 446.185 -1.21776 -1.53069 0
M  V30 4668 C 446.565 0.193876 -2.10208 0
M  V30 4669 O 445.913 1.20012 -1.94446 0
M  V30 4670 C 446.123 -2.30395 -2.62143 0
M  V30 4671 C 447.471 -2.67325 -3.29882 0
M  V30 4672 O 448.495 -2.29478 -2.7243 0
M  V30 4673 O 447.354 -3.32485 -4.33724 0
M  V30 4674 H 444.448 -0.474459 -0.677361 0
M  V30 4675 H 446.994 -1.48454 -0.82216 0
M  V30 4676 H 445.766 -3.2498 -2.17953 0
M  V30 4677 H 445.389 -2.05112 -3.40609 0
M  V30 4678 N 446.386 1.0089 -1.21074 0
M  V30 4679 C 447.663 1.71834 -0.934469 0
M  V30 4680 C 448.043 2.0368 0.554753 0
M  V30 4681 O 447.391 1.70742 1.51854 0
M  V30 4682 C 447.601 2.98061 -1.8155 0
M  V30 4683 C 448.949 3.7117 -2.06199 0
M  V30 4684 O 449.973 3.08034 -1.78867 0
M  V30 4685 O 448.832 4.84721 -2.52404 0
M  V30 4686 H 445.926 0.749253 -0.35007 0
M  V30 4687 H 448.472 1.06668 -1.31985 0
M  V30 4688 H 447.244 2.70908 -2.82355 0
M  V30 4689 H 446.867 3.70968 -1.43068 0
M  V30 4690 N 447.864 1.01787 1.20321 0
M  V30 4691 C 449.112 0.706538 1.89347 0
M  V30 4692 C 449.433 -0.766289 1.79313 0
M  V30 4693 O 448.703 -1.55126 1.19635 0
M  V30 4694 H 447.283 0.258348 0.700903 0
M  V30 4695 H 449.945 1.28974 1.46122 0
M  V30 4696 H 449.041 0.991066 2.95946 0
M  V30 4697 N 449.342 -1.36122 0.79427 0
M  V30 4698 C 450.59 -1.98718 0.368177 0
M  V30 4699 C 450.911 -1.63345 -1.06506 0
M  V30 4700 O 450.181 -0.909825 -1.73491 0
M  V30 4701 H 448.761 -0.735038 0.133146 0
M  V30 4702 H 451.423 -1.66239 1.01739 0
M  V30 4703 H 450.519 -3.08633 0.463923 0
M  V30 4704 N 450.82 -0.546701 -1.47814 0
M  V30 4705 C 452.068 -0.0187037 -2.02091 0
M  V30 4706 C 452.389 1.33168 -1.42447 0
M  V30 4707 O 451.659 1.86619 -0.595839 0
M  V30 4708 H 450.239 -0.00392531 -0.74699 0
M  V30 4709 H 452.901 -0.714327 -1.81338 0
M  V30 4710 H 451.997 0.0772219 -3.12004 0
M  V30 4711 N 452.299 1.55045 -0.282633 0
M  V30 4712 C 453.262 2.21515 0.588539 0
M  V30 4713 C 454.262 1.19535 1.07554 0
M  V30 4714 O 455.452 1.44391 0.974514 0
M  V30 4715 C 452.584 2.88704 1.8128 0
M  V30 4716 H 453.777 2.99899 0.00806397 0
M  V30 4717 H 451.33 1.56265 -0.0333067 0
M  V30 4718 H 452.065 2.14352 2.43359 0
M  V30 4719 H 451.85 3.63443 1.47144 0
M  V30 4720 H 453.34 3.39465 2.43214 0
M  V30 4721 N 453.777 0.010035 1.57597 0
M  V30 4722 C 455.024 -0.6727 1.91 0
M  V30 4723 C 455.352 -1.73219 0.884614 0
M  V30 4724 O 454.607 -1.95395 -0.109215 0
M  V30 4725 C 454.906 -1.34434 3.31153 0
M  V30 4726 C 454.572 -0.417083 4.48967 0
M  V30 4727 C 453.234 -0.161809 4.80928 0
M  V30 4728 C 455.586 0.220753 5.20732 0
M  V30 4729 C 452.914 0.739426 5.82022 0
M  V30 4730 C 455.266 1.10993 6.22787 0
M  V30 4731 C 453.93 1.37428 6.532 0
M  V30 4732 H 453.2 -0.246158 0.698918 0
M  V30 4733 H 455.847 0.0677145 1.9138 0
M  V30 4734 H 454.152 -2.15905 3.26944 0
M  V30 4735 H 455.849 -1.87883 3.54261 0
M  V30 4736 H 452.439 -0.626217 4.24001 0
M  V30 4737 H 456.623 0.0365643 4.96287 0
M  V30 4738 H 451.879 0.952139 6.03941 0
M  V30 4739 H 456.053 1.61046 6.77523 0
M  V30 4740 H 453.68 2.0743 7.31353 0
M  V30 4741 N 455.255 -1.55392 -0.262866 0
M  V30 4742 C 456.504 -1.75679 -0.990943 0
M  V30 4743 C 456.817 -0.57097 -1.87081 0
M  V30 4744 O 458.023 -0.656486 -2.63444 0
M  V30 4745 C 456.479 -3.10964 -1.81188 0
M  V30 4746 C 456.087 -4.37146 -0.980188 0
M  V30 4747 C 457.831 -3.40597 -2.53365 0
M  V30 4748 C 455.738 -5.63466 -1.7961 0
M  V30 4749 H 454.668 -0.654868 -0.373716 0
M  V30 4750 H 457.319 -1.81841 -0.246203 0
M  V30 4751 H 455.701 -2.98867 -2.59797 0
M  V30 4752 H 456.875 -4.60187 -0.237558 0
M  V30 4753 H 455.19 -4.14731 -0.372497 0
M  V30 4754 H 457.787 -4.32186 -3.14833 0
M  V30 4755 H 458.13 -2.6119 -3.24169 0
M  V30 4756 H 458.663 -3.53838 -1.81779 0
M  V30 4757 H 455.402 -6.4565 -1.13209 0
M  V30 4758 H 454.922 -5.44552 -2.51443 0
M  V30 4759 H 456.601 -6.02139 -2.36723 0
M  V30 4760 N 456.733 0.527833 -1.48498 0
M  V30 4761 C 457.958 1.313 -1.60546 0
M  V30 4762 C 458.383 1.86199 -0.26672 0
M  V30 4763 O 457.741 1.64513 0.761918 0
M  V30 4764 C 457.789 2.43818 -2.65678 0
M  V30 4765 O 456.893 3.46916 -2.22987 0
M  V30 4766 H 456.234 0.388784 -0.538277 0
M  V30 4767 H 458.764 0.634896 -1.945 0
M  V30 4768 H 458.774 2.89973 -2.87018 0
M  V30 4769 H 457.449 2.03222 -3.62869 0
M  V30 4770 H 456.026 3.06864 -2.11869 0
M  V30 4771 N 458.211 1.37122 0.776871 0
M  V30 4772 C 459.457 1.3325 1.53675 0
M  V30 4773 C 459.812 -0.0839891 1.92217 0
M  V30 4774 O 459.105 -1.04145 1.60824 0
M  V30 4775 C 459.299 2.20068 2.81611 0
M  V30 4776 C 459.128 3.70016 2.55574 0
M  V30 4777 C 457.898 4.39144 2.4996 0
M  V30 4778 C 460.096 4.62996 2.23917 0
M  V30 4779 N 458.078 5.74663 2.15953 0
M  V30 4780 C 459.449 5.86854 2.00005 0
M  V30 4781 C 461.504 4.51433 2.1003 0
M  V30 4782 C 460.207 7.00446 1.63609 0
M  V30 4783 C 462.233 5.64905 1.75033 0
M  V30 4784 C 461.595 6.8781 1.51977 0
M  V30 4785 H 457.694 0.542878 0.562856 0
M  V30 4786 H 460.278 1.72295 0.906784 0
M  V30 4787 H 458.449 1.83248 3.42454 0
M  V30 4788 H 460.181 2.07492 3.47461 0
M  V30 4789 H 456.936 3.92088 2.65639 0
M  V30 4790 H 457.36 6.46268 2.0166 0
M  V30 4791 H 462.002 3.56987 2.26539 0
M  V30 4792 H 459.72 7.94831 1.45837 0
M  V30 4793 H 463.306 5.57926 1.64952 0
M  V30 4794 H 462.186 7.74126 1.25296 0
M  V30 4795 N 459.689 -1.00246 1.21608 0
M  V30 4796 C 460.599 -2.12515 0.993709 0
M  V30 4797 C 461.615 -1.73913 -0.0549939 0
M  V30 4798 O 462.791 -2.00943 0.135619 0
M  V30 4799 C 459.856 -3.42083 0.563953 0
M  V30 4800 C 458.917 -3.94843 1.68516 0
M  V30 4801 C 458.15 -5.18226 1.27582 0
M  V30 4802 O 458.373 -5.70201 0.150506 0
M  V30 4803 O 457.307 -5.64497 2.0887 0
M  V30 4804 H 461.133 -2.34152 1.93407 0
M  V30 4805 H 458.718 -1.10891 1.00118 0
M  V30 4806 H 460.6 -4.20073 0.334194 0
M  V30 4807 H 459.275 -3.21828 -0.347665 0
M  V30 4808 H 458.182 -3.18068 1.96935 0
M  V30 4809 H 459.515 -4.19512 2.5743 0
M  V30 4810 N 461.167 -1.02423 -1.1978 0
M  V30 4811 C 462.13 -0.605703 -2.21052 0
M  V30 4812 C 463.13 0.328209 -1.57415 0
M  V30 4813 O 464.32 0.115853 -1.73814 0
M  V30 4814 C 461.452 0.114366 -3.40708 0
M  V30 4815 H 462.645 -1.5017 -2.59594 0
M  V30 4816 H 460.198 -0.814888 -1.33376 0
M  V30 4817 H 460.933 1.02492 -3.07678 0
M  V30 4818 H 460.718 -0.556641 -3.88129 0
M  V30 4819 H 462.208 0.394272 -4.15735 0
M  V30 4820 N 462.645 1.35699 -0.801477 0
M  V30 4821 C 463.575 2.32436 -0.222658 0
M  V30 4822 C 464.556 1.5723 0.649057 0
M  V30 4823 O 465.741 1.85324 0.580387 0
M  V30 4824 C 462.871 3.41469 0.633719 0
M  V30 4825 C 461.825 4.27774 -0.139083 0
M  V30 4826 C 461.151 5.28082 0.838666 0
M  V30 4827 C 462.451 5.04946 -1.33517 0
M  V30 4828 H 464.145 2.81094 -1.03086 0
M  V30 4829 H 461.691 1.35146 -0.497155 0
M  V30 4830 H 463.644 4.08143 1.04868 0
M  V30 4831 H 462.368 2.91408 1.47475 0
M  V30 4832 H 461.027 3.62673 -0.535156 0
M  V30 4833 H 460.675 4.7429 1.67506 0
M  V30 4834 H 460.375 5.86695 0.32594 0
M  V30 4835 H 461.899 5.97628 1.25194 0
M  V30 4836 H 463.313 5.64593 -0.995349 0
M  V30 4837 H 461.71 5.7303 -1.78202 0
M  V30 4838 H 462.78 4.35886 -2.12442 0
M  V30 4839 N 464.123 0.554532 1.47522 0
M  V30 4840 C 465.348 0.0322661 2.07375 0
M  V30 4841 C 465.773 -1.25079 1.40488 0
M  V30 4842 O 465.131 -1.74859 0.47896 0
M  V30 4843 C 465.179 -0.149397 3.6029 0
M  V30 4844 O 464.283 -1.21259 3.9417 0
M  V30 4845 H 463.624 0.0501228 0.662106 0
M  V30 4846 H 466.154 0.769452 1.8958 0
M  V30 4847 H 466.164 -0.364437 4.06369 0
M  V30 4848 H 464.839 0.787743 4.08372 0
M  V30 4849 H 463.416 -0.97825 3.5984 0
M  V30 4850 N 465.601 -1.54893 0.290851 0
M  V30 4851 C 466.531 -2.26103 -0.583084 0
M  V30 4852 C 467.512 -1.25684 -1.14619 0
M  V30 4853 O 468.697 -1.54436 -1.17741 0
M  V30 4854 C 465.827 -2.99409 -1.75987 0
M  V30 4855 C 464.781 -4.0689 -1.32758 0
M  V30 4856 C 464.107 -4.67856 -2.58872 0
M  V30 4857 C 465.407 -5.20215 -0.46624 0
M  V30 4858 H 467.101 -2.99398 0.0108214 0
M  V30 4859 H 464.647 -1.43998 0.00664468 0
M  V30 4860 H 466.6 -3.47943 -2.37727 0
M  V30 4861 H 465.324 -2.23675 -2.37985 0
M  V30 4862 H 463.983 -3.59191 -0.733299 0
M  V30 4863 H 463.631 -3.88772 -3.19163 0
M  V30 4864 H 463.331 -5.40438 -2.30653 0
M  V30 4865 H 464.855 -5.19147 -3.21433 0
M  V30 4866 H 466.269 -5.64704 -0.989047 0
M  V30 4867 H 464.666 -5.99455 -0.27826 0
M  V30 4868 H 465.736 -4.82198 0.511173 0
M  V30 4869 N 467.08 -0.0183926 -1.57589 0
M  V30 4870 C 468.329 0.66185 -1.90532 0
M  V30 4871 C 468.642 1.73904 -0.895366 0
M  V30 4872 O 469.848 2.47518 -1.11566 0
M  V30 4873 C 468.304 1.22844 -3.38286 0
M  V30 4874 C 467.912 0.185103 -4.47617 0
M  V30 4875 C 469.656 1.88581 -3.80312 0
M  V30 4876 C 467.563 0.762723 -5.86461 0
M  V30 4877 H 466.493 0.250972 -0.711006 0
M  V30 4878 H 469.144 -0.0819435 -1.83317 0
M  V30 4879 H 467.526 2.0235 -3.40398 0
M  V30 4880 H 468.7 -0.58671 -4.5705 0
M  V30 4881 H 467.015 -0.372889 -4.14727 0
M  V30 4882 H 469.612 2.32735 -4.81392 0
M  V30 4883 H 469.955 2.72408 -3.14801 0
M  V30 4884 H 470.488 1.15782 -3.80578 0
M  V30 4885 H 467.227 -0.0371713 -6.55489 0
M  V30 4886 H 466.747 1.50327 -5.80656 0
M  V30 4887 H 468.426 1.25576 -6.34697 0
M  V30 4888 N 468.558 1.5553 0.254621 0
M  V30 4889 C 469.505 1.89666 1.31512 0
M  V30 4890 C 470.475 0.750057 1.482 0
M  V30 4891 O 471.66 1.00301 1.62309 0
M  V30 4892 C 468.8 2.19009 2.667 0
M  V30 4893 C 467.913 3.46435 2.58083 0
M  V30 4894 C 467.048 3.65386 3.85573 0
M  V30 4895 C 466.087 4.8644 3.71541 0
M  V30 4896 N 465.224 5.01952 4.90906 0
M  V30 4897 H 470.064 2.80109 1.017 0
M  V30 4898 H 467.601 1.38666 0.490938 0
M  V30 4899 H 469.559 2.34025 3.45381 0
M  V30 4900 H 468.189 1.31779 2.94676 0
M  V30 4901 H 467.241 3.39792 1.71013 0
M  V30 4902 H 468.553 4.35258 2.43622 0
M  V30 4903 H 467.707 3.80319 4.72697 0
M  V30 4904 H 466.446 2.74781 4.02922 0
M  V30 4905 H 465.451 4.71491 2.82801 0
M  V30 4906 H 466.676 5.78497 3.55694 0
M  V30 4907 H 464.622 4.14283 5.08631 0
M  V30 4908 H 464.539 5.84851 4.79046 0
M  V30 4909 H 465.807 5.21289 5.7955 0
M  V30 4910 N 470.036 -0.519951 1.48776 0
M  V30 4911 C 471.313 -1.28123 1.47797 0
M  V30 4912 C 471.693 -2.10196 0.195157 0
M  V30 4913 O 471.041 -2.13167 -0.822925 0
M  V30 4914 C 471.251 -2.15413 2.74587 0
M  V30 4915 C 472.599 -2.75225 3.23321 0
M  V30 4916 O 473.623 -2.25694 2.75574 0
M  V30 4917 O 472.482 -3.65346 4.06429 0
M  V30 4918 H 469.576 -0.578793 0.590701 0
M  V30 4919 H 472.122 -0.535779 1.6102 0
M  V30 4920 H 470.894 -1.54617 3.59457 0
M  V30 4921 H 470.517 -2.97186 2.64132 0
M  V30 4922 N 471.514 -1.37532 -0.769588 0
M  V30 4923 C 472.444 -1.36172 -1.89682 0
M  V30 4924 C 473.425 -0.23001 -1.68538 0
M  V30 4925 O 474.61 -0.43069 -1.89364 0
M  V30 4926 C 471.74 -1.1701 -3.26995 0
M  V30 4927 C 470.694 -2.27216 -3.62708 0
M  V30 4928 C 470.02 -1.93174 -4.98586 0
M  V30 4929 C 471.32 -3.6941 -3.69234 0
M  V30 4930 H 473.014 -2.30499 -1.91078 0
M  V30 4931 H 470.56 -1.10953 -0.917902 0
M  V30 4932 H 472.513 -1.14688 -4.05493 0
M  V30 4933 H 471.237 -0.191395 -3.26039 0
M  V30 4934 H 469.896 -2.28697 -2.86519 0
M  V30 4935 H 469.544 -0.938281 -4.94171 0
M  V30 4936 H 469.244 -2.66973 -5.23449 0
M  V30 4937 H 470.768 -1.92443 -5.79481 0
M  V30 4938 H 472.182 -3.70047 -4.37879 0
M  V30 4939 H 470.579 -4.4228 -4.05597 0
M  V30 4940 H 471.649 -4.0288 -2.69844 0
M  V30 4941 N 472.992 0.995999 -1.22138 0
M  V30 4942 C 474.24 1.73167 -1.042 0
M  V30 4943 C 474.561 1.90329 0.42423 0
M  V30 4944 O 473.831 1.4607 1.30539 0
M  V30 4945 H 472.411 0.641593 -0.38258 0
M  V30 4946 H 475.073 1.19974 -1.53598 0
M  V30 4947 H 474.169 2.72734 -1.51731 0
M  V30 4948 N 474.47 1.03057 1.19235 0
M  V30 4949 C 475.4 0.633497 2.24742 0
M  V30 4950 C 476.381 -0.358335 1.66283 0
M  V30 4951 O 477.566 -0.240676 1.92703 0
M  V30 4952 C 474.696 -0.0147648 3.47297 0
M  V30 4953 C 473.65 0.899527 4.18441 0
M  V30 4954 C 472.976 0.116281 5.34574 0
M  V30 4955 C 474.276 2.21404 4.73051 0
M  V30 4956 H 475.97 1.5155 2.58211 0
M  V30 4957 H 473.516 0.73014 1.24117 0
M  V30 4958 H 475.469 -0.304202 4.20301 0
M  V30 4959 H 474.193 -0.931577 3.13032 0
M  V30 4960 H 472.852 1.17319 3.47321 0
M  V30 4961 H 472.5 -0.802619 4.96555 0
M  V30 4962 H 472.2 0.725293 5.83107 0
M  V30 4963 H 473.724 -0.166376 6.10373 0
M  V30 4964 H 475.138 1.98601 5.37802 0
M  V30 4965 H 473.535 2.77512 5.32078 0
M  V30 4966 H 474.605 2.86752 3.91026 0
M  V30 4967 N 475.948 -1.35272 0.808662 0
M  V30 4968 C 477.364 -1.51806 0.492653 0
M  V30 4969 C 477.564 -1.7574 -0.985778 0
M  V30 4970 O 476.62 -1.80003 -1.77074 0
M  V30 4971 C 477.933 -2.69202 1.33981 0
M  V30 4972 C 479.481 -2.8308 1.33547 0
M  V30 4973 C 479.956 -4.03502 2.16679 0
M  V30 4974 N 481.447 -4.10684 2.14227 0
M  V30 4975 C 482.182 -5.02984 2.75308 0
M  V30 4976 N 481.678 -6.00603 3.45323 0
M  V30 4977 N 483.471 -4.95746 2.64938 0
M  V30 4978 H 475.622 -1.17993 1.76611 0
M  V30 4979 H 477.885 -0.577476 0.751814 0
M  V30 4980 H 477.591 -2.581 2.38909 0
M  V30 4981 H 477.465 -3.63854 0.994491 0
M  V30 4982 H 479.852 -2.93631 0.294036 0
M  V30 4983 H 479.933 -1.89278 1.72068 0
M  V30 4984 H 479.577 -3.93711 3.20864 0
M  V30 4985 H 479.507 -4.96489 1.75517 0
M  V30 4986 H 481.998 -3.40802 1.63285 0
M  V30 4987 H 482.311 -6.67633 3.89212 0
M  V30 4988 H 480.656 -6.0077 3.49428 0
M  V30 4989 H 483.847 -4.18439 2.09825 0
M  V30 4990 H 484.02 -5.67487 3.12829 0
M  V30 4991 N 477.426 -0.562348 -1.47226 0
M  V30 4992 C 478.837 -0.130325 -1.86245 0
M  V30 4993 C 479.188 1.30128 -1.46838 0
M  V30 4994 O 478.313 1.97974 -0.873805 0
M  V30 4995 C 478.908 -0.229738 -3.3802 0
M  V30 4996 C 477.467 0.14728 -3.76112 0
M  V30 4997 C 476.614 -0.574971 -2.71274 0
M  V30 4998 H 479.565 -0.771773 -1.3867 0
M  V30 4999 H 479.586 0.550316 -3.76499 0
M  V30 5000 H 479.098 -1.27178 -3.66671 0
M  V30 5001 H 477.199 1.19023 -3.53078 0
M  V30 5002 H 477.312 -0.214858 -4.78618 0
M  V30 5003 H 475.676 -0.0174756 -2.54694 0
M  V30 5004 H 476.459 -1.61827 -3.02766 0
M  V30 5005 N 478.904 1.54736 -0.299062 0
M  V30 5006 C 479.851 2.23448 0.577899 0
M  V30 5007 C 480.821 1.21637 1.13109 0
M  V30 5008 O 482.006 1.50252 1.17597 0
M  V30 5009 C 479.146 2.9774 1.74484 0
M  V30 5010 C 478.259 4.1432 1.22323 0
M  V30 5011 C 477.394 4.76199 2.35388 0
M  V30 5012 C 476.433 5.84927 1.80351 0
M  V30 5013 N 475.57 6.4077 2.86982 0
M  V30 5014 H 480.41 2.97996 -0.0146545 0
M  V30 5015 H 477.947 1.47088 -0.0190013 0
M  V30 5016 H 479.905 3.39045 2.43114 0
M  V30 5017 H 478.535 2.25572 2.30905 0
M  V30 5018 H 477.587 3.7797 0.429249 0
M  V30 5019 H 478.899 4.92659 0.780309 0
M  V30 5020 H 478.053 5.20346 3.11969 0
M  V30 5021 H 476.792 3.97188 2.83006 0
M  V30 5022 H 475.797 5.40207 1.02259 0
M  V30 5023 H 477.022 6.65821 1.3364 0
M  V30 5024 H 474.968 5.64643 3.33938 0
M  V30 5025 H 474.885 7.1445 2.4718 0
M  V30 5026 H 476.153 6.89574 3.63466 0
M  V30 5027 N 480.382 0.0267497 1.57577 0
M  V30 5028 C 481.798 -0.32962 1.56159 0
M  V30 5029 C 481.998 -1.73059 1.03213 0
M  V30 5030 O 481.054 -2.43233 0.677804 0
M  V30 5031 C 482.367 -0.18039 3.00158 0
M  V30 5032 C 483.915 -0.253334 3.11973 0
M  V30 5033 C 484.39 -0.132921 4.57807 0
M  V30 5034 N 485.881 -0.189979 4.6281 0
M  V30 5035 C 486.616 -0.120554 5.73273 0
M  V30 5036 N 486.112 -0.000180315 6.928 0
M  V30 5037 N 487.905 -0.174369 5.61829 0
M  V30 5038 H 480.056 0.942896 1.90324 0
M  V30 5039 H 482.319 0.3639 0.875375 0
M  V30 5040 H 482.025 0.784576 3.42837 0
M  V30 5041 H 481.899 -0.951565 3.65 0
M  V30 5042 H 484.286 -1.20876 2.69208 0
M  V30 5043 H 484.367 0.548177 2.49857 0
M  V30 5044 H 484.011 0.819073 5.01252 0
M  V30 5045 H 483.941 -0.953264 5.179 0
M  V30 5046 H 486.432 -0.283257 3.76837 0
M  V30 5047 H 486.745 0.0461666 7.72786 0
M  V30 5048 H 485.09 0.034569 6.94991 0
M  V30 5049 H 488.281 -0.266794 4.67339 0
M  V30 5050 H 488.454 -0.116802 6.47895 0
M  V30 5051 N 481.861 -1.55662 -0.24637 0
M  V30 5052 C 483.089 -1.81575 -0.991876 0
M  V30 5053 C 483.504 -0.602545 -1.78927 0
M  V30 5054 O 482.861 0.428795 -1.77391 0
M  V30 5055 C 482.912 -3.05711 -1.92933 0
M  V30 5056 O 482.633 -4.22348 -1.1642 0
M  V30 5057 C 484.134 -3.44428 -2.79078 0
M  V30 5058 H 481.354 -0.604209 -0.291844 0
M  V30 5059 H 483.898 -2.02722 -0.269095 0
M  V30 5060 H 482.053 -2.86612 -2.60638 0
M  V30 5061 H 482.467 -4.92706 -1.79835 0
M  V30 5062 H 483.941 -4.34388 -3.40603 0
M  V30 5063 H 484.418 -2.65037 -3.50217 0
M  V30 5064 H 485.024 -3.65879 -2.16824 0
M  V30 5065 N 483.339 0.512053 -1.4905 0
M  V30 5066 C 484.269 1.62365 -1.67809 0
M  V30 5067 C 485.25 1.61737 -0.526809 0
M  V30 5068 O 486.435 1.78651 -0.761404 0
M  V30 5069 C 483.565 3.00895 -1.73435 0
M  V30 5070 C 482.519 3.16387 -2.88242 0
M  V30 5071 C 481.845 4.56157 -2.78971 0
M  V30 5072 C 483.145 2.97457 -4.29321 0
M  V30 5073 H 484.839 1.46921 -2.60873 0
M  V30 5074 H 482.385 0.705379 -1.2554 0
M  V30 5075 H 484.338 3.78549 -1.85145 0
M  V30 5076 H 483.062 3.17403 -0.769619 0
M  V30 5077 H 481.721 2.41155 -2.76116 0
M  V30 5078 H 481.369 4.69525 -1.8043 0
M  V30 5079 H 481.069 4.67465 -3.5602 0
M  V30 5080 H 482.593 5.35886 -2.92675 0
M  V30 5081 H 484.007 3.64888 -4.42187 0
M  V30 5082 H 482.404 3.20245 -5.07507 0
M  V30 5083 H 483.474 1.93692 -4.44535 0
M  V30 5084 N 484.817 1.37938 0.762283 0
M  V30 5085 C 486.233 1.18945 1.06415 0
M  V30 5086 C 486.433 0.0321163 2.01474 0
M  V30 5087 O 485.489 -0.624844 2.44647 0
M  V30 5088 C 486.802 2.51218 1.65258 0
M  V30 5089 C 488.35 2.57824 1.7747 0
M  V30 5090 C 488.825 3.90251 2.39725 0
M  V30 5091 N 490.316 3.91744 2.47166 0
M  V30 5092 C 491.051 4.90966 2.96209 0
M  V30 5093 N 490.547 6.00585 3.45354 0
M  V30 5094 N 492.34 4.78363 2.9517 0
M  V30 5095 H 484.491 2.11994 0.131301 0
M  V30 5096 H 486.754 0.940262 0.120879 0
M  V30 5097 H 486.46 3.36317 1.02878 0
M  V30 5098 H 486.334 2.68989 2.64433 0
M  V30 5099 H 488.721 1.73126 2.3898 0
M  V30 5100 H 488.802 2.43928 0.770241 0
M  V30 5101 H 488.446 4.75368 1.78852 0
M  V30 5102 H 488.376 4.01454 3.40796 0
M  V30 5103 H 490.867 3.12563 2.12397 0
M  V30 5104 H 491.18 6.72236 3.81207 0
M  V30 5105 H 489.525 6.04217 3.43434 0
M  V30 5106 H 492.716 3.91841 2.56082 0
M  V30 5107 H 492.889 5.55843 3.33081 0
M  V30 5108 N 486.295 -0.989507 1.22664 0
M  V30 5109 C 487.225 -2.09847 1.02404 0
M  V30 5110 C 488.206 -1.70007 -0.0561303 0
M  V30 5111 O 489.391 -1.93906 0.106748 0
M  V30 5112 C 486.521 -3.41996 0.604663 0
M  V30 5113 C 485.475 -3.95699 1.63115 0
M  V30 5114 C 484.801 -5.23936 1.0675 0
M  V30 5115 C 486.101 -4.25999 3.02196 0
M  V30 5116 H 487.795 -2.27054 1.95158 0
M  V30 5117 H 485.341 -1.09111 0.939727 0
M  V30 5118 H 487.294 -4.1899 0.45002 0
M  V30 5119 H 486.018 -3.24626 -0.35855 0
M  V30 5120 H 484.677 -3.2084 1.77362 0
M  V30 5121 H 484.325 -5.02909 0.0955422 0
M  V30 5122 H 484.025 -5.60833 1.75328 0
M  V30 5123 H 485.549 -6.0356 0.924516 0
M  V30 5124 H 486.963 -4.93777 2.91303 0
M  V30 5125 H 485.36 -4.74076 3.67929 0
M  V30 5126 H 486.43 -3.33636 3.51873 0
M  V30 5127 N 487.773 -1.03688 -1.18687 0
M  V30 5128 C 489.019 -0.739123 -1.88851 0
M  V30 5129 C 489.352 0.731042 -1.79915 0
M  V30 5130 O 488.627 1.53313 -1.19688 0
M  V30 5131 C 488.91 -1.20106 -3.3948 0
M  V30 5132 C 488.763 -2.73304 -3.57246 0
M  V30 5133 C 490.082 -0.788134 -4.32986 0
M  V30 5134 H 487.201 -0.269978 -0.68577 0
M  V30 5135 H 489.843 -1.28822 -1.3966 0
M  V30 5136 H 487.993 -0.733915 -3.81505 0
M  V30 5137 H 489.665 -3.28027 -3.24339 0
M  V30 5138 H 487.908 -3.13313 -3.00029 0
M  V30 5139 H 488.579 -3.00684 -4.62918 0
M  V30 5140 H 491.055 -1.19005 -3.98719 0
M  V30 5141 H 489.931 -1.13915 -5.36949 0
M  V30 5142 H 490.192 0.308988 -4.41019 0
M  V30 5143 N 489.251 1.34841 -0.815825 0
M  V30 5144 C 490.181 2.32187 -0.247298 0
M  V30 5145 C 491.162 1.5791 0.632344 0
M  V30 5146 O 492.347 1.8593 0.560698 0
M  V30 5147 C 489.477 3.42122 0.597466 0
M  V30 5148 C 488.431 4.27602 -0.184446 0
M  V30 5149 C 487.757 5.28942 0.782609 0
M  V30 5150 C 489.057 5.03502 -1.38865 0
M  V30 5151 H 490.751 2.79985 -1.06061 0
M  V30 5152 H 488.297 1.34611 -0.511461 0
M  V30 5153 H 490.25 4.09232 1.00533 0
M  V30 5154 H 488.974 2.92956 1.44376 0
M  V30 5155 H 487.633 3.62085 -0.573592 0
M  V30 5156 H 487.281 4.7604 1.62466 0
M  V30 5157 H 486.981 5.87008 0.263695 0
M  V30 5158 H 488.505 5.98922 1.18848 0
M  V30 5159 H 489.919 5.63506 -1.05518 0
M  V30 5160 H 488.316 5.71108 -1.8427 0
M  V30 5161 H 489.386 4.33608 -2.17054 0
M  V30 5162 N 490.729 0.570148 1.46925 0
M  V30 5163 C 491.975 0.0593124 2.03314 0
M  V30 5164 C 492.33 -1.28139 1.43521 0
M  V30 5165 O 491.623 -1.82411 0.586245 0
M  V30 5166 C 491.817 -0.0780336 3.57315 0
M  V30 5167 C 491.646 1.2478 4.32042 0
M  V30 5168 C 490.416 1.81859 4.7144 0
M  V30 5169 C 492.614 2.16808 4.66368 0
M  V30 5170 N 490.596 3.08313 5.30864 0
M  V30 5171 C 491.967 3.27845 5.2623 0
M  V30 5172 C 494.022 2.16643 4.48297 0
M  V30 5173 C 492.725 4.38832 5.69929 0
M  V30 5174 C 494.751 3.26652 4.93004 0
M  V30 5175 C 494.113 4.36408 5.52926 0
M  V30 5176 H 490.212 0.0641804 0.779362 0
M  V30 5177 H 492.796 0.760285 1.79242 0
M  V30 5178 H 490.967 -0.748151 3.81126 0
M  V30 5179 H 492.699 -0.59211 4.00345 0
M  V30 5180 H 489.454 1.35502 4.53802 0
M  V30 5181 H 489.878 3.72802 5.65108 0
M  V30 5182 H 494.52 1.33065 4.01315 0
M  V30 5183 H 492.238 5.23162 6.15896 0
M  V30 5184 H 495.824 3.27627 4.80782 0
M  V30 5185 H 494.704 5.20127 5.86888 0
M  V30 5186 N 492.207 -1.54576 0.307264 0
M  V30 5187 C 493.435 -2.04675 -0.302597 0
M  V30 5188 C 493.85 -1.18425 -1.47041 0
M  V30 5189 O 493.207 -0.211257 -1.81273 0
M  V30 5190 C 493.258 -3.53575 -0.752801 0
M  V30 5191 O 492.979 -4.36547 0.368536 0
M  V30 5192 C 494.48 -4.19699 -1.42717 0
M  V30 5193 H 491.7 -0.66786 -0.0648374 0
M  V30 5194 H 494.244 -1.99516 0.448716 0
M  V30 5195 H 492.399 -3.59074 -1.45412 0
M  V30 5196 H 492.813 -5.24497 0.0168937 0
M  V30 5197 H 494.287 -5.25388 -1.69327 0
M  V30 5198 H 494.764 -3.69815 -2.36925 0
M  V30 5199 H 495.37 -4.18293 -0.768856 0
M  V30 5200 N 493.685 -0.035106 -1.57561 0
M  V30 5201 C 494.648 0.929819 -2.09492 0
M  V30 5202 C 495.648 1.25026 -1.01119 0
M  V30 5203 O 496.838 1.18961 -1.27255 0
M  V30 5204 C 493.97 2.24457 -2.56577 0
M  V30 5205 H 495.163 0.479935 -2.96035 0
M  V30 5206 H 492.716 0.213033 -1.54841 0
M  V30 5207 H 493.451 2.74061 -1.73382 0
M  V30 5208 H 493.236 2.02508 -3.35757 0
M  V30 5209 H 494.726 2.93607 -2.96959 0
M  V30 5210 N 495.163 1.55791 0.238111 0
M  V30 5211 C 496.073 1.94196 1.31625 0
M  V30 5212 C 497.089 0.843545 1.52185 0
M  V30 5213 O 498.265 1.1457 1.65637 0
M  V30 5214 C 495.33 2.2365 2.64918 0
M  V30 5215 C 494.391 3.46971 2.52804 0
M  V30 5216 C 493.624 3.7501 3.79741 0
M  V30 5217 O 493.847 3.04982 4.82019 0
M  V30 5218 O 492.781 4.68525 3.77846 0
M  V30 5219 H 496.607 2.86044 1.02043 0
M  V30 5220 H 494.192 1.42786 0.439603 0
M  V30 5221 H 496.074 2.43863 3.4367 0
M  V30 5222 H 494.749 1.34979 2.94215 0
M  V30 5223 H 493.656 3.32055 1.72309 0
M  V30 5224 H 494.989 4.35971 2.28451 0
M  V30 5225 N 496.642 -0.504142 1.49319 0
M  V30 5226 C 497.552 -1.63248 1.68486 0
M  V30 5227 C 498.568 -1.64488 0.567432 0
M  V30 5228 O 499.744 -1.82966 0.841749 0
M  V30 5229 C 496.809 -2.99627 1.74426 0
M  V30 5230 C 495.87 -3.09039 2.97982 0
M  V30 5231 C 495.103 -4.38913 3.0363 0
M  V30 5232 O 495.326 -5.27528 2.16958 0
M  V30 5233 O 494.26 -4.53231 3.96062 0
M  V30 5234 H 498.086 -1.50008 2.64067 0
M  V30 5235 H 495.671 -0.680086 1.33023 0
M  V30 5236 H 497.553 -3.80689 1.80705 0
M  V30 5237 H 496.228 -3.13136 0.820233 0
M  V30 5238 H 495.135 -2.27177 2.97223 0
M  V30 5239 H 496.468 -3.00456 3.89855 0
M  V30 5240 N 498.12 -1.38341 -0.754957 0
M  V30 5241 C 499.052 -1.31347 -1.87831 0
M  V30 5242 C 500.065 -0.225955 -1.61224 0
M  V30 5243 O 501.254 -0.48341 -1.7183 0
M  V30 5244 C 498.354 -1.01201 -3.23437 0
M  V30 5245 C 497.527 -2.20834 -3.77559 0
M  V30 5246 C 496.586 -1.87454 -4.91678 0
M  V30 5247 O 495.612 -2.59934 -5.06382 0
M  V30 5248 N 496.814 -0.828682 -5.74555 0
M  V30 5249 H 499.579 -2.28147 -1.94342 0
M  V30 5250 H 497.14 -1.32184 -0.934828 0
M  V30 5251 H 499.132 -0.769249 -3.97322 0
M  V30 5252 H 497.702 -0.132011 -3.12321 0
M  V30 5253 H 496.922 -2.61184 -2.95256 0
M  V30 5254 H 498.21 -3.00678 -4.10451 0
M  V30 5255 H 497.608 -0.227591 -5.65242 0
M  V30 5256 H 496.165 -0.645802 -6.48593 0
M  V30 5257 N 499.598 0.982988 -1.23187 0
M  V30 5258 C 500.846 1.72052 -1.06031 0
M  V30 5259 C 501.167 1.90769 0.404019 0
M  V30 5260 O 500.437 1.47446 1.28982 0
M  V30 5261 H 499.017 0.637499 -0.389363 0
M  V30 5262 H 501.679 1.18338 -1.54862 0
M  V30 5263 H 500.775 2.7111 -1.54615 0
M  V30 5264 N 501.076 1.04316 1.18135 0
M  V30 5265 C 502.324 0.746542 1.87806 0
M  V30 5266 C 502.645 -0.728082 1.80898 0
M  V30 5267 O 501.915 -1.52554 1.22899 0
M  V30 5268 H 500.495 0.273157 0.695265 0
M  V30 5269 H 503.157 1.32044 1.43354 0
M  V30 5270 H 502.253 1.05362 2.93778 0
M  V30 5271 N 502.554 -1.34406 0.822964 0
M  V30 5272 C 503.8 -1.98578 0.411666 0
M  V30 5273 C 504.133 -1.65093 -1.02264 0
M  V30 5274 O 503.408 -0.92258 -1.71227 0
M  V30 5275 C 503.691 -3.54823 0.614235 0
M  V30 5276 C 503.544 -3.9805 2.09466 0
M  V30 5277 C 504.863 -4.40071 0.050221 0
M  V30 5278 H 501.982 -0.721355 0.151047 0
M  V30 5279 H 504.624 -1.59301 1.03554 0
M  V30 5280 H 502.774 -3.88411 0.0831774 0
M  V30 5281 H 504.446 -3.74795 2.68936 0
M  V30 5282 H 502.689 -3.4836 2.5851 0
M  V30 5283 H 503.36 -5.06819 2.18721 0
M  V30 5284 H 505.836 -4.13037 0.503953 0
M  V30 5285 H 504.712 -5.48452 0.221759 0
M  V30 5286 H 504.973 -4.29576 -1.04482 0
M  V30 5287 N 504.032 -0.577932 -1.46621 0
M  V30 5288 C 505.28 -0.061566 -2.02006 0
M  V30 5289 C 505.601 1.30117 -1.4524 0
M  V30 5290 O 504.871 1.85313 -0.63529 0
M  V30 5291 H 503.451 -0.0197692 -0.746738 0
M  V30 5292 H 506.113 -0.752631 -1.79782 0
M  V30 5293 H 505.209 0.0110238 -3.12098 0
M  V30 5294 N 505.51 1.54411 -0.315457 0
M  V30 5295 C 506.473 2.22713 0.54142 0
M  V30 5296 C 507.473 1.2179 1.04995 0
M  V30 5297 O 508.663 1.46426 0.943667 0
M  V30 5298 C 505.795 2.92485 1.75116 0
M  V30 5299 H 506.988 2.99849 -0.0555508 0
M  V30 5300 H 504.541 1.56159 -0.0664453 0
M  V30 5301 H 505.276 2.19466 2.38758 0
M  V30 5302 H 505.061 3.66483 1.39401 0
M  V30 5303 H 506.551 3.44548 2.35959 0
M  V30 5304 N 506.988 0.0434614 1.5754 0
M  V30 5305 C 508.235 -0.632035 1.92384 0
M  V30 5306 C 508.563 -1.71304 0.921157 0
M  V30 5307 O 507.818 -1.95583 -0.067744 0
M  V30 5308 C 508.117 -1.2738 3.3393 0
M  V30 5309 C 507.783 -0.321757 4.49751 0
M  V30 5310 C 506.445 -0.0597611 4.81163 0
M  V30 5311 C 508.797 0.331158 5.20147 0
M  V30 5312 C 506.125 0.862715 5.80322 0
M  V30 5313 C 508.477 1.24178 6.20292 0
M  V30 5314 C 507.141 1.51252 6.50138 0
M  V30 5315 H 506.411 -0.231278 0.703983 0
M  V30 5316 H 509.058 0.108294 1.91194 0
M  V30 5317 H 507.363 -2.08921 3.3145 0
M  V30 5318 H 509.06 -1.80326 3.58167 0
M  V30 5319 H 505.65 -0.53614 4.25233 0
M  V30 5320 H 509.834 0.141826 4.96097 0
M  V30 5321 H 505.09 1.08003 6.01785 0
M  V30 5322 H 509.264 1.75381 6.73954 0
M  V30 5323 H 506.891 2.22897 7.26788 0
M  V30 5324 N 508.466 -1.55915 -0.229846 0
M  V30 5325 C 509.398 -1.88209 -1.30805 0
M  V30 5326 C 510.411 -0.769672 -1.43457 0
M  V30 5327 O 511.6 -1.04792 -1.44502 0
M  V30 5328 C 508.7 -2.06829 -2.68468 0
M  V30 5329 C 507.873 -3.37798 -2.77869 0
M  V30 5330 C 506.932 -3.45952 -3.96489 0
M  V30 5331 O 505.958 -4.19043 -3.85216 0
M  V30 5332 N 507.16 -2.76488 -5.10426 0
M  V30 5333 H 509.925 -2.81286 -1.03431 0
M  V30 5334 H 507.486 -1.5636 -0.41991 0
M  V30 5335 H 509.478 -2.09608 -3.46189 0
M  V30 5336 H 508.048 -1.20416 -2.88477 0
M  V30 5337 H 507.268 -3.4719 -1.86689 0
M  V30 5338 H 508.556 -4.24091 -2.81113 0
M  V30 5339 H 507.954 -2.16868 -5.2248 0
M  V30 5340 H 506.511 -2.84938 -5.8622 0
M  V30 5341 N 509.944 0.496216 -1.49584 0
M  V30 5342 C 511.174 1.27209 -1.62793 0
M  V30 5343 C 511.582 1.86799 -0.300476 0
M  V30 5344 O 510.925 1.68802 0.724674 0
M  V30 5345 C 510.987 2.43812 -2.64189 0
M  V30 5346 C 510.651 2.05055 -4.08414 0
M  V30 5347 C 511.648 1.58752 -4.9507 0
M  V30 5348 C 509.333 2.14543 -4.54177 0
M  V30 5349 C 511.327 1.22448 -6.25528 0
M  V30 5350 C 509.014 1.77851 -5.84647 0
M  V30 5351 C 510.012 1.31878 -6.70147 0
M  V30 5352 O 509.7 0.956834 -7.98185 0
M  V30 5353 H 509.432 0.391848 -0.550846 0
M  V30 5354 H 511.986 0.601712 -1.96389 0
M  V30 5355 H 510.216 3.13941 -2.25783 0
M  V30 5356 H 511.905 3.05829 -2.66877 0
M  V30 5357 H 512.671 1.50863 -4.60939 0
M  V30 5358 H 508.55 2.49277 -3.87791 0
M  V30 5359 H 512.094 0.864933 -6.92217 0
M  V30 5360 H 507.991 1.8539 -6.18305 0
M  V30 5361 H 508.759 1.08789 -8.11238 0
M  V30 5362 N 511.423 1.38739 0.74761 0
M  V30 5363 C 512.653 1.3832 1.53464 0
M  V30 5364 C 513.061 -0.0273464 1.8918 0
M  V30 5365 O 512.404 -1.00588 1.53713 0
M  V30 5366 C 512.466 2.18007 2.85855 0
M  V30 5367 C 512.13 3.66762 2.72644 0
M  V30 5368 C 513.127 4.60124 2.42037 0
M  V30 5369 C 510.812 4.10193 2.89909 0
M  V30 5370 C 512.806 5.94897 2.28859 0
M  V30 5371 C 510.493 5.45045 2.7635 0
M  V30 5372 C 511.491 6.37211 2.45869 0
M  V30 5373 O 511.179 7.69581 2.3238 0
M  V30 5374 H 510.911 0.474718 0.481268 0
M  V30 5375 H 513.465 1.83012 0.932518 0
M  V30 5376 H 511.695 1.68043 3.48279 0
M  V30 5377 H 513.384 2.09921 3.47402 0
M  V30 5378 H 514.15 4.27874 2.28361 0
M  V30 5379 H 510.029 3.38797 3.1263 0
M  V30 5380 H 513.573 6.66802 2.04989 0
M  V30 5381 H 509.47 5.76889 2.89601 0
M  V30 5382 H 510.238 7.80169 2.47546 0
M  V30 5383 N 512.901 -0.976442 1.23707 0
M  V30 5384 C 513.833 -2.07212 0.979574 0
M  V30 5385 C 514.846 -1.6273 -0.0478528 0
M  V30 5386 O 516.035 -1.77506 0.18815 0
M  V30 5387 C 513.135 -3.35835 0.45479 0
M  V30 5388 C 512.308 -4.09268 1.54331 0
M  V30 5389 C 511.367 -5.16166 1.02271 0
M  V30 5390 O 510.393 -5.42827 1.71254 0
M  V30 5391 N 511.595 -5.80313 -0.147419 0
M  V30 5392 H 514.36 -2.29878 1.92292 0
M  V30 5393 H 511.921 -1.14343 1.14618 0
M  V30 5394 H 513.913 -4.04597 0.0914631 0
M  V30 5395 H 512.483 -3.10106 -0.394068 0
M  V30 5396 H 511.703 -3.34906 2.07923 0
M  V30 5397 H 512.991 -4.55095 2.27522 0
M  V30 5398 H 512.389 -5.61043 -0.724353 0
M  V30 5399 H 510.946 -6.50231 -0.451972 0
M  V30 5400 N 514.379 -1.04941 -1.1758 0
M  V30 5401 C 515.309 -0.669172 -2.23706 0
M  V30 5402 C 516.29 0.331835 -1.66832 0
M  V30 5403 O 517.475 0.209988 -1.93061 0
M  V30 5404 C 514.605 -0.0404889 -3.47276 0
M  V30 5405 C 513.559 -0.965983 -4.16957 0
M  V30 5406 C 512.885 -0.201312 -5.34321 0
M  V30 5407 C 514.185 -2.28902 -4.69469 0
M  V30 5408 H 515.879 -1.55639 -2.55767 0
M  V30 5409 H 513.425 -0.749793 -1.22939 0
M  V30 5410 H 515.378 0.237298 -4.20731 0
M  V30 5411 H 514.102 0.881658 -3.14475 0
M  V30 5412 H 512.761 -1.22829 -3.45411 0
M  V30 5413 H 512.409 0.723519 -4.97769 0
M  V30 5414 H 512.109 -0.817968 -5.81879 0
M  V30 5415 H 513.633 0.0692499 -6.10561 0
M  V30 5416 H 515.047 -2.07132 -5.34574 0
M  V30 5417 H 513.444 -2.85942 -5.27596 0
M  V30 5418 H 514.514 -2.92937 -3.86414 0
M  V30 5419 N 515.857 1.33968 -0.830081 0
M  V30 5420 C 516.807 2.26845 -0.229242 0
M  V30 5421 C 517.791 1.48862 0.610659 0
M  V30 5422 O 518.983 1.70808 0.464067 0
M  V30 5423 C 516.112 3.3798 0.602057 0
M  V30 5424 C 515.198 4.23369 -0.248866 0
M  V30 5425 N 515.589 4.88182 -1.32334 0
M  V30 5426 C 513.887 4.45987 -0.0344077 0
M  V30 5427 C 514.588 5.51671 -1.84482 0
M  V30 5428 N 513.564 5.31348 -1.14762 0
M  V30 5429 H 517.366 2.74464 -1.05104 0
M  V30 5430 H 514.88 1.4777 -0.673623 0
M  V30 5431 H 516.877 4.03494 1.04873 0
M  V30 5432 H 515.537 2.9191 1.42193 0
M  V30 5433 H 516.548 4.88988 -1.70619 0
M  V30 5434 H 513.225 4.10658 0.752727 0
M  V30 5435 H 514.615 6.13308 -2.74413 0
M  V30 5436 N 517.335 0.585699 1.46312 0
M  V30 5437 C 518.282 -0.145835 2.30339 0
M  V30 5438 C 519.252 -0.881215 1.40797 0
M  V30 5439 O 520.437 -0.871293 1.69744 0
M  V30 5440 C 517.577 -1.15161 3.25318 0
M  V30 5441 C 516.69 -0.419367 4.2996 0
M  V30 5442 C 515.825 -1.41293 5.12064 0
M  V30 5443 C 514.864 -0.667261 6.08452 0
M  V30 5444 N 514.001 -1.60903 6.83414 0
M  V30 5445 H 518.841 0.576755 2.92365 0
M  V30 5446 H 516.378 0.296237 1.44086 0
M  V30 5447 H 518.336 -1.74763 3.78832 0
M  V30 5448 H 516.966 -1.84188 2.65094 0
M  V30 5449 H 516.018 0.291751 3.7928 0
M  V30 5450 H 517.33 0.163433 4.98532 0
M  V30 5451 H 516.484 -2.08167 5.6987 0
M  V30 5452 H 515.223 -2.02966 4.43459 0
M  V30 5453 H 514.228 0.0152356 5.49798 0
M  V30 5454 H 515.453 -0.0558817 6.79077 0
M  V30 5455 H 513.399 -2.21381 6.17516 0
M  V30 5456 H 513.316 -1.07911 7.48259 0
M  V30 5457 H 514.584 -2.26802 7.45775 0
M  V30 5458 N 518.813 -1.54241 0.323641 0
M  V30 5459 C 520.059 -2.00867 -0.279323 0
M  V30 5460 C 520.392 -1.21146 -1.5178 0
M  V30 5461 O 519.667 -0.29378 -1.92269 0
M  V30 5462 C 519.95 -3.54837 -0.613387 0
M  V30 5463 C 519.803 -4.45284 0.635803 0
M  V30 5464 C 521.122 -4.16186 -1.43099 0
M  V30 5465 H 518.241 -0.730177 -0.100049 0
M  V30 5466 H 520.883 -1.84829 0.440235 0
M  V30 5467 H 519.033 -3.68634 -1.22641 0
M  V30 5468 H 520.705 -4.43357 1.27406 0
M  V30 5469 H 518.948 -4.14956 1.26466 0
M  V30 5470 H 519.619 -5.5084 0.357597 0
M  V30 5471 H 522.095 -4.05964 -0.912814 0
M  V30 5472 H 520.971 -5.24031 -1.6335 0
M  V30 5473 H 521.232 -3.69516 -2.42715 0
M  V30 5474 N 520.291 -0.0518155 -1.57515 0
M  V30 5475 C 521.239 0.940195 -2.12751 0
M  V30 5476 C 522.233 1.3218 -1.05948 0
M  V30 5477 O 523.439 1.30138 -1.24355 0
M  V30 5478 H 519.814 0.321066 -0.680015 0
M  V30 5479 H 521.785 0.449217 -2.94999 0
M  V30 5480 C 520.534 2.2055 -2.68799 0
M  V30 5481 H 519.857 1.92066 -3.50643 0
M  V30 5482 H 521.297 2.88119 -3.11068 0
M  V30 5483 C 519.756 2.95061 -1.62605 0
M  V30 5484 O 520.286 3.88025 -1.03921 0
M  V30 5485 N 518.492 2.57804 -1.34111 0
M  V30 5486 H 518.039 1.82281 -1.8202 0
M  V30 5487 H 517.997 3.07964 -0.632872 0
M  V30 5488 N 521.769 1.56035 0.221574 0
M  V30 5489 C 523.018 1.78245 0.944016 0
M  V30 5490 C 523.331 0.620371 1.85501 0
M  V30 5491 O 524.537 0.726103 2.6161 0
M  V30 5492 C 522.993 3.15659 1.7288 0
M  V30 5493 C 522.601 4.39591 0.863942 0
M  V30 5494 C 524.345 3.47195 2.44246 0
M  V30 5495 C 522.252 5.6803 1.64607 0
M  V30 5496 H 521.182 0.664547 0.356222 0
M  V30 5497 H 523.833 1.8243 0.197904 0
M  V30 5498 H 522.215 3.0565 2.51781 0
M  V30 5499 H 523.389 4.60655 0.115464 0
M  V30 5500 H 521.704 4.15572 0.262407 0
M  V30 5501 H 524.301 4.40381 3.03263 0
M  V30 5502 H 524.644 2.69693 3.1713 0
M  V30 5503 H 525.177 3.58533 1.72334 0
M  V30 5504 H 521.916 6.48425 0.960507 0
M  V30 5505 H 521.436 5.51027 2.36917 0
M  V30 5506 H 523.115 6.08203 2.20675 0
M  V30 5507 N 523.247 -0.488276 1.49845 0
M  V30 5508 C 524.472 -1.26997 1.63971 0
M  V30 5509 C 524.897 -1.85427 0.315994 0
M  V30 5510 O 524.255 -1.66475 -0.718032 0
M  V30 5511 C 524.303 -2.36689 2.72049 0
M  V30 5512 O 523.407 -3.40882 2.32107 0
M  V30 5513 H 522.748 -0.374376 0.548396 0
M  V30 5514 H 525.278 -0.583104 1.96115 0
M  V30 5515 H 525.288 -2.82262 2.94605 0
M  V30 5516 H 523.963 -1.93529 3.68129 0
M  V30 5517 H 522.54 -3.01139 2.19931 0
M  V30 5518 N 524.725 -1.39134 -0.740242 0
M  V30 5519 C 525.673 -1.3757 -1.87556 0
M  V30 5520 C 526.667 -0.259593 -1.67399 0
M  V30 5521 O 527.873 -0.429349 -1.74804 0
M  V30 5522 H 524.248 -0.42947 -0.6173 0
M  V30 5523 H 526.219 -2.33345 -1.85991 0
M  V30 5524 C 524.968 -1.23087 -3.25184 0
M  V30 5525 H 524.291 -2.08237 -3.41288 0
M  V30 5526 H 525.731 -1.26049 -4.0483 0
M  V30 5527 C 524.19 0.0611471 -3.36845 0
M  V30 5528 O 524.72 1.03328 -3.88183 0
M  V30 5529 N 522.926 0.122454 -2.90342 0
M  V30 5530 H 522.473 -0.669329 -2.48752 0
M  V30 5531 H 522.431 0.986463 -2.98523 0
M  V30 5532 N 526.204 0.969867 -1.24223 0
M  V30 5533 C 527.434 1.74502 -1.106 0
M  V30 5534 C 527.842 1.86038 0.344483 0
M  V30 5535 O 527.185 1.3465 1.24961 0
M  V30 5536 C 527.247 3.18391 -1.66935 0
M  V30 5537 C 526.911 3.30334 -3.15798 0
M  V30 5538 C 527.908 3.15832 -4.12973 0
M  V30 5539 C 525.593 3.54644 -3.55715 0
M  V30 5540 C 527.587 3.25461 -5.48045 0
M  V30 5541 C 525.274 3.63912 -4.90929 0
M  V30 5542 C 526.272 3.49332 -5.86904 0
M  V30 5543 O 525.96 3.58251 -7.1966 0
M  V30 5544 H 525.692 0.554119 -0.387206 0
M  V30 5545 H 528.246 1.22646 -1.64764 0
M  V30 5546 H 526.476 3.71543 -1.07203 0
M  V30 5547 H 528.165 3.77707 -1.48634 0
M  V30 5548 H 528.931 2.96937 -3.83476 0
M  V30 5549 H 524.81 3.65059 -2.81519 0
M  V30 5550 H 528.354 3.13998 -6.22937 0
M  V30 5551 H 524.251 3.82319 -5.20098 0
M  V30 5552 H 525.019 3.7498 -7.27552 0
M  V30 5553 N 527.682 1.05563 1.17022 0
M  V30 5554 C 528.907 0.788437 1.91829 0
M  V30 5555 C 529.332 -0.650356 1.76499 0
M  V30 5556 O 528.69 -1.45229 1.08527 0
M  V30 5557 C 528.738 1.1786 3.40795 0
M  V30 5558 O 527.842 0.312965 4.11211 0
M  V30 5559 H 527.183 0.288794 0.597908 0
M  V30 5560 H 529.713 1.40948 1.48307 0
M  V30 5561 H 529.723 1.14697 3.91546 0
M  V30 5562 H 528.398 2.22666 3.51273 0
M  V30 5563 H 526.975 0.405515 3.70689 0
M  V30 5564 N 529.16 -1.33526 0.837174 0
M  V30 5565 C 530.09 -2.31764 0.284206 0
M  V30 5566 C 531.071 -1.58896 -0.607142 0
M  V30 5567 O 532.256 -1.86798 -0.531047 0
M  V30 5568 C 529.386 -3.43029 -0.542962 0
M  V30 5569 C 528.34 -4.27255 0.252451 0
M  V30 5570 C 527.666 -5.3012 -0.69836 0
M  V30 5571 C 528.966 -5.01229 1.46858 0
M  V30 5572 H 530.66 -2.78262 1.10502 0
M  V30 5573 H 528.206 -1.3378 0.532812 0
M  V30 5574 H 530.159 -4.1078 -0.940096 0
M  V30 5575 H 528.883 -2.95216 -1.39697 0
M  V30 5576 H 527.542 -3.61127 0.631124 0
M  V30 5577 H 527.19 -4.78564 -1.54872 0
M  V30 5578 H 526.89 -5.87353 -0.170274 0
M  V30 5579 H 528.414 -6.00737 -1.09305 0
M  V30 5580 H 529.828 -5.61756 1.14469 0
M  V30 5581 H 528.225 -5.68104 1.93333 0
M  V30 5582 H 529.295 -4.301 2.23924 0
M  V30 5583 N 530.638 -0.59345 -1.46 0
M  V30 5584 C 531.884 -0.0832754 -2.02629 0
M  V30 5585 C 532.217 1.27749 -1.46266 0
M  V30 5586 O 531.492 1.8395 -0.631866 0
M  V30 5587 C 531.775 -0.0290756 -3.60088 0
M  V30 5588 C 531.628 -1.41951 -4.26814 0
M  V30 5589 C 532.947 0.666055 -4.35031 0
M  V30 5590 H 530.066 -0.031736 -0.736316 0
M  V30 5591 H 532.708 -0.762711 -1.74019 0
M  V30 5592 H 530.858 0.549532 -3.84594 0
M  V30 5593 H 532.53 -2.04411 -4.13538 0
M  V30 5594 H 530.773 -1.98422 -3.8576 0
M  V30 5595 H 531.444 -1.33395 -5.3564 0
M  V30 5596 H 533.92 0.174401 -4.15734 0
M  V30 5597 H 532.796 0.673041 -5.44758 0
M  V30 5598 H 533.057 1.72946 -4.06869 0
M  V30 5599 N 532.116 1.54067 -0.331816 0
M  V30 5600 C 533.049 2.20886 0.573127 0
M  V30 5601 C 534.027 1.18876 1.10938 0
M  V30 5602 O 535.211 1.47649 1.17184 0
M  V30 5603 C 532.338 2.87706 1.78726 0
M  V30 5604 C 531.384 4.03505 1.38152 0
M  V30 5605 S 532.217 5.33919 0.41123 0
M  V30 5606 C 533.373 6.04236 1.63246 0
M  V30 5607 H 533.606 2.97299 0.00555737 0
M  V30 5608 H 531.139 1.53964 -0.115893 0
M  V30 5609 H 533.097 3.26825 2.48386 0
M  V30 5610 H 531.758 2.1108 2.32603 0
M  V30 5611 H 530.951 4.49152 2.28645 0
M  V30 5612 H 530.553 3.66102 0.764524 0
M  V30 5613 H 532.845 6.26917 2.56869 0
M  V30 5614 H 533.788 6.97546 1.218 0
M  V30 5615 H 534.196 5.34247 1.82318 0
M  V30 5616 N 533.594 0.0601682 1.57485 0
M  V30 5617 C 534.504 -0.926121 2.15546 0
M  V30 5618 C 535.52 -1.33532 1.11558 0
M  V30 5619 O 536.696 -1.4104 1.4377 0
M  V30 5620 C 533.761 -2.17952 2.69625 0
M  V30 5621 C 532.822 -1.82783 3.88444 0
M  V30 5622 C 532.055 -3.02148 4.39935 0
M  V30 5623 O 532.278 -4.15803 3.90466 0
M  V30 5624 O 531.212 -2.82639 5.31412 0
M  V30 5625 H 535.038 -0.462289 3.00161 0
M  V30 5626 H 532.623 -0.162246 1.48516 0
M  V30 5627 H 534.505 -2.91474 3.04337 0
M  V30 5628 H 533.18 -2.63456 1.88077 0
M  V30 5629 H 532.087 -1.06549 3.58606 0
M  V30 5630 H 533.42 -1.42072 4.7125 0
M  V30 5631 N 535.072 -1.5615 -0.213296 0
M  V30 5632 C 536.297 -1.83986 -0.957282 0
M  V30 5633 C 536.722 -0.641526 -1.76822 0
M  V30 5634 O 536.08 0.409722 -1.7661 0
M  V30 5635 C 536.128 -3.09889 -1.84393 0
M  V30 5636 O 535.232 -2.89163 -2.94038 0
M  V30 5637 H 534.573 -0.606357 -0.270605 0
M  V30 5638 H 537.103 -2.03369 -0.224111 0
M  V30 5639 H 537.113 -3.40209 -2.25215 0
M  V30 5640 H 535.788 -3.96735 -1.24795 0
M  V30 5641 H 534.365 -2.70097 -2.57103 0
M  V30 5642 N 536.55 0.480323 -1.50102 0
M  V30 5643 C 537.827 1.24159 -1.51142 0
M  V30 5644 C 538.207 2.09605 -0.250818 0
M  V30 5645 O 537.555 2.15274 0.766118 0
M  V30 5646 C 537.765 2.08057 -2.80202 0
M  V30 5647 C 539.113 2.66556 -3.30504 0
M  V30 5648 O 540.137 2.18308 -2.81461 0
M  V30 5649 O 538.996 3.54442 -4.15973 0
M  V30 5650 H 536.09 0.562928 -0.605839 0
M  V30 5651 H 538.636 0.492899 -1.62384 0
M  V30 5652 H 537.408 1.45032 -3.6343 0
M  V30 5653 H 537.031 2.90079 -2.71919 0
M  V30 5654 N 538.028 1.39524 0.732853 0
M  V30 5655 C 538.991 1.38189 1.82857 0
M  V30 5656 C 539.991 0.278624 1.58368 0
M  V30 5657 O 541.181 0.536639 1.65728 0
M  V30 5658 C 538.313 1.15661 3.2068 0
M  V30 5659 H 539.506 2.35692 1.85444 0
M  V30 5660 H 537.059 1.2512 0.936728 0
M  V30 5661 H 537.794 0.188482 3.23752 0
M  V30 5662 H 537.579 1.95559 3.39852 0
M  V30 5663 H 539.069 1.17472 4.00737 0
M  V30 5664 N 539.506 -0.963266 1.24736 0
M  V30 5665 C 540.754 -1.70343 1.08755 0
M  V30 5666 C 541.075 -1.91387 -0.373619 0
M  V30 5667 O 540.345 -1.4948 -1.2662 0
M  V30 5668 H 538.925 -0.631224 0.399456 0
M  V30 5669 H 541.587 -1.15859 1.56725 0
M  V30 5670 H 540.683 -2.68616 1.58909 0
M  V30 5671 N 540.985 -1.06182 -1.16461 0
M  V30 5672 C 542.213 -0.798583 -1.90867 0
M  V30 5673 C 542.628 0.646921 -1.77371 0
M  V30 5674 O 541.985 1.44279 -1.11758 0
M  V30 5675 C 542.036 -1.18258 -3.4161 0
M  V30 5676 O 541.757 -2.57135 -3.54701 0
M  V30 5677 C 543.258 -0.946917 -4.33069 0
M  V30 5678 H 540.478 -0.289603 -0.605286 0
M  V30 5679 H 543.022 -1.41515 -1.47627 0
M  V30 5680 H 541.177 -0.610562 -3.82558 0
M  V30 5681 H 541.591 -2.72477 -4.4817 0
M  V30 5682 H 543.065 -1.26523 -5.37304 0
M  V30 5683 H 543.542 0.117406 -4.39043 0
M  V30 5684 H 544.148 -1.50326 -3.97847 0
M  V30 5685 N 542.463 1.3308 -0.844243 0
M  V30 5686 C 543.71 1.97605 -0.44255 0
M  V30 5687 C 544.038 1.66856 0.999458 0
M  V30 5688 O 543.293 0.943586 1.7145 0
M  V30 5689 C 543.592 3.52045 -0.616354 0
M  V30 5690 C 543.258 4.02757 -2.02726 0
M  V30 5691 C 541.92 4.16316 -2.41317 0
M  V30 5692 C 544.272 4.29776 -2.9486 0
M  V30 5693 C 541.6 4.54232 -3.71335 0
M  V30 5694 C 543.952 4.69146 -4.24364 0
M  V30 5695 C 542.616 4.80911 -4.62904 0
M  V30 5696 H 541.886 0.723088 -0.161941 0
M  V30 5697 H 544.533 1.58663 -1.0723 0
M  V30 5698 H 542.838 3.91681 0.0966812 0
M  V30 5699 H 544.535 3.99981 -0.285756 0
M  V30 5700 H 541.125 3.9268 -1.71756 0
M  V30 5701 H 545.309 4.18818 -2.6628 0
M  V30 5702 H 540.565 4.61535 -4.00993 0
M  V30 5703 H 544.739 4.89008 -4.95827 0
M  V30 5704 H 542.366 5.10048 -5.63698 0
M  V30 5705 N 543.941 0.601185 1.45683 0
M  V30 5706 C 544.871 -0.108824 2.33246 0
M  V30 5707 C 545.852 -0.865223 1.46451 0
M  V30 5708 O 547.037 -0.83704 1.75235 0
M  V30 5709 C 544.167 -1.11101 3.2905 0
M  V30 5710 C 543.121 -0.468244 4.25431 0
M  V30 5711 C 542.447 -1.57822 5.10878 0
M  V30 5712 C 543.747 0.606469 5.18767 0
M  V30 5713 H 545.441 0.622306 2.92861 0
M  V30 5714 H 542.987 0.300714 1.40825 0
M  V30 5715 H 544.94 -1.61622 3.89174 0
M  V30 5716 H 543.664 -1.87265 2.67581 0
M  V30 5717 H 542.323 0.0160484 3.66596 0
M  V30 5718 H 541.971 -2.32998 4.45781 0
M  V30 5719 H 541.671 -1.15369 5.76163 0
M  V30 5720 H 543.195 -2.08583 5.73869 0
M  V30 5721 H 544.609 0.185589 5.73 0
M  V30 5722 H 543.006 0.952381 5.92494 0
M  V30 5723 H 544.076 1.48559 4.61582 0
M  V30 5724 N 545.419 -1.53889 0.339982 0
M  V30 5725 C 546.83 -1.86139 -0.144671 0
M  V30 5726 C 547.181 -1.2613 -1.50285 0
M  V30 5727 O 546.306 -0.573515 -2.08662 0
M  V30 5728 C 546.901 -3.37728 -0.269285 0
M  V30 5729 C 545.46 -3.69868 -0.698168 0
M  V30 5730 C 544.607 -2.76777 0.170249 0
M  V30 5731 H 547.558 -1.48503 0.559704 0
M  V30 5732 H 547.579 -3.64331 -1.0974 0
M  V30 5733 H 547.091 -3.81375 0.719366 0
M  V30 5734 H 545.192 -3.31764 -1.69597 0
M  V30 5735 H 545.305 -4.76582 -0.490533 0
M  V30 5736 H 543.669 -2.52188 -0.356844 0
M  V30 5737 H 544.452 -3.23253 1.15597 0
M  V30 5738 N 546.897 -0.0685191 -1.57451 0
M  V30 5739 C 548.125 0.610462 -1.97689 0
M  V30 5740 C 548.54 1.63346 -0.946758 0
M  V30 5741 O 547.897 1.82377 0.0669868 0
M  V30 5742 C 547.948 1.28196 -3.38006 0
M  V30 5743 O 547.669 0.299906 -4.37072 0
M  V30 5744 C 549.17 2.04907 -3.931 0
M  V30 5745 H 546.39 0.165689 -0.650222 0
M  V30 5746 H 548.934 -0.139953 -2.04021 0
M  V30 5747 H 547.089 1.98348 -3.32771 0
M  V30 5748 H 547.503 0.78126 -5.18649 0
M  V30 5749 H 548.977 2.47287 -4.93511 0
M  V30 5750 H 549.454 2.9043 -3.29465 0
M  V30 5751 H 550.06 1.39629 -4.01726 0
M  V30 5752 N 548.375 1.56261 0.205012 0
M  V30 5753 C 549.623 1.79684 0.925096 0
M  V30 5754 C 549.944 0.63989 1.84202 0
M  V30 5755 O 549.214 -0.342345 1.92885 0
M  V30 5756 H 547.794 0.662774 0.344587 0
M  V30 5757 H 550.456 1.93734 0.212899 0
M  V30 5758 H 549.552 2.72467 1.52211 0
M  V30 5759 N 549.853 -0.472356 1.50355 0
M  V30 5760 C 550.783 -1.57859 1.72055 0
M  V30 5761 C 551.764 -1.60283 0.569505 0
M  V30 5762 O 552.949 -1.7657 0.808503 0
M  V30 5763 C 550.079 -2.96191 1.81351 0
M  V30 5764 C 549.033 -3.08633 2.96529 0
M  V30 5765 C 548.359 -4.486 2.90968 0
M  V30 5766 C 549.659 -2.85969 4.37057 0
M  V30 5767 H 551.353 -1.39953 2.64676 0
M  V30 5768 H 548.899 -0.671846 1.27367 0
M  V30 5769 H 550.852 -3.73507 1.95117 0
M  V30 5770 H 549.576 -3.15251 0.853502 0
M  V30 5771 H 548.235 -2.33749 2.82413 0
M  V30 5772 H 547.883 -4.64577 1.92815 0
M  V30 5773 H 547.583 -4.57861 3.68289 0
M  V30 5774 H 549.107 -5.27938 3.0678 0
M  V30 5775 H 550.521 -3.53036 4.51706 0
M  V30 5776 H 548.918 -3.06677 5.15819 0
M  V30 5777 H 549.988 -1.81838 4.49514 0
M  V30 5778 N 551.331 -1.39911 -0.725443 0
M  V30 5779 C 552.263 -1.35301 -1.85003 0
M  V30 5780 C 553.276 -0.260102 -1.60709 0
M  V30 5781 O 554.465 -0.519749 -1.70766 0
M  V30 5782 C 551.565 -1.08039 -3.21218 0
M  V30 5783 C 550.738 -2.28793 -3.7279 0
M  V30 5784 C 549.797 -1.97841 -4.87591 0
M  V30 5785 O 548.823 -2.70616 -5.00755 0
M  V30 5786 N 550.025 -0.950367 -5.72668 0
M  V30 5787 H 552.79 -2.32218 -1.89459 0
M  V30 5788 H 550.351 -1.34137 -0.90658 0
M  V30 5789 H 552.343 -0.853354 -3.95601 0
M  V30 5790 H 550.913 -0.198229 -3.11971 0
M  V30 5791 H 550.133 -2.67388 -2.8965 0
M  V30 5792 H 551.421 -3.09317 -4.03981 0
M  V30 5793 H 550.819 -0.347436 -5.64632 0
M  V30 5794 H 549.376 -0.783232 -6.47077 0
M  V30 5795 N 552.809 0.956637 -1.25245 0
M  V30 5796 C 554.056 1.701 -1.09874 0
M  V30 5797 C 554.384 1.91128 0.36062 0
M  V30 5798 O 553.639 1.47837 1.28229 0
M  V30 5799 C 553.938 3.08996 -1.79601 0
M  V30 5800 C 553.604 3.07774 -3.29523 0
M  V30 5801 C 552.266 3.07149 -3.70423 0
M  V30 5802 C 554.618 3.01257 -4.25316 0
M  V30 5803 C 551.946 2.97752 -5.0553 0
M  V30 5804 C 554.298 2.93403 -5.60444 0
M  V30 5805 C 552.962 2.91111 -6.00675 0
M  V30 5806 H 552.232 0.62244 -0.402056 0
M  V30 5807 H 554.879 1.1178 -1.55491 0
M  V30 5808 H 553.184 3.70848 -1.26408 0
M  V30 5809 H 554.881 3.65407 -1.65162 0
M  V30 5810 H 551.471 3.09032 -2.9698 0
M  V30 5811 H 555.655 3.00861 -3.9471 0
M  V30 5812 H 550.911 2.94346 -5.35883 0
M  V30 5813 H 555.085 2.87321 -6.34366 0
M  V30 5814 H 552.712 2.83586 -7.05325 0
M  V30 5815 N 554.287 1.06798 1.15896 0
M  V30 5816 C 555.515 0.808694 1.90441 0
M  V30 5817 C 555.93 -0.637506 1.77711 0
M  V30 5818 O 555.287 -1.43684 1.12522 0
M  V30 5819 C 555.338 1.20068 3.40978 0
M  V30 5820 O 555.059 2.59013 3.53333 0
M  V30 5821 C 556.56 0.96987 4.3256 0
M  V30 5822 H 553.78 0.292809 0.603742 0
M  V30 5823 H 556.324 1.42296 1.46874 0
M  V30 5824 H 554.479 0.630842 3.82229 0
M  V30 5825 H 554.893 2.7485 4.46719 0
M  V30 5826 H 556.367 1.29371 5.36626 0
M  V30 5827 H 556.844 -0.0941209 4.39099 0
M  V30 5828 H 557.45 1.52433 3.97044 0
M  V30 5829 N 555.766 -1.3263 0.851289 0
M  V30 5830 C 557.014 -1.96978 0.452128 0
M  V30 5831 C 557.335 -1.67715 -0.99482 0
M  V30 5832 O 556.605 -0.98259 -1.69476 0
M  V30 5833 H 555.185 -0.72873 0.164202 0
M  V30 5834 H 557.847 -1.61774 1.08698 0
M  V30 5835 H 556.943 -3.06387 0.594407 0
M  V30 5836 N 557.244 -0.608902 -1.45362 0
M  V30 5837 C 558.469 -0.10921 -2.07112 0
M  V30 5838 C 558.894 1.19779 -1.45033 0
M  V30 5839 O 558.252 1.72961 -0.543527 0
M  V30 5840 C 558.3 0.0155745 -3.60597 0
M  V30 5841 O 557.404 1.06546 -3.98399 0
M  V30 5842 H 556.745 -0.0746619 -0.659789 0
M  V30 5843 H 559.275 -0.839283 -1.86594 0
M  V30 5844 H 559.285 0.213364 -4.07442 0
M  V30 5845 H 557.96 -0.938765 -4.05167 0
M  V30 5846 H 556.537 0.844024 -3.63223 0
M  V30 5847 N 558.722 1.53707 -0.348139 0
M  V30 5848 C 559.632 2.28881 0.514857 0
M  V30 5849 C 560.648 1.34168 1.10793 0
M  V30 5850 O 561.824 1.6721 1.12262 0
M  V30 5851 C 558.889 3.05042 1.64774 0
M  V30 5852 C 557.95 4.15389 1.08398 0
M  V30 5853 C 557.183 4.87909 2.16287 0
M  V30 5854 O 557.406 4.60137 3.3709 0
M  V30 5855 O 556.34 5.74254 1.80323 0
M  V30 5856 H 560.166 3.03547 -0.0963699 0
M  V30 5857 H 557.751 1.48972 -0.113043 0
M  V30 5858 H 559.633 3.52656 2.30677 0
M  V30 5859 H 558.308 2.33228 2.24469 0
M  V30 5860 H 557.215 3.72068 0.389341 0
M  V30 5861 H 558.548 4.89318 0.531829 0
M  V30 5862 N 560.2 0.0768682 1.57412 0
M  V30 5863 C 561.147 -0.888577 2.13009 0
M  V30 5864 C 562.117 -1.29198 1.0439 0
M  V30 5865 O 563.302 -1.37694 1.3208 0
M  V30 5866 C 560.442 -2.14899 2.70023 0
M  V30 5867 C 559.555 -1.79777 3.92816 0
M  V30 5868 C 558.69 -3.00467 4.38056 0
M  V30 5869 C 557.729 -2.61385 5.53484 0
M  V30 5870 N 556.866 -3.74851 5.93659 0
M  V30 5871 H 561.706 -0.407593 2.95199 0
M  V30 5872 H 559.243 -0.189534 1.45874 0
M  V30 5873 H 561.201 -2.88688 3.0119 0
M  V30 5874 H 559.831 -2.60529 1.9059 0
M  V30 5875 H 558.883 -0.960301 3.68079 0
M  V30 5876 H 560.195 -1.47027 4.76639 0
M  V30 5877 H 559.349 -3.82529 4.7091 0
M  V30 5878 H 558.088 -3.36413 3.53097 0
M  V30 5879 H 557.093 -1.77746 5.20275 0
M  V30 5880 H 558.318 -2.26603 6.40178 0
M  V30 5881 H 556.264 -4.1055 5.11649 0
M  V30 5882 H 556.181 -3.45887 6.72234 0
M  V30 5883 H 557.449 -4.57477 6.31138 0
M  V30 5884 N 561.678 -1.56367 -0.196722 0
M  V30 5885 C 562.641 -1.93561 -1.22746 0
M  V30 5886 C 563.641 -0.816566 -1.38524 0
M  V30 5887 O 564.831 -1.084 -1.36363 0
M  V30 5888 C 561.963 -2.20823 -2.59712 0
M  V30 5889 H 563.156 -2.85774 -0.909586 0
M  V30 5890 H 560.709 -1.50032 -0.438174 0
M  V30 5891 H 561.444 -1.31243 -2.96557 0
M  V30 5892 H 561.229 -3.02368 -2.49632 0
M  V30 5893 H 562.719 -2.50608 -3.34044 0
M  V30 5894 N 563.156 0.464375 -1.50603 0
M  V30 5895 C 564.572 0.798684 -1.38178 0
M  V30 5896 C 564.772 1.96568 -0.44308 0
M  V30 5897 O 563.828 2.52252 0.111814 0
M  V30 5898 C 565.141 1.10444 -2.79683 0
M  V30 5899 C 566.689 1.2105 -2.88645 0
M  V30 5900 C 567.164 1.54934 -4.30998 0
M  V30 5901 N 568.655 1.61913 -4.3398 0
M  V30 5902 C 569.39 1.8965 -5.41129 0
M  V30 5903 N 568.886 2.15361 -6.58477 0
M  V30 5904 N 570.679 1.91207 -5.28579 0
M  V30 5905 H 562.83 -0.304603 -2.10204 0
M  V30 5906 H 565.093 -0.0737804 -0.945125 0
M  V30 5907 H 564.799 0.319934 -3.50242 0
M  V30 5908 H 564.673 2.03896 -3.17342 0
M  V30 5909 H 567.06 1.98567 -2.18301 0
M  V30 5910 H 567.141 0.255613 -2.5452 0
M  V30 5911 H 566.785 0.779549 -5.01882 0
M  V30 5912 H 566.715 2.51584 -4.62615 0
M  V30 5913 H 569.206 1.44055 -3.49366 0
M  V30 5914 H 569.519 2.35818 -7.35941 0
M  V30 5915 H 567.864 2.1274 -6.6164 0
M  V30 5916 H 571.055 1.70622 -4.35897 0
M  V30 5917 H 571.228 2.12488 -6.12171 0
M  V30 5918 N 564.634 1.40294 0.718013 0
M  V30 5919 C 565.597 1.4012 1.81381 0
M  V30 5920 C 566.597 0.295405 1.58063 0
M  V30 5921 O 567.787 0.554187 1.6515 0
M  V30 5922 C 564.919 1.19056 3.19435 0
M  V30 5923 H 566.112 2.37645 1.82933 0
M  V30 5924 H 563.665 1.26107 0.923405 0
M  V30 5925 H 564.4 0.222809 3.23534 0
M  V30 5926 H 564.185 1.99152 3.37758 0
M  V30 5927 H 565.675 1.21716 3.99468 0
M  V30 5928 N 566.112 -0.949982 1.2575 0
M  V30 5929 C 567.361 -1.68956 1.10168 0
M  V30 5930 C 567.674 -1.92327 -0.356309 0
M  V30 5931 O 568.88 -2.64026 -0.632657 0
M  V30 5932 C 567.336 -3.04196 1.92336 0
M  V30 5933 C 566.944 -2.88603 3.42655 0
M  V30 5934 C 568.688 -3.81904 1.85336 0
M  V30 5935 C 566.595 -4.19262 4.17101 0
M  V30 5936 H 565.525 -0.633645 0.408668 0
M  V30 5937 H 568.176 -1.05719 1.49986 0
M  V30 5938 H 566.558 -3.68363 1.45344 0
M  V30 5939 H 567.732 -2.3334 3.97353 0
M  V30 5940 H 566.047 -2.24345 3.50796 0
M  V30 5941 H 568.644 -4.78688 2.38248 0
M  V30 5942 H 568.987 -4.08099 0.822226 0
M  V30 5943 H 569.52 -3.24495 2.30104 0
M  V30 5944 H 566.259 -3.98254 5.20648 0
M  V30 5945 H 565.779 -4.74273 3.67186 0
M  V30 5946 H 567.458 -4.87775 4.25071 0
M  V30 5947 N 567.59 -1.07411 -1.15328 0
M  V30 5948 C 568.523 -0.63913 -2.19067 0
M  V30 5949 C 569.501 0.343929 -1.58921 0
M  V30 5950 O 570.685 0.250207 -1.86832 0
M  V30 5951 C 567.812 0.0613977 -3.38644 0
M  V30 5952 C 566.858 -0.880201 -4.17318 0
M  V30 5953 S 567.691 -2.38152 -4.79629 0
M  V30 5954 C 568.847 -1.69281 -6.02573 0
M  V30 5955 H 569.08 -1.51799 -2.55626 0
M  V30 5956 H 566.613 -0.888138 -1.26299 0
M  V30 5957 H 568.571 0.459323 -4.07922 0
M  V30 5958 H 567.232 0.916605 -3.00428 0
M  V30 5959 H 566.425 -0.336781 -5.02874 0
M  V30 5960 H 566.027 -1.21854 -3.53592 0
M  V30 5961 H 568.319 -1.00488 -6.70006 0
M  V30 5962 H 569.262 -2.52671 -6.61485 0
M  V30 5963 H 569.67 -1.17053 -5.52231 0
M  V30 5964 N 569.068 1.32177 -0.85831 0
M  V30 5965 C 569.978 2.32561 -0.308606 0
M  V30 5966 C 570.994 1.64209 0.575462 0
M  V30 5967 O 572.17 1.95719 0.474961 0
M  V30 5968 C 569.235 3.43207 0.490909 0
M  V30 5969 C 568.296 4.27243 -0.419733 0
M  V30 5970 C 567.529 5.32605 0.341719 0
M  V30 5971 O 567.752 5.48332 1.57125 0
M  V30 5972 O 566.686 6.0118 -0.294379 0
M  V30 5973 H 570.512 2.81477 -1.14037 0
M  V30 5974 H 568.097 1.35866 -0.621349 0
M  V30 5975 H 569.979 4.10677 0.944574 0
M  V30 5976 H 568.654 2.96474 1.29941 0
M  V30 5977 H 567.561 3.62569 -0.921652 0
M  V30 5978 H 568.894 4.7751 -1.19352 0
M  V30 5979 N 570.547 0.616602 1.45037 0
M  V30 5980 C 571.457 -0.0985401 2.34393 0
M  V30 5981 C 572.473 -0.850971 1.51771 0
M  V30 5982 O 573.649 -0.806521 1.84546 0
M  V30 5983 C 570.714 -1.07748 3.29532 0
M  V30 5984 C 569.775 -0.326022 4.2806 0
M  V30 5985 C 569.008 -1.25833 5.18654 0
M  V30 5986 O 569.231 -2.49652 5.12864 0
M  V30 5987 O 568.165 -0.750512 5.97203 0
M  V30 5988 H 571.991 0.636016 2.96966 0
M  V30 5989 H 569.576 0.376832 1.44569 0
M  V30 5990 H 571.458 -1.64107 3.88133 0
M  V30 5991 H 570.133 -1.79291 2.69512 0
M  V30 5992 H 569.04 0.280253 3.73049 0
M  V30 5993 H 570.373 0.349091 4.9096 0
M  V30 5994 N 572.025 -1.5352 0.356285 0
M  V30 5995 C 573.271 -2.01414 -0.236653 0
M  V30 5996 C 573.604 -1.24339 -1.49176 0
M  V30 5997 O 572.879 -0.334496 -1.91602 0
M  V30 5998 C 573.162 -3.56059 -0.537982 0
M  V30 5999 C 573.015 -4.43835 0.730112 0
M  V30 6000 C 574.334 -4.19127 -1.34239 0
M  V30 6001 H 571.453 -0.732135 -0.0845386 0
M  V30 6002 H 574.095 -1.83854 0.479341 0
M  V30 6003 H 572.245 -3.71153 -1.14795 0
M  V30 6004 H 573.917 -4.40555 1.36782 0
M  V30 6005 H 572.16 -4.1218 1.3524 0
M  V30 6006 H 572.831 -5.49958 0.474358 0
M  V30 6007 H 575.307 -4.07809 -0.826498 0
M  V30 6008 H 574.183 -5.27378 -1.52198 0
M  V30 6009 H 574.444 -3.74581 -2.34822 0
M  V30 6010 N 573.503 -0.0852151 -1.57369 0
M  V30 6011 C 574.436 0.913608 -2.09113 0
M  V30 6012 C 575.414 1.28264 -0.999358 0
M  V30 6013 O 576.598 1.3896 -1.27367 0
M  V30 6014 C 573.725 2.21777 -2.55993 0
M  V30 6015 C 572.771 1.99932 -3.76735 0
M  V30 6016 S 573.604 1.24637 -5.20794 0
M  V30 6017 C 574.76 2.56304 -5.71016 0
M  V30 6018 H 574.993 0.473369 -2.93507 0
M  V30 6019 H 572.526 0.127856 -1.5387 0
M  V30 6020 H 574.484 2.96726 -2.83662 0
M  V30 6021 H 573.145 2.62923 -1.71843 0
M  V30 6022 H 572.338 2.96482 -4.07571 0
M  V30 6023 H 571.94 1.33116 -3.49509 0
M  V30 6024 H 574.232 3.5233 -5.78679 0
M  V30 6025 H 575.175 2.3006 -6.69685 0
M  V30 6026 H 575.583 2.64125 -4.98897 0
M  V30 6027 N 574.981 1.5647 0.188427 0
M  V30 6028 C 576.206 1.85486 0.927891 0
M  V30 6029 C 576.631 0.669575 1.75779 0
M  V30 6030 O 575.989 -0.381573 1.77239 0
M  V30 6031 C 576.037 3.12784 1.7944 0
M  V30 6032 O 575.141 2.93805 2.894 0
M  V30 6033 H 574.482 0.610585 0.260925 0
M  V30 6034 H 577.012 2.037 0.191729 0
M  V30 6035 H 577.022 3.43749 2.19774 0
M  V30 6036 H 575.697 3.98671 1.18468 0
M  V30 6037 H 574.274 2.74153 2.52774 0
M  V30 6038 N 576.459 -0.456382 1.50847 0
M  V30 6039 C 577.389 -1.56025 1.73719 0
M  V30 6040 C 578.37 -1.5967 0.586473 0
M  V30 6041 O 579.555 -1.75702 0.827185 0
M  V30 6042 C 576.685 -2.94251 1.84483 0
M  V30 6043 C 575.639 -3.05471 2.99786 0
M  V30 6044 C 574.965 -4.45489 2.95709 0
M  V30 6045 C 576.265 -2.81318 4.40065 0
M  V30 6046 H 577.959 -1.37138 2.66146 0
M  V30 6047 H 575.505 -0.658299 1.28072 0
M  V30 6048 H 577.458 -3.71417 1.99067 0
M  V30 6049 H 576.182 -3.14328 0.886891 0
M  V30 6050 H 574.841 -2.30741 2.84876 0
M  V30 6051 H 574.489 -4.62505 1.97732 0
M  V30 6052 H 574.189 -4.53929 3.73125 0
M  V30 6053 H 575.713 -5.24655 3.12362 0
M  V30 6054 H 577.127 -3.48226 4.55425 0
M  V30 6055 H 575.524 -3.01188 5.19043 0
M  V30 6056 H 576.594 -1.7706 4.51418 0
M  V30 6057 N 577.937 -1.40673 -0.710563 0
M  V30 6058 C 578.867 -1.44095 -1.83736 0
M  V30 6059 C 579.848 -0.301286 -1.67411 0
M  V30 6060 O 581.033 -0.510618 -1.87367 0
M  V30 6061 C 578.163 -1.30773 -3.21738 0
M  V30 6062 C 577.117 -2.42395 -3.52745 0
M  V30 6063 C 576.443 -2.14147 -4.89944 0
M  V30 6064 C 577.743 -3.84738 -3.53234 0
M  V30 6065 H 579.437 -2.38396 -1.81129 0
M  V30 6066 H 576.983 -1.14746 -0.870017 0
M  V30 6067 H 578.936 -1.31783 -4.00264 0
M  V30 6068 H 577.66 -0.329507 -3.24934 0
M  V30 6069 H 576.319 -2.40643 -2.76562 0
M  V30 6070 H 575.967 -1.14703 -4.89747 0
M  V30 6071 H 575.667 -2.88934 -5.11655 0
M  V30 6072 H 577.191 -2.16848 -5.70797 0
M  V30 6073 H 578.605 -3.88286 -4.2179 0
M  V30 6074 H 577.002 -4.59085 -3.86473 0
M  V30 6075 H 578.072 -4.13962 -2.52514 0
M  V30 6076 N 579.415 0.9433 -1.26252 0
M  V30 6077 C 580.347 2.04542 -1.03417 0
M  V30 6078 C 581.36 1.62799 0.0046911 0
M  V30 6079 O 582.549 1.76944 -0.235146 0
M  V30 6080 C 579.649 3.34511 -0.543671 0
M  V30 6081 C 578.822 4.05033 -1.65128 0
M  V30 6082 C 577.881 5.13273 -1.1592 0
M  V30 6083 O 576.907 5.38095 -1.85586 0
M  V30 6084 N 578.109 5.805 -0.00649279 0
M  V30 6085 H 580.874 2.24699 -1.98319 0
M  V30 6086 H 578.435 1.11264 -1.1761 0
M  V30 6087 H 580.427 4.04212 -0.198703 0
M  V30 6088 H 578.997 3.11042 0.311711 0
M  V30 6089 H 578.217 3.29275 -2.16729 0
M  V30 6090 H 579.505 4.48903 -2.39508 0
M  V30 6091 H 578.903 5.62767 0.575347 0
M  V30 6092 H 577.46 6.51201 0.279416 0
M  V30 6093 N 580.893 1.08022 1.14757 0
M  V30 6094 C 582.304 0.829144 1.67279 0
M  V30 6095 C 582.655 -0.644721 1.85305 0
M  V30 6096 O 581.78 -1.49838 1.56133 0
M  V30 6097 C 582.375 1.49855 3.03857 0
M  V30 6098 C 580.934 1.29482 3.53428 0
M  V30 6099 C 580.081 1.56386 2.28995 0
M  V30 6100 H 583.032 1.24134 0.988762 0
M  V30 6101 H 583.053 0.923572 3.69121 0
M  V30 6102 H 582.565 2.57123 2.90705 0
M  V30 6103 H 580.666 0.242669 3.71809 0
M  V30 6104 H 580.779 2.01974 4.34446 0
M  V30 6105 H 579.143 0.985217 2.34874 0
M  V30 6106 H 579.926 2.64851 2.18423 0
M  V30 6107 N 582.371 -1.3172 0.865308 0
M  V30 6108 C 583.301 -2.31109 0.333302 0
M  V30 6109 C 584.282 -1.60148 -0.573301 0
M  V30 6110 O 585.467 -1.87882 -0.491305 0
M  V30 6111 C 582.597 -3.44104 -0.470078 0
M  V30 6112 C 581.551 -4.26623 0.343021 0
M  V30 6113 C 580.877 -5.31482 -0.585756 0
M  V30 6114 C 582.177 -4.98001 1.57456 0
M  V30 6115 H 583.871 -2.75855 1.1638 0
M  V30 6116 H 581.417 -1.3262 0.561069 0
M  V30 6117 H 583.37 -4.12682 -0.852752 0
M  V30 6118 H 582.094 -2.98112 -1.33404 0
M  V30 6119 H 580.753 -3.59707 0.707583 0
M  V30 6120 H 580.401 -4.81741 -1.44686 0
M  V30 6121 H 580.101 -5.87582 -0.0456494 0
M  V30 6122 H 581.625 -6.0292 -0.965375 0
M  V30 6123 H 583.039 -5.59201 1.26359 0
M  V30 6124 H 581.436 -5.63876 2.05339 0
M  V30 6125 H 582.506 -4.25253 2.32997 0
M  V30 6126 N 583.85 -0.624285 -1.44708 0
M  V30 6127 C 584.798 0.0969952 -2.32398 0
M  V30 6128 C 585.792 0.842762 -1.46949 0
M  V30 6129 O 586.998 0.756436 -1.63334 0
M  V30 6130 H 583.373 0.0501306 -0.750327 0
M  V30 6131 H 585.344 -0.660767 -2.90992 0
M  V30 6132 C 584.093 1.06967 -3.30837 0
M  V30 6133 H 583.416 0.505242 -3.96595 0
M  V30 6134 H 584.856 1.54397 -3.94889 0
M  V30 6135 C 583.315 2.15153 -2.5925 0
M  V30 6136 O 583.845 3.23139 -2.3863 0
M  V30 6137 N 582.051 1.90898 -2.19103 0
M  V30 6138 H 581.598 1.03086 -2.36074 0
M  V30 6139 H 581.556 2.63485 -1.71531 0
M  V30 6140 N 585.328 1.53329 -0.364422 0
M  V30 6141 C 586.577 2.00421 0.226747 0
M  V30 6142 C 586.89 1.25581 1.49963 0
M  V30 6143 O 588.096 1.63256 2.16933 0
M  V30 6144 C 586.552 3.57017 0.454618 0
M  V30 6145 C 586.16 4.40734 -0.803568 0
M  V30 6146 C 587.904 4.12468 1.00351 0
M  V30 6147 C 585.811 5.8888 -0.545345 0
M  V30 6148 H 584.741 0.748787 0.0885082 0
M  V30 6149 H 587.392 1.7703 -0.482983 0
M  V30 6150 H 585.774 3.76558 1.22558 0
M  V30 6151 H 586.948 4.32967 -1.57723 0
M  V30 6152 H 585.263 3.96381 -1.27559 0
M  V30 6153 H 587.86 5.20783 1.212 0
M  V30 6154 H 588.203 3.6699 1.9653 0
M  V30 6155 H 588.736 3.96721 0.29274 0
M  V30 6156 H 585.475 6.38633 -1.47743 0
M  V30 6157 H 584.995 5.99499 0.189842 0
M  V30 6158 H 586.674 6.46776 -0.170425 0
M  V30 6159 N 586.806 0.0935595 1.57322 0
M  V30 6160 C 588.034 -0.578934 1.98635 0
M  V30 6161 C 588.449 -1.61819 0.972626 0
M  V30 6162 O 587.806 -1.82461 -0.0379638 0
M  V30 6163 C 587.857 -1.22802 3.40003 0
M  V30 6164 O 587.578 -0.230334 4.37494 0
M  V30 6165 C 589.079 -1.98627 3.96311 0
M  V30 6166 H 586.299 -0.155324 0.652775 0
M  V30 6167 H 588.843 0.172393 2.03772 0
M  V30 6168 H 586.998 -1.93029 3.35885 0
M  V30 6169 H 587.412 -0.698649 5.19826 0
M  V30 6170 H 588.886 -2.39405 4.97382 0
M  V30 6171 H 589.363 -2.85151 3.34044 0
M  V30 6172 H 589.969 -1.3322 4.03897 0
M  V30 6173 N 588.284 -1.56567 -0.180126 0
M  V30 6174 C 589.216 -1.92275 -1.24751 0
M  V30 6175 C 590.229 -0.814922 -1.40936 0
M  V30 6176 O 591.418 -1.09336 -1.41095 0
M  V30 6177 C 588.518 -2.15265 -2.61752 0
M  V30 6178 C 587.691 -3.46467 -2.66981 0
M  V30 6179 C 586.75 -3.58391 -3.85283 0
M  V30 6180 O 585.776 -4.31086 -3.7169 0
M  V30 6181 N 586.978 -2.92587 -5.01371 0
M  V30 6182 H 589.743 -2.84435 -0.944302 0
M  V30 6183 H 587.304 -1.57617 -0.369952 0
M  V30 6184 H 589.296 -2.20515 -3.39345 0
M  V30 6185 H 587.866 -1.29533 -2.845 0
M  V30 6186 H 587.086 -3.52953 -1.75549 0
M  V30 6187 H 588.374 -4.32819 -2.67479 0
M  V30 6188 H 587.772 -2.3338 -5.15316 0
M  V30 6189 H 586.329 -3.03444 -5.76858 0
M  V30 6190 N 589.762 0.448376 -1.51087 0
M  V30 6191 C 591.008 1.20049 -1.6345 0
M  V30 6192 C 591.341 1.91121 -0.344444 0
M  V30 6193 O 590.616 1.83125 0.655396 0
M  V30 6194 C 590.899 2.22624 -2.83038 0
M  V30 6195 C 590.752 1.55708 -4.21989 0
M  V30 6196 C 592.071 3.23718 -2.98152 0
M  V30 6197 H 589.19 0.435085 -0.59487 0
M  V30 6198 H 591.832 0.491183 -1.83541 0
M  V30 6199 H 589.982 2.83117 -2.66039 0
M  V30 6200 H 591.654 0.986367 -4.50631 0
M  V30 6201 H 589.897 0.859647 -4.25197 0
M  V30 6202 H 590.568 2.30357 -5.01637 0
M  V30 6203 H 593.044 2.73269 -3.13788 0
M  V30 6204 H 591.92 3.92795 -3.83411 0
M  V30 6205 H 592.181 3.89179 -2.09743 0
M  V30 6206 N 591.24 1.41047 0.703093 0
M  V30 6207 C 592.17 1.45067 1.82969 0
M  V30 6208 C 593.151 0.31016 1.67248 0
M  V30 6209 O 594.336 0.520548 1.87093 0
M  V30 6210 C 591.466 1.32478 3.2104 0
M  V30 6211 C 590.42 2.44262 3.51454 0
M  V30 6212 C 589.746 2.16742 4.88801 0
M  V30 6213 C 591.046 3.86606 3.51189 0
M  V30 6214 H 592.74 2.39353 1.79863 0
M  V30 6215 H 590.286 1.15206 0.863919 0
M  V30 6216 H 592.239 1.33904 3.99559 0
M  V30 6217 H 590.963 0.346735 3.24754 0
M  V30 6218 H 589.622 2.42107 2.75282 0
M  V30 6219 H 589.27 1.17299 4.89132 0
M  V30 6220 H 588.97 2.91643 5.10116 0
M  V30 6221 H 590.494 2.19872 5.69639 0
M  V30 6222 H 591.908 3.90517 4.19725 0
M  V30 6223 H 590.305 4.61128 3.84033 0
M  V30 6224 H 591.375 4.15296 2.50315 0
M  V30 6225 N 592.718 -0.936591 1.26751 0
M  V30 6226 C 593.943 -1.72288 1.15462 0
M  V30 6227 C 594.368 -1.85915 -0.285887 0
M  V30 6228 O 593.726 -1.35272 -1.20711 0
M  V30 6229 C 593.774 -3.10503 1.83359 0
M  V30 6230 O 592.878 -3.96745 1.1255 0
M  V30 6231 H 592.219 -0.52843 0.402067 0
M  V30 6232 H 594.749 -1.17271 1.67656 0
M  V30 6233 H 594.759 -3.60867 1.90365 0
M  V30 6234 H 593.434 -2.99901 2.88153 0
M  V30 6235 H 592.011 -3.55191 1.13551 0
M  V30 6236 N 594.196 -1.08629 -1.14182 0
M  V30 6237 C 595.146 -0.687882 -2.17376 0
M  V30 6238 C 596.13 0.293632 -1.58198 0
M  V30 6239 O 597.322 0.105292 -1.76687 0
M  V30 6240 C 594.451 -0.101184 -3.43151 0
M  V30 6241 C 593.537 -1.10862 -4.09354 0
M  V30 6242 N 593.928 -2.29285 -4.50846 0
M  V30 6243 C 592.226 -0.944897 -4.35876 0
M  V30 6244 C 592.927 -2.93305 -5.02342 0
M  V30 6245 N 591.903 -2.20903 -4.96692 0
M  V30 6246 H 595.705 -1.58963 -2.472 0
M  V30 6247 H 593.219 -0.961329 -1.3089 0
M  V30 6248 H 595.216 0.202209 -4.16409 0
M  V30 6249 H 593.876 0.795522 -3.14804 0
M  V30 6250 H 594.887 -2.66927 -4.43813 0
M  V30 6251 H 591.564 -0.102186 -4.17375 0
M  V30 6252 H 592.954 -3.93932 -5.44304 0
M  V30 6253 N 595.674 1.31259 -0.872281 0
M  V30 6254 C 596.922 1.96233 -0.483409 0
M  V30 6255 C 597.243 1.69276 0.968012 0
M  V30 6256 O 596.513 1.00943 1.67891 0
M  V30 6257 H 595.093 0.726025 -0.175774 0
M  V30 6258 H 597.755 1.60024 -1.11258 0
M  V30 6259 H 596.851 3.05403 -0.643075 0
M  V30 6260 N 597.152 0.631951 1.44375 0
M  V30 6261 C 598.062 -0.073674 2.34484 0
M  V30 6262 C 599.078 -0.834825 1.52665 0
M  V30 6263 O 600.254 -0.786902 1.85391 0
M  V30 6264 C 597.319 -1.04247 3.30656 0
M  V30 6265 C 596.38 -0.280602 4.28382 0
M  V30 6266 C 595.613 -1.20325 5.19959 0
M  V30 6267 O 595.836 -2.44199 5.15484 0
M  V30 6268 O 594.77 -0.687128 5.97965 0
M  V30 6269 H 598.596 0.667477 2.96274 0
M  V30 6270 H 596.181 0.392144 1.44162 0
M  V30 6271 H 598.063 -1.59981 3.89851 0
M  V30 6272 H 596.738 -1.76422 2.71398 0
M  V30 6273 H 595.645 0.319804 3.72731 0
M  V30 6274 H 596.978 0.401144 4.90563 0
M  V30 6275 N 598.631 -1.53133 0.372548 0
M  V30 6276 C 599.879 -2.00958 -0.214534 0
M  V30 6277 C 600.2 -1.26135 -1.48711 0
M  V30 6278 O 599.47 -0.376597 -1.92246 0
M  V30 6279 H 598.05 -0.742456 -0.0822664 0
M  V30 6280 H 600.712 -1.88367 0.500385 0
M  V30 6281 H 599.808 -3.09031 -0.436605 0
M  V30 6282 N 600.109 -0.101901 -1.5727 0
M  V30 6283 C 601.337 0.568392 -1.98939 0
M  V30 6284 C 601.752 1.61301 -0.981194 0
M  V30 6285 O 601.109 1.82478 0.0282869 0
M  V30 6286 C 601.16 1.20997 -3.40649 0
M  V30 6287 O 600.881 0.207129 -4.3761 0
M  V30 6288 C 602.382 1.96523 -3.97358 0
M  V30 6289 H 599.602 0.15186 -0.65359 0
M  V30 6290 H 602.146 -0.183198 -2.03678 0
M  V30 6291 H 600.301 1.91245 -3.36904 0
M  V30 6292 H 600.715 0.671071 -5.20189 0
M  V30 6293 H 602.189 2.36764 -4.98645 0
M  V30 6294 H 602.666 2.83376 -3.35552 0
M  V30 6295 H 603.272 1.31076 -4.04598 0
M  V30 6296 N 601.587 1.56661 0.17182 0
M  V30 6297 C 602.864 1.72838 0.915778 0
M  V30 6298 C 603.244 0.66316 2.00413 0
M  V30 6299 O 602.592 -0.322123 2.26218 0
M  V30 6300 C 602.802 3.16019 1.48097 0
M  V30 6301 C 604.15 3.76962 1.95408 0
M  V30 6302 O 605.174 3.19294 1.57892 0
M  V30 6303 O 604.033 4.78219 2.64516 0
M  V30 6304 H 601.127 0.705797 0.431021 0
M  V30 6305 H 603.673 1.68947 0.159689 0
M  V30 6306 H 602.445 3.85031 0.697618 0
M  V30 6307 H 602.068 3.24234 2.30126 0
M  V30 6308 N 603.065 -0.440357 1.51323 0
M  V30 6309 C 604.314 -1.18697 1.63076 0
M  V30 6310 C 604.627 -1.92418 0.35136 0
M  V30 6311 O 605.833 -2.69258 0.348221 0
M  V30 6312 C 604.289 -2.15849 2.87988 0
M  V30 6313 C 603.897 -1.47789 4.22921 0
M  V30 6314 C 605.641 -2.90962 3.09098 0
M  V30 6315 C 603.548 -2.43407 5.38987 0
M  V30 6316 H 602.478 -0.44676 0.607389 0
M  V30 6317 H 605.129 -0.454313 1.77787 0
M  V30 6318 H 603.511 -2.92537 2.66905 0
M  V30 6319 H 604.685 -0.7668 4.54375 0
M  V30 6320 H 603 -0.848404 4.07665 0
M  V30 6321 H 605.597 -3.62584 3.92985 0
M  V30 6322 H 605.94 -3.52133 2.22053 0
M  V30 6323 H 606.473 -2.21381 3.30507 0
M  V30 6324 H 603.212 -1.86929 6.28282 0
M  V30 6325 H 602.732 -3.12579 5.11913 0
M  V30 6326 H 604.411 -3.046 5.70813 0
M  V30 6327 N 604.543 -1.41418 -0.695603 0
M  V30 6328 C 605.491 -1.43467 -1.83084 0
M  V30 6329 C 606.485 -0.312719 -1.66489 0
M  V30 6330 O 607.691 -0.484744 -1.7335 0
M  V30 6331 H 604.066 -0.448891 -0.603325 0
M  V30 6332 H 606.037 -2.39144 -1.78473 0
M  V30 6333 C 604.786 -1.3337 -3.21104 0
M  V30 6334 H 604.109 -2.18989 -3.3449 0
M  V30 6335 H 605.549 -1.38865 -4.00615 0
M  V30 6336 C 604.008 -0.0460484 -3.36869 0
M  V30 6337 O 604.538 0.909258 -3.91274 0
M  V30 6338 N 602.744 0.0300222 -2.90584 0
M  V30 6339 H 602.291 -0.748129 -2.46497 0
M  V30 6340 H 602.249 0.890991 -3.01511 0
M  V30 6341 N 606.021 0.929856 -1.27246 0
M  V30 6342 C 607.268 1.67731 -1.13457 0
M  V30 6343 C 607.596 1.9185 0.319998 0
M  V30 6344 O 606.851 1.50524 1.25064 0
M  V30 6345 C 607.15 3.05116 -1.86115 0
M  V30 6346 C 606.816 3.00715 -3.35978 0
M  V30 6347 C 605.478 2.99222 -3.76855 0
M  V30 6348 C 607.83 2.92168 -4.3161 0
M  V30 6349 C 605.158 2.86962 -5.11732 0
M  V30 6350 C 607.51 2.81449 -5.66542 0
M  V30 6351 C 606.174 2.78305 -6.06715 0
M  V30 6352 H 605.444 0.613772 -0.415168 0
M  V30 6353 H 608.091 1.08456 -1.57827 0
M  V30 6354 H 606.396 3.68083 -1.34246 0
M  V30 6355 H 608.093 3.61822 -1.72876 0
M  V30 6356 H 604.683 3.02664 -3.03468 0
M  V30 6357 H 608.867 2.92421 -4.01003 0
M  V30 6358 H 604.123 2.82913 -5.42006 0
M  V30 6359 H 608.297 2.738 -6.40317 0
M  V30 6360 H 605.924 2.68561 -7.11181 0
M  V30 6361 N 607.499 1.09233 1.13605 0
M  V30 6362 C 608.745 0.838255 1.85324 0
M  V30 6363 C 609.1 -0.629314 1.81817 0
M  V30 6364 O 608.393 -1.45729 1.24393 0
M  V30 6365 C 608.587 1.305 3.32723 0
M  V30 6366 C 608.416 2.81641 3.50583 0
M  V30 6367 C 607.186 3.49494 3.64941 0
M  V30 6368 C 609.384 3.79789 3.46792 0
M  V30 6369 N 607.366 4.89082 3.71042 0
M  V30 6370 C 608.737 5.05319 3.59239 0
M  V30 6371 C 610.792 3.72673 3.30181 0
M  V30 6372 C 609.495 6.24574 3.56791 0
M  V30 6373 C 611.521 4.91413 3.29039 0
M  V30 6374 C 610.883 6.15785 3.42035 0
M  V30 6375 H 606.982 0.359572 0.69443 0
M  V30 6376 H 609.566 1.39232 1.36098 0
M  V30 6377 H 607.737 0.778411 3.8052 0
M  V30 6378 H 609.469 0.996465 3.92241 0
M  V30 6379 H 606.224 2.9992 3.66531 0
M  V30 6380 H 606.648 5.61787 3.77789 0
M  V30 6381 H 611.29 2.77444 3.19037 0
M  V30 6382 H 609.008 7.20105 3.66708 0
M  V30 6383 H 612.594 4.87604 3.17386 0
M  V30 6384 H 611.474 7.06126 3.41111 0
M  V30 6385 N 608.977 -1.30795 0.87923 0
M  V30 6386 C 610.226 -1.95636 0.490875 0
M  V30 6387 C 610.539 -1.70214 -0.963674 0
M  V30 6388 O 611.745 -2.28991 -1.45861 0
M  V30 6389 C 610.201 -3.50271 0.826929 0
M  V30 6390 C 609.809 -3.84521 2.29886 0
M  V30 6391 C 611.553 -4.21456 0.507494 0
M  V30 6392 C 609.46 -5.32309 2.57685 0
M  V30 6393 H 608.39 -0.732238 0.179841 0
M  V30 6394 H 611.041 -1.48829 1.07341 0
M  V30 6395 H 609.423 -3.9562 0.173542 0
M  V30 6396 H 610.597 -3.50102 2.99609 0
M  V30 6397 H 608.912 -3.26425 2.58526 0
M  V30 6398 H 611.509 -5.30199 0.692293 0
M  V30 6399 H 611.852 -4.12614 -0.552718 0
M  V30 6400 H 612.385 -3.81772 1.11782 0
M  V30 6401 H 609.124 -5.46195 3.62424 0
M  V30 6402 H 608.644 -5.68048 1.92566 0
M  V30 6403 H 610.323 -5.99678 2.42889 0
M  V30 6404 N 610.455 -0.639598 -1.44038 0
M  V30 6405 C 611.387 0.0987684 -2.28987 0
M  V30 6406 C 612.4 0.80058 -1.41755 0
M  V30 6407 O 613.589 0.660611 -1.65826 0
M  V30 6408 C 610.689 1.16242 -3.18341 0
M  V30 6409 C 609.862 0.541447 -4.34036 0
M  V30 6410 C 608.921 1.50017 -5.04362 0
M  V30 6411 O 607.947 1.01403 -5.60095 0
M  V30 6412 N 609.149 2.83441 -5.06598 0
M  V30 6413 H 611.914 -0.630305 -2.92997 0
M  V30 6414 H 609.475 -0.481376 -1.54578 0
M  V30 6415 H 611.467 1.80429 -3.62253 0
M  V30 6416 H 610.037 1.79362 -2.56024 0
M  V30 6417 H 609.257 -0.27923 -3.9321 0
M  V30 6418 H 610.545 0.107379 -5.08687 0
M  V30 6419 H 609.943 3.2551 -4.62666 0
M  V30 6420 H 608.5 3.42966 -5.54272 0
M  V30 6421 N 611.933 1.52934 -0.380664 0
M  V30 6422 C 612.896 2.24809 0.446473 0
M  V30 6423 C 613.896 1.26133 0.997347 0
M  V30 6424 O 615.086 1.50297 0.880714 0
M  V30 6425 C 612.218 2.99649 1.62553 0
M  V30 6426 H 613.411 2.99343 -0.182677 0
M  V30 6427 H 610.964 1.55736 -0.132618 0
M  V30 6428 H 611.699 2.29395 2.29235 0
M  V30 6429 H 611.484 3.72066 1.23732 0
M  V30 6430 H 612.974 3.54246 2.21133 0
M  V30 6431 N 613.412 0.11024 1.57214 0
M  V30 6432 C 614.66 -0.548783 1.94506 0
M  V30 6433 C 614.981 -1.67772 0.99386 0
M  V30 6434 O 614.251 -1.9584 0.0485841 0
M  V30 6435 H 612.831 -0.205715 0.718116 0
M  V30 6436 H 615.493 0.177127 1.94093 0
M  V30 6437 H 614.589 -0.949096 2.97319 0
M  V30 6438 N 614.89 -1.56749 -0.16351 0
M  V30 6439 C 616.136 -1.82704 -0.880168 0
M  V30 6440 C 616.469 -0.689311 -1.81555 0
M  V30 6441 O 615.744 0.308224 -1.92042 0
M  V30 6442 C 616.027 -3.19084 -1.66905 0
M  V30 6443 C 615.88 -4.43397 -0.756269 0
M  V30 6444 C 617.199 -3.52493 -2.63509 0
M  V30 6445 H 614.318 -0.664608 -0.318535 0
M  V30 6446 H 616.96 -1.89438 -0.146036 0
M  V30 6447 H 615.11 -3.13475 -2.2949 0
M  V30 6448 H 616.782 -4.61079 -0.14269 0
M  V30 6449 H 615.025 -4.33752 -0.0647944 0
M  V30 6450 H 615.696 -5.3539 -1.34393 0
M  V30 6451 H 618.172 -3.58606 -2.11047 0
M  V30 6452 H 617.048 -4.48979 -3.15767 0
M  V30 6453 H 617.309 -2.77597 -3.44082 0
M  V30 6454 N 616.368 0.432326 -1.51554 0
M  V30 6455 C 617.779 1.01202 -1.56892 0
M  V30 6456 C 618.13 1.92175 -0.395394 0
M  V30 6457 O 617.255 2.10844 0.487198 0
M  V30 6458 C 617.85 1.84217 -2.8434 0
M  V30 6459 C 616.409 2.37228 -2.92233 0
M  V30 6460 C 615.556 1.16576 -2.51606 0
M  V30 6461 H 618.507 0.213407 -1.57259 0
M  V30 6462 H 618.528 2.69721 -2.68385 0
M  V30 6463 H 618.04 1.17979 -3.69733 0
M  V30 6464 H 616.141 3.06905 -2.11282 0
M  V30 6465 H 616.254 2.69682 -3.95991 0
M  V30 6466 H 614.618 1.51263 -2.04919 0
M  V30 6467 H 615.401 0.519404 -3.39348 0
M  V30 6468 N 617.846 1.41785 0.688094 0
M  V30 6469 C 619.094 1.41264 1.4453 0
M  V30 6470 C 619.415 0.0252946 1.94984 0
M  V30 6471 O 618.685 -0.934081 1.72197 0
M  V30 6472 H 617.265 0.519998 0.536294 0
M  V30 6473 H 619.927 1.7709 0.813941 0
M  V30 6474 H 619.023 2.10439 2.30482 0
M  V30 6475 N 619.324 -0.923095 1.27737 0
M  V30 6476 C 620.287 -2.00587 1.10894 0
M  V30 6477 C 621.287 -1.60718 0.0514927 0
M  V30 6478 O 622.477 -1.71658 0.296481 0
M  V30 6479 C 619.609 -3.33829 0.690717 0
M  V30 6480 H 620.802 -2.16959 2.07048 0
M  V30 6481 H 618.355 -1.10451 1.1059 0
M  V30 6482 H 619.09 -3.23157 -0.272 0
M  V30 6483 H 618.875 -3.64125 1.45448 0
M  V30 6484 H 620.365 -4.13336 0.595252 0
M  V30 6485 N 620.802 -1.09834 -1.13024 0
M  V30 6486 C 622.027 -0.85909 -1.88771 0
M  V30 6487 C 622.452 0.584402 -1.78791 0
M  V30 6488 O 621.81 1.41101 -1.13842 0
M  V30 6489 C 621.858 -1.30427 -3.36186 0
M  V30 6490 O 620.962 -0.465368 -4.09766 0
M  V30 6491 H 620.303 -0.310786 -0.586778 0
M  V30 6492 H 622.833 -1.46355 -1.42973 0
M  V30 6493 H 622.843 -1.2915 -3.8702 0
M  V30 6494 H 621.518 -2.3555 -3.42767 0
M  V30 6495 H 620.095 -0.542814 -3.68928 0
M  V30 6496 N 622.28 1.30327 -0.886154 0
M  V30 6497 C 623.21 2.30549 -0.370028 0
M  V30 6498 C 624.191 1.61039 0.547751 0
M  V30 6499 O 625.376 1.8864 0.461353 0
M  V30 6500 C 622.506 3.44808 0.415275 0
M  V30 6501 C 621.46 4.26024 -0.41085 0
M  V30 6502 C 620.786 5.32347 0.501128 0
M  V30 6503 C 622.086 4.95433 -1.65359 0
M  V30 6504 H 623.78 2.73969 -1.20754 0
M  V30 6505 H 621.326 1.3171 -0.582097 0
M  V30 6506 H 623.279 4.13986 0.78699 0
M  V30 6507 H 622.003 3.00197 1.28644 0
M  V30 6508 H 620.662 3.58535 -0.764719 0
M  V30 6509 H 620.31 4.83982 1.37004 0
M  V30 6510 H 620.01 5.87581 -0.0478356 0
M  V30 6511 H 621.534 6.0438 0.869333 0
M  V30 6512 H 622.948 5.5712 -1.35239 0
M  V30 6513 H 621.345 5.60537 -2.14284 0
M  V30 6514 H 622.415 4.21493 -2.39733 0
M  V30 6515 N 623.758 0.647228 1.43697 0
M  V30 6516 C 624.688 -0.0345631 2.33474 0
M  V30 6517 C 625.669 -0.818193 1.4913 0
M  V30 6518 O 626.854 -0.780867 1.77809 0
M  V30 6519 C 623.984 -1.00576 3.32418 0
M  V30 6520 C 622.938 -0.33266 4.26705 0
M  V30 6521 C 622.264 -1.41489 5.1564 0
M  V30 6522 C 623.564 0.771204 5.16575 0
M  V30 6523 H 625.258 0.715163 2.90733 0
M  V30 6524 H 622.804 0.345364 1.39797 0
M  V30 6525 H 624.757 -1.49159 3.94119 0
M  V30 6526 H 623.481 -1.78657 2.73403 0
M  V30 6527 H 622.14 0.13267 3.6636 0
M  V30 6528 H 621.788 -2.18698 4.52968 0
M  V30 6529 H 621.488 -0.969799 5.79542 0
M  V30 6530 H 623.012 -1.9022 5.80214 0
M  V30 6531 H 624.426 0.36779 5.72119 0
M  V30 6532 H 622.823 1.1404 5.89165 0
M  V30 6533 H 623.893 1.63169 4.56622 0
M  V30 6534 N 625.236 -1.5273 0.388769 0
M  V30 6535 C 626.513 -1.93981 -0.251133 0
M  V30 6536 C 626.893 -1.32418 -1.64404 0
M  V30 6537 O 626.241 -0.492074 -2.23139 0
M  V30 6538 C 626.451 -3.47891 -0.27802 0
M  V30 6539 C 627.799 -4.21559 -0.507229 0
M  V30 6540 O 628.823 -3.54394 -0.358252 0
M  V30 6541 O 627.682 -5.40626 -0.799094 0
M  V30 6542 H 624.776 -0.812157 -0.15598 0
M  V30 6543 H 627.322 -1.63809 0.443237 0
M  V30 6544 H 626.094 -3.8503 0.697669 0
M  V30 6545 H 625.717 -3.84364 -1.01733 0
M  V30 6546 N 626.714 -0.118576 -1.57153 0
M  V30 6547 C 627.991 0.583062 -1.86708 0
M  V30 6548 C 628.371 1.84841 -1.01967 0
M  V30 6549 O 627.719 2.28288 -0.0984673 0
M  V30 6550 C 627.929 0.875912 -3.3783 0
M  V30 6551 C 629.277 1.22916 -4.0642 0
M  V30 6552 O 630.301 0.966188 -3.42846 0
M  V30 6553 O 629.16 1.72269 -5.18638 0
M  V30 6554 H 626.254 0.294185 -0.772906 0
M  V30 6555 H 628.8 -0.153048 -1.69008 0
M  V30 6556 H 627.572 -0.0207776 -3.91294 0
M  V30 6557 H 627.195 1.66719 -3.60958 0
M  V30 6558 N 628.193 1.56834 0.155195 0
M  V30 6559 C 629.123 2.00678 1.19376 0
M  V30 6560 C 630.104 0.884973 1.45266 0
M  V30 6561 O 631.289 1.1522 1.56326 0
M  V30 6562 C 628.419 2.38042 2.5289 0
M  V30 6563 C 627.373 3.53332 2.41538 0
M  V30 6564 C 626.699 3.76485 3.79688 0
M  V30 6565 C 627.999 4.86265 1.9064 0
M  V30 6566 H 629.693 2.87688 0.829232 0
M  V30 6567 H 627.239 1.38407 0.397445 0
M  V30 6568 H 629.192 2.67314 3.25763 0
M  V30 6569 H 627.916 1.4796 2.91162 0
M  V30 6570 H 626.575 3.24213 1.71117 0
M  V30 6571 H 626.223 2.83667 4.15382 0
M  V30 6572 H 625.923 4.54068 3.72956 0
M  V30 6573 H 627.447 4.08174 4.54122 0
M  V30 6574 H 628.861 5.14308 2.53299 0
M  V30 6575 H 627.258 5.67597 1.94818 0
M  V30 6576 H 628.328 4.77184 0.861596 0
M  V30 6577 N 629.671 -0.424282 1.51781 0
M  V30 6578 C 630.901 -1.19297 1.68677 0
M  V30 6579 C 631.309 -1.85152 0.389258 0
M  V30 6580 O 630.652 -1.72067 -0.643311 0
M  V30 6581 C 630.714 -2.30929 2.75521 0
M  V30 6582 C 630.378 -1.85335 4.17732 0
M  V30 6583 C 631.375 -1.34951 5.0208 0
M  V30 6584 C 629.06 -1.92629 4.63896 0
M  V30 6585 C 631.054 -0.924636 6.30658 0
M  V30 6586 C 628.741 -1.49754 5.92467 0
M  V30 6587 C 629.739 -0.997543 6.75676 0
M  V30 6588 O 629.427 -0.57492 8.01842 0
M  V30 6589 H 629.159 -0.36512 0.568914 0
M  V30 6590 H 631.713 -0.507327 1.99036 0
M  V30 6591 H 629.943 -3.02811 2.40505 0
M  V30 6592 H 631.632 -2.92748 2.81165 0
M  V30 6593 H 632.398 -1.287 4.67612 0
M  V30 6594 H 628.277 -2.30491 3.99243 0
M  V30 6595 H 631.821 -0.533682 6.95556 0
M  V30 6596 H 627.718 -1.55679 6.26446 0
M  V30 6597 H 628.486 -0.699597 8.15505 0
M  V30 6598 N 631.149 -1.42148 -0.680565 0
M  V30 6599 C 632.096 -1.45175 -1.79424 0
M  V30 6600 C 633.066 -0.304352 -1.63288 0
M  V30 6601 O 634.251 -0.507591 -1.83924 0
M  V30 6602 C 631.391 -1.35429 -3.17416 0
M  V30 6603 C 630.504 -2.60158 -3.4488 0
M  V30 6604 C 629.639 -2.42596 -4.72568 0
M  V30 6605 C 628.678 -3.62727 -4.93047 0
M  V30 6606 N 627.815 -3.44143 -6.11973 0
M  V30 6607 H 632.655 -2.40349 -1.76172 0
M  V30 6608 H 630.192 -1.19334 -0.860107 0
M  V30 6609 H 632.15 -1.27777 -3.97151 0
M  V30 6610 H 630.78 -0.438536 -3.19807 0
M  V30 6611 H 629.832 -2.78199 -2.5944 0
M  V30 6612 H 631.144 -3.49473 -3.55908 0
M  V30 6613 H 630.298 -2.32497 -5.60384 0
M  V30 6614 H 629.037 -1.50761 -4.63813 0
M  V30 6615 H 628.042 -3.73264 -4.03676 0
M  V30 6616 H 629.267 -4.55534 -5.03652 0
M  V30 6617 H 627.213 -2.5502 -6.04401 0
M  V30 6618 H 627.13 -4.27041 -6.23836 0
M  V30 6619 H 628.398 -3.37845 -7.02482 0
M  V30 6620 N 632.627 0.916307 -1.28225 0
M  V30 6621 C 633.857 1.69654 -1.17902 0
M  V30 6622 C 634.265 1.87331 0.265268 0
M  V30 6623 O 633.608 1.39828 1.19137 0
M  V30 6624 C 633.67 3.11024 -1.80289 0
M  V30 6625 C 633.334 3.16643 -3.29525 0
M  V30 6626 C 634.331 2.98032 -4.25997 0
M  V30 6627 C 632.016 3.39238 -3.70436 0
M  V30 6628 C 634.01 3.01924 -5.61356 0
M  V30 6629 C 631.697 3.42762 -5.05922 0
M  V30 6630 C 632.695 3.24125 -6.01192 0
M  V30 6631 O 632.383 3.27406 -7.34208 0
M  V30 6632 H 632.115 0.537197 -0.41036 0
M  V30 6633 H 634.669 1.15547 -1.69817 0
M  V30 6634 H 632.899 3.66662 -1.22865 0
M  V30 6635 H 634.588 3.71063 -1.6452 0
M  V30 6636 H 635.354 2.80405 -3.95725 0
M  V30 6637 H 631.233 3.52791 -2.96749 0
M  V30 6638 H 634.777 2.87295 -6.35694 0
M  V30 6639 H 630.674 3.59916 -5.35846 0
M  V30 6640 H 631.442 3.43784 -7.42802 0
M  V30 6641 N 634.105 1.10431 1.1244 0
M  V30 6642 C 635.352 0.846717 1.83948 0
M  V30 6643 C 635.68 -0.627709 1.84093 0
M  V30 6644 O 634.935 -1.47876 1.28184 0
M  V30 6645 C 635.234 1.34022 3.3132 0
M  V30 6646 C 634.9 2.82606 3.51347 0
M  V30 6647 C 633.562 3.23182 3.56521 0
M  V30 6648 C 635.914 3.78356 3.58464 0
M  V30 6649 C 633.242 4.58258 3.66356 0
M  V30 6650 C 635.594 5.13234 3.69829 0
M  V30 6651 C 634.258 5.53384 3.73259 0
M  V30 6652 H 633.528 0.309836 0.673114 0
M  V30 6653 H 636.175 1.38091 1.32677 0
M  V30 6654 H 634.48 0.726047 3.85014 0
M  V30 6655 H 636.177 1.11739 3.85118 0
M  V30 6656 H 632.767 2.50212 3.47983 0
M  V30 6657 H 636.951 3.48115 3.53737 0
M  V30 6658 H 632.207 4.88787 3.67284 0
M  V30 6659 H 636.381 5.87272 3.74279 0
M  V30 6660 H 634.008 6.58045 3.80633 0
M  V30 6661 N 635.583 -1.29855 0.893053 0
M  V30 6662 C 636.83 -1.95826 0.515585 0
M  V30 6663 C 637.158 -1.70451 -0.936842 0
M  V30 6664 O 636.413 -1.00657 -1.67829 0
M  V30 6665 C 636.712 -3.49515 0.746588 0
M  V30 6666 C 636.378 -3.94955 2.17535 0
M  V30 6667 C 635.04 -4.07073 2.56603 0
M  V30 6668 C 637.392 -4.18536 3.10607 0
M  V30 6669 C 634.72 -4.40138 3.87938 0
M  V30 6670 C 637.072 -4.53073 4.41484 0
M  V30 6671 C 635.736 -4.634 4.80434 0
M  V30 6672 H 635.006 -0.71658 0.188666 0
M  V30 6673 H 637.653 -1.54574 1.13045 0
M  V30 6674 H 635.958 -3.9177 0.0487551 0
M  V30 6675 H 637.655 -3.98644 0.434009 0
M  V30 6676 H 634.245 -3.86035 1.86212 0
M  V30 6677 H 638.429 -4.08646 2.81641 0
M  V30 6678 H 633.685 -4.46335 4.17846 0
M  V30 6679 H 637.859 -4.70269 5.13634 0
M  V30 6680 H 635.486 -4.88775 5.82239 0
M  V30 6681 N 637.061 -0.65484 -1.43351 0
M  V30 6682 C 638.308 -0.168892 -2.01794 0
M  V30 6683 C 638.636 1.2177 -1.51665 0
M  V30 6684 O 637.891 1.82717 -0.70092 0
M  V30 6685 C 638.19 -0.130424 -3.57162 0
M  V30 6686 C 637.856 -1.45898 -4.26643 0
M  V30 6687 C 636.518 -1.82279 -4.4534 0
M  V30 6688 C 638.87 -2.33485 -4.65976 0
M  V30 6689 C 636.198 -3.0591 -5.00635 0
M  V30 6690 C 638.55 -3.5641 -5.22642 0
M  V30 6691 C 637.214 -3.92985 -5.39555 0
M  V30 6692 H 636.484 -0.061802 -0.738418 0
M  V30 6693 H 639.131 -0.845869 -1.71806 0
M  V30 6694 H 637.436 0.630008 -3.86702 0
M  V30 6695 H 639.133 0.262465 -4.0014 0
M  V30 6696 H 635.723 -1.16591 -4.12437 0
M  V30 6697 H 639.907 -2.06668 -4.51223 0
M  V30 6698 H 635.163 -3.34295 -5.11915 0
M  V30 6699 H 639.337 -4.24495 -5.52066 0
M  V30 6700 H 636.964 -4.88862 -5.82167 0
M  V30 6701 N 638.539 1.52521 -0.396863 0
M  V30 6702 C 639.489 2.2348 0.451722 0
M  V30 6703 C 640.473 1.2415 1.0235 0
M  V30 6704 O 641.665 1.4945 0.948348 0
M  V30 6705 C 638.794 3.05067 1.57445 0
M  V30 6706 C 637.88 4.11799 1.01404 0
M  V30 6707 N 638.271 5.05482 0.179234 0
M  V30 6708 C 636.569 4.27064 1.28578 0
M  V30 6709 C 637.27 5.81552 -0.131202 0
M  V30 6710 N 636.246 5.41523 0.474735 0
M  V30 6711 H 640.048 2.93269 -0.192534 0
M  V30 6712 H 637.562 1.61081 -0.206591 0
M  V30 6713 H 639.559 3.54446 2.19485 0
M  V30 6714 H 638.219 2.36816 2.22145 0
M  V30 6715 H 639.23 5.17573 -0.18411 0
M  V30 6716 H 635.907 3.70042 1.93327 0
M  V30 6717 H 637.297 6.67023 -0.808061 0
M  V30 6718 N 640.017 0.126909 1.57088 0
M  V30 6719 C 640.967 -0.831678 2.1229 0
M  V30 6720 C 641.951 -1.22292 1.04564 0
M  V30 6721 O 643.143 -1.19269 1.30782 0
M  V30 6722 C 640.272 -2.07866 2.73215 0
M  V30 6723 C 639.358 -1.71143 3.88035 0
M  V30 6724 N 639.749 -1.05136 4.94753 0
M  V30 6725 C 638.047 -2.00549 3.98367 0
M  V30 6726 C 638.748 -0.877257 5.75047 0
M  V30 6727 N 637.724 -1.40477 5.25135 0
M  V30 6728 H 641.526 -0.317926 2.92175 0
M  V30 6729 H 639.04 -0.0753052 1.62225 0
M  V30 6730 H 641.037 -2.77516 3.11111 0
M  V30 6731 H 639.697 -2.59778 1.94796 0
M  V30 6732 H 640.708 -0.71442 5.12949 0
M  V30 6733 H 637.385 -2.54452 3.30999 0
M  V30 6734 H 638.775 -0.358536 6.70943 0
M  V30 6735 N 641.495 -1.56914 -0.146875 0
M  V30 6736 C 642.72 -1.87881 -0.878386 0
M  V30 6737 C 643.145 -0.715945 -1.73942 0
M  V30 6738 O 642.503 0.334447 -1.78189 0
M  V30 6739 C 642.551 -3.17431 -1.71084 0
M  V30 6740 O 641.655 -3.01374 -2.81509 0
M  V30 6741 H 640.996 -0.617289 -0.244644 0
M  V30 6742 H 643.526 -2.04136 -0.137654 0
M  V30 6743 H 643.536 -3.49455 -2.10582 0
M  V30 6744 H 642.211 -4.01671 -1.07856 0
M  V30 6745 H 640.788 -2.80758 -2.45416 0
M  V30 6746 N 642.974 0.416227 -1.52004 0
M  V30 6747 C 643.924 1.50558 -1.7122 0
M  V30 6748 C 644.908 1.50613 -0.56609 0
M  V30 6749 O 646.1 1.56709 -0.822874 0
M  V30 6750 C 643.229 2.88556 -1.85984 0
M  V30 6751 C 642.315 2.93177 -3.06445 0
M  V30 6752 N 642.706 2.67505 -4.29272 0
M  V30 6753 C 641.004 3.24343 -3.06133 0
M  V30 6754 C 641.705 2.78511 -5.10692 0
M  V30 6755 N 640.681 3.11087 -4.45787 0
M  V30 6756 H 644.483 1.29494 -2.63834 0
M  V30 6757 H 641.997 0.62384 -1.4994 0
M  V30 6758 H 643.994 3.66954 -1.97865 0
M  V30 6759 H 642.654 3.10624 -0.945654 0
M  V30 6760 H 643.665 2.42033 -4.57865 0
M  V30 6761 H 640.342 3.52051 -2.24425 0
M  V30 6762 H 641.732 2.62438 -6.18527 0
M  V30 6763 N 644.452 1.42507 0.673017 0
M  V30 6764 C 645.7 1.42789 1.43023 0
M  V30 6765 C 646.021 0.0459738 1.94946 0
M  V30 6766 O 645.291 -0.915765 1.73178 0
M  V30 6767 H 643.871 0.525657 0.530748 0
M  V30 6768 H 646.533 1.77944 0.795113 0
M  V30 6769 H 645.629 2.12872 2.28237 0
M  V30 6770 N 645.93 -0.909495 1.28709 0
M  V30 6771 C 647.207 -1.63865 1.06806 0
M  V30 6772 C 647.587 -2.07445 -0.391143 0
M  V30 6773 O 646.935 -1.82269 -1.37805 0
M  V30 6774 C 647.145 -2.82692 2.04661 0
M  V30 6775 C 648.493 -3.5361 2.35042 0
M  V30 6776 O 649.517 -2.92847 2.02779 0
M  V30 6777 O 648.376 -4.63131 2.90124 0
M  V30 6778 H 645.47 -0.719065 0.408502 0
M  V30 6779 H 648.016 -0.958424 1.40044 0
M  V30 6780 H 646.788 -2.47614 3.0299 0
M  V30 6781 H 646.411 -3.58426 1.72095 0
M  V30 6782 N 647.408 -1.11026 -1.11852 0
M  V30 6783 C 648.636 -0.878818 -1.87308 0
M  V30 6784 C 649.051 0.57111 -1.79955 0
M  V30 6785 O 648.408 1.39409 -1.17777 0
M  V30 6786 C 648.459 -1.3264 -3.36287 0
M  V30 6787 O 648.18 -2.71948 -3.43476 0
M  V30 6788 C 649.681 -1.12974 -4.28663 0
M  V30 6789 H 646.901 -0.315015 -0.592458 0
M  V30 6790 H 649.445 -1.47649 -1.41492 0
M  V30 6791 H 647.6 -0.772269 -3.79625 0
M  V30 6792 H 648.014 -2.91241 -4.3621 0
M  V30 6793 H 649.488 -1.49198 -5.31454 0
M  V30 6794 H 649.965 -0.0689127 -4.39146 0
M  V30 6795 H 650.571 -1.67064 -3.91113 0
M  V30 6796 N 648.886 1.2938 -0.899927 0
M  V30 6797 C 649.819 2.25911 -0.322386 0
M  V30 6798 C 650.797 1.52447 0.565567 0
M  V30 6799 O 651.981 1.81404 0.512324 0
M  V30 6800 C 649.108 3.3436 0.540455 0
M  V30 6801 C 648.154 4.25579 -0.280211 0
M  V30 6802 S 648.987 5.08526 -1.67814 0
M  V30 6803 C 650.143 6.20476 -0.822224 0
M  V30 6804 H 650.376 2.7455 -1.1406 0
M  V30 6805 H 647.909 1.37606 -0.700285 0
M  V30 6806 H 649.867 3.97303 1.0325 0
M  V30 6807 H 648.528 2.84416 1.33291 0
M  V30 6808 H 647.721 5.02574 0.378915 0
M  V30 6809 H 647.323 3.67287 -0.705405 0
M  V30 6810 H 649.615 6.77485 -0.0457138 0
M  V30 6811 H 650.558 6.90606 -1.56426 0
M  V30 6812 H 650.966 5.63243 -0.37651 0
M  V30 6813 N 650.364 0.662433 1.43002 0
M  V30 6814 C 651.592 0.187615 2.06048 0
M  V30 6815 C 652.007 -1.15039 1.49705 0
M  V30 6816 O 651.364 -1.71209 0.631956 0
M  V30 6817 C 651.415 0.100498 3.6136 0
M  V30 6818 O 651.136 1.38562 4.15611 0
M  V30 6819 C 652.637 -0.399298 4.41498 0
M  V30 6820 H 649.857 0.0941675 0.664359 0
M  V30 6821 H 652.401 0.905681 1.83351 0
M  V30 6822 H 650.556 -0.568181 3.83211 0
M  V30 6823 H 650.97 1.25084 5.09366 0
M  V30 6824 H 652.444 -0.409187 5.50481 0
M  V30 6825 H 652.921 -1.43232 4.15188 0
M  V30 6826 H 653.527 0.23721 4.24638 0
M  V30 6827 N 651.842 -1.52309 0.404946 0
M  V30 6828 C 653.088 -2.02065 -0.172455 0
M  V30 6829 C 653.421 -1.29022 -1.45145 0
M  V30 6830 O 652.696 -0.395284 -1.90441 0
M  V30 6831 C 652.979 -3.5759 -0.424433 0
M  V30 6832 C 652.832 -4.41287 0.870945 0
M  V30 6833 C 654.151 -4.23186 -1.20837 0
M  V30 6834 H 651.27 -0.734454 -0.0612035 0
M  V30 6835 H 653.912 -1.82236 0.53759 0
M  V30 6836 H 652.062 -3.74617 -1.02929 0
M  V30 6837 H 653.734 -4.3598 1.50729 0
M  V30 6838 H 651.977 -4.07669 1.48284 0
M  V30 6839 H 652.648 -5.48171 0.649083 0
M  V30 6840 H 655.124 -4.10232 -0.696338 0
M  V30 6841 H 654 -5.31953 -1.35343 0
M  V30 6842 H 654.261 -3.81862 -2.22786 0
M  V30 6843 N 653.32 -0.135238 -1.57019 0
M  V30 6844 C 654.253 0.846618 -2.11914 0
M  V30 6845 C 655.231 1.25019 -1.03966 0
M  V30 6846 O 656.415 1.34838 -1.31723 0
M  V30 6847 C 653.542 2.1352 -2.6292 0
M  V30 6848 C 652.588 1.87846 -3.82905 0
M  V30 6849 S 653.421 1.08005 -5.24495 0
M  V30 6850 C 654.577 2.38008 -5.78881 0
M  V30 6851 H 654.81 0.379752 -2.94865 0
M  V30 6852 H 652.343 0.0788387 -1.54199 0
M  V30 6853 H 654.301 2.87551 -2.92958 0
M  V30 6854 H 652.962 2.57323 -1.80121 0
M  V30 6855 H 652.155 2.83365 -4.16797 0
M  V30 6856 H 651.757 1.21929 -3.53567 0
M  V30 6857 H 654.049 3.33742 -5.89595 0
M  V30 6858 H 654.992 2.08638 -6.76665 0
M  V30 6859 H 655.4 2.48119 -5.07048 0
M  V30 6860 N 654.798 1.5699 0.138552 0
M  V30 6861 C 656.075 1.74741 0.87891 0
M  V30 6862 C 656.455 0.705522 1.98961 0
M  V30 6863 O 655.803 -0.274066 2.2685 0
M  V30 6864 C 656.013 3.1909 1.4136 0
M  V30 6865 C 657.361 3.81023 1.87368 0
M  V30 6866 O 658.385 3.22571 1.51084 0
M  V30 6867 O 657.244 4.83722 2.54312 0
M  V30 6868 H 654.338 0.714781 0.415953 0
M  V30 6869 H 656.884 1.69248 0.123817 0
M  V30 6870 H 655.656 3.86424 0.61579 0
M  V30 6871 H 655.279 3.29043 2.23196 0
M  V30 6872 N 656.276 -0.40816 1.52223 0
M  V30 6873 C 657.687 -0.986929 1.58482 0
M  V30 6874 C 658.038 -1.91521 0.425917 0
M  V30 6875 O 657.163 -2.11593 -0.453593 0
M  V30 6876 C 657.758 -1.7967 2.87235 0
M  V30 6877 C 656.317 -2.32549 2.9597 0
M  V30 6878 C 655.464 -1.12558 2.53428 0
M  V30 6879 H 658.415 -0.188362 1.57578 0
M  V30 6880 H 658.436 -2.65417 2.72642 0
M  V30 6881 H 657.948 -1.12082 3.71563 0
M  V30 6882 H 656.049 -3.03505 2.16137 0
M  V30 6883 H 656.162 -2.63348 4.00231 0
M  V30 6884 H 654.526 -1.47984 2.07299 0
M  V30 6885 H 655.309 -0.465351 3.40131 0
M  V30 6886 N 657.755 -1.42862 -0.66545 0
M  V30 6887 C 658.702 -1.4707 -1.77874 0
M  V30 6888 C 659.672 -0.321654 -1.62956 0
M  V30 6889 O 660.857 -0.52707 -1.83376 0
M  V30 6890 C 657.997 -1.38788 -3.15962 0
M  V30 6891 C 657.11 -2.63801 -3.42101 0
M  V30 6892 C 656.245 -2.47594 -4.69969 0
M  V30 6893 C 655.284 -3.67936 -4.89172 0
M  V30 6894 N 654.421 -3.50614 -6.08288 0
M  V30 6895 H 659.261 -2.42204 -1.73613 0
M  V30 6896 H 656.798 -1.20239 -0.847401 0
M  V30 6897 H 658.756 -1.31982 -3.95773 0
M  V30 6898 H 657.386 -0.472431 -3.19324 0
M  V30 6899 H 656.438 -2.80935 -2.56475 0
M  V30 6900 H 657.75 -3.53228 -3.52181 0
M  V30 6901 H 656.904 -2.38427 -5.57886 0
M  V30 6902 H 655.643 -1.55672 -4.62188 0
M  V30 6903 H 654.648 -3.77525 -3.99694 0
M  V30 6904 H 655.873 -4.60851 -4.98792 0
M  V30 6905 H 653.819 -2.61417 -6.01662 0
M  V30 6906 H 653.736 -4.33634 -6.19272 0
M  V30 6907 H 655.004 -3.45276 -6.98859 0
M  V30 6908 N 659.233 0.902656 -1.29189 0
M  V30 6909 C 660.165 2.01149 -1.09872 0
M  V30 6910 C 661.178 1.62732 -0.0471046 0
M  V30 6911 O 662.367 1.76107 -0.29132 0
M  V30 6912 C 659.467 3.32612 -0.649818 0
M  V30 6913 C 658.64 3.99574 -1.7793 0
M  V30 6914 C 657.699 5.09325 -1.32191 0
M  V30 6915 O 656.725 5.31919 -2.02611 0
M  V30 6916 N 657.927 5.80185 -0.191171 0
M  V30 6917 H 660.692 2.18276 -2.05368 0
M  V30 6918 H 658.253 1.07466 -1.2109 0
M  V30 6919 H 660.245 4.03375 -0.327199 0
M  V30 6920 H 658.815 3.11876 0.212597 0
M  V30 6921 H 658.035 3.22213 -2.27095 0
M  V30 6922 H 659.323 4.41056 -2.53668 0
M  V30 6923 H 658.721 5.64312 0.396016 0
M  V30 6924 H 657.278 6.5176 0.0721001 0
M  V30 6925 N 660.711 1.11618 1.11262 0
M  V30 6926 C 661.644 0.719995 2.16544 0
M  V30 6927 C 662.622 -0.28471 1.60088 0
M  V30 6928 O 663.806 -0.180693 1.87632 0
M  V30 6929 C 660.933 0.0643302 3.38639 0
M  V30 6930 C 659.979 1.03448 4.13764 0
M  V30 6931 S 660.812 2.55789 4.70459 0
M  V30 6932 C 661.968 1.91529 5.95875 0
M  V30 6933 H 662.201 1.61181 2.49816 0
M  V30 6934 H 659.734 0.934401 1.22916 0
M  V30 6935 H 661.692 -0.307609 4.09346 0
M  V30 6936 H 660.353 -0.804471 3.03623 0
M  V30 6937 H 659.546 0.523188 5.01277 0
M  V30 6938 H 659.148 1.34893 3.48826 0
M  V30 6939 H 661.44 1.25286 6.65815 0
M  V30 6940 H 662.383 2.77047 6.51652 0
M  V30 6941 H 662.791 1.37468 5.47506 0
M  V30 6942 N 662.189 -1.289 0.906776 0
M  V30 6943 C 663.137 -2.29477 0.379873 0
M  V30 6944 C 664.131 -1.61068 -0.524747 0
M  V30 6945 O 665.337 -1.75344 -0.406765 0
M  V30 6946 H 661.712 -0.744742 0.10423 0
M  V30 6947 H 663.683 -2.71353 1.24137 0
M  V30 6948 C 662.432 -3.45713 -0.371154 0
M  V30 6949 H 661.755 -3.98551 0.315716 0
M  V30 6950 H 663.195 -4.18105 -0.704581 0
M  V30 6951 C 661.654 -2.9774 -1.57646 0
M  V30 6952 O 662.184 -2.99618 -2.67567 0
M  V30 6953 N 660.39 -2.53485 -1.42105 0
M  V30 6954 H 659.937 -2.52156 -0.526783 0
M  V30 6955 H 659.895 -2.21747 -2.22881 0
M  V30 6956 N 663.667 -0.670007 -1.42649 0
M  V30 6957 C 664.913 -0.190568 -2.01903 0
M  V30 6958 C 665.246 1.19817 -1.52832 0
M  V30 6959 O 664.521 1.80342 -0.728485 0
M  V30 6960 C 664.804 -0.21991 -3.59428 0
M  V30 6961 C 664.657 -1.64376 -4.18689 0
M  V30 6962 C 665.976 0.434519 -4.3795 0
M  V30 6963 H 663.095 -0.0707219 -0.733599 0
M  V30 6964 H 665.737 -0.853883 -1.69732 0
M  V30 6965 H 663.887 0.344894 -3.86966 0
M  V30 6966 H 665.559 -2.26044 -4.02122 0
M  V30 6967 H 663.802 -2.18591 -3.747 0
M  V30 6968 H 664.473 -1.61601 -5.27815 0
M  V30 6969 H 666.949 -0.0462156 -4.16074 0
M  V30 6970 H 665.825 0.38333 -5.4756 0
M  V30 6971 H 666.086 1.51135 -4.15464 0
M  V30 6972 N 665.145 1.52092 -0.413018 0
M  V30 6973 C 666.108 2.25706 0.398687 0
M  V30 6974 C 667.108 1.28221 0.970368 0
M  V30 6975 O 668.298 1.52131 0.848635 0
M  V30 6976 C 665.43 3.03029 1.5616 0
M  V30 6977 H 666.623 2.98888 -0.246131 0
M  V30 6978 H 664.176 1.5542 -0.165622 0
M  V30 6979 H 664.911 2.34205 2.24317 0
M  V30 6980 H 664.696 3.74606 1.15812 0
M  V30 6981 H 666.186 3.58857 2.13569 0
M  V30 6982 N 666.623 0.143563 1.56945 0
M  V30 6983 C 667.586 -0.783295 2.154 0
M  V30 6984 C 668.586 -1.17763 1.09492 0
M  V30 6985 O 669.776 -1.09912 1.35148 0
M  V30 6986 C 666.908 -2.06248 2.7143 0
M  V30 6987 H 668.101 -0.274863 2.98638 0
M  V30 6988 H 665.654 -0.105859 1.55941 0
M  V30 6989 H 666.389 -2.61466 1.91849 0
M  V30 6990 H 666.174 -1.78897 3.4891 0
M  V30 6991 H 667.664 -2.72453 3.16479 0
M  V30 6992 N 668.101 -1.57061 -0.130224 0
M  V30 6993 C 669.064 -1.98593 -1.14426 0
M  V30 6994 C 670.064 -0.874584 -1.34936 0
M  V30 6995 O 671.254 -1.14086 -1.31643 0
M  V30 6996 C 668.386 -2.31639 -2.50112 0
M  V30 6997 H 669.579 -2.89374 -0.787561 0
M  V30 6998 H 667.132 -1.51756 -0.374146 0
M  V30 6999 H 667.867 -1.43703 -2.90723 0
M  V30 7000 H 667.652 -3.12684 -2.36583 0
M  V30 7001 H 669.142 -2.64551 -3.23114 0
M  V30 7002 N 669.579 0.400081 -1.52437 0
M  V30 7003 C 670.825 1.14788 -1.67187 0
M  V30 7004 C 671.158 1.89928 -0.405074 0
M  V30 7005 O 670.433 1.85118 0.596804 0
M  V30 7006 C 670.716 2.13507 -2.89977 0
M  V30 7007 C 670.569 1.42204 -4.2673 0
M  V30 7008 C 671.888 3.14069 -3.083 0
M  V30 7009 H 669.007 0.415939 -0.608411 0
M  V30 7010 H 671.649 0.432542 -1.85011 0
M  V30 7011 H 669.799 2.7451 -2.74912 0
M  V30 7012 H 671.471 0.842503 -4.53541 0
M  V30 7013 H 669.714 0.723939 -4.27717 0
M  V30 7014 H 670.385 2.14281 -5.08712 0
M  V30 7015 H 672.861 2.63148 -3.22323 0
M  V30 7016 H 671.737 3.80398 -3.95713 0
M  V30 7017 H 671.998 3.82309 -2.22018 0
M  V30 7018 N 671.057 1.43213 0.657864 0
M  V30 7019 C 672.303 1.45795 1.41829 0
M  V30 7020 C 672.658 0.0792176 1.92237 0
M  V30 7021 O 671.951 -0.901406 1.69072 0
M  V30 7022 C 672.145 2.43143 2.61947 0
M  V30 7023 C 671.974 3.90345 2.23295 0
M  V30 7024 C 670.744 4.58749 2.11843 0
M  V30 7025 C 672.942 4.80308 1.83873 0
M  V30 7026 N 670.924 5.90898 1.66473 0
M  V30 7027 C 672.295 6.01693 1.49549 0
M  V30 7028 C 674.35 4.67609 1.71015 0
M  V30 7029 C 673.053 7.11792 1.03657 0
M  V30 7030 C 675.079 5.77707 1.26527 0
M  V30 7031 C 674.441 6.98215 0.931379 0
M  V30 7032 H 670.54 0.588628 0.514822 0
M  V30 7033 H 673.124 1.7936 0.7575 0
M  V30 7034 H 671.295 2.11612 3.25692 0
M  V30 7035 H 673.027 2.36193 3.28626 0
M  V30 7036 H 669.782 4.1319 2.31453 0
M  V30 7037 H 670.206 6.61034 1.46163 0
M  V30 7038 H 674.848 3.74902 1.95469 0
M  V30 7039 H 672.566 8.04332 0.779502 0
M  V30 7040 H 676.152 5.69899 1.17074 0
M  V30 7041 H 675.032 7.81959 0.592379 0
M  V30 7042 N 672.536 -0.895792 1.29666 0
M  V30 7043 C 673.499 -1.98189 1.15124 0
M  V30 7044 C 674.499 -1.60572 0.0855717 0
M  V30 7045 O 675.689 -1.70991 0.332826 0
M  V30 7046 C 672.821 -3.32289 0.761372 0
M  V30 7047 H 674.014 -2.12518 2.11603 0
M  V30 7048 H 671.567 -1.0808 1.12908 0
M  V30 7049 H 672.302 -3.23662 -0.203393 0
M  V30 7050 H 672.087 -3.60958 1.53139 0
M  V30 7051 H 673.577 -4.1198 0.682792 0
M  V30 7052 N 674.014 -1.12206 -1.10668 0
M  V30 7053 C 675.26 -0.877172 -1.82848 0
M  V30 7054 C 675.593 0.595571 -1.84842 0
M  V30 7055 O 674.868 1.44013 -1.30731 0
M  V30 7056 C 675.151 -1.44957 -3.29635 0
M  V30 7057 C 675.004 -2.99051 -3.35989 0
M  V30 7058 C 676.323 -1.10714 -4.25946 0
M  V30 7059 H 673.442 -0.320103 -0.663854 0
M  V30 7060 H 676.084 -1.38827 -1.2972 0
M  V30 7061 H 674.234 -1.01488 -3.7501 0
M  V30 7062 H 675.906 -3.51182 -2.99113 0
M  V30 7063 H 674.149 -3.34705 -2.75962 0
M  V30 7064 H 674.82 -3.34194 -4.39339 0
M  V30 7065 H 677.296 -1.48254 -3.88793 0
M  V30 7066 H 676.172 -1.5343 -5.2702 0
M  V30 7067 H 676.433 -0.019 -4.42096 0
M  V30 7068 N 675.492 1.28418 -0.913599 0
M  V30 7069 C 676.738 1.9527 -0.547484 0
M  V30 7070 C 677.071 1.71745 0.906486 0
M  V30 7071 O 676.346 1.03834 1.64465 0
M  V30 7072 C 676.629 3.49748 -0.857205 0
M  V30 7073 C 676.482 3.82675 -2.3639 0
M  V30 7074 C 677.801 4.3868 -0.353258 0
M  V30 7075 H 674.92 0.709236 -0.200381 0
M  V30 7076 H 677.562 1.51789 -1.14281 0
M  V30 7077 H 675.712 3.86915 -0.350548 0
M  V30 7078 H 677.384 3.55378 -2.94116 0
M  V30 7079 H 675.627 3.29724 -2.81894 0
M  V30 7080 H 676.298 4.90547 -2.53115 0
M  V30 7081 H 678.774 4.08584 -0.787288 0
M  V30 7082 H 677.65 5.45621 -0.599049 0
M  V30 7083 H 677.911 4.35753 0.746413 0
M  V30 7084 N 676.97 0.677563 1.42291 0
M  V30 7085 C 678.195 0.207901 2.06355 0
M  V30 7086 C 678.62 -1.12723 1.50583 0
M  V30 7087 O 677.978 -1.70171 0.62543 0
M  V30 7088 C 678.026 0.156489 3.6026 0
M  V30 7089 O 677.13 -0.874162 4.03029 0
M  V30 7090 H 676.471 0.106056 0.655475 0
M  V30 7091 H 679.001 0.927354 1.82377 0
M  V30 7092 H 679.011 -0.0187258 4.07996 0
M  V30 7093 H 677.686 1.13101 4.00226 0
M  V30 7094 H 676.263 -0.669764 3.66836 0
M  V30 7095 N 678.448 -1.51871 0.421078 0
M  V30 7096 C 679.678 -2.06057 -0.149723 0
M  V30 7097 C 680.086 -1.29002 -1.38402 0
M  V30 7098 O 679.429 -0.338385 -1.80556 0
M  V30 7099 C 679.491 -3.55216 -0.553339 0
M  V30 7100 C 679.155 -4.53408 0.571879 0
M  V30 7101 C 680.152 -4.99586 1.4391 0
M  V30 7102 C 677.837 -4.967 0.747979 0
M  V30 7103 C 679.831 -5.87711 2.46727 0
M  V30 7104 C 677.518 -5.84619 1.77944 0
M  V30 7105 C 678.516 -6.30021 2.63748 0
M  V30 7106 O 678.204 -7.16197 3.65126 0
M  V30 7107 H 677.936 -0.675744 -0.0186102 0
M  V30 7108 H 680.49 -1.96618 0.594166 0
M  V30 7109 H 678.72 -3.62381 -1.34969 0
M  V30 7110 H 680.409 -3.91992 -1.05342 0
M  V30 7111 H 681.175 -4.66846 1.31451 0
M  V30 7112 H 677.054 -4.60913 0.0897357 0
M  V30 7113 H 680.598 -6.2307 3.13734 0
M  V30 7114 H 676.495 -6.16771 1.90429 0
M  V30 7115 H 677.263 -7.34337 3.61512 0
M  V30 7116 N 679.926 -0.151884 -1.56866 0
M  V30 7117 C 681.172 0.498742 -1.96572 0
M  V30 7118 C 681.505 1.64194 -1.03702 0
M  V30 7119 O 680.78 1.94334 -0.0803432 0
M  V30 7120 C 681.063 1.00027 -3.45929 0
M  V30 7121 C 680.916 -0.141767 -4.49577 0
M  V30 7122 C 682.235 1.88044 -3.97904 0
M  V30 7123 H 679.354 0.17982 -0.714726 0
M  V30 7124 H 681.996 -0.234097 -1.88552 0
M  V30 7125 H 680.146 1.62476 -3.52894 0
M  V30 7126 H 681.818 -0.778269 -4.54687 0
M  V30 7127 H 680.061 -0.80019 -4.26356 0
M  V30 7128 H 680.732 0.250947 -5.51429 0
M  V30 7129 H 683.208 1.35416 -3.93449 0
M  V30 7130 H 682.084 2.20043 -5.02864 0
M  V30 7131 H 682.345 2.81916 -3.40552 0
M  V30 7132 N 681.404 1.57128 0.121893 0
M  V30 7133 C 682.65 1.84974 0.831418 0
M  V30 7134 C 682.983 0.737204 1.79663 0
M  V30 7135 O 682.258 -0.257199 1.92792 0
M  V30 7136 C 682.541 3.23397 1.58386 0
M  V30 7137 C 682.394 4.45246 0.638445 0
M  V30 7138 C 683.713 3.59355 2.54071 0
M  V30 7139 H 680.832 0.67282 0.300803 0
M  V30 7140 H 683.474 1.89759 0.0957587 0
M  V30 7141 H 681.624 3.19449 2.21098 0
M  V30 7142 H 683.296 4.61295 0.0203925 0
M  V30 7143 H 681.539 4.33771 -0.05023 0
M  V30 7144 H 682.21 5.38765 1.20151 0
M  V30 7145 H 684.686 3.64075 2.01465 0
M  V30 7146 H 683.562 4.57193 3.03752 0
M  V30 7147 H 683.823 2.86622 3.36601 0
M  V30 7148 N 682.882 -0.391992 1.52647 0
M  V30 7149 C 683.845 -1.46135 1.7657 0
M  V30 7150 C 684.845 -1.47701 0.635698 0
M  V30 7151 O 686.035 -1.48924 0.903728 0
M  V30 7152 C 683.167 -2.85443 1.86374 0
M  V30 7153 H 684.36 -1.26208 2.72051 0
M  V30 7154 H 681.913 -0.623549 1.43323 0
M  V30 7155 H 682.648 -3.10718 0.928685 0
M  V30 7156 H 682.433 -2.85708 2.68539 0
M  V30 7157 H 683.923 -3.62933 2.06566 0
M  V30 7158 N 684.36 -1.4356 -0.65026 0
M  V30 7159 C 685.637 -1.35811 -1.40765 0
M  V30 7160 C 686.017 -0.00736379 -2.11099 0
M  V30 7161 O 685.365 1.00932 -2.05 0
M  V30 7162 C 685.575 -2.54332 -2.3899 0
M  V30 7163 C 686.923 -2.97551 -3.02901 0
M  V30 7164 O 687.947 -2.544 -2.49317 0
M  V30 7165 O 686.806 -3.72311 -4.00059 0
M  V30 7166 H 683.9 -0.536861 -0.629054 0
M  V30 7167 H 686.446 -1.55615 -0.676919 0
M  V30 7168 H 685.218 -3.44274 -1.85986 0
M  V30 7169 H 684.841 -2.36643 -3.19509 0
M  V30 7170 N 685.838 0.888903 -1.30139 0
M  V30 7171 C 686.771 1.99655 -1.10514 0
M  V30 7172 C 687.749 1.62594 -0.0138934 0
M  V30 7173 O 688.933 1.87762 -0.166689 0
M  V30 7174 C 686.06 3.31708 -0.684655 0
M  V30 7175 C 685.106 3.87755 -1.77619 0
M  V30 7176 S 685.939 4.15532 -3.37777 0
M  V30 7177 C 687.095 5.5061 -2.97622 0
M  V30 7178 H 687.328 2.15996 -2.04287 0
M  V30 7179 H 684.861 1.03682 -1.14409 0
M  V30 7180 H 686.819 4.08039 -0.448782 0
M  V30 7181 H 685.48 3.1323 0.233648 0
M  V30 7182 H 684.673 4.83164 -1.43417 0
M  V30 7183 H 684.275 3.18149 -1.96614 0
M  V30 7184 H 686.567 6.31518 -2.45338 0
M  V30 7185 H 687.51 5.89747 -3.91924 0
M  V30 7186 H 687.918 5.12983 -2.35603 0
M  V30 7187 N 687.317 1.12792 1.10072 0
M  V30 7188 C 688.227 0.812369 2.20086 0
M  V30 7189 C 689.243 -0.200349 1.72843 0
M  V30 7190 O 690.419 -0.0330262 2.01373 0
M  V30 7191 C 687.484 0.275685 3.45602 0
M  V30 7192 C 686.545 1.34881 4.07561 0
M  V30 7193 C 685.778 0.837639 5.27086 0
M  V30 7194 O 686.001 -0.327224 5.69461 0
M  V30 7195 O 684.935 1.60894 5.79997 0
M  V30 7196 H 688.761 1.73133 2.49517 0
M  V30 7197 H 686.346 0.904863 1.18881 0
M  V30 7198 H 688.228 -0.0185375 4.21396 0
M  V30 7199 H 686.903 -0.615783 3.17789 0
M  V30 7200 H 685.81 1.69625 3.33434 0
M  V30 7201 H 687.143 2.21418 4.39585 0
M  V30 7202 N 688.795 -1.27931 0.920396 0
M  V30 7203 C 689.705 -2.30824 0.419212 0
M  V30 7204 C 690.721 -1.66767 -0.496461 0
M  V30 7205 O 691.897 -1.97763 -0.38104 0
M  V30 7206 C 688.962 -3.45158 -0.326601 0
M  V30 7207 C 688.023 -4.24754 0.623098 0
M  V30 7208 C 687.256 -5.33629 -0.0872172 0
M  V30 7209 O 687.479 -5.55204 -1.30784 0
M  V30 7210 O 686.413 -5.99091 0.580875 0
M  V30 7211 H 690.239 -2.75716 1.27337 0
M  V30 7212 H 687.824 -1.32747 0.685465 0
M  V30 7213 H 689.706 -4.14716 -0.747559 0
M  V30 7214 H 688.381 -3.02336 -1.15648 0
M  V30 7215 H 687.288 -3.57759 1.09359 0
M  V30 7216 H 688.621 -4.71272 1.41998 0
M  V30 7217 N 690.273 -0.685099 -1.4193 0
M  V30 7218 C 691.206 0.0371639 -2.2817 0
M  V30 7219 C 692.184 0.798436 -1.41647 0
M  V30 7220 O 693.368 0.791428 -1.71081 0
M  V30 7221 C 690.495 1.05993 -3.21688 0
M  V30 7222 C 689.541 0.393043 -4.24685 0
M  V30 7223 S 690.374 -0.856921 -5.28599 0
M  V30 7224 C 691.53 0.164508 -6.25684 0
M  V30 7225 H 691.763 -0.694305 -2.89079 0
M  V30 7226 H 689.296 -0.474999 -1.46912 0
M  V30 7227 H 691.254 1.64489 -3.76103 0
M  V30 7228 H 689.915 1.7639 -2.59895 0
M  V30 7229 H 689.108 1.16513 -4.90348 0
M  V30 7230 H 688.71 -0.118589 -3.73812 0
M  V30 7231 H 691.002 1.02106 -6.69762 0
M  V30 7232 H 691.945 -0.457917 -7.06618 0
M  V30 7233 H 692.353 0.514596 -5.6215 0
M  V30 7234 N 691.751 1.51645 -0.429126 0
M  V30 7235 C 692.681 2.30434 0.377148 0
M  V30 7236 C 693.662 1.35493 1.02838 0
M  V30 7237 O 694.847 1.6441 1.03359 0
M  V30 7238 C 691.977 3.14038 1.48315 0
M  V30 7239 C 690.931 4.1719 0.955855 0
M  V30 7240 C 690.257 4.89263 2.15698 0
M  V30 7241 C 691.557 5.223 -0.00402136 0
M  V30 7242 H 693.251 2.98085 -0.280336 0
M  V30 7243 H 690.797 1.43354 -0.136265 0
M  V30 7244 H 692.75 3.67933 2.05435 0
M  V30 7245 H 691.474 2.44193 2.16881 0
M  V30 7246 H 690.133 3.64335 0.406929 0
M  V30 7247 H 689.781 4.15929 2.82864 0
M  V30 7248 H 689.481 5.59009 1.81059 0
M  V30 7249 H 691.005 5.45978 2.73387 0
M  V30 7250 H 692.419 5.71315 0.476607 0
M  V30 7251 H 690.816 5.99525 -0.26258 0
M  V30 7252 H 691.886 4.75638 -0.943236 0
M  V30 7253 N 693.229 0.160201 1.56784 0
M  V30 7254 C 694.64 -0.358417 1.83227 0
M  V30 7255 C 694.991 -1.63831 1.07952 0
M  V30 7256 O 694.116 -2.13885 0.328995 0
M  V30 7257 C 694.711 -0.657058 3.32368 0
M  V30 7258 C 693.27 -1.12015 3.59346 0
M  V30 7259 C 692.417 -0.15015 2.76893 0
M  V30 7260 H 695.368 0.384669 1.53967 0
M  V30 7261 H 695.389 -1.51033 3.49241 0
M  V30 7262 H 694.901 0.274647 3.87127 0
M  V30 7263 H 693.002 -2.06734 3.09987 0
M  V30 7264 H 693.115 -1.037 4.67743 0
M  V30 7265 H 691.479 -0.645361 2.46388 0
M  V30 7266 H 692.262 0.775379 3.34429 0
M  V30 7267 N 694.707 -1.5719 -0.113559 0
M  V30 7268 C 696.123 -1.52607 -0.467253 0
M  V30 7269 C 696.323 -0.874058 -1.81556 0
M  V30 7270 O 695.379 -0.458703 -2.48299 0
M  V30 7271 C 696.692 -2.97363 -0.446736 0
M  V30 7272 C 698.24 -3.08482 -0.529903 0
M  V30 7273 C 698.715 -4.54809 -0.539721 0
M  V30 7274 N 700.206 -4.59284 -0.601005 0
M  V30 7275 C 700.941 -5.69927 -0.630138 0
M  V30 7276 N 700.437 -6.90051 -0.616589 0
M  V30 7277 N 702.23 -5.5805 -0.673558 0
M  V30 7278 H 694.381 -1.97958 0.769819 0
M  V30 7279 H 696.644 -0.90428 0.284572 0
M  V30 7280 H 696.35 -3.48458 0.47643 0
M  V30 7281 H 696.224 -3.55086 -1.27254 0
M  V30 7282 H 698.611 -2.57386 -1.44349 0
M  V30 7283 H 698.692 -2.53744 0.323695 0
M  V30 7284 H 698.336 -5.06552 0.369843 0
M  V30 7285 H 698.266 -5.07364 -1.41028 0
M  V30 7286 H 700.757 -3.72822 -0.617419 0
M  V30 7287 H 701.07 -7.70132 -0.641592 0
M  V30 7288 H 699.415 -6.92543 -0.583927 0
M  V30 7289 H 702.606 -4.63112 -0.681544 0
M  V30 7290 H 702.779 -6.44286 -0.692794 0
M  V30 7291 N 696.185 0.383891 -1.52853 0
M  V30 7292 C 697.41 1.154 -1.7233 0
M  V30 7293 C 697.835 1.82809 -0.44298 0
M  V30 7294 O 697.193 1.71026 0.601645 0
M  V30 7295 C 697.241 2.17386 -2.87708 0
M  V30 7296 O 696.345 3.24082 -2.55038 0
M  V30 7297 H 695.686 0.335709 -0.572883 0
M  V30 7298 H 698.216 0.44662 -1.99666 0
M  V30 7299 H 698.226 2.61296 -3.1335 0
M  V30 7300 H 696.901 1.6771 -3.80587 0
M  V30 7301 H 695.478 2.85273 -2.40153 0
M  V30 7302 O 697.702 1.52561 0.529841 0
M  V30 7303 H 698.393 1.53227 1.18495 0
M  V30 END ATOM
M  V30 BEGIN BOND
M  V30 END BOND
M  V30 END CTAB
M  END
$$$$
