drugbank_target|Q15125 3-beta-hydroxysteroid-Delta(8),Delta(7)-isomerase (DB00675)
 OpenBabel12092120593D

  0  0  0     0  0            999 V3000
M  V30 BEGIN CTAB
M  V30 COUNTS 3735 3800 0 0 0
M  V30 BEGIN ATOM
M  V30 1 H -0.908 1.98254 -0.117106 0
M  V30 2 N 0 1.576 0 0
M  V30 3 C 0.933 2.03868 1.02534 0
M  V30 4 C 1.911 0.928543 1.3348 0
M  V30 5 O 3.095 1.19667 1.45644 0
M  V30 6 C 0.222 2.43627 2.35294 0
M  V30 7 C -0.732 3.65373 2.2001 0
M  V30 8 S 0.101 5.13292 1.52614 0
M  V30 9 C 1.257 5.56322 2.86805 0
M  V30 10 H 1.49 2.90518 0.631377 0
M  V30 11 H -0.977 1.52953 0.210867 0
M  V30 12 H 0.981 2.67203 3.11629 0
M  V30 13 H -0.358 1.57376 2.7183 0
M  V30 14 H -1.165 3.90944 3.18086 0
M  V30 15 H -1.563 3.418 1.51819 0
M  V30 16 H 0.729 5.58782 3.83104 0
M  V30 17 H 1.672 6.56266 2.65933 0
M  V30 18 H 2.08 4.83886 2.90714 0
M  V30 19 N 1.4781 -0.272755 1.55222 0
M  V30 20 C 2.7061 -1.02255 1.79865 0
M  V30 21 C 3.1211 -1.79924 0.572088 0
M  V30 22 O 2.4781 -1.76638 -0.458842 0
M  V30 23 C 2.5291 -1.98094 3.02392 0
M  V30 24 O 2.2501 -1.23572 4.20311 0
M  V30 25 C 3.7511 -2.84884 3.39641 0
M  V30 26 H 0.9711 -0.302057 0.599168 0
M  V30 27 H 3.5151 -0.303465 2.02236 0
M  V30 28 H 1.6701 -2.65465 2.82147 0
M  V30 29 H 2.0841 -1.88172 4.89583 0
M  V30 30 H 3.5581 -3.47927 4.28545 0
M  V30 31 H 4.0351 -3.54665 2.59055 0
M  V30 32 H 4.6411 -2.23003 3.62146 0
M  V30 33 N 2.9562 -1.48159 -0.537278 0
M  V30 34 C 4.1842 -1.59454 -1.31841 0
M  V30 35 C 4.5992 -0.252065 -1.8711 0
M  V30 36 O 3.9562 0.757621 -1.66031 0
M  V30 37 C 4.0072 -2.63546 -2.47439 0
M  V30 38 O 3.7282 -3.92583 -1.94449 0
M  V30 39 C 5.2292 -2.85212 -3.39366 0
M  V30 40 H 2.4492 -0.53785 -0.401196 0
M  V30 41 H 4.9932 -1.93932 -0.648891 0
M  V30 42 H 3.1482 -2.31946 -3.1029 0
M  V30 43 H 3.5622 -4.49629 -2.70063 0
M  V30 44 H 5.0362 -3.61863 -4.16844 0
M  V30 45 H 5.5132 -1.93765 -3.94147 0
M  V30 46 H 6.1192 -3.18086 -2.82314 0
M  V30 47 N 4.4343 0.785586 -1.36625 0
M  V30 48 C 5.3823 1.91978 -1.31329 0
M  V30 49 C 6.3763 1.68162 -0.204416 0
M  V30 50 O 7.5823 1.76122 -0.371645 0
M  V30 51 H 3.9573 0.631087 -0.408942 0
M  V30 52 H 5.9283 1.93562 -2.27104 0
M  V30 53 C 4.6773 3.29055 -1.12329 0
M  V30 54 H 4.0003 3.4795 -1.96903 0
M  V30 55 H 5.4403 4.08756 -1.12671 0
M  V30 56 C 3.8993 3.36461 0.171861 0
M  V30 57 O 4.4293 3.84576 1.16035 0
M  V30 58 N 2.6353 2.89782 0.217846 0
M  V30 59 H 2.1823 2.50819 -0.587183 0
M  V30 60 H 2.1403 2.95119 1.08408 0
M  V30 61 N 5.9124 1.20967 1.01018 0
M  V30 62 C 6.8754 0.965918 2.07853 0
M  V30 63 C 7.8754 -0.0610545 1.60684 0
M  V30 64 O 9.0654 0.175681 1.73312 0
M  V30 65 C 6.1974 0.455513 3.37843 0
M  V30 66 H 7.3904 1.91365 2.3091 0
M  V30 67 H 4.9434 1.02594 1.17916 0
M  V30 68 H 5.6784 -0.497381 3.20463 0
M  V30 69 H 5.4634 1.19622 3.73407 0
M  V30 70 H 6.9534 0.304667 4.16487 0
M  V30 71 N 7.3905 -1.2043 1.01659 0
M  V30 72 C 8.6385 -1.89423 0.704522 0
M  V30 73 C 8.9595 -1.79231 -0.768197 0
M  V30 74 O 8.2295 -1.1947 -1.55254 0
M  V30 75 H 6.8095 -0.701178 0.257602 0
M  V30 76 H 9.4715 -1.4626 1.28818 0
M  V30 77 H 8.5675 -2.96052 0.987916 0
M  V30 78 N 8.8686 -0.792821 -1.36206 0
M  V30 79 C 10.2796 -0.429513 -1.81692 0
M  V30 80 C 10.6306 1.04695 -1.65932 0
M  V30 81 O 9.7556 1.81256 -1.18218 0
M  V30 82 C 10.3506 -0.772831 -3.29868 0
M  V30 83 C 8.9096 -0.462307 -3.7355 0
M  V30 84 C 8.0566 -1.00569 -2.5842 0
M  V30 85 H 11.0076 -0.985672 -1.24379 0
M  V30 86 H 11.0286 -0.0651928 -3.80444 0
M  V30 87 H 10.5406 -1.84747 -3.41307 0
M  V30 88 H 8.6416 0.604158 -3.67669 0
M  V30 89 H 8.7546 -0.985299 -4.68859 0
M  V30 90 H 7.1186 -0.428734 -2.51066 0
M  V30 91 H 7.9016 -2.08616 -2.72643 0
M  V30 92 N 10.3467 1.47872 -0.545128 0
M  V30 93 C 11.2767 2.32661 0.197793 0
M  V30 94 C 12.2577 1.43041 0.920504 0
M  V30 95 O 13.4427 1.71912 0.90333 0
M  V30 96 C 10.5727 3.24569 1.23582 0
M  V30 97 C 9.5267 4.23333 0.630323 0
M  V30 98 C 8.8527 5.0448 1.77211 0
M  V30 99 C 10.1527 5.20704 -0.407974 0
M  V30 100 H 11.8467 2.95024 -0.510045 0
M  V30 101 H 9.3927 1.4187 -0.246731 0
M  V30 102 H 11.3457 3.8272 1.76362 0
M  V30 103 H 10.0697 2.60236 1.97344 0
M  V30 104 H 8.7287 3.6639 0.123922 0
M  V30 105 H 8.3767 4.36561 2.49847 0
M  V30 106 H 8.0767 5.71339 1.37281 0
M  V30 107 H 9.6007 5.65487 2.3034 0
M  V30 108 H 11.0147 5.7329 0.033305 0
M  V30 109 H 9.4117 5.95699 -0.725486 0
M  V30 110 H 10.4817 4.66917 -1.30828 0
M  V30 111 N 11.8248 0.280983 1.55075 0
M  V30 112 C 12.7748 -0.618585 2.19448 0
M  V30 113 C 13.7588 -1.11401 1.16098 0
M  V30 114 O 14.9508 -1.0581 1.41891 0
M  V30 115 C 12.0798 -1.79951 2.92357 0
M  V30 116 C 11.1658 -1.321 4.03002 0
M  V30 117 N 11.5568 -0.559044 5.02701 0
M  V30 118 C 9.8548 -1.60346 4.16179 0
M  V30 119 C 10.5558 -0.306722 5.80891 0
M  V30 120 N 9.5318 -0.880825 5.36416 0
M  V30 121 H 13.3338 -0.0286638 2.93886 0
M  V30 122 H 10.8478 0.0848104 1.62178 0
M  V30 123 H 12.8448 -2.45531 3.36927 0
M  V30 124 H 11.5048 -2.39333 2.19431 0
M  V30 125 H 12.5158 -0.205827 5.17491 0
M  V30 126 H 9.1928 -2.20621 3.54447 0
M  V30 127 H 10.5828 0.30391 6.71212 0
M  V30 128 N 13.3029 -1.57598 0.00835791 0
M  V30 129 C 14.7139 -1.7892 -0.53333 0
M  V30 130 C 15.0649 -0.916609 -1.73473 0
M  V30 131 O 14.1899 -0.121336 -2.1606 0
M  V30 132 C 14.7849 -3.24488 -0.974313 0
M  V30 133 C 13.3439 -3.46878 -1.46125 0
M  V30 134 C 12.4909 -2.74157 -0.416302 0
M  V30 135 H 15.4419 -1.56958 0.234495 0
M  V30 136 H 15.4629 -3.3306 -1.83988 0
M  V30 137 H 14.9749 -3.87972 -0.099718 0
M  V30 138 H 13.0759 -2.8862 -2.35646 0
M  V30 139 H 13.1889 -4.55572 -1.48295 0
M  V30 140 H 11.5529 -2.39022 -0.87981 0
M  V30 141 H 12.3359 -3.40345 0.44947 0
M  V30 142 N 14.781 0.264519 -1.55364 0
M  V30 143 C 16.011 1.01153 -1.80143 0
M  V30 144 C 16.419 1.80115 -0.579253 0
M  V30 145 O 15.762 1.77813 0.46132 0
M  V30 146 C 15.824 2.01098 -2.97993 0
M  V30 147 C 15.488 1.40995 -4.34706 0
M  V30 148 C 16.485 0.821316 -5.13372 0
M  V30 149 C 14.17 1.43461 -4.81378 0
M  V30 150 C 16.164 0.265339 -6.36847 0
M  V30 151 C 13.851 0.874771 -6.04807 0
M  V30 152 C 14.849 0.291146 -6.82379 0
M  V30 153 O 14.537 -0.260093 -8.03479 0
M  V30 154 H 14.269 0.304125 -0.603725 0
M  V30 155 H 16.823 0.298089 -2.03225 0
M  V30 156 H 15.053 2.76224 -2.70623 0
M  V30 157 H 16.742 2.61997 -3.1002 0
M  V30 158 H 17.508 0.794903 -4.78442 0
M  V30 159 H 13.387 1.87826 -4.21002 0
M  V30 160 H 16.931 -0.190837 -6.97339 0
M  V30 161 H 12.828 0.898452 -6.39217 0
M  V30 162 H 13.596 -0.150265 -8.18362 0
M  V30 163 N 16.2591 1.48442 0.529413 0
M  V30 164 C 17.5051 1.57699 1.28463 0
M  V30 165 C 17.8601 0.247913 1.90796 0
M  V30 166 O 17.1531 -0.749279 1.76342 0
M  V30 167 C 17.3471 2.6523 2.39558 0
M  V30 168 C 17.1761 4.08464 1.88114 0
M  V30 169 C 15.9461 4.75596 1.70693 0
M  V30 170 C 18.1441 4.94613 1.40935 0
M  V30 171 N 16.1261 6.03245 1.13881 0
M  V30 172 C 17.4971 6.12511 0.960734 0
M  V30 173 C 19.5521 4.80833 1.29243 0
M  V30 174 C 18.2551 7.18149 0.406792 0
M  V30 175 C 20.2811 5.86593 0.752487 0
M  V30 176 C 19.6431 7.037 0.313946 0
M  V30 177 H 15.7421 0.631608 0.46108 0
M  V30 178 H 18.3261 1.85325 0.596886 0
M  V30 179 H 16.4971 2.39425 3.05827 0
M  V30 180 H 18.2291 2.64169 3.06589 0
M  V30 181 H 14.9841 4.31938 1.94232 0
M  V30 182 H 15.4081 6.71324 0.874831 0
M  V30 183 H 20.0501 3.90635 1.61754 0
M  V30 184 H 17.7681 8.0807 0.0693671 0
M  V30 185 H 21.3541 5.77985 0.665192 0
M  V30 186 H 20.2341 7.8414 -0.0973632 0
M  V30 187 N 17.7372 -0.778329 1.37039 0
M  V30 188 C 19.1482 -1.35421 1.28523 0
M  V30 189 C 19.4992 -1.96075 -0.0700901 0
M  V30 190 O 18.6242 -1.93352 -0.971801 0
M  V30 191 C 19.2192 -2.46211 2.32735 0
M  V30 192 C 17.7782 -2.99585 2.27873 0
M  V30 193 C 16.9252 -1.72748 2.16918 0
M  V30 194 H 19.8762 -0.5791 1.47757 0
M  V30 195 H 19.8972 -3.2552 1.9702 0
M  V30 196 H 19.4092 -2.02036 3.31365 0
M  V30 197 H 17.5102 -3.48152 1.32745 0
M  V30 198 H 17.6232 -3.55646 3.21018 0
M  V30 199 H 15.9872 -1.95416 1.63354 0
M  V30 200 H 16.7702 -1.30686 3.17452 0
M  V30 201 N 19.2153 -1.21501 -1.00376 0
M  V30 202 C 20.1473 -0.933174 -2.09343 0
M  V30 203 C 21.1603 0.0840896 -1.62583 0
M  V30 204 O 22.3493 -0.148563 -1.77881 0
M  V30 205 C 19.4493 -0.379869 -3.36764 0
M  V30 206 C 18.6223 -1.45176 -4.12605 0
M  V30 207 C 17.6813 -0.907476 -5.18316 0
M  V30 208 O 16.7073 -1.5912 -5.46507 0
M  V30 209 N 17.9093 0.276649 -5.7984 0
M  V30 210 H 20.6743 -1.87124 -2.34104 0
M  V30 211 H 18.2353 -1.12043 -1.16867 0
M  V30 212 H 20.2273 -0.00131488 -4.047 0
M  V30 213 H 18.7973 0.463048 -3.09151 0
M  V30 214 H 18.0173 -2.00411 -3.39454 0
M  V30 215 H 19.3053 -2.17328 -4.6005 0
M  V30 216 H 18.7033 0.849147 -5.59291 0
M  V30 217 H 17.2603 0.596702 -6.49063 0
M  V30 218 N 20.6934 1.19889 -1.02296 0
M  V30 219 C 21.6434 2.20777 -0.56934 0
M  V30 220 C 22.6274 1.56379 0.378741 0
M  V30 221 O 23.8194 1.75859 0.200673 0
M  V30 222 C 20.9484 3.43196 0.0845077 0
M  V30 223 C 20.0344 4.14749 -0.88566 0
M  V30 224 N 20.4254 4.62584 -2.04573 0
M  V30 225 C 18.7234 4.40347 -0.707835 0
M  V30 226 C 19.4244 5.17466 -2.65714 0
M  V30 227 N 18.4004 5.0791 -1.93723 0
M  V30 228 H 22.2024 2.55434 -1.45365 0
M  V30 229 H 19.7164 1.35897 -0.88915 0
M  V30 230 H 21.7134 4.14707 0.427067 0
M  V30 231 H 20.3734 3.10042 0.964574 0
M  V30 232 H 21.3844 4.57597 -2.4254 0
M  V30 233 H 18.0614 4.17317 0.12364 0
M  V30 234 H 19.4514 5.64808 -3.63925 0
M  V30 235 N 22.1715 0.800033 1.35784 0
M  V30 236 C 23.1015 0.220184 2.3246 0
M  V30 237 C 24.0825 -0.65073 1.57161 0
M  V30 238 O 25.2675 -0.582359 1.85263 0
M  V30 239 C 22.3975 -0.637353 3.41402 0
M  V30 240 C 21.3515 0.134531 4.27789 0
M  V30 241 C 20.6775 -0.844285 5.27992 0
M  V30 242 C 21.9775 1.32979 5.05088 0
M  V30 243 H 23.6715 1.02787 2.81203 0
M  V30 244 H 21.2175 0.495717 1.35199 0
M  V30 245 H 23.1705 -1.05302 4.08031 0
M  V30 246 H 21.8945 -1.47785 2.91251 0
M  V30 247 H 20.5535 0.531296 3.6273 0
M  V30 248 H 20.2015 -1.68011 4.74111 0
M  V30 249 H 19.9015 -0.332184 5.8666 0
M  V30 250 H 21.4255 -1.2583 5.97494 0
M  V30 251 H 22.8395 0.98934 5.64699 0
M  V30 252 H 21.2365 1.77593 5.7322 0
M  V30 253 H 22.3065 2.11978 4.36111 0
M  V30 254 N 23.6496 -1.47581 0.552962 0
M  V30 255 C 25.0656 -1.5818 0.212424 0
M  V30 256 C 25.2656 -1.55213 -1.28496 0
M  V30 257 O 24.3216 -1.45329 -2.06484 0
M  V30 258 C 25.6346 -2.88865 0.835318 0
M  V30 259 C 27.1826 -3.0244 0.806156 0
M  V30 260 C 27.6576 -4.35819 1.40804 0
M  V30 261 N 29.1486 -4.42444 1.37103 0
M  V30 262 C 29.8836 -5.44202 1.80641 0
M  V30 263 N 29.3796 -6.52795 2.32015 0
M  V30 264 N 31.1726 -5.35222 1.71738 0
M  V30 265 H 23.3236 -1.47753 1.52587 0
M  V30 266 H 25.5866 -0.702941 0.636064 0
M  V30 267 H 25.2926 -2.9676 1.88749 0
M  V30 268 H 25.1666 -3.7579 0.325848 0
M  V30 269 H 27.5536 -2.94144 -0.237317 0
M  V30 270 H 27.6346 -2.17068 1.35334 0
M  V30 271 H 27.2786 -4.44871 2.45056 0
M  V30 272 H 27.2086 -5.19916 0.836338 0
M  V30 273 H 29.6996 -3.6456 0.995202 0
M  V30 274 H 30.0126 -7.26609 2.63171 0
M  V30 275 H 28.3576 -6.53696 2.36023 0
M  V30 276 H 31.5486 -4.49284 1.31382 0
M  V30 277 H 31.7216 -6.14389 2.05987 0
M  V30 278 N 25.1277 -0.289203 -1.54924 0
M  V30 279 C 26.0577 0.58549 -2.2604 0
M  V30 280 C 27.0387 1.14753 -1.25562 0
M  V30 281 O 28.2237 1.17906 -1.54311 0
M  V30 282 C 25.3537 1.76305 -2.99222 0
M  V30 283 C 24.3077 1.33191 -4.06748 0
M  V30 284 C 23.6337 2.5937 -4.6758 0
M  V30 285 C 24.9337 0.471775 -5.20165 0
M  V30 286 H 26.6277 -0.00763532 -2.99399 0
M  V30 287 H 24.1737 -0.00511229 -1.43999 0
M  V30 288 H 26.1267 2.38097 -3.47689 0
M  V30 289 H 24.8507 2.38223 -2.23422 0
M  V30 290 H 23.5097 0.737121 -3.59113 0
M  V30 291 H 23.1577 3.19576 -3.88433 0
M  V30 292 H 22.8577 2.31228 -5.40192 0
M  V30 293 H 24.3817 3.21985 -5.18804 0
M  V30 294 H 25.7957 0.995056 -5.64599 0
M  V30 295 H 24.1927 0.284639 -5.99425 0
M  V30 296 H 25.2627 -0.506041 -4.82252 0
M  V30 297 N 26.6058 1.57591 -0.0167156 0
M  V30 298 C 27.8828 1.82547 0.702564 0
M  V30 299 C 28.2628 0.898018 1.91047 0
M  V30 300 O 27.6108 -0.0493456 2.28447 0
M  V30 301 C 27.8208 3.31459 1.09251 0
M  V30 302 C 29.1688 3.97622 1.48937 0
M  V30 303 O 30.1928 3.35881 1.18584 0
M  V30 304 O 29.0518 5.06415 2.05442 0
M  V30 305 H 26.1458 0.752268 0.343544 0
M  V30 306 H 28.6918 1.69644 -0.0434495 0
M  V30 307 H 27.4638 3.9061 0.23227 0
M  V30 308 H 27.0868 3.49422 1.89709 0
M  V30 309 N 28.0839 -0.256276 1.55502 0
M  V30 310 C 29.0319 -1.33694 1.90338 0
M  V30 311 C 30.0259 -1.50299 0.781441 0
M  V30 312 O 31.2319 -1.51885 0.965966 0
M  V30 313 H 27.6069 -0.447483 0.60437 0
M  V30 314 H 29.5779 -1.01574 2.8058 0
M  V30 315 C 28.3269 -2.68724 2.20642 0
M  V30 316 H 27.6499 -2.56743 3.06469 0
M  V30 317 H 29.0899 -3.43237 2.48926 0
M  V30 318 C 27.5489 -3.21101 1.01959 0
M  V30 319 O 28.0789 -4.0084 0.262762 0
M  V30 320 N 26.2849 -2.79003 0.812746 0
M  V30 321 H 25.8319 -2.14271 1.42989 0
M  V30 322 H 25.7899 -3.14393 0.0203076 0
M  V30 323 N 29.562 -1.4872 -0.521534 0
M  V30 324 C 30.809 -1.57168 -1.27689 0
M  V30 325 C 31.137 -0.249275 -1.92896 0
M  V30 326 O 30.392 0.761162 -1.80291 0
M  V30 327 C 30.691 -2.66497 -2.38148 0
M  V30 328 C 30.357 -4.08664 -1.90538 0
M  V30 329 C 29.019 -4.47357 -1.77271 0
M  V30 330 C 31.371 -4.97724 -1.54663 0
M  V30 331 C 28.699 -5.72905 -1.26478 0
M  V30 332 C 31.051 -6.2377 -1.05329 0
M  V30 333 C 29.715 -6.61311 -0.906861 0
M  V30 334 H 28.985 -0.575117 -0.467249 0
M  V30 335 H 31.632 -1.82472 -0.581051 0
M  V30 336 H 29.937 -2.35085 -3.13437 0
M  V30 337 H 31.634 -2.70246 -2.96257 0
M  V30 338 H 28.224 -3.78111 -2.01816 0
M  V30 339 H 32.408 -4.68501 -1.63768 0
M  V30 340 H 27.664 -6.00709 -1.13835 0
M  V30 341 H 31.838 -6.9217 -0.76644 0
M  V30 342 H 29.465 -7.5848 -0.511083 0
M  V30 343 N 31.0401 0.771051 -1.3745 0
M  V30 344 C 32.2861 1.5319 -1.32894 0
M  V30 345 C 32.6191 1.94008 0.0862511 0
M  V30 346 O 31.8941 1.64124 1.04373 0
M  V30 347 C 32.1771 2.79648 -2.26868 0
M  V30 348 C 32.0301 2.45079 -3.77169 0
M  V30 349 C 33.3491 3.81583 -2.19277 0
M  V30 350 H 30.4681 0.555744 -0.484064 0
M  V30 351 H 33.1101 0.884492 -1.68157 0
M  V30 352 H 31.2601 3.34891 -1.96926 0
M  V30 353 H 32.9321 1.95745 -4.1771 0
M  V30 354 H 31.1751 1.77767 -3.95704 0
M  V30 355 H 31.8461 3.35478 -4.38359 0
M  V30 356 H 34.3221 3.35835 -2.45671 0
M  V30 357 H 33.1981 4.67787 -2.87171 0
M  V30 358 H 33.4591 4.25897 -1.18592 0
M  V30 359 N 32.5182 1.22032 0.997298 0
M  V30 360 C 33.9292 1.0397 1.55071 0
M  V30 361 C 34.2802 -0.398192 1.92117 0
M  V30 362 O 33.4052 -1.28254 1.74298 0
M  V30 363 C 34.0002 1.88109 2.81781 0
M  V30 364 C 32.5592 1.74357 3.33581 0
M  V30 365 C 31.7062 1.84846 2.06706 0
M  V30 366 H 34.6572 1.35941 0.818883 0
M  V30 367 H 34.6782 1.39589 3.53971 0
M  V30 368 H 34.1902 2.92754 2.54787 0
M  V30 369 H 32.2912 0.72427 3.65493 0
M  V30 370 H 32.4042 2.56772 4.04481 0
M  V30 371 H 30.7682 1.28238 2.20062 0
M  V30 372 H 31.5512 2.91014 1.82114 0
M  V30 373 N 33.9963 -1.19345 1.0293 0
M  V30 374 C 34.9443 -2.24621 0.604001 0
M  V30 375 C 35.9383 -1.65452 -0.363587 0
M  V30 376 O 37.1443 -1.78497 -0.23212 0
M  V30 377 H 33.5193 -0.730858 0.177061 0
M  V30 378 H 35.4903 -2.5781 1.50255 0
M  V30 379 C 34.2393 -3.47688 -0.0289127 0
M  V30 380 H 33.5623 -3.93505 0.706651 0
M  V30 381 H 35.0023 -4.23011 -0.289432 0
M  V30 382 C 33.4613 -3.11817 -1.2756 0
M  V30 383 O 33.9913 -3.2451 -2.36762 0
M  V30 384 N 32.1973 -2.66246 -1.16453 0
M  V30 385 H 31.7443 -2.56118 -0.275914 0
M  V30 386 H 31.7023 -2.42617 -1.99961 0
M  V30 387 N 35.4744 -0.807222 -1.35358 0
M  V30 388 C 36.7514 -0.311126 -1.9311 0
M  V30 389 C 37.1314 1.19937 -1.73719 0
M  V30 390 O 36.4794 1.99918 -1.10657 0
M  V30 391 C 36.6894 -0.723226 -3.41424 0
M  V30 392 C 38.0374 -0.713078 -4.18569 0
M  V30 393 O 39.0614 -0.664811 -3.49941 0
M  V30 394 O 37.9204 -0.772022 -5.41019 0
M  V30 395 H 35.0144 -0.081526 -0.822972 0
M  V30 396 H 37.5604 -0.890962 -1.4443 0
M  V30 397 H 36.3324 -1.76426 -3.4927 0
M  V30 398 H 35.9554 -0.118232 -3.97424 0
M  V30 399 N 36.9525 1.47285 -0.560781 0
M  V30 400 C 38.3685 1.58065 -0.22081 0
M  V30 401 C 38.5685 1.55892 1.27671 0
M  V30 402 O 37.6245 1.46422 2.0571 0
M  V30 403 C 38.9375 2.88418 -0.850625 0
M  V30 404 C 40.4855 3.02009 -0.822184 0
M  V30 405 C 40.9605 4.35066 -1.43113 0
M  V30 406 N 42.4515 4.41711 -1.39448 0
M  V30 407 C 43.1865 5.43237 -1.83525 0
M  V30 408 N 42.6825 6.51555 -2.35474 0
M  V30 409 N 44.4755 5.34304 -1.74574 0
M  V30 410 H 36.6265 1.46941 -1.53369 0
M  V30 411 H 38.8895 0.699558 -0.639783 0
M  V30 412 H 38.5955 2.95755 -1.9032 0
M  V30 413 H 38.4695 3.75612 -0.345773 0
M  V30 414 H 40.8565 2.94266 0.221714 0
M  V30 415 H 40.9375 2.16347 -1.36483 0
M  V30 416 H 40.5815 4.43565 -2.47412 0
M  V30 417 H 40.5115 5.19465 -0.863899 0
M  V30 418 H 43.0025 3.64027 -1.01452 0
M  V30 419 H 43.3155 7.25203 -2.67021 0
M  V30 420 H 41.6605 6.52435 -2.39487 0
M  V30 421 H 44.8515 4.48581 -1.33763 0
M  V30 422 H 45.0245 6.13288 -2.09242 0
M  V30 423 N 38.4306 0.297415 1.54768 0
M  V30 424 C 39.8416 -0.195947 1.85669 0
M  V30 425 C 40.1926 -1.53707 1.21937 0
M  V30 426 O 39.3176 -2.10164 0.515754 0
M  V30 427 C 39.9126 -0.362318 3.36857 0
M  V30 428 C 38.4716 -0.799901 3.67802 0
M  V30 429 C 37.6186 0.0938578 2.77141 0
M  V30 430 H 40.5696 0.518538 1.4999 0
M  V30 431 H 40.5906 -1.19745 3.61167 0
M  V30 432 H 40.1026 0.613921 3.83214 0
M  V30 433 H 38.2036 -1.78682 3.26961 0
M  V30 434 H 38.3166 -0.621773 4.75048 0
M  V30 435 H 36.6806 -0.426254 2.51108 0
M  V30 436 H 37.4636 1.06639 3.26318 0
M  V30 437 N 39.9087 -1.5758 0.0250728 0
M  V30 438 C 41.1367 -1.9593 -0.664747 0
M  V30 439 C 41.5517 -0.901352 -1.65895 0
M  V30 440 O 40.9087 0.117255 -1.82123 0
M  V30 441 C 40.9597 -3.34342 -1.37468 0
M  V30 442 O 40.6807 -4.36079 -0.420324 0
M  V30 443 C 42.1817 -3.873 -2.1567 0
M  V30 444 H 39.4017 -0.645405 -0.183557 0
M  V30 445 H 41.9457 -2.04329 0.0836372 0
M  V30 446 H 40.1007 -3.27175 -2.0745 0
M  V30 447 H 40.5147 -5.16297 -0.923991 0
M  V30 448 H 41.9887 -4.86504 -2.60803 0
M  V30 449 H 42.4657 -3.21331 -2.99405 0
M  V30 450 H 43.0717 -3.97723 -1.50654 0
M  V30 451 N 41.3868 0.248026 -1.55636 0
M  V30 452 C 42.6328 0.973427 -1.78594 0
M  V30 453 C 42.9878 1.83007 -0.593823 0
M  V30 454 O 42.2808 1.87097 0.412961 0
M  V30 455 C 42.4748 1.86819 -3.04686 0
M  V30 456 C 42.3038 1.09965 -4.36048 0
M  V30 457 C 41.0738 0.805204 -4.98843 0
M  V30 458 C 43.2718 0.477783 -5.12076 0
M  V30 459 N 41.2538 0.0124859 -6.13899 0
M  V30 460 C 42.6248 -0.179565 -6.1974 0
M  V30 461 C 44.6798 0.388136 -4.96385 0
M  V30 462 C 43.3828 -0.91795 -7.13419 0
M  V30 463 C 45.4088 -0.336716 -5.90441 0
M  V30 464 C 44.7708 -0.982705 -6.97511 0
M  V30 465 H 40.8698 0.337348 -0.705493 0
M  V30 466 H 43.4538 0.24667 -1.93131 0
M  V30 467 H 41.6248 2.56698 -2.9148 0
M  V30 468 H 43.3568 2.52907 -3.15944 0
M  V30 469 H 40.1118 1.11671 -4.60246 0
M  V30 470 H 40.5358 -0.371933 -6.75978 0
M  V30 471 H 45.1778 0.873237 -4.13684 0
M  V30 472 H 42.8958 -1.41466 -7.95621 0
M  V30 473 H 46.4818 -0.406731 -5.80377 0
M  V30 474 H 45.3618 -1.53464 -7.69037 0
M  V30 475 N 42.8649 1.48995 0.513639 0
M  V30 476 C 43.8149 1.61127 1.61314 0
M  V30 477 C 44.7989 0.467521 1.53958 0
M  V30 478 O 45.9909 0.719826 1.61702 0
M  V30 479 C 43.1199 1.66937 2.99978 0
M  V30 480 C 42.2059 2.86847 3.12377 0
M  V30 481 N 42.5969 4.11078 2.94701 0
M  V30 482 C 40.8949 2.84521 3.43459 0
M  V30 483 C 41.5959 4.91615 3.10949 0
M  V30 484 N 40.5719 4.24739 3.3926 0
M  V30 485 H 44.3739 2.54909 1.46282 0
M  V30 486 H 41.8879 1.45593 0.719483 0
M  V30 487 H 43.8849 1.73725 3.78979 0
M  V30 488 H 42.5449 0.742831 3.16089 0
M  V30 489 H 43.5559 4.41258 2.71131 0
M  V30 490 H 40.2329 2.01192 3.65825 0
M  V30 491 H 41.6229 6.00264 3.01882 0
M  V30 492 N 44.343 -0.763751 1.37857 0
M  V30 493 C 45.592 -1.51789 1.32827 0
M  V30 494 C 45.905 -1.95426 -0.0823719 0
M  V30 495 O 47.111 -2.70298 -0.255172 0
M  V30 496 C 45.567 -2.74133 2.33193 0
M  V30 497 C 45.175 -2.37562 3.79827 0
M  V30 498 C 46.919 -3.52054 2.37188 0
M  V30 499 C 44.826 -3.56456 4.71904 0
M  V30 500 H 43.756 -0.569896 0.493695 0
M  V30 501 H 46.407 -0.835822 1.63359 0
M  V30 502 H 44.789 -3.4427 1.9569 0
M  V30 503 H 45.963 -1.75157 4.26212 0
M  V30 504 H 44.278 -1.72798 3.78853 0
M  V30 505 H 46.875 -4.40437 3.03182 0
M  V30 506 H 47.218 -3.92486 1.38782 0
M  V30 507 H 47.751 -2.88921 2.7344 0
M  V30 508 H 44.49 -3.21099 5.71468 0
M  V30 509 H 44.01 -4.17938 4.30218 0
M  V30 510 H 45.689 -4.23168 4.89426 0
M  V30 511 N 45.8211 -1.22559 -0.990812 0
M  V30 512 C 46.7511 -1.0218 -2.09956 0
M  V30 513 C 47.7321 0.0579394 -1.70001 0
M  V30 514 O 48.9171 -0.104684 -1.93918 0
M  V30 515 C 46.0471 -0.601023 -3.4206 0
M  V30 516 C 45.0011 -1.62694 -3.95872 0
M  V30 517 C 44.3271 -1.06193 -5.24049 0
M  V30 518 C 45.6271 -3.01743 -4.2632 0
M  V30 519 H 47.3211 -1.94916 -2.27262 0
M  V30 520 H 44.8671 -0.938566 -1.09211 0
M  V30 521 H 46.8201 -0.445561 -4.19038 0
M  V30 522 H 45.5441 0.362005 -3.24588 0
M  V30 523 H 44.2031 -1.77021 -3.21028 0
M  V30 524 H 43.8511 -0.0901903 -5.02919 0
M  V30 525 H 43.5511 -1.74732 -5.61019 0
M  V30 526 H 45.0751 -0.918092 -6.03658 0
M  V30 527 H 46.4891 -2.90777 -4.94087 0
M  V30 528 H 44.8861 -3.67425 -4.74467 0
M  V30 529 H 45.9561 -3.51518 -3.34011 0
M  V30 530 N 47.2992 1.18797 -1.03562 0
M  V30 531 C 48.2622 2.20464 -0.626769 0
M  V30 532 C 49.2622 1.57721 0.313173 0
M  V30 533 O 50.4522 1.73917 0.0992615 0
M  V30 534 C 47.5842 3.40802 0.0818498 0
M  V30 535 H 48.7772 2.58149 -1.5264 0
M  V30 536 H 46.3302 1.32593 -0.827578 0
M  V30 537 H 47.0652 3.08642 0.995518 0
M  V30 538 H 46.8502 3.8758 -0.593652 0
M  V30 539 H 48.3402 4.16092 0.354584 0
M  V30 540 N 48.7773 0.814389 1.34928 0
M  V30 541 C 50.0253 0.397636 1.9815 0
M  V30 542 C 50.3463 -1.04069 1.64908 0
M  V30 543 O 49.6163 -1.72121 0.93548 0
M  V30 544 H 48.1963 0.144043 0.732981 0
M  V30 545 H 50.8583 1.04195 1.6471 0
M  V30 546 H 49.9543 0.509688 3.0791 0
M  V30 547 N 50.2554 -1.46986 0.568584 0
M  V30 548 C 51.1854 -2.32946 -0.160753 0
M  V30 549 C 52.1664 -1.44487 -0.897631 0
M  V30 550 O 53.3514 -1.73327 -0.875867 0
M  V30 551 C 50.4814 -3.26494 -1.18403 0
M  V30 552 C 49.4354 -4.24282 -0.562895 0
M  V30 553 C 48.7614 -5.07236 -1.69163 0
M  V30 554 C 50.0614 -5.19989 0.490761 0
M  V30 555 H 51.7554 -2.94175 0.556916 0
M  V30 556 H 49.3014 -1.4146 0.26927 0
M  V30 557 H 51.2544 -3.85477 -1.70251 0
M  V30 558 H 49.9784 -2.63343 -1.93179 0
M  V30 559 H 48.6374 -3.66541 -0.0656164 0
M  V30 560 H 48.2854 -4.4048 -2.42871 0
M  V30 561 H 47.9854 -5.7345 -1.28174 0
M  V30 562 H 49.5094 -5.6908 -2.21314 0
M  V30 563 H 50.9234 -5.73271 0.0579047 0
M  V30 564 H 49.3204 -5.94469 0.820165 0
M  V30 565 H 50.3904 -4.64777 1.3824 0
M  V30 566 N 51.7335 -0.305618 -1.54608 0
M  V30 567 C 52.9805 0.302298 -2.00231 0
M  V30 568 C 53.3085 1.5354 -1.19398 0
M  V30 569 O 52.5635 1.93973 -0.259423 0
M  V30 570 C 52.8625 0.698983 -3.50498 0
M  V30 571 C 52.5285 -0.432903 -4.48817 0
M  V30 572 C 51.1905 -0.743622 -4.75419 0
M  V30 573 C 53.5425 -1.19409 -5.07337 0
M  V30 574 C 50.8705 -1.81857 -5.57804 0
M  V30 575 C 53.2225 -2.25899 -5.90891 0
M  V30 576 C 51.8865 -2.57572 -6.15803 0
M  V30 577 H 51.1565 0.110619 -0.732697 0
M  V30 578 H 53.8035 -0.425674 -1.86709 0
M  V30 579 H 52.1085 1.50711 -3.61654 0
M  V30 580 H 53.8055 1.1806 -3.83227 0
M  V30 581 H 50.3955 -0.18063 -4.28219 0
M  V30 582 H 54.5795 -0.967295 -4.86782 0
M  V30 583 H 49.8355 -2.06864 -5.75341 0
M  V30 584 H 54.0095 -2.85335 -6.35261 0
M  V30 585 H 51.6365 -3.40998 -6.7943 0
M  V30 586 N 53.2116 1.57565 -0.0334293 0
M  V30 587 C 54.4366 1.96689 0.657895 0
M  V30 588 C 54.8616 0.910057 1.64619 0
M  V30 589 O 54.2196 -0.128598 1.80843 0
M  V30 590 C 54.2676 3.34905 1.33683 0
M  V30 591 O 53.3716 3.31574 2.45219 0
M  V30 592 H 52.7126 0.641205 0.172489 0
M  V30 593 H 55.2426 2.04372 -0.0965621 0
M  V30 594 H 55.2526 3.71234 1.69262 0
M  V30 595 H 53.9276 4.11366 0.612411 0
M  V30 596 H 52.5046 3.06968 2.11719 0
M  V30 597 N 54.6897 -0.239769 1.55765 0
M  V30 598 C 55.9357 -0.968234 1.78194 0
M  V30 599 C 56.2687 -1.84701 0.599938 0
M  V30 600 O 55.5437 -1.9031 -0.401524 0
M  V30 601 C 55.8267 -1.8227 3.10564 0
M  V30 602 C 55.6797 -0.971633 4.3918 0
M  V30 603 C 56.9987 -2.80388 3.39221 0
M  V30 604 H 54.1177 -0.350572 0.648281 0
M  V30 605 H 56.7597 -0.238259 1.885 0
M  V30 606 H 54.9097 -2.44507 3.01908 0
M  V30 607 H 56.5817 -0.367408 4.59835 0
M  V30 608 H 54.8247 -0.276276 4.32919 0
M  V30 609 H 55.4957 -1.60346 5.28198 0
M  V30 610 H 57.9717 -2.28287 3.47885 0
M  V30 611 H 56.8477 -3.3729 4.33044 0
M  V30 612 H 57.1087 -3.57212 2.60484 0
M  V30 613 N 56.1678 -1.49265 -0.50573 0
M  V30 614 C 57.3958 -1.62215 -1.28429 0
M  V30 615 C 57.8108 -0.291697 -1.86533 0
M  V30 616 O 57.1678 0.722233 -1.67601 0
M  V30 617 C 57.2188 -2.68735 -2.41793 0
M  V30 618 O 56.9398 -3.96619 -1.86078 0
M  V30 619 C 58.4408 -2.92346 -3.3324 0
M  V30 620 H 55.6608 -0.546239 -0.389697 0
M  V30 621 H 58.2048 -1.95265 -0.607609 0
M  V30 622 H 56.3598 -2.38476 -3.053 0
M  V30 623 H 56.7738 -4.55256 -2.60465 0
M  V30 624 H 58.2478 -3.70623 -4.09075 0
M  V30 625 H 58.7248 -2.02081 -3.89948 0
M  V30 626 H 59.3308 -3.24003 -2.75503 0
M  V30 627 N 57.6459 0.756429 -1.3826 0
M  V30 628 C 58.8939 1.51248 -1.34047 0
M  V30 629 C 59.2149 1.94875 0.0698372 0
M  V30 630 O 58.4849 1.67436 1.01696 0
M  V30 631 H 57.0649 0.561018 -0.493222 0
M  V30 632 H 59.7269 0.899347 -1.7291 0
M  V30 633 H 58.8229 2.40472 -1.98947 0
M  V30 634 N 59.124 1.23083 0.984299 0
M  V30 635 C 60.37 1.06214 1.72761 0
M  V30 636 C 60.703 -0.400584 1.90024 0
M  V30 637 O 59.978 -1.29672 1.44967 0
M  V30 638 C 60.261 1.78375 3.12817 0
M  V30 639 C 60.114 3.32296 3.03149 0
M  V30 640 C 61.433 1.54309 4.12161 0
M  V30 641 H 58.552 0.387251 0.627061 0
M  V30 642 H 61.194 1.51536 1.14616 0
M  V30 643 H 59.344 1.39848 3.62457 0
M  V30 644 H 61.016 3.8032 2.61064 0
M  V30 645 H 59.259 3.6153 2.39747 0
M  V30 646 H 59.93 3.77972 4.02295 0
M  V30 647 H 62.406 1.87791 3.71314 0
M  V30 648 H 61.282 2.07281 5.08258 0
M  V30 649 H 61.543 0.477572 4.39513 0
M  V30 650 N 60.6021 -1.18246 1.0419 0
M  V30 651 C 61.5321 -2.24127 0.654914 0
M  V30 652 C 62.5131 -1.66617 -0.342451 0
M  V30 653 O 63.6981 -1.92924 -0.222277 0
M  V30 654 C 60.8281 -3.47295 0.0183757 0
M  V30 655 C 59.7821 -4.17563 0.939414 0
M  V30 656 C 59.1081 -5.34438 0.167286 0
M  V30 657 C 60.4081 -4.70917 2.25908 0
M  V30 658 H 62.1021 -2.56753 1.54007 0
M  V30 659 H 59.6481 -1.23414 0.74195 0
M  V30 660 H 61.6011 -4.20572 -0.264082 0
M  V30 661 H 60.3251 -3.13907 -0.901664 0
M  V30 662 H 58.9841 -3.46186 1.20628 0
M  V30 663 H 58.6321 -4.97298 -0.7552 0
M  V30 664 H 58.3321 -5.82388 0.780901 0
M  V30 665 H 59.8561 -6.10504 -0.108125 0
M  V30 666 H 61.2701 -5.35882 2.03724 0
M  V30 667 H 59.6671 -5.29406 2.82577 0
M  V30 668 H 60.7371 -3.88272 2.9047 0
M  V30 669 N 62.0802 -0.821533 -1.34494 0
M  V30 670 C 63.3262 -0.409552 -1.98622 0
M  V30 671 C 63.6592 1.0244 -1.64984 0
M  V30 672 O 62.9342 1.71325 -0.920758 0
M  V30 673 C 63.2172 -0.610458 -3.54888 0
M  V30 674 C 63.0702 -2.09043 -3.98273 0
M  V30 675 C 64.3892 -0.0455379 -4.40076 0
M  V30 676 H 61.5082 -0.15028 -0.721516 0
M  V30 677 H 64.1502 -1.03384 -1.59411 0
M  V30 678 H 62.3002 -0.079044 -3.8842 0
M  V30 679 H 63.9722 -2.68537 -3.75081 0
M  V30 680 H 62.2152 -2.58139 -3.48635 0
M  V30 681 H 62.8862 -2.18182 -5.07051 0
M  V30 682 H 65.3622 -0.499557 -4.1309 0
M  V30 683 H 64.2382 -0.215922 -5.48475 0
M  V30 684 H 64.4992 1.04939 -4.29465 0
M  V30 685 N 63.5583 1.46682 -0.576371 0
M  V30 686 C 64.8043 2.02712 -0.0596221 0
M  V30 687 C 65.1373 1.44765 1.29448 0
M  V30 688 O 64.4123 0.610355 1.84675 0
M  V30 689 C 64.6953 3.60098 0.0129503 0
M  V30 690 C 64.5483 4.28441 -1.3696 0
M  V30 691 C 65.8673 4.34224 0.71678 0
M  V30 692 H 62.9863 0.736637 -0.0231407 0
M  V30 693 H 65.6283 1.74898 -0.742351 0
M  V30 694 H 63.7783 3.83926 0.594378 0
M  V30 695 H 65.4503 4.15896 -1.9957 0
M  V30 696 H 63.6933 3.8805 -1.93907 0
M  V30 697 H 64.3643 5.3716 -1.27135 0
M  V30 698 H 66.8403 4.15503 0.222908 0
M  V30 699 H 65.7163 5.43936 0.73657 0
M  V30 700 H 65.9773 4.04823 1.77682 0
M  V30 701 N 65.0364 0.313813 1.54444 0
M  V30 702 C 66.2644 -0.293918 2.04802 0
M  V30 703 C 66.6794 -1.46537 1.19047 0
M  V30 704 O 66.0364 -1.81182 0.218939 0
M  V30 705 C 66.0874 -0.737806 3.53891 0
M  V30 706 O 65.8084 0.387038 4.36387 0
M  V30 707 C 67.3094 -1.40936 4.203 0
M  V30 708 H 64.5294 -0.0620057 0.668129 0
M  V30 709 H 67.0734 0.457169 1.99324 0
M  V30 710 H 65.2284 -1.43889 3.59687 0
M  V30 711 H 65.6424 0.0391274 5.24485 0
M  V30 712 H 67.1164 -1.67099 5.26101 0
M  V30 713 H 67.5934 -2.35355 3.70816 0
M  V30 714 H 68.1994 -0.751117 4.18615 0
M  V30 715 N 66.5145 -1.57545 0.0417849 0
M  V30 716 C 67.7425 -1.96624 -0.643928 0
M  V30 717 C 68.1575 -0.918897 -1.64929 0
M  V30 718 O 67.5145 0.0979323 -1.82237 0
M  V30 719 C 67.5655 -3.35781 -1.33914 0
M  V30 720 O 67.2865 -4.365 -0.374048 0
M  V30 721 C 68.7875 -3.89566 -2.1155 0
M  V30 722 H 66.0075 -0.647316 -0.176702 0
M  V30 723 H 68.5515 -2.04229 0.105304 0
M  V30 724 H 66.7065 -3.29357 -2.03968 0
M  V30 725 H 67.1205 -5.17248 -0.869179 0
M  V30 726 H 68.5945 -4.89242 -2.55628 0
M  V30 727 H 69.0715 -3.24488 -2.9598 0
M  V30 728 H 69.6775 -3.99298 -1.46427 0
M  V30 729 N 67.9926 0.231505 -1.5589 0
M  V30 730 C 69.2386 0.954429 -1.79617 0
M  V30 731 C 69.5936 1.82367 -0.613199 0
M  V30 732 O 68.8866 1.87524 0.393094 0
M  V30 733 C 69.0806 1.83577 -3.0665 0
M  V30 734 C 68.9096 1.05334 -4.3719 0
M  V30 735 C 67.6796 0.75225 -4.99669 0
M  V30 736 C 69.8776 0.423444 -5.12554 0
M  V30 737 N 67.8596 -0.052627 -6.13877 0
M  V30 738 C 69.2306 -0.245287 -6.19515 0
M  V30 739 C 71.2856 0.335466 -4.96769 0
M  V30 740 C 69.9886 -0.993566 -7.12405 0
M  V30 741 C 72.0146 -0.399321 -5.9005 0
M  V30 742 C 71.3766 -1.05663 -6.9643 0
M  V30 743 H 67.4756 0.329846 -0.709031 0
M  V30 744 H 70.0596 0.226172 -1.93382 0
M  V30 745 H 68.2306 2.53592 -2.94186 0
M  V30 746 H 69.9626 2.49541 -3.18608 0
M  V30 747 H 66.7176 1.06783 -4.61405 0
M  V30 748 H 67.1416 -0.443609 -6.75545 0
M  V30 749 H 71.7836 0.829311 -4.14587 0
M  V30 750 H 69.5016 -1.49896 -7.94076 0
M  V30 751 H 73.0876 -0.468265 -5.79913 0
M  V30 752 H 71.9676 -1.61612 -7.67366 0
M  V30 753 N 69.4707 1.49531 0.497807 0
M  V30 754 C 70.4007 1.6935 1.60757 0
M  V30 755 C 71.3817 0.542218 1.61227 0
M  V30 756 O 72.5667 0.778417 1.77917 0
M  V30 757 C 69.6967 1.76298 2.99226 0
M  V30 758 C 68.6507 2.91248 3.13622 0
M  V30 759 C 67.9767 2.83312 4.53474 0
M  V30 760 C 69.2767 4.3214 2.93346 0
M  V30 761 H 70.9707 2.62263 1.44425 0
M  V30 762 H 68.5167 1.26208 0.693367 0
M  V30 763 H 70.4697 1.88749 3.76765 0
M  V30 764 H 69.1937 0.799871 3.16654 0
M  V30 765 H 67.8527 2.78404 2.38509 0
M  V30 766 H 67.5007 1.84902 4.67782 0
M  V30 767 H 67.2007 3.60465 4.64046 0
M  V30 768 H 68.7247 2.97775 5.33069 0
M  V30 769 H 70.1387 4.45649 3.60652 0
M  V30 770 H 68.5357 5.1054 3.15387 0
M  V30 771 H 69.6057 4.46363 1.89441 0
M  V30 772 N 70.9488 -0.749086 1.3866 0
M  V30 773 C 71.8788 -1.8764 1.38973 0
M  V30 774 C 72.8598 -1.68178 0.255004 0
M  V30 775 O 74.0448 -1.88704 0.458754 0
M  V30 776 C 71.1748 -3.25222 1.21851 0
M  V30 777 C 70.1288 -3.59295 2.32575 0
M  V30 778 C 69.4548 -4.95663 2.00555 0
M  V30 779 C 70.7548 -3.63709 3.7485 0
M  V30 780 H 72.4488 -1.87635 2.3331 0
M  V30 781 H 69.9948 -0.901329 1.12303 0
M  V30 782 H 71.9478 -4.03746 1.20695 0
M  V30 783 H 70.6718 -3.25719 0.239775 0
M  V30 784 H 69.3308 -2.83093 2.32925 0
M  V30 785 H 68.9788 -4.92724 1.01154 0
M  V30 786 H 68.6788 -5.19429 2.74714 0
M  V30 787 H 70.2028 -5.7656 2.01024 0
M  V30 788 H 71.6168 -4.32338 3.76506 0
M  V30 789 H 70.0138 -3.98986 4.48252 0
M  V30 790 H 71.0838 -2.63834 4.06841 0
M  V30 791 N 72.4269 -1.23603 -0.977757 0
M  V30 792 C 73.6519 -1.09735 -1.75991 0
M  V30 793 C 74.0769 0.346858 -1.84874 0
M  V30 794 O 73.4349 1.25093 -1.3123 0
M  V30 795 C 73.4829 -1.73051 -3.16363 0
M  V30 796 O 72.5869 -0.994452 -4.0023 0
M  V30 797 H 71.9279 -0.384476 -0.541364 0
M  V30 798 H 74.4579 -1.6371 -1.2272 0
M  V30 799 H 74.4679 -1.78398 -3.66931 0
M  V30 800 H 73.1429 -2.78137 -3.09213 0
M  V30 801 H 71.7199 -1.01812 -3.58732 0
M  V30 802 N 73.905 1.17692 -1.04816 0
M  V30 803 C 75.153 1.87488 -0.754497 0
M  V30 804 C 75.474 1.81205 0.720407 0
M  V30 805 O 74.744 1.23544 1.52032 0
M  V30 806 H 73.324 0.694101 -0.276102 0
M  V30 807 H 75.986 1.42793 -1.32651 0
M  V30 808 H 75.082 2.93328 -1.06606 0
M  V30 809 N 75.3831 0.828654 1.34056 0
M  V30 810 C 76.7991 0.515135 1.51058 0
M  V30 811 C 76.9991 -0.959581 1.77184 0
M  V30 812 O 76.0551 -1.74382 1.82612 0
M  V30 813 C 77.3681 1.37963 2.67183 0
M  V30 814 C 78.9161 1.37735 2.81066 0
M  V30 815 C 79.3911 2.22645 4.00241 0
M  V30 816 N 80.8821 2.203 4.07458 0
M  V30 817 C 81.6171 2.82744 4.98842 0
M  V30 818 N 81.1131 3.54201 5.9541 0
M  V30 819 N 82.9061 2.72268 4.91759 0
M  V30 820 H 75.0571 1.78343 1.15358 0
M  V30 821 H 77.3201 0.760304 0.566252 0
M  V30 822 H 77.0261 2.42714 2.54525 0
M  V30 823 H 76.9001 1.0484 3.62338 0
M  V30 824 H 79.2871 0.337593 2.93163 0
M  V30 825 H 79.3681 1.74859 1.86703 0
M  V30 826 H 79.0121 3.26674 3.88905 0
M  V30 827 H 78.9421 1.82869 4.93829 0
M  V30 828 H 81.4331 1.68327 3.38341 0
M  V30 829 H 81.7461 3.9908 6.61782 0
M  V30 830 H 80.0911 3.58308 5.95517 0
M  V30 831 H 83.2821 2.16014 4.15278 0
M  V30 832 H 83.4551 3.21219 5.62781 0
M  V30 833 N 76.8612 -1.46375 0.584142 0
M  V30 834 C 77.8242 -2.28784 -0.138108 0
M  V30 835 C 78.8242 -1.38471 -0.817462 0
M  V30 836 O 80.0142 -1.60833 -0.669199 0
M  V30 837 C 77.1462 -3.18892 -1.20503 0
M  V30 838 H 78.3392 -2.94117 0.586127 0
M  V30 839 H 75.8922 -1.52509 0.342171 0
M  V30 840 H 76.6272 -2.58309 -1.96079 0
M  V30 841 H 76.4122 -3.85388 -0.722384 0
M  V30 842 H 77.9022 -3.80914 -1.71155 0
M  V30 843 N 78.3393 -0.321999 -1.54275 0
M  V30 844 C 79.3023 0.531975 -2.22941 0
M  V30 845 C 80.3023 1.04478 -1.22234 0
M  V30 846 O 81.4923 0.937452 -1.46825 0
M  V30 847 C 78.6243 1.73874 -2.93224 0
M  V30 848 H 79.8173 -0.0682612 -2.99822 0
M  V30 849 H 77.3703 -0.0730644 -1.56129 0
M  V30 850 H 78.1053 2.37825 -2.20476 0
M  V30 851 H 77.8903 1.37847 -3.6707 0
M  V30 852 H 79.3803 2.34496 -3.45545 0
M  V30 853 N 79.8174 1.5752 -0.0501392 0
M  V30 854 C 81.0634 1.92936 0.624798 0
M  V30 855 C 81.3964 0.928685 1.70555 0
M  V30 856 O 80.6714 -0.0454779 1.94447 0
M  V30 857 C 80.9544 3.38737 1.22185 0
M  V30 858 C 80.8074 4.49552 0.149218 0
M  V30 859 C 82.1264 3.84913 2.13378 0
M  V30 860 H 79.2454 0.701604 0.225657 0
M  V30 861 H 81.8874 1.89671 -0.111693 0
M  V30 862 H 80.0374 3.4165 1.84953 0
M  V30 863 H 81.7094 4.58768 -0.482648 0
M  V30 864 H 79.9524 4.30638 -0.522841 0
M  V30 865 H 80.6234 5.48653 0.606966 0
M  V30 866 H 83.0994 3.8387 1.60572 0
M  V30 867 H 81.9754 4.87584 2.52097 0
M  V30 868 H 82.2364 3.21611 3.03346 0
M  V30 869 N 81.2955 -0.223234 1.56011 0
M  V30 870 C 82.5415 -0.949279 1.79211 0
M  V30 871 C 82.8745 -1.84054 0.619494 0
M  V30 872 O 82.1495 -1.90726 -0.381317 0
M  V30 873 C 82.4325 -1.78965 3.12479 0
M  V30 874 C 82.2855 -0.924997 4.40186 0
M  V30 875 C 83.6045 -2.76774 3.42175 0
M  V30 876 H 80.7235 -0.343676 0.651963 0
M  V30 877 H 83.3655 -0.218253 1.88742 0
M  V30 878 H 81.5155 -2.41291 3.04485 0
M  V30 879 H 83.1875 -0.318615 4.60198 0
M  V30 880 H 81.4305 -0.230344 4.33188 0
M  V30 881 H 82.1015 -1.54735 5.29869 0
M  V30 882 H 84.5775 -2.24584 3.50287 0
M  V30 883 H 83.4535 -3.32678 4.36597 0
M  V30 884 H 83.7145 -3.54429 2.64258 0
M  V30 885 N 82.7736 -1.49793 -0.48987 0
M  V30 886 C 84.1846 -1.52914 -1.07118 0
M  V30 887 C 84.5356 -0.321738 -1.93544 0
M  V30 888 O 83.6606 0.567338 -2.08831 0
M  V30 889 C 84.2556 -2.771 -1.94938 0
M  V30 890 C 82.8146 -2.82963 -2.48212 0
M  V30 891 C 81.9616 -2.46972 -1.26096 0
M  V30 892 H 84.9126 -1.56329 -0.273289 0
M  V30 893 H 84.9336 -2.57892 -2.79771 0
M  V30 894 H 84.4456 -3.64959 -1.32009 0
M  V30 895 H 82.5466 -1.99411 -3.14748 0
M  V30 896 H 82.6596 -3.85406 -2.84603 0
M  V30 897 H 81.0236 -1.98994 -1.58976 0
M  V30 898 H 81.8066 -3.37118 -0.648581 0
M  V30 899 N 84.2517 0.741722 -1.39055 0
M  V30 900 C 85.1817 1.869 -1.39966 0
M  V30 901 C 86.1627 1.6804 -0.26392 0
M  V30 902 O 87.3477 1.88458 -0.468755 0
M  V30 903 C 84.4777 3.24572 -1.23574 0
M  V30 904 C 83.4317 3.58056 -2.34477 0
M  V30 905 C 82.7577 4.94593 -2.0318 0
M  V30 906 C 84.0577 3.61716 -3.76774 0
M  V30 907 H 85.7517 1.86395 -2.34302 0
M  V30 908 H 83.2977 0.895361 -1.1278 0
M  V30 909 H 85.2507 4.031 -1.22834 0
M  V30 910 H 83.9747 3.25587 -0.257045 0
M  V30 911 H 82.6337 2.81854 -2.34423 0
M  V30 912 H 82.2817 4.92181 -1.03765 0
M  V30 913 H 81.9817 5.17964 -2.77465 0
M  V30 914 H 83.5057 5.75486 -2.04079 0
M  V30 915 H 84.9197 4.30335 -3.78794 0
M  V30 916 H 83.3167 3.96603 -4.50362 0
M  V30 917 H 84.3867 2.61672 -4.08235 0
M  V30 918 N 85.7298 1.2412 0.971189 0
M  V30 919 C 86.9778 1.07668 1.71032 0
M  V30 920 C 87.2988 -0.385797 1.91146 0
M  V30 921 O 86.5688 -1.27569 1.4867 0
M  V30 922 H 85.1488 0.395429 0.633755 0
M  V30 923 H 87.8108 1.55984 1.16855 0
M  V30 924 H 86.9068 1.57195 2.69622 0
M  V30 925 N 87.2079 -1.17134 1.05439 0
M  V30 926 C 88.4359 -1.91372 0.786414 0
M  V30 927 C 88.8509 -1.76955 -0.658202 0
M  V30 928 O 88.2079 -1.10838 -1.44987 0
M  V30 929 C 88.2589 -3.42356 1.1608 0
M  V30 930 O 87.9799 -3.56332 2.54871 0
M  V30 931 C 89.4809 -4.33663 0.919322 0
M  V30 932 H 86.7009 -0.607118 0.285743 0
M  V30 933 H 89.2449 -1.48525 1.40572 0
M  V30 934 H 87.3999 -3.82939 0.586191 0
M  V30 935 H 87.8139 -4.49896 2.69618 0
M  V30 936 H 89.2879 -5.38099 1.231 0
M  V30 937 H 89.7649 -4.38959 -0.145359 0
M  V30 938 H 90.3709 -3.98796 1.47789 0
M  V30 939 N 88.686 -0.835752 -1.33615 0
M  V30 940 C 89.932 -0.439817 -1.98588 0
M  V30 941 C 90.287 0.989274 -1.65019 0
M  V30 942 O 89.58 1.68168 -0.918159 0
M  V30 943 C 89.774 -0.593925 -3.52431 0
M  V30 944 C 89.603 -2.03644 -4.00948 0
M  V30 945 C 88.373 -2.67103 -4.28934 0
M  V30 946 C 90.571 -3.00479 -4.17393 0
M  V30 947 N 88.553 -4.02462 -4.6357 0
M  V30 948 C 89.924 -4.20777 -4.55353 0
M  V30 949 C 91.979 -2.96926 -3.99674 0
M  V30 950 C 90.682 -5.37994 -4.77447 0
M  V30 951 C 92.708 -4.1337 -4.22941 0
M  V30 952 C 92.07 -5.32422 -4.61201 0
M  V30 953 H 88.169 -0.209303 -0.75347 0
M  V30 954 H 90.753 -1.08316 -1.61789 0
M  V30 955 H 88.924 0.019599 -3.88395 0
M  V30 956 H 90.656 -0.169738 -4.04344 0
M  V30 957 H 87.411 -2.18259 -4.20309 0
M  V30 958 H 87.835 -4.72232 -4.85104 0
M  V30 959 H 92.477 -2.06015 -3.69212 0
M  V30 960 H 90.195 -6.29451 -5.06771 0
M  V30 961 H 93.781 -4.12034 -4.10754 0
M  V30 962 H 92.661 -6.21027 -4.78848 0
M  V30 963 N 90.1641 1.46063 -0.591896 0
M  V30 964 C 91.5801 1.57561 -0.254288 0
M  V30 965 C 91.7801 1.58565 1.24336 0
M  V30 966 O 90.8361 1.50753 2.02558 0
M  V30 967 C 92.1491 2.86549 -0.911611 0
M  V30 968 C 93.6971 3.00197 -0.886059 0
M  V30 969 C 94.1721 4.31933 -1.5231 0
M  V30 970 N 95.6631 4.38654 -1.48786 0
M  V30 971 C 96.3981 5.39222 -1.95006 0
M  V30 972 N 95.8941 6.46414 -2.49241 0
M  V30 973 N 97.6871 5.3048 -1.85868 0
M  V30 974 H 89.8381 1.43655 -1.56451 0
M  V30 975 H 92.1011 0.68583 -0.654478 0
M  V30 976 H 91.8071 2.91651 -1.96551 0
M  V30 977 H 91.6811 3.74794 -0.425368 0
M  V30 978 H 94.0681 2.9467 0.159246 0
M  V30 979 H 94.1491 2.13403 -1.41041 0
M  V30 980 H 93.7931 4.38217 -2.56765 0
M  V30 981 H 93.7231 5.17516 -0.973891 0
M  V30 982 H 96.2141 3.61793 -1.09151 0
M  V30 983 H 96.5271 7.19376 -2.82344 0
M  V30 984 H 94.8721 6.47208 -2.53272 0
M  V30 985 H 98.0631 4.45643 -1.43248 0
M  V30 986 H 98.2361 6.08711 -2.22204 0
M  V30 987 N 91.6422 0.330177 1.54103 0
M  V30 988 C 93.0582 -0.0222371 1.59585 0
M  V30 989 C 93.2582 -1.49902 1.34654 0
M  V30 990 O 92.3142 -2.25592 1.13421 0
M  V30 991 C 93.6272 0.401932 2.98002 0
M  V30 992 C 95.1752 0.353145 3.11001 0
M  V30 993 C 95.6502 0.752576 4.51775 0
M  V30 994 N 97.1412 0.706239 4.57784 0
M  V30 995 C 97.8762 0.987417 5.64834 0
M  V30 996 N 97.3722 1.33607 6.79795 0
M  V30 997 N 99.1652 0.91254 5.54643 0
M  V30 998 H 91.3162 1.29228 1.68564 0
M  V30 999 H 93.5792 0.525906 0.78875 0
M  V30 1000 H 93.2852 1.4311 3.21267 0
M  V30 1001 H 93.1592 -0.229699 3.765 0
M  V30 1002 H 95.5462 -0.666822 2.87467 0
M  V30 1003 H 95.6272 1.0198 2.34593 0
M  V30 1004 H 95.2712 1.77049 4.76042 0
M  V30 1005 H 95.2012 0.0635409 5.26562 0
M  V30 1006 H 97.6922 0.44889 3.75224 0
M  V30 1007 H 98.0052 1.53582 7.57385 0
M  V30 1008 H 96.3502 1.37439 6.81275 0
M  V30 1009 H 99.5412 0.639601 4.6371 0
M  V30 1010 H 99.7142 1.13503 6.37982 0
M  V30 1011 N 93.1203 -1.57491 0.0584922 0
M  V30 1012 C 94.0503 -2.14988 -0.911178 0
M  V30 1013 C 95.0313 -1.07343 -1.31952 0
M  V30 1014 O 96.2163 -1.35318 -1.39294 0
M  V30 1015 C 93.3463 -2.70078 -2.18347 0
M  V30 1016 C 92.3003 -3.82771 -1.91495 0
M  V30 1017 C 91.6263 -4.24408 -3.25241 0
M  V30 1018 C 92.9263 -5.07592 -1.23075 0
M  V30 1019 H 94.6203 -2.96263 -0.432246 0
M  V30 1020 H 92.1663 -1.42512 -0.206469 0
M  V30 1021 H 94.1193 -3.08943 -2.86587 0
M  V30 1022 H 92.8433 -1.86005 -2.68458 0
M  V30 1023 H 91.5023 -3.44389 -1.25664 0
M  V30 1024 H 91.1503 -3.37275 -3.73168 0
M  V30 1025 H 90.8503 -5.00366 -3.08071 0
M  V30 1026 H 92.3743 -4.65879 -3.94701 0
M  V30 1027 H 93.7883 -5.43857 -1.81362 0
M  V30 1028 H 92.1853 -5.88741 -1.16207 0
M  V30 1029 H 93.2553 -4.84454 -0.207847 0
M  V30 1030 N 94.5984 0.214957 -1.56127 0
M  V30 1031 C 95.8234 0.95924 -1.83884 0
M  V30 1032 C 96.2484 1.7689 -0.639644 0
M  V30 1033 O 95.6064 1.76566 0.411601 0
M  V30 1034 C 95.6544 1.84723 -3.09693 0
M  V30 1035 O 94.7584 2.94346 -2.8885 0
M  V30 1036 H 94.0994 0.27125 -0.606069 0
M  V30 1037 H 96.6294 0.226276 -2.03345 0
M  V30 1038 H 96.6394 2.25576 -3.39969 0
M  V30 1039 H 95.3144 1.25218 -3.96602 0
M  V30 1040 H 93.8914 2.57391 -2.69823 0
M  V30 1041 N 96.0765 1.50051 0.48192 0
M  V30 1042 C 97.0065 1.71046 1.58951 0
M  V30 1043 C 97.9875 0.559288 1.60642 0
M  V30 1044 O 99.1725 0.797243 1.77081 0
M  V30 1045 C 96.3025 1.79462 2.97339 0
M  V30 1046 C 95.2565 2.94558 3.10515 0
M  V30 1047 C 94.5825 2.88105 4.50444 0
M  V30 1048 C 95.8825 4.35227 2.88747 0
M  V30 1049 H 97.5765 2.6378 1.41635 0
M  V30 1050 H 95.1225 1.26936 0.679942 0
M  V30 1051 H 97.0755 1.92734 3.74742 0
M  V30 1052 H 95.7995 0.833412 3.15788 0
M  V30 1053 H 94.4585 2.80918 2.35543 0
M  V30 1054 H 94.1065 1.89853 4.65795 0
M  V30 1055 H 93.8065 3.65366 4.60197 0
M  V30 1056 H 95.3305 3.03412 5.29881 0
M  V30 1057 H 96.7445 4.49449 3.55905 0
M  V30 1058 H 95.1415 5.13856 3.09955 0
M  V30 1059 H 96.2115 4.48347 1.84696 0
M  V30 1060 N 97.5546 -0.734337 1.39446 0
M  V30 1061 C 98.7946 -1.50655 1.38139 0
M  V30 1062 C 99.1586 -1.91986 -0.0228701 0
M  V30 1063 O 100.36 -2.68318 -0.160947 0
M  V30 1064 C 98.6306 -2.71251 2.32718 0
M  V30 1065 S 100.19 -3.60892 2.49605 0
M  V30 1066 H 97.0076 -0.515315 0.489869 0
M  V30 1067 H 99.6096 -0.860392 1.75549 0
M  V30 1068 H 98.3136 -2.39027 3.33608 0
M  V30 1069 H 97.8446 -3.40795 1.96526 0
M  V30 1070 H 99.8596 -4.64899 1.73446 0
M  V30 1071 N 99.0327 -1.24633 -0.964593 0
M  V30 1072 C 100.279 -1.09957 -1.71117 0
M  V30 1073 C 100.634 0.357422 -1.89051 0
M  V30 1074 O 99.9267 1.26029 -1.44317 0
M  V30 1075 C 100.121 -1.7763 -3.10133 0
M  V30 1076 C 99.9497 -3.29759 -3.05759 0
M  V30 1077 C 98.7197 -3.98981 -3.10068 0
M  V30 1078 C 100.918 -4.26305 -2.87695 0
M  V30 1079 N 98.8997 -5.37966 -2.95747 0
M  V30 1080 C 100.271 -5.52308 -2.81702 0
M  V30 1081 C 102.326 -4.16842 -2.72299 0
M  V30 1082 C 101.029 -6.69931 -2.61887 0
M  V30 1083 C 103.055 -5.34147 -2.53853 0
M  V30 1084 C 102.417 -6.59084 -2.48572 0
M  V30 1085 H 98.5157 -0.457003 -0.634564 0
M  V30 1086 H 101.1 -1.57592 -1.14337 0
M  V30 1087 H 99.2707 -1.32504 -3.65099 0
M  V30 1088 H 101.003 -1.55786 -3.73514 0
M  V30 1089 H 97.7577 -3.50169 -3.18871 0
M  V30 1090 H 98.1817 -6.10877 -2.91818 0
M  V30 1091 H 102.824 -3.21007 -2.75163 0
M  V30 1092 H 100.542 -7.65886 -2.57767 0
M  V30 1093 H 104.128 -5.28678 -2.4288 0
M  V30 1094 H 103.008 -7.48324 -2.34481 0
M  V30 1095 N 100.511 1.16574 -1.06058 0
M  V30 1096 C 101.758 1.87047 -0.775873 0
M  V30 1097 C 102.086 1.81562 0.697534 0
M  V30 1098 O 101.341 1.22445 1.52662 0
M  V30 1099 C 101.64 3.36195 -1.21275 0
M  V30 1100 C 101.306 3.6188 -2.68986 0
M  V30 1101 C 99.9678 3.68599 -3.09335 0
M  V30 1102 C 102.32 3.72648 -3.64394 0
M  V30 1103 C 99.6478 3.83584 -4.43937 0
M  V30 1104 C 102 3.89154 -4.98741 0
M  V30 1105 C 100.664 3.94114 -5.3873 0
M  V30 1106 H 99.9338 0.684452 -0.283912 0
M  V30 1107 H 102.581 1.37853 -1.32925 0
M  V30 1108 H 100.886 3.87505 -0.578528 0
M  V30 1109 H 102.583 3.89103 -0.969542 0
M  V30 1110 H 99.1728 3.57281 -2.36744 0
M  V30 1111 H 103.357 3.66769 -3.34356 0
M  V30 1112 H 98.6128 3.85677 -4.74409 0
M  V30 1113 H 102.787 3.96427 -5.72554 0
M  V30 1114 H 100.414 4.05478 -6.43033 0
M  V30 1115 N 101.989 0.842826 1.3317 0
M  V30 1116 C 102.952 0.284065 2.27433 0
M  V30 1117 C 103.952 -0.54948 1.5112 0
M  V30 1118 O 105.142 -0.362699 1.70382 0
M  V30 1119 C 102.274 -0.599384 3.35589 0
M  V30 1120 H 103.467 1.11589 2.78366 0
M  V30 1121 H 101.02 0.616221 1.4364 0
M  V30 1122 H 101.755 -1.45349 2.89904 0
M  V30 1123 H 101.54 -0.00291266 3.921 0
M  V30 1124 H 103.03 -0.983488 4.05854 0
M  V30 1125 N 103.467 -1.45747 0.599634 0
M  V30 1126 C 104.713 -2.02592 0.0918643 0
M  V30 1127 C 105.046 -1.46806 -1.27128 0
M  V30 1128 O 104.321 -0.639658 -1.83681 0
M  V30 1129 C 104.604 -3.60073 0.0443398 0
M  V30 1130 C 104.457 -4.26208 1.43759 0
M  V30 1131 C 105.776 -4.35309 -0.647608 0
M  V30 1132 H 102.895 -0.736175 0.034857 0
M  V30 1133 H 105.537 -1.73694 0.770081 0
M  V30 1134 H 103.687 -3.84823 -0.533224 0
M  V30 1135 H 105.359 -4.12668 2.06162 0
M  V30 1136 H 103.602 -3.84916 2.00056 0
M  V30 1137 H 104.273 -5.35069 1.35665 0
M  V30 1138 H 106.749 -4.15805 -0.156776 0
M  V30 1139 H 105.625 -5.45038 -0.649942 0
M  V30 1140 H 105.886 -4.07598 -1.71219 0
M  V30 1141 N 104.945 -0.338344 -1.53925 0
M  V30 1142 C 106.185 0.260168 -2.02737 0
M  V30 1143 C 106.549 1.48181 -1.22092 0
M  V30 1144 O 107.75 2.15416 -1.60777 0
M  V30 1145 C 106.021 0.571627 -3.52799 0
M  V30 1146 S 107.58 1.14769 -4.23525 0
M  V30 1147 H 104.398 0.077791 -0.706732 0
M  V30 1148 H 107 -0.474899 -1.89644 0
M  V30 1149 H 105.704 -0.325392 -4.09108 0
M  V30 1150 H 105.235 1.3365 -3.70002 0
M  V30 1151 H 107.25 2.43372 -4.32417 0
M  V30 1152 N 106.423 1.57458 -0.0668435 0
M  V30 1153 C 107.671 1.92919 0.602214 0
M  V30 1154 C 107.992 0.947215 1.70449 0
M  V30 1155 O 107.262 -0.00544117 1.95899 0
M  V30 1156 H 105.842 0.71217 0.22544 0
M  V30 1157 H 108.504 1.94508 -0.123535 0
M  V30 1158 H 107.6 2.94589 1.03073 0
M  V30 1159 N 107.901 -0.206675 1.56239 0
M  V30 1160 C 109.148 -0.928842 1.79941 0
M  V30 1161 C 109.476 -1.83734 0.638131 0
M  V30 1162 O 108.731 -1.92039 -0.376746 0
M  V30 1163 C 109.03 -1.78675 3.09532 0
M  V30 1164 C 108.696 -1.03022 4.38973 0
M  V30 1165 C 107.358 -0.821302 4.74139 0
M  V30 1166 C 109.71 -0.497081 5.18824 0
M  V30 1167 C 107.038 -0.0675719 5.86661 0
M  V30 1168 C 109.39 0.24338 6.32132 0
M  V30 1169 C 108.054 0.463422 6.65889 0
M  V30 1170 H 107.324 -0.339887 0.658451 0
M  V30 1171 H 109.971 -0.195977 1.90495 0
M  V30 1172 H 108.276 -2.58794 2.94165 0
M  V30 1173 H 109.973 -2.34792 3.25075 0
M  V30 1174 H 106.563 -1.20306 4.11369 0
M  V30 1175 H 110.747 -0.645921 4.92079 0
M  V30 1176 H 106.003 0.112995 6.11296 0
M  V30 1177 H 110.177 0.66393 6.93228 0
M  V30 1178 H 107.804 1.04938 7.52922 0
M  V30 1179 N 109.379 -1.50304 -0.473955 0
M  V30 1180 C 110.628 -1.60392 -1.22301 0
M  V30 1181 C 110.941 -0.308411 -1.93153 0
M  V30 1182 O 112.147 -0.288156 -2.69966 0
M  V30 1183 C 110.603 -2.83109 -2.2221 0
M  V30 1184 C 110.211 -4.19524 -1.57173 0
M  V30 1185 C 111.955 -3.0254 -2.97775 0
M  V30 1186 C 109.862 -5.33431 -2.55353 0
M  V30 1187 H 108.792 -0.597286 -0.460179 0
M  V30 1188 H 111.443 -1.76731 -0.493803 0
M  V30 1189 H 109.825 -2.60322 -2.9841 0
M  V30 1190 H 110.999 -4.52554 -0.867824 0
M  V30 1191 H 109.314 -4.05674 -0.939002 0
M  V30 1192 H 111.911 -3.84811 -3.71248 0
M  V30 1193 H 112.254 -2.14154 -3.56992 0
M  V30 1194 H 112.787 -3.25494 -2.28688 0
M  V30 1195 H 109.526 -6.23962 -2.00878 0
M  V30 1196 H 109.046 -5.04823 -3.23904 0
M  V30 1197 H 110.725 -5.63887 -3.17239 0
M  V30 1198 N 110.857 0.726932 -1.39834 0
M  V30 1199 C 111.807 1.83232 -1.35683 0
M  V30 1200 C 112.791 1.59155 -0.236295 0
M  V30 1201 O 113.983 1.70522 -0.474488 0
M  V30 1202 C 111.112 3.21246 -1.21062 0
M  V30 1203 C 110.198 3.51125 -2.37849 0
M  V30 1204 N 110.589 3.51889 -3.63329 0
M  V30 1205 C 108.887 3.81527 -2.30982 0
M  V30 1206 C 109.588 3.79791 -4.40606 0
M  V30 1207 N 108.564 3.97971 -3.70297 0
M  V30 1208 H 112.366 1.8214 -2.30656 0
M  V30 1209 H 109.88 0.925545 -1.33444 0
M  V30 1210 H 111.877 4.00387 -1.16171 0
M  V30 1211 H 110.537 3.23572 -0.270458 0
M  V30 1212 H 111.548 3.33008 -3.96643 0
M  V30 1213 H 108.225 3.91411 -1.45272 0
M  V30 1214 H 109.615 3.86783 -5.49408 0
M  V30 1215 N 112.336 1.25143 0.95797 0
M  V30 1216 C 113.266 1.07711 2.07173 0
M  V30 1217 C 114.247 -0.0128462 1.70095 0
M  V30 1218 O 115.432 0.156061 1.93572 0
M  V30 1219 C 112.562 0.691503 3.40346 0
M  V30 1220 C 111.516 1.73132 3.9142 0
M  V30 1221 C 110.842 1.20049 5.21049 0
M  V30 1222 C 112.142 3.1294 4.1817 0
M  V30 1223 H 113.836 2.00873 2.22014 0
M  V30 1224 H 111.382 0.967191 1.06684 0
M  V30 1225 H 113.335 0.556505 4.17709 0
M  V30 1226 H 112.059 -0.275819 3.25433 0
M  V30 1227 H 110.718 1.8547 3.16222 0
M  V30 1228 H 110.366 0.223499 5.02503 0
M  V30 1229 H 110.066 1.89545 5.56189 0
M  V30 1230 H 111.59 1.07782 6.01012 0
M  V30 1231 H 113.004 3.03775 4.86203 0
M  V30 1232 H 111.401 3.79875 4.64559 0
M  V30 1233 H 112.471 3.6025 3.24573 0
M  V30 1234 N 113.814 -1.1601 1.06675 0
M  V30 1235 C 115.06 -1.86909 0.786945 0
M  V30 1236 C 115.393 -1.81717 -0.685018 0
M  V30 1237 O 114.668 -1.23551 -1.50218 0
M  V30 1238 C 114.951 -3.36313 1.28707 0
M  V30 1239 C 114.804 -3.50175 2.82308 0
M  V30 1240 C 116.123 -4.3084 0.898071 0
M  V30 1241 H 113.242 -0.678677 0.287343 0
M  V30 1242 H 115.884 -1.36336 1.32334 0
M  V30 1243 H 114.034 -3.79513 0.830768 0
M  V30 1244 H 115.706 -3.15886 3.36175 0
M  V30 1245 H 113.949 -2.91959 3.20847 0
M  V30 1246 H 114.62 -4.55116 3.12368 0
M  V30 1247 H 117.096 -3.95561 1.29114 0
M  V30 1248 H 115.972 -5.33876 1.27543 0
M  V30 1249 H 116.233 -4.41662 -0.196651 0
M  V30 1250 N 115.292 -0.849877 -1.32721 0
M  V30 1251 C 116.541 -0.447175 -1.96681 0
M  V30 1252 C 116.854 1.00135 -1.68025 0
M  V30 1253 O 118.06 1.50926 -2.25685 0
M  V30 1254 C 116.516 -0.7487 -3.52026 0
M  V30 1255 C 116.124 -2.21264 -3.89546 0
M  V30 1256 C 117.868 -0.413487 -4.22481 0
M  V30 1257 C 115.775 -2.45763 -5.37917 0
M  V30 1258 H 114.705 -0.163486 -0.736063 0
M  V30 1259 H 117.356 -1.03999 -1.51183 0
M  V30 1260 H 115.738 -0.0853727 -3.95908 0
M  V30 1261 H 116.912 -2.91736 -3.56689 0
M  V30 1262 H 115.227 -2.5119 -3.32103 0
M  V30 1263 H 117.824 -0.574017 -5.3161 0
M  V30 1264 H 118.167 0.644492 -4.11281 0
M  V30 1265 H 118.7 -1.03251 -3.84167 0
M  V30 1266 H 115.439 -3.50168 -5.54132 0
M  V30 1267 H 114.959 -1.79864 -5.72197 0
M  V30 1268 H 116.638 -2.29471 -6.0494 0
M  V30 1269 N 116.77 1.45427 -0.607355 0
M  V30 1270 C 117.68 2.34325 0.113463 0
M  V30 1271 C 118.696 1.51226 0.860617 0
M  V30 1272 O 119.872 1.84029 0.818255 0
M  V30 1273 C 116.937 3.28839 1.09844 0
M  V30 1274 C 115.998 4.27844 0.353271 0
M  V30 1275 C 115.231 5.17842 1.29133 0
M  V30 1276 O 115.454 5.11264 2.52913 0
M  V30 1277 O 114.388 5.96713 0.788523 0
M  V30 1278 H 118.214 2.97364 -0.617094 0
M  V30 1279 H 115.799 1.44807 -0.367619 0
M  V30 1280 H 117.681 3.8708 1.66575 0
M  V30 1281 H 116.356 2.68365 1.81003 0
M  V30 1282 H 115.263 3.7322 -0.256494 0
M  V30 1283 H 116.596 4.91173 -0.317822 0
M  V30 1284 N 118.248 0.346503 1.53744 0
M  V30 1285 C 119.496 -0.248612 2.00565 0
M  V30 1286 C 119.817 -1.5083 1.23593 0
M  V30 1287 O 119.087 -1.92858 0.343912 0
M  V30 1288 H 117.667 -0.0948564 0.740953 0
M  V30 1289 H 120.329 0.468341 1.89189 0
M  V30 1290 H 119.425 -0.488994 3.08245 0
M  V30 1291 N 119.726 -1.57421 0.075193 0
M  V30 1292 C 120.972 -1.94716 -0.587998 0
M  V30 1293 C 121.327 -0.955205 -1.67014 0
M  V30 1294 O 120.62 0.0219842 -1.91587 0
M  V30 1295 C 120.814 -3.36428 -1.20626 0
M  V30 1296 C 120.643 -4.49317 -0.185541 0
M  V30 1297 C 119.413 -5.04772 0.23099 0
M  V30 1298 C 121.611 -5.11036 0.57854 0
M  V30 1299 N 119.593 -6.01204 1.24206 0
M  V30 1300 C 120.964 -6.02998 1.44199 0
M  V30 1301 C 123.019 -4.93844 0.634237 0
M  V30 1302 C 121.722 -6.79614 2.3562 0
M  V30 1303 C 123.748 -5.71106 1.53597 0
M  V30 1304 C 123.11 -6.6272 2.38709 0
M  V30 1305 H 119.209 -0.759536 -0.186089 0
M  V30 1306 H 121.793 -1.94097 0.153128 0
M  V30 1307 H 119.964 -3.37778 -1.9173 0
M  V30 1308 H 121.696 -3.60951 -1.8302 0
M  V30 1309 H 118.451 -4.73353 -0.152807 0
M  V30 1310 H 118.875 -6.54119 1.74521 0
M  V30 1311 H 123.517 -4.22799 -0.00960004 0
M  V30 1312 H 121.235 -7.49934 3.01038 0
M  V30 1313 H 124.821 -5.59824 1.58394 0
M  V30 1314 H 123.701 -7.2146 3.07352 0
M  V30 1315 N 121.204 0.198386 -1.56346 0
M  V30 1316 C 122.451 0.919286 -1.80431 0
M  V30 1317 C 122.779 1.83393 -0.647866 0
M  V30 1318 O 122.034 1.92236 0.366556 0
M  V30 1319 C 122.333 1.77031 -3.10475 0
M  V30 1320 C 121.999 1.00693 -4.39513 0
M  V30 1321 C 120.661 0.796145 -4.74568 0
M  V30 1322 C 123.013 0.469559 -5.19081 0
M  V30 1323 C 120.341 0.0364588 -5.86689 0
M  V30 1324 C 122.693 -0.2769 -6.31994 0
M  V30 1325 C 121.357 -0.49873 -6.65634 0
M  V30 1326 H 120.627 0.336391 -0.660244 0
M  V30 1327 H 123.274 0.185872 -1.90596 0
M  V30 1328 H 121.579 2.5723 -2.95533 0
M  V30 1329 H 123.276 2.33065 -3.26315 0
M  V30 1330 H 119.866 1.18122 -4.12001 0
M  V30 1331 H 124.05 0.619816 -4.92414 0
M  V30 1332 H 119.306 -0.145412 -6.11227 0
M  V30 1333 H 123.48 -0.700684 -6.92866 0
M  V30 1334 H 121.107 -1.0893 -7.52355 0
M  V30 1335 N 122.682 1.50554 0.465978 0
M  V30 1336 C 123.928 1.62038 1.21949 0
M  V30 1337 C 124.261 0.322116 1.9151 0
M  V30 1338 O 123.536 -0.676723 1.82348 0
M  V30 1339 C 123.819 2.80421 2.25912 0
M  V30 1340 C 123.672 4.20144 1.60622 0
M  V30 1341 C 124.991 2.94354 3.27176 0
M  V30 1342 H 122.11 0.589752 0.441998 0
M  V30 1343 H 124.752 1.82956 0.51257 0
M  V30 1344 H 122.902 2.62717 2.86203 0
M  V30 1345 H 124.574 4.49449 1.03889 0
M  V30 1346 H 122.817 4.24165 0.909211 0
M  V30 1347 H 123.488 4.98914 2.36196 0
M  V30 1348 H 125.964 3.10578 2.76913 0
M  V30 1349 H 124.84 3.788 3.97242 0
M  V30 1350 H 125.101 2.05186 3.916 0
M  V30 1351 N 124.16 -0.719506 1.40217 0
M  V30 1352 C 125.09 -1.8465 1.42922 0
M  V30 1353 C 126.071 -1.67599 0.29062 0
M  V30 1354 O 127.256 -1.87688 0.498677 0
M  V30 1355 C 124.386 -3.22565 1.28722 0
M  V30 1356 C 123.34 -3.54281 2.40144 0
M  V30 1357 C 122.666 -4.91298 2.11023 0
M  V30 1358 C 123.966 -3.55676 3.82481 0
M  V30 1359 H 125.66 -1.82644 2.37237 0
M  V30 1360 H 123.206 -0.877305 1.1419 0
M  V30 1361 H 125.159 -4.01095 1.29232 0
M  V30 1362 H 123.883 -3.25137 0.308811 0
M  V30 1363 H 122.542 -2.78088 2.38877 0
M  V30 1364 H 122.19 -4.90468 1.11582 0
M  V30 1365 H 121.89 -5.13485 2.8567 0
M  V30 1366 H 123.414 -5.72166 2.13209 0
M  V30 1367 H 124.828 -4.24254 3.85592 0
M  V30 1368 H 123.225 -3.89388 4.56614 0
M  V30 1369 H 124.295 -2.55144 4.12346 0
M  V30 1370 N 125.638 -1.25649 -0.95132 0
M  V30 1371 C 126.868 -1.13179 -1.72841 0
M  V30 1372 C 127.276 0.316827 -1.86528 0
M  V30 1373 O 126.619 1.22948 -1.3649 0
M  V30 1374 C 126.681 -1.71644 -3.15878 0
M  V30 1375 C 126.345 -3.20667 -3.25609 0
M  V30 1376 C 127.342 -4.17616 -3.09666 0
M  V30 1377 C 125.027 -3.6094 -3.49324 0
M  V30 1378 C 127.021 -5.52817 -3.17289 0
M  V30 1379 C 124.708 -4.96278 -3.56584 0
M  V30 1380 C 125.706 -5.92025 -3.40581 0
M  V30 1381 O 125.394 -7.24899 -3.47528 0
M  V30 1382 H 125.126 -0.395389 -0.54831 0
M  V30 1383 H 127.68 -1.66566 -1.20187 0
M  V30 1384 H 125.91 -1.12707 -3.69911 0
M  V30 1385 H 127.599 -1.54225 -3.75459 0
M  V30 1386 H 128.365 -3.87842 -2.91211 0
M  V30 1387 H 124.244 -2.86907 -3.6084 0
M  V30 1388 H 127.788 -6.2753 -3.04716 0
M  V30 1389 H 123.685 -5.25716 -3.74556 0
M  V30 1390 H 124.453 -7.33039 -3.64138 0
M  V30 1391 N 127.117 1.15442 -1.07289 0
M  V30 1392 C 128.347 1.89821 -0.815576 0
M  V30 1393 C 128.755 1.7823 0.634867 0
M  V30 1394 O 128.098 1.13152 1.44715 0
M  V30 1395 C 128.16 3.40817 -1.14385 0
M  V30 1396 C 127.824 3.76193 -2.59476 0
M  V30 1397 C 128.821 3.77269 -3.57721 0
M  V30 1398 C 126.506 4.0652 -2.95037 0
M  V30 1399 C 128.5 4.08176 -4.89562 0
M  V30 1400 C 126.187 4.37092 -4.27076 0
M  V30 1401 C 127.185 4.37902 -5.24148 0
M  V30 1402 O 126.873 4.67741 -6.53815 0
M  V30 1403 H 126.605 0.608465 -0.294528 0
M  V30 1404 H 129.159 1.472 -1.43252 0
M  V30 1405 H 127.389 3.83835 -0.469865 0
M  V30 1406 H 129.078 3.96485 -0.869179 0
M  V30 1407 H 129.844 3.5394 -3.3159 0
M  V30 1408 H 125.723 4.05049 -2.20128 0
M  V30 1409 H 129.267 4.08723 -5.65324 0
M  V30 1410 H 125.164 4.59889 -4.5296 0
M  V30 1411 H 125.932 4.85509 -6.58957 0
M  V30 1412 N 128.595 0.856903 1.32268 0
M  V30 1413 C 129.505 0.306131 2.32594 0
M  V30 1414 C 130.521 -0.577209 1.64147 0
M  V30 1415 O 131.697 -0.477043 1.95669 0
M  V30 1416 C 128.762 -0.494561 3.43154 0
M  V30 1417 C 127.823 0.415186 4.27288 0
M  V30 1418 C 127.056 -0.347387 5.32568 0
M  V30 1419 O 127.279 -1.57708 5.48165 0
M  V30 1420 O 126.213 0.287982 6.01211 0
M  V30 1421 H 130.039 1.13737 2.81598 0
M  V30 1422 H 127.624 0.619902 1.35932 0
M  V30 1423 H 129.506 -0.948944 4.10576 0
M  V30 1424 H 128.181 -1.30257 2.96336 0
M  V30 1425 H 127.088 0.917793 3.62667 0
M  V30 1426 H 128.421 1.18844 4.77637 0
M  V30 1427 N 130.073 -1.45103 0.615059 0
M  V30 1428 C 131.35 -1.95549 0.0448276 0
M  V30 1429 C 131.73 -1.55737 -1.4251 0
M  V30 1430 O 131.078 -0.823556 -2.13143 0
M  V30 1431 C 131.288 -3.48098 0.250785 0
M  V30 1432 C 132.636 -4.24384 0.135509 0
M  V30 1433 O 133.66 -3.55738 0.181299 0
M  V30 1434 O 132.519 -5.46493 0.0268878 0
M  V30 1435 H 129.613 -0.8264 -0.0314845 0
M  V30 1436 H 132.159 -1.55232 0.685642 0
M  V30 1437 H 130.931 -3.7007 1.27139 0
M  V30 1438 H 130.554 -3.95323 -0.424937 0
M  V30 1439 N 131.551 -0.354651 -1.53558 0
M  V30 1440 C 132.481 0.489091 -2.2832 0
M  V30 1441 C 133.462 1.09324 -1.30316 0
M  V30 1442 O 134.647 1.11255 -1.59173 0
M  V30 1443 C 131.777 1.63456 -3.0643 0
M  V30 1444 C 130.731 1.1582 -4.12031 0
M  V30 1445 C 130.057 2.39305 -4.7816 0
M  V30 1446 C 131.357 0.250731 -5.21698 0
M  V30 1447 H 133.051 -0.134614 -2.99097 0
M  V30 1448 H 130.597 -0.0661826 -1.43848 0
M  V30 1449 H 132.55 2.23136 -3.57475 0
M  V30 1450 H 131.274 2.28533 -2.33325 0
M  V30 1451 H 129.933 0.584146 -3.61916 0
M  V30 1452 H 129.581 3.02814 -4.01637 0
M  V30 1453 H 129.281 2.08109 -5.49513 0
M  V30 1454 H 130.805 2.99691 -5.31994 0
M  V30 1455 H 132.219 0.754695 -5.68311 0
M  V30 1456 H 130.616 0.0301468 -6.00092 0
M  V30 1457 H 131.686 -0.710125 -4.79672 0
M  V30 1458 N 133.029 1.57378 -0.0835403 0
M  V30 1459 C 133.959 2.1641 0.87686 0
M  V30 1460 C 134.94 1.09429 1.30228 0
M  V30 1461 O 136.125 1.37516 1.37124 0
M  V30 1462 C 133.255 2.73517 2.14022 0
M  V30 1463 C 132.209 3.85769 1.85381 0
M  V30 1464 C 131.535 4.29529 3.18448 0
M  V30 1465 C 132.835 5.09486 1.14984 0
M  V30 1466 H 134.529 2.96914 0.385059 0
M  V30 1467 H 132.075 1.42823 0.18377 0
M  V30 1468 H 134.028 3.13463 2.81636 0
M  V30 1469 H 132.752 1.90252 2.65465 0
M  V30 1470 H 131.411 3.46345 1.20169 0
M  V30 1471 H 131.059 3.43169 3.67755 0
M  V30 1472 H 130.759 5.05204 3.00071 0
M  V30 1473 H 132.283 4.72099 3.8724 0
M  V30 1474 H 133.697 5.46674 1.72687 0
M  V30 1475 H 132.094 5.90515 1.06826 0
M  V30 1476 H 133.164 4.84724 0.130749 0
M  V30 1477 N 134.507 -0.190092 1.56449 0
M  V30 1478 C 135.755 -0.907908 1.80559 0
M  V30 1479 C 136.076 -1.83583 0.657438 0
M  V30 1480 O 135.346 -1.93203 -0.323924 0
M  V30 1481 H 133.926 -0.338247 0.666032 0
M  V30 1482 H 136.588 -0.194403 1.93928 0
M  V30 1483 H 135.684 -1.49604 2.73907 0
M  V30 1484 N 135.985 -1.50799 -0.457987 0
M  V30 1485 C 137.262 -1.52968 -1.21902 0
M  V30 1486 C 137.642 -0.281906 -2.09209 0
M  V30 1487 O 136.99 0.734076 -2.16388 0
M  V30 1488 C 137.2 -2.8326 -2.03875 0
M  V30 1489 C 138.548 -3.34425 -2.6162 0
M  V30 1490 O 139.572 -2.8467 -2.14106 0
M  V30 1491 O 138.431 -4.21188 -3.48228 0
M  V30 1492 H 135.525 -0.614129 -0.553873 0
M  V30 1493 H 138.071 -1.63098 -0.468739 0
M  V30 1494 H 136.843 -3.65543 -1.39621 0
M  V30 1495 H 136.466 -2.76195 -2.8601 0
M  V30 1496 N 137.463 0.71206 -1.40597 0
M  V30 1497 C 138.395 1.83704 -1.37061 0
M  V30 1498 C 139.408 1.60453 -0.275426 0
M  V30 1499 O 140.597 1.70262 -0.53602 0
M  V30 1500 C 137.697 3.20172 -1.11099 0
M  V30 1501 C 136.87 3.7059 -2.3234 0
M  V30 1502 C 135.929 4.85681 -2.02485 0
M  V30 1503 O 134.955 4.9815 -2.75382 0
M  V30 1504 N 136.157 5.71735 -1.00497 0
M  V30 1505 H 138.922 1.87235 -2.34016 0
M  V30 1506 H 136.483 0.893739 -1.34996 0
M  V30 1507 H 138.475 3.94768 -0.891064 0
M  V30 1508 H 137.045 3.11767 -0.227989 0
M  V30 1509 H 136.265 2.87085 -2.7014 0
M  V30 1510 H 137.553 4.01011 -3.13157 0
M  V30 1511 H 136.951 5.64275 -0.401298 0
M  V30 1512 H 135.508 6.463 -0.844942 0
M  V30 1513 N 138.941 1.26152 0.944643 0
M  V30 1514 C 139.904 1.07474 2.0244 0
M  V30 1515 C 140.904 0.0242064 1.60782 0
M  V30 1516 O 142.094 0.267302 1.72137 0
M  V30 1517 C 139.226 0.633956 3.34953 0
M  V30 1518 H 140.419 2.03336 2.20442 0
M  V30 1519 H 137.972 1.087 1.12312 0
M  V30 1520 H 138.707 -0.326811 3.22649 0
M  V30 1521 H 138.492 1.39247 3.66542 0
M  V30 1522 H 139.982 0.52501 4.14287 0
M  V30 1523 N 140.419 -1.14872 1.07899 0
M  V30 1524 C 141.666 -1.85789 0.805532 0
M  V30 1525 C 141.994 -1.82649 -0.668561 0
M  V30 1526 O 141.249 -1.24858 -1.50695 0
M  V30 1527 C 141.548 -3.34223 1.26609 0
M  V30 1528 C 141.214 -3.57555 2.74709 0
M  V30 1529 C 139.876 -3.63631 3.1516 0
M  V30 1530 C 142.228 -3.66803 3.70277 0
M  V30 1531 C 139.556 -3.76473 4.49983 0
M  V30 1532 C 141.908 -3.8117 5.04869 0
M  V30 1533 C 140.572 -3.85494 5.44932 0
M  V30 1534 H 139.842 -0.679849 0.294765 0
M  V30 1535 H 142.489 -1.3572 1.35101 0
M  V30 1536 H 140.794 -3.86536 0.640103 0
M  V30 1537 H 142.491 -3.87511 1.03132 0
M  V30 1538 H 139.081 -3.5347 2.42398 0
M  V30 1539 H 143.265 -3.61404 3.40149 0
M  V30 1540 H 138.521 -3.7808 4.80484 0
M  V30 1541 H 142.695 -3.87268 5.78789 0
M  V30 1542 H 140.322 -3.95197 6.49403 0
M  V30 1543 N 141.898 -0.863906 -1.31812 0
M  V30 1544 C 142.828 -0.330843 -2.31144 0
M  V30 1545 C 143.809 0.575005 -1.60087 0
M  V30 1546 O 144.994 0.493304 -1.8783 0
M  V30 1547 C 142.124 0.47374 -3.44054 0
M  V30 1548 C 141.078 -0.338481 -4.26659 0
M  V30 1549 C 140.404 0.591412 -5.31419 0
M  V30 1550 C 141.704 -1.56926 -4.98168 0
M  V30 1551 H 143.398 -1.16086 -2.75979 0
M  V30 1552 H 140.944 -0.559657 -1.32679 0
M  V30 1553 H 142.897 0.857143 -4.12591 0
M  V30 1554 H 141.621 1.33721 -2.9797 0
M  V30 1555 H 140.28 -0.703754 -3.59782 0
M  V30 1556 H 139.928 1.45199 -4.81587 0
M  V30 1557 H 139.628 0.0519022 -5.87577 0
M  V30 1558 H 141.152 0.97179 -6.02817 0
M  V30 1559 H 142.566 -1.25764 -5.59336 0
M  V30 1560 H 140.963 -2.04739 -5.64094 0
M  V30 1561 H 142.033 -2.32544 -4.25501 0
M  V30 1562 N 143.376 1.44774 -0.622745 0
M  V30 1563 C 144.601 2.06999 -0.128968 0
M  V30 1564 C 145.026 1.4617 1.1839 0
M  V30 1565 O 144.384 0.560007 1.72434 0
M  V30 1566 C 144.432 3.60595 -0.0188351 0
M  V30 1567 O 143.536 3.99398 1.02739 0
M  V30 1568 H 142.877 0.659047 -0.0809544 0
M  V30 1569 H 145.407 1.85784 -0.85705 0
M  V30 1570 H 145.417 4.07627 0.174476 0
M  V30 1571 H 144.092 4.04252 -0.977384 0
M  V30 1572 H 142.669 3.64011 0.809326 0
M  V30 1573 N 144.854 0.36279 1.53368 0
M  V30 1574 C 145.786 -0.519668 2.23231 0
M  V30 1575 C 146.799 -1.04844 1.24546 0
M  V30 1576 O 147.988 -0.955296 1.50786 0
M  V30 1577 C 145.088 -1.72995 2.9142 0
M  V30 1578 C 144.261 -1.33316 4.16588 0
M  V30 1579 C 143.32 -2.40521 4.68013 0
M  V30 1580 O 142.346 -2.03027 5.3176 0
M  V30 1581 N 143.548 -3.72065 4.45587 0
M  V30 1582 H 146.313 0.078751 2.99597 0
M  V30 1583 H 143.874 0.187833 1.60807 0
M  V30 1584 H 145.866 -2.44184 3.22733 0
M  V30 1585 H 144.436 -2.2353 2.18525 0
M  V30 1586 H 143.656 -0.451236 3.91609 0
M  V30 1587 H 144.944 -1.04432 4.97967 0
M  V30 1588 H 144.342 -4.05304 3.94646 0
M  V30 1589 H 142.899 -4.39366 4.81457 0
M  V30 1590 N 146.332 -1.57332 0.0918853 0
M  V30 1591 C 147.262 -2.16872 -0.865371 0
M  V30 1592 C 148.243 -1.10118 -1.29646 0
M  V30 1593 O 149.428 -1.38242 -1.36392 0
M  V30 1594 C 146.558 -2.74649 -2.12569 0
M  V30 1595 C 145.512 -3.86747 -1.83333 0
M  V30 1596 C 144.838 -4.31212 -3.16166 0
M  V30 1597 C 146.138 -5.10089 -1.1228 0
M  V30 1598 H 147.832 -2.97114 -0.369307 0
M  V30 1599 H 145.378 -1.42918 -0.176194 0
M  V30 1600 H 147.331 -3.14952 -2.7997 0
M  V30 1601 H 146.055 -1.91657 -2.64452 0
M  V30 1602 H 144.714 -3.46978 -1.18331 0
M  V30 1603 H 144.362 -3.45115 -3.6593 0
M  V30 1604 H 144.062 -5.06788 -2.97388 0
M  V30 1605 H 145.586 -4.74146 -3.84731 0
M  V30 1606 H 147 -5.47582 -1.69785 0
M  V30 1607 H 145.397 -5.91073 -1.03693 0
M  V30 1608 H 146.467 -4.84786 -0.105041 0
M  V30 1609 N 147.81 0.181792 -1.56548 0
M  V30 1610 C 149.056 0.896803 -1.82562 0
M  V30 1611 C 149.411 1.80324 -0.670908 0
M  V30 1612 O 148.704 1.8868 0.333235 0
M  V30 1613 C 148.898 1.73728 -3.12335 0
M  V30 1614 C 148.727 0.913714 -4.4032 0
M  V30 1615 C 147.497 0.592903 -5.01809 0
M  V30 1616 C 149.695 0.260164 -5.13642 0
M  V30 1617 N 147.677 -0.247901 -6.13399 0
M  V30 1618 C 149.048 -0.442256 -6.18421 0
M  V30 1619 C 151.103 0.177253 -4.97584 0
M  V30 1620 C 149.806 -1.21971 -7.08883 0
M  V30 1621 C 151.832 -0.586839 -5.88481 0
M  V30 1622 C 151.194 -1.27766 -6.92716 0
M  V30 1623 H 147.293 0.307122 -0.719166 0
M  V30 1624 H 149.877 0.164535 -1.94004 0
M  V30 1625 H 148.048 2.44105 -3.02105 0
M  V30 1626 H 149.78 2.39279 -3.26386 0
M  V30 1627 H 146.535 0.920502 -4.64568 0
M  V30 1628 H 146.959 -0.658304 -6.73792 0
M  V30 1629 H 151.601 0.696993 -4.17015 0
M  V30 1630 H 149.319 -1.75083 -7.88905 0
M  V30 1631 H 152.905 -0.652522 -5.78129 0
M  V30 1632 H 151.785 -1.85943 -7.61836 0
M  V30 1633 N 149.288 1.51039 0.449983 0
M  V30 1634 C 150.235 1.71439 1.54523 0
M  V30 1635 C 151.205 0.555871 1.56522 0
M  V30 1636 O 152.39 0.788871 1.73728 0
M  V30 1637 C 149.53 1.83384 2.92343 0
M  V30 1638 C 148.643 3.10873 2.9997 0
M  V30 1639 C 147.778 3.13488 4.28834 0
M  V30 1640 C 146.817 4.35343 4.30282 0
M  V30 1641 N 145.954 4.35579 5.5065 0
M  V30 1642 H 150.794 2.64934 1.36433 0
M  V30 1643 H 148.331 1.31312 0.662982 0
M  V30 1644 H 150.289 1.88291 3.72293 0
M  V30 1645 H 148.919 0.933086 3.0902 0
M  V30 1646 H 147.971 3.15336 2.12761 0
M  V30 1647 H 149.283 4.00814 2.96901 0
M  V30 1648 H 148.437 3.17241 5.17149 0
M  V30 1649 H 147.176 2.21414 4.34543 0
M  V30 1650 H 146.181 4.3178 3.40362 0
M  V30 1651 H 147.406 5.28668 4.26248 0
M  V30 1652 H 145.352 3.46369 5.57104 0
M  V30 1653 H 145.269 5.19313 5.49409 0
M  V30 1654 H 146.537 4.43507 6.41032 0
M  V30 1655 N 150.766 -0.704594 1.40972 0
M  V30 1656 C 151.676 -1.84856 1.44448 0
M  V30 1657 C 152.692 -1.70726 0.335961 0
M  V30 1658 O 153.868 -1.92799 0.582276 0
M  V30 1659 C 150.933 -3.20758 1.31587 0
M  V30 1660 C 149.994 -3.47063 2.52677 0
M  V30 1661 C 149.227 -4.76481 2.4042 0
M  V30 1662 O 149.45 -5.52341 1.42391 0
M  V30 1663 O 148.384 -5.03367 3.30007 0
M  V30 1664 H 152.21 -1.8488 2.40942 0
M  V30 1665 H 149.795 -0.85647 1.22413 0
M  V30 1666 H 151.677 -4.01913 1.26665 0
M  V30 1667 H 150.352 -3.21438 0.382049 0
M  V30 1668 H 149.259 -2.65873 2.63177 0
M  V30 1669 H 150.592 -3.5119 3.44858 0
M  V30 1670 N 152.244 -1.26651 -0.937939 0
M  V30 1671 C 153.474 -1.15006 -1.71631 0
M  V30 1672 C 153.882 0.297026 -1.86854 0
M  V30 1673 O 153.225 1.21493 -1.37786 0
M  V30 1674 C 153.287 -1.74984 -3.14039 0
M  V30 1675 C 152.951 -3.24103 -3.2219 0
M  V30 1676 C 153.948 -4.20877 -3.05219 0
M  V30 1677 C 151.633 -3.64625 -3.45476 0
M  V30 1678 C 153.627 -5.56151 -3.11408 0
M  V30 1679 C 151.314 -5.00032 -3.513 0
M  V30 1680 C 152.312 -5.95604 -3.34282 0
M  V30 1681 O 152 -7.28545 -3.3982 0
M  V30 1682 H 151.732 -0.401183 -0.544085 0
M  V30 1683 H 154.286 -1.67832 -1.18413 0
M  V30 1684 H 152.516 -1.16624 -3.68695 0
M  V30 1685 H 154.205 -1.58199 -3.73802 0
M  V30 1686 H 154.971 -3.90908 -2.87081 0
M  V30 1687 H 150.85 -2.90718 -3.57777 0
M  V30 1688 H 154.394 -6.30727 -2.98043 0
M  V30 1689 H 150.291 -5.29659 -3.68959 0
M  V30 1690 H 151.059 -7.3686 -3.56343 0
M  V30 1691 N 153.722 1.14298 -1.08507 0
M  V30 1692 C 154.685 2.17607 -0.719711 0
M  V30 1693 C 155.685 1.58907 0.245997 0
M  V30 1694 O 156.875 1.74181 0.0254081 0
M  V30 1695 C 154.007 3.40842 -0.0627695 0
M  V30 1696 H 155.2 2.51443 -1.63452 0
M  V30 1697 H 152.753 1.28963 -0.88307 0
M  V30 1698 H 153.488 3.12587 0.863716 0
M  V30 1699 H 153.273 3.84713 -0.757504 0
M  V30 1700 H 154.763 4.17221 0.177786 0
M  V30 1701 N 155.201 0.870884 1.31352 0
M  V30 1702 C 156.148 0.325425 2.28494 0
M  V30 1703 C 157.118 -0.576615 1.5577 0
M  V30 1704 O 158.303 -0.508059 1.83911 0
M  V30 1705 C 155.443 -0.466283 3.41935 0
M  V30 1706 C 154.556 0.463378 4.29508 0
M  V30 1707 C 153.691 -0.342544 5.30094 0
M  V30 1708 C 152.73 0.583486 6.09313 0
M  V30 1709 N 151.867 -0.186244 7.01853 0
M  V30 1710 H 156.707 1.15901 2.74538 0
M  V30 1711 H 154.244 0.58294 1.35056 0
M  V30 1712 H 156.202 -0.941085 4.06447 0
M  V30 1713 H 154.832 -1.26456 2.97 0
M  V30 1714 H 153.884 1.05663 3.65431 0
M  V30 1715 H 155.196 1.1734 4.84802 0
M  V30 1716 H 154.35 -0.879816 6.00287 0
M  V30 1717 H 153.089 -1.08585 4.75458 0
M  V30 1718 H 152.094 1.13251 5.3801 0
M  V30 1719 H 153.319 1.32566 6.66035 0
M  V30 1720 H 151.265 -0.912348 6.49625 0
M  V30 1721 H 151.182 0.464422 7.54572 0
M  V30 1722 H 152.45 -0.704716 7.76308 0
M  V30 1723 N 156.679 -1.44442 0.630414 0
M  V30 1724 C 157.927 -2.01653 0.134351 0
M  V30 1725 C 158.248 -1.49836 -1.24796 0
M  V30 1726 O 157.518 -0.701684 -1.82902 0
M  V30 1727 H 156.098 -0.74554 0.0466769 0
M  V30 1728 H 158.76 -1.76952 0.816955 0
M  V30 1729 H 157.856 -3.11935 0.101498 0
M  V30 1730 N 158.157 -0.370918 -1.53173 0
M  V30 1731 C 159.434 0.273754 -1.93675 0
M  V30 1732 C 159.814 1.65938 -1.3049 0
M  V30 1733 O 159.162 2.23698 -0.465999 0
M  V30 1734 C 159.372 0.318602 -3.47543 0
M  V30 1735 C 160.72 0.556392 -4.20939 0
M  V30 1736 O 161.744 0.399587 -3.53952 0
M  V30 1737 O 160.603 0.862133 -5.39657 0
M  V30 1738 H 157.697 0.165448 -0.810281 0
M  V30 1739 H 160.243 -0.42409 -1.64315 0
M  V30 1740 H 159.015 -0.652687 -3.85818 0
M  V30 1741 H 158.638 1.06212 -3.83151 0
M  V30 1742 N 159.635 1.57281 -0.100228 0
M  V30 1743 C 160.86 1.99302 0.573881 0
M  V30 1744 C 161.285 0.979059 1.60611 0
M  V30 1745 O 160.643 -0.0517803 1.81226 0
M  V30 1746 C 160.691 3.40274 1.19358 0
M  V30 1747 O 159.795 3.41676 2.30935 0
M  V30 1748 H 159.136 0.647944 0.145138 0
M  V30 1749 H 161.666 2.03779 -0.183156 0
M  V30 1750 H 161.676 3.78078 1.53365 0
M  V30 1751 H 160.351 4.13594 0.437385 0
M  V30 1752 H 158.928 3.15672 1.98509 0
M  V30 1753 N 161.113 -0.173488 1.56642 0
M  V30 1754 C 162.529 -0.525174 1.50712 0
M  V30 1755 C 162.729 -1.8476 0.804107 0
M  V30 1756 O 161.785 -2.49869 0.363574 0
M  V30 1757 C 163.098 -0.559937 2.95441 0
M  V30 1758 C 164.646 -0.647288 3.06234 0
M  V30 1759 C 165.121 -0.712963 4.52417 0
M  V30 1760 N 166.612 -0.775911 4.56655 0
M  V30 1761 C 167.347 -0.847264 5.67106 0
M  V30 1762 N 166.843 -0.879585 6.87194 0
M  V30 1763 N 168.636 -0.886117 5.55071 0
M  V30 1764 H 160.787 0.693681 2.00753 0
M  V30 1765 H 163.05 0.249841 0.914485 0
M  V30 1766 H 162.756 0.343049 3.50023 0
M  V30 1767 H 162.63 -1.40718 3.49969 0
M  V30 1768 H 165.017 -1.5407 2.51687 0
M  V30 1769 H 165.098 0.226586 2.54794 0
M  V30 1770 H 164.742 0.176183 5.07594 0
M  V30 1771 H 164.672 -1.60295 5.0161 0
M  V30 1772 H 167.163 -0.759304 3.70193 0
M  V30 1773 H 167.476 -0.935144 7.67121 0
M  V30 1774 H 165.821 -0.847898 6.89808 0
M  V30 1775 H 169.012 -0.857853 4.60172 0
M  V30 1776 H 169.185 -0.938263 6.41171 0
M  V30 1777 N 162.591 -1.51276 -0.441967 0
M  V30 1778 C 163.821 -1.67273 -1.21257 0
M  V30 1779 C 164.229 -0.367624 -1.85594 0
M  V30 1780 O 163.572 0.663349 -1.71305 0
M  V30 1781 C 163.634 -2.72807 -2.34129 0
M  V30 1782 C 163.298 -4.1554 -1.90198 0
M  V30 1783 C 164.295 -5.00471 -1.40801 0
M  V30 1784 C 161.98 -4.61616 -1.9803 0
M  V30 1785 C 163.974 -6.29536 -0.998174 0
M  V30 1786 C 161.661 -5.90679 -1.56658 0
M  V30 1787 C 162.659 -6.74466 -1.07633 0
M  V30 1788 O 162.347 -8.01116 -0.668459 0
M  V30 1789 H 162.079 -0.564614 -0.371734 0
M  V30 1790 H 164.633 -1.9843 -0.530521 0
M  V30 1791 H 162.863 -2.36954 -3.05597 0
M  V30 1792 H 164.552 -2.77729 -2.96009 0
M  V30 1793 H 165.318 -4.66079 -1.34148 0
M  V30 1794 H 161.197 -3.96526 -2.35135 0
M  V30 1795 H 164.741 -6.94885 -0.61482 0
M  V30 1796 H 160.638 -6.24586 -1.62979 0
M  V30 1797 H 161.406 -8.14633 -0.794722 0
M  V30 1798 N 164.069 0.697108 -1.41344 0
M  V30 1799 C 165.318 1.45279 -1.39918 0
M  V30 1800 C 165.631 1.95597 -0.0109624 0
M  V30 1801 O 166.837 2.71208 0.125919 0
M  V30 1802 C 165.293 2.62695 -2.46007 0
M  V30 1803 C 164.901 2.19169 -3.90729 0
M  V30 1804 C 166.645 3.40336 -2.53715 0
M  V30 1805 C 164.552 3.33535 -4.88373 0
M  V30 1806 H 163.482 0.545692 -0.520323 0
M  V30 1807 H 166.133 0.756929 -1.67161 0
M  V30 1808 H 164.515 3.34541 -2.11892 0
M  V30 1809 H 165.689 1.54623 -4.34083 0
M  V30 1810 H 164.004 1.54525 -3.86666 0
M  V30 1811 H 166.601 4.2547 -3.2385 0
M  V30 1812 H 166.944 3.85418 -1.5735 0
M  V30 1813 H 167.477 2.75546 -2.86913 0
M  V30 1814 H 164.216 2.93468 -5.86137 0
M  V30 1815 H 163.736 3.96936 -4.49668 0
M  V30 1816 H 165.415 3.99335 -5.09059 0
M  V30 1817 N 165.547 1.27147 0.931209 0
M  V30 1818 C 166.477 1.12081 2.04842 0
M  V30 1819 C 167.458 0.0232364 1.70084 0
M  V30 1820 O 168.643 0.197085 1.93197 0
M  V30 1821 C 165.773 0.76354 3.38803 0
M  V30 1822 C 164.727 1.81396 3.87659 0
M  V30 1823 C 164.053 1.31075 5.18385 0
M  V30 1824 C 165.353 3.21739 4.11438 0
M  V30 1825 H 167.047 2.05537 2.17703 0
M  V30 1826 H 164.593 0.989603 1.04608 0
M  V30 1827 H 166.546 0.644982 4.16435 0
M  V30 1828 H 165.27 -0.206727 3.25945 0
M  V30 1829 H 163.929 1.92136 3.12217 0
M  V30 1830 H 163.577 0.330037 5.01916 0
M  V30 1831 H 163.277 2.013 5.52044 0
M  V30 1832 H 164.801 1.20506 5.98591 0
M  V30 1833 H 166.215 3.14019 4.79651 0
M  V30 1834 H 164.612 3.89644 4.56397 0
M  V30 1835 H 165.682 3.67054 3.16859 0
M  V30 1836 N 167.025 -1.13721 1.09112 0
M  V30 1837 C 168.273 -1.84559 0.823562 0
M  V30 1838 C 168.594 -1.83754 -0.652658 0
M  V30 1839 O 167.864 -1.29102 -1.47342 0
M  V30 1840 H 166.444 -0.683376 0.301673 0
M  V30 1841 H 169.106 -1.37771 1.37859 0
M  V30 1842 H 168.202 -2.8917 1.17419 0
M  V30 1843 N 168.503 -0.877838 -1.30888 0
M  V30 1844 C 169.78 -0.413052 -1.91189 0
M  V30 1845 C 170.16 1.1056 -1.79832 0
M  V30 1846 O 169.508 1.93771 -1.21099 0
M  V30 1847 C 169.718 -0.903191 -3.3711 0
M  V30 1848 C 171.066 -0.93395 -4.14201 0
M  V30 1849 O 172.09 -0.849373 -3.45925 0
M  V30 1850 O 170.949 -1.05772 -5.36167 0
M  V30 1851 H 168.043 -0.125035 -0.817493 0
M  V30 1852 H 170.589 -0.966269 -1.39504 0
M  V30 1853 H 169.361 -1.94692 -3.39427 0
M  V30 1854 H 168.984 -0.328732 -3.96239 0
M  V30 1855 N 169.982 1.44106 -0.638065 0
M  V30 1856 C 170.93 2.3248 0.0748149 0
M  V30 1857 C 171.924 1.47746 0.828702 0
M  V30 1858 O 173.13 1.64049 0.740816 0
M  V30 1859 H 169.505 0.750771 0.0429686 0
M  V30 1860 H 171.476 2.90348 -0.688504 0
M  V30 1861 C 170.225 3.31843 1.03805 0
M  V30 1862 H 169.548 3.97059 0.467375 0
M  V30 1863 H 170.988 3.96345 1.50622 0
M  V30 1864 C 169.447 2.61291 2.1267 0
M  V30 1865 O 169.977 2.41702 3.20847 0
M  V30 1866 N 168.183 2.20915 1.88798 0
M  V30 1867 H 167.73 2.37047 1.00829 0
M  V30 1868 H 167.688 1.74038 2.61836 0
M  V30 1869 N 171.46 0.379036 1.52974 0
M  V30 1870 C 172.707 -0.206421 2.01445 0
M  V30 1871 C 173.035 -1.47668 1.26587 0
M  V30 1872 O 172.29 -1.92514 0.351675 0
M  V30 1873 C 172.589 -0.53096 3.53434 0
M  V30 1874 C 172.255 0.646546 4.46241 0
M  V30 1875 C 170.917 0.969604 4.7133 0
M  V30 1876 C 173.269 1.43479 5.01062 0
M  V30 1877 C 170.597 2.08263 5.48492 0
M  V30 1878 C 172.949 2.53834 5.7944 0
M  V30 1879 C 171.613 2.86659 6.02812 0
M  V30 1880 H 170.883 -0.0755349 0.73714 0
M  V30 1881 H 173.53 0.514271 1.84465 0
M  V30 1882 H 171.835 -1.33285 3.68432 0
M  V30 1883 H 173.532 -0.996417 3.88423 0
M  V30 1884 H 170.122 0.384734 4.2687 0
M  V30 1885 H 174.306 1.19844 4.81613 0
M  V30 1886 H 169.562 2.34078 5.64816 0
M  V30 1887 H 173.736 3.15319 6.20924 0
M  V30 1888 H 171.363 3.73026 6.62387 0
M  V30 1889 N 172.938 -1.57226 0.108567 0
M  V30 1890 C 174.166 -1.99179 -0.559954 0
M  V30 1891 C 174.581 -0.988022 -1.60884 0
M  V30 1892 O 173.938 0.0205512 -1.82488 0
M  V30 1893 C 173.989 -3.41159 -1.19552 0
M  V30 1894 O 173.71 -4.37694 -0.188577 0
M  V30 1895 C 175.211 -3.98188 -1.94837 0
M  V30 1896 H 172.431 -0.654228 -0.149088 0
M  V30 1897 H 174.975 -2.03598 0.19183 0
M  V30 1898 H 173.13 -3.37711 -1.89815 0
M  V30 1899 H 173.544 -5.20469 -0.649014 0
M  V30 1900 H 175.018 -4.99644 -2.34648 0
M  V30 1901 H 175.495 -3.3675 -2.81951 0
M  V30 1902 H 176.101 -4.0515 -1.2936 0
M  V30 1903 N 174.416 0.165178 -1.56732 0
M  V30 1904 C 175.662 0.882112 -1.82611 0
M  V30 1905 C 175.995 1.81628 -0.687378 0
M  V30 1906 O 175.27 1.92009 0.310267 0
M  V30 1907 C 175.553 1.67245 -3.18906 0
M  V30 1908 C 175.406 0.760987 -4.43316 0
M  V30 1909 C 176.725 2.63884 -3.52212 0
M  V30 1910 H 173.844 0.319242 -0.664269 0
M  V30 1911 H 176.486 0.148052 -1.89422 0
M  V30 1912 H 174.636 2.29824 -3.1323 0
M  V30 1913 H 176.308 0.147596 -4.61064 0
M  V30 1914 H 174.551 0.0694102 -4.33744 0
M  V30 1915 H 175.222 1.34962 -5.35247 0
M  V30 1916 H 177.698 2.11429 -3.58381 0
M  V30 1917 H 176.574 3.16245 -4.48643 0
M  V30 1918 H 176.835 3.44377 -2.77231 0
M  V30 1919 N 175.894 1.51508 0.433938 0
M  V30 1920 C 177.134 1.66006 1.19253 0
M  V30 1921 C 177.498 0.369868 1.88404 0
M  V30 1922 O 178.699 0.39066 2.65946 0
M  V30 1923 C 176.97 2.83229 2.17981 0
M  V30 1924 S 178.529 3.18075 3.02281 0
M  V30 1925 H 175.347 0.584821 0.404358 0
M  V30 1926 H 177.949 1.89425 0.48357 0
M  V30 1927 H 176.653 3.75407 1.65824 0
M  V30 1928 H 176.184 2.6201 2.93453 0
M  V30 1929 H 178.199 2.64772 4.19655 0
M  V30 1930 N 177.372 -0.689602 1.41712 0
M  V30 1931 C 178.305 -1.81403 1.3845 0
M  V30 1932 C 179.283 -1.60653 0.250874 0
M  V30 1933 O 180.467 -1.83323 0.43874 0
M  V30 1934 C 177.594 -3.18176 1.1611 0
M  V30 1935 C 176.64 -3.57705 2.3227 0
M  V30 1936 S 177.473 -3.61827 3.94767 0
M  V30 1937 C 178.629 -5.01318 3.74742 0
M  V30 1938 H 178.862 -1.83893 2.33603 0
M  V30 1939 H 176.395 -0.858878 1.28307 0
M  V30 1940 H 178.353 -3.97132 1.03907 0
M  V30 1941 H 177.014 -3.13288 0.225668 0
M  V30 1942 H 176.207 -4.57082 2.12349 0
M  V30 1943 H 175.809 -2.86073 2.40911 0
M  V30 1944 H 178.101 -5.88986 3.34817 0
M  V30 1945 H 179.044 -5.26283 4.73743 0
M  V30 1946 H 179.452 -4.73138 3.07898 0
M  V30 1947 N 178.85 -1.27639 -0.924453 0
M  V30 1948 C 179.76 -1.12466 -2.05885 0
M  V30 1949 C 180.776 -0.053869 -1.73917 0
M  V30 1950 O 181.952 -0.261012 -1.99702 0
M  V30 1951 C 179.017 -0.776768 -3.37886 0
M  V30 1952 C 178.078 -1.92878 -3.83532 0
M  V30 1953 C 177.311 -1.59739 -5.09234 0
M  V30 1954 O 177.534 -0.506782 -5.68144 0
M  V30 1955 O 176.468 -2.43761 -5.50331 0
M  V30 1956 H 180.294 -2.07671 -2.21599 0
M  V30 1957 H 177.879 -1.06857 -1.04413 0
M  V30 1958 H 179.761 -0.596229 -4.17161 0
M  V30 1959 H 178.436 0.145732 -3.23372 0
M  V30 1960 H 177.343 -2.1644 -3.0513 0
M  V30 1961 H 178.676 -2.8316 -4.02593 0
M  V30 1962 N 180.328 1.1314 -1.09713 0
M  V30 1963 C 181.556 1.88321 -0.856898 0
M  V30 1964 C 181.971 1.79276 0.592073 0
M  V30 1965 O 181.328 1.16142 1.40774 0
M  V30 1966 C 181.379 3.37812 -1.28706 0
M  V30 1967 O 181.1 3.46627 -2.67921 0
M  V30 1968 C 182.601 4.29952 -1.07964 0
M  V30 1969 H 179.821 0.596094 -0.308079 0
M  V30 1970 H 182.365 1.43205 -1.45988 0
M  V30 1971 H 180.52 3.805 -0.727912 0
M  V30 1972 H 180.934 4.39579 -2.8613 0
M  V30 1973 H 182.408 5.33159 -1.42986 0
M  V30 1974 H 182.885 4.39196 -0.0176577 0
M  V30 1975 H 183.491 3.93036 -1.62489 0
M  V30 1976 N 181.806 0.884767 1.30421 0
M  V30 1977 C 183.055 0.499164 1.95426 0
M  V30 1978 C 183.368 -0.95645 1.70621 0
M  V30 1979 O 184.574 -1.44889 2.29607 0
M  V30 1980 C 183.03 0.84177 3.49917 0
M  V30 1981 C 182.638 2.31514 3.83543 0
M  V30 1982 C 184.382 0.525355 4.21237 0
M  V30 1983 C 182.289 2.59939 5.31212 0
M  V30 1984 H 181.219 0.182944 0.73147 0
M  V30 1985 H 183.87 1.07971 1.48373 0
M  V30 1986 H 182.252 0.190311 3.95542 0
M  V30 1987 H 183.426 3.0109 3.48829 0
M  V30 1988 H 181.741 2.59907 3.25326 0
M  V30 1989 H 184.338 0.714762 5.29901 0
M  V30 1990 H 184.681 -0.535222 4.12845 0
M  V30 1991 H 185.214 1.134 3.81294 0
M  V30 1992 H 181.953 3.64736 5.44654 0
M  V30 1993 H 181.473 1.94972 5.67227 0
M  V30 1994 H 183.152 2.45429 5.98643 0
M  V30 1995 N 183.284 -1.43765 0.645699 0
M  V30 1996 C 184.512 -2.06253 0.163556 0
M  V30 1997 C 184.927 -1.48352 -1.16778 0
M  V30 1998 O 184.284 -0.611932 -1.71935 0
M  V30 1999 C 184.335 -3.61453 0.0583186 0
M  V30 2000 O 184.056 -4.172 1.33702 0
M  V30 2001 C 185.557 -4.41002 -0.450795 0
M  V30 2002 H 182.777 -0.665413 0.0864077 0
M  V30 2003 H 185.321 -1.84396 0.884222 0
M  V30 2004 H 183.476 -3.82522 -0.612865 0
M  V30 2005 H 183.89 -5.10791 1.19131 0
M  V30 2006 H 185.364 -5.49966 -0.473403 0
M  V30 2007 H 185.841 -4.13488 -1.48068 0
M  V30 2008 H 186.447 -4.24886 0.187637 0
M  V30 2009 N 184.763 -0.387143 -1.52771 0
M  V30 2010 C 185.726 0.436939 -2.24997 0
M  V30 2011 C 186.726 0.991991 -1.26555 0
M  V30 2012 O 187.916 0.874335 -1.50669 0
M  V30 2013 C 185.048 1.61281 -3.00335 0
M  V30 2014 H 186.241 -0.195365 -2.99263 0
M  V30 2015 H 183.794 -0.139218 -1.55679 0
M  V30 2016 H 184.529 2.2826 -2.30364 0
M  V30 2017 H 184.314 1.22154 -3.72587 0
M  V30 2018 H 185.804 2.19629 -3.5518 0
M  V30 2019 N 186.241 1.57166 -0.116904 0
M  V30 2020 C 187.481 1.97008 0.544715 0
M  V30 2021 C 187.845 0.998713 1.63981 0
M  V30 2022 O 189.046 1.28644 2.36018 0
M  V30 2023 C 187.317 3.41145 1.06559 0
M  V30 2024 S 188.876 4.02998 1.73603 0
M  V30 2025 H 185.694 0.688587 0.177112 0
M  V30 2026 H 188.296 1.94459 -0.201487 0
M  V30 2027 H 187 4.09592 0.257374 0
M  V30 2028 H 186.531 3.4734 1.84712 0
M  V30 2029 H 188.546 3.93585 3.02168 0
M  V30 2030 N 187.719 -0.156864 1.56817 0
M  V30 2031 C 188.649 -1.19589 2.00551 0
M  V30 2032 C 189.63 -1.4536 0.883426 0
M  V30 2033 O 190.815 -1.56449 1.15054 0
M  V30 2034 C 187.945 -2.53143 2.37773 0
M  V30 2035 C 186.899 -2.41913 3.53075 0
M  V30 2036 C 186.225 -3.80088 3.76081 0
M  V30 2037 C 187.525 -1.91157 4.86062 0
M  V30 2038 H 189.219 -0.832293 2.87599 0
M  V30 2039 H 186.765 -0.398918 1.38364 0
M  V30 2040 H 188.718 -3.26047 2.66967 0
M  V30 2041 H 187.442 -2.91319 1.4765 0
M  V30 2042 H 186.101 -1.71462 3.24031 0
M  V30 2043 H 185.749 -4.15683 2.83225 0
M  V30 2044 H 185.449 -3.73439 4.53671 0
M  V30 2045 H 186.973 -4.54556 4.0769 0
M  V30 2046 H 188.387 -2.53846 5.14038 0
M  V30 2047 H 186.784 -1.95422 5.67389 0
M  V30 2048 H 187.854 -0.866673 4.77092 0
M  V30 2049 N 189.197 -1.51736 -0.425897 0
M  V30 2050 C 190.443 -1.66174 -1.17294 0
M  V30 2051 C 190.798 -0.37876 -1.88635 0
M  V30 2052 O 190.091 0.626021 -1.81084 0
M  V30 2053 C 190.285 -2.81103 -2.20717 0
M  V30 2054 C 190.114 -4.20453 -1.59529 0
M  V30 2055 C 188.884 -4.86225 -1.37525 0
M  V30 2056 C 191.082 -5.03146 -1.06528 0
M  V30 2057 N 189.064 -6.09657 -0.720537 0
M  V30 2058 C 190.435 -6.17674 -0.536506 0
M  V30 2059 C 192.49 -4.88594 -0.958127 0
M  V30 2060 C 191.193 -7.19245 0.0888917 0
M  V30 2061 C 193.219 -5.90383 -0.346608 0
M  V30 2062 C 192.581 -7.04191 0.171564 0
M  V30 2063 H 188.68 -0.661871 -0.416475 0
M  V30 2064 H 191.264 -1.88997 -0.467801 0
M  V30 2065 H 189.435 -2.59924 -2.88607 0
M  V30 2066 H 191.167 -2.84662 -2.87663 0
M  V30 2067 H 187.922 -4.44293 -1.64015 0
M  V30 2068 H 188.346 -6.75756 -0.410292 0
M  V30 2069 H 192.988 -4.0085 -1.34459 0
M  V30 2070 H 190.706 -8.06628 0.48746 0
M  V30 2071 H 194.292 -5.81194 -0.265451 0
M  V30 2072 H 193.172 -7.81606 0.637309 0
M  V30 2073 N 190.675 0.682077 -1.42076 0
M  V30 2074 C 191.923 1.4393 -1.41876 0
M  V30 2075 C 192.244 1.94971 -0.0335599 0
M  V30 2076 O 191.514 1.72591 0.926773 0
M  V30 2077 H 190.094 0.534085 -0.522267 0
M  V30 2078 H 192.756 0.806427 -1.77434 0
M  V30 2079 H 191.852 2.29588 -2.11414 0
M  V30 2080 N 192.153 1.28127 0.917671 0
M  V30 2081 C 193.564 1.13622 1.48145 0
M  V30 2082 C 193.915 -0.275207 1.9426 0
M  V30 2083 O 193.04 -1.1691 1.82102 0
M  V30 2084 C 193.635 2.05648 2.69248 0
M  V30 2085 C 192.194 1.95219 3.21818 0
M  V30 2086 C 191.341 1.97618 1.94532 0
M  V30 2087 H 194.292 1.40874 0.730772 0
M  V30 2088 H 194.313 1.61818 3.44377 0
M  V30 2089 H 193.825 3.08365 2.35653 0
M  V30 2090 H 191.926 0.955244 3.60147 0
M  V30 2091 H 192.039 2.81976 3.87333 0
M  V30 2092 H 190.403 1.41973 2.11461 0
M  V30 2093 H 191.186 3.02007 1.63238 0
M  V30 2094 N 193.631 -1.12557 1.10312 0
M  V30 2095 C 194.561 -2.20341 0.772798 0
M  V30 2096 C 195.542 -1.68198 -0.25365 0
M  V30 2097 O 196.727 -1.93831 -0.119699 0
M  V30 2098 C 193.857 -3.46709 0.202443 0
M  V30 2099 C 192.811 -4.11996 1.15943 0
M  V30 2100 C 192.137 -5.328 0.450345 0
M  V30 2101 C 193.437 -4.5828 2.50552 0
M  V30 2102 H 195.131 -2.48229 1.674 0
M  V30 2103 H 192.677 -1.19308 0.806326 0
M  V30 2104 H 194.63 -4.2138 -0.0407752 0
M  V30 2105 H 193.354 -3.18245 -0.734001 0
M  V30 2106 H 192.013 -3.39305 1.38808 0
M  V30 2107 H 191.661 -5.00602 -0.490531 0
M  V30 2108 H 191.361 -5.7743 1.08851 0
M  V30 2109 H 192.885 -6.10219 0.215642 0
M  V30 2110 H 194.299 -5.2433 2.31843 0
M  V30 2111 H 192.696 -5.13683 3.10242 0
M  V30 2112 H 193.766 -3.72329 3.10643 0
M  V30 2113 N 195.109 -0.891671 -1.2995 0
M  V30 2114 C 196.334 -0.527932 -2.00568 0
M  V30 2115 C 196.759 0.877969 -1.66353 0
M  V30 2116 O 196.117 1.58301 -0.883762 0
M  V30 2117 C 196.165 -0.717745 -3.53385 0
M  V30 2118 O 195.269 0.233376 -4.11739 0
M  V30 2119 H 194.61 -0.20722 -0.630837 0
M  V30 2120 H 197.14 -1.20105 -1.65638 0
M  V30 2121 H 197.15 -0.619307 -4.03272 0
M  V30 2122 H 195.825 -1.74276 -3.77625 0
M  V30 2123 H 194.402 0.0880706 -3.72796 0
M  V30 2124 N 196.587 1.43421 -0.653314 0
M  V30 2125 C 197.517 2.33487 0.0246656 0
M  V30 2126 C 198.498 1.49475 0.811863 0
M  V30 2127 O 199.683 1.78139 0.773322 0
M  V30 2128 C 196.813 3.32841 0.99166 0
M  V30 2129 C 195.767 4.26842 0.314568 0
M  V30 2130 C 195.093 5.16236 1.39302 0
M  V30 2131 C 196.393 5.16243 -0.793095 0
M  V30 2132 H 198.087 2.90427 -0.727481 0
M  V30 2133 H 195.633 1.39649 -0.351287 0
M  V30 2134 H 197.586 3.94747 1.47487 0
M  V30 2135 H 196.31 2.74158 1.77497 0
M  V30 2136 H 194.969 3.663 -0.148199 0
M  V30 2137 H 194.617 4.53891 2.16776 0
M  V30 2138 H 194.317 5.79948 0.945223 0
M  V30 2139 H 195.841 5.81015 1.87759 0
M  V30 2140 H 197.255 5.71958 -0.392039 0
M  V30 2141 H 195.652 5.88676 -1.16536 0
M  V30 2142 H 196.722 4.55927 -1.65103 0
M  V30 2143 N 198.065 0.39524 1.52563 0
M  V30 2144 C 199.311 -0.177763 2.02622 0
M  V30 2145 C 199.666 -1.43974 1.27629 0
M  V30 2146 O 198.959 -1.87995 0.36992 0
M  V30 2147 C 199.153 -0.493444 3.53977 0
M  V30 2148 C 198.982 0.736392 4.4363 0
M  V30 2149 C 197.752 1.25744 4.89404 0
M  V30 2150 C 199.95 1.61046 4.88435 0
M  V30 2151 N 197.932 2.44421 5.63145 0
M  V30 2152 C 199.303 2.64359 5.60816 0
M  V30 2153 C 201.358 1.62985 4.70468 0
M  V30 2154 C 200.061 3.69505 6.17137 0
M  V30 2155 C 202.087 2.67042 5.27677 0
M  V30 2156 C 201.449 3.69077 5.99968 0
M  V30 2157 H 197.548 -0.0269794 0.781534 0
M  V30 2158 H 200.132 0.546466 1.86874 0
M  V30 2159 H 198.303 -1.18672 3.69826 0
M  V30 2160 H 200.035 -1.05412 3.90731 0
M  V30 2161 H 196.79 0.817546 4.6649 0
M  V30 2162 H 197.214 3.04485 6.04663 0
M  V30 2163 H 201.856 0.854442 4.14076 0
M  V30 2164 H 199.574 4.4791 6.72608 0
M  V30 2165 H 203.16 2.69433 5.15652 0
M  V30 2166 H 202.04 4.48273 6.43444 0
M  V30 2167 N 199.544 -1.57102 0.125237 0
M  V30 2168 C 200.79 -1.95697 -0.532035 0
M  V30 2169 C 201.123 -1.009 -1.6593 0
M  V30 2170 O 200.398 -0.047347 -1.94442 0
M  V30 2171 C 200.681 -3.44181 -1.05884 0
M  V30 2172 C 200.534 -4.49752 0.0654392 0
M  V30 2173 C 201.853 -3.94655 -1.9477 0
M  V30 2174 H 198.972 -0.711571 -0.191925 0
M  V30 2175 H 201.614 -1.88923 0.20206 0
M  V30 2176 H 199.764 -3.50085 -1.68442 0
M  V30 2177 H 201.436 -4.55943 0.700982 0
M  V30 2178 H 199.679 -4.27653 0.727709 0
M  V30 2179 H 200.35 -5.50924 -0.344505 0
M  V30 2180 H 202.826 -3.91094 -1.42074 0
M  V30 2181 H 201.702 -4.99057 -2.28546 0
M  V30 2182 H 201.963 -3.35718 -2.87656 0
M  V30 2183 N 201.022 0.148545 -1.56898 0
M  V30 2184 C 202.268 0.862694 -1.83536 0
M  V30 2185 C 202.601 1.80889 -0.706604 0
M  V30 2186 O 201.876 1.92328 0.289885 0
M  V30 2187 C 202.159 1.63853 -3.20662 0
M  V30 2188 C 202.012 0.713925 -4.44098 0
M  V30 2189 C 203.331 2.60133 -3.54991 0
M  V30 2190 H 200.45 0.312179 -0.667618 0
M  V30 2191 H 203.092 0.127953 -1.89569 0
M  V30 2192 H 201.242 2.26489 -3.1565 0
M  V30 2193 H 202.914 0.098686 -4.61194 0
M  V30 2194 H 201.157 0.0234019 -4.33794 0
M  V30 2195 H 201.828 1.29278 -5.36648 0
M  V30 2196 H 204.304 2.07616 -3.60603 0
M  V30 2197 H 203.18 3.11468 -4.51972 0
M  V30 2198 H 203.441 3.41417 -2.80868 0
M  V30 2199 N 202.5 1.5196 0.417844 0
M  V30 2200 C 203.749 1.6482 1.16264 0
M  V30 2201 C 204.062 0.379886 1.91876 0
M  V30 2202 O 205.268 0.388154 2.68711 0
M  V30 2203 C 203.724 2.91161 2.1155 0
M  V30 2204 C 203.332 4.25068 1.41495 0
M  V30 2205 C 205.076 3.13383 2.86341 0
M  V30 2206 C 202.983 5.42541 2.35379 0
M  V30 2207 H 201.913 0.613954 0.437694 0
M  V30 2208 H 204.564 1.78442 0.427871 0
M  V30 2209 H 202.946 2.71218 2.88543 0
M  V30 2210 H 204.12 4.55463 0.699263 0
M  V30 2211 H 202.435 4.0888 0.787792 0
M  V30 2212 H 205.032 3.98324 3.5671 0
M  V30 2213 H 205.375 2.27256 3.48798 0
M  V30 2214 H 205.908 3.33757 2.1645 0
M  V30 2215 H 202.647 6.30987 1.77582 0
M  V30 2216 H 202.167 5.16497 3.04945 0
M  V30 2217 H 203.846 5.75272 2.96093 0
M  V30 2218 N 203.978 -0.674533 1.42435 0
M  V30 2219 C 204.941 -1.76986 1.45632 0
M  V30 2220 C 205.941 -1.5708 0.343871 0
M  V30 2221 O 207.131 -1.63367 0.604709 0
M  V30 2222 C 204.263 -3.15623 1.28822 0
M  V30 2223 H 205.456 -1.75539 2.43158 0
M  V30 2224 H 203.009 -0.884189 1.28887 0
M  V30 2225 H 203.744 -3.22696 0.322193 0
M  V30 2226 H 203.529 -3.31475 2.09444 0
M  V30 2227 H 205.019 -3.95537 1.33942 0
M  V30 2228 N 205.456 -1.28612 -0.910864 0
M  V30 2229 C 206.703 -1.15934 -1.66029 0
M  V30 2230 C 207.031 0.291483 -1.92303 0
M  V30 2231 O 206.286 1.22816 -1.52364 0
M  V30 2232 C 206.585 -1.90624 -3.0232 0
M  V30 2233 C 206.251 -3.40405 -2.95695 0
M  V30 2234 C 204.913 -3.81255 -2.93595 0
M  V30 2235 C 207.265 -4.359 -2.85728 0
M  V30 2236 C 204.593 -5.15936 -2.79334 0
M  V30 2237 C 206.945 -5.70657 -2.73007 0
M  V30 2238 C 205.609 -6.10779 -2.69267 0
M  V30 2239 H 204.879 -0.424234 -0.607541 0
M  V30 2240 H 207.526 -1.5942 -1.06101 0
M  V30 2241 H 205.831 -1.39696 -3.6605 0
M  V30 2242 H 207.528 -1.78228 -3.59215 0
M  V30 2243 H 204.118 -3.07927 -2.98125 0
M  V30 2244 H 208.302 -4.053 -2.86436 0
M  V30 2245 H 203.558 -5.46146 -2.74835 0
M  V30 2246 H 207.732 -6.44311 -2.64264 0
M  V30 2247 H 205.359 -7.1509 -2.57974 0
M  V30 2248 N 206.934 1.1197 -1.10907 0
M  V30 2249 C 207.864 2.19928 -0.784473 0
M  V30 2250 C 208.845 1.6833 0.244726 0
M  V30 2251 O 210.03 1.93892 0.109418 0
M  V30 2252 C 207.16 3.46597 -0.220827 0
M  V30 2253 C 206.114 4.11376 -1.18127 0
M  V30 2254 C 205.44 5.32554 -0.478594 0
M  V30 2255 C 206.74 4.56945 -2.52979 0
M  V30 2256 H 208.434 2.47337 -1.68715 0
M  V30 2257 H 205.98 1.18879 -0.812642 0
M  V30 2258 H 207.933 4.21396 0.0184278 0
M  V30 2259 H 206.657 3.1863 0.717113 0
M  V30 2260 H 205.316 3.38564 -1.40606 0
M  V30 2261 H 204.964 5.00856 0.463976 0
M  V30 2262 H 204.664 5.76844 -1.11912 0
M  V30 2263 H 206.188 6.10096 -0.248 0
M  V30 2264 H 207.602 5.23093 -2.3462 0
M  V30 2265 H 205.999 5.1203 -3.12962 0
M  V30 2266 H 207.069 3.70676 -3.12614 0
M  V30 2267 N 208.412 0.89855 1.29475 0
M  V30 2268 C 209.828 0.594483 1.48115 0
M  V30 2269 C 210.028 -0.86431 1.82022 0
M  V30 2270 O 209.084 -1.64457 1.91599 0
M  V30 2271 C 210.397 1.51932 2.59494 0
M  V30 2272 C 211.945 1.5244 2.7337 0
M  V30 2273 C 212.42 2.43548 3.87877 0
M  V30 2274 N 213.911 2.41589 3.95208 0
M  V30 2275 C 214.646 3.08789 4.83153 0
M  V30 2276 N 214.142 3.85265 5.75798 0
M  V30 2277 N 215.935 2.97952 4.76635 0
M  V30 2278 H 208.086 1.84207 1.05742 0
M  V30 2279 H 210.349 0.789251 0.525154 0
M  V30 2280 H 210.055 2.55865 2.41301 0
M  V30 2281 H 209.929 1.23899 3.56271 0
M  V30 2282 H 212.316 0.492518 2.90961 0
M  V30 2283 H 212.397 1.8451 1.77172 0
M  V30 2284 H 212.041 3.46829 3.71041 0
M  V30 2285 H 211.971 2.08788 4.83441 0
M  V30 2286 H 214.462 1.86025 3.28943 0
M  V30 2287 H 214.775 4.33598 6.39697 0
M  V30 2288 H 213.12 3.89371 5.75687 0
M  V30 2289 H 216.311 2.37723 4.03244 0
M  V30 2290 H 216.484 3.50599 5.44962 0
M  V30 2291 N 209.89 -1.43072 0.660911 0
M  V30 2292 C 210.822 -2.29108 -0.0647641 0
M  V30 2293 C 211.835 -1.42928 -0.779448 0
M  V30 2294 O 213.024 -1.66788 -0.635921 0
M  V30 2295 C 210.124 -3.20032 -1.11503 0
M  V30 2296 C 209.297 -4.34792 -0.476955 0
M  V30 2297 C 208.356 -5.06534 -1.42513 0
M  V30 2298 O 207.382 -5.61538 -0.930771 0
M  V30 2299 N 208.584 -5.1075 -2.75889 0
M  V30 2300 H 211.349 -2.92029 0.673731 0
M  V30 2301 H 208.91 -1.53846 0.50427 0
M  V30 2302 H 210.902 -3.64892 -1.75032 0
M  V30 2303 H 209.472 -2.58658 -1.75541 0
M  V30 2304 H 208.692 -3.92752 0.337572 0
M  V30 2305 H 209.98 -5.0879 -0.0318525 0
M  V30 2306 H 209.378 -4.67447 -3.18606 0
M  V30 2307 H 207.935 -5.59302 -3.347 0
M  V30 2308 N 211.368 -0.403325 -1.52352 0
M  V30 2309 C 212.318 0.442244 -2.2367 0
M  V30 2310 C 213.302 1.01823 -1.24583 0
M  V30 2311 O 214.494 0.942005 -1.49851 0
M  V30 2312 C 211.623 1.5615 -3.05732 0
M  V30 2313 C 210.709 0.996575 -4.12225 0
M  V30 2314 N 211.1 0.157804 -5.05554 0
M  V30 2315 C 209.398 1.26767 -4.27605 0
M  V30 2316 C 210.099 -0.155853 -5.81491 0
M  V30 2317 N 209.075 0.451775 -5.41719 0
M  V30 2318 H 212.877 -0.204964 -2.93184 0
M  V30 2319 H 210.391 -0.213418 -1.60992 0
M  V30 2320 H 212.388 2.17981 -3.55373 0
M  V30 2321 H 211.048 2.21139 -2.37755 0
M  V30 2322 H 212.059 -0.206049 -5.1749 0
M  V30 2323 H 208.736 1.91757 -3.70858 0
M  V30 2324 H 210.126 -0.836329 -6.66675 0
M  V30 2325 N 212.846 1.57033 -0.133567 0
M  V30 2326 C 214.257 1.82593 0.389464 0
M  V30 2327 C 214.608 1.05156 1.6564 0
M  V30 2328 O 213.733 0.292644 2.14412 0
M  V30 2329 C 214.328 3.31204 0.713377 0
M  V30 2330 C 212.887 3.57393 1.18098 0
M  V30 2331 C 212.034 2.76598 0.197126 0
M  V30 2332 H 214.985 1.54598 -0.358481 0
M  V30 2333 H 215.006 3.46627 1.56939 0
M  V30 2334 H 214.518 3.87537 -0.2089 0
M  V30 2335 H 212.619 3.06433 2.11966 0
M  V30 2336 H 212.732 4.65915 1.11624 0
M  V30 2337 H 211.096 2.45257 0.687088 0
M  V30 2338 H 211.879 3.35697 -0.718504 0
M  V30 2339 N 214.325 -0.140222 1.56975 0
M  V30 2340 C 215.255 -1.17456 2.01808 0
M  V30 2341 C 216.236 -1.44415 0.898794 0
M  V30 2342 O 217.421 -1.5522 1.16707 0
M  V30 2343 C 214.551 -2.50607 2.40444 0
M  V30 2344 C 213.505 -2.38155 3.55621 0
M  V30 2345 C 212.831 -3.76078 3.80091 0
M  V30 2346 C 214.131 -1.85991 4.88062 0
M  V30 2347 H 215.825 -0.801743 2.88466 0
M  V30 2348 H 213.371 -0.38422 1.38779 0
M  V30 2349 H 215.324 -3.23197 2.7041 0
M  V30 2350 H 214.048 -2.89737 1.50732 0
M  V30 2351 H 212.707 -1.68016 3.25832 0
M  V30 2352 H 212.355 -4.12656 2.87618 0
M  V30 2353 H 212.055 -3.68606 4.57606 0
M  V30 2354 H 213.579 -4.50206 4.12488 0
M  V30 2355 H 214.993 -2.4838 5.16701 0
M  V30 2356 H 213.39 -1.89393 5.6943 0
M  V30 2357 H 214.46 -0.816023 4.77984 0
M  V30 2358 N 215.803 -1.52179 -0.40978 0
M  V30 2359 C 217.219 -1.40968 -0.74835 0
M  V30 2360 C 217.419 -0.513657 -1.94843 0
M  V30 2361 O 216.475 0.0208026 -2.52491 0
M  V30 2362 C 217.788 -2.83483 -1.0029 0
M  V30 2363 C 219.336 -2.92821 -1.10565 0
M  V30 2364 C 219.811 -4.36303 -1.39296 0
M  V30 2365 N 221.302 -4.39535 -1.46162 0
M  V30 2366 C 222.037 -5.47614 -1.70018 0
M  V30 2367 N 221.533 -6.65812 -1.91483 0
M  V30 2368 N 223.326 -5.35129 -1.72027 0
M  V30 2369 H 215.477 -2.0897 0.380186 0
M  V30 2370 H 217.74 -0.94185 0.107805 0
M  V30 2371 H 217.446 -3.51168 -0.193461 0
M  V30 2372 H 217.32 -3.24487 -1.92323 0
M  V30 2373 H 219.707 -2.25318 -1.90568 0
M  V30 2374 H 219.788 -2.55276 -0.16369 0
M  V30 2375 H 219.432 -5.04366 -0.598109 0
M  V30 2376 H 219.362 -4.71385 -2.34743 0
M  V30 2377 H 221.853 -3.54332 -1.31367 0
M  V30 2378 H 222.166 -7.43964 -2.09134 0
M  V30 2379 H 220.511 -6.68879 -1.88749 0
M  V30 2380 H 223.702 -4.41764 -1.54796 0
M  V30 2381 H 223.875 -6.19433 -1.9028 0
M  V30 2382 N 217.281 0.66697 -1.42791 0
M  V30 2383 C 218.528 1.42699 -1.43678 0
M  V30 2384 C 218.856 1.94419 -0.0560425 0
M  V30 2385 O 218.111 1.7182 0.936831 0
M  V30 2386 C 218.41 2.6349 -2.4147 0
M  V30 2387 C 218.076 2.30267 -3.8767 0
M  V30 2388 C 216.738 2.20918 -4.27491 0
M  V30 2389 C 219.09 2.03435 -4.79858 0
M  V30 2390 C 216.418 1.82873 -5.57471 0
M  V30 2391 C 218.77 1.66892 -6.10188 0
M  V30 2392 C 217.434 1.56058 -6.49001 0
M  V30 2393 H 216.704 0.522171 -0.525755 0
M  V30 2394 H 219.351 0.759785 -1.75783 0
M  V30 2395 H 217.656 3.35279 -2.0272 0
M  V30 2396 H 219.353 3.21684 -2.39417 0
M  V30 2397 H 215.943 2.38449 -3.56146 0
M  V30 2398 H 220.127 2.09586 -4.49875 0
M  V30 2399 H 215.383 1.7306 -5.86396 0
M  V30 2400 H 219.557 1.45157 -6.81104 0
M  V30 2401 H 217.184 1.26348 -7.49627 0
M  V30 2402 N 218.759 1.29093 0.90403 0
M  V30 2403 C 220.008 1.16187 1.64874 0
M  V30 2404 C 220.321 -0.286742 1.93487 0
M  V30 2405 O 221.527 -0.537062 2.66135 0
M  V30 2406 C 219.983 2.03177 2.97064 0
M  V30 2407 C 219.591 3.52836 2.76062 0
M  V30 2408 C 221.335 1.98984 3.74974 0
M  V30 2409 C 219.242 4.31945 4.03952 0
M  V30 2410 H 218.172 0.431246 0.618501 0
M  V30 2411 H 220.823 1.53699 1.00243 0
M  V30 2412 H 219.205 1.5853 3.62883 0
M  V30 2413 H 220.379 4.05507 2.18863 0
M  V30 2414 H 218.694 3.58656 2.11553 0
M  V30 2415 H 221.291 2.55351 4.69787 0
M  V30 2416 H 221.634 0.968815 4.0487 0
M  V30 2417 H 222.167 2.41652 3.15989 0
M  V30 2418 H 218.906 5.34667 3.79225 0
M  V30 2419 H 218.426 3.84045 4.60727 0
M  V30 2420 H 220.105 4.42379 4.72133 0
M  V30 2421 N 220.237 -1.11381 1.11499 0
M  V30 2422 C 221.167 -2.19509 0.796125 0
M  V30 2423 C 222.148 -1.68458 -0.235796 0
M  V30 2424 O 223.333 -1.93947 -0.0991344 0
M  V30 2425 C 220.463 -3.46475 0.239205 0
M  V30 2426 C 219.417 -4.10744 1.20307 0
M  V30 2427 C 218.743 -5.32293 0.50683 0
M  V30 2428 C 220.043 -4.55597 2.55399 0
M  V30 2429 H 221.737 -2.46439 1.70024 0
M  V30 2430 H 219.283 -1.18446 0.818935 0
M  V30 2431 H 221.236 -4.214 0.00392006 0
M  V30 2432 H 219.96 -3.19006 -0.700206 0
M  V30 2433 H 218.619 -3.37813 1.42399 0
M  V30 2434 H 218.267 -5.01095 -0.437408 0
M  V30 2435 H 217.967 -5.76243 1.1497 0
M  V30 2436 H 219.491 -6.09956 0.280351 0
M  V30 2437 H 220.905 -5.21841 2.37391 0
M  V30 2438 H 219.302 -5.10363 3.15673 0
M  V30 2439 H 220.372 -3.69013 3.14575 0
M  V30 2440 N 221.715 -0.905404 -1.28997 0
M  V30 2441 C 222.647 -0.344748 -2.26592 0
M  V30 2442 C 223.66 0.512135 -1.54535 0
M  V30 2443 O 224.849 0.328368 -1.75454 0
M  V30 2444 C 221.949 0.526587 -3.34784 0
M  V30 2445 C 221.122 -0.305871 -4.36329 0
M  V30 2446 C 220.181 0.499209 -5.23827 0
M  V30 2447 O 219.207 -0.0853004 -5.69136 0
M  V30 2448 N 220.409 1.80408 -5.51755 0
M  V30 2449 H 223.174 -1.18359 -2.75338 0
M  V30 2450 H 220.735 -0.770481 -1.42391 0
M  V30 2451 H 222.727 1.07171 -3.90252 0
M  V30 2452 H 221.297 1.26613 -2.85811 0
M  V30 2453 H 220.517 -1.0324 -3.80441 0
M  V30 2454 H 221.805 -0.875773 -5.01206 0
M  V30 2455 H 221.203 2.3016 -5.16762 0
M  V30 2456 H 219.76 2.29621 -6.10014 0
M  V30 2457 N 223.193 1.4272 -0.668489 0
M  V30 2458 C 224.123 2.335 -0.000100175 0
M  V30 2459 C 225.104 1.50328 0.795964 0
M  V30 2460 O 226.289 1.78949 0.754385 0
M  V30 2461 C 223.419 3.33874 0.956302 0
M  V30 2462 C 222.373 4.27152 0.269278 0
M  V30 2463 C 221.699 5.17684 1.33818 0
M  V30 2464 C 222.999 5.15373 -0.847805 0
M  V30 2465 H 224.693 2.89639 -0.758244 0
M  V30 2466 H 222.239 1.39269 -0.366079 0
M  V30 2467 H 224.192 3.9629 1.43292 0
M  V30 2468 H 222.916 2.76025 1.74579 0
M  V30 2469 H 221.575 3.66123 -0.187042 0
M  V30 2470 H 221.223 4.56165 2.1195 0
M  V30 2471 H 220.923 5.80918 0.883659 0
M  V30 2472 H 222.447 5.82974 1.81586 0
M  V30 2473 H 223.861 5.7151 -0.452681 0
M  V30 2474 H 222.258 5.87407 -1.22773 0
M  V30 2475 H 223.328 4.5415 -1.69929 0
M  V30 2476 N 224.671 0.411399 1.52136 0
M  V30 2477 C 225.917 -0.163888 2.02137 0
M  V30 2478 C 226.25 -1.44597 1.29636 0
M  V30 2479 O 225.525 -1.90272 0.403353 0
M  V30 2480 C 225.808 -0.40927 3.57767 0
M  V30 2481 C 225.661 0.889643 4.40914 0
M  V30 2482 C 226.98 -1.19042 4.23694 0
M  V30 2483 H 224.099 -0.0580896 0.734707 0
M  V30 2484 H 226.741 0.54531 1.82007 0
M  V30 2485 H 224.891 -1.0134 3.7505 0
M  V30 2486 H 226.563 1.52575 4.35337 0
M  V30 2487 H 224.806 1.50011 4.07037 0
M  V30 2488 H 225.477 0.672314 5.4789 0
M  V30 2489 H 227.953 -0.678942 4.10524 0
M  V30 2490 H 226.829 -1.33086 5.32522 0
M  V30 2491 H 227.09 -2.21166 3.82803 0
M  V30 2492 N 226.149 -1.5696 0.141893 0
M  V30 2493 C 227.395 -1.9625 -0.511248 0
M  V30 2494 C 227.728 -1.02654 -1.64851 0
M  V30 2495 O 227.003 -0.0679676 -1.94381 0
M  V30 2496 C 227.286 -3.45285 -1.02227 0
M  V30 2497 C 227.139 -4.49658 0.113138 0
M  V30 2498 C 228.458 -3.96698 -1.90574 0
M  V30 2499 H 225.577 -0.713567 -0.184367 0
M  V30 2500 H 228.219 -1.88698 0.222087 0
M  V30 2501 H 226.369 -3.51852 -1.64719 0
M  V30 2502 H 228.041 -4.55174 0.749302 0
M  V30 2503 H 226.284 -4.26857 0.773026 0
M  V30 2504 H 226.955 -5.51258 -0.286053 0
M  V30 2505 H 229.431 -3.92578 -1.37918 0
M  V30 2506 H 228.307 -5.01453 -2.2324 0
M  V30 2507 H 228.568 -3.3875 -2.84079 0
M  V30 2508 N 227.627 0.131896 -1.57047 0
M  V30 2509 C 228.852 0.860418 -1.8871 0
M  V30 2510 C 229.277 1.73251 -0.73251 0
M  V30 2511 O 228.635 1.785 0.317429 0
M  V30 2512 C 228.683 1.68047 -3.19049 0
M  V30 2513 O 227.787 2.7862 -3.04047 0
M  V30 2514 H 227.128 0.238743 -0.619595 0
M  V30 2515 H 229.658 0.118169 -2.04258 0
M  V30 2516 H 229.668 2.07238 -3.51449 0
M  V30 2517 H 228.343 1.04018 -4.02682 0
M  V30 2518 H 226.92 2.42726 -2.83088 0
M  V30 2519 N 229.106 1.52395 0.401703 0
M  V30 2520 C 230.352 1.67065 1.14966 0
M  V30 2521 C 230.685 0.403052 1.89971 0
M  V30 2522 O 229.96 -0.598774 1.85054 0
M  V30 2523 C 230.243 2.8975 2.13815 0
M  V30 2524 C 230.096 4.26578 1.42658 0
M  V30 2525 C 231.415 3.07965 3.14397 0
M  V30 2526 H 228.534 0.607968 0.416587 0
M  V30 2527 H 231.176 1.84965 0.434511 0
M  V30 2528 H 229.326 2.74619 2.74803 0
M  V30 2529 H 230.998 4.53451 0.847329 0
M  V30 2530 H 229.241 4.27639 0.72849 0
M  V30 2531 H 229.912 5.08483 2.14823 0
M  V30 2532 H 232.388 3.22043 2.63491 0
M  V30 2533 H 231.264 3.95308 3.80819 0
M  V30 2534 H 231.525 2.21611 3.82545 0
M  V30 2535 N 230.584 -0.659388 1.43143 0
M  V30 2536 C 231.832 -1.41654 1.44147 0
M  V30 2537 C 232.153 -1.94893 0.0645739 0
M  V30 2538 O 231.423 -1.74044 -0.899198 0
M  V30 2539 H 230.003 -0.525708 0.530697 0
M  V30 2540 H 232.665 -0.778097 1.78694 0
M  V30 2541 H 231.761 -2.26195 2.1504 0
M  V30 2542 N 232.062 -1.29571 -0.897171 0
M  V30 2543 C 232.994 -1.10724 -2.00681 0
M  V30 2544 C 234.007 -0.0540026 -1.6271 0
M  V30 2545 O 235.196 -0.298783 -1.75982 0
M  V30 2546 C 232.296 -0.663912 -3.32333 0
M  V30 2547 C 231.469 -1.79622 -3.98816 0
M  V30 2548 C 230.528 -1.34349 -5.0876 0
M  V30 2549 O 229.554 -2.04864 -5.31055 0
M  V30 2550 N 230.756 -0.215764 -5.80099 0
M  V30 2551 H 233.521 -2.06291 -2.17403 0
M  V30 2552 H 231.082 -1.21544 -1.06951 0
M  V30 2553 H 233.074 -0.344295 -4.03233 0
M  V30 2554 H 231.644 0.199375 -3.11964 0
M  V30 2555 H 230.864 -2.28459 -3.21248 0
M  V30 2556 H 232.152 -2.55535 -4.39976 0
M  V30 2557 H 231.55 0.372091 -5.64475 0
M  V30 2558 H 230.107 0.0444707 -6.51785 0
M  V30 2559 N 233.54 1.10788 -1.12088 0
M  V30 2560 C 234.789 1.82036 -0.868659 0
M  V30 2561 C 235.102 1.85929 0.607426 0
M  V30 2562 O 236.308 2.53346 0.97613 0
M  V30 2563 C 234.764 3.26951 -1.50435 0
M  V30 2564 C 234.372 3.31367 -3.01496 0
M  V30 2565 C 236.116 4.03053 -1.33225 0
M  V30 2566 C 234.023 4.7072 -3.58017 0
M  V30 2567 H 232.953 0.682108 -0.321318 0
M  V30 2568 H 235.604 1.24618 -1.34694 0
M  V30 2569 H 233.986 3.84343 -0.953735 0
M  V30 2570 H 235.16 2.83819 -3.6302 0
M  V30 2571 H 233.475 2.6875 -3.18061 0
M  V30 2572 H 236.072 5.05981 -1.72878 0
M  V30 2573 H 236.415 4.15387 -0.275529 0
M  V30 2574 H 236.948 3.52066 -1.85188 0
M  V30 2575 H 233.687 4.63585 -4.63432 0
M  V30 2576 H 233.207 5.1865 -3.01268 0
M  V30 2577 H 234.886 5.39685 -3.56859 0
M  V30 2578 N 235.018 0.912232 1.28515 0
M  V30 2579 C 236.248 0.559604 1.98877 0
M  V30 2580 C 236.656 -0.863113 1.68366 0
M  V30 2581 O 235.999 -1.58304 0.931969 0
M  V30 2582 C 236.061 0.68703 3.52874 0
M  V30 2583 C 235.725 2.07901 4.06972 0
M  V30 2584 C 236.722 3.05157 4.20922 0
M  V30 2585 C 234.407 2.39178 4.417 0
M  V30 2586 C 236.401 4.31806 4.68852 0
M  V30 2587 C 234.088 3.66068 4.89324 0
M  V30 2588 C 235.086 4.62195 5.02856 0
M  V30 2589 O 234.774 5.86829 5.49442 0
M  V30 2590 H 234.506 0.212191 0.641834 0
M  V30 2591 H 237.06 1.22712 1.64715 0
M  V30 2592 H 235.29 -0.0375486 3.86682 0
M  V30 2593 H 236.979 0.341727 4.04459 0
M  V30 2594 H 237.745 2.82311 3.94367 0
M  V30 2595 H 233.624 1.65109 4.30418 0
M  V30 2596 H 237.168 5.06842 4.79329 0
M  V30 2597 H 233.065 3.88739 5.15318 0
M  V30 2598 H 233.833 5.89597 5.6773 0
M  V30 2599 N 236.496 -1.42363 0.676048 0
M  V30 2600 C 237.744 -2.01123 0.198437 0
M  V30 2601 C 238.065 -1.53731 -1.19966 0
M  V30 2602 O 237.335 -0.759518 -1.80577 0
M  V30 2603 H 235.915 -0.743678 0.0703721 0
M  V30 2604 H 238.577 -1.74263 0.872837 0
M  V30 2605 H 237.673 -3.11454 0.200686 0
M  V30 2606 N 237.974 -0.419461 -1.51915 0
M  V30 2607 C 239.251 0.211999 -1.94448 0
M  V30 2608 C 239.631 1.61703 -1.35703 0
M  V30 2609 O 238.979 2.22102 -0.536931 0
M  V30 2610 C 239.189 0.207872 -3.4838 0
M  V30 2611 C 240.537 0.422192 -4.22496 0
M  V30 2612 O 241.561 0.286778 -3.55044 0
M  V30 2613 O 240.42 0.690009 -5.42126 0
M  V30 2614 H 237.514 0.139586 -0.815135 0
M  V30 2615 H 240.06 -0.476151 -1.62883 0
M  V30 2616 H 238.832 -0.775102 -3.83546 0
M  V30 2617 H 238.455 0.939688 -3.86336 0
M  V30 2618 N 239.452 1.56882 -0.150215 0
M  V30 2619 C 240.698 1.96518 0.500834 0
M  V30 2620 C 241.031 1.03527 1.64304 0
M  V30 2621 O 240.306 0.0782751 1.94342 0
M  V30 2622 C 240.589 3.45822 1.00395 0
M  V30 2623 C 240.442 4.49591 -0.136983 0
M  V30 2624 C 241.761 3.97704 1.88467 0
M  V30 2625 H 238.88 0.714535 0.18058 0
M  V30 2626 H 241.522 1.88577 -0.232091 0
M  V30 2627 H 239.672 3.5272 1.62851 0
M  V30 2628 H 241.344 4.5477 -0.77343 0
M  V30 2629 H 239.587 4.26441 -0.795652 0
M  V30 2630 H 240.258 5.51402 0.256815 0
M  V30 2631 H 242.734 3.93304 1.35834 0
M  V30 2632 H 241.61 5.0263 2.20578 0
M  V30 2633 H 241.871 3.40252 2.82279 0
M  V30 2634 N 240.93 -0.123565 1.57115 0
M  V30 2635 C 241.86 -1.15309 2.03042 0
M  V30 2636 C 242.841 -1.43454 0.914061 0
M  V30 2637 O 244.026 -1.53973 1.18347 0
M  V30 2638 C 241.156 -2.48043 2.43089 0
M  V30 2639 C 240.11 -2.3437 3.58127 0
M  V30 2640 C 239.436 -3.72026 3.84059 0
M  V30 2641 C 240.736 -1.80804 4.90007 0
M  V30 2642 H 242.43 -0.771102 2.893 0
M  V30 2643 H 239.976 -0.369479 1.39179 0
M  V30 2644 H 241.929 -3.20311 2.73823 0
M  V30 2645 H 240.653 -2.88122 1.53796 0
M  V30 2646 H 239.312 -1.64551 3.27595 0
M  V30 2647 H 238.96 -4.09582 2.91979 0
M  V30 2648 H 238.66 -3.63732 4.6149 0
M  V30 2649 H 240.184 -4.45806 4.1724 0
M  V30 2650 H 241.598 -2.42886 5.19307 0
M  V30 2651 H 239.995 -1.83343 5.71407 0
M  V30 2652 H 241.065 -0.76528 4.78823 0
M  V30 2653 N 242.408 -1.52605 -0.393616 0
M  V30 2654 C 243.638 -1.71046 -1.15874 0
M  V30 2655 C 244.046 -0.426483 -1.84331 0
M  V30 2656 O 243.389 0.608513 -1.73329 0
M  V30 2657 C 243.451 -2.80118 -2.25332 0
M  V30 2658 C 243.115 -4.21381 -1.76881 0
M  V30 2659 C 244.112 -5.04697 -1.24808 0
M  V30 2660 C 241.797 -4.67683 -1.83244 0
M  V30 2661 C 243.791 -6.32393 -0.797387 0
M  V30 2662 C 241.478 -5.95364 -1.37787 0
M  V30 2663 C 242.476 -6.77549 -0.861208 0
M  V30 2664 O 242.164 -8.02837 -0.413252 0
M  V30 2665 H 241.896 -0.576155 -0.353583 0
M  V30 2666 H 244.45 -2.00018 -0.467123 0
M  V30 2667 H 242.68 -2.46557 -2.97904 0
M  V30 2668 H 244.369 -2.87006 -2.87023 0
M  V30 2669 H 245.135 -4.70111 -1.19252 0
M  V30 2670 H 241.014 -4.03805 -2.22401 0
M  V30 2671 H 244.558 -6.9649 -0.393437 0
M  V30 2672 H 240.455 -6.29455 -1.43026 0
M  V30 2673 H 241.223 -8.16749 -0.53515 0
M  V30 2674 N 243.887 0.651787 -1.4349 0
M  V30 2675 C 245.134 1.41167 -1.45183 0
M  V30 2676 C 245.462 1.94349 -0.0766601 0
M  V30 2677 O 244.717 1.72804 0.918555 0
M  V30 2678 C 245.016 2.60914 -2.44251 0
M  V30 2679 C 244.682 2.26142 -3.9009 0
M  V30 2680 C 243.344 2.16371 -4.2981 0
M  V30 2681 C 245.696 1.98334 -4.81989 0
M  V30 2682 C 243.024 1.7695 -5.5938 0
M  V30 2683 C 245.376 1.6041 -6.11924 0
M  V30 2684 C 244.04 1.49166 -6.5062 0
M  V30 2685 H 243.31 0.516566 -0.531263 0
M  V30 2686 H 245.957 0.741099 -1.76579 0
M  V30 2687 H 244.262 3.3311 -2.06265 0
M  V30 2688 H 245.959 3.19127 -2.42815 0
M  V30 2689 H 242.549 2.34658 -3.58655 0
M  V30 2690 H 246.733 2.04803 -4.52072 0
M  V30 2691 H 241.989 1.66831 -5.88198 0
M  V30 2692 H 246.163 1.37925 -6.82605 0
M  V30 2693 H 243.79 1.1839 -7.50925 0
M  V30 2694 N 245.365 1.30045 0.890287 0
M  V30 2695 C 246.295 1.18541 2.01172 0
M  V30 2696 C 247.276 0.0773356 1.69924 0
M  V30 2697 O 248.461 0.25845 1.92473 0
M  V30 2698 C 245.591 0.870941 3.36202 0
M  V30 2699 C 244.545 1.93637 3.81692 0
M  V30 2700 C 243.871 1.475 5.13953 0
M  V30 2701 C 245.171 3.34666 4.00994 0
M  V30 2702 H 246.865 2.12359 2.11054 0
M  V30 2703 H 244.411 1.02238 1.01407 0
M  V30 2704 H 246.364 0.777141 4.14172 0
M  V30 2705 H 245.088 -0.102926 3.26438 0
M  V30 2706 H 243.747 2.01972 3.05946 0
M  V30 2707 H 243.395 0.489551 5.00612 0
M  V30 2708 H 243.095 2.1876 5.4536 0
M  V30 2709 H 244.619 1.39489 5.94454 0
M  V30 2710 H 246.033 3.2912 4.69417 0
M  V30 2711 H 244.43 4.03966 4.43769 0
M  V30 2712 H 245.5 3.76949 3.05021 0
M  V30 2713 N 246.843 -1.10192 1.12674 0
M  V30 2714 C 248.071 -1.85983 0.906527 0
M  V30 2715 C 248.486 -1.80783 -0.544333 0
M  V30 2716 O 247.843 -1.19834 -1.37645 0
M  V30 2717 C 247.894 -3.34281 1.37618 0
M  V30 2718 O 247.615 -3.39401 2.77017 0
M  V30 2719 C 249.116 -4.26938 1.19325 0
M  V30 2720 H 246.336 -0.587716 0.323775 0
M  V30 2721 H 248.88 -1.39284 1.49734 0
M  V30 2722 H 247.035 -3.78436 0.828539 0
M  V30 2723 H 247.449 -4.31838 2.97684 0
M  V30 2724 H 248.923 -5.29181 1.57071 0
M  V30 2725 H 249.4 -4.38995 0.134097 0
M  V30 2726 H 250.006 -3.8859 1.72852 0
M  V30 2727 N 248.321 -0.919034 -1.28029 0
M  V30 2728 C 249.231 -0.416756 -2.30869 0
M  V30 2729 C 250.247 0.498235 -1.66714 0
M  V30 2730 O 251.423 0.383144 -1.97722 0
M  V30 2731 C 248.488 0.330274 -3.45123 0
M  V30 2732 C 247.549 -0.618578 -4.2482 0
M  V30 2733 C 246.782 0.0928959 -5.33619 0
M  V30 2734 O 247.005 1.31375 -5.55065 0
M  V30 2735 O 245.939 -0.574499 -5.99152 0
M  V30 2736 H 249.765 -1.27043 -2.75851 0
M  V30 2737 H 247.35 -0.684052 -1.3282 0
M  V30 2738 H 249.232 0.751972 -4.14636 0
M  V30 2739 H 247.907 1.1597 -3.02213 0
M  V30 2740 H 246.814 -1.08978 -3.57875 0
M  V30 2741 H 248.147 -1.41497 -4.71423 0
M  V30 2742 N 249.799 1.42003 -0.683588 0
M  V30 2743 C 250.749 2.27997 0.0121992 0
M  V30 2744 C 251.733 1.4156 0.764822 0
M  V30 2745 O 252.925 1.64935 0.642287 0
M  V30 2746 C 250.054 3.29706 0.956482 0
M  V30 2747 C 249.14 4.23625 0.200739 0
M  V30 2748 N 249.531 4.99448 -0.799087 0
M  V30 2749 C 247.829 4.43845 0.437937 0
M  V30 2750 C 248.53 5.68102 -1.25041 0
M  V30 2751 N 247.506 5.40511 -0.578648 0
M  V30 2752 H 251.308 2.84048 -0.754564 0
M  V30 2753 H 248.822 1.54071 -0.513398 0
M  V30 2754 H 250.819 3.90124 1.47 0
M  V30 2755 H 249.479 2.75216 1.72297 0
M  V30 2756 H 250.49 5.04303 -1.17893 0
M  V30 2757 H 247.167 4.00382 1.18325 0
M  V30 2758 H 248.557 6.38913 -2.07942 0
M  V30 2759 N 251.277 0.427512 1.51691 0
M  V30 2760 C 252.693 0.0792977 1.59403 0
M  V30 2761 C 252.893 -1.41035 1.43914 0
M  V30 2762 O 251.949 -2.17922 1.27539 0
M  V30 2763 C 253.262 0.590636 2.94842 0
M  V30 2764 C 254.81 0.550215 3.08126 0
M  V30 2765 C 255.285 1.03836 4.46074 0
M  V30 2766 N 256.776 0.995943 4.52366 0
M  V30 2767 C 257.511 1.34463 5.57411 0
M  V30 2768 N 257.007 1.76569 6.69922 0
M  V30 2769 N 258.8 1.26343 5.47717 0
M  V30 2770 H 250.951 1.39687 1.60004 0
M  V30 2771 H 253.214 0.575003 0.753708 0
M  V30 2772 H 252.92 1.63251 3.11516 0
M  V30 2773 H 252.794 0.0102061 3.77199 0
M  V30 2774 H 255.181 -0.482654 2.91126 0
M  V30 2775 H 255.262 1.16693 2.27632 0
M  V30 2776 H 254.906 2.06965 4.63819 0
M  V30 2777 H 254.836 0.398286 5.25092 0
M  V30 2778 H 257.327 0.68661 3.7161 0
M  V30 2779 H 257.64 2.01438 7.46085 0
M  V30 2780 H 255.985 1.80488 6.71155 0
M  V30 2781 H 259.176 0.933209 4.58703 0
M  V30 2782 H 259.349 1.53846 6.29472 0
M  V30 2783 N 252.755 -1.56801 0.158532 0
M  V30 2784 C 254.032 -1.88131 -0.535357 0
M  V30 2785 C 254.412 -1.06638 -1.82186 0
M  V30 2786 O 253.76 -0.156533 -2.27963 0
M  V30 2787 C 253.97 -3.39949 -0.789653 0
M  V30 2788 C 255.318 -4.09416 -1.12533 0
M  V30 2789 O 256.342 -3.45194 -0.878622 0
M  V30 2790 O 255.201 -5.22855 -1.59014 0
M  V30 2791 H 252.295 -0.780143 -0.27442 0
M  V30 2792 H 254.841 -1.68564 0.19601 0
M  V30 2793 H 253.613 -3.91115 0.120353 0
M  V30 2794 H 253.236 -3.65084 -1.57479 0
M  V30 2795 N 254.233 0.115231 -1.57178 0
M  V30 2796 C 255.481 0.820727 -1.84685 0
M  V30 2797 C 255.802 1.80237 -0.744279 0
M  V30 2798 O 255.072 1.94529 0.231375 0
M  V30 2799 H 253.652 0.306084 -0.681411 0
M  V30 2800 H 256.314 0.101656 -1.94635 0
M  V30 2801 H 255.41 1.36366 -2.80733 0
M  V30 2802 N 255.711 1.52812 0.385517 0
M  V30 2803 C 256.958 1.68026 1.1302 0
M  V30 2804 C 257.286 0.421934 1.89868 0
M  V30 2805 O 256.541 -0.595749 1.86412 0
M  V30 2806 C 256.84 2.86856 2.13187 0
M  V30 2807 C 256.506 4.24159 1.5297 0
M  V30 2808 C 255.168 4.61501 1.36274 0
M  V30 2809 C 257.52 5.09627 1.09223 0
M  V30 2810 C 254.848 5.81966 0.743837 0
M  V30 2811 C 257.2 6.30719 0.487411 0
M  V30 2812 C 255.864 6.6679 0.307777 0
M  V30 2813 H 255.134 0.614849 0.413571 0
M  V30 2814 H 257.781 1.86962 0.414405 0
M  V30 2815 H 256.086 2.6235 2.90998 0
M  V30 2816 H 257.783 2.95821 2.70722 0
M  V30 2817 H 254.373 3.94746 1.66954 0
M  V30 2818 H 258.557 4.81343 1.20922 0
M  V30 2819 H 253.813 6.08519 0.592891 0
M  V30 2820 H 257.987 6.96259 0.140143 0
M  V30 2821 H 255.614 7.60001 -0.173879 0
M  V30 2822 N 257.189 -0.644168 1.43834 0
M  V30 2823 C 258.121 -1.76955 1.45669 0
M  V30 2824 C 259.134 -1.58956 0.351666 0
M  V30 2825 O 260.323 -1.6751 0.616644 0
M  V30 2826 C 257.423 -3.14507 1.26248 0
M  V30 2827 C 256.596 -3.59083 2.49757 0
M  V30 2828 C 255.655 -4.75467 2.25427 0
M  V30 2829 O 254.681 -4.84444 2.98836 0
M  V30 2830 N 255.883 -5.66289 1.27661 0
M  V30 2831 H 258.648 -1.75856 2.42682 0
M  V30 2832 H 256.209 -0.828312 1.39106 0
M  V30 2833 H 258.201 -3.90067 1.0784 0
M  V30 2834 H 256.771 -3.10325 0.376478 0
M  V30 2835 H 255.991 -2.7387 2.8353 0
M  V30 2836 H 257.279 -3.85613 3.31934 0
M  V30 2837 H 256.677 -5.61718 0.670064 0
M  V30 2838 H 255.234 -6.41533 1.15234 0
M  V30 2839 N 258.668 -1.30515 -0.883378 0
M  V30 2840 C 259.618 -1.13641 -1.9766 0
M  V30 2841 C 260.602 -0.0511314 -1.60819 0
M  V30 2842 O 261.794 -0.274623 -1.74857 0
M  V30 2843 C 258.923 -0.831976 -3.33066 0
M  V30 2844 C 258.009 -1.95759 -3.76217 0
M  V30 2845 N 258.4 -3.20313 -3.9145 0
M  V30 2846 C 256.698 -1.85431 -4.05625 0
M  V30 2847 C 257.399 -3.93856 -4.2808 0
M  V30 2848 N 256.375 -3.21919 -4.38029 0
M  V30 2849 H 260.177 -2.08106 -2.07531 0
M  V30 2850 H 257.691 -1.21877 -1.0733 0
M  V30 2851 H 259.688 -0.692102 -4.11115 0
M  V30 2852 H 258.348 0.104588 -3.24532 0
M  V30 2853 H 259.359 -3.55583 -3.76538 0
M  V30 2854 H 256.036 -0.991531 -4.05555 0
M  V30 2855 H 257.426 -5.01125 -4.47575 0
M  V30 2856 N 260.146 1.09593 -1.13257 0
M  V30 2857 C 261.394 1.81375 -0.891492 0
M  V30 2858 C 261.715 1.86049 0.584009 0
M  V30 2859 O 260.985 1.34481 1.42449 0
M  V30 2860 H 259.565 0.671708 -0.326828 0
M  V30 2861 H 262.227 1.3256 -1.42877 0
M  V30 2862 H 261.323 2.84612 -1.28071 0
M  V30 2863 N 261.624 0.925811 1.2754 0
M  V30 2864 C 262.534 0.428993 2.30644 0
M  V30 2865 C 263.55 -0.489387 1.66976 0
M  V30 2866 O 264.726 -0.372653 1.97922 0
M  V30 2867 C 261.791 -0.311967 3.45294 0
M  V30 2868 C 260.852 0.641098 4.24486 0
M  V30 2869 C 260.085 -0.0645955 5.33661 0
M  V30 2870 O 260.308 -1.28429 5.55754 0
M  V30 2871 O 259.242 0.606265 5.98839 0
M  V30 2872 H 263.068 1.28504 2.75173 0
M  V30 2873 H 260.653 0.691086 1.32455 0
M  V30 2874 H 262.535 -0.729972 4.15029 0
M  V30 2875 H 261.21 -1.14365 3.02824 0
M  V30 2876 H 260.117 1.10874 3.57292 0
M  V30 2877 H 261.45 1.43995 4.70666 0
M  V30 2878 N 263.102 -1.41638 0.69111 0
M  V30 2879 C 264.032 -2.3347 0.037248 0
M  V30 2880 C 265.013 -1.51575 -0.771947 0
M  V30 2881 O 266.198 -1.80126 -0.72582 0
M  V30 2882 C 263.328 -3.35354 -0.903064 0
M  V30 2883 C 262.282 -4.27526 -0.201288 0
M  V30 2884 C 261.608 -5.19747 -1.25565 0
M  V30 2885 C 262.908 -5.13959 0.929689 0
M  V30 2886 H 264.602 -2.88397 0.804227 0
M  V30 2887 H 262.148 -1.38669 0.388189 0
M  V30 2888 H 264.101 -3.98519 -1.36969 0
M  V30 2889 H 262.825 -2.78767 -1.70166 0
M  V30 2890 H 261.484 -3.65779 0.245265 0
M  V30 2891 H 261.132 -4.59479 -2.04666 0
M  V30 2892 H 260.832 -5.8225 -0.791128 0
M  V30 2893 H 262.356 -5.85789 -1.72288 0
M  V30 2894 H 263.77 -5.70718 0.543546 0
M  V30 2895 H 262.167 -5.85379 1.32103 0
M  V30 2896 H 263.237 -4.51389 1.77133 0
M  V30 2897 N 264.58 -0.43555 -1.51462 0
M  V30 2898 C 265.828 0.131254 -2.01673 0
M  V30 2899 C 266.149 1.43368 -1.32177 0
M  V30 2900 O 265.419 1.90524 -0.455769 0
M  V30 2901 H 263.999 0.0514954 -0.745223 0
M  V30 2902 H 266.661 -0.577847 -1.86137 0
M  V30 2903 H 265.757 0.308446 -3.10572 0
M  V30 2904 N 266.058 1.56714 -0.166846 0
M  V30 2905 C 267.008 2.14338 0.777382 0
M  V30 2906 C 267.992 1.07642 1.19591 0
M  V30 2907 O 269.184 1.33775 1.15902 0
M  V30 2908 C 266.313 2.78417 2.00846 0
M  V30 2909 C 265.399 3.92264 1.61212 0
M  V30 2910 N 265.79 4.97268 0.925104 0
M  V30 2911 C 264.088 4.03342 1.90346 0
M  V30 2912 C 264.789 5.77093 0.730627 0
M  V30 2913 N 263.765 5.2854 1.27067 0
M  V30 2914 H 267.567 2.9289 0.243466 0
M  V30 2915 H 265.081 1.62364 0.0339954 0
M  V30 2916 H 267.078 3.18073 2.69509 0
M  V30 2917 H 265.738 2.01344 2.54736 0
M  V30 2918 H 266.749 5.14601 0.583646 0
M  V30 2919 H 263.426 3.37368 2.45946 0
M  V30 2920 H 264.816 6.71638 0.187668 0
M  V30 2921 N 267.536 -0.106894 1.57237 0
M  V30 2922 C 268.947 -0.662723 1.74542 0
M  V30 2923 C 269.298 -1.7971 0.787319 0
M  V30 2924 O 268.423 -2.16368 -0.0369636 0
M  V30 2925 C 269.018 -1.20896 3.16496 0
M  V30 2926 C 267.577 -1.71096 3.35266 0
M  V30 2927 C 266.724 -0.615642 2.7038 0
M  V30 2928 H 269.675 0.119106 1.58252 0
M  V30 2929 H 269.696 -2.07847 3.18716 0
M  V30 2930 H 269.208 -0.383122 3.86204 0
M  V30 2931 H 267.309 -2.56119 2.70618 0
M  V30 2932 H 267.422 -1.81208 4.43509 0
M  V30 2933 H 265.786 -1.05222 2.31949 0
M  V30 2934 H 266.569 0.199419 3.4272 0
M  V30 2935 N 269.014 -1.53014 -0.377408 0
M  V30 2936 C 269.944 -1.81589 -1.46791 0
M  V30 2937 C 270.925 -0.668622 -1.56408 0
M  V30 2938 O 272.11 -0.917337 -1.71168 0
M  V30 2939 C 269.24 -1.99519 -2.8427 0
M  V30 2940 C 268.194 -3.15249 -2.89486 0
M  V30 2941 C 267.52 -3.18451 -4.29527 0
M  V30 2942 C 268.82 -4.54084 -2.58079 0
M  V30 2943 H 270.514 -2.7291 -1.23127 0
M  V30 2944 H 268.06 -1.31319 -0.590883 0
M  V30 2945 H 270.013 -2.18092 -3.60575 0
M  V30 2946 H 268.737 -1.04897 -3.09296 0
M  V30 2947 H 267.396 -2.96477 -2.15631 0
M  V30 2948 H 267.044 -2.2149 -4.5161 0
M  V30 2949 H 266.744 -3.962 -4.33934 0
M  V30 2950 H 268.268 -3.39193 -5.07721 0
M  V30 2951 H 269.682 -4.72899 -3.24098 0
M  V30 2952 H 268.079 -5.33987 -2.7382 0
M  V30 2953 H 269.149 -4.60006 -1.53372 0
M  V30 2954 N 270.492 0.636531 -1.44174 0
M  V30 2955 C 271.722 1.42146 -1.49927 0
M  V30 2956 C 272.13 1.88812 -0.121063 0
M  V30 2957 O 271.473 1.61126 0.882267 0
M  V30 2958 C 271.535 2.67883 -2.39748 0
M  V30 2959 C 271.199 2.43048 -3.8701 0
M  V30 2960 C 272.196 2.05216 -4.77684 0
M  V30 2961 C 269.881 2.56856 -4.3166 0
M  V30 2962 C 271.875 1.81512 -6.11009 0
M  V30 2963 C 269.562 2.32766 -5.65034 0
M  V30 2964 C 270.56 1.95152 -6.54526 0
M  V30 2965 O 270.248 1.71326 -7.85431 0
M  V30 2966 H 269.98 0.442567 -0.51099 0
M  V30 2967 H 272.534 0.786158 -1.8976 0
M  V30 2968 H 270.764 3.34032 -1.94832 0
M  V30 2969 H 272.453 3.29874 -2.36513 0
M  V30 2970 H 273.219 1.94111 -4.44462 0
M  V30 2971 H 269.098 2.85104 -3.62266 0
M  V30 2972 H 272.642 1.52077 -6.80822 0
M  V30 2973 H 268.539 2.43479 -5.97819 0
M  V30 2974 H 269.307 1.85616 -7.97176 0
M  V30 2975 N 271.97 1.30982 0.876444 0
M  V30 2976 C 273.217 1.20296 1.62896 0
M  V30 2977 C 273.545 -0.240395 1.93009 0
M  V30 2978 O 272.8 -1.18733 1.55567 0
M  V30 2979 C 273.099 1.98572 2.9716 0
M  V30 2980 C 272.765 3.48125 2.86566 0
M  V30 2981 C 271.427 3.88905 2.83383 0
M  V30 2982 C 273.779 4.43322 2.74071 0
M  V30 2983 C 271.107 5.2316 2.65556 0
M  V30 2984 C 273.459 5.77695 2.57781 0
M  V30 2985 C 272.123 6.17704 2.52979 0
M  V30 2986 H 271.393 0.440193 0.59608 0
M  V30 2987 H 274.04 1.62177 1.01837 0
M  V30 2988 H 272.345 1.49352 3.62217 0
M  V30 2989 H 274.042 1.8769 3.54364 0
M  V30 2990 H 270.632 3.15723 2.89856 0
M  V30 2991 H 274.816 4.12752 2.75589 0
M  V30 2992 H 270.072 5.53241 2.60259 0
M  V30 2993 H 274.246 6.51091 2.47089 0
M  V30 2994 H 271.873 7.21678 2.38924 0
M  V30 2995 N 273.449 -1.08991 1.13837 0
M  V30 2996 C 274.695 -1.81699 0.91417 0
M  V30 2997 C 275.05 -1.84264 -0.553594 0
M  V30 2998 O 274.343 -1.30313 -1.4046 0
M  V30 2999 C 274.537 -3.27042 1.44147 0
M  V30 3000 C 274.366 -3.38637 2.95897 0
M  V30 3001 C 273.136 -3.50177 3.64286 0
M  V30 3002 C 275.334 -3.30791 3.93804 0
M  V30 3003 N 273.316 -3.50501 5.04006 0
M  V30 3004 C 274.687 -3.38037 5.19741 0
M  V30 3005 C 276.742 -3.14488 3.86007 0
M  V30 3006 C 275.445 -3.30659 6.38793 0
M  V30 3007 C 277.471 -3.08438 5.04599 0
M  V30 3008 C 276.833 -3.1628 6.29402 0
M  V30 3009 H 272.932 -0.678967 0.387979 0
M  V30 3010 H 275.516 -1.30224 1.4474 0
M  V30 3011 H 273.687 -3.76976 0.935091 0
M  V30 3012 H 275.419 -3.87785 1.1578 0
M  V30 3013 H 272.174 -3.53815 3.1482 0
M  V30 3014 H 272.598 -3.54236 5.76928 0
M  V30 3015 H 277.24 -3.07291 2.90399 0
M  V30 3016 H 274.958 -3.36618 7.34652 0
M  V30 3017 H 278.544 -2.96952 5.0031 0
M  V30 3018 H 277.424 -3.1162 7.19627 0
M  V30 3019 N 274.927 -0.932562 -1.27047 0
M  V30 3020 C 276.174 -0.575559 -1.94148 0
M  V30 3021 C 276.502 0.883984 -1.73251 0
M  V30 3022 O 275.757 1.64655 -1.0577 0
M  V30 3023 C 276.056 -0.853713 -3.47054 0
M  V30 3024 C 275.722 -2.29577 -3.88079 0
M  V30 3025 C 274.384 -2.68999 -3.9899 0
M  V30 3026 C 276.736 -3.23331 -4.08787 0
M  V30 3027 C 274.064 -4.01289 -4.28 0
M  V30 3028 C 276.416 -4.55207 -4.39282 0
M  V30 3029 C 275.08 -4.94457 -4.48407 0
M  V30 3030 H 274.35 -0.210612 -0.710439 0
M  V30 3031 H 276.997 -1.17744 -1.51025 0
M  V30 3032 H 275.302 -0.169204 -3.91434 0
M  V30 3033 H 276.999 -0.55639 -3.97121 0
M  V30 3034 H 273.589 -1.97994 -3.80127 0
M  V30 3035 H 277.773 -2.94074 -3.99793 0
M  V30 3036 H 273.029 -4.31374 -4.33275 0
M  V30 3037 H 277.203 -5.27852 -4.54252 0
M  V30 3038 H 274.83 -5.96994 -4.7064 0
M  V30 3039 N 276.405 1.4127 -0.698611 0
M  V30 3040 C 277.635 2.05205 -0.239644 0
M  V30 3041 C 278.043 1.52684 1.11733 0
M  V30 3042 O 277.386 0.671222 1.70998 0
M  V30 3043 C 277.448 3.59289 -0.123126 0
M  V30 3044 C 277.112 4.34619 -1.41263 0
M  V30 3045 C 278.109 4.63701 -2.35111 0
M  V30 3046 C 275.794 4.73837 -1.66684 0
M  V30 3047 C 277.788 5.30966 -3.52639 0
M  V30 3048 C 275.475 5.40837 -2.84498 0
M  V30 3049 C 276.473 5.69329 -3.77298 0
M  V30 3050 O 276.161 6.34949 -4.93047 0
M  V30 3051 H 275.893 0.66723 -0.108537 0
M  V30 3052 H 278.447 1.81974 -0.952602 0
M  V30 3053 H 276.677 3.81272 0.645628 0
M  V30 3054 H 278.366 4.04797 0.299056 0
M  V30 3055 H 279.132 4.33882 -2.16729 0
M  V30 3056 H 275.011 4.51039 -0.953135 0
M  V30 3057 H 278.555 5.53121 -4.25091 0
M  V30 3058 H 274.452 5.70075 -3.02795 0
M  V30 3059 H 275.22 6.53445 -4.92902 0
M  V30 3060 N 277.883 0.443576 1.51229 0
M  V30 3061 C 279.13 -0.120796 2.02139 0
M  V30 3062 C 279.458 -1.42166 1.32736 0
M  V30 3063 O 278.713 -1.90849 0.43301 0
M  V30 3064 C 279.012 -0.380579 3.55368 0
M  V30 3065 C 278.678 0.83523 4.43097 0
M  V30 3066 C 277.34 1.16864 4.66794 0
M  V30 3067 C 279.692 1.64601 4.94526 0
M  V30 3068 C 277.02 2.31339 5.39165 0
M  V30 3069 C 279.372 2.78181 5.68153 0
M  V30 3070 C 278.036 3.11969 5.90112 0
M  V30 3071 H 277.306 -0.0442023 0.73968 0
M  V30 3072 H 279.953 0.592046 1.82118 0
M  V30 3073 H 278.258 -1.17538 3.73754 0
M  V30 3074 H 279.955 -0.830777 3.923 0
M  V30 3075 H 276.545 0.565437 4.24854 0
M  V30 3076 H 280.729 1.40163 4.76097 0
M  V30 3077 H 275.985 2.57823 5.5438 0
M  V30 3078 H 280.159 3.41371 6.06992 0
M  V30 3079 H 277.786 4.00784 6.45969 0
M  V30 3080 N 279.361 -1.56624 0.175154 0
M  V30 3081 C 280.607 -1.9729 -0.469506 0
M  V30 3082 C 280.94 -1.06128 -1.62636 0
M  V30 3083 O 280.215 -0.109183 -1.94193 0
M  V30 3084 C 280.498 -3.47375 -0.948804 0
M  V30 3085 C 280.351 -4.49317 0.208491 0
M  V30 3086 C 281.67 -4.00652 -1.82116 0
M  V30 3087 H 278.789 -0.717317 -0.16919 0
M  V30 3088 H 281.431 -1.88184 0.262062 0
M  V30 3089 H 279.581 -3.55267 -1.57219 0
M  V30 3090 H 281.253 -4.53482 0.845682 0
M  V30 3091 H 279.496 -4.25121 0.863395 0
M  V30 3092 H 280.167 -5.51741 -0.169059 0
M  V30 3093 H 282.643 -3.95416 -1.2956 0
M  V30 3094 H 281.519 -5.06075 -2.12554 0
M  V30 3095 H 281.78 -3.44699 -2.7683 0
M  V30 3096 N 280.839 0.0985539 -1.57292 0
M  V30 3097 C 282.086 0.802678 -1.85912 0
M  V30 3098 C 282.414 1.78901 -0.763186 0
M  V30 3099 O 281.669 1.94178 0.243559 0
M  V30 3100 C 281.968 1.56927 -3.21105 0
M  V30 3101 C 281.634 0.725376 -4.45027 0
M  V30 3102 C 280.296 0.492726 -4.78671 0
M  V30 3103 C 282.648 0.138493 -5.21016 0
M  V30 3104 C 279.976 -0.336727 -5.85733 0
M  V30 3105 C 282.328 -0.678264 -6.28953 0
M  V30 3106 C 280.992 -0.921039 -6.61115 0
M  V30 3107 H 280.262 0.293721 -0.680301 0
M  V30 3108 H 282.909 0.0642841 -1.91392 0
M  V30 3109 H 281.214 2.37914 -3.11294 0
M  V30 3110 H 282.911 2.11841 -3.40477 0
M  V30 3111 H 279.501 0.916815 -4.18679 0
M  V30 3112 H 283.685 0.305404 -4.95359 0
M  V30 3113 H 278.941 -0.533836 -6.09065 0
M  V30 3114 H 283.115 -1.1399 -6.87007 0
M  V30 3115 H 280.742 -1.56556 -7.43905 0
M  V30 3116 N 282.317 1.53212 0.369288 0
M  V30 3117 C 283.25 1.74166 1.4745 0
M  V30 3118 C 284.228 0.589923 1.51521 0
M  V30 3119 O 285.412 0.822078 1.69629 0
M  V30 3120 C 282.539 1.81711 2.8583 0
M  V30 3121 C 281.585 3.03649 2.99499 0
M  V30 3122 S 282.418 4.63242 2.6864 0
M  V30 3123 C 283.574 4.7363 4.09177 0
M  V30 3124 H 283.807 2.67636 1.29454 0
M  V30 3125 H 281.34 1.43754 0.563396 0
M  V30 3126 H 283.298 1.86743 3.65564 0
M  V30 3127 H 281.959 0.89299 3.01139 0
M  V30 3128 H 281.152 3.05526 4.00836 0
M  V30 3129 H 280.754 2.9671 2.27683 0
M  V30 3130 H 283.046 4.53456 5.03372 0
M  V30 3131 H 283.989 5.75682 4.12306 0
M  V30 3132 H 284.397 4.02295 3.96004 0
M  V30 3133 N 283.795 -0.628877 1.44509 0
M  V30 3134 C 284.743 -1.76193 1.51852 0
M  V30 3135 C 285.737 -1.64849 0.390042 0
M  V30 3136 O 286.943 -1.709 0.565082 0
M  V30 3137 H 283.318 -0.581728 0.476547 0
M  V30 3138 H 285.289 -1.67123 2.47209 0
M  V30 3139 C 284.038 -3.14533 1.48204 0
M  V30 3140 H 283.361 -3.23911 2.34354 0
M  V30 3141 H 284.801 -3.93701 1.57402 0
M  V30 3142 C 283.26 -3.36287 0.203142 0
M  V30 3143 O 283.79 -3.9509 -0.725745 0
M  V30 3144 N 281.996 -2.90408 0.105563 0
M  V30 3145 H 281.543 -2.42739 0.862301 0
M  V30 3146 H 281.501 -3.05339 -0.749371 0
M  V30 3147 N 285.273 -1.31445 -0.869486 0
M  V30 3148 C 286.236 -1.19094 -1.9583 0
M  V30 3149 C 287.236 -0.117906 -1.60367 0
M  V30 3150 O 288.426 -0.367208 -1.70286 0
M  V30 3151 C 285.558 -0.828165 -3.30688 0
M  V30 3152 H 286.751 -2.15842 -2.08212 0
M  V30 3153 H 284.304 -1.15063 -1.05784 0
M  V30 3154 H 285.039 0.138142 -3.24006 0
M  V30 3155 H 284.824 -1.6038 -3.578 0
M  V30 3156 H 286.314 -0.765658 -4.10521 0
M  V30 3157 N 286.751 1.08385 -1.14413 0
M  V30 3158 C 287.681 2.17321 -0.854044 0
M  V30 3159 C 288.662 1.69024 0.191049 0
M  V30 3160 O 289.847 1.94141 0.0476779 0
M  V30 3161 C 286.977 3.45719 -0.330983 0
M  V30 3162 C 285.931 4.07409 -1.31155 0
M  V30 3163 C 285.257 5.30762 -0.64778 0
M  V30 3164 C 286.557 4.48665 -2.67388 0
M  V30 3165 H 288.251 2.41845 -1.76498 0
M  V30 3166 H 285.797 1.16233 -0.850051 0
M  V30 3167 H 287.75 4.21241 -0.115645 0
M  V30 3168 H 286.474 3.2075 0.615381 0
M  V30 3169 H 285.133 3.33919 -1.51306 0
M  V30 3170 H 284.781 5.02078 0.304398 0
M  V30 3171 H 284.481 5.72992 -1.30207 0
M  V30 3172 H 286.005 6.08998 -0.441972 0
M  V30 3173 H 287.419 5.15364 -2.51143 0
M  V30 3174 H 285.816 5.01814 -3.29093 0
M  V30 3175 H 286.886 3.60543 -3.24248 0
M  V30 3176 N 288.23 0.939286 1.26551 0
M  V30 3177 C 289.476 0.596234 1.94465 0
M  V30 3178 C 289.831 -0.855013 1.72358 0
M  V30 3179 O 289.124 -1.6034 1.04889 0
M  V30 3180 C 289.318 0.872106 3.46596 0
M  V30 3181 C 289.147 2.34862 3.83497 0
M  V30 3182 C 287.917 3.00344 4.06352 0
M  V30 3183 C 290.115 3.32697 3.92195 0
M  V30 3184 N 288.097 4.38027 4.30123 0
M  V30 3185 C 289.468 4.55631 4.20476 0
M  V30 3186 C 291.523 3.27747 3.74815 0
M  V30 3187 C 290.226 5.74233 4.33185 0
M  V30 3188 C 292.252 4.45672 3.88755 0
M  V30 3189 C 291.614 5.67388 4.17433 0
M  V30 3190 H 287.713 0.268515 0.734455 0
M  V30 3191 H 290.297 1.2083 1.5267 0
M  V30 3192 H 288.468 0.289102 3.87323 0
M  V30 3193 H 290.2 0.490513 4.01716 0
M  V30 3194 H 286.955 2.50969 4.01636 0
M  V30 3195 H 287.379 5.09288 4.46044 0
M  V30 3196 H 292.021 2.34703 3.51673 0
M  V30 3197 H 289.739 6.67731 4.55149 0
M  V30 3198 H 293.325 4.43372 3.76713 0
M  V30 3199 H 292.205 6.57115 4.27983 0
M  V30 3200 N 289.708 -1.40897 0.706093 0
M  V30 3201 C 290.638 -2.33418 0.0620085 0
M  V30 3202 C 291.619 -1.52385 -0.755827 0
M  V30 3203 O 292.804 -1.80886 -0.706674 0
M  V30 3204 C 289.934 -3.36293 -0.867445 0
M  V30 3205 C 288.888 -4.27716 -0.155932 0
M  V30 3206 C 288.214 -5.2105 -1.20046 0
M  V30 3207 C 289.514 -5.12944 0.984149 0
M  V30 3208 H 291.208 -2.87527 0.83477 0
M  V30 3209 H 288.754 -1.38249 0.402875 0
M  V30 3210 H 290.707 -3.99949 -1.32735 0
M  V30 3211 H 289.431 -2.80556 -1.67199 0
M  V30 3212 H 288.09 -3.65498 0.284047 0
M  V30 3213 H 287.738 -4.61624 -1.99781 0
M  V30 3214 H 287.438 -5.83056 -0.729328 0
M  V30 3215 H 288.962 -5.87584 -1.66066 0
M  V30 3216 H 290.376 -5.70109 0.604048 0
M  V30 3217 H 288.773 -5.83945 1.38304 0
M  V30 3218 H 289.843 -4.49485 1.81911 0
M  V30 3219 N 291.186 -0.45159 -1.50991 0
M  V30 3220 C 292.432 0.110237 -2.025 0
M  V30 3221 C 292.765 1.41109 -1.33424 0
M  V30 3222 O 292.04 1.89135 -0.453659 0
M  V30 3223 C 292.323 0.314271 -3.58726 0
M  V30 3224 C 292.176 -1.00623 -4.38401 0
M  V30 3225 C 293.495 1.07767 -4.26702 0
M  V30 3226 H 290.614 0.0385897 -0.735989 0
M  V30 3227 H 293.256 -0.593374 -1.80497 0
M  V30 3228 H 291.406 0.913601 -3.77605 0
M  V30 3229 H 293.078 -1.64064 -4.31139 0
M  V30 3230 H 291.321 -1.6075 -4.02917 0
M  V30 3231 H 291.992 -0.817341 -5.45915 0
M  V30 3232 H 294.468 0.56986 -4.12179 0
M  V30 3233 H 293.344 1.18921 -5.35863 0
M  V30 3234 H 293.605 2.10939 -3.88532 0
M  V30 3235 N 292.664 1.56529 -0.183458 0
M  V30 3236 C 293.594 2.21549 0.737456 0
M  V30 3237 C 294.575 1.17489 1.23005 0
M  V30 3238 O 295.76 1.45959 1.281 0
M  V30 3239 C 292.89 2.86575 1.96194 0
M  V30 3240 C 291.844 3.96778 1.60473 0
M  V30 3241 C 291.17 4.48911 2.90487 0
M  V30 3242 C 292.47 5.15767 0.823497 0
M  V30 3243 H 294.164 2.98761 0.195453 0
M  V30 3244 H 291.71 1.43702 0.0925686 0
M  V30 3245 H 293.663 3.30739 2.61131 0
M  V30 3246 H 292.387 2.06749 2.52828 0
M  V30 3247 H 291.046 3.53286 0.978997 0
M  V30 3248 H 290.694 3.65862 3.45186 0
M  V30 3249 H 290.394 5.23265 2.67335 0
M  V30 3250 H 291.918 4.95771 3.56432 0
M  V30 3251 H 293.332 5.56549 1.37571 0
M  V30 3252 H 291.729 5.96114 0.690551 0
M  V30 3253 H 292.799 4.84574 -0.177782 0
M  V30 3254 N 294.142 -0.090211 1.57342 0
M  V30 3255 C 295.553 -0.644173 1.75235 0
M  V30 3256 C 295.904 -1.78865 0.806335 0
M  V30 3257 O 295.029 -2.16395 -0.0140128 0
M  V30 3258 C 295.624 -1.17532 3.1776 0
M  V30 3259 C 294.183 -1.67531 3.37061 0
M  V30 3260 C 293.33 -0.58693 2.71017 0
M  V30 3261 H 296.281 0.135884 1.58117 0
M  V30 3262 H 296.302 -2.04455 3.20902 0
M  V30 3263 H 295.814 -0.342138 3.86589 0
M  V30 3264 H 293.915 -2.53234 2.73319 0
M  V30 3265 H 294.028 -1.76493 4.45406 0
M  V30 3266 H 292.392 -1.02756 2.33052 0
M  V30 3267 H 293.175 0.235758 3.4249 0
M  V30 3268 N 295.62 -1.53406 -0.361157 0
M  V30 3269 C 296.868 -1.69467 -1.10115 0
M  V30 3270 C 297.189 -0.451352 -1.89705 0
M  V30 3271 O 296.459 0.534636 -1.88463 0
M  V30 3272 H 295.039 -0.624749 -0.409508 0
M  V30 3273 H 297.701 -1.90609 -0.406699 0
M  V30 3274 H 296.797 -2.55774 -1.78847 0
M  V30 3275 N 297.098 0.621204 -1.44841 0
M  V30 3276 C 298.344 1.3826 -1.48365 0
M  V30 3277 C 298.677 1.93831 -0.119624 0
M  V30 3278 O 297.952 1.74251 0.864111 0
M  V30 3279 C 298.235 2.54058 -2.55199 0
M  V30 3280 C 298.088 2.03772 -4.00995 0
M  V30 3281 C 299.407 3.56225 -2.58442 0
M  V30 3282 H 296.526 0.501374 -0.540179 0
M  V30 3283 H 299.168 0.7015 -1.76576 0
M  V30 3284 H 297.318 3.12162 -2.31274 0
M  V30 3285 H 298.99 1.50423 -4.36086 0
M  V30 3286 H 297.233 1.34876 -4.12299 0
M  V30 3287 H 297.904 2.87185 -4.71411 0
M  V30 3288 H 300.38 3.07939 -2.79844 0
M  V30 3289 H 299.256 4.34756 -3.3508 0
M  V30 3290 H 299.517 4.10949 -1.63013 0
M  V30 3291 N 298.576 1.31904 0.862503 0
M  V30 3292 C 299.506 1.22782 1.98612 0
M  V30 3293 C 300.487 0.113362 1.69722 0
M  V30 3294 O 301.672 0.299218 1.91881 0
M  V30 3295 C 298.802 0.942058 3.34279 0
M  V30 3296 C 297.756 2.0169 3.77499 0
M  V30 3297 C 297.082 1.58369 5.10709 0
M  V30 3298 C 298.382 3.43096 3.93805 0
M  V30 3299 H 300.076 2.16788 2.06502 0
M  V30 3300 H 297.622 1.04366 0.992154 0
M  V30 3301 H 299.575 0.864818 4.1243 0
M  V30 3302 H 298.299 -0.0336603 3.26583 0
M  V30 3303 H 296.958 2.08416 3.01593 0
M  V30 3304 H 296.606 0.595628 4.99461 0
M  V30 3305 H 296.306 2.30279 5.40597 0
M  V30 3306 H 297.83 1.52067 5.91361 0
M  V30 3307 H 299.244 3.39003 4.62331 0
M  V30 3308 H 297.641 4.13288 4.35101 0
M  V30 3309 H 298.711 3.83334 2.96957 0
M  V30 3310 N 300.054 -1.07777 1.14986 0
M  V30 3311 C 301.3 -1.80557 0.923422 0
M  V30 3312 C 301.633 -1.86298 -0.548337 0
M  V30 3313 O 300.908 -1.34354 -1.40639 0
M  V30 3314 C 301.191 -3.25839 1.53299 0
M  V30 3315 C 301.044 -3.28269 3.07505 0
M  V30 3316 C 302.363 -4.22991 1.21518 0
M  V30 3317 H 299.482 -0.655493 0.336894 0
M  V30 3318 H 302.124 -1.26144 1.42083 0
M  V30 3319 H 300.274 -3.72306 1.10999 0
M  V30 3320 H 301.946 -2.90079 3.58681 0
M  V30 3321 H 300.189 -2.67355 3.4162 0
M  V30 3322 H 300.86 -4.30691 3.45266 0
M  V30 3323 H 303.336 -3.84894 1.581 0
M  V30 3324 H 302.212 -5.22945 1.66793 0
M  V30 3325 H 302.473 -4.41904 0.131505 0
M  V30 3326 N 301.532 -0.945985 -1.26051 0
M  V30 3327 C 302.462 -0.477172 -2.28572 0
M  V30 3328 C 303.443 0.472032 -1.63419 0
M  V30 3329 O 304.628 0.372853 -1.90587 0
M  V30 3330 C 301.758 0.253975 -3.4637 0
M  V30 3331 C 300.712 -0.609135 -4.23643 0
M  V30 3332 C 300.038 0.252252 -5.34105 0
M  V30 3333 C 301.338 -1.8829 -4.8718 0
M  V30 3334 H 303.032 -1.33402 -2.68038 0
M  V30 3335 H 300.578 -0.642904 -1.28852 0
M  V30 3336 H 302.531 0.593016 -4.17207 0
M  V30 3337 H 301.255 1.145 -3.05871 0
M  V30 3338 H 299.914 -0.931138 -3.54578 0
M  V30 3339 H 299.562 1.14278 -4.89846 0
M  V30 3340 H 299.262 -0.32188 -5.86718 0
M  V30 3341 H 300.786 0.586454 -6.07777 0
M  V30 3342 H 302.2 -1.61081 -5.50205 0
M  V30 3343 H 300.597 -2.40199 -5.49931 0
M  V30 3344 H 301.667 -2.59134 -4.09851 0
M  V30 3345 N 303.011 1.40521 -0.713556 0
M  V30 3346 C 304.288 1.94775 -0.17943 0
M  V30 3347 C 304.668 1.65184 1.31444 0
M  V30 3348 O 304.016 0.968429 2.06963 0
M  V30 3349 C 304.226 3.45543 -0.489986 0
M  V30 3350 C 305.574 4.22442 -0.427536 0
M  V30 3351 O 306.598 3.53644 -0.425929 0
M  V30 3352 O 305.457 5.4501 -0.403292 0
M  V30 3353 H 302.551 0.826606 -0.0255192 0
M  V30 3354 H 305.097 1.5014 -0.790949 0
M  V30 3355 H 303.869 3.60432 -1.5233 0
M  V30 3356 H 303.492 3.97311 0.151598 0
M  V30 3357 N 304.489 0.459591 1.5075 0
M  V30 3358 C 305.452 -0.329093 2.26825 0
M  V30 3359 C 306.452 -0.930481 1.31144 0
M  V30 3360 O 307.642 -0.801453 1.54669 0
M  V30 3361 C 304.774 -1.46768 3.07688 0
M  V30 3362 H 305.967 0.337924 2.9799 0
M  V30 3363 H 303.52 0.213336 1.54837 0
M  V30 3364 H 304.255 -2.17009 2.40993 0
M  V30 3365 H 304.04 -1.04238 3.77991 0
M  V30 3366 H 305.53 -2.02433 3.65254 0
M  V30 3367 N 305.967 -1.56429 0.191757 0
M  V30 3368 C 307.213 -1.97777 -0.448554 0
M  V30 3369 C 307.546 -1.07847 -1.61501 0
M  V30 3370 O 306.821 -0.129774 -1.94067 0
M  V30 3371 C 307.104 -3.48362 -0.911906 0
M  V30 3372 C 306.957 -4.4907 0.256136 0
M  V30 3373 C 308.276 -4.02561 -1.77857 0
M  V30 3374 H 305.395 -0.719071 -0.161572 0
M  V30 3375 H 308.037 -1.87896 0.282007 0
M  V30 3376 H 306.187 -3.56914 -1.53442 0
M  V30 3377 H 307.859 -4.5256 0.893733 0
M  V30 3378 H 306.102 -4.24181 0.908436 0
M  V30 3379 H 306.773 -5.51889 -0.11053 0
M  V30 3380 H 309.249 -3.96767 -1.25359 0
M  V30 3381 H 308.125 -5.08301 -2.07174 0
M  V30 3382 H 308.386 -3.47616 -2.73158 0
M  V30 3383 N 307.445 0.0818655 -1.57387 0
M  V30 3384 C 308.392 1.09834 -2.0299 0
M  V30 3385 C 309.362 1.39043 -0.908639 0
M  V30 3386 O 310.547 1.50282 -1.17559 0
M  V30 3387 C 307.687 2.40971 -2.47037 0
M  V30 3388 C 306.8 2.18379 -3.7274 0
M  V30 3389 C 305.935 3.43008 -4.0561 0
M  V30 3390 C 304.974 3.15736 -5.24383 0
M  V30 3391 N 304.111 4.32667 -5.52941 0
M  V30 3392 H 308.951 0.702472 -2.89602 0
M  V30 3393 H 306.488 0.33531 -1.43227 0
M  V30 3394 H 308.446 3.1752 -2.70623 0
M  V30 3395 H 307.076 2.78379 -1.63417 0
M  V30 3396 H 306.128 1.32569 -3.56552 0
M  V30 3397 H 307.44 1.94227 -4.59431 0
M  V30 3398 H 306.594 4.27958 -4.30043 0
M  V30 3399 H 305.333 3.70225 -3.17466 0
M  V30 3400 H 304.338 2.2918 -4.99757 0
M  V30 3401 H 305.563 2.8985 -6.14136 0
M  V30 3402 H 303.509 4.59935 -4.67756 0
M  V30 3403 H 303.426 4.11753 -6.34031 0
M  V30 3404 H 304.694 5.18644 -5.81918 0
M  V30 3405 N 308.923 1.53595 0.353017 0
M  V30 3406 C 309.873 1.77299 1.43349 0
M  V30 3407 C 310.857 0.627884 1.48143 0
M  V30 3408 O 312.049 0.88697 1.53173 0
M  V30 3409 C 309.178 1.97757 2.80619 0
M  V30 3410 C 308.264 3.18305 2.80254 0
M  V30 3411 N 308.655 4.39967 2.49526 0
M  V30 3412 C 306.953 3.19283 3.11407 0
M  V30 3413 C 307.654 5.21772 2.57156 0
M  V30 3414 N 306.63 4.58269 2.92388 0
M  V30 3415 H 310.432 2.68963 1.18474 0
M  V30 3416 H 307.946 1.52391 0.561306 0
M  V30 3417 H 309.943 2.1287 3.58458 0
M  V30 3418 H 308.603 1.07329 3.06448 0
M  V30 3419 H 309.614 4.67482 2.22893 0
M  V30 3420 H 306.291 2.3879 3.4247 0
M  V30 3421 H 307.681 6.2885 2.36638 0
M  V30 3422 N 310.401 -0.613514 1.45168 0
M  V30 3423 C 311.331 -1.7354 1.56225 0
M  V30 3424 C 312.312 -1.64981 0.41414 0
M  V30 3425 O 313.497 -1.83472 0.636526 0
M  V30 3426 C 310.627 -3.12128 1.52295 0
M  V30 3427 C 309.581 -3.35491 2.65762 0
M  V30 3428 C 308.907 -4.74291 2.46885 0
M  V30 3429 C 310.207 -3.26325 4.0781 0
M  V30 3430 H 311.901 -1.64543 2.50132 0
M  V30 3431 H 309.447 -0.790185 1.20383 0
M  V30 3432 H 311.4 -3.90404 1.58628 0
M  V30 3433 H 310.124 -3.2195 0.549139 0
M  V30 3434 H 308.783 -2.59603 2.58847 0
M  V30 3435 H 308.431 -4.80839 1.47657 0
M  V30 3436 H 308.131 -4.9088 3.22972 0
M  V30 3437 H 309.655 -5.54775 2.55063 0
M  V30 3438 H 311.069 -3.94483 4.16 0
M  V30 3439 H 309.466 -3.54445 4.8424 0
M  V30 3440 H 310.536 -2.23855 4.30136 0
M  V30 3441 N 311.879 -1.3236 -0.855495 0
M  V30 3442 C 313.107 -1.2587 -1.64208 0
M  V30 3443 C 313.522 0.173457 -1.88002 0
M  V30 3444 O 312.879 1.11027 -1.44842 0
M  V30 3445 C 312.93 -2.01424 -3.00184 0
M  V30 3446 O 312.651 -3.39051 -2.77445 0
M  V30 3447 C 314.152 -2.01948 -3.94629 0
M  V30 3448 H 311.372 -0.434318 -0.511477 0
M  V30 3449 H 313.916 -1.74469 -1.0668 0
M  V30 3450 H 312.071 -1.56549 -3.5436 0
M  V30 3451 H 312.485 -3.77711 -3.63916 0
M  V30 3452 H 313.959 -2.59297 -4.87308 0
M  V30 3453 H 314.436 -1.00554 -4.27534 0
M  V30 3454 H 315.042 -2.46767 -3.4639 0
M  V30 3455 N 313.357 1.07166 -1.15556 0
M  V30 3456 C 314.307 2.12649 -0.82247 0
M  V30 3457 C 315.291 1.59725 0.194129 0
M  V30 3458 O 316.483 1.76999 -0.00540402 0
M  V30 3459 C 313.612 3.41847 -0.315572 0
M  V30 3460 C 312.698 4.0162 -1.36244 0
M  V30 3461 N 313.089 4.35625 -2.5703 0
M  V30 3462 C 311.387 4.29114 -1.21562 0
M  V30 3463 C 312.088 4.83017 -3.24144 0
M  V30 3464 N 311.064 4.81906 -2.51531 0
M  V30 3465 H 314.866 2.36776 -1.74111 0
M  V30 3466 H 312.38 1.24622 -1.0413 0
M  V30 3467 H 314.377 4.16859 -0.0585855 0
M  V30 3468 H 313.037 3.19163 0.597105 0
M  V30 3469 H 314.048 4.26253 -2.94158 0
M  V30 3470 H 310.725 4.15919 -0.362988 0
M  V30 3471 H 312.115 5.18605 -4.27198 0
M  V30 3472 N 314.835 0.952656 1.25548 0
M  V30 3473 C 315.798 0.475794 2.24207 0
M  V30 3474 C 316.798 -0.419428 1.55234 0
M  V30 3475 O 317.988 -0.216994 1.72843 0
M  V30 3476 C 315.12 -0.312814 3.39462 0
M  V30 3477 H 316.313 1.34779 2.67908 0
M  V30 3478 H 313.866 0.735739 1.37901 0
M  V30 3479 H 314.601 -1.20257 3.01179 0
M  V30 3480 H 314.386 0.329404 3.90714 0
M  V30 3481 H 315.876 -0.635986 4.12729 0
M  V30 3482 N 316.313 -1.40141 0.720998 0
M  V30 3483 C 317.245 -2.29177 0.0324669 0
M  V30 3484 C 318.258 -1.46105 -0.718126 0
M  V30 3485 O 319.447 -1.69335 -0.564608 0
M  V30 3486 C 316.547 -3.24473 -0.978292 0
M  V30 3487 C 315.72 -4.36423 -0.292115 0
M  V30 3488 C 314.779 -5.12122 -1.20901 0
M  V30 3489 O 313.805 -5.64981 -0.691766 0
M  V30 3490 N 315.007 -5.21992 -2.53978 0
M  V30 3491 H 317.772 -2.88909 0.796984 0
M  V30 3492 H 315.333 -1.51569 0.569068 0
M  V30 3493 H 317.325 -3.71987 -1.59398 0
M  V30 3494 H 315.895 -2.65871 -1.64413 0
M  V30 3495 H 315.115 -3.90967 0.503847 0
M  V30 3496 H 316.403 -5.08467 0.183971 0
M  V30 3497 H 315.801 -4.8054 -2.98493 0
M  V30 3498 H 314.358 -5.72995 -3.10677 0
M  V30 3499 N 317.792 -0.46758 -1.50504 0
M  V30 3500 C 319.017 0.0886943 -2.0721 0
M  V30 3501 C 319.442 1.33057 -1.32956 0
M  V30 3502 O 318.8 1.77354 -0.376197 0
M  V30 3503 C 318.848 0.359202 -3.58806 0
M  V30 3504 O 317.952 1.44034 -3.8643 0
M  V30 3505 H 317.293 -0.0114349 -0.663902 0
M  V30 3506 H 319.823 -0.657613 -1.93744 0
M  V30 3507 H 319.833 0.600742 -4.03553 0
M  V30 3508 H 318.508 -0.548311 -4.1227 0
M  V30 3509 H 317.085 1.18638 -3.53524 0
M  V30 3510 N 319.27 1.56325 -0.20005 0
M  V30 3511 C 320.498 2.02105 0.442874 0
M  V30 3512 C 320.913 1.08014 1.5485 0
M  V30 3513 O 320.27 0.0858797 1.82298 0
M  V30 3514 C 320.321 3.47549 0.994583 0
M  V30 3515 O 320.042 4.38049 -0.0669322 0
M  V30 3516 C 321.543 4.0887 1.7129 0
M  V30 3517 H 318.763 0.661807 0.110691 0
M  V30 3518 H 321.307 2.02134 -0.310207 0
M  V30 3519 H 319.462 3.48204 1.69803 0
M  V30 3520 H 319.876 5.23368 0.344462 0
M  V30 3521 H 321.35 5.12475 2.05118 0
M  V30 3522 H 321.827 3.52615 2.61838 0
M  V30 3523 H 322.433 4.12002 1.05518 0
M  V30 3524 N 320.748 -0.0735177 1.57428 0
M  V30 3525 C 321.678 -1.0879 2.06608 0
M  V30 3526 C 322.659 -1.40473 0.959237 0
M  V30 3527 O 323.844 -1.5013 1.23185 0
M  V30 3528 C 320.974 -2.40183 2.50857 0
M  V30 3529 C 319.928 -2.22858 3.65402 0
M  V30 3530 C 319.254 -3.59619 3.957 0
M  V30 3531 C 320.554 -1.65123 4.95511 0
M  V30 3532 H 322.248 -0.678673 2.91607 0
M  V30 3533 H 319.794 -0.325013 1.40284 0
M  V30 3534 H 321.747 -3.11437 2.83874 0
M  V30 3535 H 320.471 -2.83083 1.62885 0
M  V30 3536 H 319.13 -1.54045 3.32664 0
M  V30 3537 H 318.778 -4.00086 3.04861 0
M  V30 3538 H 318.478 -3.48866 4.72828 0
M  V30 3539 H 320.002 -4.32306 4.31212 0
M  V30 3540 H 321.416 -2.26241 5.26771 0
M  V30 3541 H 319.813 -1.65071 5.7695 0
M  V30 3542 H 320.883 -0.612559 4.81015 0
M  V30 3543 N 322.226 -1.5378 -0.344866 0
M  V30 3544 C 323.503 -1.61589 -1.10219 0
M  V30 3545 C 323.883 -0.436316 -2.06542 0
M  V30 3546 O 323.231 0.571543 -2.21237 0
M  V30 3547 C 323.441 -2.97602 -1.82301 0
M  V30 3548 C 324.789 -3.5291 -2.36093 0
M  V30 3549 O 325.813 -2.99768 -1.924 0
M  V30 3550 O 324.672 -4.45859 -3.16026 0
M  V30 3551 H 321.766 -0.653522 -0.506792 0
M  V30 3552 H 324.312 -1.66126 -0.346465 0
M  V30 3553 H 323.084 -3.74893 -1.12121 0
M  V30 3554 H 322.707 -2.9665 -2.64735 0
M  V30 3555 N 323.704 0.605807 -1.45491 0
M  V30 3556 C 324.667 1.69836 -1.5391 0
M  V30 3557 C 325.667 1.55261 -0.418424 0
M  V30 3558 O 326.857 1.60296 -0.681965 0
M  V30 3559 C 323.989 3.09117 -1.43734 0
M  V30 3560 H 325.182 1.63738 -2.51257 0
M  V30 3561 H 322.735 0.821689 -1.32959 0
M  V30 3562 H 323.47 3.20791 -0.475788 0
M  V30 3563 H 323.255 3.21104 -2.25021 0
M  V30 3564 H 324.745 3.88696 -1.52661 0
M  V30 3565 N 325.182 1.32811 0.848464 0
M  V30 3566 C 326.129 1.22265 1.95755 0
M  V30 3567 C 327.099 0.103413 1.65778 0
M  V30 3568 O 328.284 0.280033 1.88734 0
M  V30 3569 C 325.424 0.958014 3.31536 0
M  V30 3570 C 324.537 2.16262 3.73971 0
M  V30 3571 C 323.672 1.83295 4.98575 0
M  V30 3572 C 322.711 3.00041 5.33518 0
M  V30 3573 N 321.848 2.67125 6.49299 0
M  V30 3574 H 326.688 2.17128 2.04107 0
M  V30 3575 H 324.225 1.07982 0.998913 0
M  V30 3576 H 326.183 0.785052 4.09747 0
M  V30 3577 H 324.813 0.046159 3.22767 0
M  V30 3578 H 323.865 2.44565 2.91362 0
M  V30 3579 H 325.177 3.03572 3.95785 0
M  V30 3580 H 324.331 1.62586 5.84509 0
M  V30 3581 H 323.07 0.932078 4.7871 0
M  V30 3582 H 322.075 3.21374 4.46093 0
M  V30 3583 H 323.3 3.90869 5.55336 0
M  V30 3584 H 321.246 1.79586 6.3094 0
M  V30 3585 H 321.163 3.47965 6.71161 0
M  V30 3586 H 322.431 2.49861 7.3837 0
M  V30 3587 N 326.66 -1.06551 1.16123 0
M  V30 3588 C 327.623 -2.12132 0.867906 0
M  V30 3589 C 328.623 -1.60224 -0.135944 0
M  V30 3590 O 329.813 -1.73943 0.0946422 0
M  V30 3591 C 326.945 -3.396 0.297419 0
M  V30 3592 H 328.138 -2.39586 1.80385 0
M  V30 3593 H 325.691 -1.22574 0.969812 0
M  V30 3594 H 326.426 -3.17794 -0.64633 0
M  V30 3595 H 326.211 -3.78581 1.02073 0
M  V30 3596 H 327.701 -4.17455 0.110052 0
M  V30 3597 N 328.138 -0.959301 -1.25041 0
M  V30 3598 C 329.366 -0.633949 -1.96948 0
M  V30 3599 C 329.781 0.794916 -1.7125 0
M  V30 3600 O 329.138 1.53231 -0.991287 0
M  V30 3601 C 329.189 -0.888805 -3.50403 0
M  V30 3602 O 328.91 -2.26149 -3.75218 0
M  V30 3603 C 330.411 -0.576482 -4.39536 0
M  V30 3604 H 327.631 -0.237263 -0.627652 0
M  V30 3605 H 330.175 -1.28495 -1.59089 0
M  V30 3606 H 328.33 -0.284145 -3.86357 0
M  V30 3607 H 328.744 -2.33514 -4.6965 0
M  V30 3608 H 330.218 -0.805314 -5.46094 0
M  V30 3609 H 330.695 0.489075 -4.36468 0
M  V30 3610 H 331.301 -1.16067 -4.09156 0
M  V30 3611 N 329.616 1.39756 -0.72842 0
M  V30 3612 C 330.563 2.30647 -0.0841519 0
M  V30 3613 C 331.533 1.48869 0.7367 0
M  V30 3614 O 332.718 1.77574 0.698015 0
M  V30 3615 C 329.858 3.35165 0.822091 0
M  V30 3616 C 328.971 4.31999 -0.0106663 0
M  V30 3617 C 328.106 5.23585 0.896241 0
M  V30 3618 C 327.145 6.12072 0.0583381 0
M  V30 3619 N 326.282 6.96035 0.920818 0
M  V30 3620 H 331.122 2.85173 -0.864891 0
M  V30 3621 H 328.659 1.40422 -0.438179 0
M  V30 3622 H 330.617 3.94345 1.36189 0
M  V30 3623 H 329.247 2.8211 1.56888 0
M  V30 3624 H 328.299 3.74492 -0.66781 0
M  V30 3625 H 329.611 4.9443 -0.658825 0
M  V30 3626 H 328.765 5.87759 1.50412 0
M  V30 3627 H 327.504 4.61459 1.57819 0
M  V30 3628 H 326.509 5.46916 -0.562389 0
M  V30 3629 H 327.734 6.76261 -0.6203 0
M  V30 3630 H 325.68 6.36485 1.58818 0
M  V30 3631 H 325.597 7.55284 0.32899 0
M  V30 3632 H 326.865 7.64646 1.51447 0
M  V30 3633 N 331.094 0.475555 1.50254 0
M  V30 3634 C 332.057 -0.305016 2.27161 0
M  V30 3635 C 333.057 -0.916519 1.32123 0
M  V30 3636 O 334.247 -0.785003 1.5551 0
M  V30 3637 C 331.379 -1.43496 3.09227 0
M  V30 3638 H 332.572 0.369511 2.97615 0
M  V30 3639 H 330.125 0.229747 1.54602 0
M  V30 3640 H 330.86 -2.14441 2.43281 0
M  V30 3641 H 330.645 -1.00223 3.79075 0
M  V30 3642 H 332.135 -1.98548 3.67381 0
M  V30 3643 N 332.573 -1.56217 0.208337 0
M  V30 3644 C 333.52 -2.19699 -0.707192 0
M  V30 3645 C 334.49 -1.14836 -1.20008 0
M  V30 3646 O 335.675 -1.4314 -1.26157 0
M  V30 3647 C 332.815 -2.87061 -1.91546 0
M  V30 3648 C 331.928 -4.06483 -1.46271 0
M  V30 3649 C 331.063 -4.61665 -2.62752 0
M  V30 3650 C 330.102 -5.73417 -2.14147 0
M  V30 3651 N 329.239 -6.22948 -3.23853 0
M  V30 3652 H 334.079 -2.97575 -0.159111 0
M  V30 3653 H 331.616 -1.46948 -0.0667874 0
M  V30 3654 H 333.574 -3.24294 -2.62468 0
M  V30 3655 H 332.204 -2.11725 -2.43664 0
M  V30 3656 H 331.256 -3.74825 -0.648886 0
M  V30 3657 H 332.568 -4.87271 -1.06622 0
M  V30 3658 H 331.722 -5.01272 -3.41776 0
M  V30 3659 H 330.461 -3.80013 -3.05682 0
M  V30 3660 H 329.466 -5.33326 -1.33581 0
M  V30 3661 H 330.691 -6.56897 -1.72232 0
M  V30 3662 H 328.637 -5.44213 -3.6629 0
M  V30 3663 H 328.554 -6.98823 -2.88414 0
M  V30 3664 H 329.822 -6.6721 -4.03052 0
M  V30 3665 N 334.051 0.0651679 -1.57465 0
M  V30 3666 C 335.276 0.779605 -1.9219 0
M  V30 3667 C 335.701 1.69988 -0.805333 0
M  V30 3668 O 335.059 1.79685 0.241435 0
M  V30 3669 C 335.107 1.54364 -3.2589 0
M  V30 3670 O 334.211 2.65474 -3.1559 0
M  V30 3671 H 333.552 0.212249 -0.629163 0
M  V30 3672 H 336.082 0.0314294 -2.04576 0
M  V30 3673 H 336.092 1.92146 -3.59922 0
M  V30 3674 H 334.767 0.868457 -4.06732 0
M  V30 3675 H 333.344 2.30501 -2.93128 0
M  V30 3676 N 335.529 1.53961 0.336706 0
M  V30 3677 C 336.476 1.82428 1.41381 0
M  V30 3678 C 337.446 0.670444 1.51968 0
M  V30 3679 O 338.631 0.915565 1.67398 0
M  V30 3680 C 335.771 2.04564 2.77934 0
M  V30 3681 C 334.884 3.32267 2.76084 0
M  V30 3682 C 334.019 3.44434 4.04399 0
M  V30 3683 C 333.058 4.66061 3.96804 0
M  V30 3684 N 332.195 4.75224 5.16823 0
M  V30 3685 H 337.035 2.74324 1.16405 0
M  V30 3686 H 334.572 1.35869 0.563752 0
M  V30 3687 H 336.53 2.15388 3.57301 0
M  V30 3688 H 335.16 1.15974 3.01247 0
M  V30 3689 H 334.212 3.3025 1.88784 0
M  V30 3690 H 335.524 4.21733 2.66351 0
M  V30 3691 H 334.678 3.54728 4.92192 0
M  V30 3692 H 333.417 2.53037 4.16921 0
M  V30 3693 H 332.422 4.55838 3.07396 0
M  V30 3694 H 333.647 5.58829 3.85858 0
M  V30 3695 H 331.593 3.86739 5.29876 0
M  V30 3696 H 331.51 5.58636 5.09374 0
M  V30 3697 H 332.778 4.89835 6.06367 0
M  V30 3698 N 337.007 -0.598083 1.45811 0
M  V30 3699 C 337.954 -1.7082 1.55207 0
M  V30 3700 C 338.924 -1.61278 0.39732 0
M  V30 3701 O 340.109 -1.80717 0.612038 0
M  V30 3702 C 337.249 -3.09144 1.53376 0
M  V30 3703 C 336.362 -3.29423 2.79472 0
M  V30 3704 C 335.497 -4.57907 2.69248 0
M  V30 3705 C 334.536 -4.71476 3.90354 0
M  V30 3706 N 333.673 -5.9127 3.78608 0
M  V30 3707 H 338.513 -1.62125 2.50039 0
M  V30 3708 H 336.05 -0.790389 1.24062 0
M  V30 3709 H 338.008 -3.89186 1.50301 0
M  V30 3710 H 336.638 -3.16773 0.620876 0
M  V30 3711 H 335.69 -2.43091 2.92594 0
M  V30 3712 H 337.002 -3.3532 3.69272 0
M  V30 3713 H 336.156 -5.46157 2.64192 0
M  V30 3714 H 334.895 -4.54423 1.77063 0
M  V30 3715 H 333.9 -3.81648 3.95759 0
M  V30 3716 H 335.125 -4.76751 4.83617 0
M  V30 3717 H 333.071 -5.88813 2.89199 0
M  V30 3718 H 332.988 -5.98369 4.6205 0
M  V30 3719 H 334.256 -6.81992 3.77501 0
M  V30 3720 N 338.485 -1.33259 -0.841409 0
M  V30 3721 C 339.433 -1.23279 -1.97244 0
M  V30 3722 C 340.427 -0.134706 -1.68864 0
M  V30 3723 O 341.633 -0.298501 -1.77508 0
M  V30 3724 H 338.008 -0.382497 -0.647457 0
M  V30 3725 H 339.979 -2.18906 -2.02787 0
M  V30 3726 C 338.728 -0.986268 -3.33419 0
M  V30 3727 H 338.051 -1.82347 -3.55794 0
M  V30 3728 H 339.491 -0.956728 -4.13065 0
M  V30 3729 C 337.95 0.310842 -3.35463 0
M  V30 3730 O 338.48 1.31838 -3.79449 0
M  V30 3731 N 336.686 0.337485 -2.88634 0
M  V30 3732 H 336.233 -0.482967 -2.53032 0
M  V30 3733 H 336.191 1.20518 -2.90384 0
M  V30 3734 O 340.002 0.979171 -1.28431 0
M  V30 3735 H 340.693 1.60369 -1.08635 0
M  V30 END ATOM
M  V30 BEGIN BOND
M  V30 END BOND
M  V30 END CTAB
M  END
$$$$
