drugbank_target|P37321 Extended-spectrum beta-lactamase PER-1 (DB09060)
 OpenBabel12092121043D

  0  0  0     0  0            999 V3000
M  V30 BEGIN CTAB
M  V30 COUNTS 4779 4822 0 0 0
M  V30 BEGIN ATOM
M  V30 1 H -0.908 1.98254 -0.117106 0
M  V30 2 N 0 1.576 0 0
M  V30 3 C 0.933 2.03868 1.02534 0
M  V30 4 C 1.911 0.928543 1.3348 0
M  V30 5 O 3.095 1.19667 1.45644 0
M  V30 6 C 0.222 2.43627 2.35294 0
M  V30 7 C -0.732 3.65373 2.2001 0
M  V30 8 S 0.101 5.13292 1.52614 0
M  V30 9 C 1.257 5.56322 2.86805 0
M  V30 10 H 1.49 2.90518 0.631377 0
M  V30 11 H -0.977 1.52953 0.210867 0
M  V30 12 H 0.981 2.67203 3.11629 0
M  V30 13 H -0.358 1.57376 2.7183 0
M  V30 14 H -1.165 3.90944 3.18086 0
M  V30 15 H -1.563 3.418 1.51819 0
M  V30 16 H 0.729 5.58782 3.83104 0
M  V30 17 H 1.672 6.56266 2.65933 0
M  V30 18 H 2.08 4.83886 2.90714 0
M  V30 19 N 1.4781 -0.272755 1.55222 0
M  V30 20 C 2.4261 -1.35705 1.88909 0
M  V30 21 C 3.4201 -1.5112 0.765456 0
M  V30 22 O 4.6261 -1.52901 0.949802 0
M  V30 23 H 1.0011 -0.453868 0.59959 0
M  V30 24 H 2.9721 -1.04544 2.79487 0
M  V30 25 C 1.7211 -2.71049 2.17779 0
M  V30 26 H 1.0441 -2.59979 3.03728 0
M  V30 27 H 2.4841 -3.45858 2.45272 0
M  V30 28 C 0.9431 -3.22165 0.985473 0
M  V30 29 O 1.4731 -4.01096 0.220233 0
M  V30 30 N -0.3209 -2.7985 0.783108 0
M  V30 31 H -0.7739 -2.15775 1.40708 0
M  V30 32 H -0.8159 -3.14397 -0.0130392 0
M  V30 33 N 2.9562 -1.48159 -0.537278 0
M  V30 34 C 4.2022 -1.56035 -1.29541 0
M  V30 35 C 4.5352 -0.230377 -1.92829 0
M  V30 36 O 3.8102 0.762952 -1.78911 0
M  V30 37 C 4.0932 -2.69323 -2.39034 0
M  V30 38 C 3.9462 -4.12002 -1.80485 0
M  V30 39 C 5.2652 -2.78408 -3.40847 0
M  V30 40 H 2.3842 -0.567992 -0.469632 0
M  V30 41 H 5.0262 -1.80302 -0.599277 0
M  V30 42 H 3.1762 -2.48763 -2.98412 0
M  V30 43 H 4.8482 -4.43981 -1.25215 0
M  V30 44 H 3.0912 -4.19344 -1.11055 0
M  V30 45 H 3.7622 -4.87077 -2.59731 0
M  V30 46 H 6.2382 -2.97012 -2.91416 0
M  V30 47 H 5.1142 -3.59416 -4.14863 0
M  V30 48 H 5.3752 -1.86269 -4.00944 0
M  V30 49 N 4.4343 0.785586 -1.36625 0
M  V30 50 C 5.6833 1.53883 -1.30396 0
M  V30 51 C 5.9963 1.95271 0.113452 0
M  V30 52 O 7.2023 2.69858 0.298142 0
M  V30 53 C 5.6583 2.77808 -2.28802 0
M  V30 54 C 5.2663 2.43574 -3.75999 0
M  V30 55 C 7.0103 3.55783 -2.31558 0
M  V30 56 C 4.9173 3.63919 -4.66173 0
M  V30 57 H 3.8473 0.577678 -0.484566 0
M  V30 58 H 6.4983 0.861705 -1.62009 0
M  V30 59 H 4.8803 3.47339 -1.90188 0
M  V30 60 H 6.0543 1.81916 -4.23371 0
M  V30 61 H 4.3693 1.78803 -3.76056 0
M  V30 62 H 6.9663 4.45205 -2.96137 0
M  V30 63 H 7.3093 3.94644 -1.3252 0
M  V30 64 H 7.8423 2.93235 -2.68809 0
M  V30 65 H 4.5813 3.3015 -5.66287 0
M  V30 66 H 4.1013 4.2473 -4.23515 0
M  V30 67 H 5.7803 4.30901 -4.82632 0
M  V30 68 N 5.9124 1.20967 1.01018 0
M  V30 69 C 7.1614 1.01796 1.74128 0
M  V30 70 C 7.4744 -0.449691 1.90361 0
M  V30 71 O 8.6804 -0.76068 2.60626 0
M  V30 72 C 7.1364 1.7727 3.13215 0
M  V30 73 C 6.7444 3.28171 3.04972 0
M  V30 74 C 8.4884 1.66489 3.90489 0
M  V30 75 C 6.3954 3.96156 4.39107 0
M  V30 76 H 5.3254 0.377276 0.652824 0
M  V30 77 H 7.9764 1.44651 1.12909 0
M  V30 78 H 6.3584 1.27205 3.75013 0
M  V30 79 H 7.5324 3.85499 2.52443 0
M  V30 80 H 5.8474 3.39437 2.41188 0
M  V30 81 H 8.4444 2.14617 4.89738 0
M  V30 82 H 8.7874 0.6222 4.11624 0
M  V30 83 H 9.3204 2.14003 3.35332 0
M  V30 84 H 6.0594 5.00604 4.23174 0
M  V30 85 H 5.5794 3.43617 4.91617 0
M  V30 86 H 7.2584 4.00774 5.07926 0
M  V30 87 N 7.3905 -1.2043 1.01659 0
M  V30 88 C 8.3375 -2.23215 0.586822 0
M  V30 89 C 9.3075 -1.61382 -0.393085 0
M  V30 90 O 10.4925 -1.88544 -0.292525 0
M  V30 91 C 7.6325 -3.45032 -0.0687464 0
M  V30 92 C 6.7455 -4.21296 0.955724 0
M  V30 93 C 5.8805 -5.30507 0.271208 0
M  V30 94 C 4.9195 -5.98515 1.28244 0
M  V30 95 N 4.0565 -6.99316 0.62459 0
M  V30 96 H 8.8965 -2.59336 1.46796 0
M  V30 97 H 6.4335 -1.27431 0.734836 0
M  V30 98 H 8.3915 -4.1459 -0.465965 0
M  V30 99 H 7.0215 -3.09604 -0.913529 0
M  V30 100 H 6.0735 -3.50803 1.4711 0
M  V30 101 H 7.3855 -4.6803 1.72479 0
M  V30 102 H 6.5395 -6.06428 -0.18151 0
M  V30 103 H 5.2785 -4.8481 -0.530163 0
M  V30 104 H 4.2835 -5.21355 1.74554 0
M  V30 105 H 5.5085 -6.46298 2.08509 0
M  V30 106 H 3.4545 -6.55812 -0.156914 0
M  V30 107 H 3.3715 -7.44178 1.33172 0
M  V30 108 H 4.6395 -7.79255 0.195462 0
M  V30 109 N 8.8686 -0.792821 -1.36206 0
M  V30 110 C 9.8316 -0.199459 -2.2833 0
M  V30 111 C 10.8316 0.605189 -1.48977 0
M  V30 112 O 12.0216 0.425685 -1.68919 0
M  V30 113 C 9.1536 0.723523 -3.33134 0
M  V30 114 H 10.3466 -1.01181 -2.82316 0
M  V30 115 H 7.8996 -0.562485 -1.45828 0
M  V30 116 H 8.6346 1.56008 -2.84309 0
M  V30 117 H 8.4196 0.148436 -3.91819 0
M  V30 118 H 9.9096 1.13344 -4.01924 0
M  V30 119 N 10.3467 1.47872 -0.545128 0
M  V30 120 C 11.5927 2.02793 -0.0166104 0
M  V30 121 C 11.9257 1.41987 1.32489 0
M  V30 122 O 11.2007 0.571045 1.85928 0
M  V30 123 C 11.4837 3.59989 0.0893294 0
M  V30 124 C 11.3367 4.3125 -1.27841 0
M  V30 125 C 12.6557 4.32606 0.808724 0
M  V30 126 H 9.7747 0.736962 -0.00751035 0
M  V30 127 H 12.4167 1.76433 -0.705085 0
M  V30 128 H 10.5667 3.82579 0.675681 0
M  V30 129 H 12.2387 4.20035 -1.90704 0
M  V30 130 H 10.4817 3.92076 -1.85632 0
M  V30 131 H 11.1527 5.39736 -1.15713 0
M  V30 132 H 13.6287 4.14936 0.310992 0
M  V30 133 H 12.5047 5.42251 0.851782 0
M  V30 134 H 12.7657 4.00963 1.86229 0
M  V30 135 N 11.8248 0.280983 1.55075 0
M  V30 136 C 13.0708 -0.33461 2.00021 0
M  V30 137 C 13.4038 -1.55063 1.16915 0
M  V30 138 O 12.6788 -1.93006 0.240646 0
M  V30 139 C 12.9618 -0.711007 3.53011 0
M  V30 140 C 12.8148 0.512766 4.46868 0
M  V30 141 C 14.1338 -1.54522 4.12081 0
M  V30 142 H 11.2528 -0.120147 0.727141 0
M  V30 143 H 13.8948 0.389097 1.85973 0
M  V30 144 H 12.0448 -1.32761 3.65112 0
M  V30 145 H 13.7168 1.15131 4.46702 0
M  V30 146 H 11.9598 1.14975 4.18286 0
M  V30 147 H 12.6308 0.205556 5.51617 0
M  V30 148 H 15.1068 -1.02442 4.03293 0
M  V30 149 H 13.9828 -1.77739 5.19327 0
M  V30 150 H 14.2438 -2.52813 3.62682 0
M  V30 151 N 13.3029 -1.57598 0.00835791 0
M  V30 152 C 14.5309 -1.95214 -0.68549 0
M  V30 153 C 14.9459 -0.883706 -1.66841 0
M  V30 154 O 14.3029 0.136565 -1.81988 0
M  V30 155 C 14.3539 -3.32865 -1.41007 0
M  V30 156 O 14.0749 -4.35609 -0.466552 0
M  V30 157 C 15.5759 -3.84991 -2.19765 0
M  V30 158 H 12.7959 -0.643422 -0.190392 0
M  V30 159 H 15.3399 -2.04406 0.0619607 0
M  V30 160 H 13.4949 -3.24956 -2.10908 0
M  V30 161 H 13.9089 -5.15288 -0.978699 0
M  V30 162 H 15.3829 -4.8371 -2.65948 0
M  V30 163 H 15.8599 -3.18137 -3.02796 0
M  V30 164 H 16.4659 -3.96103 -1.54864 0
M  V30 165 N 14.781 0.264519 -1.55364 0
M  V30 166 C 15.744 1.31046 -1.88042 0
M  V30 167 C 16.744 1.41943 -0.755569 0
M  V30 168 O 17.934 1.40947 -1.02369 0
M  V30 169 C 15.066 2.69067 -2.09323 0
M  V30 170 H 16.259 1.03297 -2.81549 0
M  V30 171 H 13.812 0.502989 -1.47986 0
M  V30 172 H 14.547 3.01982 -1.18226 0
M  V30 173 H 14.332 2.62542 -2.91229 0
M  V30 174 H 15.822 3.44623 -2.35848 0
M  V30 175 N 16.2591 1.48442 0.529413 0
M  V30 176 C 17.4841 1.60406 1.31471 0
M  V30 177 C 17.9091 0.264738 1.86228 0
M  V30 178 O 17.2671 -0.763668 1.64432 0
M  V30 179 C 17.3151 2.65419 2.44101 0
M  V30 180 O 16.4191 2.22618 3.47153 0
M  V30 181 H 15.7601 0.537863 0.389357 0
M  V30 182 H 18.2901 1.94432 0.636965 0
M  V30 183 H 18.3001 2.86709 2.90279 0
M  V30 184 H 16.9751 3.62652 2.03608 0
M  V30 185 H 15.5521 2.11543 3.0709 0
M  V30 186 N 17.7372 -0.778329 1.37039 0
M  V30 187 C 18.9652 -1.56734 1.35063 0
M  V30 188 C 19.3802 -1.88686 -0.0655597 0
M  V30 189 O 18.7372 -1.5096 -1.02554 0
M  V30 190 C 18.7882 -2.88163 2.18276 0
M  V30 191 O 18.5092 -2.57583 3.54376 0
M  V30 192 C 20.0102 -3.82422 2.24206 0
M  V30 193 H 17.2302 -0.485778 0.462883 0
M  V30 194 H 19.7742 -0.965185 1.8029 0
M  V30 195 H 17.9292 -3.44818 1.76576 0
M  V30 196 H 18.3432 -3.41699 3.97922 0
M  V30 197 H 19.8172 -4.71667 2.86765 0
M  V30 198 H 20.2942 -4.21078 1.24861 0
M  V30 199 H 20.9002 -3.31697 2.6619 0
M  V30 200 N 19.2153 -1.21501 -1.00376 0
M  V30 201 C 20.1453 -0.999478 -2.11028 0
M  V30 202 C 21.1263 0.0759671 -1.6993 0
M  V30 203 O 22.3113 -0.0841106 -1.94018 0
M  V30 204 C 19.4413 -0.564709 -3.42678 0
M  V30 205 C 18.3953 -1.58486 -3.97576 0
M  V30 206 C 17.7213 -1.00628 -5.25146 0
M  V30 207 C 19.0213 -2.97204 -4.29496 0
M  V30 208 H 20.7153 -1.92495 -2.29317 0
M  V30 209 H 18.2613 -0.92693 -1.102 0
M  V30 210 H 20.2143 -0.401091 -4.19487 0
M  V30 211 H 18.9383 0.396411 -3.24185 0
M  V30 212 H 17.5973 -1.73606 -3.22888 0
M  V30 213 H 17.2453 -0.0368439 -5.02987 0
M  V30 214 H 16.9453 -1.68771 -5.62841 0
M  V30 215 H 18.4693 -0.854015 -6.04598 0
M  V30 216 H 19.8833 -2.8552 -4.97143 0
M  V30 217 H 18.2803 -3.62372 -4.78338 0
M  V30 218 H 19.3503 -3.47956 -3.3772 0
M  V30 219 N 20.6934 1.19889 -1.02296 0
M  V30 220 C 21.6234 2.25141 -0.619174 0
M  V30 221 C 22.6044 1.66051 0.368915 0
M  V30 222 O 23.7894 1.92546 0.252941 0
M  V30 223 C 20.9194 3.4728 0.0368783 0
M  V30 224 C 19.8734 4.19005 -0.872865 0
M  V30 225 C 19.1994 5.34637 -0.0822402 0
M  V30 226 C 20.4994 4.74452 -2.18387 0
M  V30 227 H 22.1934 2.59171 -1.49903 0
M  V30 228 H 19.7394 1.24579 -0.722222 0
M  V30 229 H 21.6924 4.20098 0.330958 0
M  V30 230 H 20.4164 3.12433 0.95149 0
M  V30 231 H 19.0754 3.48061 -1.15105 0
M  V30 232 H 18.7234 4.96034 0.83422 0
M  V30 233 H 18.4234 5.83557 -0.688149 0
M  V30 234 H 19.9474 6.10255 0.205238 0
M  V30 235 H 21.3614 5.39055 -1.95172 0
M  V30 236 H 19.7584 5.33834 -2.74119 0
M  V30 237 H 20.8284 3.92844 -2.84257 0
M  V30 238 N 22.1715 0.800033 1.35784 0
M  V30 239 C 23.1045 0.151499 2.27697 0
M  V30 240 C 24.0825 -0.678663 1.4776 0
M  V30 241 O 25.2665 -0.647358 1.77035 0
M  V30 242 C 22.3935 -0.790492 3.29346 0
M  V30 243 C 21.4395 -0.0407832 4.26481 0
M  V30 244 S 22.2725 1.29077 5.19711 0
M  V30 245 C 23.4285 0.353055 6.24903 0
M  V30 246 H 23.6615 0.930796 2.82353 0
M  V30 247 H 21.1945 0.594767 1.42485 0
M  V30 248 H 23.1525 -1.3285 3.88409 0
M  V30 249 H 21.8135 -1.54312 2.73581 0
M  V30 250 H 21.0065 -0.755971 4.98298 0
M  V30 251 H 20.6085 0.427063 3.71554 0
M  V30 252 H 22.9005 -0.464147 6.75908 0
M  V30 253 H 23.8435 1.04023 7.00418 0
M  V30 254 H 24.2515 -0.0483344 5.64479 0
M  V30 255 N 23.6496 -1.47581 0.552962 0
M  V30 256 C 24.8956 -2.02782 0.0273648 0
M  V30 257 C 25.2286 -1.42687 -1.31734 0
M  V30 258 O 24.5036 -0.580897 -1.85623 0
M  V30 259 C 24.7866 -3.60031 -0.0702371 0
M  V30 260 C 24.6396 -4.30566 1.30126 0
M  V30 261 C 25.9586 -4.33028 -0.785771 0
M  V30 262 H 23.0776 -0.736912 0.0114185 0
M  V30 263 H 25.7196 -1.76056 0.714432 0
M  V30 264 H 23.8696 -3.82932 -0.655382 0
M  V30 265 H 25.5416 -4.19018 1.92929 0
M  V30 266 H 23.7846 -3.91086 1.87709 0
M  V30 267 H 24.4556 -5.39114 1.18573 0
M  V30 268 H 26.9316 -4.15095 -0.288982 0
M  V30 269 H 25.8076 -5.42695 -0.823013 0
M  V30 270 H 26.0686 -4.01945 -1.841 0
M  V30 271 N 25.1277 -0.289203 -1.54924 0
M  V30 272 C 26.3527 0.329299 -2.04769 0
M  V30 273 C 26.7777 1.4763 -1.16564 0
M  V30 274 O 26.1357 1.80527 -0.167186 0
M  V30 275 C 26.1837 0.774438 -3.52186 0
M  V30 276 O 25.2877 1.88038 -3.67036 0
M  V30 277 H 24.6287 0.0659259 -0.660719 0
M  V30 278 H 27.1587 -0.42761 -2.00082 0
M  V30 279 H 27.1687 1.06642 -3.93816 0
M  V30 280 H 25.8437 -0.0646707 -4.1585 0
M  V30 281 H 24.4207 1.58985 -3.3731 0
M  V30 282 N 26.6058 1.57591 -0.0167156 0
M  V30 283 C 27.8528 1.91283 0.664597 0
M  V30 284 C 28.1808 0.891949 1.72842 0
M  V30 285 O 27.4358 -0.100931 1.9544 0
M  V30 286 C 27.7348 3.3172 1.33029 0
M  V30 287 C 27.4008 4.4914 0.398047 0
M  V30 288 C 26.0628 4.80992 0.141421 0
M  V30 289 C 28.4148 5.20634 -0.242825 0
M  V30 290 C 25.7428 5.81703 -0.764092 0
M  V30 291 C 28.0948 6.22311 -1.13632 0
M  V30 292 C 26.7588 6.52611 -1.40196 0
M  V30 293 H 26.0288 0.699956 0.243193 0
M  V30 294 H 28.6758 1.9135 -0.0758267 0
M  V30 295 H 26.9808 3.27856 2.14517 0
M  V30 296 H 28.6778 3.55055 1.86379 0
M  V30 297 H 25.2678 4.24262 0.608238 0
M  V30 298 H 29.4518 4.96267 -0.0576019 0
M  V30 299 H 24.7078 6.03532 -0.977732 0
M  V30 300 H 28.8818 6.76834 -1.63917 0
M  V30 301 H 26.5088 7.30467 -2.10529 0
M  V30 302 N 28.0839 -0.256276 1.55502 0
M  V30 303 C 29.3089 -1.00766 1.81276 0
M  V30 304 C 29.7339 -1.78524 0.59252 0
M  V30 305 O 29.0919 -1.75413 -0.45827 0
M  V30 306 C 29.1399 -1.92869 3.04687 0
M  V30 307 O 28.2439 -3.019 2.80945 0
M  V30 308 H 27.5849 -0.287224 0.598664 0
M  V30 309 H 30.1149 -0.280109 2.02674 0
M  V30 310 H 30.1249 -2.34511 3.33869 0
M  V30 311 H 28.7999 -1.35689 3.93143 0
M  V30 312 H 27.3769 -2.64454 2.62904 0
M  V30 313 N 29.562 -1.4872 -0.521534 0
M  V30 314 C 30.787 -1.61101 -1.30618 0
M  V30 315 C 31.212 -0.274611 -1.86085 0
M  V30 316 O 30.57 0.754937 -1.64834 0
M  V30 317 C 30.618 -2.66709 -2.4269 0
M  V30 318 O 29.722 -2.24456 -3.45967 0
M  V30 319 H 29.063 -0.539921 -0.386499 0
M  V30 320 H 31.593 -1.94767 -0.626645 0
M  V30 321 H 31.603 -2.88245 -2.88754 0
M  V30 322 H 30.278 -3.63727 -2.01682 0
M  V30 323 H 28.855 -2.13168 -3.05964 0
M  V30 324 N 31.0401 0.771051 -1.3745 0
M  V30 325 C 32.2871 1.52963 -1.32697 0
M  V30 326 C 32.6151 1.94299 0.0883274 0
M  V30 327 O 31.8701 1.64397 1.0617 0
M  V30 328 C 32.1691 2.80676 -2.2126 0
M  V30 329 C 31.8351 2.58389 -3.69521 0
M  V30 330 C 30.4971 2.52019 -4.09927 0
M  V30 331 C 32.8491 2.38469 -4.63446 0
M  V30 332 C 30.1771 2.23721 -5.42371 0
M  V30 333 C 32.5291 2.11694 -5.96128 0
M  V30 334 C 31.1931 2.03769 -6.35637 0
M  V30 335 H 30.4631 0.559732 -0.485573 0
M  V30 336 H 33.1101 0.888083 -1.69662 0
M  V30 337 H 31.4151 3.49392 -1.77291 0
M  V30 338 H 33.1121 3.38557 -2.14895 0
M  V30 339 H 29.7021 2.6421 -3.37478 0
M  V30 340 H 33.8861 2.4238 -4.33089 0
M  V30 341 H 29.1421 2.16081 -5.71943 0
M  V30 342 H 33.3161 1.9528 -6.6846 0
M  V30 343 H 30.9431 1.81606 -7.38189 0
M  V30 344 N 32.5182 1.22032 0.997298 0
M  V30 345 C 33.4282 1.00271 2.12092 0
M  V30 346 C 34.4442 -0.047621 1.73935 0
M  V30 347 O 35.6202 0.144136 2.00884 0
M  V30 348 C 32.6852 0.578449 3.4184 0
M  V30 349 C 31.7462 1.70189 3.94125 0
M  V30 350 C 30.9792 1.29778 5.17681 0
M  V30 351 O 31.2022 0.174676 5.70132 0
M  V30 352 O 30.1362 2.11261 5.63607 0
M  V30 353 H 33.9622 1.94398 2.3333 0
M  V30 354 H 31.5472 1.00587 1.10465 0
M  V30 355 H 33.4292 0.351998 4.19927 0
M  V30 356 H 32.1042 -0.334019 3.21972 0
M  V30 357 H 31.0112 1.98282 3.1723 0
M  V30 358 H 32.3442 2.59206 4.18417 0
M  V30 359 N 33.9963 -1.19345 1.0293 0
M  V30 360 C 35.2243 -1.92997 0.745644 0
M  V30 361 C 35.6393 -1.75519 -0.695589 0
M  V30 362 O 34.9963 -1.07737 -1.47306 0
M  V30 363 C 35.0473 -3.44741 1.08792 0
M  V30 364 O 34.7683 -3.61658 2.47256 0
M  V30 365 C 36.2693 -4.35515 0.827129 0
M  V30 366 H 33.4893 -0.613042 0.272801 0
M  V30 367 H 36.0333 -1.51473 1.3739 0
M  V30 368 H 34.1883 -3.84097 0.504832 0
M  V30 369 H 34.6023 -4.55514 2.60015 0
M  V30 370 H 36.0763 -5.40589 1.11658 0
M  V30 371 H 36.5533 -4.38552 -0.238436 0
M  V30 372 H 37.1593 -4.01841 1.39297 0
M  V30 373 N 35.4744 -0.807222 -1.35358 0
M  V30 374 C 36.6994 -0.399309 -2.0352 0
M  V30 375 C 37.1244 0.981986 -1.60433 0
M  V30 376 O 36.4824 1.63601 -0.781299 0
M  V30 377 C 36.5304 -0.491552 -3.57234 0
M  V30 378 O 35.6344 0.494754 -4.09421 0
M  V30 379 H 34.9754 -0.166682 -0.642739 0
M  V30 380 H 37.5054 -1.09328 -1.72941 0
M  V30 381 H 37.5154 -0.361588 -4.06395 0
M  V30 382 H 36.1904 -1.49907 -3.87944 0
M  V30 383 H 34.7674 0.324977 -3.71481 0
M  V30 384 N 36.9525 1.47285 -0.560781 0
M  V30 385 C 37.9155 2.28535 0.174488 0
M  V30 386 C 38.9155 1.37153 0.839388 0
M  V30 387 O 40.1055 1.59748 0.694702 0
M  V30 388 C 37.2375 3.16934 1.25561 0
M  V30 389 H 38.4305 2.95012 -0.539262 0
M  V30 390 H 35.9835 1.53034 -0.317865 0
M  V30 391 H 36.7185 2.55157 2.00164 0
M  V30 392 H 36.5035 3.8419 0.783604 0
M  V30 393 H 37.9935 3.78143 1.77193 0
M  V30 394 N 38.4306 0.297415 1.54768 0
M  V30 395 C 39.3626 -0.613881 2.20826 0
M  V30 396 C 40.3756 -1.10032 1.19987 0
M  V30 397 O 41.5646 -1.01839 1.46598 0
M  V30 398 C 38.6646 -1.852 2.83821 0
M  V30 399 C 37.8376 -1.50865 4.10559 0
M  V30 400 C 36.8966 -2.60154 4.57391 0
M  V30 401 O 35.9226 -2.25398 5.2267 0
M  V30 402 N 37.1246 -3.90629 4.29406 0
M  V30 403 H 39.8896 -0.048389 2.99661 0
M  V30 404 H 37.4506 0.11946 1.61459 0
M  V30 405 H 39.4426 -2.57652 3.12086 0
M  V30 406 H 38.0126 -2.32597 2.08847 0
M  V30 407 H 37.2326 -0.616925 3.89343 0
M  V30 408 H 38.5206 -1.25458 4.9309 0
M  V30 409 H 37.9186 -4.21677 3.77101 0
M  V30 410 H 36.4756 -4.59391 4.62388 0
M  V30 411 N 39.9087 -1.5758 0.0250728 0
M  V30 412 C 41.1337 -1.96337 -0.668317 0
M  V30 413 C 41.5587 -0.901314 -1.651 0
M  V30 414 O 40.9167 0.138187 -1.80773 0
M  V30 415 C 40.9647 -3.34191 -1.35457 0
M  V30 416 O 40.0687 -3.30269 -2.46974 0
M  V30 417 H 39.4097 -0.640281 -0.175887 0
M  V30 418 H 41.9397 -2.0442 0.0857224 0
M  V30 419 H 41.9497 -3.70331 -1.71228 0
M  V30 420 H 40.6247 -4.11036 -0.634218 0
M  V30 421 H 39.2017 -3.05841 -2.13344 0
M  V30 422 N 41.3868 0.248026 -1.55636 0
M  V30 423 C 42.7978 0.817177 -1.67866 0
M  V30 424 C 43.1488 1.86069 -0.622322 0
M  V30 425 O 42.2738 2.15157 0.231618 0
M  V30 426 C 42.8688 1.489 -3.04326 0
M  V30 427 C 41.4278 2.00587 -3.185 0
M  V30 428 C 40.5748 0.856573 -2.63739 0
M  V30 429 H 43.5258 0.0238579 -1.58682 0
M  V30 430 H 43.5468 2.35698 -2.98708 0
M  V30 431 H 43.0588 0.729279 -3.81186 0
M  V30 432 H 41.1598 2.79443 -2.4646 0
M  V30 433 H 41.2728 2.20402 -4.25393 0
M  V30 434 H 39.6368 1.25678 -2.21534 0
M  V30 435 H 40.4198 0.109953 -3.43124 0
M  V30 436 N 42.8649 1.48995 0.513639 0
M  V30 437 C 43.7949 1.67636 1.62544 0
M  V30 438 C 44.7759 0.525087 1.61793 0
M  V30 439 O 45.9609 0.759502 1.78732 0
M  V30 440 C 43.0909 1.73114 3.01079 0
M  V30 441 C 42.0449 2.87905 3.16693 0
M  V30 442 C 41.3709 2.78486 4.56453 0
M  V30 443 C 42.6709 4.29005 2.97913 0
M  V30 444 H 44.3649 2.60716 1.47198 0
M  V30 445 H 41.9109 1.25465 0.706714 0
M  V30 446 H 43.8639 1.84742 3.78746 0
M  V30 447 H 42.5879 0.766241 3.17484 0
M  V30 448 H 41.2469 2.75859 2.41448 0
M  V30 449 H 40.8949 1.7993 4.69717 0
M  V30 450 H 40.5949 3.55523 4.67843 0
M  V30 451 H 42.1189 2.92104 5.36197 0
M  V30 452 H 43.5329 4.41798 3.65359 0
M  V30 453 H 41.9299 5.07166 3.20785 0
M  V30 454 H 42.9999 4.44329 1.94165 0
M  V30 455 N 44.343 -0.763751 1.37857 0
M  V30 456 C 45.273 -1.89103 1.36975 0
M  V30 457 C 46.254 -1.68439 0.237152 0
M  V30 458 O 47.439 -1.8918 0.438713 0
M  V30 459 C 44.569 -3.26496 1.18395 0
M  V30 460 C 43.523 -3.61741 2.28751 0
M  V30 461 C 42.849 -4.97762 1.95286 0
M  V30 462 C 44.149 -3.67665 3.70972 0
M  V30 463 H 45.843 -1.90099 2.31307 0
M  V30 464 H 43.389 -0.91319 1.11341 0
M  V30 465 H 45.342 -4.05003 1.16406 0
M  V30 466 H 44.066 -3.25955 0.205215 0
M  V30 467 H 42.725 -2.85547 2.29909 0
M  V30 468 H 42.373 -4.93769 0.959221 0
M  V30 469 H 42.073 -5.22313 2.69189 0
M  V30 470 H 43.597 -5.7866 1.94898 0
M  V30 471 H 45.011 -4.36307 3.719 0
M  V30 472 H 43.408 -4.03718 4.43995 0
M  V30 473 H 44.478 -2.68134 4.0402 0
M  V30 474 N 45.8211 -1.22559 -0.990812 0
M  V30 475 C 46.7681 -0.997519 -2.0813 0
M  V30 476 C 47.7381 0.0814702 -1.659 0
M  V30 477 O 48.9231 -0.0685424 -1.90677 0
M  V30 478 C 46.0631 -0.583615 -3.40129 0
M  V30 479 C 45.1761 -1.7336 -3.9569 0
M  V30 480 C 44.3111 -1.26748 -5.15857 0
M  V30 481 C 43.3501 -2.38888 -5.63559 0
M  V30 482 N 42.4871 -1.93308 -6.74964 0
M  V30 483 H 47.3271 -1.93099 -2.26973 0
M  V30 484 H 44.8641 -0.962114 -1.11273 0
M  V30 485 H 46.8221 -0.324801 -4.15934 0
M  V30 486 H 45.4521 0.312845 -3.2128 0
M  V30 487 H 44.5041 -2.10669 -3.16738 0
M  V30 488 H 45.8161 -2.57704 -4.27071 0
M  V30 489 H 44.9701 -0.966173 -5.98957 0
M  V30 490 H 43.7091 -0.394272 -4.86104 0
M  V30 491 H 42.7141 -2.69805 -4.79046 0
M  V30 492 H 43.9391 -3.26728 -5.95336 0
M  V30 493 H 41.8851 -1.08352 -6.4699 0
M  V30 494 H 41.8021 -2.71217 -7.05675 0
M  V30 495 H 43.0701 -1.66252 -7.61564 0
M  V30 496 N 47.2992 1.18797 -1.03562 0
M  V30 497 C 48.2092 2.25913 -0.632505 0
M  V30 498 C 49.2252 1.70668 0.338882 0
M  V30 499 O 50.4012 2.00453 0.195076 0
M  V30 500 C 47.4662 3.467 0.00350942 0
M  V30 501 C 46.5272 4.17098 -1.01624 0
M  V30 502 C 45.7602 5.32119 -0.410478 0
M  V30 503 O 45.9832 5.64976 0.784725 0
M  V30 504 O 44.9172 5.9107 -1.13667 0
M  V30 505 H 48.7432 2.62648 -1.52478 0
M  V30 506 H 46.3282 1.25781 -0.806195 0
M  V30 507 H 48.2102 4.19878 0.35781 0
M  V30 508 H 46.8852 3.11798 0.869686 0
M  V30 509 H 45.7922 3.4601 -1.42224 0
M  V30 510 H 47.1252 4.55987 -1.85301 0
M  V30 511 N 48.7773 0.814389 1.34928 0
M  V30 512 C 49.7093 0.187834 2.28429 0
M  V30 513 C 50.7223 -0.617374 1.5064 0
M  V30 514 O 51.9113 -0.448454 1.72775 0
M  V30 515 C 49.0113 -0.755962 3.30361 0
M  V30 516 C 48.1843 0.00456686 4.374 0
M  V30 517 C 47.2433 -0.858876 5.19143 0
M  V30 518 O 46.2693 -0.306968 5.68372 0
M  V30 519 N 47.4713 -2.17988 5.38016 0
M  V30 520 H 50.2363 0.991105 2.82838 0
M  V30 521 H 47.7973 0.670561 1.4736 0
M  V30 522 H 49.7893 -1.338 3.81942 0
M  V30 523 H 48.3593 -1.46001 2.7641 0
M  V30 524 H 47.5793 0.767865 3.86649 0
M  V30 525 H 48.8673 0.528422 5.06049 0
M  V30 526 H 48.2653 -2.65212 4.99679 0
M  V30 527 H 46.8223 -2.71098 5.92747 0
M  V30 528 N 50.2554 -1.46986 0.568584 0
M  V30 529 C 51.5044 -2.01646 0.0465894 0
M  V30 530 C 51.8174 -1.44721 -1.31587 0
M  V30 531 O 53.0234 -1.91113 -1.92842 0
M  V30 532 C 51.4794 -3.59885 0.032752 0
M  V30 533 C 51.0874 -4.25804 1.39266 0
M  V30 534 C 52.8314 -4.22255 -0.436038 0
M  V30 535 C 50.7384 -5.76081 1.33732 0
M  V30 536 H 49.6684 -0.753876 0.013647 0
M  V30 537 H 52.3194 -1.68864 0.718131 0
M  V30 538 H 50.7014 -3.8968 -0.704669 0
M  V30 539 H 51.8754 -4.07637 2.1487 0
M  V30 540 H 50.1904 -3.7547 1.80032 0
M  V30 541 H 52.7874 -5.32394 -0.49602 0
M  V30 542 H 53.1304 -3.90212 -1.45053 0
M  V30 543 H 53.6634 -3.97033 0.246877 0
M  V30 544 H 50.4024 -6.12761 2.32817 0
M  V30 545 H 49.9224 -5.96553 0.623267 0
M  V30 546 H 51.6014 -6.38518 1.0442 0
M  V30 547 N 51.7335 -0.305618 -1.54608 0
M  V30 548 C 52.6435 0.57778 -2.27374 0
M  V30 549 C 53.6595 1.14451 -1.31061 0
M  V30 550 O 54.8355 1.16831 -1.6405 0
M  V30 551 C 51.9005 1.73123 -3.00382 0
M  V30 552 C 50.9615 1.19812 -4.12242 0
M  V30 553 C 50.1945 2.2966 -4.81759 0
M  V30 554 O 50.4175 3.49651 -4.50666 0
M  V30 555 O 49.3515 1.96091 -5.69062 0
M  V30 556 H 53.1775 -0.012624 -3.03697 0
M  V30 557 H 50.7625 -0.0719184 -1.49227 0
M  V30 558 H 52.6445 2.40315 -3.4616 0
M  V30 559 H 51.3195 2.30815 -2.26949 0
M  V30 560 H 50.2265 0.491798 -3.70853 0
M  V30 561 H 51.5595 0.666566 -4.87666 0
M  V30 562 N 53.2116 1.57565 -0.0334293 0
M  V30 563 C 54.4366 1.96689 0.657895 0
M  V30 564 C 54.8616 0.910057 1.64619 0
M  V30 565 O 54.2196 -0.128598 1.80843 0
M  V30 566 C 54.2676 3.34905 1.33683 0
M  V30 567 O 53.3716 3.31574 2.45219 0
M  V30 568 H 52.7126 0.641205 0.172489 0
M  V30 569 H 55.2426 2.04372 -0.0965621 0
M  V30 570 H 55.2526 3.71234 1.69262 0
M  V30 571 H 53.9276 4.11366 0.612411 0
M  V30 572 H 52.5046 3.06968 2.11719 0
M  V30 573 N 54.6897 -0.239769 1.55765 0
M  V30 574 C 55.9387 -0.964754 1.77131 0
M  V30 575 C 56.2517 -1.86213 0.59868 0
M  V30 576 O 57.4577 -2.6244 0.695522 0
M  V30 577 C 55.9137 -1.76552 3.1362 0
M  V30 578 C 55.5217 -0.915185 4.38553 0
M  V30 579 C 57.2657 -2.48281 3.44321 0
M  V30 580 C 55.1727 -1.71225 5.66071 0
M  V30 581 H 54.1027 -0.363953 0.660344 0
M  V30 582 H 56.7537 -0.219181 1.82186 0
M  V30 583 H 55.1357 -2.55331 3.02691 0
M  V30 584 H 56.3097 -0.169217 4.60489 0
M  V30 585 H 54.6247 -0.310889 4.15238 0
M  V30 586 H 57.2217 -3.08382 4.36812 0
M  V30 587 H 57.5647 -3.20256 2.65973 0
M  V30 588 H 58.0977 -1.76507 3.56497 0
M  V30 589 H 54.8367 -1.03612 6.4726 0
M  V30 590 H 54.3567 -2.43331 5.48224 0
M  V30 591 H 56.0357 -2.27758 6.05587 0
M  V30 592 N 56.1678 -1.49265 -0.50573 0
M  V30 593 C 57.4138 -1.58748 -1.26202 0
M  V30 594 C 57.7468 -0.271227 -1.92297 0
M  V30 595 O 57.0218 0.724831 -1.80489 0
M  V30 596 C 57.3048 -2.74332 -2.33268 0
M  V30 597 C 57.1578 -4.15737 -1.71705 0
M  V30 598 C 58.4768 -2.85576 -3.34865 0
M  V30 599 H 55.5958 -0.577826 -0.457478 0
M  V30 600 H 58.2378 -1.81532 -0.560897 0
M  V30 601 H 56.3878 -2.55036 -2.93068 0
M  V30 602 H 58.0598 -4.46537 -1.15769 0
M  V30 603 H 56.3028 -4.21605 -1.02135 0
M  V30 604 H 56.9738 -4.92477 -2.49341 0
M  V30 605 H 59.4498 -3.03127 -2.8505 0
M  V30 606 H 58.3258 -3.68135 -4.07146 0
M  V30 607 H 58.5868 -1.94732 -3.96903 0
M  V30 608 N 57.6459 0.756429 -1.3826 0
M  V30 609 C 58.8949 1.51082 -1.3363 0
M  V30 610 C 59.2079 1.95467 0.0720068 0
M  V30 611 O 60.4139 2.7043 0.240834 0
M  V30 612 C 58.8699 2.72893 -2.34644 0
M  V30 613 C 58.4779 2.35544 -3.81081 0
M  V30 614 C 60.2219 3.50791 -2.39052 0
M  V30 615 C 58.1289 3.53948 -4.73787 0
M  V30 616 H 57.0589 0.56727 -0.49671 0
M  V30 617 H 59.7099 0.827147 -1.638 0
M  V30 618 H 58.0919 3.43227 -1.97513 0
M  V30 619 H 59.2659 1.72894 -4.27135 0
M  V30 620 H 57.5809 1.70786 -3.79764 0
M  V30 621 H 60.1779 4.38823 -3.05513 0
M  V30 622 H 60.5209 3.91745 -1.40861 0
M  V30 623 H 61.0539 2.87467 -2.74968 0
M  V30 624 H 57.7929 3.18064 -5.73163 0
M  V30 625 H 57.3129 4.15651 -4.32428 0
M  V30 626 H 58.9919 4.20566 -4.91663 0
M  V30 627 N 59.124 1.23083 0.984299 0
M  V30 628 C 60.372 1.05848 1.72165 0
M  V30 629 C 60.693 -0.406049 1.90726 0
M  V30 630 O 59.963 -1.29139 1.47309 0
M  V30 631 H 58.543 0.388685 0.637913 0
M  V30 632 H 61.205 1.54736 1.18503 0
M  V30 633 H 60.301 1.54327 2.71274 0
M  V30 634 N 60.6021 -1.18246 1.0419 0
M  V30 635 C 61.5491 -2.2192 0.634037 0
M  V30 636 C 62.5191 -1.62179 -0.358765 0
M  V30 637 O 63.7041 -1.89122 -0.252466 0
M  V30 638 C 60.8441 -3.451 0.00445535 0
M  V30 639 C 59.9571 -4.19174 1.04487 0
M  V30 640 C 59.0921 -5.29813 0.383676 0
M  V30 641 C 58.1311 -5.9566 1.4091 0
M  V30 642 N 57.2681 -6.97834 0.772784 0
M  V30 643 H 62.1081 -2.56164 1.52263 0
M  V30 644 H 59.6451 -1.25843 0.761701 0
M  V30 645 H 61.6031 -4.15485 -0.377919 0
M  V30 646 H 60.2331 -3.11472 -0.847652 0
M  V30 647 H 59.2851 -3.47604 1.54518 0
M  V30 648 H 60.5971 -4.64267 1.82368 0
M  V30 649 H 59.7511 -6.06677 -0.0528366 0
M  V30 650 H 58.4901 -4.85825 -0.427208 0
M  V30 651 H 57.4951 -5.17535 1.85574 0
M  V30 652 H 58.7201 -6.4173 2.22171 0
M  V30 653 H 56.6661 -6.55998 -0.0177708 0
M  V30 654 H 56.5831 -7.41186 1.48928 0
M  V30 655 H 57.8511 -7.78665 0.36071 0
M  V30 656 N 62.0802 -0.821533 -1.34494 0
M  V30 657 C 63.0272 -0.240397 -2.29545 0
M  V30 658 C 63.9972 0.634031 -1.53523 0
M  V30 659 O 65.1822 0.575966 -1.81899 0
M  V30 660 C 62.3222 0.592869 -3.39969 0
M  V30 661 C 61.4352 -0.30365 -4.30932 0
M  V30 662 C 60.5702 0.539049 -5.28458 0
M  V30 663 C 59.6092 -0.356942 -6.11058 0
M  V30 664 N 58.7462 0.446603 -7.00678 0
M  V30 665 H 63.5862 -1.05632 -2.7865 0
M  V30 666 H 61.1232 -0.532413 -1.37127 0
M  V30 667 H 63.0812 1.09129 -4.02675 0
M  V30 668 H 61.7112 1.37392 -2.92102 0
M  V30 669 H 60.7632 -0.920276 -3.691 0
M  V30 670 H 62.0752 -0.992661 -4.88823 0
M  V30 671 H 61.2292 1.102 -5.96608 0
M  V30 672 H 59.9682 1.26157 -4.71101 0
M  V30 673 H 58.9732 -0.932047 -5.41842 0
M  V30 674 H 60.1982 -1.07755 -6.70497 0
M  V30 675 H 58.1442 1.15282 -6.45791 0
M  V30 676 H 58.0612 -0.184048 -7.55776 0
M  V30 677 H 59.3292 0.992352 -7.73158 0
M  V30 678 N 63.5583 1.46682 -0.576371 0
M  V30 679 C 64.5213 2.28707 0.150239 0
M  V30 680 C 65.5213 1.38035 0.824794 0
M  V30 681 O 66.7113 1.60476 0.677719 0
M  V30 682 C 63.8433 3.18248 1.22192 0
M  V30 683 H 65.0363 2.94423 -0.570521 0
M  V30 684 H 62.5893 1.52688 -0.334078 0
M  V30 685 H 63.3243 2.57265 1.97447 0
M  V30 686 H 63.1093 3.85 0.742812 0
M  V30 687 H 64.5993 3.80001 1.73172 0
M  V30 688 N 65.0364 0.313813 1.54444 0
M  V30 689 C 66.2644 -0.293918 2.04802 0
M  V30 690 C 66.6794 -1.46537 1.19047 0
M  V30 691 O 66.0364 -1.81182 0.218939 0
M  V30 692 C 66.0874 -0.737806 3.53891 0
M  V30 693 O 65.8084 0.387038 4.36387 0
M  V30 694 C 67.3094 -1.40936 4.203 0
M  V30 695 H 64.5294 -0.0620057 0.668129 0
M  V30 696 H 67.0734 0.457169 1.99324 0
M  V30 697 H 65.2284 -1.43889 3.59687 0
M  V30 698 H 65.6424 0.0391274 5.24485 0
M  V30 699 H 67.1164 -1.67099 5.26101 0
M  V30 700 H 67.5934 -2.35355 3.70816 0
M  V30 701 H 68.1994 -0.751117 4.18615 0
M  V30 702 N 66.5145 -1.57545 0.0417849 0
M  V30 703 C 67.7605 -1.92601 -0.635021 0
M  V30 704 C 68.0935 -0.919627 -1.71045 0
M  V30 705 O 67.3685 0.0557892 -1.9442 0
M  V30 706 C 67.6515 -3.38085 -1.23979 0
M  V30 707 C 67.5045 -4.49467 -0.173057 0
M  V30 708 C 68.8235 -3.83776 -2.15416 0
M  V30 709 H 65.9425 -0.700397 -0.229374 0
M  V30 710 H 68.5845 -1.89728 0.101633 0
M  V30 711 H 66.7345 -3.40664 -1.86762 0
M  V30 712 H 68.4065 -4.59018 0.458312 0
M  V30 713 H 66.6495 -4.30909 0.499996 0
M  V30 714 H 67.3205 -5.48323 -0.636054 0
M  V30 715 H 69.7965 -3.83013 -1.62605 0
M  V30 716 H 68.6725 -4.8624 -2.54679 0
M  V30 717 H 68.9335 -3.19998 -3.05047 0
M  V30 718 N 67.9926 0.231505 -1.5589 0
M  V30 719 C 69.2406 0.955461 -1.78088 0
M  V30 720 C 69.5616 1.85262 -0.608533 0
M  V30 721 O 68.8316 1.92277 0.375035 0
M  V30 722 H 67.4116 0.355787 -0.656829 0
M  V30 723 H 70.0736 0.245751 -1.93344 0
M  V30 724 H 69.1696 1.56814 -2.69844 0
M  V30 725 N 69.4707 1.49531 0.497807 0
M  V30 726 C 70.7167 1.59415 1.25358 0
M  V30 727 C 71.0497 0.281422 1.9215 0
M  V30 728 O 70.3247 -0.715249 1.80871 0
M  V30 729 C 70.6077 2.75566 2.3181 0
M  V30 730 C 70.4607 4.16642 1.69498 0
M  V30 731 C 71.7797 2.87347 3.33346 0
M  V30 732 H 68.8987 0.580244 0.454408 0
M  V30 733 H 71.5407 1.81827 0.551262 0
M  V30 734 H 69.6907 2.56587 2.91711 0
M  V30 735 H 71.3627 4.47145 1.13399 0
M  V30 736 H 69.6057 4.22141 0.998978 0
M  V30 737 H 70.2767 4.93792 2.46725 0
M  V30 738 H 72.7527 3.04634 2.83438 0
M  V30 739 H 71.6287 3.70289 4.05188 0
M  V30 740 H 71.8897 1.96834 3.95865 0
M  V30 741 N 70.9488 -0.749086 1.3866 0
M  V30 742 C 71.9118 -1.84457 1.36045 0
M  V30 743 C 72.9118 -1.58682 0.260122 0
M  V30 744 O 74.1018 -1.66343 0.517261 0
M  V30 745 C 71.2338 -3.22008 1.11911 0
M  V30 746 H 72.4268 -1.88182 2.33512 0
M  V30 747 H 69.9798 -0.951266 1.24019 0
M  V30 748 H 70.7148 -3.2395 0.150686 0
M  V30 749 H 70.4998 -3.42111 1.91579 0
M  V30 750 H 71.9898 -4.0208 1.12788 0
M  V30 751 N 72.4269 -1.23603 -0.977757 0
M  V30 752 C 73.6729 -1.07129 -1.72195 0
M  V30 753 C 74.0059 0.390501 -1.90233 0
M  V30 754 O 73.2809 1.28902 -1.45653 0
M  V30 755 C 73.5639 -1.80031 -3.11867 0
M  V30 756 C 73.4169 -3.33899 -3.01383 0
M  V30 757 C 74.7359 -1.56492 -4.11337 0
M  V30 758 H 71.8549 -0.390571 -0.624999 0
M  V30 759 H 74.4969 -1.52142 -1.13811 0
M  V30 760 H 72.6469 -1.41768 -3.6171 0
M  V30 761 H 74.3189 -3.81699 -2.59043 0
M  V30 762 H 72.5619 -3.62796 -2.37827 0
M  V30 763 H 73.2329 -3.801 -4.00285 0
M  V30 764 H 75.7089 -1.89757 -3.70313 0
M  V30 765 H 74.5849 -2.09973 -5.07151 0
M  V30 766 H 74.8459 -0.500874 -4.39254 0
M  V30 767 N 73.905 1.17692 -1.04816 0
M  V30 768 C 75.151 1.88389 -0.766892 0
M  V30 769 C 75.506 1.79282 0.698269 0
M  V30 770 O 74.799 1.18739 1.50372 0
M  V30 771 C 74.993 3.37462 -1.17703 0
M  V30 772 C 74.822 3.6108 -2.68051 0
M  V30 773 C 73.592 3.78018 -3.35307 0
M  V30 774 C 75.79 3.61039 -3.66273 0
M  V30 775 N 73.772 3.89444 -4.74559 0
M  V30 776 C 75.143 3.78269 -4.91235 0
M  V30 777 C 77.198 3.44168 -3.59796 0
M  V30 778 C 75.901 3.80376 -6.10497 0
M  V30 779 C 77.927 3.4756 -4.78493 0
M  V30 780 C 77.289 3.65295 -6.02278 0
M  V30 781 H 73.388 0.707651 -0.332798 0
M  V30 782 H 75.972 1.41314 -1.33934 0
M  V30 783 H 74.143 3.83214 -0.63257 0
M  V30 784 H 75.875 3.95759 -0.845989 0
M  V30 785 H 72.63 3.77714 -2.85708 0
M  V30 786 H 73.054 3.98962 -5.46954 0
M  V30 787 H 77.696 3.29396 -2.65062 0
M  V30 788 H 75.414 3.93933 -7.05579 0
M  V30 789 H 79 3.3577 -4.75131 0
M  V30 790 H 77.88 3.6782 -6.92588 0
M  V30 791 N 75.3831 0.828654 1.34056 0
M  V30 792 C 76.6311 0.41863 1.97717 0
M  V30 793 C 76.9521 -1.02314 1.66002 0
M  V30 794 O 76.2221 -1.71119 0.953683 0
M  V30 795 H 74.8021 0.151809 0.731412 0
M  V30 796 H 77.4641 1.05936 1.63596 0
M  V30 797 H 76.5601 0.542318 3.07352 0
M  V30 798 N 76.8612 -1.46375 0.584142 0
M  V30 799 C 78.2722 -1.86031 0.157959 0
M  V30 800 C 78.6232 -1.48753 -1.27933 0
M  V30 801 O 77.7482 -0.903098 -1.96655 0
M  V30 802 C 78.3432 -3.37642 0.279892 0
M  V30 803 C 76.9022 -3.76289 -0.09143 0
M  V30 804 C 76.0492 -2.7039 0.615178 0
M  V30 805 H 79.0002 -1.37509 0.792274 0
M  V30 806 H 79.0212 -3.77275 -0.494364 0
M  V30 807 H 78.5332 -3.64742 1.32607 0
M  V30 808 H 76.6342 -3.54806 -1.13769 0
M  V30 809 H 76.7472 -4.78246 0.285886 0
M  V30 810 H 75.1112 -2.5464 0.0552833 0
M  V30 811 H 75.8942 -3.0033 1.66303 0
M  V30 812 N 78.3393 -0.321999 -1.54275 0
M  V30 813 C 79.6163 0.335232 -1.92706 0
M  V30 814 C 79.9963 1.70006 -1.25145 0
M  V30 815 O 79.3443 2.25067 -0.394596 0
M  V30 816 C 79.5543 0.429008 -3.46353 0
M  V30 817 C 80.9023 0.690029 -4.18956 0
M  V30 818 O 81.9263 0.511992 -3.52501 0
M  V30 819 O 80.7853 1.03338 -5.36641 0
M  V30 820 H 77.8793 0.191143 -0.804608 0
M  V30 821 H 80.4253 -0.3716 -1.65581 0
M  V30 822 H 79.1973 -0.529611 -3.87699 0
M  V30 823 H 78.8203 1.18348 -3.79578 0
M  V30 824 N 79.8174 1.5752 -0.0501392 0
M  V30 825 C 81.0944 1.83996 0.663685 0
M  V30 826 C 81.4744 0.938339 1.89099 0
M  V30 827 O 80.8224 -0.00087759 2.285 0
M  V30 828 C 81.0324 3.33702 1.02196 0
M  V30 829 C 82.3804 4.00691 1.40469 0
M  V30 830 O 83.4044 3.38321 1.11433 0
M  V30 831 O 82.2634 5.10658 1.94654 0
M  V30 832 H 79.3574 0.759385 0.32751 0
M  V30 833 H 81.9034 1.69514 -0.0794238 0
M  V30 834 H 80.6754 3.91015 0.149364 0
M  V30 835 H 80.2984 3.53368 1.82255 0
M  V30 836 N 81.2955 -0.223234 1.56011 0
M  V30 837 C 82.2255 -1.27988 1.95298 0
M  V30 838 C 83.2065 -1.48976 0.820979 0
M  V30 839 O 84.3915 -1.61188 1.08315 0
M  V30 840 C 81.5215 -2.63 2.26822 0
M  V30 841 C 80.4755 -2.56671 3.42497 0
M  V30 842 C 79.8015 -3.95697 3.59622 0
M  V30 843 C 81.1015 -2.11601 4.77517 0
M  V30 844 H 82.7955 -0.953525 2.8381 0
M  V30 845 H 80.3415 -0.457244 1.36548 0
M  V30 846 H 82.2945 -3.37077 2.52898 0
M  V30 847 H 81.0185 -2.9732 1.35161 0
M  V30 848 H 79.6775 -1.85051 3.16467 0
M  V30 849 H 79.3255 -4.27322 2.6534 0
M  V30 850 H 79.0255 -3.92345 4.37424 0
M  V30 851 H 80.5495 -4.71438 3.88044 0
M  V30 852 H 81.9635 -2.7542 5.02809 0
M  V30 853 H 80.3605 -2.19311 5.5859 0
M  V30 854 H 81.4305 -1.06824 4.72987 0
M  V30 855 N 82.7736 -1.49793 -0.48987 0
M  V30 856 C 83.6836 -1.70036 -1.61632 0
M  V30 857 C 84.6996 -0.583102 -1.63939 0
M  V30 858 O 85.8756 -0.859169 -1.82154 0
M  V30 859 C 82.9406 -1.77277 -2.97949 0
M  V30 860 C 82.0016 -3.00918 -3.06181 0
M  V30 861 C 81.2346 -3.07804 -4.35996 0
M  V30 862 O 81.4576 -2.21982 -5.25433 0
M  V30 863 O 80.3916 -4.00369 -4.49431 0
M  V30 864 H 84.2176 -2.65486 -1.47482 0
M  V30 865 H 81.8026 -1.33666 -0.667362 0
M  V30 866 H 83.6846 -1.84329 -3.78947 0
M  V30 867 H 82.3596 -0.850076 -3.12339 0
M  V30 868 H 81.2666 -2.99377 -2.2433 0
M  V30 869 H 82.5996 -3.92704 -2.96723 0
M  V30 870 N 84.2517 0.741722 -1.39055 0
M  V30 871 C 85.6627 1.31966 -1.32068 0
M  V30 872 C 86.0137 1.96192 0.0180797 0
M  V30 873 O 85.1387 1.95861 0.920196 0
M  V30 874 C 85.7337 2.39954 -2.39181 0
M  V30 875 C 84.2927 2.93438 -2.35735 0
M  V30 876 C 83.4397 1.66936 -2.21422 0
M  V30 877 H 86.3907 0.539721 -1.4924 0
M  V30 878 H 86.4117 3.20182 -2.05581 0
M  V30 879 H 85.9237 1.9318 -3.36605 0
M  V30 880 H 84.0247 3.4451 -1.41929 0
M  V30 881 H 84.1377 3.4701 -3.30335 0
M  V30 882 H 82.5017 1.91016 -1.68478 0
M  V30 883 H 83.2847 1.22224 -3.20806 0
M  V30 884 N 85.7298 1.2412 0.971189 0
M  V30 885 C 86.6598 1.05508 2.08304 0
M  V30 886 C 87.6408 -0.0308864 1.70072 0
M  V30 887 O 88.8258 0.135521 1.93727 0
M  V30 888 C 85.9558 0.655365 3.4106 0
M  V30 889 C 84.9098 1.68971 3.93234 0
M  V30 890 C 84.2358 1.14516 5.22293 0
M  V30 891 C 85.5358 3.08487 4.21465 0
M  V30 892 H 87.2298 1.98507 2.24132 0
M  V30 893 H 84.7758 0.955821 1.07704 0
M  V30 894 H 86.7288 0.51217 4.18276 0
M  V30 895 H 85.4528 -0.31032 3.25122 0
M  V30 896 H 84.1118 1.82106 3.18171 0
M  V30 897 H 83.7598 0.170189 5.02712 0
M  V30 898 H 83.4598 1.83635 5.58168 0
M  V30 899 H 84.9838 1.01401 6.02121 0
M  V30 900 H 86.3978 2.98601 4.89398 0
M  V30 901 H 84.7948 3.74926 4.68562 0
M  V30 902 H 85.8648 3.56787 3.28376 0
M  V30 903 N 87.2079 -1.17134 1.05439 0
M  V30 904 C 88.1379 -2.2342 0.678649 0
M  V30 905 C 89.1189 -1.66971 -0.32476 0
M  V30 906 O 90.3039 -1.93149 -0.201802 0
M  V30 907 C 87.4339 -3.47256 0.0552099 0
M  V30 908 C 86.3879 -4.16543 0.98365 0
M  V30 909 C 85.7139 -5.34231 0.223961 0
M  V30 910 C 87.0139 -4.68495 2.3089 0
M  V30 911 H 88.7079 -2.55105 1.56722 0
M  V30 912 H 86.2539 -1.2262 0.754998 0
M  V30 913 H 88.2069 -4.20828 -0.21946 0
M  V30 914 H 86.9309 -3.14846 -0.868319 0
M  V30 915 H 85.5899 -3.44887 1.24293 0
M  V30 916 H 85.2379 -4.98071 -0.702412 0
M  V30 917 H 84.9379 -5.81527 0.842627 0
M  V30 918 H 86.4619 -6.10585 -0.0433671 0
M  V30 919 H 87.8759 -5.33691 2.09396 0
M  V30 920 H 86.2729 -5.26379 2.88176 0
M  V30 921 H 87.3429 -3.85169 2.94572 0
M  V30 922 N 88.686 -0.835752 -1.33615 0
M  V30 923 C 89.935 -0.426289 -1.97144 0
M  V30 924 C 90.248 1.01912 -1.66953 0
M  V30 925 O 91.454 1.53311 -2.24072 0
M  V30 926 C 89.91 -0.711321 -3.52801 0
M  V30 927 C 89.518 -2.1712 -3.91871 0
M  V30 928 C 91.262 -0.368654 -4.22896 0
M  V30 929 C 89.169 -2.40044 -5.40493 0
M  V30 930 H 88.099 -0.15567 -0.737755 0
M  V30 931 H 90.75 -1.0239 -1.52278 0
M  V30 932 H 89.132 -0.0433766 -3.95976 0
M  V30 933 H 90.306 -2.87936 -3.59763 0
M  V30 934 H 88.621 -2.47654 -3.34749 0
M  V30 935 H 91.218 -0.517601 -5.32189 0
M  V30 936 H 91.561 0.688078 -4.10574 0
M  V30 937 H 92.094 -0.991702 -3.8524 0
M  V30 938 H 88.833 -3.44271 -5.57815 0
M  V30 939 H 88.353 -1.73785 -5.74072 0
M  V30 940 H 90.032 -2.23042 -6.0734 0
M  V30 941 N 90.1641 1.46063 -0.591896 0
M  V30 942 C 91.1121 2.32124 0.148739 0
M  V30 943 C 92.1061 1.45035 0.875286 0
M  V30 944 O 93.3121 1.61609 0.792632 0
M  V30 945 H 89.6871 0.749024 0.066832 0
M  V30 946 H 91.6581 2.92392 -0.595783 0
M  V30 947 C 90.4071 3.28373 1.1431 0
M  V30 948 H 89.7301 3.95371 0.59346 0
M  V30 949 H 91.1701 3.91352 1.63155 0
M  V30 950 C 89.6291 2.54393 2.20875 0
M  V30 951 O 90.1591 2.31373 3.28374 0
M  V30 952 N 88.3651 2.14797 1.95731 0
M  V30 953 H 87.9121 2.33719 1.08319 0
M  V30 954 H 87.8701 1.65619 2.67241 0
M  V30 955 N 91.6422 0.330177 1.54103 0
M  V30 956 C 93.0532 -0.15652 1.86043 0
M  V30 957 C 93.4042 -1.51086 1.2517 0
M  V30 958 O 92.5292 -2.09023 0.560217 0
M  V30 959 C 93.1242 -0.290784 3.3755 0
M  V30 960 C 91.6832 -0.721705 3.69416 0
M  V30 961 C 90.8302 0.152622 2.7688 0
M  V30 962 H 93.7812 0.550237 1.48856 0
M  V30 963 H 93.8022 -1.12058 3.63625 0
M  V30 964 H 93.3142 0.695068 3.81825 0
M  V30 965 H 91.4152 -1.71706 3.30678 0
M  V30 966 H 91.5282 -0.520869 4.7626 0
M  V30 967 H 89.8922 -0.372894 2.51956 0
M  V30 968 H 90.6752 1.13536 3.23982 0
M  V30 969 N 93.1203 -1.57491 0.0584922 0
M  V30 970 C 94.3673 -1.92978 -0.613648 0
M  V30 971 C 94.6953 -0.937461 -1.70417 0
M  V30 972 O 93.9503 0.049078 -1.95638 0
M  V30 973 C 94.2493 -3.3513 -1.24188 0
M  V30 974 C 93.9153 -4.50037 -0.278826 0
M  V30 975 C 92.5773 -4.81198 -0.0138447 0
M  V30 976 C 94.9293 -5.19807 0.380777 0
M  V30 977 C 92.2573 -5.79473 0.918052 0
M  V30 978 C 94.6093 -6.19079 1.30091 0
M  V30 979 C 93.2733 -6.48665 1.57449 0
M  V30 980 H 92.5433 -0.706157 -0.22455 0
M  V30 981 H 95.1903 -1.91082 0.126533 0
M  V30 982 H 93.4953 -3.33429 -2.05749 0
M  V30 983 H 95.1923 -3.59871 -1.769 0
M  V30 984 H 91.7823 -4.25726 -0.495539 0
M  V30 985 H 95.9663 -4.95939 0.189158 0
M  V30 986 H 91.2223 -6.00727 1.1374 0
M  V30 987 H 95.3963 -6.7225 1.81804 0
M  V30 988 H 93.0233 -7.24628 2.29822 0
M  V30 989 N 94.5984 0.214957 -1.56127 0
M  V30 990 C 95.5084 1.28727 -1.96129 0
M  V30 991 C 96.5244 1.50916 -0.866044 0
M  V30 992 O 97.7004 1.63918 -1.17016 0
M  V30 993 C 94.7654 2.61569 -2.27558 0
M  V30 994 C 93.8264 2.47625 -3.50685 0
M  V30 995 C 93.0594 3.74132 -3.80606 0
M  V30 996 O 93.2824 4.77438 -3.12104 0
M  V30 997 O 92.2164 3.70849 -4.74083 0
M  V30 998 H 96.0424 0.977855 -2.87527 0
M  V30 999 H 93.6274 0.418358 -1.43423 0
M  V30 1000 H 95.5094 3.40012 -2.48938 0
M  V30 1001 H 94.1844 2.92178 -1.39332 0
M  V30 1002 H 93.0914 1.67361 -3.34576 0
M  V30 1003 H 94.4244 2.21954 -4.39315 0
M  V30 1004 N 96.0765 1.50051 0.48192 0
M  V30 1005 C 97.0235 1.68122 1.58125 0
M  V30 1006 C 97.9935 0.522545 1.57666 0
M  V30 1007 O 99.1785 0.751844 1.75362 0
M  V30 1008 C 96.3185 1.77142 2.96167 0
M  V30 1009 C 95.4315 3.0444 3.06497 0
M  V30 1010 C 94.5665 3.04321 4.35387 0
M  V30 1011 C 93.6055 4.26118 4.3942 0
M  V30 1012 N 92.7425 4.238 5.59766 0
M  V30 1013 H 97.5825 2.6198 1.42022 0
M  V30 1014 H 95.1195 1.29877 0.690687 0
M  V30 1015 H 97.0775 1.80352 3.76203 0
M  V30 1016 H 95.7075 0.867329 3.1093 0
M  V30 1017 H 94.7595 3.10752 2.19402 0
M  V30 1018 H 96.0715 3.94426 3.05336 0
M  V30 1019 H 95.2255 3.062 5.23762 0
M  V30 1020 H 93.9645 2.12147 4.39141 0
M  V30 1021 H 92.9695 4.24463 3.49444 0
M  V30 1022 H 94.1945 5.19507 4.37366 0
M  V30 1023 H 92.1405 3.34474 5.64326 0
M  V30 1024 H 92.0575 5.07542 5.60301 0
M  V30 1025 H 93.3255 4.2981 6.50295 0
M  V30 1026 N 97.5546 -0.734337 1.39446 0
M  V30 1027 C 98.8016 -1.49391 1.36706 0
M  V30 1028 C 99.1296 -1.94465 -0.0367813 0
M  V30 1029 O 98.3846 -1.67154 -1.01774 0
M  V30 1030 C 98.6836 -2.74711 2.28623 0
M  V30 1031 C 98.3496 -2.48501 3.76242 0
M  V30 1032 C 97.0116 -2.41062 4.16464 0
M  V30 1033 C 99.3636 -2.26098 4.69606 0
M  V30 1034 C 96.6916 -2.09262 5.48112 0
M  V30 1035 C 99.0436 -1.95814 6.01531 0
M  V30 1036 C 97.7076 -1.86845 6.40816 0
M  V30 1037 H 96.9776 -0.546661 0.500243 0
M  V30 1038 H 99.6246 -0.842788 1.71957 0
M  V30 1039 H 97.9296 -3.44569 1.86492 0
M  V30 1040 H 99.6266 -3.32741 2.23796 0
M  V30 1041 H 96.2166 -2.55169 3.44364 0
M  V30 1042 H 100.401 -2.30812 4.39363 0
M  V30 1043 H 95.6566 -2.00841 5.77471 0
M  V30 1044 H 99.8306 -1.77488 6.73403 0
M  V30 1045 H 97.4576 -1.6197 7.42745 0
M  V30 1046 N 99.0327 -1.24633 -0.964593 0
M  V30 1047 C 100.444 -1.08045 -1.5226 0
M  V30 1048 C 100.795 0.347116 -1.93105 0
M  V30 1049 O 99.9197 1.23588 -1.77637 0
M  V30 1050 C 100.515 -1.95514 -2.76695 0
M  V30 1051 C 99.0737 -1.8314 -3.28841 0
M  V30 1052 C 98.2207 -1.90262 -2.01732 0
M  V30 1053 H 101.172 -1.38064 -0.782553 0
M  V30 1054 H 101.193 -1.48925 -3.50145 0
M  V30 1055 H 100.705 -2.99407 -2.46936 0
M  V30 1056 H 98.8057 -0.82092 -3.63444 0
M  V30 1057 H 98.9187 -2.67406 -3.97531 0
M  V30 1058 H 97.2827 -1.34027 -2.16584 0
M  V30 1059 H 98.0657 -2.9574 -1.74334 0
M  V30 1060 N 100.511 1.16574 -1.06058 0
M  V30 1061 C 101.444 2.19798 -0.61352 0
M  V30 1062 C 102.422 1.58509 0.362453 0
M  V30 1063 O 103.606 1.86527 0.271994 0
M  V30 1064 C 100.733 3.3855 0.100915 0
M  V30 1065 C 99.7788 4.18317 -0.831438 0
M  V30 1066 S 100.612 4.82375 -2.32539 0
M  V30 1067 C 101.768 6.04508 -1.62238 0
M  V30 1068 H 102.001 2.5738 -1.48805 0
M  V30 1069 H 99.5338 1.27327 -0.873338 0
M  V30 1070 H 101.492 4.07358 0.506898 0
M  V30 1071 H 100.153 2.99338 0.951604 0
M  V30 1072 H 99.3458 5.03232 -0.278071 0
M  V30 1073 H 98.9478 3.5499 -1.17719 0
M  V30 1074 H 101.24 6.71133 -0.926622 0
M  V30 1075 H 102.183 6.64389 -2.44934 0
M  V30 1076 H 102.591 5.53559 -1.106 0
M  V30 1077 N 101.989 0.842826 1.3317 0
M  V30 1078 C 102.921 0.236245 2.27979 0
M  V30 1079 C 103.934 -0.585282 1.51915 0
M  V30 1080 O 105.123 -0.411705 1.73687 0
M  V30 1081 C 102.223 -0.685717 3.3189 0
M  V30 1082 C 101.396 0.0973448 4.37292 0
M  V30 1083 C 100.455 -0.748565 5.20848 0
M  V30 1084 O 99.4809 -0.186339 5.68895 0
M  V30 1085 N 100.683 -2.06527 5.42519 0
M  V30 1086 H 103.448 1.05088 2.80672 0
M  V30 1087 H 101.009 0.701667 1.45905 0
M  V30 1088 H 103.001 -1.25669 3.84694 0
M  V30 1089 H 101.571 -1.40105 2.79445 0
M  V30 1090 H 100.791 0.849706 3.84933 0
M  V30 1091 H 102.079 0.635643 5.04814 0
M  V30 1092 H 101.477 -2.54554 5.05192 0
M  V30 1093 H 100.034 -2.58464 5.98364 0
M  V30 1094 N 103.467 -1.45747 0.599634 0
M  V30 1095 C 104.692 -2.07178 0.0960198 0
M  V30 1096 C 105.117 -1.44268 -1.207 0
M  V30 1097 O 104.475 -0.532503 -1.73303 0
M  V30 1098 C 104.523 -3.60579 -0.0385348 0
M  V30 1099 O 103.627 -3.97713 -1.0908 0
M  V30 1100 H 102.968 -0.660251 0.0704593 0
M  V30 1101 H 105.498 -1.87124 0.827385 0
M  V30 1102 H 105.508 -4.07298 -0.239304 0
M  V30 1103 H 104.183 -4.05756 0.912947 0
M  V30 1104 H 102.76 -3.62678 -0.867135 0
M  V30 1105 N 104.945 -0.338344 -1.53925 0
M  V30 1106 C 106.191 0.260143 -2.01125 0
M  V30 1107 C 106.524 1.50617 -1.22589 0
M  V30 1108 O 105.799 1.91979 -0.312113 0
M  V30 1109 C 106.082 0.579499 -3.55407 0
M  V30 1110 C 105.935 -0.678264 -4.44657 0
M  V30 1111 C 107.254 1.39122 -4.17532 0
M  V30 1112 H 104.373 0.0930772 -0.731099 0
M  V30 1113 H 107.015 -0.457852 -1.84401 0
M  V30 1114 H 105.165 1.19118 -3.69788 0
M  V30 1115 H 106.837 -1.31631 -4.42121 0
M  V30 1116 H 105.08 -1.3042 -4.13731 0
M  V30 1117 H 105.751 -0.410143 -5.50474 0
M  V30 1118 H 108.227 0.874035 -4.06817 0
M  V30 1119 H 107.103 1.58342 -5.25565 0
M  V30 1120 H 107.364 2.39178 -3.71815 0
M  V30 1121 N 106.423 1.57458 -0.0668435 0
M  V30 1122 C 107.67 1.93301 0.603406 0
M  V30 1123 C 107.998 0.946486 1.69917 0
M  V30 1124 O 107.253 -0.0387021 1.95662 0
M  V30 1125 C 107.552 3.35784 1.22409 0
M  V30 1126 C 107.218 4.50179 0.254955 0
M  V30 1127 C 105.88 4.81199 -0.0116746 0
M  V30 1128 C 108.232 5.19598 -0.408338 0
M  V30 1129 C 105.56 5.78978 -0.94877 0
M  V30 1130 C 107.912 6.18381 -1.33372 0
M  V30 1131 C 106.576 6.47821 -1.60887 0
M  V30 1132 H 105.846 0.707338 0.220802 0
M  V30 1133 H 108.493 1.91012 -0.136665 0
M  V30 1134 H 106.798 3.34515 2.03978 0
M  V30 1135 H 108.495 3.60804 1.74989 0
M  V30 1136 H 105.085 4.25983 0.472954 0
M  V30 1137 H 109.269 4.95832 -0.215456 0
M  V30 1138 H 104.525 6.00115 -1.16925 0
M  V30 1139 H 108.699 6.71277 -1.85367 0
M  V30 1140 H 106.326 7.23399 -2.33661 0
M  V30 1141 N 107.901 -0.206675 1.56239 0
M  V30 1142 C 108.848 -1.25617 1.93621 0
M  V30 1143 C 109.818 -1.45824 0.795274 0
M  V30 1144 O 111.003 -1.59148 1.05245 0
M  V30 1145 C 108.143 -2.59839 2.27107 0
M  V30 1146 C 107.256 -2.47308 3.54207 0
M  V30 1147 C 106.391 -3.74155 3.7707 0
M  V30 1148 C 105.43 -3.56407 4.97635 0
M  V30 1149 N 104.567 -4.75238 5.1681 0
M  V30 1150 H 109.407 -0.930383 2.83104 0
M  V30 1151 H 106.944 -0.448065 1.4011 0
M  V30 1152 H 108.902 -3.38021 2.44535 0
M  V30 1153 H 107.532 -2.90485 1.40778 0
M  V30 1154 H 106.584 -1.60483 3.4489 0
M  V30 1155 H 107.896 -2.30122 4.42544 0
M  V30 1156 H 107.05 -4.60778 3.94675 0
M  V30 1157 H 105.789 -3.94282 2.87042 0
M  V30 1158 H 104.794 -2.68168 4.79964 0
M  V30 1159 H 106.019 -3.37736 5.89161 0
M  V30 1160 H 103.965 -4.95651 4.29728 0
M  V30 1161 H 103.882 -4.60835 5.99306 0
M  V30 1162 H 105.15 -5.63246 5.38864 0
M  V30 1163 N 109.379 -1.50304 -0.473955 0
M  V30 1164 C 110.309 -1.71886 -1.58042 0
M  V30 1165 C 111.29 -0.567799 -1.60344 0
M  V30 1166 O 112.475 -0.806623 -1.76656 0
M  V30 1167 C 109.605 -1.81036 -2.96384 0
M  V30 1168 C 108.559 -2.962 -3.08949 0
M  V30 1169 C 107.885 -2.9049 -4.48909 0
M  V30 1170 C 109.185 -4.36752 -2.86434 0
M  V30 1171 H 110.879 -2.64527 -1.40234 0
M  V30 1172 H 108.425 -1.27295 -0.673201 0
M  V30 1173 H 110.378 -1.94719 -3.73714 0
M  V30 1174 H 109.102 -0.850147 -3.15341 0
M  V30 1175 H 107.761 -2.82164 -2.3405 0
M  V30 1176 H 107.409 -1.92321 -4.64781 0
M  V30 1177 H 107.109 -3.67802 -4.58253 0
M  V30 1178 H 108.633 -3.06218 -5.28264 0
M  V30 1179 H 110.047 -4.5133 -3.53517 0
M  V30 1180 H 108.444 -5.15493 -3.07225 0
M  V30 1181 H 109.514 -4.49321 -1.82316 0
M  V30 1182 N 110.857 0.726932 -1.39834 0
M  V30 1183 C 111.807 1.83232 -1.35683 0
M  V30 1184 C 112.791 1.59155 -0.236295 0
M  V30 1185 O 113.983 1.70522 -0.474488 0
M  V30 1186 C 111.112 3.21246 -1.21062 0
M  V30 1187 C 110.198 3.51125 -2.37849 0
M  V30 1188 N 110.589 3.51889 -3.63329 0
M  V30 1189 C 108.887 3.81527 -2.30982 0
M  V30 1190 C 109.588 3.79791 -4.40606 0
M  V30 1191 N 108.564 3.97971 -3.70297 0
M  V30 1192 H 112.366 1.8214 -2.30656 0
M  V30 1193 H 109.88 0.925545 -1.33444 0
M  V30 1194 H 111.877 4.00387 -1.16171 0
M  V30 1195 H 110.537 3.23572 -0.270458 0
M  V30 1196 H 111.548 3.33008 -3.96643 0
M  V30 1197 H 108.225 3.91411 -1.45272 0
M  V30 1198 H 109.615 3.86783 -5.49408 0
M  V30 1199 N 112.336 1.25143 0.95797 0
M  V30 1200 C 113.266 1.07711 2.07173 0
M  V30 1201 C 114.247 -0.0128462 1.70095 0
M  V30 1202 O 115.432 0.156061 1.93572 0
M  V30 1203 C 112.562 0.691503 3.40346 0
M  V30 1204 C 111.516 1.73132 3.9142 0
M  V30 1205 C 110.842 1.20049 5.21049 0
M  V30 1206 C 112.142 3.1294 4.1817 0
M  V30 1207 H 113.836 2.00873 2.22014 0
M  V30 1208 H 111.382 0.967191 1.06684 0
M  V30 1209 H 113.335 0.556505 4.17709 0
M  V30 1210 H 112.059 -0.275819 3.25433 0
M  V30 1211 H 110.718 1.8547 3.16222 0
M  V30 1212 H 110.366 0.223499 5.02503 0
M  V30 1213 H 110.066 1.89545 5.56189 0
M  V30 1214 H 111.59 1.07782 6.01012 0
M  V30 1215 H 113.004 3.03775 4.86203 0
M  V30 1216 H 111.401 3.79875 4.64559 0
M  V30 1217 H 112.471 3.6025 3.24573 0
M  V30 1218 N 113.814 -1.1601 1.06675 0
M  V30 1219 C 114.777 -2.18724 0.685001 0
M  V30 1220 C 115.777 -1.58496 -0.271246 0
M  V30 1221 O 116.967 -1.74119 -0.0531156 0
M  V30 1222 C 114.099 -3.40899 0.00853648 0
M  V30 1223 H 115.292 -2.54011 1.59431 0
M  V30 1224 H 112.845 -1.30352 0.862441 0
M  V30 1225 H 113.58 -3.11173 -0.913337 0
M  V30 1226 H 113.365 -3.8587 0.696204 0
M  V30 1227 H 114.855 -4.16886 -0.24414 0
M  V30 1228 N 115.292 -0.849877 -1.32721 0
M  V30 1229 C 116.225 -0.235903 -2.26977 0
M  V30 1230 C 117.203 0.623355 -1.50177 0
M  V30 1231 O 118.387 0.581207 -1.79316 0
M  V30 1232 C 115.514 0.667712 -3.32053 0
M  V30 1233 C 114.56 -0.11753 -4.26338 0
M  V30 1234 S 115.393 -1.48277 -5.14562 0
M  V30 1235 C 116.549 -0.584741 -6.23163 0
M  V30 1236 H 116.782 -1.03495 -2.78704 0
M  V30 1237 H 114.315 -0.64724 -1.40179 0
M  V30 1238 H 116.273 1.18343 -3.93072 0
M  V30 1239 H 114.934 1.44052 -2.7912 0
M  V30 1240 H 114.127 0.57051 -5.00761 0
M  V30 1241 H 113.729 -0.564668 -3.69713 0
M  V30 1242 H 116.021 0.212968 -6.77165 0
M  V30 1243 H 116.964 -1.29947 -6.96074 0
M  V30 1244 H 117.372 -0.161202 -5.6427 0
M  V30 1245 N 116.77 1.45427 -0.607355 0
M  V30 1246 C 117.7 2.3329 0.0989352 0
M  V30 1247 C 118.681 1.46816 0.859007 0
M  V30 1248 O 119.866 1.75588 0.829604 0
M  V30 1249 C 116.996 3.29518 1.09705 0
M  V30 1250 C 115.95 4.25626 0.450206 0
M  V30 1251 C 115.276 5.11542 1.55655 0
M  V30 1252 C 116.576 5.18505 -0.628455 0
M  V30 1253 H 118.27 2.92595 -0.634716 0
M  V30 1254 H 115.816 1.40696 -0.306681 0
M  V30 1255 H 117.769 3.89855 1.59971 0
M  V30 1256 H 116.493 2.68372 1.86129 0
M  V30 1257 H 115.152 3.66586 -0.0315886 0
M  V30 1258 H 114.8 4.46765 2.31107 0
M  V30 1259 H 114.5 5.76647 1.12925 0
M  V30 1260 H 116.024 5.74748 2.06148 0
M  V30 1261 H 117.438 5.72916 -0.209877 0
M  V30 1262 H 115.835 5.92085 -0.977489 0
M  V30 1263 H 116.905 4.60948 -1.50514 0
M  V30 1264 N 118.248 0.346503 1.53744 0
M  V30 1265 C 119.494 -0.249473 2.0126 0
M  V30 1266 C 119.827 -1.49965 1.23386 0
M  V30 1267 O 119.102 -1.91811 0.32229 0
M  V30 1268 C 119.385 -0.560643 3.55709 0
M  V30 1269 C 119.238 0.701836 4.44291 0
M  V30 1270 C 120.557 -1.36905 4.18264 0
M  V30 1271 H 117.676 -0.0891987 0.731582 0
M  V30 1272 H 120.318 0.467624 1.84156 0
M  V30 1273 H 118.468 -1.17156 3.70414 0
M  V30 1274 H 120.14 1.33974 4.41417 0
M  V30 1275 H 118.383 1.32612 4.13033 0
M  V30 1276 H 119.054 0.43933 5.50249 0
M  V30 1277 H 121.53 -0.852448 4.07275 0
M  V30 1278 H 120.406 -1.55553 5.26398 0
M  V30 1279 H 120.667 -2.37203 3.73078 0
M  V30 1280 N 119.726 -1.57421 0.075193 0
M  V30 1281 C 120.656 -2.15942 -0.888324 0
M  V30 1282 C 121.637 -1.08737 -1.30806 0
M  V30 1283 O 122.822 -1.36787 -1.37851 0
M  V30 1284 C 119.952 -2.72379 -2.1547 0
M  V30 1285 C 118.906 -3.8478 -1.87425 0
M  V30 1286 C 118.232 -4.27834 -3.20721 0
M  V30 1287 C 119.532 -5.08869 -1.17684 0
M  V30 1288 H 121.226 -2.96705 -0.400799 0
M  V30 1289 H 118.772 -1.42723 -0.191342 0
M  V30 1290 H 120.725 -3.11965 -2.83295 0
M  V30 1291 H 119.449 -1.88841 -2.6647 0
M  V30 1292 H 118.108 -3.45703 -1.22004 0
M  V30 1293 H 117.756 -3.41214 -3.6957 0
M  V30 1294 H 117.456 -5.03605 -3.02746 0
M  V30 1295 H 118.98 -4.70039 -3.89738 0
M  V30 1296 H 120.394 -5.4575 -1.75584 0
M  V30 1297 H 118.791 -5.8994 -1.09956 0
M  V30 1298 H 119.861 -4.84648 -0.156453 0
M  V30 1299 N 121.204 0.198386 -1.56346 0
M  V30 1300 C 122.154 1.2499 -1.90687 0
M  V30 1301 C 123.138 1.41158 -0.772217 0
M  V30 1302 O 124.33 1.43584 -1.03502 0
M  V30 1303 C 121.459 2.59542 -2.24706 0
M  V30 1304 C 120.545 2.47181 -3.44619 0
M  V30 1305 N 120.936 2.04495 -4.62618 0
M  V30 1306 C 119.234 2.78082 -3.48692 0
M  V30 1307 C 119.935 2.03945 -5.44776 0
M  V30 1308 N 118.911 2.45323 -4.85095 0
M  V30 1309 H 122.713 0.911149 -2.7942 0
M  V30 1310 H 120.227 0.40684 -1.57221 0
M  V30 1311 H 122.224 3.3549 -2.47491 0
M  V30 1312 H 120.884 2.94244 -1.37298 0
M  V30 1313 H 121.895 1.75256 -4.87345 0
M  V30 1314 H 118.572 3.17002 -2.71691 0
M  V30 1315 H 119.962 1.72872 -6.4928 0
M  V30 1316 N 122.682 1.50554 0.465978 0
M  V30 1317 C 123.614 1.65949 1.58093 0
M  V30 1318 C 124.627 0.540827 1.53554 0
M  V30 1319 O 125.816 0.814187 1.5885 0
M  V30 1320 C 122.916 1.63261 2.96983 0
M  V30 1321 C 122.089 2.91245 3.26336 0
M  V30 1322 C 121.148 2.8113 4.44806 0
M  V30 1323 O 120.174 3.55086 4.44862 0
M  V30 1324 N 121.376 1.95032 5.46756 0
M  V30 1325 H 124.141 2.62122 1.45301 0
M  V30 1326 H 121.702 1.48082 0.65448 0
M  V30 1327 H 123.694 1.54101 3.74212 0
M  V30 1328 H 122.264 0.748032 3.03518 0
M  V30 1329 H 121.484 3.14493 2.37672 0
M  V30 1330 H 122.772 3.76022 3.42761 0
M  V30 1331 H 122.17 1.3427 5.49534 0
M  V30 1332 H 120.727 1.91772 6.2295 0
M  V30 1333 N 124.16 -0.719506 1.40217 0
M  V30 1334 C 125.406 -1.48152 1.38488 0
M  V30 1335 C 125.739 -1.94195 -0.0141867 0
M  V30 1336 O 125.014 -1.67884 -0.982096 0
M  V30 1337 C 125.297 -2.71035 2.37091 0
M  V30 1338 C 125.15 -2.30912 3.86005 0
M  V30 1339 C 126.469 -3.73182 2.33288 0
M  V30 1340 H 123.588 -0.537395 0.504357 0
M  V30 1341 H 126.23 -0.821472 1.71324 0
M  V30 1342 H 124.38 -3.27352 2.0922 0
M  V30 1343 H 126.052 -1.80107 4.24687 0
M  V30 1344 H 124.295 -1.62958 4.02029 0
M  V30 1345 H 124.966 -3.18978 4.50508 0
M  V30 1346 H 127.442 -3.26485 2.57966 0
M  V30 1347 H 126.318 -4.56806 3.04334 0
M  V30 1348 H 126.579 -4.21202 1.34317 0
M  V30 1349 N 125.638 -1.25649 -0.95132 0
M  V30 1350 C 126.915 -1.01361 -1.67288 0
M  V30 1351 C 127.295 0.459135 -2.06046 0
M  V30 1352 O 126.643 1.43723 -1.7764 0
M  V30 1353 C 126.853 -1.95256 -2.89268 0
M  V30 1354 C 128.201 -2.23289 -3.61147 0
M  V30 1355 O 129.225 -1.93041 -2.99355 0
M  V30 1356 O 128.084 -2.74741 -4.72419 0
M  V30 1357 H 125.178 -0.38464 -0.732107 0
M  V30 1358 H 127.724 -1.36817 -1.00395 0
M  V30 1359 H 126.496 -2.94685 -2.57442 0
M  V30 1360 H 126.119 -1.60218 -3.6389 0
M  V30 1361 N 127.117 1.15442 -1.07289 0
M  V30 1362 C 128.049 2.19773 -0.650585 0
M  V30 1363 C 129.062 1.60076 0.296572 0
M  V30 1364 O 130.251 1.78293 0.0859905 0
M  V30 1365 C 127.351 3.38838 0.0650398 0
M  V30 1366 C 126.524 4.2808 -0.898141 0
M  V30 1367 C 125.583 5.2574 -0.219926 0
M  V30 1368 O 124.609 5.62654 -0.860773 0
M  V30 1369 N 125.811 5.71205 1.03466 0
M  V30 1370 H 128.576 2.56622 -1.54808 0
M  V30 1371 H 126.137 1.30551 -0.957494 0
M  V30 1372 H 128.129 4.01222 0.529415 0
M  V30 1373 H 126.699 3.00409 0.864466 0
M  V30 1374 H 125.919 3.62804 -1.54165 0
M  V30 1375 H 127.207 4.84577 -1.5512 0
M  V30 1376 H 126.605 5.43325 1.57526 0
M  V30 1377 H 125.162 6.35633 1.44272 0
M  V30 1378 N 128.595 0.856903 1.32268 0
M  V30 1379 C 129.843 0.460474 1.96784 0
M  V30 1380 C 130.164 -0.987701 1.68135 0
M  V30 1381 O 129.434 -1.69058 0.989765 0
M  V30 1382 H 128.014 0.167289 0.728027 0
M  V30 1383 H 130.676 1.09383 1.61312 0
M  V30 1384 H 129.772 0.60739 3.06133 0
M  V30 1385 N 130.073 -1.45103 0.615059 0
M  V30 1386 C 131.02 -2.30586 -0.0993978 0
M  V30 1387 C 131.99 -1.42544 -0.852669 0
M  V30 1388 O 133.175 -1.71465 -0.836917 0
M  V30 1389 C 130.315 -3.27572 -1.08583 0
M  V30 1390 C 129.428 -4.30717 -0.332656 0
M  V30 1391 C 128.563 -5.14807 -1.30947 0
M  V30 1392 C 127.602 -6.09673 -0.544538 0
M  V30 1393 N 126.739 -6.86517 -1.47101 0
M  V30 1394 H 131.579 -2.91144 0.635542 0
M  V30 1395 H 129.116 -1.4346 0.325206 0
M  V30 1396 H 131.074 -3.82276 -1.67095 0
M  V30 1397 H 129.704 -2.68751 -1.78809 0
M  V30 1398 H 128.756 -3.78615 0.368107 0
M  V30 1399 H 130.068 -4.98102 0.263842 0
M  V30 1400 H 129.222 -5.73948 -1.96643 0
M  V30 1401 H 127.961 -4.47458 -1.9399 0
M  V30 1402 H 126.966 -5.49656 0.126003 0
M  V30 1403 H 128.191 -6.79052 0.080947 0
M  V30 1404 H 126.137 -6.21851 -2.08895 0
M  V30 1405 H 126.054 -7.50281 -0.928137 0
M  V30 1406 H 127.322 -7.50194 -2.11731 0
M  V30 1407 N 131.551 -0.354651 -1.53558 0
M  V30 1408 C 132.481 0.489091 -2.2832 0
M  V30 1409 C 133.462 1.09324 -1.30316 0
M  V30 1410 O 134.647 1.11255 -1.59173 0
M  V30 1411 C 131.777 1.63456 -3.0643 0
M  V30 1412 C 130.731 1.1582 -4.12031 0
M  V30 1413 C 130.057 2.39305 -4.7816 0
M  V30 1414 C 131.357 0.250731 -5.21698 0
M  V30 1415 H 133.051 -0.134614 -2.99097 0
M  V30 1416 H 130.597 -0.0661826 -1.43848 0
M  V30 1417 H 132.55 2.23136 -3.57475 0
M  V30 1418 H 131.274 2.28533 -2.33325 0
M  V30 1419 H 129.933 0.584146 -3.61916 0
M  V30 1420 H 129.581 3.02814 -4.01637 0
M  V30 1421 H 129.281 2.08109 -5.49513 0
M  V30 1422 H 130.805 2.99691 -5.31994 0
M  V30 1423 H 132.219 0.754695 -5.68311 0
M  V30 1424 H 130.616 0.0301468 -6.00092 0
M  V30 1425 H 131.686 -0.710125 -4.79672 0
M  V30 1426 N 133.029 1.57378 -0.0835403 0
M  V30 1427 C 134.306 1.85363 0.624507 0
M  V30 1428 C 134.686 0.978239 1.87066 0
M  V30 1429 O 134.034 0.0475908 2.2845 0
M  V30 1430 C 134.244 3.35795 0.950947 0
M  V30 1431 C 135.592 4.03581 1.31939 0
M  V30 1432 O 136.616 3.40609 1.04232 0
M  V30 1433 O 135.475 5.14672 1.83779 0
M  V30 1434 H 132.569 0.766162 0.311329 0
M  V30 1435 H 135.115 1.69307 -0.115362 0
M  V30 1436 H 133.887 3.91244 0.0663899 0
M  V30 1437 H 133.51 3.57154 1.74719 0
M  V30 1438 N 134.507 -0.190092 1.56449 0
M  V30 1439 C 135.437 -1.23816 1.97969 0
M  V30 1440 C 136.418 -1.47201 0.852395 0
M  V30 1441 O 137.603 -1.58854 1.1171 0
M  V30 1442 C 134.733 -2.5813 2.3235 0
M  V30 1443 C 133.687 -2.49348 3.47864 0
M  V30 1444 C 133.013 -3.8798 3.67934 0
M  V30 1445 C 134.313 -2.01424 4.81898 0
M  V30 1446 H 136.007 -0.89311 2.85769 0
M  V30 1447 H 133.553 -0.428177 1.37487 0
M  V30 1448 H 135.506 -3.31637 2.59991 0
M  V30 1449 H 134.23 -2.94386 1.41438 0
M  V30 1450 H 132.889 -1.78297 3.20321 0
M  V30 1451 H 132.537 -4.21597 2.74344 0
M  V30 1452 H 132.237 -3.82978 4.45648 0
M  V30 1453 H 133.761 -4.63101 3.97957 0
M  V30 1454 H 135.175 -2.64693 5.08538 0
M  V30 1455 H 133.572 -2.07413 5.63116 0
M  V30 1456 H 134.642 -0.967677 4.75146 0
M  V30 1457 N 135.985 -1.50799 -0.457987 0
M  V30 1458 C 136.933 -1.71162 -1.575 0
M  V30 1459 C 137.927 -0.577592 -1.59249 0
M  V30 1460 O 139.133 -0.758443 -1.63241 0
M  V30 1461 H 135.508 -0.540468 -0.522875 0
M  V30 1462 H 137.479 -2.64837 -1.37492 0
M  V30 1463 C 136.228 -1.83496 -2.95338 0
M  V30 1464 H 135.551 -2.70153 -2.94716 0
M  V30 1465 H 136.991 -2.01765 -3.72917 0
M  V30 1466 C 135.45 -0.589694 -3.31699 0
M  V30 1467 O 135.98 0.265163 -4.00824 0
M  V30 1468 N 134.186 -0.439845 -2.87252 0
M  V30 1469 H 133.733 -1.13655 -2.31172 0
M  V30 1470 H 133.691 0.392159 -3.11945 0
M  V30 1471 N 137.463 0.71206 -1.40597 0
M  V30 1472 C 138.395 1.83704 -1.37061 0
M  V30 1473 C 139.408 1.60453 -0.275426 0
M  V30 1474 O 140.597 1.70262 -0.53602 0
M  V30 1475 C 137.697 3.20172 -1.11099 0
M  V30 1476 C 136.87 3.7059 -2.3234 0
M  V30 1477 C 135.929 4.85681 -2.02485 0
M  V30 1478 O 134.955 4.9815 -2.75382 0
M  V30 1479 N 136.157 5.71735 -1.00497 0
M  V30 1480 H 138.922 1.87235 -2.34016 0
M  V30 1481 H 136.483 0.893739 -1.34996 0
M  V30 1482 H 138.475 3.94768 -0.891064 0
M  V30 1483 H 137.045 3.11767 -0.227989 0
M  V30 1484 H 136.265 2.87085 -2.7014 0
M  V30 1485 H 137.553 4.01011 -3.13157 0
M  V30 1486 H 136.951 5.64275 -0.401298 0
M  V30 1487 H 135.508 6.463 -0.844942 0
M  V30 1488 N 138.941 1.26152 0.944643 0
M  V30 1489 C 140.169 1.14259 1.72489 0
M  V30 1490 C 140.584 -0.302555 1.8636 0
M  V30 1491 O 139.941 -1.20741 1.36849 0
M  V30 1492 C 139.992 1.80266 3.13347 0
M  V30 1493 O 139.713 3.19133 3.00143 0
M  V30 1494 C 141.214 1.74283 4.07603 0
M  V30 1495 H 138.434 0.398051 0.540181 0
M  V30 1496 H 140.978 1.66706 1.18446 0
M  V30 1497 H 139.133 1.31766 3.64303 0
M  V30 1498 H 139.547 3.51744 3.89071 0
M  V30 1499 H 141.021 2.25111 5.04013 0
M  V30 1500 H 141.498 0.708631 4.33446 0
M  V30 1501 H 142.104 2.22319 3.62567 0
M  V30 1502 N 140.419 -1.14872 1.07899 0
M  V30 1503 C 141.665 -1.86064 0.806725 0
M  V30 1504 C 141.998 -1.82434 -0.665706 0
M  V30 1505 O 141.273 -1.25138 -1.48899 0
M  V30 1506 C 141.556 -3.34929 1.32267 0
M  V30 1507 C 141.409 -3.47161 2.86006 0
M  V30 1508 C 142.728 -4.29863 0.943717 0
M  V30 1509 H 139.847 -0.675591 0.294526 0
M  V30 1510 H 142.489 -1.34925 1.33773 0
M  V30 1511 H 140.639 -3.78611 0.870974 0
M  V30 1512 H 142.311 -3.12302 3.39507 0
M  V30 1513 H 140.554 -2.88539 3.23925 0
M  V30 1514 H 141.225 -4.51777 3.17177 0
M  V30 1515 H 143.701 -3.9417 1.33302 0
M  V30 1516 H 142.577 -5.32494 1.33198 0
M  V30 1517 H 142.838 -4.41846 -0.149796 0
M  V30 1518 N 141.898 -0.863906 -1.31812 0
M  V30 1519 C 143.147 -0.46801 -1.96195 0
M  V30 1520 C 143.46 0.983474 -1.69077 0
M  V30 1521 O 144.666 1.48523 -2.27273 0
M  V30 1522 C 143.122 -0.785995 -3.51212 0
M  V30 1523 C 142.73 -2.25383 -3.87178 0
M  V30 1524 C 144.474 -0.458274 -4.22019 0
M  V30 1525 C 142.381 -2.51455 -5.3528 0
M  V30 1526 H 141.311 -0.171283 -0.734287 0
M  V30 1527 H 143.962 -1.05597 -1.50072 0
M  V30 1528 H 142.344 -0.127359 -3.95795 0
M  V30 1529 H 143.518 -2.95502 -3.53575 0
M  V30 1530 H 141.833 -2.54698 -3.2942 0
M  V30 1531 H 144.43 -0.630369 -5.30971 0
M  V30 1532 H 144.773 0.600834 -4.11941 0
M  V30 1533 H 145.306 -1.07319 -3.8305 0
M  V30 1534 H 142.045 -3.56025 -5.50387 0
M  V30 1535 H 141.565 -1.85923 -5.70257 0
M  V30 1536 H 143.244 -2.35874 -6.02472 0
M  V30 1537 N 143.376 1.44774 -0.622745 0
M  V30 1538 C 144.622 2.0242 -0.124083 0
M  V30 1539 C 144.955 1.4881 1.24777 0
M  V30 1540 O 144.23 0.668799 1.8264 0
M  V30 1541 C 144.513 3.59957 -0.101619 0
M  V30 1542 C 144.366 4.23867 -1.50521 0
M  V30 1543 C 145.685 4.36284 0.578272 0
M  V30 1544 H 142.804 0.735528 -0.0465645 0
M  V30 1545 H 145.446 1.72447 -0.797617 0
M  V30 1546 H 143.596 3.85623 0.471934 0
M  V30 1547 H 145.268 4.09336 -2.12701 0
M  V30 1548 H 143.511 3.81684 -2.06154 0
M  V30 1549 H 144.182 5.32843 -1.4416 0
M  V30 1550 H 146.658 4.16001 0.0906057 0
M  V30 1551 H 145.534 5.46004 0.563149 0
M  V30 1552 H 145.795 4.10271 1.64713 0
M  V30 1553 N 144.854 0.36279 1.53368 0
M  V30 1554 C 145.802 -0.500155 2.27159 0
M  V30 1555 C 146.796 -1.08575 1.3003 0
M  V30 1556 O 148.002 -1.02927 1.47668 0
M  V30 1557 H 144.377 -0.180009 0.730138 0
M  V30 1558 H 146.348 0.14401 2.98052 0
M  V30 1559 C 145.097 -1.62937 3.07159 0
M  V30 1560 H 144.42 -1.18806 3.8174 0
M  V30 1561 H 145.86 -2.20795 3.61975 0
M  V30 1562 C 144.319 -2.57007 2.17829 0
M  V30 1563 O 144.849 -3.59752 1.78721 0
M  V30 1564 N 143.055 -2.26131 1.82518 0
M  V30 1565 H 142.602 -1.42616 2.14519 0
M  V30 1566 H 142.56 -2.89327 1.23034 0
M  V30 1567 N 146.332 -1.57332 0.0918853 0
M  V30 1568 C 147.748 -1.57389 -0.264766 0
M  V30 1569 C 147.948 -1.10281 -1.68643 0
M  V30 1570 O 147.004 -0.777801 -2.40222 0
M  V30 1571 C 148.317 -3.00648 -0.0561195 0
M  V30 1572 C 149.865 -3.12754 -0.124116 0
M  V30 1573 C 150.34 -4.57965 0.0564972 0
M  V30 1574 N 151.831 -4.632 0.00155611 0
M  V30 1575 C 152.566 -5.73281 0.116598 0
M  V30 1576 N 152.062 -6.92208 0.286294 0
M  V30 1577 N 153.855 -5.6207 0.0580973 0
M  V30 1578 H 146.006 -1.86262 1.02079 0
M  V30 1579 H 148.269 -0.859579 0.399786 0
M  V30 1580 H 147.975 -3.393 0.925669 0
M  V30 1581 H 147.849 -3.68623 -0.799823 0
M  V30 1582 H 150.236 -2.73976 -1.09641 0
M  V30 1583 H 150.317 -2.47377 0.651024 0
M  V30 1584 H 149.961 -4.97436 1.02564 0
M  V30 1585 H 149.891 -5.21399 -0.738297 0
M  V30 1586 H 152.382 -3.77686 -0.127192 0
M  V30 1587 H 152.695 -7.71934 0.365676 0
M  V30 1588 H 151.04 -6.94254 0.32192 0
M  V30 1589 H 154.231 -4.68043 -0.0733204 0
M  V30 1590 H 154.404 -6.47824 0.151203 0
M  V30 1591 N 147.81 0.181792 -1.56548 0
M  V30 1592 C 148.773 1.20894 -1.94724 0
M  V30 1593 C 149.773 1.37738 -0.829747 0
M  V30 1594 O 150.963 1.35323 -1.09697 0
M  V30 1595 C 148.095 2.57593 -2.23291 0
M  V30 1596 H 149.288 0.882275 -2.86629 0
M  V30 1597 H 146.841 0.423838 -1.50444 0
M  V30 1598 H 147.576 2.95291 -1.34067 0
M  V30 1599 H 147.361 2.46735 -3.04736 0
M  V30 1600 H 148.851 3.31637 -2.53785 0
M  V30 1601 N 149.288 1.51039 0.449983 0
M  V30 1602 C 150.235 1.71439 1.54523 0
M  V30 1603 C 151.205 0.555871 1.56522 0
M  V30 1604 O 152.39 0.788871 1.73728 0
M  V30 1605 C 149.53 1.83384 2.92343 0
M  V30 1606 C 148.643 3.10873 2.9997 0
M  V30 1607 C 147.778 3.13488 4.28834 0
M  V30 1608 C 146.817 4.35343 4.30282 0
M  V30 1609 N 145.954 4.35579 5.5065 0
M  V30 1610 H 150.794 2.64934 1.36433 0
M  V30 1611 H 148.331 1.31312 0.662982 0
M  V30 1612 H 150.289 1.88291 3.72293 0
M  V30 1613 H 148.919 0.933086 3.0902 0
M  V30 1614 H 147.971 3.15336 2.12761 0
M  V30 1615 H 149.283 4.00814 2.96901 0
M  V30 1616 H 148.437 3.17241 5.17149 0
M  V30 1617 H 147.176 2.21414 4.34543 0
M  V30 1618 H 146.181 4.3178 3.40362 0
M  V30 1619 H 147.406 5.28668 4.26248 0
M  V30 1620 H 145.352 3.46369 5.57104 0
M  V30 1621 H 145.269 5.19313 5.49409 0
M  V30 1622 H 146.537 4.43507 6.41032 0
M  V30 1623 N 150.766 -0.704594 1.40972 0
M  V30 1624 C 152.012 -1.46675 1.40051 0
M  V30 1625 C 152.345 -1.94199 0.00641102 0
M  V30 1626 O 151.62 -1.68916 -0.964235 0
M  V30 1627 C 151.903 -2.68505 2.39952 0
M  V30 1628 C 151.756 -2.26805 3.88432 0
M  V30 1629 C 153.075 -3.70686 2.37233 0
M  V30 1630 H 150.194 -0.532015 0.510028 0
M  V30 1631 H 152.836 -0.803255 1.72185 0
M  V30 1632 H 150.986 -3.25114 2.1268 0
M  V30 1633 H 152.658 -1.75592 4.26574 0
M  V30 1634 H 150.901 -1.58685 4.03734 0
M  V30 1635 H 151.572 -3.14181 4.53866 0
M  V30 1636 H 154.048 -3.23731 2.61415 0
M  V30 1637 H 152.924 -4.53553 3.09162 0
M  V30 1638 H 153.185 -4.19754 1.38777 0
M  V30 1639 N 152.244 -1.26651 -0.937939 0
M  V30 1640 C 153.174 -1.10993 -2.05433 0
M  V30 1641 C 154.155 -0.0142161 -1.70094 0
M  V30 1642 O 155.34 -0.186837 -1.93299 0
M  V30 1643 C 152.47 -0.745561 -3.39203 0
M  V30 1644 C 151.424 -1.79337 -3.88616 0
M  V30 1645 C 150.75 -1.28324 -5.19073 0
M  V30 1646 C 152.05 -3.19553 -4.13138 0
M  V30 1647 H 153.744 -2.0438 -2.1879 0
M  V30 1648 H 151.29 -0.984041 -1.05131 0
M  V30 1649 H 153.243 -0.622888 -4.16771 0
M  V30 1650 H 151.967 0.22401 -3.25831 0
M  V30 1651 H 150.626 -1.90477 -3.13231 0
M  V30 1652 H 150.274 -0.303414 -5.02084 0
M  V30 1653 H 149.974 -1.98369 -5.53103 0
M  V30 1654 H 151.498 -1.1733 -5.99221 0
M  V30 1655 H 152.912 -3.11471 -4.81309 0
M  V30 1656 H 151.309 -3.87218 -4.58457 0
M  V30 1657 H 152.379 -3.65368 -3.18801 0
M  V30 1658 N 153.722 1.14298 -1.08507 0
M  V30 1659 C 154.654 2.1907 -0.673859 0
M  V30 1660 C 155.667 1.60381 0.279577 0
M  V30 1661 O 156.856 1.78374 0.0670754 0
M  V30 1662 C 153.956 3.38888 0.0290979 0
M  V30 1663 C 153.129 4.27103 -0.943494 0
M  V30 1664 C 152.188 5.25477 -0.275676 0
M  V30 1665 O 151.214 5.61709 -0.920401 0
M  V30 1666 N 152.416 5.7227 0.974013 0
M  V30 1667 H 155.181 2.54965 -1.57521 0
M  V30 1668 H 152.742 1.29528 -0.971287 0
M  V30 1669 H 154.734 4.01761 0.48683 0
M  V30 1670 H 153.304 3.01309 0.832555 0
M  V30 1671 H 152.524 3.61149 -1.58004 0
M  V30 1672 H 153.812 4.82905 -1.60251 0
M  V30 1673 H 153.21 5.44965 1.51755 0
M  V30 1674 H 151.767 6.37127 1.37522 0
M  V30 1675 N 155.201 0.870884 1.31352 0
M  V30 1676 C 156.149 0.316445 2.30437 0
M  V30 1677 C 157.143 -0.568965 1.59559 0
M  V30 1678 O 158.349 -0.454964 1.74155 0
M  V30 1679 H 154.724 0.0836521 0.747333 0
M  V30 1680 H 156.695 1.16606 2.74673 0
M  V30 1681 C 155.444 -0.46635 3.44558 0
M  V30 1682 H 154.767 0.205687 3.99271 0
M  V30 1683 H 156.207 -0.819614 4.16003 0
M  V30 1684 C 154.666 -1.65797 2.9328 0
M  V30 1685 O 155.196 -2.75728 2.92125 0
M  V30 1686 N 153.402 -1.49041 2.4947 0
M  V30 1687 H 152.949 -0.59612 2.50608 0
M  V30 1688 H 152.907 -2.28911 2.15516 0
M  V30 1689 N 156.679 -1.44442 0.630414 0
M  V30 1690 C 157.907 -2.06414 0.141671 0
M  V30 1691 C 158.322 -1.47105 -1.18345 0
M  V30 1692 O 157.679 -0.593662 -1.72574 0
M  V30 1693 C 157.73 -3.61494 0.0199784 0
M  V30 1694 O 157.451 -4.18594 1.29269 0
M  V30 1695 C 158.952 -4.40499 -0.497544 0
M  V30 1696 H 156.172 -0.666292 0.0793452 0
M  V30 1697 H 158.716 -1.85323 0.864614 0
M  V30 1698 H 156.871 -3.8185 -0.653402 0
M  V30 1699 H 157.285 -5.12026 1.13707 0
M  V30 1700 H 158.759 -5.49433 -0.531708 0
M  V30 1701 H 159.236 -4.11895 -1.52445 0
M  V30 1702 H 159.842 -4.25061 0.142562 0
M  V30 1703 N 158.157 -0.370918 -1.53173 0
M  V30 1704 C 159.403 0.209976 -2.02313 0
M  V30 1705 C 159.758 1.45987 -1.25322 0
M  V30 1706 O 159.051 1.8856 -0.339965 0
M  V30 1707 C 159.245 0.549696 -3.53147 0
M  V30 1708 C 159.074 -0.665721 -4.44745 0
M  V30 1709 C 157.844 -1.17942 -4.91343 0
M  V30 1710 C 160.042 -1.53255 -4.90935 0
M  V30 1711 N 158.024 -2.35431 -5.66962 0
M  V30 1712 C 159.395 -2.55403 -5.64951 0
M  V30 1713 C 161.45 -1.5548 -4.73002 0
M  V30 1714 C 160.153 -3.5964 -6.22938 0
M  V30 1715 C 162.179 -2.58613 -5.31858 0
M  V30 1716 C 161.541 -3.59485 -6.05764 0
M  V30 1717 H 157.64 0.0394095 -0.781006 0
M  V30 1718 H 160.224 -0.516666 -1.8772 0
M  V30 1719 H 158.395 1.24541 -3.67891 0
M  V30 1720 H 160.127 1.11614 -3.89004 0
M  V30 1721 H 156.882 -0.743228 -4.67732 0
M  V30 1722 H 157.306 -2.94827 -6.09431 0
M  V30 1723 H 161.948 -0.788457 -4.15383 0
M  V30 1724 H 159.666 -4.37153 -6.79649 0
M  V30 1725 H 163.252 -2.61195 -5.19873 0
M  V30 1726 H 162.132 -4.3798 -6.50495 0
M  V30 1727 N 159.635 1.57281 -0.100228 0
M  V30 1728 C 160.598 2.13158 0.842398 0
M  V30 1729 C 161.598 1.06202 1.20738 0
M  V30 1730 O 162.788 1.32066 1.13597 0
M  V30 1731 C 159.92 2.65639 2.13655 0
M  V30 1732 H 161.113 2.97766 0.357114 0
M  V30 1733 H 158.666 1.5559 0.148823 0
M  V30 1734 H 159.401 1.84566 2.66657 0
M  V30 1735 H 159.186 3.43844 1.88451 0
M  V30 1736 H 160.676 3.08846 2.81077 0
M  V30 1737 N 161.113 -0.173488 1.56642 0
M  V30 1738 C 162.524 -0.736155 1.71574 0
M  V30 1739 C 162.875 -1.82888 0.710389 0
M  V30 1740 O 162 -2.16017 -0.1287 0
M  V30 1741 C 162.595 -1.34211 3.11083 0
M  V30 1742 C 161.154 -1.85162 3.27707 0
M  V30 1743 C 160.301 -0.729765 2.67525 0
M  V30 1744 H 163.252 0.0518786 1.58615 0
M  V30 1745 H 163.273 -2.21178 3.09613 0
M  V30 1746 H 162.785 -0.546579 3.84232 0
M  V30 1747 H 160.886 -2.67366 2.59512 0
M  V30 1748 H 160.999 -1.99855 4.35425 0
M  V30 1749 H 159.363 -1.14965 2.27278 0
M  V30 1750 H 160.146 0.0538806 3.43258 0
M  V30 1751 N 162.591 -1.51276 -0.441967 0
M  V30 1752 C 163.84 -1.6295 -1.18871 0
M  V30 1753 C 164.153 -0.349312 -1.92456 0
M  V30 1754 O 165.359 -0.345355 -2.69295 0
M  V30 1755 C 163.815 -2.87759 -2.16155 0
M  V30 1756 C 163.423 -4.22764 -1.48239 0
M  V30 1757 C 165.167 -3.08788 -2.91291 0
M  V30 1758 C 163.074 -5.38728 -2.4398 0
M  V30 1759 H 162.004 -0.606913 -0.447406 0
M  V30 1760 H 164.655 -1.77739 -0.456205 0
M  V30 1761 H 163.037 -2.66593 -2.92821 0
M  V30 1762 H 164.211 -4.54293 -0.771635 0
M  V30 1763 H 162.526 -4.07575 -0.852741 0
M  V30 1764 H 165.123 -3.92599 -3.63002 0
M  V30 1765 H 165.466 -2.21679 -3.5237 0
M  V30 1766 H 165.999 -3.30272 -2.21733 0
M  V30 1767 H 162.738 -6.28082 -1.87598 0
M  V30 1768 H 162.258 -5.1158 -3.13123 0
M  V30 1769 H 163.937 -5.70489 -3.05207 0
M  V30 1770 N 164.069 0.697108 -1.41344 0
M  V30 1771 C 165.002 1.82134 -1.37486 0
M  V30 1772 C 165.98 1.60784 -0.242351 0
M  V30 1773 O 167.164 1.83553 -0.429012 0
M  V30 1774 C 164.291 3.18788 -1.14421 0
M  V30 1775 C 163.337 3.58932 -2.3037 0
M  V30 1776 S 164.17 3.63916 -3.92843 0
M  V30 1777 C 165.326 5.03298 -3.72078 0
M  V30 1778 H 165.559 1.85129 -2.32625 0
M  V30 1779 H 163.092 0.865671 -1.2785 0
M  V30 1780 H 165.05 3.97677 -1.018 0
M  V30 1781 H 163.711 3.13404 -0.20905 0
M  V30 1782 H 162.904 4.58202 -2.09922 0
M  V30 1783 H 162.506 2.87347 -2.39391 0
M  V30 1784 H 164.798 5.90753 -3.31688 0
M  V30 1785 H 165.741 5.28788 -4.70945 0
M  V30 1786 H 166.149 4.74764 -3.05384 0
M  V30 1787 N 165.547 1.27147 0.931209 0
M  V30 1788 C 166.494 1.09568 2.03134 0
M  V30 1789 C 167.464 -0.00222433 1.661 0
M  V30 1790 O 168.649 0.159439 1.90133 0
M  V30 1791 C 165.789 0.745231 3.36957 0
M  V30 1792 C 164.902 1.92041 3.86968 0
M  V30 1793 C 164.037 1.51216 5.09222 0
M  V30 1794 C 163.076 2.65504 5.5152 0
M  V30 1795 N 162.213 2.25291 6.64972 0
M  V30 1796 H 167.053 2.03708 2.17502 0
M  V30 1797 H 164.59 1.01411 1.06556 0
M  V30 1798 H 166.548 0.522878 4.1391 0
M  V30 1799 H 165.178 -0.159202 3.22407 0
M  V30 1800 H 164.23 2.25541 3.06326 0
M  V30 1801 H 165.542 2.77787 4.1429 0
M  V30 1802 H 164.696 1.25084 5.93666 0
M  V30 1803 H 163.435 0.625749 4.83669 0
M  V30 1804 H 162.44 2.92354 4.65628 0
M  V30 1805 H 163.665 3.54761 5.7907 0
M  V30 1806 H 161.611 1.39098 6.41083 0
M  V30 1807 H 161.528 3.04577 6.91931 0
M  V30 1808 H 162.796 2.02398 7.52765 0
M  V30 1809 N 167.025 -1.13721 1.09112 0
M  V30 1810 C 167.988 -2.17222 0.731241 0
M  V30 1811 C 168.988 -1.59035 -0.237566 0
M  V30 1812 O 170.178 -1.74192 -0.0161704 0
M  V30 1813 C 167.31 -3.40804 0.0808443 0
M  V30 1814 H 168.503 -2.50573 1.64783 0
M  V30 1815 H 166.056 -1.28493 0.889897 0
M  V30 1816 H 166.791 -3.1304 -0.847127 0
M  V30 1817 H 166.576 -3.84306 0.777896 0
M  V30 1818 H 168.066 -4.1731 -0.155657 0
M  V30 1819 N 168.503 -0.877838 -1.30888 0
M  V30 1820 C 169.733 -0.506678 -2.00291 0
M  V30 1821 C 170.141 0.907449 -1.66018 0
M  V30 1822 O 169.484 1.60719 -0.88967 0
M  V30 1823 C 169.546 -0.59323 -3.54572 0
M  V30 1824 C 169.21 -1.97038 -4.12341 0
M  V30 1825 C 170.207 -2.93889 -4.28865 0
M  V30 1826 C 167.892 -2.27383 -4.47886 0
M  V30 1827 C 169.886 -4.19224 -4.80136 0
M  V30 1828 C 167.573 -3.52965 -4.98857 0
M  V30 1829 C 168.571 -4.48701 -5.14934 0
M  V30 1830 O 168.259 -5.72056 -5.64808 0
M  V30 1831 H 167.991 -0.1951 -0.647234 0
M  V30 1832 H 170.545 -1.18301 -1.6791 0
M  V30 1833 H 168.775 0.140057 -3.86446 0
M  V30 1834 H 170.464 -0.234372 -4.05223 0
M  V30 1835 H 171.23 -2.71756 -4.01714 0
M  V30 1836 H 167.109 -1.53639 -4.34645 0
M  V30 1837 H 170.653 -4.93956 -4.92599 0
M  V30 1838 H 166.55 -3.74939 -5.25443 0
M  V30 1839 H 167.318 -5.74337 -5.83163 0
M  V30 1840 N 169.982 1.44106 -0.638065 0
M  V30 1841 C 170.914 2.28976 0.101205 0
M  V30 1842 C 171.927 1.4167 0.802088 0
M  V30 1843 O 173.116 1.65755 0.662375 0
M  V30 1844 C 170.216 3.18217 1.16581 0
M  V30 1845 C 169.389 4.33978 0.546066 0
M  V30 1846 C 168.448 5.04202 1.50554 0
M  V30 1847 O 167.474 5.59986 1.01999 0
M  V30 1848 N 168.676 5.06296 2.8398 0
M  V30 1849 H 171.441 2.93064 -0.627186 0
M  V30 1850 H 169.002 1.54629 -0.479731 0
M  V30 1851 H 170.994 3.62061 1.80815 0
M  V30 1852 H 169.564 2.55833 1.79634 0
M  V30 1853 H 168.784 3.93239 -0.275046 0
M  V30 1854 H 170.072 5.08675 0.112793 0
M  V30 1855 H 169.47 4.62319 3.26002 0
M  V30 1856 H 168.027 5.53907 3.43556 0
M  V30 1857 N 171.46 0.379036 1.52974 0
M  V30 1858 C 172.708 -0.206014 2.01047 0
M  V30 1859 C 173.029 -1.48175 1.26765 0
M  V30 1860 O 172.299 -1.92085 0.384743 0
M  V30 1861 H 170.879 -0.0791184 0.742798 0
M  V30 1862 H 173.541 0.508366 1.88153 0
M  V30 1863 H 172.637 -0.423501 3.09213 0
M  V30 1864 N 172.938 -1.57226 0.108567 0
M  V30 1865 C 174.215 -1.86333 -0.594939 0
M  V30 1866 C 174.595 -1.00788 -1.85486 0
M  V30 1867 O 173.943 -0.0839293 -2.28346 0
M  V30 1868 C 174.153 -3.37265 -0.897405 0
M  V30 1869 C 175.501 -4.05629 -1.25501 0
M  V30 1870 O 176.525 -3.42224 -0.987998 0
M  V30 1871 O 175.384 -5.17531 -1.75567 0
M  V30 1872 H 172.478 -0.771018 -0.2991 0
M  V30 1873 H 175.024 -1.69102 0.142283 0
M  V30 1874 H 173.796 -3.913 -0.00413806 0
M  V30 1875 H 173.419 -3.59889 -1.69014 0
M  V30 1876 N 174.416 0.165178 -1.56732 0
M  V30 1877 C 175.326 1.22423 -2.00125 0
M  V30 1878 C 176.342 1.48084 -0.913619 0
M  V30 1879 O 177.518 1.60112 -1.22172 0
M  V30 1880 C 174.583 2.54197 -2.35764 0
M  V30 1881 C 173.644 2.36343 -3.58386 0
M  V30 1882 C 172.877 3.61834 -3.92316 0
M  V30 1883 O 173.1 4.67267 -3.27135 0
M  V30 1884 O 172.034 3.55579 -4.85641 0
M  V30 1885 H 175.86 0.885886 -2.90492 0
M  V30 1886 H 173.445 0.372518 -1.44681 0
M  V30 1887 H 175.327 3.3192 -2.59629 0
M  V30 1888 H 174.002 2.87598 -1.48557 0
M  V30 1889 H 172.909 1.56632 -3.39731 0
M  V30 1890 H 174.242 2.07865 -4.46154 0
M  V30 1891 N 175.894 1.51508 0.433938 0
M  V30 1892 C 177.141 1.64345 1.18309 0
M  V30 1893 C 177.469 0.361315 1.91115 0
M  V30 1894 O 176.724 -0.654753 1.84422 0
M  V30 1895 C 177.023 2.79928 2.22205 0
M  V30 1896 C 176.689 4.19078 1.66387 0
M  V30 1897 C 175.351 4.56932 1.50887 0
M  V30 1898 C 177.703 5.05894 1.25381 0
M  V30 1899 C 175.031 5.79305 0.928608 0
M  V30 1900 C 177.383 6.2885 0.687823 0
M  V30 1901 C 176.047 6.65473 0.519755 0
M  V30 1902 H 175.317 0.601381 0.432923 0
M  V30 1903 H 177.964 1.85549 0.473676 0
M  V30 1904 H 176.269 2.52959 2.99197 0
M  V30 1905 H 177.966 2.87059 2.79997 0
M  V30 1906 H 174.556 3.89234 1.79428 0
M  V30 1907 H 178.74 4.77253 1.36175 0
M  V30 1908 H 173.996 6.06324 0.786186 0
M  V30 1909 H 178.17 6.95461 0.361581 0
M  V30 1910 H 175.797 7.6017 0.0679979 0
M  V30 1911 N 177.372 -0.689602 1.41712 0
M  V30 1912 C 178.597 -1.48329 1.44959 0
M  V30 1913 C 179.022 -1.8801 0.0581283 0
M  V30 1914 O 178.38 -1.55026 -0.940035 0
M  V30 1915 C 178.428 -2.71835 2.36935 0
M  V30 1916 O 177.532 -3.69549 1.8305 0
M  V30 1917 H 176.873 -0.446199 0.491734 0
M  V30 1918 H 179.403 -0.847127 1.86239 0
M  V30 1919 H 179.413 -3.20076 2.53013 0
M  V30 1920 H 178.088 -2.42291 3.38035 0
M  V30 1921 H 176.665 -3.2851 1.76452 0
M  V30 1922 N 178.85 -1.27639 -0.924453 0
M  V30 1923 C 180.096 -1.14336 -1.67497 0
M  V30 1924 C 180.429 0.309465 -1.91718 0
M  V30 1925 O 179.704 1.22608 -1.50989 0
M  V30 1926 C 179.987 -1.93096 -3.0395 0
M  V30 1927 C 179.84 -3.46381 -2.8695 0
M  V30 1928 C 181.159 -1.73798 -4.0433 0
M  V30 1929 H 178.278 -0.416728 -0.607871 0
M  V30 1930 H 180.92 -1.56832 -1.07256 0
M  V30 1931 H 179.07 -1.56982 -3.55372 0
M  V30 1932 H 180.742 -3.92343 -2.42621 0
M  V30 1933 H 178.985 -3.72557 -2.22225 0
M  V30 1934 H 179.656 -3.96735 -3.83804 0
M  V30 1935 H 182.132 -2.05293 -3.61931 0
M  V30 1936 H 181.008 -2.31294 -4.97789 0
M  V30 1937 H 181.269 -0.686725 -4.36734 0
M  V30 1938 N 180.328 1.1314 -1.09713 0
M  V30 1939 C 181.739 1.66029 -0.853885 0
M  V30 1940 C 182.09 1.86241 0.617142 0
M  V30 1941 O 181.215 1.5834 1.47503 0
M  V30 1942 C 181.81 3.01599 -1.5435 0
M  V30 1943 C 180.369 3.51467 -1.34714 0
M  V30 1944 C 179.516 2.26648 -1.59769 0
M  V30 1945 H 182.467 0.970226 -1.25588 0
M  V30 1946 H 182.488 3.67709 -0.978267 0
M  V30 1947 H 182 2.86856 -2.6141 0
M  V30 1948 H 180.101 3.71408 -0.297838 0
M  V30 1949 H 180.214 4.314 -2.08401 0
M  V30 1950 H 178.578 2.33385 -1.01998 0
M  V30 1951 H 179.361 2.14467 -2.68065 0
M  V30 1952 N 181.806 0.884767 1.30421 0
M  V30 1953 C 183.052 0.503851 1.96441 0
M  V30 1954 C 183.385 -0.944518 1.69684 0
M  V30 1955 O 182.66 -1.66737 1.00145 0
M  V30 1956 C 182.943 0.779085 3.51571 0
M  V30 1957 C 182.796 2.27807 3.87846 0
M  V30 1958 C 184.115 0.255452 4.39358 0
M  V30 1959 H 181.234 0.184533 0.713524 0
M  V30 1960 H 183.876 1.10872 1.54297 0
M  V30 1961 H 182.026 0.264274 3.876 0
M  V30 1962 H 183.698 2.86127 3.61841 0
M  V30 1963 H 181.941 2.74479 3.35922 0
M  V30 1964 H 182.612 2.42125 4.96064 0
M  V30 1965 H 185.088 0.696079 4.10236 0
M  V30 1966 H 183.964 0.477361 5.4682 0
M  V30 1967 H 184.225 -0.843293 4.33983 0
M  V30 1968 N 183.284 -1.43765 0.645699 0
M  V30 1969 C 184.216 -2.29027 -0.0890605 0
M  V30 1970 C 185.229 -1.42093 -0.794563 0
M  V30 1971 O 186.418 -1.66104 -0.653575 0
M  V30 1972 C 183.518 -3.18831 -1.14891 0
M  V30 1973 C 182.691 -4.34261 -0.523043 0
M  V30 1974 C 181.75 -5.04994 -1.47878 0
M  V30 1975 O 180.776 -5.6052 -0.990277 0
M  V30 1976 N 181.978 -5.07795 -2.81291 0
M  V30 1977 H 184.743 -2.92727 0.64272 0
M  V30 1978 H 182.304 -1.54373 0.487924 0
M  V30 1979 H 184.296 -3.63015 -1.78892 0
M  V30 1980 H 182.866 -2.56782 -1.78275 0
M  V30 1981 H 182.086 -3.93088 0.295896 0
M  V30 1982 H 183.374 -5.08728 -0.0858147 0
M  V30 1983 H 182.772 -4.64042 -3.23546 0
M  V30 1984 H 181.329 -5.55721 -3.40614 0
M  V30 1985 N 184.763 -0.387143 -1.52771 0
M  V30 1986 C 185.695 0.484089 -2.2403 0
M  V30 1987 C 186.708 1.02849 -1.26198 0
M  V30 1988 O 187.897 0.931186 -1.52286 0
M  V30 1989 C 184.997 1.68337 -2.94136 0
M  V30 1990 C 184.17 1.26672 -4.18656 0
M  V30 1991 C 183.229 2.33045 -4.7178 0
M  V30 1992 O 182.255 1.94541 -5.34923 0
M  V30 1993 N 183.457 3.64929 -4.5145 0
M  V30 1994 H 186.222 -0.126404 -2.99433 0
M  V30 1995 H 183.783 -0.213392 -1.60488 0
M  V30 1996 H 185.775 2.39019 -3.26577 0
M  V30 1997 H 184.345 2.20025 -2.22053 0
M  V30 1998 H 183.565 0.388878 -3.92277 0
M  V30 1999 H 184.853 0.964964 -4.99566 0
M  V30 2000 H 184.251 3.98974 -4.01044 0
M  V30 2001 H 182.808 4.31651 -4.88386 0
M  V30 2002 N 186.241 1.57166 -0.116904 0
M  V30 2003 C 187.171 2.18222 0.830759 0
M  V30 2004 C 188.152 1.12167 1.27877 0
M  V30 2005 O 189.337 1.40394 1.34176 0
M  V30 2006 C 186.467 2.77996 2.08172 0
M  V30 2007 C 185.421 3.89614 1.77157 0
M  V30 2008 C 184.747 4.36187 3.09265 0
M  V30 2009 C 186.047 5.1181 1.04151 0
M  V30 2010 H 187.741 2.97664 0.321992 0
M  V30 2011 H 185.287 1.4318 0.153434 0
M  V30 2012 H 187.24 3.19366 2.74924 0
M  V30 2013 H 185.964 1.9584 2.6137 0
M  V30 2014 H 184.623 3.48816 1.12796 0
M  V30 2015 H 184.271 3.50893 3.60393 0
M  V30 2016 H 183.971 5.11455 2.89288 0
M  V30 2017 H 185.495 4.80207 3.77139 0
M  V30 2018 H 186.909 5.50214 1.61052 0
M  V30 2019 H 185.306 5.92648 0.942762 0
M  V30 2020 H 186.376 4.84892 0.0279022 0
M  V30 2021 N 187.719 -0.156864 1.56817 0
M  V30 2022 C 188.649 -1.19589 2.00551 0
M  V30 2023 C 189.63 -1.4536 0.883426 0
M  V30 2024 O 190.815 -1.56449 1.15054 0
M  V30 2025 C 187.945 -2.53143 2.37773 0
M  V30 2026 C 186.899 -2.41913 3.53075 0
M  V30 2027 C 186.225 -3.80088 3.76081 0
M  V30 2028 C 187.525 -1.91157 4.86062 0
M  V30 2029 H 189.219 -0.832293 2.87599 0
M  V30 2030 H 186.765 -0.398918 1.38364 0
M  V30 2031 H 188.718 -3.26047 2.66967 0
M  V30 2032 H 187.442 -2.91319 1.4765 0
M  V30 2033 H 186.101 -1.71462 3.24031 0
M  V30 2034 H 185.749 -4.15683 2.83225 0
M  V30 2035 H 185.449 -3.73439 4.53671 0
M  V30 2036 H 186.973 -4.54556 4.0769 0
M  V30 2037 H 188.387 -2.53846 5.14038 0
M  V30 2038 H 186.784 -1.95422 5.67389 0
M  V30 2039 H 187.854 -0.866673 4.77092 0
M  V30 2040 N 189.197 -1.51736 -0.425897 0
M  V30 2041 C 190.129 -1.70083 -1.53638 0
M  V30 2042 C 191.142 -0.581349 -1.52066 0
M  V30 2043 O 192.331 -0.856017 -1.56635 0
M  V30 2044 C 189.431 -1.71078 -2.9255 0
M  V30 2045 C 188.604 -2.99795 -3.185 0
M  V30 2046 C 187.663 -2.92825 -4.37196 0
M  V30 2047 O 186.689 -3.66756 -4.35291 0
M  V30 2048 N 187.891 -2.0946 -5.41393 0
M  V30 2049 H 190.656 -2.65882 -1.383 0
M  V30 2050 H 188.217 -1.49765 -0.614988 0
M  V30 2051 H 190.209 -1.63969 -3.69995 0
M  V30 2052 H 188.779 -0.828242 -3.01428 0
M  V30 2053 H 187.999 -3.20684 -2.2925 0
M  V30 2054 H 189.287 -3.84977 -3.32671 0
M  V30 2055 H 188.685 -1.48792 -5.45781 0
M  V30 2056 H 187.242 -2.08221 -6.17647 0
M  V30 2057 N 190.675 0.682077 -1.42076 0
M  V30 2058 C 191.905 1.46844 -1.45329 0
M  V30 2059 C 192.313 1.89102 -0.0609328 0
M  V30 2060 O 191.656 1.58238 0.933082 0
M  V30 2061 C 191.718 2.75375 -2.31104 0
M  V30 2062 C 191.382 2.55238 -3.79081 0
M  V30 2063 C 192.379 2.20309 -4.70914 0
M  V30 2064 C 190.064 2.70459 -4.2327 0
M  V30 2065 C 192.058 2.00859 -6.04925 0
M  V30 2066 C 189.745 2.50624 -5.57343 0
M  V30 2067 C 190.743 2.15876 -6.47986 0
M  V30 2068 O 190.431 1.96227 -7.79583 0
M  V30 2069 H 190.163 0.4586 -0.496651 0
M  V30 2070 H 192.717 0.846131 -1.87162 0
M  V30 2071 H 190.947 3.40061 -1.84107 0
M  V30 2072 H 192.636 3.37231 -2.25898 0
M  V30 2073 H 193.402 2.08153 -4.38061 0
M  V30 2074 H 189.281 2.96485 -3.53012 0
M  V30 2075 H 192.825 1.7366 -6.75639 0
M  V30 2076 H 188.722 2.62375 -5.89771 0
M  V30 2077 H 189.49 2.10883 -7.90867 0
M  V30 2078 N 192.153 1.28127 0.917671 0
M  V30 2079 C 193.378 1.18007 1.70555 0
M  V30 2080 C 193.803 -0.258257 1.86319 0
M  V30 2081 O 193.161 -1.1869 1.37049 0
M  V30 2082 C 193.209 1.87948 3.07746 0
M  V30 2083 O 192.313 1.18427 3.9503 0
M  V30 2084 H 191.654 0.409867 0.522403 0
M  V30 2085 H 194.184 1.69379 1.1477 0
M  V30 2086 H 194.194 1.95701 3.58001 0
M  V30 2087 H 192.869 2.92573 2.95591 0
M  V30 2088 H 191.446 1.18811 3.53466 0
M  V30 2089 N 193.631 -1.12557 1.10312 0
M  V30 2090 C 194.877 -1.84311 0.846011 0
M  V30 2091 C 195.21 -1.83805 -0.626859 0
M  V30 2092 O 194.485 -1.28268 -1.46211 0
M  V30 2093 C 194.768 -3.32048 1.39341 0
M  V30 2094 C 194.621 -3.41016 2.93305 0
M  V30 2095 C 195.94 -4.27764 1.03468 0
M  V30 2096 H 193.059 -0.669192 0.30879 0
M  V30 2097 H 195.701 -1.32057 1.36605 0
M  V30 2098 H 193.851 -3.76678 0.951087 0
M  V30 2099 H 195.523 -3.05031 3.46055 0
M  V30 2100 H 193.766 -2.81603 3.29973 0
M  V30 2101 H 194.437 -4.44948 3.26689 0
M  V30 2102 H 196.913 -3.91253 1.41633 0
M  V30 2103 H 195.789 -5.29549 1.44463 0
M  V30 2104 H 196.05 -4.42064 -0.0560404 0
M  V30 2105 N 195.109 -0.891671 -1.2995 0
M  V30 2106 C 196.334 -0.527932 -2.00568 0
M  V30 2107 C 196.759 0.877969 -1.66353 0
M  V30 2108 O 196.117 1.58301 -0.883762 0
M  V30 2109 C 196.165 -0.717745 -3.53385 0
M  V30 2110 O 195.269 0.233376 -4.11739 0
M  V30 2111 H 194.61 -0.20722 -0.630837 0
M  V30 2112 H 197.14 -1.20105 -1.65638 0
M  V30 2113 H 197.15 -0.619307 -4.03272 0
M  V30 2114 H 195.825 -1.74276 -3.77625 0
M  V30 2115 H 194.402 0.0880706 -3.72796 0
M  V30 2116 N 196.587 1.43421 -0.653314 0
M  V30 2117 C 197.537 2.2792 0.060558 0
M  V30 2118 C 198.521 1.39906 0.794677 0
M  V30 2119 O 199.713 1.63536 0.677128 0
M  V30 2120 C 196.842 3.27603 1.0262 0
M  V30 2121 C 195.928 4.23104 0.290551 0
M  V30 2122 N 196.319 5.01031 -0.692967 0
M  V30 2123 C 194.617 4.42816 0.531984 0
M  V30 2124 C 195.318 5.70626 -1.12963 0
M  V30 2125 N 194.294 5.41617 -0.463867 0
M  V30 2126 H 198.096 2.85585 -0.694143 0
M  V30 2127 H 195.61 1.55126 -0.480602 0
M  V30 2128 H 197.607 3.86918 1.55242 0
M  V30 2129 H 196.267 2.71499 1.78096 0
M  V30 2130 H 197.278 5.0669 -1.07169 0
M  V30 2131 H 193.955 3.97782 1.26791 0
M  V30 2132 H 195.345 6.4318 -1.94343 0
M  V30 2133 N 198.065 0.39524 1.52563 0
M  V30 2134 C 199.29 -0.187456 2.06551 0
M  V30 2135 C 199.715 -1.39249 1.26457 0
M  V30 2136 O 199.073 -1.78947 0.291151 0
M  V30 2137 C 199.121 -0.529985 3.56684 0
M  V30 2138 O 198.225 -1.62307 3.79118 0
M  V30 2139 H 197.566 -0.0202537 0.663691 0
M  V30 2140 H 200.096 0.564426 1.96661 0
M  V30 2141 H 200.106 -0.792598 4.00227 0
M  V30 2142 H 198.781 0.350987 4.14416 0
M  V30 2143 H 197.358 -1.3537 3.47461 0
M  V30 2144 N 199.544 -1.57102 0.125237 0
M  V30 2145 C 200.821 -1.86953 -0.575142 0
M  V30 2146 C 201.201 -1.02749 -1.84407 0
M  V30 2147 O 200.549 -0.108144 -2.28244 0
M  V30 2148 C 200.759 -3.38198 -0.861583 0
M  V30 2149 C 202.107 -4.06937 -1.21192 0
M  V30 2150 O 203.131 -3.43252 -0.951645 0
M  V30 2151 O 201.99 -5.19364 -1.70068 0
M  V30 2152 H 199.084 -0.774147 -0.290906 0
M  V30 2153 H 201.63 -1.68942 0.160211 0
M  V30 2154 H 200.402 -3.91282 0.0373647 0
M  V30 2155 H 200.025 -3.61661 -1.65188 0
M  V30 2156 N 201.022 0.148545 -1.56898 0
M  V30 2157 C 201.97 1.20265 -1.99096 0
M  V30 2158 C 202.964 1.44559 -0.883123 0
M  V30 2159 O 204.17 1.4487 -1.0683 0
M  V30 2160 H 200.545 0.404786 -0.63376 0
M  V30 2161 H 202.516 0.82004 -2.86911 0
M  V30 2162 C 201.265 2.52886 -2.3863 0
M  V30 2163 H 200.588 2.35021 -3.23427 0
M  V30 2164 H 202.028 3.25274 -2.7198 0
M  V30 2165 C 200.487 3.13315 -1.23837 0
M  V30 2166 O 201.017 3.98077 -0.538268 0
M  V30 2167 N 199.223 2.72742 -1.00301 0
M  V30 2168 H 198.77 2.03912 -1.5741 0
M  V30 2169 H 198.728 3.13507 -0.236838 0
M  V30 2170 N 202.5 1.5196 0.417844 0
M  V30 2171 C 203.746 1.65836 1.16732 0
M  V30 2172 C 204.079 0.382881 1.90388 0
M  V30 2173 O 203.354 -0.618368 1.84408 0
M  V30 2174 C 203.637 2.87466 2.16876 0
M  V30 2175 C 203.49 4.25041 1.47174 0
M  V30 2176 C 204.809 3.04613 3.17646 0
M  V30 2177 H 201.928 0.603515 0.423011 0
M  V30 2178 H 204.57 1.84494 0.454105 0
M  V30 2179 H 202.72 2.71689 2.777 0
M  V30 2180 H 204.392 4.52527 0.895376 0
M  V30 2181 H 202.635 4.26843 0.773806 0
M  V30 2182 H 203.306 5.06176 2.20204 0
M  V30 2183 H 205.782 3.1923 2.66892 0
M  V30 2184 H 204.658 3.91247 3.8499 0
M  V30 2185 H 204.919 2.17541 3.84874 0
M  V30 2186 N 203.978 -0.674533 1.42435 0
M  V30 2187 C 204.941 -1.76986 1.45632 0
M  V30 2188 C 205.941 -1.5708 0.343871 0
M  V30 2189 O 207.131 -1.63367 0.604709 0
M  V30 2190 C 204.263 -3.15623 1.28822 0
M  V30 2191 H 205.456 -1.75539 2.43158 0
M  V30 2192 H 203.009 -0.884189 1.28887 0
M  V30 2193 H 203.744 -3.22696 0.322193 0
M  V30 2194 H 203.529 -3.31475 2.09444 0
M  V30 2195 H 205.019 -3.95537 1.33942 0
M  V30 2196 N 205.456 -1.28612 -0.910864 0
M  V30 2197 C 206.696 -1.1719 -1.67469 0
M  V30 2198 C 207.06 0.274441 -1.90028 0
M  V30 2199 O 208.261 0.511425 -2.6389 0
M  V30 2200 C 206.532 -1.95137 -2.99427 0
M  V30 2201 S 208.091 -2.00122 -3.90508 0
M  V30 2202 H 204.909 -0.41806 -0.575106 0
M  V30 2203 H 207.511 -1.6275 -1.08317 0
M  V30 2204 H 206.215 -2.99381 -2.80712 0
M  V30 2205 H 205.746 -1.50137 -3.63624 0
M  V30 2206 H 207.761 -1.10981 -4.8363 0
M  V30 2207 N 206.934 1.1197 -1.10907 0
M  V30 2208 C 208.211 1.79959 -0.766432 0
M  V30 2209 C 208.591 1.97466 0.746363 0
M  V30 2210 O 207.939 1.55491 1.67436 0
M  V30 2211 C 208.149 3.14009 -1.52314 0
M  V30 2212 C 209.497 3.89134 -1.69883 0
M  V30 2213 O 210.521 3.2368 -1.48692 0
M  V30 2214 O 209.38 5.06572 -2.05054 0
M  V30 2215 H 206.474 0.779208 -0.277062 0
M  V30 2216 H 209.02 1.18762 -1.21217 0
M  V30 2217 H 207.792 2.96587 -2.55249 0
M  V30 2218 H 207.415 3.82915 -1.07059 0
M  V30 2219 N 208.412 0.89855 1.29475 0
M  V30 2220 C 209.342 0.39201 2.30186 0
M  V30 2221 C 210.323 -0.532359 1.61555 0
M  V30 2222 O 211.508 -0.443331 1.89072 0
M  V30 2223 C 208.638 -0.382353 3.45189 0
M  V30 2224 C 207.592 0.451483 4.25612 0
M  V30 2225 C 206.918 -0.450307 5.328 0
M  V30 2226 C 208.218 1.70079 4.93832 0
M  V30 2227 H 209.912 1.23362 2.72804 0
M  V30 2228 H 207.458 0.594638 1.31149 0
M  V30 2229 H 209.411 -0.747451 4.14718 0
M  V30 2230 H 208.135 -1.25774 3.01411 0
M  V30 2231 H 206.794 0.798897 3.57789 0
M  V30 2232 H 206.442 -1.32379 4.85268 0
M  V30 2233 H 206.142 0.103902 5.87508 0
M  V30 2234 H 207.666 -0.811623 6.05182 0
M  V30 2235 H 209.08 1.40549 5.55805 0
M  V30 2236 H 207.477 2.19623 5.58467 0
M  V30 2237 H 208.547 2.43744 4.19186 0
M  V30 2238 N 209.89 -1.43072 0.660911 0
M  V30 2239 C 210.82 -2.33497 -0.0122829 0
M  V30 2240 C 211.801 -1.49903 -0.803925 0
M  V30 2241 O 212.986 -1.78546 -0.763864 0
M  V30 2242 C 210.116 -3.33363 -0.973994 0
M  V30 2243 C 209.07 -4.27003 -0.291928 0
M  V30 2244 C 208.396 -5.16967 -1.36562 0
M  V30 2245 C 209.696 -5.15816 0.820462 0
M  V30 2246 H 211.39 -2.90038 0.742873 0
M  V30 2247 H 208.936 -1.39461 0.358688 0
M  V30 2248 H 210.889 -3.95524 -1.45392 0
M  V30 2249 H 209.613 -2.75095 -1.7604 0
M  V30 2250 H 208.272 -3.66217 0.167623 0
M  V30 2251 H 207.92 -4.55034 -2.14366 0
M  V30 2252 H 207.62 -5.80441 -0.914454 0
M  V30 2253 H 209.144 -5.82003 -1.84675 0
M  V30 2254 H 210.558 -5.71742 0.422366 0
M  V30 2255 H 208.955 -5.8805 1.19656 0
M  V30 2256 H 210.025 -4.55045 1.67518 0
M  V30 2257 N 211.368 -0.403325 -1.52352 0
M  V30 2258 C 212.615 0.174347 -2.01748 0
M  V30 2259 C 212.943 1.45636 -1.2892 0
M  V30 2260 O 212.198 1.9193 -0.382258 0
M  V30 2261 C 212.497 0.474665 -3.54234 0
M  V30 2262 C 212.163 -0.717458 -4.45155 0
M  V30 2263 C 210.825 -1.04447 -4.69728 0
M  V30 2264 C 213.177 -1.51432 -4.98716 0
M  V30 2265 C 210.505 -2.16963 -5.45109 0
M  V30 2266 C 212.857 -2.6302 -5.75329 0
M  V30 2267 C 211.521 -2.96213 -5.98175 0
M  V30 2268 H 210.791 0.0637981 -0.738248 0
M  V30 2269 H 213.438 -0.543553 -1.83624 0
M  V30 2270 H 211.743 1.27406 -3.70506 0
M  V30 2271 H 213.44 0.934496 -3.89959 0
M  V30 2272 H 210.03 -0.452596 -4.26204 0
M  V30 2273 H 214.214 -1.27491 -4.79645 0
M  V30 2274 H 209.47 -2.43034 -5.61021 0
M  V30 2275 H 213.644 -3.25158 -6.15829 0
M  V30 2276 H 211.271 -3.83516 -6.56368 0
M  V30 2277 N 212.846 1.57033 -0.133567 0
M  V30 2278 C 213.756 2.19632 0.824564 0
M  V30 2279 C 214.772 1.17666 1.28182 0
M  V30 2280 O 215.948 1.50193 1.3418 0
M  V30 2281 C 213.013 2.79499 2.05137 0
M  V30 2282 C 212.074 3.96548 1.64464 0
M  V30 2283 C 211.307 4.5355 2.81297 0
M  V30 2284 O 211.53 4.09438 3.97136 0
M  V30 2285 O 210.464 5.44018 2.57542 0
M  V30 2286 H 214.29 3.01991 0.321766 0
M  V30 2287 H 211.875 1.49112 0.0927889 0
M  V30 2288 H 213.757 3.17602 2.7696 0
M  V30 2289 H 212.432 2.00162 2.54395 0
M  V30 2290 H 211.339 3.63186 0.897048 0
M  V30 2291 H 212.672 4.77364 1.19934 0
M  V30 2292 N 214.325 -0.140222 1.56975 0
M  V30 2293 C 215.255 -1.17456 2.01808 0
M  V30 2294 C 216.236 -1.44415 0.898794 0
M  V30 2295 O 217.421 -1.5522 1.16707 0
M  V30 2296 C 214.551 -2.50607 2.40444 0
M  V30 2297 C 213.505 -2.38155 3.55621 0
M  V30 2298 C 212.831 -3.76078 3.80091 0
M  V30 2299 C 214.131 -1.85991 4.88062 0
M  V30 2300 H 215.825 -0.801743 2.88466 0
M  V30 2301 H 213.371 -0.38422 1.38779 0
M  V30 2302 H 215.324 -3.23197 2.7041 0
M  V30 2303 H 214.048 -2.89737 1.50732 0
M  V30 2304 H 212.707 -1.68016 3.25832 0
M  V30 2305 H 212.355 -4.12656 2.87618 0
M  V30 2306 H 212.055 -3.68606 4.57606 0
M  V30 2307 H 213.579 -4.50206 4.12488 0
M  V30 2308 H 214.993 -2.4838 5.16701 0
M  V30 2309 H 213.39 -1.89393 5.6943 0
M  V30 2310 H 214.46 -0.816023 4.77984 0
M  V30 2311 N 215.803 -1.52179 -0.40978 0
M  V30 2312 C 217.049 -1.66453 -1.15851 0
M  V30 2313 C 217.382 -0.392972 -1.90182 0
M  V30 2314 O 216.657 0.608579 -1.84734 0
M  V30 2315 C 216.94 -2.88612 -2.15349 0
M  V30 2316 C 216.793 -4.25815 -1.44918 0
M  V30 2317 C 218.112 -3.06294 -3.16026 0
M  V30 2318 H 215.231 -0.60575 -0.419805 0
M  V30 2319 H 217.873 -1.84732 -0.444314 0
M  V30 2320 H 216.023 -2.73158 -2.76255 0
M  V30 2321 H 217.695 -4.52995 -0.871365 0
M  V30 2322 H 215.938 -4.27247 -0.751159 0
M  V30 2323 H 216.609 -5.07337 -2.17516 0
M  V30 2324 H 219.085 -3.20641 -2.65195 0
M  V30 2325 H 217.961 -3.93283 -3.8291 0
M  V30 2326 H 218.222 -2.19579 -3.83715 0
M  V30 2327 N 217.281 0.66697 -1.42791 0
M  V30 2328 C 218.529 1.42417 -1.43394 0
M  V30 2329 C 218.85 1.94925 -0.0542373 0
M  V30 2330 O 218.12 1.73564 0.908415 0
M  V30 2331 H 216.7 0.528515 -0.527902 0
M  V30 2332 H 219.362 0.787562 -1.78279 0
M  V30 2333 H 218.458 2.27333 -2.13837 0
M  V30 2334 N 218.759 1.29093 0.90403 0
M  V30 2335 C 220.007 1.16583 1.65085 0
M  V30 2336 C 220.328 -0.283933 1.92922 0
M  V30 2337 O 219.598 -1.19509 1.55224 0
M  V30 2338 H 218.178 0.428467 0.611903 0
M  V30 2339 H 220.84 1.61959 1.08422 0
M  V30 2340 H 219.936 1.71266 2.6091 0
M  V30 2341 N 220.237 -1.11381 1.11499 0
M  V30 2342 C 221.648 -1.6465 0.880191 0
M  V30 2343 C 221.999 -1.87199 -0.587434 0
M  V30 2344 O 221.124 -1.60667 -1.44966 0
M  V30 2345 C 221.719 -2.99105 1.59128 0
M  V30 2346 C 220.278 -3.49279 1.40289 0
M  V30 2347 C 219.425 -2.24077 1.63354 0
M  V30 2348 H 222.376 -0.950123 1.27116 0
M  V30 2349 H 222.397 -3.66107 1.03664 0
M  V30 2350 H 221.909 -2.82661 2.65941 0
M  V30 2351 H 220.01 -3.70887 0.356888 0
M  V30 2352 H 220.123 -4.2803 2.15238 0
M  V30 2353 H 218.487 -2.31733 1.05698 0
M  V30 2354 H 219.27 -2.10175 2.71443 0
M  V30 2355 N 221.715 -0.905404 -1.28997 0
M  V30 2356 C 222.678 -0.392253 -2.25819 0
M  V30 2357 C 223.678 0.476753 -1.5357 0
M  V30 2358 O 224.868 0.280994 -1.71919 0
M  V30 2359 C 222 0.438588 -3.38067 0
M  V30 2360 H 223.193 -1.24743 -2.72725 0
M  V30 2361 H 220.746 -0.684051 -1.40536 0
M  V30 2362 H 221.481 1.31352 -2.96508 0
M  V30 2363 H 221.266 -0.184167 -3.91667 0
M  V30 2364 H 222.756 0.78873 -4.10084 0
M  V30 2365 N 223.193 1.4272 -0.668489 0
M  V30 2366 C 224.156 2.292 0.00448567 0
M  V30 2367 C 225.156 1.43001 0.735339 0
M  V30 2368 O 226.346 1.64461 0.57429 0
M  V30 2369 C 223.478 3.25375 1.01705 0
M  V30 2370 H 224.671 2.90199 -0.756608 0
M  V30 2371 H 222.224 1.50254 -0.430506 0
M  V30 2372 H 222.959 2.69301 1.80686 0
M  V30 2373 H 222.744 3.88944 0.496463 0
M  V30 2374 H 224.234 3.90245 1.48655 0
M  V30 2375 N 224.671 0.411399 1.52136 0
M  V30 2376 C 225.601 -0.404015 2.29978 0
M  V30 2377 C 226.582 -1.04412 1.34284 0
M  V30 2378 O 227.767 -1.0527 1.63192 0
M  V30 2379 C 224.897 -1.5197 3.12286 0
M  V30 2380 C 223.851 -1.00448 4.16046 0
M  V30 2381 C 223.177 -2.21393 4.86712 0
M  V30 2382 C 224.477 -0.0569336 5.22269 0
M  V30 2383 H 226.171 0.245529 2.98392 0
M  V30 2384 H 223.717 0.119525 1.43503 0
M  V30 2385 H 225.67 -2.09715 3.6551 0
M  V30 2386 H 224.394 -2.19716 2.41646 0
M  V30 2387 H 223.053 -0.449421 3.63835 0
M  V30 2388 H 222.701 -2.87699 4.12599 0
M  V30 2389 H 222.401 -1.87571 5.56858 0
M  V30 2390 H 223.925 -2.7974 5.4275 0
M  V30 2391 H 225.339 -0.54325 5.7072 0
M  V30 2392 H 223.736 0.192594 5.99791 0
M  V30 2393 H 224.806 0.887663 4.76706 0
M  V30 2394 N 226.149 -1.5696 0.141893 0
M  V30 2395 C 227.099 -2.13074 -0.811383 0
M  V30 2396 C 228.083 -1.05726 -1.21288 0
M  V30 2397 O 229.275 -1.31914 -1.18015 0
M  V30 2398 C 226.404 -2.75186 -2.0525 0
M  V30 2399 C 225.49 -3.8965 -1.67432 0
M  V30 2400 N 225.881 -4.95733 -1.0041 0
M  V30 2401 C 224.179 -4.00262 -1.96739 0
M  V30 2402 C 224.88 -5.75858 -0.822345 0
M  V30 2403 N 223.856 -5.26452 -1.3546 0
M  V30 2404 H 227.658 -2.92465 -0.290031 0
M  V30 2405 H 225.172 -1.6229 -0.0598218 0
M  V30 2406 H 227.169 -3.13745 -2.74535 0
M  V30 2407 H 225.829 -1.97266 -2.57907 0
M  V30 2408 H 226.84 -5.13607 -0.665441 0
M  V30 2409 H 223.517 -3.33412 -2.51282 0
M  V30 2410 H 224.907 -6.71254 -0.294496 0
M  V30 2411 N 227.627 0.131896 -1.57047 0
M  V30 2412 C 228.904 0.871495 -1.75112 0
M  V30 2413 C 229.284 1.9866 -0.713949 0
M  V30 2414 O 228.632 2.26965 0.264447 0
M  V30 2415 C 228.842 1.40007 -3.19686 0
M  V30 2416 C 230.19 1.85752 -3.81813 0
M  V30 2417 O 231.214 1.49715 -3.23209 0
M  V30 2418 O 230.073 2.5226 -4.84796 0
M  V30 2419 H 227.167 0.412919 -0.716538 0
M  V30 2420 H 229.713 0.116641 -1.69299 0
M  V30 2421 H 228.485 0.599404 -3.86682 0
M  V30 2422 H 228.108 2.218 -3.29986 0
M  V30 2423 N 229.106 1.52395 0.401703 0
M  V30 2424 C 230.336 1.70429 1.1678 0
M  V30 2425 C 230.744 0.416702 1.84554 0
M  V30 2426 O 230.087 -0.617697 1.73003 0
M  V30 2427 C 230.149 2.78919 2.26814 0
M  V30 2428 C 229.813 4.20437 1.79113 0
M  V30 2429 C 230.81 5.04028 1.27482 0
M  V30 2430 C 228.495 4.66704 1.85722 0
M  V30 2431 C 230.489 6.31961 0.830913 0
M  V30 2432 C 228.176 5.94625 1.40942 0
M  V30 2433 C 229.174 6.77082 0.897128 0
M  V30 2434 O 228.862 8.02607 0.455822 0
M  V30 2435 H 228.594 0.574272 0.356634 0
M  V30 2436 H 231.148 1.99767 0.477724 0
M  V30 2437 H 229.378 2.44973 2.99207 0
M  V30 2438 H 231.067 2.8548 2.88541 0
M  V30 2439 H 231.833 4.69471 1.21744 0
M  V30 2440 H 227.712 4.0262 2.24539 0
M  V30 2441 H 231.256 6.96271 0.430368 0
M  V30 2442 H 227.153 6.28688 1.46362 0
M  V30 2443 H 227.921 8.16453 0.578457 0
M  V30 2444 N 230.584 -0.659388 1.43143 0
M  V30 2445 C 231.833 -1.41518 1.43721 0
M  V30 2446 C 232.146 -1.95499 0.0628176 0
M  V30 2447 O 233.352 -2.71446 -0.0539683 0
M  V30 2448 C 231.808 -2.5608 2.52885 0
M  V30 2449 C 231.416 -2.08733 3.96402 0
M  V30 2450 C 233.16 -3.3349 2.62649 0
M  V30 2451 C 231.067 -3.20469 4.97045 0
M  V30 2452 H 229.997 -0.531705 0.534608 0
M  V30 2453 H 232.648 -0.712343 1.69109 0
M  V30 2454 H 231.03 -3.28805 2.20688 0
M  V30 2455 H 232.204 -1.43059 4.3803 0
M  V30 2456 H 230.519 -1.44219 3.90627 0
M  V30 2457 H 233.116 -4.16734 3.35017 0
M  V30 2458 H 233.459 -3.8111 1.67513 0
M  V30 2459 H 233.992 -2.67842 2.94118 0
M  V30 2460 H 230.731 -2.77824 5.93712 0
M  V30 2461 H 230.251 -3.84874 4.60034 0
M  V30 2462 H 231.93 -3.85698 5.19467 0
M  V30 2463 N 232.062 -1.29571 -0.897171 0
M  V30 2464 C 232.994 -1.10724 -2.00681 0
M  V30 2465 C 234.007 -0.0540026 -1.6271 0
M  V30 2466 O 235.196 -0.298783 -1.75982 0
M  V30 2467 C 232.296 -0.663912 -3.32333 0
M  V30 2468 C 231.469 -1.79622 -3.98816 0
M  V30 2469 C 230.528 -1.34349 -5.0876 0
M  V30 2470 O 229.554 -2.04864 -5.31055 0
M  V30 2471 N 230.756 -0.215764 -5.80099 0
M  V30 2472 H 233.521 -2.06291 -2.17403 0
M  V30 2473 H 231.082 -1.21544 -1.06951 0
M  V30 2474 H 233.074 -0.344295 -4.03233 0
M  V30 2475 H 231.644 0.199375 -3.11964 0
M  V30 2476 H 230.864 -2.28459 -3.21248 0
M  V30 2477 H 232.152 -2.55535 -4.39976 0
M  V30 2478 H 231.55 0.372091 -5.64475 0
M  V30 2479 H 230.107 0.0444707 -6.51785 0
M  V30 2480 N 233.54 1.10788 -1.12088 0
M  V30 2481 C 234.765 1.87002 -0.896949 0
M  V30 2482 C 235.19 1.79933 0.548261 0
M  V30 2483 O 234.548 1.16662 1.38779 0
M  V30 2484 C 234.596 3.3349 -1.37174 0
M  V30 2485 O 233.7 4.08745 -0.547831 0
M  V30 2486 H 233.041 0.580397 -0.322545 0
M  V30 2487 H 235.571 1.39996 -1.49206 0
M  V30 2488 H 235.581 3.84339 -1.36922 0
M  V30 2489 H 234.256 3.37951 -2.42408 0
M  V30 2490 H 232.833 3.6776 -0.617034 0
M  V30 2491 N 235.018 0.912232 1.28515 0
M  V30 2492 C 235.951 0.343928 2.25593 0
M  V30 2493 C 236.929 -0.550994 1.5298 0
M  V30 2494 O 238.113 -0.494991 1.81885 0
M  V30 2495 C 235.24 -0.508525 3.34861 0
M  V30 2496 C 234.286 0.320808 4.25292 0
M  V30 2497 S 235.119 1.72658 5.06902 0
M  V30 2498 C 236.275 0.881394 6.19663 0
M  V30 2499 H 236.508 1.16674 2.73449 0
M  V30 2500 H 234.041 0.713384 1.36931 0
M  V30 2501 H 235.999 -0.994539 3.9827 0
M  V30 2502 H 234.66 -1.30571 2.85675 0
M  V30 2503 H 233.853 -0.330941 5.02912 0
M  V30 2504 H 233.455 0.74042 3.66598 0
M  V30 2505 H 235.747 0.110359 6.7741 0
M  V30 2506 H 236.69 1.63009 6.89082 0
M  V30 2507 H 237.098 0.430239 5.62858 0
M  V30 2508 N 236.496 -1.42363 0.676048 0
M  V30 2509 C 237.744 -2.01123 0.198437 0
M  V30 2510 C 238.065 -1.53731 -1.19966 0
M  V30 2511 O 237.335 -0.759518 -1.80577 0
M  V30 2512 H 235.915 -0.743678 0.0703721 0
M  V30 2513 H 238.577 -1.74263 0.872837 0
M  V30 2514 H 237.673 -3.11454 0.200686 0
M  V30 2515 N 237.974 -0.419461 -1.51915 0
M  V30 2516 C 239.223 0.154346 -2.01109 0
M  V30 2517 C 239.536 1.45338 -1.30905 0
M  V30 2518 O 240.742 2.10906 -1.7097 0
M  V30 2519 C 239.198 0.325615 -3.58424 0
M  V30 2520 C 238.806 -0.961934 -4.37551 0
M  V30 2521 C 240.55 0.854155 -4.15818 0
M  V30 2522 C 238.457 -0.757287 -5.86531 0
M  V30 2523 H 237.387 0.0614563 -0.751491 0
M  V30 2524 H 240.038 -0.54649 -1.75173 0
M  V30 2525 H 238.42 1.08903 -3.80731 0
M  V30 2526 H 239.594 -1.7323 -4.26999 0
M  V30 2527 H 237.909 -1.41766 -3.91524 0
M  V30 2528 H 240.506 1.02346 -5.24814 0
M  V30 2529 H 240.849 1.83172 -3.73837 0
M  V30 2530 H 241.382 0.149528 -3.97519 0
M  V30 2531 H 238.121 -1.70671 -6.32892 0
M  V30 2532 H 237.641 -0.0264061 -5.99794 0
M  V30 2533 H 239.32 -0.403482 -6.45741 0
M  V30 2534 N 239.452 1.56882 -0.150215 0
M  V30 2535 C 240.399 2.16922 0.788244 0
M  V30 2536 C 241.369 1.10303 1.24187 0
M  V30 2537 O 242.554 1.38359 1.31383 0
M  V30 2538 C 239.694 2.79754 2.02068 0
M  V30 2539 C 238.807 4.00775 1.61257 0
M  V30 2540 C 237.942 4.51595 2.79705 0
M  V30 2541 C 236.981 5.65074 2.35282 0
M  V30 2542 N 236.118 6.10499 3.4675 0
M  V30 2543 H 240.958 2.96779 0.269444 0
M  V30 2544 H 238.495 1.46599 0.12128 0
M  V30 2545 H 240.453 3.14329 2.74323 0
M  V30 2546 H 239.083 2.02536 2.51354 0
M  V30 2547 H 238.135 3.72158 0.787553 0
M  V30 2548 H 239.447 4.82978 1.24633 0
M  V30 2549 H 238.601 4.88242 3.60145 0
M  V30 2550 H 237.34 3.68406 3.19576 0
M  V30 2551 H 236.345 5.28 1.53283 0
M  V30 2552 H 237.57 6.50052 1.96493 0
M  V30 2553 H 235.516 5.30243 3.86236 0
M  V30 2554 H 235.433 6.87637 3.14152 0
M  V30 2555 H 236.701 6.51791 4.27537 0
M  V30 2556 N 240.93 -0.123565 1.57115 0
M  V30 2557 C 241.84 -1.17074 2.033 0
M  V30 2558 C 242.856 -1.4561 0.952559 0
M  V30 2559 O 244.032 -1.56817 1.26374 0
M  V30 2560 C 241.097 -2.47857 2.42421 0
M  V30 2561 C 240.158 -2.26758 3.64526 0
M  V30 2562 C 239.391 -3.51305 4.01771 0
M  V30 2563 O 239.614 -4.5843 3.39409 0
M  V30 2564 O 238.548 -3.42578 4.94898 0
M  V30 2565 H 242.374 -0.808555 2.92739 0
M  V30 2566 H 239.959 -0.334027 1.45618 0
M  V30 2567 H 241.841 -3.2492 2.68338 0
M  V30 2568 H 240.516 -2.83558 1.5613 0
M  V30 2569 H 239.423 -1.47569 3.43765 0
M  V30 2570 H 240.756 -1.95963 4.51508 0
M  V30 2571 N 242.408 -1.52605 -0.393616 0
M  V30 2572 C 243.636 -1.71294 -1.16043 0
M  V30 2573 C 244.051 -0.429259 -1.83855 0
M  V30 2574 O 243.408 0.595921 -1.72496 0
M  V30 2575 C 243.459 -2.8593 -2.21193 0
M  V30 2576 O 243.18 -4.09329 -1.56146 0
M  V30 2577 C 244.681 -3.16259 -3.10636 0
M  V30 2578 H 241.901 -0.573641 -0.348104 0
M  V30 2579 H 244.445 -1.99234 -0.461092 0
M  V30 2580 H 242.6 -2.60465 -2.86769 0
M  V30 2581 H 243.014 -4.73323 -2.25978 0
M  V30 2582 H 244.488 -3.99946 -3.80456 0
M  V30 2583 H 244.965 -2.3045 -3.73884 0
M  V30 2584 H 245.571 -3.43547 -2.50711 0
M  V30 2585 N 243.887 0.651787 -1.4349 0
M  V30 2586 C 244.85 1.74647 -1.48429 0
M  V30 2587 C 245.85 1.56513 -0.368817 0
M  V30 2588 O 247.04 1.62385 -0.630623 0
M  V30 2589 C 244.172 3.13533 -1.33827 0
M  V30 2590 H 245.365 1.71649 -2.4592 0
M  V30 2591 H 242.918 0.863573 -1.30277 0
M  V30 2592 H 243.653 3.22142 -0.37349 0
M  V30 2593 H 243.438 3.28101 -2.14691 0
M  V30 2594 H 244.928 3.93356 -1.40218 0
M  V30 2595 N 245.365 1.30045 0.890287 0
M  V30 2596 C 246.611 1.18737 1.64406 0
M  V30 2597 C 246.944 -0.258525 1.92472 0
M  V30 2598 O 246.219 -1.18562 1.54186 0
M  V30 2599 C 246.502 2.01087 2.98724 0
M  V30 2600 C 246.355 3.53867 2.77665 0
M  V30 2601 C 247.674 1.84457 3.9958 0
M  V30 2602 H 244.793 0.432698 0.596608 0
M  V30 2603 H 247.435 1.5962 1.0306 0
M  V30 2604 H 245.585 1.66349 3.51084 0
M  V30 2605 H 247.257 3.98637 2.32133 0
M  V30 2606 H 245.5 3.78318 2.12269 0
M  V30 2607 H 246.171 4.06772 3.7315 0
M  V30 2608 H 248.647 2.14817 3.56361 0
M  V30 2609 H 247.523 2.44411 4.91482 0
M  V30 2610 H 247.784 0.802276 4.3476 0
M  V30 2611 N 246.843 -1.10192 1.12674 0
M  V30 2612 C 248.089 -1.82475 0.884915 0
M  V30 2613 C 248.422 -1.85093 -0.58773 0
M  V30 2614 O 247.697 -1.3134 -1.43457 0
M  V30 2615 C 247.98 -3.29018 1.46353 0
M  V30 2616 C 247.833 -3.34718 3.00473 0
M  V30 2617 C 249.152 -4.25473 1.12519 0
M  V30 2618 H 246.271 -0.662492 0.322915 0
M  V30 2619 H 248.913 -1.2913 1.39375 0
M  V30 2620 H 247.063 -3.74576 1.03077 0
M  V30 2621 H 248.735 -2.97622 3.52447 0
M  V30 2622 H 246.978 -2.74541 3.35872 0
M  V30 2623 H 247.649 -4.37918 3.36053 0
M  V30 2624 H 250.125 -3.88161 1.499 0
M  V30 2625 H 249.001 -5.26365 1.55663 0
M  V30 2626 H 249.262 -4.42084 0.0377407 0
M  V30 2627 N 248.321 -0.919034 -1.28029 0
M  V30 2628 C 249.284 -0.416182 -2.2539 0
M  V30 2629 C 250.284 0.460438 -1.54067 0
M  V30 2630 O 251.474 0.262744 -1.72207 0
M  V30 2631 C 248.606 0.402707 -3.38513 0
M  V30 2632 H 249.799 -1.27629 -2.71387 0
M  V30 2633 H 247.352 -0.698919 -1.39803 0
M  V30 2634 H 248.087 1.282 -2.97885 0
M  V30 2635 H 247.872 -0.225698 -3.9145 0
M  V30 2636 H 249.362 0.745191 -4.10897 0
M  V30 2637 N 249.799 1.42003 -0.683588 0
M  V30 2638 C 250.747 2.326 0.000815408 0
M  V30 2639 C 251.741 1.50308 0.781278 0
M  V30 2640 O 252.947 1.66322 0.688251 0
M  V30 2641 H 249.322 0.751758 0.0190616 0
M  V30 2642 H 251.293 2.88011 -0.780528 0
M  V30 2643 C 250.042 3.34978 0.93195 0
M  V30 2644 H 249.365 3.98345 0.340817 0
M  V30 2645 H 250.805 4.00936 1.37936 0
M  V30 2646 C 249.264 2.67925 2.04249 0
M  V30 2647 O 249.794 2.51788 3.12995 0
M  V30 2648 N 248 2.2681 1.81675 0
M  V30 2649 H 247.547 2.40135 0.932363 0
M  V30 2650 H 247.505 1.8228 2.56167 0
M  V30 2651 N 251.277 0.427512 1.51691 0
M  V30 2652 C 252.187 -0.39527 2.31246 0
M  V30 2653 C 253.203 -1.03674 1.39742 0
M  V30 2654 O 254.379 -1.03425 1.72816 0
M  V30 2655 C 251.444 -1.48706 3.13189 0
M  V30 2656 C 250.505 -0.866743 4.20459 0
M  V30 2657 C 249.738 -1.90651 4.98486 0
M  V30 2658 O 249.961 -3.12733 4.77026 0
M  V30 2659 O 248.895 -1.5025 5.82845 0
M  V30 2660 H 252.721 0.253918 3.02637 0
M  V30 2661 H 250.306 0.190274 1.48183 0
M  V30 2662 H 252.188 -2.12047 3.64162 0
M  V30 2663 H 250.863 -2.12051 2.44573 0
M  V30 2664 H 249.77 -0.195544 3.73589 0
M  V30 2665 H 251.103 -0.276934 4.9142 0
M  V30 2666 N 252.755 -1.56801 0.158532 0
M  V30 2667 C 253.718 -2.16138 -0.762705 0
M  V30 2668 C 254.718 -1.1061 -1.16713 0
M  V30 2669 O 255.908 -1.36191 -1.08617 0
M  V30 2670 C 253.04 -2.73386 -2.03649 0
M  V30 2671 H 254.233 -2.98886 -0.246354 0
M  V30 2672 H 251.786 -1.56035 -0.0909744 0
M  V30 2673 H 252.521 -1.94335 -2.59623 0
M  V30 2674 H 252.306 -3.50601 -1.75559 0
M  V30 2675 H 253.796 -3.19065 -2.6942 0
M  V30 2676 N 254.233 0.115231 -1.57178 0
M  V30 2677 C 255.165 1.16694 -1.97269 0
M  V30 2678 C 256.178 1.37445 -0.872502 0
M  V30 2679 O 257.367 1.36454 -1.15077 0
M  V30 2680 C 254.467 2.52627 -2.25905 0
M  V30 2681 C 253.64 2.52427 -3.57211 0
M  V30 2682 C 252.699 3.70134 -3.74016 0
M  V30 2683 O 251.725 3.53546 -4.46087 0
M  V30 2684 N 252.927 4.88844 -3.13068 0
M  V30 2685 H 255.692 0.82588 -2.88096 0
M  V30 2686 H 253.253 0.304461 -1.59011 0
M  V30 2687 H 255.245 3.29937 -2.34359 0
M  V30 2688 H 253.815 2.789 -1.41186 0
M  V30 2689 H 253.035 1.60805 -3.5991 0
M  V30 2690 H 254.323 2.49353 -4.43509 0
M  V30 2691 H 253.721 5.05225 -2.54489 0
M  V30 2692 H 252.278 5.63817 -3.27037 0
M  V30 2693 N 255.711 1.52812 0.385517 0
M  V30 2694 C 256.644 1.72592 1.49289 0
M  V30 2695 C 257.622 0.573819 1.52138 0
M  V30 2696 O 258.806 0.80404 1.70492 0
M  V30 2697 C 255.933 1.78669 2.87741 0
M  V30 2698 C 254.979 3.00455 3.02703 0
M  V30 2699 S 255.812 4.60366 2.73538 0
M  V30 2700 C 256.968 4.69263 4.14177 0
M  V30 2701 H 257.201 2.66248 1.32285 0
M  V30 2702 H 254.734 1.43148 0.578611 0
M  V30 2703 H 256.692 1.82855 3.67524 0
M  V30 2704 H 255.353 0.861 3.02069 0
M  V30 2705 H 254.546 3.01258 4.04054 0
M  V30 2706 H 254.148 2.94278 2.30817 0
M  V30 2707 H 256.44 4.48092 5.08153 0
M  V30 2708 H 257.383 5.71276 4.18388 0
M  V30 2709 H 257.791 3.98072 4.00249 0
M  V30 2710 N 257.189 -0.644168 1.43834 0
M  V30 2711 C 258.139 -1.7501 1.46135 0
M  V30 2712 C 259.123 -1.57507 0.328685 0
M  V30 2713 O 260.315 -1.67465 0.5731 0
M  V30 2714 C 257.444 -3.13641 1.39585 0
M  V30 2715 C 256.53 -3.3666 2.57916 0
M  V30 2716 N 256.921 -3.30107 3.83227 0
M  V30 2717 C 255.219 -3.67411 2.52834 0
M  V30 2718 C 255.92 -3.53456 4.61999 0
M  V30 2719 N 254.896 -3.75705 3.9287 0
M  V30 2720 H 258.698 -1.68382 2.40883 0
M  V30 2721 H 256.212 -0.846169 1.38614 0
M  V30 2722 H 258.209 -3.92933 1.39317 0
M  V30 2723 H 256.869 -3.21444 0.45865 0
M  V30 2724 H 257.88 -3.09316 4.15384 0
M  V30 2725 H 254.557 -3.82275 1.67845 0
M  V30 2726 H 255.947 -3.54093 5.71024 0
M  V30 2727 N 258.668 -1.30515 -0.883378 0
M  V30 2728 C 259.631 -1.1701 -1.97082 0
M  V30 2729 C 260.631 -0.10089 -1.60483 0
M  V30 2730 O 261.821 -0.349127 -1.70666 0
M  V30 2731 C 258.953 -0.793045 -3.31547 0
M  V30 2732 H 260.146 -2.13622 -2.10489 0
M  V30 2733 H 257.699 -1.13935 -1.06998 0
M  V30 2734 H 258.434 0.172499 -3.23841 0
M  V30 2735 H 258.219 -1.56576 -3.5948 0
M  V30 2736 H 259.709 -0.722073 -4.1131 0
M  V30 2737 N 260.146 1.09593 -1.13257 0
M  V30 2738 C 261.423 1.78293 -0.804432 0
M  V30 2739 C 261.803 1.99004 0.70431 0
M  V30 2740 O 261.151 1.59007 1.641 0
M  V30 2741 C 261.361 3.10707 -1.5894 0
M  V30 2742 C 262.709 3.85443 -1.78099 0
M  V30 2743 O 263.733 3.20454 -1.55525 0
M  V30 2744 O 262.592 5.02108 -2.15753 0
M  V30 2745 H 259.686 0.773156 -0.293528 0
M  V30 2746 H 262.232 1.16164 -1.23709 0
M  V30 2747 H 261.004 2.91106 -2.61482 0
M  V30 2748 H 260.627 3.80558 -1.15157 0
M  V30 2749 N 261.624 0.925811 1.2754 0
M  V30 2750 C 262.901 0.483726 1.89524 0
M  V30 2751 C 263.281 -1.03809 1.83812 0
M  V30 2752 O 262.629 -1.89143 1.28207 0
M  V30 2753 C 262.839 1.02769 3.33526 0
M  V30 2754 C 264.187 1.08703 4.10449 0
M  V30 2755 O 265.211 0.977175 3.42534 0
M  V30 2756 O 264.07 1.25599 5.31871 0
M  V30 2757 H 261.164 0.15529 0.812289 0
M  V30 2758 H 263.71 1.01738 1.35822 0
M  V30 2759 H 262.482 2.07155 3.31967 0
M  V30 2760 H 262.105 0.475567 3.94746 0
M  V30 2761 N 263.102 -1.41638 0.69111 0
M  V30 2762 C 264.034 -2.29194 -0.0161523 0
M  V30 2763 C 265.047 -1.44549 -0.748955 0
M  V30 2764 O 266.236 -1.681 -0.6004 0
M  V30 2765 C 263.336 -3.22325 -1.0469 0
M  V30 2766 C 262.509 -4.35706 -0.384621 0
M  V30 2767 C 261.568 -5.09443 -1.31737 0
M  V30 2768 O 260.594 -5.63386 -0.811451 0
M  V30 2769 N 261.796 -5.16487 -2.64993 0
M  V30 2770 H 264.561 -2.90534 0.735523 0
M  V30 2771 H 262.122 -1.52742 0.53679 0
M  V30 2772 H 264.114 -3.68522 -1.67252 0
M  V30 2773 H 262.684 -2.62323 -1.70015 0
M  V30 2774 H 261.904 -3.91948 0.420804 0
M  V30 2775 H 263.192 -5.08743 0.0760765 0
M  V30 2776 H 262.59 -4.741 -3.08619 0
M  V30 2777 H 261.147 -5.66276 -3.22761 0
M  V30 2778 N 264.58 -0.43555 -1.51462 0
M  V30 2779 C 265.826 0.131709 -2.02372 0
M  V30 2780 C 266.159 1.42516 -1.3192 0
M  V30 2781 O 265.434 1.89606 -0.433573 0
M  V30 2782 C 265.717 0.352301 -3.58373 0
M  V30 2783 C 265.57 -0.959676 -4.39443 0
M  V30 2784 C 266.889 1.12286 -4.25535 0
M  V30 2785 H 264.008 0.0463936 -0.735538 0
M  V30 2786 H 266.65 -0.574197 -1.81116 0
M  V30 2787 H 264.8 0.9536 -3.76615 0
M  V30 2788 H 266.472 -1.59482 -4.32855 0
M  V30 2789 H 264.715 -1.56468 -4.04599 0
M  V30 2790 H 265.386 -0.759394 -5.46752 0
M  V30 2791 H 267.862 0.613545 -4.11552 0
M  V30 2792 H 266.738 1.24598 -5.34571 0
M  V30 2793 H 266.999 2.15048 -3.86273 0
M  V30 2794 N 266.058 1.56714 -0.166846 0
M  V30 2795 C 266.99 2.14914 0.796537 0
M  V30 2796 C 268.003 1.10357 1.19688 0
M  V30 2797 O 269.192 1.37561 1.13751 0
M  V30 2798 C 266.292 2.67326 2.08303 0
M  V30 2799 C 265.465 3.96493 1.84696 0
M  V30 2800 C 264.524 4.34014 2.97521 0
M  V30 2801 O 263.55 5.01973 2.6835 0
M  V30 2802 N 264.752 3.95208 4.25196 0
M  V30 2803 H 267.517 2.98205 0.299006 0
M  V30 2804 H 265.078 1.61892 0.0160839 0
M  V30 2805 H 267.07 2.89428 2.82867 0
M  V30 2806 H 265.64 1.88649 2.4926 0
M  V30 2807 H 264.86 3.82814 0.940602 0
M  V30 2808 H 266.148 4.8086 1.66285 0
M  V30 2809 H 265.546 3.40487 4.51758 0
M  V30 2810 H 264.103 4.2232 4.96477 0
M  V30 2811 N 267.536 -0.106894 1.57237 0
M  V30 2812 C 268.766 -0.825191 1.89405 0
M  V30 2813 C 269.174 -1.73374 0.757496 0
M  V30 2814 O 268.517 -1.81552 -0.280115 0
M  V30 2815 C 268.579 -1.70102 3.1671 0
M  V30 2816 C 268.243 -0.965523 4.46684 0
M  V30 2817 C 269.24 -0.300741 5.19029 0
M  V30 2818 C 266.925 -0.943105 4.93367 0
M  V30 2819 C 268.919 0.376622 6.36286 0
M  V30 2820 C 266.606 -0.261949 6.10538 0
M  V30 2821 C 267.604 0.396748 6.81847 0
M  V30 2822 O 267.292 1.06701 7.96787 0
M  V30 2823 H 267.024 -0.241852 0.631255 0
M  V30 2824 H 269.578 -0.0921491 2.05193 0
M  V30 2825 H 267.808 -2.47601 2.97036 0
M  V30 2826 H 269.497 -2.29483 3.34802 0
M  V30 2827 H 270.263 -0.309599 4.84011 0
M  V30 2828 H 266.142 -1.44524 4.3776 0
M  V30 2829 H 269.686 0.891334 6.91882 0
M  V30 2830 H 265.583 -0.250896 6.45012 0
M  V30 2831 H 266.351 0.972707 8.127 0
M  V30 2832 N 269.014 -1.53014 -0.377408 0
M  V30 2833 C 269.946 -1.74884 -1.48149 0
M  V30 2834 C 270.959 -0.629433 -1.5014 0
M  V30 2835 O 272.148 -0.905416 -1.53833 0
M  V30 2836 C 269.248 -1.80299 -2.86959 0
M  V30 2837 C 268.421 -3.09776 -3.08801 0
M  V30 2838 C 267.48 -3.06586 -4.27658 0
M  V30 2839 O 266.506 -3.80419 -4.23403 0
M  V30 2840 N 267.708 -2.26578 -5.34455 0
M  V30 2841 H 270.473 -2.70147 -1.29771 0
M  V30 2842 H 268.034 -1.51646 -0.56703 0
M  V30 2843 H 270.026 -1.75657 -3.64591 0
M  V30 2844 H 268.596 -0.92372 -2.98641 0
M  V30 2845 H 267.816 -3.27815 -2.18931 0
M  V30 2846 H 269.104 -3.95366 -3.20255 0
M  V30 2847 H 268.502 -1.66081 -5.40771 0
M  V30 2848 H 267.059 -2.27766 -6.10709 0
M  V30 2849 N 270.492 0.636531 -1.44174 0
M  V30 2850 C 271.44 1.76995 -1.50915 0
M  V30 2851 C 272.434 1.65053 -0.381295 0
M  V30 2852 O 273.64 1.71197 -0.55601 0
M  V30 2853 H 270.015 0.584247 -0.473455 0
M  V30 2854 H 271.986 1.68432 -2.4632 0
M  V30 2855 C 270.735 3.15314 -1.46534 0
M  V30 2856 H 270.058 3.25149 -2.32633 0
M  V30 2857 H 271.498 3.9453 -1.55312 0
M  V30 2858 C 269.957 3.3639 -0.185305 0
M  V30 2859 O 270.487 3.94699 0.746688 0
M  V30 2860 N 268.693 2.9046 -0.0901606 0
M  V30 2861 H 268.24 2.43193 -0.849416 0
M  V30 2862 H 268.198 3.04937 0.765553 0
M  V30 2863 N 271.97 1.30982 0.876444 0
M  V30 2864 C 273.216 1.21484 1.63136 0
M  V30 2865 C 273.571 -0.226339 1.91064 0
M  V30 2866 O 272.864 -1.15788 1.52656 0
M  V30 2867 C 273.058 1.98572 2.9716 0
M  V30 2868 C 272.887 3.50039 2.82317 0
M  V30 2869 C 271.657 4.19393 2.81847 0
M  V30 2870 C 273.855 4.45111 2.57644 0
M  V30 2871 N 271.837 5.57061 2.57985 0
M  V30 2872 C 273.208 5.70402 2.42986 0
M  V30 2873 C 275.263 4.3461 2.42937 0
M  V30 2874 C 273.966 6.8638 2.15115 0
M  V30 2875 C 275.992 5.50365 2.16454 0
M  V30 2876 C 275.354 6.74642 2.02578 0
M  V30 2877 H 271.453 0.499632 0.601575 0
M  V30 2878 H 274.037 1.65094 1.03209 0
M  V30 2879 H 272.208 1.5734 3.55104 0
M  V30 2880 H 273.94 1.81146 3.61895 0
M  V30 2881 H 270.695 3.71303 2.93991 0
M  V30 2882 H 271.119 6.29529 2.49043 0
M  V30 2883 H 275.761 3.39199 2.52396 0
M  V30 2884 H 273.479 7.81824 2.04394 0
M  V30 2885 H 277.065 5.44154 2.05884 0
M  V30 2886 H 275.945 7.62699 1.82374 0
M  V30 2887 N 273.449 -1.08991 1.13837 0
M  V30 2888 C 274.677 -1.85011 0.926202 0
M  V30 2889 C 275.092 -1.8135 -0.525127 0
M  V30 2890 O 274.449 -1.21287 -1.36366 0
M  V30 2891 C 274.5 -3.32802 1.41155 0
M  V30 2892 O 274.221 -3.36444 2.80601 0
M  V30 2893 C 275.722 -4.25649 1.23847 0
M  V30 2894 H 272.942 -0.584249 0.32999 0
M  V30 2895 H 275.486 -1.37688 1.51202 0
M  V30 2896 H 273.641 -3.77536 0.868631 0
M  V30 2897 H 274.055 -4.28657 3.02248 0
M  V30 2898 H 275.529 -5.27485 1.62675 0
M  V30 2899 H 276.006 -4.38828 0.18065 0
M  V30 2900 H 276.612 -3.86735 1.76964 0
M  V30 2901 N 274.927 -0.932562 -1.27047 0
M  V30 2902 C 276.152 -0.591474 -1.98787 0
M  V30 2903 C 276.577 0.824601 -1.69062 0
M  V30 2904 O 275.935 1.5541 -0.933677 0
M  V30 2905 C 275.983 -0.829808 -3.50922 0
M  V30 2906 O 275.087 0.102266 -4.12273 0
M  V30 2907 H 274.428 -0.227185 -0.623926 0
M  V30 2908 H 276.958 -1.25314 -1.61733 0
M  V30 2909 H 276.968 -0.747292 -4.01098 0
M  V30 2910 H 275.643 -1.86201 -3.7189 0
M  V30 2911 H 274.22 -0.0305761 -3.72887 0
M  V30 2912 N 276.405 1.4127 -0.698611 0
M  V30 2913 C 277.338 2.28195 0.0153898 0
M  V30 2914 C 278.316 1.42402 0.784883 0
M  V30 2915 O 279.5 1.71828 0.775067 0
M  V30 2916 C 276.627 3.22685 1.02918 0
M  V30 2917 C 275.673 4.25041 0.352501 0
M  V30 2918 S 276.506 5.27757 -0.907322 0
M  V30 2919 C 277.662 6.25812 0.104796 0
M  V30 2920 H 277.895 2.88403 -0.721858 0
M  V30 2921 H 275.428 1.46452 -0.488996 0
M  V30 2922 H 277.386 3.77655 1.60893 0
M  V30 2923 H 276.047 2.61566 1.73902 0
M  V30 2924 H 275.24 4.91437 1.11828 0
M  V30 2925 H 274.842 3.73682 -0.154254 0
M  V30 2926 H 277.134 6.70705 0.957103 0
M  V30 2927 H 278.077 7.06149 -0.525323 0
M  V30 2928 H 278.485 5.62615 0.460931 0
M  V30 2929 N 277.883 0.443576 1.51229 0
M  V30 2930 C 278.83 -0.364716 2.279 0
M  V30 2931 C 279.8 -1.0114 1.31757 0
M  V30 2932 O 280.985 -1.02912 1.60667 0
M  V30 2933 C 278.125 -1.45644 3.12861 0
M  V30 2934 C 277.238 -0.827269 4.24005 0
M  V30 2935 C 276.373 -1.89456 4.96266 0
M  V30 2936 C 275.412 -1.24416 5.99322 0
M  V30 2937 N 274.549 -2.25309 6.64966 0
M  V30 2938 H 279.389 0.295464 2.96532 0
M  V30 2939 H 276.926 0.157554 1.46254 0
M  V30 2940 H 278.884 -2.10076 3.6045 0
M  V30 2941 H 277.514 -2.08616 2.46331 0
M  V30 2942 H 276.566 -0.0710839 3.80334 0
M  V30 2943 H 277.878 -0.312481 4.9782 0
M  V30 2944 H 277.032 -2.61535 5.47434 0
M  V30 2945 H 275.771 -2.4431 4.22095 0
M  V30 2946 H 274.776 -0.508868 5.4744 0
M  V30 2947 H 276.001 -0.702882 6.75453 0
M  V30 2948 H 273.947 -2.79231 5.93604 0
M  V30 2949 H 273.864 -1.78739 7.34567 0
M  V30 2950 H 275.132 -2.96853 7.20763 0
M  V30 2951 N 279.361 -1.56624 0.175154 0
M  V30 2952 C 280.609 -1.96609 -0.467885 0
M  V30 2953 C 280.93 -1.06238 -1.63519 0
M  V30 2954 O 280.2 -0.129523 -1.95471 0
M  V30 2955 H 278.78 -0.726008 -0.175845 0
M  V30 2956 H 281.442 -1.93195 0.257234 0
M  V30 2957 H 280.538 -3.00989 -0.825342 0
M  V30 2958 N 280.839 0.0985539 -1.57292 0
M  V30 2959 C 281.802 1.10402 -2.00858 0
M  V30 2960 C 282.802 1.33146 -0.901593 0
M  V30 2961 O 283.992 1.29318 -1.16716 0
M  V30 2962 C 281.124 2.45394 -2.36632 0
M  V30 2963 H 282.317 0.729099 -2.90902 0
M  V30 2964 H 279.87 0.343495 -1.52479 0
M  V30 2965 H 280.605 2.87769 -1.49531 0
M  V30 2966 H 280.39 2.30235 -3.17387 0
M  V30 2967 H 281.88 3.17718 -2.71007 0
M  V30 2968 N 282.317 1.53212 0.369288 0
M  V30 2969 C 283.28 1.7872 1.43498 0
M  V30 2970 C 284.28 0.657554 1.46741 0
M  V30 2971 O 285.47 0.925736 1.47566 0
M  V30 2972 C 282.602 1.90591 2.82645 0
M  V30 2973 H 283.795 2.73894 1.22156 0
M  V30 2974 H 281.348 1.44233 0.602203 0
M  V30 2975 H 282.083 0.974709 3.09306 0
M  V30 2976 H 281.868 2.72751 2.8169 0
M  V30 2977 H 283.358 2.11931 3.59826 0
M  V30 2978 N 283.795 -0.628877 1.44509 0
M  V30 2979 C 284.705 -1.7694 1.54044 0
M  V30 2980 C 285.721 -1.68705 0.425987 0
M  V30 2981 O 286.897 -1.89442 0.683656 0
M  V30 2982 C 283.962 -3.13332 1.48405 0
M  V30 2983 C 283.023 -3.33181 2.70719 0
M  V30 2984 C 282.256 -4.63067 2.6534 0
M  V30 2985 O 282.479 -5.44017 1.71469 0
M  V30 2986 O 281.413 -4.85167 3.56226 0
M  V30 2987 H 285.239 -1.71848 2.50403 0
M  V30 2988 H 282.824 -0.790378 1.26781 0
M  V30 2989 H 284.706 -3.94634 1.47791 0
M  V30 2990 H 283.381 -3.1896 0.551898 0
M  V30 2991 H 282.288 -2.51549 2.769 0
M  V30 2992 H 283.621 -3.32416 3.62988 0
M  V30 2993 N 285.273 -1.31445 -0.869486 0
M  V30 2994 C 286.522 -1.20517 -1.61736 0
M  V30 2995 C 286.835 0.235341 -1.94179 0
M  V30 2996 O 288.041 0.466312 -2.67465 0
M  V30 2997 C 286.497 -2.10982 -2.91573 0
M  V30 2998 C 286.105 -3.60032 -2.66611 0
M  V30 2999 C 287.849 -2.08856 -3.69567 0
M  V30 3000 C 285.756 -4.42503 -3.92358 0
M  V30 3001 H 284.686 -0.447493 -0.606849 0
M  V30 3002 H 287.337 -1.56303 -0.96133 0
M  V30 3003 H 285.719 -1.68095 -3.58553 0
M  V30 3004 H 286.893 -4.11167 -2.08035 0
M  V30 3005 H 285.208 -3.64139 -2.0197 0
M  V30 3006 H 287.805 -2.67716 -4.62852 0
M  V30 3007 H 288.148 -1.07582 -4.02159 0
M  V30 3008 H 288.681 -2.49945 -3.09471 0
M  V30 3009 H 285.42 -5.44533 -3.64916 0
M  V30 3010 H 284.94 -3.96125 -4.50383 0
M  V30 3011 H 286.619 -4.54741 -4.60238 0
M  V30 3012 N 286.751 1.08385 -1.14413 0
M  V30 3013 C 287.681 2.17321 -0.854044 0
M  V30 3014 C 288.662 1.69024 0.191049 0
M  V30 3015 O 289.847 1.94141 0.0476779 0
M  V30 3016 C 286.977 3.45719 -0.330983 0
M  V30 3017 C 285.931 4.07409 -1.31155 0
M  V30 3018 C 285.257 5.30762 -0.64778 0
M  V30 3019 C 286.557 4.48665 -2.67388 0
M  V30 3020 H 288.251 2.41845 -1.76498 0
M  V30 3021 H 285.797 1.16233 -0.850051 0
M  V30 3022 H 287.75 4.21241 -0.115645 0
M  V30 3023 H 286.474 3.2075 0.615381 0
M  V30 3024 H 285.133 3.33919 -1.51306 0
M  V30 3025 H 284.781 5.02078 0.304398 0
M  V30 3026 H 284.481 5.72992 -1.30207 0
M  V30 3027 H 286.005 6.08998 -0.441972 0
M  V30 3028 H 287.419 5.15364 -2.51143 0
M  V30 3029 H 285.816 5.01814 -3.29093 0
M  V30 3030 H 286.886 3.60543 -3.24248 0
M  V30 3031 N 288.23 0.939286 1.26551 0
M  V30 3032 C 289.177 0.446088 2.26448 0
M  V30 3033 C 290.147 -0.493234 1.58608 0
M  V30 3034 O 291.332 -0.409857 1.86346 0
M  V30 3035 C 288.472 -0.284375 3.43926 0
M  V30 3036 C 287.585 0.690399 4.26448 0
M  V30 3037 C 286.72 -0.0610712 5.31165 0
M  V30 3038 C 285.759 0.905649 6.05363 0
M  V30 3039 N 284.896 0.186055 7.01853 0
M  V30 3040 H 289.736 1.30291 2.68008 0
M  V30 3041 H 287.273 0.65371 1.31776 0
M  V30 3042 H 289.231 -0.724313 4.10864 0
M  V30 3043 H 287.861 -1.10535 3.03285 0
M  V30 3044 H 286.913 1.24885 3.59316 0
M  V30 3045 H 288.225 1.42873 4.779 0
M  V30 3046 H 287.379 -0.56038 6.04106 0
M  V30 3047 H 286.118 -0.832297 4.80546 0
M  V30 3048 H 285.123 1.4161 5.3125 0
M  V30 3049 H 286.348 1.67685 6.58072 0
M  V30 3050 H 284.294 -0.566714 6.53548 0
M  V30 3051 H 284.211 0.863752 7.51049 0
M  V30 3052 H 285.479 -0.292221 7.78952 0
M  V30 3053 N 289.708 -1.40897 0.706093 0
M  V30 3054 C 290.655 -2.30751 0.0474474 0
M  V30 3055 C 291.625 -1.47678 -0.76029 0
M  V30 3056 O 292.81 -1.76441 -0.726177 0
M  V30 3057 C 289.95 -3.33815 -0.875309 0
M  V30 3058 C 289.063 -4.31961 -0.0580623 0
M  V30 3059 C 288.198 -5.22093 -0.979425 0
M  V30 3060 C 287.237 -6.11902 -0.155706 0
M  V30 3061 N 286.374 -6.94482 -1.03144 0
M  V30 3062 H 291.214 -2.86513 0.819413 0
M  V30 3063 H 288.751 -1.41102 0.415783 0
M  V30 3064 H 290.709 -3.92129 -1.42446 0
M  V30 3065 H 289.339 -2.79579 -1.61356 0
M  V30 3066 H 288.391 -3.75507 0.608147 0
M  V30 3067 H 289.703 -4.95415 0.580082 0
M  V30 3068 H 288.857 -5.85292 -1.59744 0
M  V30 3069 H 287.596 -4.5889 -1.65141 0
M  V30 3070 H 286.601 -5.47742 0.475309 0
M  V30 3071 H 287.826 -6.77162 0.512635 0
M  V30 3072 H 285.772 -6.33877 -1.68924 0
M  V30 3073 H 285.689 -7.54665 -0.449108 0
M  V30 3074 H 286.957 -7.6214 -1.63593 0
M  V30 3075 N 291.186 -0.45159 -1.50991 0
M  V30 3076 C 292.433 0.110074 -2.02201 0
M  V30 3077 C 292.761 1.4146 -1.33489 0
M  V30 3078 O 292.016 1.90617 -0.443125 0
M  V30 3079 C 292.315 0.361728 -3.55565 0
M  V30 3080 C 291.981 -0.858717 -4.42648 0
M  V30 3081 C 290.643 -1.19338 -4.66167 0
M  V30 3082 C 292.995 -1.67221 -4.93646 0
M  V30 3083 C 290.323 -2.34195 -5.37931 0
M  V30 3084 C 292.675 -2.8119 -5.6667 0
M  V30 3085 C 291.339 -3.15094 -5.88449 0
M  V30 3086 H 290.609 0.040279 -0.739904 0
M  V30 3087 H 293.256 -0.601696 -1.81802 0
M  V30 3088 H 291.561 1.15554 -3.74372 0
M  V30 3089 H 293.258 0.80996 -3.92735 0
M  V30 3090 H 289.848 -0.58796 -4.24548 0
M  V30 3091 H 294.032 -1.42686 -4.75347 0
M  V30 3092 H 289.288 -2.6076 -5.53005 0
M  V30 3093 H 293.462 -3.44585 -6.05173 0
M  V30 3094 H 291.089 -4.04204 -6.43835 0
M  V30 3095 N 292.664 1.56529 -0.183458 0
M  V30 3096 C 293.574 2.22144 0.754272 0
M  V30 3097 C 294.59 1.21684 1.24374 0
M  V30 3098 O 295.766 1.54385 1.29333 0
M  V30 3099 C 292.831 2.85884 1.96141 0
M  V30 3100 C 291.892 4.01579 1.51765 0
M  V30 3101 C 291.125 4.6227 2.66725 0
M  V30 3102 O 291.348 4.21865 3.83909 0
M  V30 3103 O 290.282 5.51936 2.40104 0
M  V30 3104 H 294.108 3.02861 0.225527 0
M  V30 3105 H 291.693 1.49331 0.0453032 0
M  V30 3106 H 293.575 3.26253 2.66715 0
M  V30 3107 H 292.25 2.08154 2.47899 0
M  V30 3108 H 291.157 3.65856 0.781049 0
M  V30 3109 H 292.49 4.80938 1.04686 0
M  V30 3110 N 294.142 -0.090211 1.57342 0
M  V30 3111 C 295.074 -1.13541 1.99101 0
M  V30 3112 C 296.087 -1.3604 0.894258 0
M  V30 3113 O 297.276 -1.34606 1.17233 0
M  V30 3114 C 294.376 -2.49001 2.29895 0
M  V30 3115 C 293.549 -2.46712 3.61182 0
M  V30 3116 C 292.608 -3.64136 3.79857 0
M  V30 3117 O 291.634 -3.46405 4.51655 0
M  V30 3118 N 292.836 -4.83802 3.20806 0
M  V30 3119 H 295.601 -0.779942 2.89373 0
M  V30 3120 H 293.162 -0.279125 1.59476 0
M  V30 3121 H 295.154 -3.26166 2.39578 0
M  V30 3122 H 293.724 -2.76619 1.45605 0
M  V30 3123 H 292.944 -1.55058 3.62423 0
M  V30 3124 H 294.232 -2.42265 4.4742 0
M  V30 3125 H 293.63 -5.01112 2.62494 0
M  V30 3126 H 292.187 -5.58543 3.35966 0
M  V30 3127 N 295.62 -1.53406 -0.361157 0
M  V30 3128 C 296.567 -1.80156 -1.44265 0
M  V30 3129 C 297.537 -0.646183 -1.53015 0
M  V30 3130 O 298.722 -0.888818 -1.68833 0
M  V30 3131 C 295.862 -2.00116 -2.81154 0
M  V30 3132 C 294.975 -3.27833 -2.81335 0
M  V30 3133 C 294.11 -3.37957 -4.09828 0
M  V30 3134 C 293.149 -4.59689 -4.04168 0
M  V30 3135 N 292.286 -4.66942 -5.24318 0
M  V30 3136 H 297.126 -2.72438 -1.20754 0
M  V30 3137 H 294.663 -1.34954 -0.585296 0
M  V30 3138 H 296.621 -2.09677 -3.60682 0
M  V30 3139 H 295.251 -1.11167 -3.03054 0
M  V30 3140 H 294.303 -3.27204 -1.94014 0
M  V30 3141 H 295.615 -4.17442 -2.73027 0
M  V30 3142 H 294.769 -3.46853 -4.97773 0
M  V30 3143 H 293.508 -2.46372 -4.20894 0
M  V30 3144 H 292.513 -4.50889 -3.14609 0
M  V30 3145 H 293.738 -5.5262 -3.947 0
M  V30 3146 H 291.684 -3.7826 -5.35962 0
M  V30 3147 H 291.601 -5.50462 -5.18197 0
M  V30 3148 H 292.869 -4.80127 -6.14084 0
M  V30 3149 N 297.098 0.621204 -1.44841 0
M  V30 3150 C 298.326 1.40752 -1.51646 0
M  V30 3151 C 298.741 1.88246 -0.144549 0
M  V30 3152 O 298.098 1.61422 0.851416 0
M  V30 3153 C 298.149 2.62119 -2.4895 0
M  V30 3154 O 297.87 2.16602 -3.80808 0
M  V30 3155 C 299.371 3.55135 -2.65319 0
M  V30 3156 H 296.591 0.431325 -0.514004 0
M  V30 3157 H 299.135 0.758835 -1.899 0
M  V30 3158 H 297.29 3.23058 -2.13805 0
M  V30 3159 H 297.704 2.95358 -4.33433 0
M  V30 3160 H 299.178 4.36874 -3.37409 0
M  V30 3161 H 299.655 4.04592 -1.70886 0
M  V30 3162 H 300.261 3.00058 -3.01405 0
M  V30 3163 N 298.576 1.31904 0.862503 0
M  V30 3164 C 299.508 1.16005 1.97675 0
M  V30 3165 C 300.521 0.0971234 1.6251 0
M  V30 3166 O 301.71 0.345337 1.75128 0
M  V30 3167 C 298.81 0.751791 3.30456 0
M  V30 3168 C 297.983 1.90133 3.93914 0
M  V30 3169 C 297.042 1.4779 5.05019 0
M  V30 3170 O 296.068 2.18872 5.25437 0
M  V30 3171 N 297.27 0.369491 5.79323 0
M  V30 3172 H 300.035 2.11982 2.11857 0
M  V30 3173 H 297.596 1.24337 1.03691 0
M  V30 3174 H 299.588 0.451084 4.02178 0
M  V30 3175 H 298.158 -0.116593 3.12382 0
M  V30 3176 H 297.378 2.36896 3.15078 0
M  V30 3177 H 298.666 2.67111 4.33047 0
M  V30 3178 H 298.064 -0.222299 5.65263 0
M  V30 3179 H 296.621 0.128354 6.51674 0
M  V30 3180 N 300.054 -1.07777 1.14986 0
M  V30 3181 C 300.984 -2.16865 0.865557 0
M  V30 3182 C 301.965 -1.69123 -0.182083 0
M  V30 3183 O 303.15 -1.94164 -0.0373815 0
M  V30 3184 C 300.28 -3.45539 0.349313 0
M  V30 3185 C 299.234 -4.06708 1.33313 0
M  V30 3186 C 298.56 -5.30411 0.675918 0
M  V30 3187 C 299.86 -4.47241 2.69764 0
M  V30 3188 H 301.554 -2.40905 1.77778 0
M  V30 3189 H 299.1 -1.15781 0.856203 0
M  V30 3190 H 301.053 -4.21174 0.137983 0
M  V30 3191 H 299.777 -3.21072 -0.598362 0
M  V30 3192 H 298.436 -3.33112 1.53075 0
M  V30 3193 H 298.084 -5.02232 -0.277767 0
M  V30 3194 H 297.784 -5.72293 1.33244 0
M  V30 3195 H 299.308 -6.08755 0.474262 0
M  V30 3196 H 300.722 -5.14025 2.53873 0
M  V30 3197 H 299.119 -5.00062 3.3175 0
M  V30 3198 H 300.189 -3.58818 3.26156 0
M  V30 3199 N 301.532 -0.945985 -1.26051 0
M  V30 3200 C 302.757 -0.612525 -1.98149 0
M  V30 3201 C 303.182 0.806623 -1.69927 0
M  V30 3202 O 302.54 1.54411 -0.950108 0
M  V30 3203 C 302.588 -0.866981 -3.50023 0
M  V30 3204 O 301.692 0.0585333 -4.12358 0
M  V30 3205 H 301.033 -0.23379 -0.621481 0
M  V30 3206 H 303.563 -1.27023 -1.60395 0
M  V30 3207 H 303.573 -0.789792 -4.00283 0
M  V30 3208 H 302.248 -1.90135 -3.69894 0
M  V30 3209 H 300.825 -0.0701241 -3.72834 0
M  V30 3210 N 303.011 1.40521 -0.713556 0
M  V30 3211 C 303.921 2.34522 -0.0606667 0
M  V30 3212 C 304.937 1.57193 0.74607 0
M  V30 3213 O 306.113 1.89591 0.679493 0
M  V30 3214 C 303.178 3.36081 0.851491 0
M  V30 3215 C 302.239 4.29286 0.0349339 0
M  V30 3216 C 301.472 5.25994 0.903649 0
M  V30 3217 O 301.695 5.28616 2.14292 0
M  V30 3218 O 300.629 6.00918 0.343723 0
M  V30 3219 H 304.455 2.91968 -0.835972 0
M  V30 3220 H 302.04 1.41681 -0.47402 0
M  V30 3221 H 303.922 3.98369 1.37404 0
M  V30 3222 H 302.597 2.81052 1.60598 0
M  V30 3223 H 301.504 3.70289 -0.532633 0
M  V30 3224 H 302.837 4.87462 -0.681287 0
M  V30 3225 N 304.489 0.459591 1.5075 0
M  V30 3226 C 305.717 -0.0973749 2.06671 0
M  V30 3227 C 306.132 -1.34524 1.32472 0
M  V30 3228 O 305.489 -1.7827 0.390634 0
M  V30 3229 C 305.54 -0.39714 3.59312 0
M  V30 3230 O 305.261 0.801214 4.30711 0
M  V30 3231 C 306.762 -1.00234 4.31819 0
M  V30 3232 H 303.982 0.00195854 0.670997 0
M  V30 3233 H 306.526 0.645072 1.94059 0
M  V30 3234 H 304.681 -1.08951 3.71764 0
M  V30 3235 H 305.095 0.538857 5.21725 0
M  V30 3236 H 306.569 -1.16193 5.39632 0
M  V30 3237 H 307.046 -1.98939 3.91561 0
M  V30 3238 H 307.652 -0.348699 4.23868 0
M  V30 3239 N 305.967 -1.56429 0.191757 0
M  V30 3240 C 307.192 -2.02309 -0.456706 0
M  V30 3241 C 307.617 -1.07103 -1.5463 0
M  V30 3242 O 306.975 -0.0539677 -1.8122 0
M  V30 3243 C 307.023 -3.46654 -0.993159 0
M  V30 3244 O 306.127 -3.54559 -2.10622 0
M  V30 3245 H 305.468 -0.655303 -0.107114 0
M  V30 3246 H 307.998 -2.02364 0.301653 0
M  V30 3247 H 308.008 -3.86377 -1.31061 0
M  V30 3248 H 306.683 -4.1544 -0.195504 0
M  V30 3249 H 305.26 -3.26708 -1.79767 0
M  V30 3250 N 307.445 0.0818655 -1.57387 0
M  V30 3251 C 308.377 1.12484 -1.997 0
M  V30 3252 C 309.39 1.35564 -0.90146 0
M  V30 3253 O 310.579 1.33982 -1.17945 0
M  V30 3254 C 307.679 2.47778 -2.31213 0
M  V30 3255 C 306.852 2.44793 -3.62485 0
M  V30 3256 C 305.911 3.62117 -3.81782 0
M  V30 3257 O 304.937 3.44005 -4.53486 0
M  V30 3258 N 306.139 4.82094 -3.23367 0
M  V30 3259 H 308.904 0.764585 -2.89783 0
M  V30 3260 H 306.465 0.270664 -1.59621 0
M  V30 3261 H 308.457 3.24891 -2.41304 0
M  V30 3262 H 307.027 2.75843 -1.4707 0
M  V30 3263 H 306.247 1.53134 -3.6324 0
M  V30 3264 H 307.535 2.39889 -4.48699 0
M  V30 3265 H 306.933 4.99713 -2.65148 0
M  V30 3266 H 305.49 5.56753 -3.38923 0
M  V30 3267 N 308.923 1.53595 0.353017 0
M  V30 3268 C 309.886 1.80232 1.41594 0
M  V30 3269 C 310.886 0.673081 1.46035 0
M  V30 3270 O 312.076 0.941335 1.46576 0
M  V30 3271 C 309.208 1.93578 2.80607 0
M  V30 3272 H 310.401 2.75174 1.19244 0
M  V30 3273 H 307.954 1.44864 0.586872 0
M  V30 3274 H 308.689 1.00746 3.08254 0
M  V30 3275 H 308.474 2.75724 2.78781 0
M  V30 3276 H 309.964 2.15735 3.57558 0
M  V30 3277 N 310.401 -0.613514 1.45168 0
M  V30 3278 C 311.331 -1.7354 1.56225 0
M  V30 3279 C 312.312 -1.64981 0.41414 0
M  V30 3280 O 313.497 -1.83472 0.636526 0
M  V30 3281 C 310.627 -3.12128 1.52295 0
M  V30 3282 C 309.581 -3.35491 2.65762 0
M  V30 3283 C 308.907 -4.74291 2.46885 0
M  V30 3284 C 310.207 -3.26325 4.0781 0
M  V30 3285 H 311.901 -1.64543 2.50132 0
M  V30 3286 H 309.447 -0.790185 1.20383 0
M  V30 3287 H 311.4 -3.90404 1.58628 0
M  V30 3288 H 310.124 -3.2195 0.549139 0
M  V30 3289 H 308.783 -2.59603 2.58847 0
M  V30 3290 H 308.431 -4.80839 1.47657 0
M  V30 3291 H 308.131 -4.9088 3.22972 0
M  V30 3292 H 309.655 -5.54775 2.55063 0
M  V30 3293 H 311.069 -3.94483 4.16 0
M  V30 3294 H 309.466 -3.54445 4.8424 0
M  V30 3295 H 310.536 -2.23855 4.30136 0
M  V30 3296 N 311.879 -1.3236 -0.855495 0
M  V30 3297 C 312.809 -1.23833 -1.97958 0
M  V30 3298 C 313.79 -0.122361 -1.69659 0
M  V30 3299 O 314.975 -0.30939 -1.9172 0
M  V30 3300 C 312.105 -0.959772 -3.33775 0
M  V30 3301 C 311.059 -2.03689 -3.76424 0
M  V30 3302 C 310.385 -1.61075 -5.09862 0
M  V30 3303 C 311.685 -3.4518 -3.9198 0
M  V30 3304 H 313.379 -2.1788 -2.0535 0
M  V30 3305 H 310.925 -1.04891 -0.986605 0
M  V30 3306 H 312.878 -0.886678 -4.11966 0
M  V30 3307 H 311.602 0.0163404 -3.26596 0
M  V30 3308 H 310.261 -2.10012 -3.00484 0
M  V30 3309 H 309.909 -0.622107 -4.99138 0
M  V30 3310 H 309.609 -2.33143 -5.39368 0
M  V30 3311 H 311.133 -1.55201 -5.90546 0
M  V30 3312 H 312.547 -3.4145 -4.60526 0
M  V30 3313 H 310.944 -4.1559 -4.32903 0
M  V30 3314 H 312.014 -3.84903 -2.94919 0
M  V30 3315 N 313.357 1.07166 -1.15556 0
M  V30 3316 C 314.603 1.80222 -0.942961 0
M  V30 3317 C 314.958 1.85121 0.524209 0
M  V30 3318 O 314.251 1.32531 1.38369 0
M  V30 3319 C 314.445 3.24707 -1.49332 0
M  V30 3320 C 314.274 3.33887 -3.01247 0
M  V30 3321 C 313.044 3.44337 -3.69811 0
M  V30 3322 C 315.242 3.24484 -3.99017 0
M  V30 3323 N 313.224 3.42439 -5.09518 0
M  V30 3324 C 314.595 3.29726 -5.25053 0
M  V30 3325 C 316.65 3.08307 -3.90962 0
M  V30 3326 C 315.353 3.20455 -6.43973 0
M  V30 3327 C 317.379 3.00371 -5.09442 0
M  V30 3328 C 316.741 3.06227 -6.34354 0
M  V30 3329 H 312.84 0.672709 -0.398731 0
M  V30 3330 H 315.424 1.27905 -1.46794 0
M  V30 3331 H 313.595 3.7544 -0.994946 0
M  V30 3332 H 315.327 3.85894 -1.21935 0
M  V30 3333 H 312.082 3.48762 -3.20409 0
M  V30 3334 H 312.506 3.45013 -5.8249 0
M  V30 3335 H 317.148 3.02633 -2.95251 0
M  V30 3336 H 314.866 3.24888 -7.39914 0
M  V30 3337 H 318.452 2.88955 -5.04971 0
M  V30 3338 H 317.332 3.00132 -7.24493 0
M  V30 3339 N 314.835 0.952656 1.25548 0
M  V30 3340 C 315.782 0.47008 2.25962 0
M  V30 3341 C 316.752 -0.476384 1.59122 0
M  V30 3342 O 317.937 -0.39007 1.8677 0
M  V30 3343 C 315.077 -0.247881 3.44209 0
M  V30 3344 C 314.19 0.735591 4.25691 0
M  V30 3345 C 313.325 -0.0047306 5.312 0
M  V30 3346 C 312.364 0.969805 6.04368 0
M  V30 3347 N 311.501 0.260486 7.01617 0
M  V30 3348 H 316.341 1.33126 2.66611 0
M  V30 3349 H 313.878 0.66765 1.31076 0
M  V30 3350 H 315.836 -0.680695 4.1161 0
M  V30 3351 H 314.466 -1.07312 3.0444 0
M  V30 3352 H 313.518 1.28689 3.57971 0
M  V30 3353 H 314.83 1.47934 4.76358 0
M  V30 3354 H 313.984 -0.496275 6.04667 0
M  V30 3355 H 312.723 -0.781282 4.81401 0
M  V30 3356 H 311.728 1.47237 5.29718 0
M  V30 3357 H 312.953 1.74655 6.56256 0
M  V30 3358 H 310.899 -0.497364 6.54112 0
M  V30 3359 H 310.816 0.943362 7.50091 0
M  V30 3360 H 312.084 -0.209587 7.79218 0
M  V30 3361 N 316.313 -1.40141 0.720998 0
M  V30 3362 C 317.559 -2.01572 0.272075 0
M  V30 3363 C 317.914 -1.5616 -1.12391 0
M  V30 3364 O 317.207 -0.774198 -1.75262 0
M  V30 3365 C 317.401 -3.56165 0.296892 0
M  V30 3366 C 317.23 -4.16584 1.69375 0
M  V30 3367 C 316 -4.49783 2.30269 0
M  V30 3368 C 318.198 -4.41076 2.64493 0
M  V30 3369 N 316.18 -4.95626 3.62254 0
M  V30 3370 C 317.551 -4.88971 3.81192 0
M  V30 3371 C 319.606 -4.23122 2.62435 0
M  V30 3372 C 318.309 -5.20796 4.96149 0
M  V30 3373 C 320.335 -4.56052 3.76524 0
M  V30 3374 C 319.697 -5.04141 4.91956 0
M  V30 3375 H 315.796 -0.768343 0.145511 0
M  V30 3376 H 318.38 -1.70287 0.943959 0
M  V30 3377 H 316.551 -3.86868 -0.344578 0
M  V30 3378 H 318.283 -4.04346 -0.169254 0
M  V30 3379 H 315.038 -4.37101 1.82318 0
M  V30 3380 H 315.462 -5.22923 4.29977 0
M  V30 3381 H 320.104 -3.85158 1.74393 0
M  V30 3382 H 317.822 -5.57672 5.84831 0
M  V30 3383 H 321.408 -4.43796 3.76213 0
M  V30 3384 H 320.288 -5.29142 5.78774 0
M  V30 3385 N 317.792 -0.46758 -1.50504 0
M  V30 3386 C 318.725 0.374324 -2.25109 0
M  V30 3387 C 319.703 0.99921 -1.28275 0
M  V30 3388 O 320.887 1.03583 -1.57489 0
M  V30 3389 C 318.014 1.52419 -3.02467 0
M  V30 3390 C 317.06 1.01702 -4.14197 0
M  V30 3391 S 317.893 -0.0654477 -5.3546 0
M  V30 3392 C 319.049 1.08837 -6.16365 0
M  V30 3393 H 319.282 -0.258983 -2.9617 0
M  V30 3394 H 316.815 -0.252421 -1.52323 0
M  V30 3395 H 318.773 2.18322 -3.47628 0
M  V30 3396 H 317.434 2.129 -2.30938 0
M  V30 3397 H 316.627 1.87776 -4.67714 0
M  V30 3398 H 316.229 0.435757 -3.71453 0
M  V30 3399 H 318.521 2.00071 -6.47285 0
M  V30 3400 H 319.464 0.592538 -7.05616 0
M  V30 3401 H 319.872 1.34061 -5.4835 0
M  V30 3402 N 319.27 1.56325 -0.20005 0
M  V30 3403 C 320.516 1.98012 0.438059 0
M  V30 3404 C 320.849 1.08702 1.60927 0
M  V30 3405 O 320.124 0.140064 1.93995 0
M  V30 3406 C 320.407 3.48841 0.893419 0
M  V30 3407 C 320.26 4.48928 -0.279947 0
M  V30 3408 C 321.579 4.03498 1.75719 0
M  V30 3409 H 318.698 0.719918 0.157757 0
M  V30 3410 H 321.34 1.87743 -0.291968 0
M  V30 3411 H 319.49 3.57723 1.51547 0
M  V30 3412 H 321.162 4.52079 -0.91772 0
M  V30 3413 H 319.405 4.23694 -0.930919 0
M  V30 3414 H 320.076 5.5194 0.0812601 0
M  V30 3415 H 322.552 3.97427 1.23253 0
M  V30 3416 H 321.428 5.09393 2.04476 0
M  V30 3417 H 321.689 3.4906 2.71311 0
M  V30 3418 N 320.748 -0.0735177 1.57428 0
M  V30 3419 C 321.658 -1.10547 2.06922 0
M  V30 3420 C 322.674 -1.42506 0.998402 0
M  V30 3421 O 323.85 -1.52717 1.31299 0
M  V30 3422 C 320.915 -2.40019 2.50184 0
M  V30 3423 C 319.976 -2.15046 3.71556 0
M  V30 3424 C 319.209 -3.38345 4.12745 0
M  V30 3425 O 319.432 -4.47399 3.53822 0
M  V30 3426 O 318.366 -3.2666 5.05546 0
M  V30 3427 H 322.192 -0.715013 2.95163 0
M  V30 3428 H 319.777 -0.287531 1.46607 0
M  V30 3429 H 321.659 -3.16218 2.78539 0
M  V30 3430 H 320.334 -2.78447 1.65072 0
M  V30 3431 H 319.241 -1.36558 3.48285 0
M  V30 3432 H 320.574 -1.81499 4.57514 0
M  V30 3433 N 322.226 -1.5378 -0.344866 0
M  V30 3434 C 323.454 -1.74899 -1.10534 0
M  V30 3435 C 323.869 -0.487534 -1.82397 0
M  V30 3436 O 323.226 0.540741 -1.74305 0
M  V30 3437 C 323.277 -2.92822 -2.11984 0
M  V30 3438 O 322.998 -4.14089 -1.43044 0
M  V30 3439 C 324.499 -3.25982 -3.00417 0
M  V30 3440 H 321.719 -0.584426 -0.329678 0
M  V30 3441 H 324.263 -2.006 -0.397474 0
M  V30 3442 H 322.418 -2.69457 -2.78338 0
M  V30 3443 H 322.832 -4.80272 -2.10805 0
M  V30 3444 H 324.306 -4.11848 -3.67539 0
M  V30 3445 H 324.783 -2.42228 -3.66363 0
M  V30 3446 H 325.389 -3.51349 -2.39654 0
M  V30 3447 N 323.704 0.605807 -1.45491 0
M  V30 3448 C 324.932 1.39136 -1.5313 0
M  V30 3449 C 325.347 1.88082 -0.164507 0
M  V30 3450 O 324.704 1.62316 0.834247 0
M  V30 3451 C 324.755 2.59463 -2.51716 0
M  V30 3452 O 324.476 2.12551 -3.83084 0
M  V30 3453 C 325.977 3.52301 -2.6907 0
M  V30 3454 H 323.197 0.425849 -0.51855 0
M  V30 3455 H 325.741 0.73865 -1.90694 0
M  V30 3456 H 323.896 3.20772 -2.17219 0
M  V30 3457 H 324.31 2.90744 -4.36541 0
M  V30 3458 H 325.784 4.33271 -3.42024 0
M  V30 3459 H 326.261 4.02757 -1.75167 0
M  V30 3460 H 326.867 2.96845 -3.04571 0
M  V30 3461 N 325.182 1.32811 0.848464 0
M  V30 3462 C 326.41 1.26739 1.63538 0
M  V30 3463 C 326.825 -0.163484 1.88091 0
M  V30 3464 O 326.182 -1.10258 1.45429 0
M  V30 3465 C 326.233 2.03013 2.99112 0
M  V30 3466 O 325.954 3.40518 2.75643 0
M  V30 3467 C 327.455 2.04038 3.93552 0
M  V30 3468 H 324.675 0.437024 0.509167 0
M  V30 3469 H 327.219 1.75033 1.05753 0
M  V30 3470 H 325.374 1.58426 3.53525 0
M  V30 3471 H 325.788 3.79635 3.61908 0
M  V30 3472 H 327.262 2.61877 4.85926 0
M  V30 3473 H 327.739 1.0282 4.26995 0
M  V30 3474 H 328.345 2.486 3.45077 0
M  V30 3475 N 326.66 -1.06551 1.16123 0
M  V30 3476 C 327.908 -1.78947 0.939267 0
M  V30 3477 C 328.229 -1.87532 -0.534476 0
M  V30 3478 O 327.499 -1.38211 -1.38833 0
M  V30 3479 H 326.079 -0.662807 0.344523 0
M  V30 3480 H 328.741 -1.28725 1.46342 0
M  V30 3481 H 327.837 -2.81117 1.35572 0
M  V30 3482 N 328.138 -0.959301 -1.25041 0
M  V30 3483 C 329.549 -0.65667 -1.74771 0
M  V30 3484 C 329.9 0.827852 -1.77879 0
M  V30 3485 O 329.025 1.64783 -1.40269 0
M  V30 3486 C 329.62 -1.1853 -3.1739 0
M  V30 3487 C 328.179 -0.932734 -3.6466 0
M  V30 3488 C 327.326 -1.32558 -2.43564 0
M  V30 3489 H 330.277 -1.13558 -1.10862 0
M  V30 3490 H 330.298 -0.547582 -3.76539 0
M  V30 3491 H 329.81 -2.26576 -3.15095 0
M  V30 3492 H 327.911 0.13257 -3.72364 0
M  V30 3493 H 328.024 -1.57248 -4.52559 0
M  V30 3494 H 326.388 -0.743956 -2.43593 0
M  V30 3495 H 327.171 -2.41537 -2.43957 0
M  V30 3496 N 329.616 1.39756 -0.72842 0
M  V30 3497 C 330.526 2.34444 -0.0855374 0
M  V30 3498 C 331.542 1.57976 0.729356 0
M  V30 3499 O 332.718 1.90301 0.659346 0
M  V30 3500 C 329.783 3.36965 0.815798 0
M  V30 3501 C 328.844 4.29299 -0.0105996 0
M  V30 3502 C 328.077 5.26923 0.84781 0
M  V30 3503 O 328.3 5.30859 2.08673 0
M  V30 3504 O 327.234 6.01249 0.279969 0
M  V30 3505 H 331.06 2.91065 -0.866892 0
M  V30 3506 H 328.645 1.4117 -0.48902 0
M  V30 3507 H 330.527 3.99804 1.33171 0
M  V30 3508 H 329.202 2.82739 1.57608 0
M  V30 3509 H 328.109 3.69703 -0.571877 0
M  V30 3510 H 329.442 4.86712 -0.73295 0
M  V30 3511 N 331.094 0.475555 1.50254 0
M  V30 3512 C 332.51 0.12997 1.5907 0
M  V30 3513 C 332.71 -1.36385 1.48328 0
M  V30 3514 O 331.766 -2.13754 1.34407 0
M  V30 3515 C 333.079 0.684139 2.92814 0
M  V30 3516 C 334.627 0.647965 3.0622 0
M  V30 3517 C 335.102 1.17975 4.42545 0
M  V30 3518 N 336.593 1.13936 4.48969 0
M  V30 3519 C 337.328 1.52129 5.52851 0
M  V30 3520 N 336.824 1.97793 6.63965 0
M  V30 3521 N 338.617 1.43704 5.4342 0
M  V30 3522 H 330.768 1.44706 1.55479 0
M  V30 3523 H 333.031 0.598691 0.735033 0
M  V30 3524 H 332.737 1.73079 3.06164 0
M  V30 3525 H 332.611 0.130204 3.76975 0
M  V30 3526 H 334.998 -0.38979 2.92514 0
M  V30 3527 H 335.079 1.23876 2.23805 0
M  V30 3528 H 334.723 2.21616 4.57 0
M  V30 3529 H 334.653 0.565138 5.23559 0
M  V30 3530 H 337.144 0.804488 3.69238 0
M  V30 3531 H 337.457 2.25072 7.39299 0
M  V30 3532 H 335.802 2.01749 6.65073 0
M  V30 3533 H 338.993 1.07867 4.55502 0
M  V30 3534 H 339.166 1.73794 6.24259 0
M  V30 3535 N 332.573 -1.56217 0.208337 0
M  V30 3536 C 333.503 -2.22694 -0.702116 0
M  V30 3537 C 334.484 -1.19432 -1.2112 0
M  V30 3538 O 335.669 -1.47978 -1.25762 0
M  V30 3539 C 332.799 -2.8966 -1.9161 0
M  V30 3540 C 331.753 -3.9928 -1.5414 0
M  V30 3541 C 331.079 -4.53476 -2.83308 0
M  V30 3542 C 332.379 -5.17012 -0.741339 0
M  V30 3543 H 334.073 -2.99034 -0.147898 0
M  V30 3544 H 331.619 -1.43831 -0.0696951 0
M  V30 3545 H 333.572 -3.34852 -2.55836 0
M  V30 3546 H 332.296 -2.10746 -2.49507 0
M  V30 3547 H 330.955 -3.54799 -0.922668 0
M  V30 3548 H 330.603 -3.71308 -3.39322 0
M  V30 3549 H 330.303 -5.27451 -2.58976 0
M  V30 3550 H 331.827 -5.01378 -3.485 0
M  V30 3551 H 333.241 -5.58667 -1.28699 0
M  V30 3552 H 331.638 -5.97137 -0.595627 0
M  V30 3553 H 332.708 -4.8423 0.254851 0
M  V30 3554 N 334.051 0.0651679 -1.57465 0
M  V30 3555 C 334.998 1.07675 -2.04144 0
M  V30 3556 C 335.968 1.38071 -0.923335 0
M  V30 3557 O 337.153 1.49026 -1.19146 0
M  V30 3558 C 334.293 2.38337 -2.49579 0
M  V30 3559 C 333.406 2.14413 -3.75035 0
M  V30 3560 C 332.541 3.38686 -4.09225 0
M  V30 3561 C 331.58 3.10156 -5.27702 0
M  V30 3562 N 330.717 4.26778 -5.57499 0
M  V30 3563 H 335.557 0.671716 -2.90331 0
M  V30 3564 H 333.094 0.3201 -1.43575 0
M  V30 3565 H 335.052 3.14632 -2.73975 0
M  V30 3566 H 333.682 2.7663 -1.6636 0
M  V30 3567 H 332.734 1.2878 -3.57939 0
M  V30 3568 H 334.046 1.89344 -4.61466 0
M  V30 3569 H 333.2 4.23373 -4.34558 0
M  V30 3570 H 331.939 3.66837 -3.21374 0
M  V30 3571 H 330.944 2.23866 -5.02159 0
M  V30 3572 H 332.169 2.8332 -6.17176 0
M  V30 3573 H 330.115 4.54948 -4.72608 0
M  V30 3574 H 330.032 4.05005 -6.38362 0
M  V30 3575 H 331.3 5.12443 -5.87386 0
M  V30 3576 N 335.529 1.53961 0.336706 0
M  V30 3577 C 336.777 1.71197 1.07405 0
M  V30 3578 C 337.098 0.481475 1.88962 0
M  V30 3579 O 336.368 -0.504585 1.8929 0
M  V30 3580 H 334.948 0.631185 0.399517 0
M  V30 3581 H 337.61 1.91232 0.376323 0
M  V30 3582 H 336.706 2.58587 1.74755 0
M  V30 3583 N 337.007 -0.598083 1.45811 0
M  V30 3584 C 337.937 -1.71873 1.58057 0
M  V30 3585 C 338.918 -1.64533 0.431615 0
M  V30 3586 O 340.103 -1.82787 0.65595 0
M  V30 3587 C 337.233 -3.10495 1.55597 0
M  V30 3588 C 336.187 -3.32654 2.69305 0
M  V30 3589 C 335.513 -4.71646 2.51902 0
M  V30 3590 C 336.813 -3.21981 4.11248 0
M  V30 3591 H 338.507 -1.61881 2.51863 0
M  V30 3592 H 336.053 -0.777372 1.21214 0
M  V30 3593 H 338.006 -3.88699 1.6276 0
M  V30 3594 H 336.73 -3.2135 0.583255 0
M  V30 3595 H 335.389 -2.56843 2.61586 0
M  V30 3596 H 335.037 -4.79246 1.52748 0
M  V30 3597 H 334.737 -4.87426 3.2816 0
M  V30 3598 H 336.261 -5.52038 2.60933 0
M  V30 3599 H 337.675 -3.90049 4.20161 0
M  V30 3600 H 336.072 -3.49289 4.87972 0
M  V30 3601 H 337.142 -2.1928 4.32486 0
M  V30 3602 N 338.485 -1.33259 -0.841409 0
M  V30 3603 C 339.415 -1.25926 -1.96634 0
M  V30 3604 C 340.396 -0.140349 -1.6952 0
M  V30 3605 O 341.581 -0.329707 -1.91381 0
M  V30 3606 C 338.711 -0.99512 -3.32738 0
M  V30 3607 C 337.665 -2.0767 -3.74242 0
M  V30 3608 C 336.991 -1.66474 -5.08125 0
M  V30 3609 C 338.291 -3.49318 -3.88297 0
M  V30 3610 H 339.985 -2.20046 -2.03027 0
M  V30 3611 H 337.531 -1.05931 -0.975425 0
M  V30 3612 H 339.484 -0.930323 -4.11002 0
M  V30 3613 H 338.208 -0.0183004 -3.26595 0
M  V30 3614 H 336.867 -2.13187 -2.98239 0
M  V30 3615 H 336.515 -0.675012 -4.9845 0
M  V30 3616 H 336.215 -2.3885 -5.36865 0
M  V30 3617 H 337.739 -1.61455 -5.88867 0
M  V30 3618 H 339.153 -3.46316 -4.56879 0
M  V30 3619 H 337.55 -4.20158 -4.28471 0
M  V30 3620 H 338.62 -3.8801 -2.9082 0
M  V30 3621 N 339.963 1.05934 -1.16686 0
M  V30 3622 C 341.374 1.60263 -0.957745 0
M  V30 3623 C 341.725 1.89789 0.49745 0
M  V30 3624 O 340.85 1.67401 1.37135 0
M  V30 3625 C 341.445 2.91172 -1.73218 0
M  V30 3626 C 340.004 3.42188 -1.56794 0
M  V30 3627 C 339.151 2.16028 -1.73859 0
M  V30 3628 H 342.102 0.888392 -1.31504 0
M  V30 3629 H 342.123 3.60744 -1.21014 0
M  V30 3630 H 341.635 2.6965 -2.79124 0
M  V30 3631 H 339.736 3.68762 -0.533437 0
M  V30 3632 H 339.849 4.17273 -2.35414 0
M  V30 3633 H 338.213 2.26426 -1.16633 0
M  V30 3634 H 338.996 1.96985 -2.81161 0
M  V30 3635 N 341.441 0.965919 1.2453 0
M  V30 3636 C 342.404 0.499547 2.2369 0
M  V30 3637 C 343.404 -0.40294 1.5567 0
M  V30 3638 O 344.594 -0.19865 1.73064 0
M  V30 3639 C 341.726 -0.276792 3.39774 0
M  V30 3640 H 342.919 1.37613 2.66463 0
M  V30 3641 H 340.472 0.750324 1.37112 0
M  V30 3642 H 341.207 -1.17055 3.02438 0
M  V30 3643 H 340.992 0.370826 3.90343 0
M  V30 3644 H 342.482 -0.592175 4.1338 0
M  V30 3645 N 342.919 -1.39368 0.735821 0
M  V30 3646 C 344.167 -2.00101 0.283562 0
M  V30 3647 C 344.488 -1.5868 -1.13338 0
M  V30 3648 O 343.758 -0.835423 -1.77193 0
M  V30 3649 H 342.338 -0.740024 0.101851 0
M  V30 3650 H 345 -1.70404 0.945962 0
M  V30 3651 H 344.096 -3.10323 0.332604 0
M  V30 3652 N 344.397 -0.483516 -1.5 0
M  V30 3653 C 345.625 0.0644831 -2.06799 0
M  V30 3654 C 346.04 1.32399 -1.34596 0
M  V30 3655 O 345.397 1.77626 -0.418946 0
M  V30 3656 C 345.448 0.339927 -3.59898 0
M  V30 3657 O 345.169 -0.869635 -4.29382 0
M  V30 3658 C 346.67 0.933515 -4.33359 0
M  V30 3659 H 343.89 -0.0126333 -0.670881 0
M  V30 3660 H 346.434 -0.675864 -1.93009 0
M  V30 3661 H 344.589 1.03022 -3.7345 0
M  V30 3662 H 345.003 -0.62179 -5.20801 0
M  V30 3663 H 346.477 1.07593 -5.41413 0
M  V30 3664 H 346.954 1.92685 -3.94676 0
M  V30 3665 H 347.56 0.281221 -4.24369 0
M  V30 3666 N 345.875 1.56104 -0.216619 0
M  V30 3667 C 347.121 1.98466 0.417033 0
M  V30 3668 C 347.454 1.10403 1.59765 0
M  V30 3669 O 346.729 0.160632 1.93836 0
M  V30 3670 C 347.012 3.49769 0.85637 0
M  V30 3671 C 346.865 4.48606 -0.327546 0
M  V30 3672 C 348.184 4.05339 1.7143 0
M  V30 3673 H 345.303 0.721551 0.150112 0
M  V30 3674 H 347.945 1.87423 -0.311864 0
M  V30 3675 H 346.095 3.5931 1.47745 0
M  V30 3676 H 347.767 4.5108 -0.965618 0
M  V30 3677 H 346.01 4.22682 -0.975805 0
M  V30 3678 H 346.681 5.51995 0.0227149 0
M  V30 3679 H 349.157 3.98712 1.19031 0
M  V30 3680 H 348.033 5.11533 1.99061 0
M  V30 3681 H 348.294 3.51918 2.67593 0
M  V30 3682 N 347.353 -0.0568162 1.57498 0
M  V30 3683 C 348.599 -0.75422 1.88253 0
M  V30 3684 C 348.932 -1.76461 0.810865 0
M  V30 3685 O 348.207 -1.93691 -0.177259 0
M  V30 3686 C 348.49 -1.44878 3.2967 0
M  V30 3687 C 348.343 -0.453789 4.47505 0
M  V30 3688 C 349.662 -2.38994 3.69554 0
M  V30 3689 H 346.781 -0.272724 0.684683 0
M  V30 3690 H 349.423 -0.0172113 1.89992 0
M  V30 3691 H 347.573 -2.077 3.28318 0
M  V30 3692 H 349.245 0.170371 4.60985 0
M  V30 3693 H 347.488 0.229552 4.33192 0
M  V30 3694 H 348.159 -0.977699 5.43273 0
M  V30 3695 H 350.635 -1.86239 3.72095 0
M  V30 3696 H 349.511 -2.84587 4.69363 0
M  V30 3697 H 349.772 -3.24461 3.00296 0
M  V30 3698 N 348.832 -1.54138 -0.328536 0
M  V30 3699 C 349.795 -1.82462 -1.38709 0
M  V30 3700 C 350.795 -0.696229 -1.44946 0
M  V30 3701 O 351.985 -0.964535 -1.4506 0
M  V30 3702 C 349.117 -1.98018 -2.77492 0
M  V30 3703 H 350.31 -2.77037 -1.14851 0
M  V30 3704 H 347.863 -1.45779 -0.563751 0
M  V30 3705 H 348.598 -1.05637 -3.06613 0
M  V30 3706 H 348.383 -2.80124 -2.74359 0
M  V30 3707 H 349.873 -2.21396 -3.54081 0
M  V30 3708 N 350.31 0.590341 -1.46126 0
M  V30 3709 C 351.26 1.69466 -1.5253 0
M  V30 3710 C 352.244 1.56179 -0.386917 0
M  V30 3711 O 353.436 1.65223 -0.634858 0
M  V30 3712 C 350.565 3.08245 -1.5113 0
M  V30 3713 C 349.651 3.26856 -2.70233 0
M  V30 3714 N 350.042 3.15657 -3.95214 0
M  V30 3715 C 348.34 3.57775 -2.66296 0
M  V30 3716 C 349.041 3.36066 -4.74799 0
M  V30 3717 N 348.017 3.60865 -4.06543 0
M  V30 3718 H 351.819 1.59326 -2.46966 0
M  V30 3719 H 349.333 0.79414 -1.41659 0
M  V30 3720 H 351.33 3.87492 -1.53804 0
M  V30 3721 H 349.99 3.19521 -0.577636 0
M  V30 3722 H 351.001 2.93686 -4.26578 0
M  V30 3723 H 347.678 3.75782 -1.81918 0
M  V30 3724 H 349.068 3.32655 -5.83772 0
M  V30 3725 N 351.788 1.33704 0.83433 0
M  V30 3726 C 352.735 1.24335 1.94447 0
M  V30 3727 C 353.705 0.120991 1.65659 0
M  V30 3728 O 354.89 0.300035 1.88426 0
M  V30 3729 C 352.03 0.993124 3.30501 0
M  V30 3730 C 351.143 2.20217 3.71657 0
M  V30 3731 C 350.278 1.88572 4.96602 0
M  V30 3732 C 349.317 3.05683 5.30306 0
M  V30 3733 N 348.454 2.73997 6.46429 0
M  V30 3734 H 353.294 2.1928 2.01792 0
M  V30 3735 H 350.831 1.09035 0.987404 0
M  V30 3736 H 352.789 0.828467 4.08892 0
M  V30 3737 H 351.419 0.0803902 3.227 0
M  V30 3738 H 350.471 2.47642 2.88752 0
M  V30 3739 H 351.783 3.07752 3.92543 0
M  V30 3740 H 350.937 1.68776 5.82752 0
M  V30 3741 H 349.676 0.982799 4.77695 0
M  V30 3742 H 348.681 3.26088 4.42659 0
M  V30 3743 H 349.906 3.96737 5.51159 0
M  V30 3744 H 347.852 1.86268 6.28999 0
M  V30 3745 H 347.769 3.55064 6.67432 0
M  V30 3746 H 349.037 2.57679 7.35678 0
M  V30 3747 N 353.266 -1.05314 1.17247 0
M  V30 3748 C 354.494 -1.81971 0.984593 0
M  V30 3749 C 354.909 -1.82929 -0.467166 0
M  V30 3750 O 354.266 -1.25564 -1.32438 0
M  V30 3751 C 354.317 -3.28143 1.51672 0
M  V30 3752 O 354.038 -3.27347 2.91163 0
M  V30 3753 C 355.539 -4.21493 1.37326 0
M  V30 3754 H 352.759 -0.573455 0.348411 0
M  V30 3755 H 355.303 -1.32808 1.55506 0
M  V30 3756 H 353.458 -3.74582 0.988302 0
M  V30 3757 H 353.872 -4.18824 3.15732 0
M  V30 3758 H 355.346 -5.22043 1.79375 0
M  V30 3759 H 355.823 -4.38031 0.320169 0
M  V30 3760 H 356.429 -3.80909 1.89178 0
M  V30 3761 N 354.744 -0.972509 -1.24016 0
M  V30 3762 C 355.992 -0.635776 -1.91839 0
M  V30 3763 C 356.313 0.832312 -1.76345 0
M  V30 3764 O 355.583 1.5946 -1.13795 0
M  V30 3765 H 354.163 -0.232157 -0.710009 0
M  V30 3766 H 356.825 -1.23462 -1.50809 0
M  V30 3767 H 355.921 -0.880545 -2.99421 0
M  V30 3768 N 356.222 1.38976 -0.743202 0
M  V30 3769 C 357.45 2.04636 -0.30525 0
M  V30 3770 C 357.865 1.56044 1.06281 0
M  V30 3771 O 357.222 0.728921 1.67311 0
M  V30 3772 C 357.273 3.60193 -0.307177 0
M  V30 3773 O 356.994 4.06998 -1.62124 0
M  V30 3774 C 358.495 4.4306 0.145928 0
M  V30 3775 H 355.715 0.65788 -0.132041 0
M  V30 3776 H 358.259 1.77866 -1.00915 0
M  V30 3777 H 356.414 3.85835 0.347898 0
M  V30 3778 H 356.828 5.01371 -1.54036 0
M  V30 3779 H 358.302 5.51921 0.0934183 0
M  V30 3780 H 358.779 4.22706 1.19231 0
M  V30 3781 H 359.385 4.22584 -0.479886 0
M  V30 3782 N 357.7 0.491464 1.49741 0
M  V30 3783 C 358.925 -0.0557177 2.07325 0
M  V30 3784 C 359.35 -1.30925 1.35056 0
M  V30 3785 O 358.708 -1.76733 0.404365 0
M  V30 3786 C 358.756 -0.302074 3.59333 0
M  V30 3787 O 357.86 -1.37868 3.88672 0
M  V30 3788 H 357.201 0.0219956 0.663636 0
M  V30 3789 H 359.731 0.688352 1.92673 0
M  V30 3790 H 359.741 -0.536464 4.04458 0
M  V30 3791 H 358.416 0.61383 4.11345 0
M  V30 3792 H 356.993 -1.12999 3.55367 0
M  V30 3793 N 359.178 -1.55987 0.224894 0
M  V30 3794 C 360.426 -1.97998 -0.405099 0
M  V30 3795 C 360.747 -1.11387 -1.60056 0
M  V30 3796 O 360.017 -0.191645 -1.9496 0
M  V30 3797 H 358.597 -0.731235 -0.152658 0
M  V30 3798 H 361.259 -1.92279 0.318567 0
M  V30 3799 H 360.355 -3.03463 -0.729167 0
M  V30 3800 N 360.656 0.0484629 -1.57525 0
M  V30 3801 C 361.905 0.742065 -1.87553 0
M  V30 3802 C 362.218 1.77545 -0.820802 0
M  V30 3803 O 363.424 2.52027 -1.00967 0
M  V30 3804 C 361.88 1.37081 -3.32771 0
M  V30 3805 C 361.488 0.374786 -4.4643 0
M  V30 3806 C 363.232 2.04542 -3.71972 0
M  V30 3807 C 361.139 1.01077 -5.82698 0
M  V30 3808 H 360.069 0.280903 -0.699721 0
M  V30 3809 H 362.72 -0.00411877 -1.835 0
M  V30 3810 H 361.102 2.16605 -3.31509 0
M  V30 3811 H 362.276 -0.392331 -4.59127 0
M  V30 3812 H 360.591 -0.196653 -4.15935 0
M  V30 3813 H 363.188 2.52943 -4.71088 0
M  V30 3814 H 363.531 2.85515 -3.02964 0
M  V30 3815 H 364.064 1.31819 -3.75325 0
M  V30 3816 H 360.803 0.240878 -6.55057 0
M  V30 3817 H 360.323 1.74819 -5.73758 0
M  V30 3818 H 362.002 1.52383 -6.28799 0
M  V30 3819 N 362.134 1.5431 0.320358 0
M  V30 3820 C 363.081 1.83918 1.39438 0
M  V30 3821 C 364.051 0.686525 1.51248 0
M  V30 3822 O 365.236 0.933269 1.66417 0
M  V30 3823 C 362.376 2.075 2.75749 0
M  V30 3824 C 361.489 3.35177 2.72544 0
M  V30 3825 C 360.624 3.48704 4.00723 0
M  V30 3826 C 359.663 4.70244 3.91838 0
M  V30 3827 N 358.8 4.80679 5.11754 0
M  V30 3828 H 363.64 2.75544 1.13489 0
M  V30 3829 H 361.177 1.36459 0.549309 0
M  V30 3830 H 363.135 2.19166 3.54996 0
M  V30 3831 H 361.765 1.19163 3 0
M  V30 3832 H 360.817 3.32233 1.85271 0
M  V30 3833 H 362.129 4.24534 2.61863 0
M  V30 3834 H 361.283 3.59928 4.88402 0
M  V30 3835 H 360.022 2.57445 4.14214 0
M  V30 3836 H 359.027 4.59072 3.02544 0
M  V30 3837 H 360.252 5.6289 3.7991 0
M  V30 3838 H 358.198 3.92337 5.25745 0
M  V30 3839 H 358.115 5.64007 5.0342 0
M  V30 3840 H 359.383 4.96239 6.01138 0
M  V30 3841 N 363.613 -0.582584 1.46437 0
M  V30 3842 C 364.576 -1.67366 1.56592 0
M  V30 3843 C 365.576 -1.54575 0.443072 0
M  V30 3844 O 366.766 -1.59191 0.707381 0
M  V30 3845 C 363.898 -3.06791 1.48634 0
M  V30 3846 H 365.091 -1.5972 2.5383 0
M  V30 3847 H 362.644 -0.800432 1.34249 0
M  V30 3848 H 363.379 -3.19993 0.526763 0
M  V30 3849 H 363.164 -3.17484 2.30101 0
M  V30 3850 H 364.654 -3.86218 1.58826 0
M  V30 3851 N 365.091 -1.34144 -0.827227 0
M  V30 3852 C 366.339 -1.26009 -1.58007 0
M  V30 3853 C 366.66 0.170971 -1.94249 0
M  V30 3854 O 365.93 1.10256 -1.61927 0
M  V30 3855 H 364.51 -0.463414 -0.585881 0
M  V30 3856 H 367.172 -1.68005 -0.987951 0
M  V30 3857 H 366.268 -1.86187 -2.50481 0
M  V30 3858 N 366.569 1.04691 -1.17803 0
M  V30 3859 C 367.516 2.12557 -0.899343 0
M  V30 3860 C 368.486 1.65339 0.158771 0
M  V30 3861 O 369.671 1.90789 0.0204797 0
M  V30 3862 C 366.811 3.42481 -0.424315 0
M  V30 3863 C 365.924 4.03346 -1.54713 0
M  V30 3864 C 365.059 5.21208 -1.02546 0
M  V30 3865 C 364.098 5.74089 -2.12339 0
M  V30 3866 N 363.235 6.83247 -1.61612 0
M  V30 3867 H 368.075 2.35734 -1.823 0
M  V30 3868 H 365.612 1.1564 -0.909159 0
M  V30 3869 H 367.57 4.16996 -0.130421 0
M  V30 3870 H 366.2 3.19471 0.462377 0
M  V30 3871 H 365.252 3.2622 -1.95664 0
M  V30 3872 H 366.564 4.38628 -2.37501 0
M  V30 3873 H 365.718 6.02812 -0.685718 0
M  V30 3874 H 364.457 4.87414 -0.167084 0
M  V30 3875 H 363.462 4.91111 -2.47165 0
M  V30 3876 H 364.687 6.0993 -2.98601 0
M  V30 3877 H 362.633 6.5134 -0.780533 0
M  V30 3878 H 362.55 7.17559 -2.38003 0
M  V30 3879 H 363.818 7.68491 -1.30545 0
M  V30 3880 N 368.047 0.979072 1.23499 0
M  V30 3881 C 369.275 0.665202 1.95915 0
M  V30 3882 C 369.69 -0.767571 1.72493 0
M  V30 3883 O 369.047 -1.51635 1.01554 0
M  V30 3884 C 369.098 0.944438 3.48945 0
M  V30 3885 O 368.819 2.3209 3.71572 0
M  V30 3886 C 370.32 0.646336 4.38563 0
M  V30 3887 H 367.54 0.247218 0.623798 0
M  V30 3888 H 370.084 1.31009 1.57025 0
M  V30 3889 H 368.239 0.345575 3.85856 0
M  V30 3890 H 368.653 2.40957 4.65876 0
M  V30 3891 H 370.127 0.892091 5.44744 0
M  V30 3892 H 370.604 -0.419575 4.37191 0
M  V30 3893 H 371.21 1.22562 4.07258 0
M  V30 3894 N 369.525 -1.3858 0.750561 0
M  V30 3895 C 370.488 -2.28836 0.129152 0
M  V30 3896 C 371.488 -1.47045 -0.650714 0
M  V30 3897 O 372.678 -1.6753 -0.477428 0
M  V30 3898 C 369.81 -3.30751 -0.825622 0
M  V30 3899 H 371.003 -2.85294 0.924516 0
M  V30 3900 H 368.556 -1.47489 0.517376 0
M  V30 3901 H 369.291 -2.79378 -1.64677 0
M  V30 3902 H 369.076 -3.91177 -0.268852 0
M  V30 3903 H 370.566 -3.98249 -1.2565 0
M  V30 3904 N 371.003 -0.499398 -1.49478 0
M  V30 3905 C 371.966 0.268838 -2.27618 0
M  V30 3906 C 372.966 0.895383 -1.33565 0
M  V30 3907 O 374.156 0.760164 -1.56739 0
M  V30 3908 C 371.288 1.38559 -3.11471 0
M  V30 3909 H 372.481 -0.416812 -2.96989 0
M  V30 3910 H 370.034 -0.254313 -1.54217 0
M  V30 3911 H 370.769 2.10544 -2.46661 0
M  V30 3912 H 370.554 0.941797 -3.80621 0
M  V30 3913 H 372.044 1.92678 -3.70493 0
M  V30 3914 N 372.481 1.55866 -0.233164 0
M  V30 3915 C 373.709 2.02998 0.399905 0
M  V30 3916 C 374.124 1.11274 1.52524 0
M  V30 3917 O 373.481 0.124528 1.82075 0
M  V30 3918 C 373.532 3.4958 0.920639 0
M  V30 3919 O 373.253 4.37808 -0.159834 0
M  V30 3920 C 374.754 4.12411 1.62578 0
M  V30 3921 H 371.974 0.664006 0.0966281 0
M  V30 3922 H 374.518 2.0143 -0.353013 0
M  V30 3923 H 372.673 3.51727 1.62379 0
M  V30 3924 H 373.087 5.23981 0.23337 0
M  V30 3925 H 374.561 5.16711 1.94201 0
M  V30 3926 H 375.038 3.5809 2.54299 0
M  V30 3927 H 375.644 4.14148 0.967553 0
M  V30 3928 N 373.959 -0.0401083 1.57549 0
M  V30 3929 C 374.907 -1.06264 2.06908 0
M  V30 3930 C 375.901 -1.38132 0.980608 0
M  V30 3931 O 377.107 -1.37167 1.16556 0
M  V30 3932 H 373.482 -0.360166 0.660139 0
M  V30 3933 H 375.453 -0.620445 2.91878 0
M  V30 3934 C 374.202 -2.35846 2.55483 0
M  V30 3935 H 373.525 -2.12183 3.38849 0
M  V30 3936 H 374.965 -3.05765 2.93741 0
M  V30 3937 C 373.424 -3.0404 1.45126 0
M  V30 3938 O 373.954 -3.93424 0.811216 0
M  V30 3939 N 372.16 -2.65184 1.18852 0
M  V30 3940 H 371.707 -1.92584 1.71083 0
M  V30 3941 H 371.665 -3.1113 0.452244 0
M  V30 3942 N 375.437 -1.54477 -0.31217 0
M  V30 3943 C 376.714 -1.63891 -1.06767 0
M  V30 3944 C 377.094 -0.480028 -2.0557 0
M  V30 3945 O 376.442 0.524487 -2.22399 0
M  V30 3946 C 376.652 -3.01402 -1.75948 0
M  V30 3947 C 378 -3.57838 -2.28554 0
M  V30 3948 O 379.024 -3.03782 -1.85998 0
M  V30 3949 O 377.883 -4.52462 -3.06497 0
M  V30 3950 H 374.977 -0.664125 -0.492816 0
M  V30 3951 H 377.523 -1.66823 -0.311149 0
M  V30 3952 H 376.295 -3.77187 -1.04144 0
M  V30 3953 H 375.918 -3.02199 -2.58383 0
M  V30 3954 N 376.915 0.57481 -1.46744 0
M  V30 3955 C 377.845 1.69337 -1.60771 0
M  V30 3956 C 378.826 1.63825 -0.457736 0
M  V30 3957 O 380.011 1.8172 -0.684947 0
M  V30 3958 C 377.141 3.0798 -1.60517 0
M  V30 3959 C 376.095 3.28327 -2.74564 0
M  V30 3960 C 375.421 4.67578 -2.59373 0
M  V30 3961 C 376.721 3.15398 -4.16319 0
M  V30 3962 H 378.415 1.57853 -2.54407 0
M  V30 3963 H 375.961 0.75799 -1.22436 0
M  V30 3964 H 377.914 3.86061 -1.68923 0
M  V30 3965 H 376.638 3.20381 -0.634305 0
M  V30 3966 H 375.297 2.52649 -2.65639 0
M  V30 3967 H 374.945 4.76755 -1.60353 0
M  V30 3968 H 374.645 4.82144 -3.35873 0
M  V30 3969 H 376.169 5.47817 -2.69682 0
M  V30 3970 H 377.583 3.83315 -4.26313 0
M  V30 3971 H 375.98 3.41482 -4.93468 0
M  V30 3972 H 377.05 2.12372 -4.3592 0
M  V30 3973 N 378.394 1.34581 0.820102 0
M  V30 3974 C 379.642 1.26845 1.57336 0
M  V30 3975 C 379.963 -0.160667 1.94337 0
M  V30 3976 O 379.233 -1.09396 1.6251 0
M  V30 3977 H 377.813 0.466514 0.583415 0
M  V30 3978 H 380.475 1.68526 0.979027 0
M  V30 3979 H 379.571 1.87513 2.4949 0
M  V30 3980 N 379.872 -1.04064 1.18357 0
M  V30 3981 C 381.121 -1.76662 0.973313 0
M  V30 3982 C 381.434 -1.89154 -0.497991 0
M  V30 3983 O 382.64 -2.58606 -0.826762 0
M  V30 3984 C 381.096 -3.17624 1.69242 0
M  V30 3985 C 380.704 -3.13225 3.20303 0
M  V30 3986 C 382.448 -3.946 1.56497 0
M  V30 3987 C 380.355 -4.49046 3.84853 0
M  V30 3988 H 379.285 -0.662214 0.36054 0
M  V30 3989 H 381.936 -1.16553 1.41731 0
M  V30 3990 H 380.318 -3.78129 1.1762 0
M  V30 3991 H 381.492 -2.62172 3.78949 0
M  V30 3992 H 379.807 -2.49749 3.33189 0
M  V30 3993 H 382.404 -4.95042 2.02084 0
M  V30 3994 H 382.747 -4.13074 0.517243 0
M  V30 3995 H 383.28 -3.4067 2.05399 0
M  V30 3996 H 380.019 -4.35777 4.89672 0
M  V30 3997 H 379.539 -5.00203 3.30994 0
M  V30 3998 H 381.218 -5.17961 3.87718 0
M  V30 3999 N 381.35 -0.985608 -1.22978 0
M  V30 4000 C 382.599 -0.652881 -1.90841 0
M  V30 4001 C 382.912 0.817842 -1.77681 0
M  V30 4002 O 384.118 1.26185 -2.40395 0
M  V30 4003 C 382.574 -1.11717 -3.42122 0
M  V30 4004 C 382.182 -2.6126 -3.63933 0
M  V30 4005 C 383.926 -0.85843 -4.1573 0
M  V30 4006 C 381.833 -3.0133 -5.08876 0
M  V30 4007 H 380.763 -0.240491 -0.714619 0
M  V30 4008 H 383.414 -1.1942 -1.39324 0
M  V30 4009 H 381.796 -0.504027 -3.92779 0
M  V30 4010 H 382.97 -3.27858 -3.23799 0
M  V30 4011 H 381.285 -2.84937 -3.03644 0
M  V30 4012 H 383.882 -1.13359 -5.22546 0
M  V30 4013 H 384.225 0.205461 -4.15793 0
M  V30 4014 H 384.758 -1.43341 -3.71077 0
M  V30 4015 H 381.497 -4.06864 -5.13947 0
M  V30 4016 H 381.017 -2.3943 -5.49939 0
M  V30 4017 H 382.696 -2.92224 -5.77247 0
M  V30 4018 N 382.828 1.3818 -0.7579 0
M  V30 4019 C 383.758 2.33027 -0.148597 0
M  V30 4020 C 384.739 1.55085 0.69875 0
M  V30 4021 O 385.924 1.83384 0.639053 0
M  V30 4022 C 383.054 3.3928 0.742034 0
M  V30 4023 C 382.008 4.28 -0.00291946 0
M  V30 4024 C 381.334 5.25146 1.00625 0
M  V30 4025 C 382.634 5.08938 -1.17385 0
M  V30 4026 H 384.328 2.84231 -0.940909 0
M  V30 4027 H 381.874 1.36659 -0.453908 0
M  V30 4028 H 383.827 4.046 1.17799 0
M  V30 4029 H 382.551 2.86569 1.56671 0
M  V30 4030 H 381.21 3.64192 -0.419504 0
M  V30 4031 H 380.858 4.68721 1.8251 0
M  V30 4032 H 380.558 5.85361 0.512428 0
M  V30 4033 H 382.082 5.93342 1.44143 0
M  V30 4034 H 383.496 5.67474 -0.815224 0
M  V30 4035 H 381.893 5.7841 -1.59882 0
M  V30 4036 H 382.963 4.42424 -1.98468 0
M  V30 4037 N 384.306 0.507319 1.49211 0
M  V30 4038 C 385.236 -0.256939 2.32082 0
M  V30 4039 C 386.217 -0.956609 1.40652 0
M  V30 4040 O 387.402 -0.946788 1.69557 0
M  V30 4041 C 384.532 -1.31802 3.21318 0
M  V30 4042 C 383.486 -0.737855 4.21592 0
M  V30 4043 C 382.812 -1.89992 4.99807 0
M  V30 4044 C 384.112 0.275325 5.21574 0
M  V30 4045 H 385.806 0.434798 2.96226 0
M  V30 4046 H 383.352 0.210546 1.42452 0
M  V30 4047 H 385.305 -1.86045 3.78107 0
M  V30 4048 H 384.029 -2.03903 2.5513 0
M  V30 4049 H 382.688 -0.217126 3.65956 0
M  V30 4050 H 382.336 -2.60877 4.30061 0
M  V30 4051 H 382.036 -1.51777 5.6766 0
M  V30 4052 H 383.56 -2.44657 5.59442 0
M  V30 4053 H 384.974 -0.179193 5.7302 0
M  V30 4054 H 383.371 0.573649 5.97352 0
M  V30 4055 H 384.441 1.18903 4.70096 0
M  V30 4056 N 385.784 -1.5574 0.241426 0
M  V30 4057 C 387.195 -1.84842 -0.262755 0
M  V30 4058 C 387.546 -1.16317 -1.58003 0
M  V30 4059 O 386.671 -0.439653 -2.11887 0
M  V30 4060 C 387.266 -3.35332 -0.483523 0
M  V30 4061 C 385.825 -3.6468 -0.931977 0
M  V30 4062 C 384.972 -2.77299 -0.0061151 0
M  V30 4063 H 387.923 -1.51761 0.464129 0
M  V30 4064 H 387.944 -3.56615 -1.32688 0
M  V30 4065 H 387.456 -3.85178 0.47537 0
M  V30 4066 H 385.557 -3.20307 -1.90353 0
M  V30 4067 H 385.67 -4.72498 -0.792628 0
M  V30 4068 H 384.034 -2.49408 -0.516503 0
M  V30 4069 H 384.817 -3.2995 0.948052 0
M  V30 4070 N 387.262 0.0317525 -1.57568 0
M  V30 4071 C 388.539 0.758366 -1.803 0
M  V30 4072 C 388.919 1.93718 -0.838845 0
M  V30 4073 O 388.267 2.28187 0.119571 0
M  V30 4074 C 388.477 1.19392 -3.27943 0
M  V30 4075 C 389.825 1.61094 -3.92854 0
M  V30 4076 O 390.849 1.28857 -3.32076 0
M  V30 4077 O 389.708 2.20918 -4.99858 0
M  V30 4078 H 386.802 0.366514 -0.741348 0
M  V30 4079 H 389.348 0.00873765 -1.69698 0
M  V30 4080 H 388.12 0.352275 -3.89711 0
M  V30 4081 H 387.743 2.00365 -3.43424 0
M  V30 4082 N 388.74 1.54641 0.303973 0
M  V30 4083 C 389.988 1.73437 1.0375 0
M  V30 4084 C 390.309 0.521449 1.87899 0
M  V30 4085 O 389.579 -0.46432 1.90318 0
M  V30 4086 H 388.159 0.639518 0.386039 0
M  V30 4087 H 390.821 1.91988 0.335675 0
M  V30 4088 H 389.917 2.62235 1.69231 0
M  V30 4089 N 390.218 -0.567019 1.47046 0
M  V30 4090 C 391.634 -0.891975 1.32348 0
M  V30 4091 C 391.834 -1.99154 0.306616 0
M  V30 4092 O 390.89 -2.50883 -0.28532 0
M  V30 4093 C 392.203 -1.29449 2.7141 0
M  V30 4094 C 393.751 -1.40646 2.79621 0
M  V30 4095 C 394.226 -1.84257 4.19301 0
M  V30 4096 N 395.717 -1.91424 4.21795 0
M  V30 4097 C 396.452 -2.26476 5.26779 0
M  V30 4098 N 395.948 -2.60211 6.42077 0
M  V30 4099 N 397.741 -2.27166 5.14152 0
M  V30 4100 H 389.892 0.159074 2.11803 0
M  V30 4101 H 392.155 0.00849752 0.947962 0
M  V30 4102 H 391.861 -0.560448 3.47206 0
M  V30 4103 H 391.735 -2.25273 3.02542 0
M  V30 4104 H 394.122 -2.13133 2.04104 0
M  V30 4105 H 394.203 -0.430339 2.52154 0
M  V30 4106 H 393.847 -1.12343 4.95319 0
M  V30 4107 H 393.777 -2.82855 4.44185 0
M  V30 4108 H 396.268 -1.6778 3.38612 0
M  V30 4109 H 396.581 -2.85956 7.17948 0
M  V30 4110 H 394.926 -2.57813 6.45413 0
M  V30 4111 H 398.117 -2.00244 4.23107 0
M  V30 4112 H 398.29 -2.54154 5.96079 0
M  V30 4113 N 391.696 -1.35014 -0.812953 0
M  V30 4114 C 393.107 -1.25035 -1.38648 0
M  V30 4115 C 393.458 0.119967 -1.95833 0
M  V30 4116 O 392.583 1.02069 -1.90816 0
M  V30 4117 C 393.178 -2.26394 -2.52054 0
M  V30 4118 C 391.737 -2.20175 -3.05287 0
M  V30 4119 C 390.884 -2.12451 -1.78213 0
M  V30 4120 H 393.835 -1.46235 -0.616516 0
M  V30 4121 H 393.856 -1.88672 -3.30429 0
M  V30 4122 H 393.368 -3.26116 -2.10404 0
M  V30 4123 H 391.469 -1.23841 -3.51417 0
M  V30 4124 H 391.582 -3.11863 -3.63701 0
M  V30 4125 H 389.946 -1.58328 -1.9951 0
M  V30 4126 H 390.729 -3.14024 -1.38723 0
M  V30 4127 N 393.175 1.03435 -1.18907 0
M  V30 4128 C 394.105 2.13503 -0.945448 0
M  V30 4129 C 395.086 1.69682 0.119189 0
M  V30 4130 O 396.271 1.94169 -0.034707 0
M  V30 4131 C 393.401 3.44004 -0.477316 0
M  V30 4132 C 392.355 4.0148 -1.48316 0
M  V30 4133 C 391.681 5.27537 -0.872311 0
M  V30 4134 C 392.981 4.36921 -2.86177 0
M  V30 4135 H 394.675 2.34141 -1.86597 0
M  V30 4136 H 392.221 1.12523 -0.898584 0
M  V30 4137 H 394.174 4.20372 -0.294204 0
M  V30 4138 H 392.898 3.23072 0.478786 0
M  V30 4139 H 391.557 3.27201 -1.65332 0
M  V30 4140 H 391.205 5.02917 0.0911752 0
M  V30 4141 H 390.905 5.66954 -1.54393 0
M  V30 4142 H 392.429 6.06576 -0.699871 0
M  V30 4143 H 393.843 5.04248 -2.72776 0
M  V30 4144 H 392.24 4.87405 -3.50081 0
M  V30 4145 H 393.31 3.46466 -3.39248 0
M  V30 4146 N 394.653 0.992116 1.22453 0
M  V30 4147 C 395.583 0.561677 2.26644 0
M  V30 4148 C 396.564 -0.411055 1.65059 0
M  V30 4149 O 397.749 -0.301861 1.9184 0
M  V30 4150 C 394.879 -0.125247 3.47074 0
M  V30 4151 C 393.833 0.765948 4.21091 0
M  V30 4152 C 393.159 -0.0538484 5.34673 0
M  V30 4153 C 394.459 2.06242 4.79856 0
M  V30 4154 H 396.153 1.43259 2.62902 0
M  V30 4155 H 393.699 0.690283 1.26377 0
M  V30 4156 H 395.652 -0.437764 4.1912 0
M  V30 4157 H 394.376 -1.03069 3.0991 0
M  V30 4158 H 393.035 1.0621 3.50878 0
M  V30 4159 H 392.683 -0.960188 4.9375 0
M  V30 4160 H 392.383 0.539415 5.85119 0
M  V30 4161 H 393.907 -0.360477 6.09535 0
M  V30 4162 H 395.321 1.8139 5.43848 0
M  V30 4163 H 393.718 2.60444 5.40638 0
M  V30 4164 H 394.788 2.74167 3.99951 0
M  V30 4165 N 396.131 -1.37776 0.765217 0
M  V30 4166 C 397.377 -2.00145 0.327072 0
M  V30 4167 C 397.71 -1.60607 -1.09175 0
M  V30 4168 O 396.985 -0.849127 -1.74986 0
M  V30 4169 C 397.268 -3.57109 0.46319 0
M  V30 4170 C 397.121 -4.06576 1.92395 0
M  V30 4171 C 398.44 -4.39888 -0.136473 0
M  V30 4172 H 395.559 -0.727113 0.120316 0
M  V30 4173 H 398.201 -1.63549 0.967039 0
M  V30 4174 H 396.351 -3.88414 -0.0816358 0
M  V30 4175 H 398.023 -3.85864 2.52798 0
M  V30 4176 H 396.266 -3.59011 2.43503 0
M  V30 4177 H 396.937 -5.15639 1.97028 0
M  V30 4178 H 399.413 -4.14803 0.328317 0
M  V30 4179 H 398.289 -5.48899 -0.0110582 0
M  V30 4180 H 398.55 -4.24758 -1.22608 0
M  V30 4181 N 397.609 -0.515225 -1.4894 0
M  V30 4182 C 398.572 0.244681 -2.2789 0
M  V30 4183 C 399.572 0.881166 -1.34507 0
M  V30 4184 O 400.762 0.743497 -1.57537 0
M  V30 4185 C 397.894 1.35247 -3.12923 0
M  V30 4186 H 399.087 -0.448289 -2.96531 0
M  V30 4187 H 396.64 -0.270656 -1.53939 0
M  V30 4188 H 397.375 2.07916 -2.48881 0
M  V30 4189 H 397.16 0.901374 -3.81599 0
M  V30 4190 H 398.65 1.88737 -3.72516 0
M  V30 4191 N 399.087 1.5561 -0.249682 0
M  V30 4192 C 400.333 1.99306 0.374841 0
M  V30 4193 C 400.666 1.13767 1.57387 0
M  V30 4194 O 399.941 0.201711 1.93451 0
M  V30 4195 C 400.224 3.51507 0.781986 0
M  V30 4196 C 400.077 4.4781 -0.422629 0
M  V30 4197 C 401.396 4.08884 1.62793 0
M  V30 4198 H 398.515 0.724572 0.134773 0
M  V30 4199 H 401.157 1.86719 -0.351549 0
M  V30 4200 H 399.307 3.62363 1.4009 0
M  V30 4201 H 400.979 4.48931 -1.06108 0
M  V30 4202 H 399.222 4.20518 -1.06524 0
M  V30 4203 H 399.893 5.51919 -0.0943766 0
M  V30 4204 H 402.369 4.01147 1.10547 0
M  V30 4205 H 401.245 5.1564 1.88166 0
M  V30 4206 H 401.506 3.57515 2.60068 0
M  V30 4207 N 400.565 -0.0233959 1.57583 0
M  V30 4208 C 401.812 -0.713063 1.8953 0
M  V30 4209 C 402.14 -1.75056 0.847673 0
M  V30 4210 O 401.395 -1.95119 -0.150636 0
M  V30 4211 C 401.694 -1.41428 3.28227 0
M  V30 4212 C 401.36 -0.512222 4.47981 0
M  V30 4213 C 400.022 -0.263785 4.80476 0
M  V30 4214 C 402.374 0.110248 5.21083 0
M  V30 4215 C 399.702 0.615804 5.83459 0
M  V30 4216 C 402.054 0.977573 6.25001 0
M  V30 4217 C 400.718 1.23542 6.55968 0
M  V30 4218 H 399.988 -0.260928 0.69354 0
M  V30 4219 H 402.635 0.0271047 1.91481 0
M  V30 4220 H 400.94 -2.22791 3.22291 0
M  V30 4221 H 402.637 -1.95355 3.50196 0
M  V30 4222 H 399.227 -0.716013 4.22577 0
M  V30 4223 H 403.411 -0.0687137 4.96252 0
M  V30 4224 H 398.667 0.82382 6.05824 0
M  V30 4225 H 402.841 1.46638 6.80786 0
M  V30 4226 H 400.468 1.91871 7.35588 0
M  V30 4227 N 402.043 -1.548 -0.295768 0
M  V30 4228 C 403.289 -1.74588 -1.03184 0
M  V30 4229 C 403.622 -0.532962 -1.86744 0
M  V30 4230 O 402.897 0.469872 -1.88739 0
M  V30 4231 C 403.18 -3.03791 -1.93347 0
M  V30 4232 C 403.033 -4.35392 -1.12933 0
M  V30 4233 C 404.352 -3.28892 -2.92435 0
M  V30 4234 H 401.471 -0.635221 -0.373715 0
M  V30 4235 H 404.113 -1.87519 -0.30606 0
M  V30 4236 H 402.263 -2.92898 -2.55232 0
M  V30 4237 H 403.935 -4.58211 -0.532943 0
M  V30 4238 H 402.178 -4.31642 -0.432168 0
M  V30 4239 H 402.849 -5.22074 -1.79284 0
M  V30 4240 H 405.325 -3.39429 -2.4068 0
M  V30 4241 H 404.201 -4.20603 -3.52682 0
M  V30 4242 H 404.462 -2.47437 -3.6637 0
M  V30 4243 N 403.521 0.559213 -1.47345 0
M  V30 4244 C 404.468 1.66645 -1.59682 0
M  V30 4245 C 405.438 1.60168 -0.43994 0
M  V30 4246 O 406.623 1.79031 -0.659736 0
M  V30 4247 C 403.763 3.04969 -1.61518 0
M  V30 4248 C 402.876 3.21897 -2.88108 0
M  V30 4249 C 402.011 4.50608 -2.81294 0
M  V30 4250 C 401.05 4.60961 -4.02717 0
M  V30 4251 N 400.187 5.81024 -3.94151 0
M  V30 4252 H 405.027 1.55439 -2.54249 0
M  V30 4253 H 402.564 0.757219 -1.26113 0
M  V30 4254 H 404.522 3.85064 -1.60566 0
M  V30 4255 H 403.152 3.15015 -0.704645 0
M  V30 4256 H 402.204 2.35248 -2.98936 0
M  V30 4257 H 403.516 3.25412 -3.78032 0
M  V30 4258 H 402.67 5.3896 -2.7858 0
M  V30 4259 H 401.409 4.49568 -1.89049 0
M  V30 4260 H 400.414 3.71021 -4.05738 0
M  V30 4261 H 401.639 4.63761 -4.96087 0
M  V30 4262 H 399.585 5.80938 -3.04708 0
M  V30 4263 H 399.502 5.85909 -4.77752 0
M  V30 4264 H 400.77 6.71744 -3.9545 0
M  V30 4265 N 404.999 1.35443 0.805782 0
M  V30 4266 C 406.276 1.19325 1.54987 0
M  V30 4267 C 406.656 -0.227294 2.09873 0
M  V30 4268 O 406.004 -1.2309 1.92512 0
M  V30 4269 C 406.214 2.26196 2.65775 0
M  V30 4270 C 407.562 2.62043 3.34094 0
M  V30 4271 O 408.586 2.25115 2.76046 0
M  V30 4272 O 407.445 3.25542 4.38958 0
M  V30 4273 H 404.539 0.463623 0.684823 0
M  V30 4274 H 407.085 1.47127 0.845674 0
M  V30 4275 H 405.857 3.21471 2.23096 0
M  V30 4276 H 405.48 1.99667 3.43829 0
M  V30 4277 N 406.477 -1.02803 1.19454 0
M  V30 4278 C 407.702 -1.80378 1.02364 0
M  V30 4279 C 408.127 -1.83282 -0.423007 0
M  V30 4280 O 407.485 -1.25945 -1.30413 0
M  V30 4281 C 407.533 -3.23248 1.59821 0
M  V30 4282 O 406.637 -4.04 0.828105 0
M  V30 4283 H 405.978 -0.556799 0.361761 0
M  V30 4284 H 408.508 -1.29385 1.58495 0
M  V30 4285 H 408.518 -3.73994 1.63073 0
M  V30 4286 H 407.193 -3.2045 2.65113 0
M  V30 4287 H 405.77 -3.62635 0.86891 0
M  V30 4288 N 407.956 -0.998596 -1.21925 0
M  V30 4289 C 408.919 -0.558679 -2.22287 0
M  V30 4290 C 409.919 0.361525 -1.56683 0
M  V30 4291 O 411.109 0.152695 -1.73529 0
M  V30 4292 C 408.241 0.18661 -3.40389 0
M  V30 4293 H 409.434 -1.4463 -2.62721 0
M  V30 4294 H 406.987 -0.786413 -1.35075 0
M  V30 4295 H 407.722 1.08996 -3.05435 0
M  V30 4296 H 407.507 -0.474188 -3.89222 0
M  V30 4297 H 408.997 0.482367 -4.14805 0
M  V30 4298 N 409.434 1.37368 -0.772513 0
M  V30 4299 C 410.344 2.34053 -0.160081 0
M  V30 4300 C 411.36 1.60216 0.678728 0
M  V30 4301 O 412.536 1.92303 0.59847 0
M  V30 4302 C 409.601 3.3939 0.708182 0
M  V30 4303 C 408.662 4.29048 -0.147172 0
M  V30 4304 C 407.895 5.29354 0.679744 0
M  V30 4305 O 408.118 5.3723 1.91678 0
M  V30 4306 O 407.052 6.01835 0.0885444 0
M  V30 4307 H 410.878 2.88159 -0.959053 0
M  V30 4308 H 408.463 1.39543 -0.533685 0
M  V30 4309 H 410.345 4.03839 1.20384 0
M  V30 4310 H 409.02 2.8761 1.48533 0
M  V30 4311 H 407.927 3.67697 -0.689205 0
M  V30 4312 H 409.26 4.84134 -0.887423 0
M  V30 4313 N 410.912 0.523116 1.48665 0
M  V30 4314 C 412.137 -0.0117284 2.07397 0
M  V30 4315 C 412.562 -1.28031 1.37803 0
M  V30 4316 O 411.92 -1.75836 0.441762 0
M  V30 4317 C 411.968 -0.225786 3.59892 0
M  V30 4318 O 411.072 -1.29592 3.91509 0
M  V30 4319 H 410.413 0.0360673 0.66302 0
M  V30 4320 H 412.943 0.729066 1.9117 0
M  V30 4321 H 412.953 -0.450552 4.05505 0
M  V30 4322 H 411.628 0.700944 4.09951 0
M  V30 4323 H 410.205 -1.05436 3.57684 0
M  V30 4324 N 412.39 -1.55475 0.257931 0
M  V30 4325 C 413.615 -2.04064 -0.370488 0
M  V30 4326 C 414.04 -1.13565 -1.49948 0
M  V30 4327 O 413.398 -0.130781 -1.80828 0
M  V30 4328 C 413.446 -3.50554 -0.845237 0
M  V30 4329 O 412.55 -3.63173 -1.95394 0
M  V30 4330 H 411.891 -0.659257 -0.0792243 0
M  V30 4331 H 414.421 -2.00903 0.387212 0
M  V30 4332 H 414.431 -3.91588 -1.14555 0
M  V30 4333 H 413.106 -4.15896 -0.0191259 0
M  V30 4334 H 411.683 -3.34039 -1.65748 0
M  V30 4335 N 413.868 0.0150385 -1.57593 0
M  V30 4336 C 415.284 0.370907 -1.5523 0
M  V30 4337 C 415.484 1.75735 -0.985882 0
M  V30 4338 O 414.54 2.44944 -0.613077 0
M  V30 4339 C 415.853 0.259908 -2.99575 0
M  V30 4340 C 417.401 0.335959 -3.11192 0
M  V30 4341 C 417.876 0.254253 -4.57294 0
M  V30 4342 N 419.367 0.312618 -4.62144 0
M  V30 4343 C 420.102 0.272505 -5.72752 0
M  V30 4344 N 419.598 0.183864 -6.92556 0
M  V30 4345 N 421.391 0.323267 -5.6117 0
M  V30 4346 H 413.542 -0.892104 -1.92757 0
M  V30 4347 H 415.805 -0.340563 -0.884715 0
M  V30 4348 H 415.511 -0.693403 -3.44797 0
M  V30 4349 H 415.385 1.048 -3.62349 0
M  V30 4350 H 417.772 1.27971 -2.65909 0
M  V30 4351 H 417.853 -0.481739 -2.51223 0
M  V30 4352 H 417.497 -0.685887 -5.03247 0
M  V30 4353 H 417.427 1.09024 -5.15191 0
M  V30 4354 H 419.918 0.38307 -3.75953 0
M  V30 4355 H 420.231 0.15874 -7.72637 0
M  V30 4356 H 418.576 0.149708 -6.94839 0
M  V30 4357 H 421.767 0.390607 -4.66467 0
M  V30 4358 H 421.94 0.288539 -6.47357 0
M  V30 4359 N 415.346 1.54954 0.287554 0
M  V30 4360 C 416.574 1.78881 1.03967 0
M  V30 4361 C 416.989 0.554894 1.80462 0
M  V30 4362 O 416.346 -0.475676 1.76192 0
M  V30 4363 C 416.397 3.00488 2.0097 0
M  V30 4364 O 416.118 4.19113 1.27577 0
M  V30 4365 C 417.619 3.36907 2.88112 0
M  V30 4366 H 414.839 0.596259 0.307761 0
M  V30 4367 H 417.383 2.01937 0.322749 0
M  V30 4368 H 415.538 2.79601 2.68145 0
M  V30 4369 H 415.952 4.87765 1.92835 0
M  V30 4370 H 417.426 4.25205 3.52001 0
M  V30 4371 H 417.903 2.55659 3.57121 0
M  V30 4372 H 418.509 3.60001 2.26449 0
M  V30 4373 N 416.824 -0.551391 1.4764 0
M  V30 4374 C 417.772 -1.67896 1.60978 0
M  V30 4375 C 418.766 -1.62549 0.476877 0
M  V30 4376 O 419.972 -1.67664 0.654878 0
M  V30 4377 H 416.347 -0.555649 0.506713 0
M  V30 4378 H 418.318 -1.53784 2.55721 0
M  V30 4379 C 417.067 -3.06234 1.64669 0
M  V30 4380 H 416.39 -3.11033 2.51194 0
M  V30 4381 H 417.83 -3.84804 1.7805 0
M  V30 4382 C 416.289 -3.34737 0.381115 0
M  V30 4383 O 416.819 -3.98381 -0.515297 0
M  V30 4384 N 415.025 -2.8944 0.259354 0
M  V30 4385 H 414.572 -2.37827 0.98976 0
M  V30 4386 H 414.53 -3.08882 -0.586464 0
M  V30 4387 N 418.302 -1.35869 -0.798587 0
M  V30 4388 C 419.212 -1.31578 -1.94228 0
M  V30 4389 C 420.228 -0.21939 -1.72611 0
M  V30 4390 O 421.404 -0.450167 -1.96305 0
M  V30 4391 C 418.469 -1.09528 -3.28944 0
M  V30 4392 C 417.53 -2.28556 -3.63402 0
M  V30 4393 C 416.763 -2.07549 -4.9169 0
M  V30 4394 O 416.986 -1.046 -5.60727 0
M  V30 4395 O 415.92 -2.95106 -5.24591 0
M  V30 4396 H 419.746 -2.27847 -2.00796 0
M  V30 4397 H 417.331 -1.16322 -0.937526 0
M  V30 4398 H 419.213 -0.991127 -4.09579 0
M  V30 4399 H 417.888 -0.16315 -3.23289 0
M  V30 4400 H 416.795 -2.44538 -2.83112 0
M  V30 4401 H 418.128 -3.20244 -3.73771 0
M  V30 4402 N 419.78 1.02168 -1.19998 0
M  V30 4403 C 420.743 2.08765 -0.94604 0
M  V30 4404 C 421.743 1.60618 0.0763846 0
M  V30 4405 O 422.933 1.73472 -0.159135 0
M  V30 4406 C 420.065 3.38262 -0.423255 0
M  V30 4407 H 421.258 2.32726 -1.89153 0
M  V30 4408 H 418.811 1.1889 -1.01464 0
M  V30 4409 H 419.546 3.19974 0.527938 0
M  V30 4410 H 419.331 3.74532 -1.16053 0
M  V30 4411 H 420.821 4.16759 -0.264911 0
M  V30 4412 N 421.258 1.00505 1.21394 0
M  V30 4413 C 422.507 0.683159 1.89778 0
M  V30 4414 C 422.82 -0.789471 1.7896 0
M  V30 4415 O 424.026 -1.22344 2.42372 0
M  V30 4416 C 422.482 1.17146 3.40301 0
M  V30 4417 C 422.09 2.67017 3.5973 0
M  V30 4418 C 423.834 0.924461 4.14311 0
M  V30 4419 C 421.741 3.09387 5.04017 0
M  V30 4420 H 420.671 0.25183 0.710702 0
M  V30 4421 H 423.322 1.21622 1.37406 0
M  V30 4422 H 421.704 0.566451 3.91928 0
M  V30 4423 H 422.878 3.32968 3.18542 0
M  V30 4424 H 421.193 2.89732 2.99073 0
M  V30 4425 H 423.79 1.21658 5.20676 0
M  V30 4426 H 424.133 -0.139286 4.16067 0
M  V30 4427 H 424.666 1.49226 3.6875 0
M  V30 4428 H 421.405 4.14989 5.07409 0
M  V30 4429 H 420.925 2.48149 5.46061 0
M  V30 4430 H 422.604 3.01371 5.72525 0
M  V30 4431 N 422.737 -1.36956 0.779787 0
M  V30 4432 C 423.986 -1.98738 0.344405 0
M  V30 4433 C 424.299 -1.62596 -1.08728 0
M  V30 4434 O 425.505 -2.1754 -1.62445 0
M  V30 4435 C 423.961 -3.5544 0.564829 0
M  V30 4436 C 423.569 -4.00514 2.0073 0
M  V30 4437 C 425.313 -4.24059 0.193471 0
M  V30 4438 C 423.22 -5.49957 2.17489 0
M  V30 4439 H 422.15 -0.743561 0.12503 0
M  V30 4440 H 424.801 -1.56381 0.960057 0
M  V30 4441 H 423.183 -3.95817 -0.120397 0
M  V30 4442 H 424.357 -3.71362 2.72814 0
M  V30 4443 H 422.672 -3.44703 2.336 0
M  V30 4444 H 425.269 -5.33874 0.297097 0
M  V30 4445 H 425.612 -4.07378 -0.857263 0
M  V30 4446 H 426.145 -3.89012 0.831556 0
M  V30 4447 H 422.884 -5.71574 3.2091 0
M  V30 4448 H 422.404 -5.80767 1.49899 0
M  V30 4449 H 424.083 -6.16043 1.97738 0
M  V30 4450 N 424.215 -0.530993 -1.48385 0
M  V30 4451 C 425.178 0.220497 -2.28137 0
M  V30 4452 C 426.178 0.866851 -1.35434 0
M  V30 4453 O 427.368 0.726746 -1.58316 0
M  V30 4454 C 424.5 1.31921 -3.1434 0
M  V30 4455 H 425.693 -0.479714 -2.96038 0
M  V30 4456 H 423.246 -0.286968 -1.53643 0
M  V30 4457 H 423.981 2.05264 -2.51072 0
M  V30 4458 H 423.766 0.86085 -3.82533 0
M  V30 4459 H 425.256 1.84776 -3.74497 0
M  V30 4460 N 425.693 1.55336 -0.266172 0
M  V30 4461 C 426.625 2.19544 0.658247 0
M  V30 4462 C 427.638 1.17746 1.12427 0
M  V30 4463 O 428.827 1.44517 1.04772 0
M  V30 4464 C 425.927 2.80032 1.9088 0
M  V30 4465 C 425.1 4.07436 1.59106 0
M  V30 4466 C 424.159 4.52056 2.69317 0
M  V30 4467 O 423.185 5.18023 2.35883 0
M  V30 4468 N 424.387 4.21448 3.99201 0
M  V30 4469 H 427.152 2.99503 0.108754 0
M  V30 4470 H 424.713 1.61667 -0.0869059 0
M  V30 4471 H 426.705 3.06831 2.63888 0
M  V30 4472 H 425.275 2.04119 2.36758 0
M  V30 4473 H 424.495 3.88021 0.695243 0
M  V30 4474 H 425.783 4.90462 1.35367 0
M  V30 4475 H 425.181 3.68528 4.29189 0
M  V30 4476 H 423.738 4.53039 4.68614 0
M  V30 4477 N 427.171 -0.0066808 1.57599 0
M  V30 4478 C 428.417 -0.693947 1.90558 0
M  V30 4479 C 428.75 -1.73792 0.866594 0
M  V30 4480 O 428.025 -1.94156 -0.115548 0
M  V30 4481 C 428.308 -1.34317 3.34112 0
M  V30 4482 C 428.161 -0.311189 4.48722 0
M  V30 4483 C 429.48 -2.27116 3.7697 0
M  V30 4484 H 426.599 -0.250803 0.693013 0
M  V30 4485 H 429.241 0.043242 1.89951 0
M  V30 4486 H 427.391 -1.9715 3.3476 0
M  V30 4487 H 429.063 0.316944 4.6021 0
M  V30 4488 H 427.306 0.367253 4.32243 0
M  V30 4489 H 427.977 -0.804366 5.46108 0
M  V30 4490 H 430.453 -1.74306 3.77831 0
M  V30 4491 H 429.329 -2.69511 4.78179 0
M  V30 4492 H 429.59 -3.14743 3.10466 0
M  V30 4493 N 428.649 -1.55105 -0.279332 0
M  V30 4494 C 429.612 -1.86783 -1.32834 0
M  V30 4495 C 430.612 -0.74199 -1.42657 0
M  V30 4496 O 431.802 -1.0102 -1.41918 0
M  V30 4497 C 428.934 -2.06746 -2.71052 0
M  V30 4498 H 430.127 -2.8055 -1.05979 0
M  V30 4499 H 427.68 -1.47499 -0.517087 0
M  V30 4500 H 428.415 -1.15339 -3.03097 0
M  V30 4501 H 428.2 -2.88711 -2.65309 0
M  V30 4502 H 429.69 -2.32549 -3.46858 0
M  V30 4503 N 430.127 0.543554 -1.4793 0
M  V30 4504 C 431.059 1.665 -1.57513 0
M  V30 4505 C 432.072 1.56156 -0.460333 0
M  V30 4506 O 433.261 1.62865 -0.730573 0
M  V30 4507 C 430.361 3.05063 -1.47614 0
M  V30 4508 C 429.534 3.41024 -2.739 0
M  V30 4509 C 428.593 4.58809 -2.57645 0
M  V30 4510 O 427.619 4.62707 -3.31498 0
M  V30 4511 N 428.821 5.56149 -1.66368 0
M  V30 4512 H 431.586 1.5872 -2.5422 0
M  V30 4513 H 429.147 0.730517 -1.44482 0
M  V30 4514 H 431.139 3.81712 -1.34455 0
M  V30 4515 H 429.709 3.06994 -0.589359 0
M  V30 4516 H 428.929 2.53687 -3.01723 0
M  V30 4517 H 430.217 3.61831 -3.57709 0
M  V30 4518 H 429.615 5.55767 -1.05543 0
M  V30 4519 H 428.172 6.32071 -1.59154 0
M  V30 4520 N 431.605 1.3629 0.791371 0
M  V30 4521 C 432.833 1.33562 1.58016 0
M  V30 4522 C 433.248 -0.0835616 1.88615 0
M  V30 4523 O 432.605 -1.0399 1.49974 0
M  V30 4524 C 432.656 2.15517 2.90232 0
M  V30 4525 O 432.377 3.51902 2.60953 0
M  V30 4526 C 433.878 2.20546 3.84544 0
M  V30 4527 H 431.098 0.458226 0.490173 0
M  V30 4528 H 433.642 1.79361 0.982345 0
M  V30 4529 H 431.797 1.73278 3.46487 0
M  V30 4530 H 432.211 3.94644 3.4548 0
M  V30 4531 H 433.685 2.82252 4.74382 0
M  V30 4532 H 434.162 1.20838 4.2225 0
M  V30 4533 H 434.768 2.63013 3.34222 0
M  V30 4534 N 433.083 -1.0153 1.20538 0
M  V30 4535 C 434.046 -2.0826 0.957098 0
M  V30 4536 C 435.046 -1.60657 -0.0678655 0
M  V30 4537 O 436.236 -1.73385 0.168332 0
M  V30 4538 C 433.368 -3.38033 0.441188 0
M  V30 4539 H 434.561 -2.31719 1.90384 0
M  V30 4540 H 432.114 -1.1835 1.02093 0
M  V30 4541 H 432.849 -3.20249 -0.510961 0
M  V30 4542 H 432.634 -3.73911 1.18038 0
M  V30 4543 H 434.124 -4.16613 0.287009 0
M  V30 4544 N 434.561 -1.01147 -1.20859 0
M  V30 4545 C 435.791 -0.715872 -1.93801 0
M  V30 4546 C 436.199 0.726592 -1.74692 0
M  V30 4547 O 435.542 1.50397 -1.05482 0
M  V30 4548 C 435.604 -0.965269 -3.46299 0
M  V30 4549 C 435.268 -2.39584 -3.89164 0
M  V30 4550 C 436.265 -3.3764 -3.95342 0
M  V30 4551 C 433.95 -2.73522 -4.21297 0
M  V30 4552 C 435.944 -4.67698 -4.33056 0
M  V30 4553 C 433.631 -4.03794 -4.58687 0
M  V30 4554 C 434.629 -5.00693 -4.64538 0
M  V30 4555 O 434.317 -6.28635 -5.01072 0
M  V30 4556 H 434.049 -0.262524 -0.622942 0
M  V30 4557 H 436.603 -1.35413 -1.54443 0
M  V30 4558 H 434.833 -0.269847 -3.85757 0
M  V30 4559 H 436.522 -0.662051 -4.00464 0
M  V30 4560 H 437.288 -3.12757 -3.70686 0
M  V30 4561 H 433.167 -1.9879 -4.15937 0
M  V30 4562 H 436.711 -5.4333 -4.37537 0
M  V30 4563 H 432.608 -4.28459 -4.82797 0
M  V30 4564 H 433.376 -6.32847 -5.19083 0
M  V30 4565 N 436.039 1.36541 -0.78704 0
M  V30 4566 C 436.971 2.28761 -0.141773 0
M  V30 4567 C 437.984 1.49365 0.647599 0
M  V30 4568 O 439.173 1.71836 0.483173 0
M  V30 4569 C 436.273 3.28771 0.822368 0
M  V30 4570 C 435.446 4.3732 0.0835594 0
M  V30 4571 C 434.505 5.17307 0.963296 0
M  V30 4572 O 433.531 5.67638 0.421419 0
M  V30 4573 N 434.733 5.33515 2.28784 0
M  V30 4574 H 437.498 2.84777 -0.933919 0
M  V30 4575 H 435.059 1.48682 -0.640735 0
M  V30 4576 H 437.051 3.79169 1.41468 0
M  V30 4577 H 435.621 2.73412 1.5154 0
M  V30 4578 H 434.841 3.88118 -0.689809 0
M  V30 4579 H 436.129 5.0701 -0.426358 0
M  V30 4580 H 435.527 4.94234 2.75226 0
M  V30 4581 H 434.084 5.87165 2.82985 0
M  V30 4582 N 437.518 0.538854 1.48102 0
M  V30 4583 C 438.765 0.0080018 2.02498 0
M  V30 4584 C 439.093 -1.33437 1.41509 0
M  V30 4585 O 438.348 -1.87709 0.553507 0
M  V30 4586 C 438.647 -0.153808 3.57069 0
M  V30 4587 C 438.313 1.11533 4.36888 0
M  V30 4588 C 436.975 1.46314 4.58417 0
M  V30 4589 C 439.327 1.95718 4.83057 0
M  V30 4590 C 436.655 2.6516 5.23361 0
M  V30 4591 C 439.007 3.13751 5.49312 0
M  V30 4592 C 437.671 3.48866 5.69077 0
M  V30 4593 H 436.941 0.00292807 0.740994 0
M  V30 4594 H 439.588 0.706668 1.77984 0
M  V30 4595 H 437.893 -0.935309 3.80472 0
M  V30 4596 H 439.59 -0.579607 3.96789 0
M  V30 4597 H 436.18 0.834484 4.20398 0
M  V30 4598 H 440.364 1.70158 4.66219 0
M  V30 4599 H 435.62 2.92558 5.36861 0
M  V30 4600 H 439.794 3.79282 5.84053 0
M  V30 4601 H 437.421 4.41054 6.19173 0
M  V30 4602 N 438.996 -1.55193 0.274407 0
M  V30 4603 C 439.906 -2.26164 -0.623473 0
M  V30 4604 C 440.922 -1.28729 -1.17068 0
M  V30 4605 O 442.098 -1.61663 -1.20112 0
M  V30 4606 C 439.163 -2.96833 -1.7914 0
M  V30 4607 C 438.224 -4.09745 -1.28093 0
M  V30 4608 C 437.457 -4.77034 -2.3932 0
M  V30 4609 O 437.68 -4.4353 -3.5866 0
M  V30 4610 O 436.614 -5.64996 -2.07516 0
M  V30 4611 H 440.44 -3.03661 -0.0485661 0
M  V30 4612 H 438.025 -1.49341 0.0418382 0
M  V30 4613 H 439.907 -3.41248 -2.4724 0
M  V30 4614 H 438.582 -2.22253 -2.35341 0
M  V30 4615 H 437.489 -3.69787 -0.566416 0
M  V30 4616 H 438.822 -4.86224 -0.764683 0
M  V30 4617 N 440.474 -0.00167713 -1.576 0
M  V30 4618 C 441.404 0.988091 -2.11563 0
M  V30 4619 C 442.385 1.35736 -1.02517 0
M  V30 4620 O 443.57 1.44082 -1.30208 0
M  V30 4621 C 440.7 2.27941 -2.62031 0
M  V30 4622 C 439.654 2.0517 -3.75619 0
M  V30 4623 C 438.98 3.4033 -4.12407 0
M  V30 4624 C 440.28 1.41294 -5.02825 0
M  V30 4625 H 441.974 0.538771 -2.94513 0
M  V30 4626 H 439.52 0.257712 -1.41675 0
M  V30 4627 H 441.473 2.97539 -2.9841 0
M  V30 4628 H 440.197 2.74989 -1.76205 0
M  V30 4629 H 438.856 1.37998 -3.39635 0
M  V30 4630 H 438.504 3.85085 -3.23603 0
M  V30 4631 H 438.204 3.25909 -4.88935 0
M  V30 4632 H 439.728 4.1124 -4.51347 0
M  V30 4633 H 441.142 2.00851 -5.36965 0
M  V30 4634 H 439.539 1.37356 -5.84169 0
M  V30 4635 H 440.609 0.382362 -4.8339 0
M  V30 4636 N 441.952 1.55251 0.271103 0
M  V30 4637 C 442.899 1.88261 1.33516 0
M  V30 4638 C 443.869 0.734296 1.48988 0
M  V30 4639 O 445.054 0.985741 1.63364 0
M  V30 4640 C 442.194 2.16168 2.69008 0
M  V30 4641 C 441.307 3.43678 2.61743 0
M  V30 4642 C 440.442 3.61276 3.89427 0
M  V30 4643 C 439.481 4.82472 3.7668 0
M  V30 4644 N 438.618 4.96717 4.96202 0
M  V30 4645 H 443.458 2.79015 1.04665 0
M  V30 4646 H 440.995 1.38137 0.505618 0
M  V30 4647 H 442.953 2.30349 3.47844 0
M  V30 4648 H 441.583 1.28646 2.96057 0
M  V30 4649 H 440.635 3.37959 1.74607 0
M  V30 4650 H 441.947 4.3265 2.48224 0
M  V30 4651 H 441.101 3.75284 4.76704 0
M  V30 4652 H 439.84 2.70492 4.05814 0
M  V30 4653 H 438.845 4.68465 2.87786 0
M  V30 4654 H 440.07 5.74692 3.61809 0
M  V30 4655 H 438.016 4.08865 5.12997 0
M  V30 4656 H 437.933 5.79738 4.85222 0
M  V30 4657 H 439.201 5.15113 5.85046 0
M  V30 4658 N 443.43 -0.535701 1.48216 0
M  V30 4659 C 444.377 -1.64083 1.62312 0
M  V30 4660 C 445.347 -1.59448 0.465365 0
M  V30 4661 O 446.532 -1.77959 0.688135 0
M  V30 4662 C 443.672 -3.0236 1.66349 0
M  V30 4663 C 442.785 -3.17273 2.93193 0
M  V30 4664 C 441.92 -4.46075 2.88427 0
M  V30 4665 C 440.959 -4.54496 4.1 0
M  V30 4666 N 440.096 -5.7468 4.03345 0
M  V30 4667 H 444.936 -1.51374 2.5669 0
M  V30 4668 H 442.473 -0.737059 1.27302 0
M  V30 4669 H 444.431 -3.82461 1.66672 0
M  V30 4670 H 443.061 -3.13854 0.754672 0
M  V30 4671 H 442.113 -2.30462 3.02641 0
M  V30 4672 H 443.425 -3.19357 3.83162 0
M  V30 4673 H 442.579 -5.3446 2.87119 0
M  V30 4674 H 441.318 -4.46504 1.96177 0
M  V30 4675 H 440.323 -3.64519 4.11589 0
M  V30 4676 H 441.548 -4.5581 5.03402 0
M  V30 4677 H 439.494 -5.76017 3.13912 0
M  V30 4678 H 439.411 -5.78234 4.87013 0
M  V30 4679 H 440.679 -6.65367 4.06087 0
M  V30 4680 N 444.908 -1.36708 -0.784132 0
M  V30 4681 C 445.838 -1.34153 -1.91116 0
M  V30 4682 C 446.819 -0.212121 -1.68772 0
M  V30 4683 O 448.004 -0.410581 -1.8981 0
M  V30 4684 C 445.134 -1.13535 -3.28218 0
M  V30 4685 C 444.088 -2.23356 -3.65097 0
M  V30 4686 C 443.414 -1.87875 -5.00607 0
M  V30 4687 C 444.714 -3.65473 -3.73131 0
M  V30 4688 H 446.408 -2.28459 -1.93512 0
M  V30 4689 H 443.954 -1.09973 -0.929618 0
M  V30 4690 H 445.907 -1.10381 -4.06687 0
M  V30 4691 H 444.631 -0.156804 -3.26223 0
M  V30 4692 H 443.29 -2.25645 -2.88929 0
M  V30 4693 H 442.938 -0.885814 -4.95139 0
M  V30 4694 H 442.638 -2.61406 -5.26252 0
M  V30 4695 H 444.162 -1.86286 -5.81489 0
M  V30 4696 H 445.576 -3.65382 -4.41779 0
M  V30 4697 H 443.973 -4.37953 -4.10265 0
M  V30 4698 H 445.043 -3.99995 -2.74102 0
M  V30 4699 N 446.386 1.0089 -1.21074 0
M  V30 4700 C 447.611 1.78727 -1.05221 0
M  V30 4701 C 448.036 1.83932 0.393795 0
M  V30 4702 O 447.394 1.28004 1.28393 0
M  V30 4703 C 447.442 3.20665 -1.64944 0
M  V30 4704 O 446.546 4.02632 -0.892273 0
M  V30 4705 H 445.887 0.550973 -0.370574 0
M  V30 4706 H 448.417 1.26847 -1.60534 0
M  V30 4707 H 448.427 3.71352 -1.69002 0
M  V30 4708 H 447.102 3.16191 -2.70177 0
M  V30 4709 H 445.679 3.61207 -0.926492 0
M  V30 4710 N 447.864 1.01787 1.20321 0
M  V30 4711 C 448.827 0.593972 2.2137 0
M  V30 4712 C 449.827 -0.336553 1.57239 0
M  V30 4713 O 451.017 -0.125069 1.7375 0
M  V30 4714 C 448.149 -0.132433 3.40643 0
M  V30 4715 H 449.342 1.48791 2.60387 0
M  V30 4716 H 446.895 0.807803 1.33807 0
M  V30 4717 H 447.63 -1.04123 3.0713 0
M  V30 4718 H 447.415 0.53605 3.88418 0
M  V30 4719 H 448.905 -0.416314 4.1552 0
M  V30 4720 N 449.342 -1.36122 0.79427 0
M  V30 4721 C 450.272 -2.32551 0.210328 0
M  V30 4722 C 451.253 -1.56884 -0.657386 0
M  V30 4723 O 452.438 -1.85014 -0.590207 0
M  V30 4724 C 449.568 -3.41128 -0.651819 0
M  V30 4725 C 448.522 -4.27842 0.116395 0
M  V30 4726 C 447.848 -5.2763 -0.86666 0
M  V30 4727 C 449.148 -5.05647 1.30837 0
M  V30 4728 H 450.842 -2.81636 1.01594 0
M  V30 4729 H 448.388 -1.35407 0.489981 0
M  V30 4730 H 450.341 -4.07581 -1.07031 0
M  V30 4731 H 449.065 -2.90622 -1.49019 0
M  V30 4732 H 447.724 -3.62952 0.515915 0
M  V30 4733 H 447.372 -4.73395 -1.70019 0
M  V30 4734 H 447.072 -5.86514 -0.35705 0
M  V30 4735 H 448.596 -5.96955 -1.28361 0
M  V30 4736 H 450.01 -5.65113 0.965393 0
M  V30 4737 H 448.407 -5.73967 1.75161 0
M  V30 4738 H 449.477 -4.37006 2.10128 0
M  V30 4739 N 450.82 -0.546701 -1.47814 0
M  V30 4740 C 452.045 -0.021268 -2.07389 0
M  V30 4741 C 452.47 1.25822 -1.39822 0
M  V30 4742 O 451.828 1.75111 -0.46968 0
M  V30 4743 C 451.876 0.168502 -3.60206 0
M  V30 4744 O 450.98 1.23347 -3.93522 0
M  V30 4745 H 450.321 -0.0466108 -0.662362 0
M  V30 4746 H 452.851 -0.759387 -1.89985 0
M  V30 4747 H 452.861 0.385982 -4.0617 0
M  V30 4748 H 451.536 -0.766075 -4.08784 0
M  V30 4749 H 450.113 0.997319 -3.59316 0
M  V30 4750 N 452.299 1.55045 -0.282633 0
M  V30 4751 C 453.71 1.85473 0.213655 0
M  V30 4752 C 454.061 1.20465 1.54863 0
M  V30 4753 O 453.186 0.495676 2.10647 0
M  V30 4754 C 453.781 3.36496 0.394445 0
M  V30 4755 C 452.34 3.67022 0.834961 0
M  V30 4756 C 451.487 2.77218 -0.0674081 0
M  V30 4757 H 454.438 1.50478 -0.504202 0
M  V30 4758 H 454.459 3.60007 1.23186 0
M  V30 4759 H 453.971 3.83782 -0.577326 0
M  V30 4760 H 452.072 3.25241 1.81794 0
M  V30 4761 H 452.185 4.74433 0.667075 0
M  V30 4762 H 450.549 2.5069 0.450196 0
M  V30 4763 H 451.332 3.2732 -1.0352 0
M  V30 4764 N 453.777 0.010035 1.57597 0
M  V30 4765 C 454.725 -0.996272 2.10184 0
M  V30 4766 C 455.719 -1.34942 1.02406 0
M  V30 4767 O 456.925 -1.33389 1.20861 0
M  V30 4768 H 453.3 -0.338982 0.671264 0
M  V30 4769 H 455.271 -0.527272 2.93705 0
M  V30 4770 C 454.02 -2.27599 2.62857 0
M  V30 4771 H 453.343 -2.01295 3.45428 0
M  V30 4772 H 454.783 -2.96265 3.0332 0
M  V30 4773 C 453.242 -2.99269 1.54725 0
M  V30 4774 O 453.772 -3.90644 0.93597 0
M  V30 4775 N 451.978 -2.61269 1.27228 0
M  V30 4776 H 451.525 -1.87043 1.77123 0
M  V30 4777 H 451.483 -3.09534 0.550999 0
M  V30 4778 O 455.294 -1.6096 -0.132018 0
M  V30 4779 H 455.985 -1.77966 -0.764703 0
M  V30 END ATOM
M  V30 BEGIN BOND
M  V30 END BOND
M  V30 END CTAB
M  END
$$$$
