drugbank_target|F5GY58 Sn1-specific diacylglycerol lipase alpha (DB14050)
 OpenBabel12092121093D

  0  0  0     0  0            999 V3000
M  V30 BEGIN CTAB
M  V30 COUNTS 2658 2700 0 0 0
M  V30 BEGIN ATOM
M  V30 1 H -0.908 1.98254 -0.117106 0
M  V30 2 N 0 1.576 0 0
M  V30 3 C 0.933 2.03868 1.02534 0
M  V30 4 C 1.911 0.928543 1.3348 0
M  V30 5 O 3.095 1.19667 1.45644 0
M  V30 6 C 0.222 2.43627 2.35294 0
M  V30 7 C -0.732 3.65373 2.2001 0
M  V30 8 S 0.101 5.13292 1.52614 0
M  V30 9 C 1.257 5.56322 2.86805 0
M  V30 10 H 1.49 2.90518 0.631377 0
M  V30 11 H -0.977 1.52953 0.210867 0
M  V30 12 H 0.981 2.67203 3.11629 0
M  V30 13 H -0.358 1.57376 2.7183 0
M  V30 14 H -1.165 3.90944 3.18086 0
M  V30 15 H -1.563 3.418 1.51819 0
M  V30 16 H 0.729 5.58782 3.83104 0
M  V30 17 H 1.672 6.56266 2.65933 0
M  V30 18 H 2.08 4.83886 2.90714 0
M  V30 19 N 1.4781 -0.272755 1.55222 0
M  V30 20 C 2.8891 -0.84378 1.66545 0
M  V30 21 C 3.2401 -1.87035 0.592641 0
M  V30 22 O 2.3651 -2.14761 -0.265818 0
M  V30 23 C 2.9601 -1.53723 3.01918 0
M  V30 24 C 1.5191 -2.05628 3.15268 0
M  V30 25 C 0.6661 -0.898424 2.62343 0
M  V30 26 H 3.6171 -0.0490998 1.58624 0
M  V30 27 H 3.6381 -2.40421 2.94921 0
M  V30 28 H 3.1501 -0.78983 3.79978 0
M  V30 29 H 1.2511 -2.83329 2.41983 0
M  V30 30 H 1.3641 -2.27142 4.21833 0
M  V30 31 H -0.2719 -1.29186 2.19506 0
M  V30 32 H 0.5111 -0.164528 3.42906 0
M  V30 33 N 2.9562 -1.48159 -0.537278 0
M  V30 34 C 4.2042 -1.55497 -1.29094 0
M  V30 35 C 4.5252 -0.227454 -1.93669 0
M  V30 36 O 3.7952 0.750386 -1.80959 0
M  V30 37 H 2.3752 -0.572832 -0.47945 0
M  V30 38 H 5.0372 -1.84579 -0.625818 0
M  V30 39 H 4.1332 -2.33216 -2.07405 0
M  V30 40 N 4.4343 0.785586 -1.36625 0
M  V30 41 C 5.6833 1.53883 -1.30396 0
M  V30 42 C 5.9963 1.95271 0.113452 0
M  V30 43 O 7.2023 2.69858 0.298142 0
M  V30 44 C 5.6583 2.77808 -2.28802 0
M  V30 45 C 5.2663 2.43574 -3.75999 0
M  V30 46 C 7.0103 3.55783 -2.31558 0
M  V30 47 C 4.9173 3.63919 -4.66173 0
M  V30 48 H 3.8473 0.577678 -0.484566 0
M  V30 49 H 6.4983 0.861705 -1.62009 0
M  V30 50 H 4.8803 3.47339 -1.90188 0
M  V30 51 H 6.0543 1.81916 -4.23371 0
M  V30 52 H 4.3693 1.78803 -3.76056 0
M  V30 53 H 6.9663 4.45205 -2.96137 0
M  V30 54 H 7.3093 3.94644 -1.3252 0
M  V30 55 H 7.8423 2.93235 -2.68809 0
M  V30 56 H 4.5813 3.3015 -5.66287 0
M  V30 57 H 4.1013 4.2473 -4.23515 0
M  V30 58 H 5.7803 4.30901 -4.82632 0
M  V30 59 N 5.9124 1.20967 1.01018 0
M  V30 60 C 7.1584 1.02526 1.74975 0
M  V30 61 C 7.4914 -0.4408 1.89131 0
M  V30 62 O 6.7664 -1.32718 1.42184 0
M  V30 63 C 7.0494 1.71699 3.1653 0
M  V30 64 C 6.9024 3.25791 3.10129 0
M  V30 65 C 8.2214 1.45531 4.15342 0
M  V30 66 H 5.3404 0.373863 0.635134 0
M  V30 67 H 7.9824 1.49071 1.17805 0
M  V30 68 H 6.1324 1.32128 3.65341 0
M  V30 69 H 7.8044 3.74697 2.69072 0
M  V30 70 H 6.0474 3.56363 2.47362 0
M  V30 71 H 6.7184 3.69353 4.10222 0
M  V30 72 H 9.1944 1.79872 3.75213 0
M  V30 73 H 8.0704 1.96453 5.1254 0
M  V30 74 H 8.3314 0.384237 4.40427 0
M  V30 75 N 7.3905 -1.2043 1.01659 0
M  V30 76 C 8.6365 -1.90079 0.706963 0
M  V30 77 C 8.9695 -1.78648 -0.761474 0
M  V30 78 O 8.2445 -1.17069 -1.55323 0
M  V30 79 C 8.5275 -3.41469 1.14327 0
M  V30 80 C 8.3805 -3.61833 2.67201 0
M  V30 81 C 9.6995 -4.34261 0.714529 0
M  V30 82 H 6.8185 -0.690254 0.2583 0
M  V30 83 H 9.4605 -1.41826 1.26433 0
M  V30 84 H 7.6105 -3.82696 0.669056 0
M  V30 85 H 9.2825 -3.2986 3.22475 0
M  V30 86 H 7.5255 -3.05304 3.08175 0
M  V30 87 H 8.1965 -4.67955 2.92783 0
M  V30 88 H 10.6725 -4.00682 1.12221 0
M  V30 89 H 9.5485 -5.38806 1.04784 0
M  V30 90 H 9.8095 -4.40431 -0.383799 0
M  V30 91 N 8.8686 -0.792821 -1.36206 0
M  V30 92 C 10.1156 -0.366786 -1.99151 0
M  V30 93 C 10.4436 1.06243 -1.62919 0
M  V30 94 O 9.6986 1.74927 -0.877442 0
M  V30 95 C 9.9976 -0.481501 -3.54142 0
M  V30 96 C 9.6636 -1.87202 -4.10203 0
M  V30 97 C 8.3256 -2.25248 -4.25226 0
M  V30 98 C 10.6776 -2.78237 -4.40719 0
M  V30 99 C 8.0056 -3.53723 -4.68078 0
M  V30 100 C 10.3576 -4.06144 -4.85005 0
M  V30 101 C 9.0216 -4.44207 -4.98234 0
M  V30 102 H 8.2916 -0.134217 -0.728743 0
M  V30 103 H 10.9386 -1.01094 -1.62641 0
M  V30 104 H 9.2436 0.246146 -3.91026 0
M  V30 105 H 10.9406 -0.132844 -4.0078 0
M  V30 106 H 7.5306 -1.56639 -3.98951 0
M  V30 107 H 11.7146 -2.50097 -4.28679 0
M  V30 108 H 6.9706 -3.8308 -4.76508 0
M  V30 109 H 11.1446 -4.76796 -5.07581 0
M  V30 110 H 8.7716 -5.43814 -5.31197 0
M  V30 111 N 10.3467 1.47872 -0.545128 0
M  V30 112 C 11.7627 1.5829 -0.204032 0
M  V30 113 C 11.9627 1.54529 1.29317 0
M  V30 114 O 11.0187 1.44232 2.07252 0
M  V30 115 C 12.3317 2.89304 -0.819987 0
M  V30 116 C 13.8797 3.02864 -0.790105 0
M  V30 117 C 14.3547 4.3656 -1.38491 0
M  V30 118 N 15.8457 4.43165 -1.34755 0
M  V30 119 C 16.5807 5.45153 -1.77753 0
M  V30 120 N 16.0767 6.54016 -2.2855 0
M  V30 121 N 17.8697 5.36125 -1.68897 0
M  V30 122 H 10.0207 1.4856 -1.51802 0
M  V30 123 H 12.2837 0.706305 -0.632327 0
M  V30 124 H 11.9897 2.97757 -1.87173 0
M  V30 125 H 11.8637 3.75957 -0.305915 0
M  V30 126 H 14.2507 2.94014 0.252913 0
M  V30 127 H 14.3317 2.17782 -1.34181 0
M  V30 128 H 13.9757 4.46164 -2.42693 0
M  V30 129 H 13.9057 5.20353 -0.808754 0
M  V30 130 H 16.3967 3.65083 -0.975855 0
M  V30 131 H 16.7097 7.27994 -2.59314 0
M  V30 132 H 15.0547 6.54938 -2.32553 0
M  V30 133 H 18.2457 4.49975 -1.28998 0
M  V30 134 H 18.4187 6.15472 -2.02726 0
M  V30 135 N 11.8248 0.280983 1.55075 0
M  V30 136 C 13.2408 -0.0729964 1.59433 0
M  V30 137 C 13.4408 -1.5411 1.29817 0
M  V30 138 O 12.4968 -2.29086 1.06187 0
M  V30 139 C 13.8098 0.306921 2.9913 0
M  V30 140 C 15.3578 0.254023 3.11968 0
M  V30 141 C 15.8328 0.608467 4.5394 0
M  V30 142 N 17.3238 0.560241 4.59799 0
M  V30 143 C 18.0588 0.80722 5.6769 0
M  V30 144 N 17.5548 1.11912 6.83701 0
M  V30 145 N 19.3478 0.735623 5.57266 0
M  V30 146 H 11.4988 1.238 1.7259 0
M  V30 147 H 13.7618 0.500547 0.805082 0
M  V30 148 H 13.4678 1.32816 3.25657 0
M  V30 149 H 13.3418 -0.349363 3.75579 0
M  V30 150 H 15.7288 -0.75794 2.852 0
M  V30 151 H 15.8098 0.944649 2.37718 0
M  V30 152 H 15.4538 1.61814 4.81434 0
M  V30 153 H 15.3838 -0.104013 5.26497 0
M  V30 154 H 17.8748 0.329288 3.76463 0
M  V30 155 H 18.1878 1.29409 7.61888 0
M  V30 156 H 16.5328 1.15695 6.85303 0
M  V30 157 H 19.7238 0.491752 4.6551 0
M  V30 158 H 19.8968 0.931482 6.4127 0
M  V30 159 N 13.3029 -1.57598 0.00835791 0
M  V30 160 C 14.7189 -1.55764 -0.347822 0
M  V30 161 C 14.9189 -1.01186 -1.74252 0
M  V30 162 O 13.9749 -0.649371 -2.44007 0
M  V30 163 C 15.2879 -2.99927 -0.215407 0
M  V30 164 C 16.8359 -3.11656 -0.289725 0
M  V30 165 C 17.3109 -4.57621 -0.18634 0
M  V30 166 N 18.8019 -4.62557 -0.243978 0
M  V30 167 C 19.5369 -5.73094 -0.18745 0
M  V30 168 N 19.0329 -6.92753 -0.0810331 0
M  V30 169 N 20.8259 -5.61588 -0.239925 0
M  V30 170 H 12.9769 -1.91411 0.92062 0
M  V30 171 H 15.2399 -0.879562 0.353659 0
M  V30 172 H 14.9459 -3.43729 0.744512 0
M  V30 173 H 14.8199 -3.63865 -0.994097 0
M  V30 174 H 17.2069 -2.67779 -1.24009 0
M  V30 175 H 17.2879 -2.5048 0.51898 0
M  V30 176 H 16.9319 -5.02174 0.760519 0
M  V30 177 H 16.8619 -5.16752 -1.01364 0
M  V30 178 H 19.3529 -3.76481 -0.327217 0
M  V30 179 H 19.6659 -7.72787 -0.0440241 0
M  V30 180 H 18.0109 -6.94984 -0.0465419 0
M  V30 181 H 21.2019 -4.66996 -0.321317 0
M  V30 182 H 21.3749 -6.47714 -0.192407 0
M  V30 183 N 14.781 0.264519 -1.55364 0
M  V30 184 C 16.027 0.992314 -1.77552 0
M  V30 185 C 16.382 1.83626 -0.574379 0
M  V30 186 O 15.675 1.86648 0.432782 0
M  V30 187 C 15.869 1.9004 -3.02687 0
M  V30 188 C 15.698 1.14583 -4.34857 0
M  V30 189 C 14.468 0.858068 -4.97961 0
M  V30 190 C 16.666 0.532069 -5.1154 0
M  V30 191 N 14.648 0.0775974 -6.13851 0
M  V30 192 C 16.019 -0.113823 -6.19896 0
M  V30 193 C 18.074 0.440763 -4.95945 0
M  V30 194 C 16.777 -0.842231 -7.14352 0
M  V30 195 C 18.803 -0.274072 -5.90765 0
M  V30 196 C 18.165 -0.90867 -6.98515 0
M  V30 197 H 14.264 0.344811 -0.701875 0
M  V30 198 H 16.848 0.267141 -1.92859 0
M  V30 199 H 15.019 2.59775 -2.88741 0
M  V30 200 H 16.751 2.56243 -3.13243 0
M  V30 201 H 13.506 1.16547 -4.59036 0
M  V30 202 H 13.93 -0.300216 -6.76334 0
M  V30 203 H 18.572 0.917064 -4.12735 0
M  V30 204 H 16.29 -1.33019 -7.97077 0
M  V30 205 H 19.876 -0.345151 -5.80775 0
M  V30 206 H 18.756 -1.45299 -7.70622 0
M  V30 207 N 16.2591 1.48442 0.529413 0
M  V30 208 C 17.4841 1.60406 1.31471 0
M  V30 209 C 17.9091 0.264738 1.86228 0
M  V30 210 O 17.2671 -0.763668 1.64432 0
M  V30 211 C 17.3151 2.65419 2.44101 0
M  V30 212 O 16.4191 2.22618 3.47153 0
M  V30 213 H 15.7601 0.537863 0.389357 0
M  V30 214 H 18.2901 1.94432 0.636965 0
M  V30 215 H 18.3001 2.86709 2.90279 0
M  V30 216 H 16.9751 3.62652 2.03608 0
M  V30 217 H 15.5521 2.11543 3.0709 0
M  V30 218 N 17.7372 -0.778329 1.37039 0
M  V30 219 C 18.9832 -1.53892 1.32079 0
M  V30 220 C 19.3162 -1.9396 -0.0965386 0
M  V30 221 O 18.5912 -1.63568 -1.05242 0
M  V30 222 C 18.8742 -2.80847 2.25382 0
M  V30 223 C 18.7272 -2.47076 3.75864 0
M  V30 224 C 20.0462 -3.82741 2.1725 0
M  V30 225 H 17.1652 -0.558303 0.48111 0
M  V30 226 H 19.8072 -0.893397 1.67685 0
M  V30 227 H 17.9572 -3.35931 1.95148 0
M  V30 228 H 19.6292 -1.97957 4.16666 0
M  V30 229 H 17.8722 -1.79863 3.94755 0
M  V30 230 H 18.5432 -3.37798 4.36574 0
M  V30 231 H 21.0192 -3.37133 2.43887 0
M  V30 232 H 19.8952 -4.69303 2.84686 0
M  V30 233 H 20.1562 -4.2652 1.16331 0
M  V30 234 N 19.2153 -1.21501 -1.00376 0
M  V30 235 C 20.4633 -1.03095 -1.73827 0
M  V30 236 C 20.7843 0.436341 -1.90055 0
M  V30 237 O 20.0543 1.31466 -1.45236 0
M  V30 238 H 18.6343 -0.378487 -0.644016 0
M  V30 239 H 21.2963 -1.52831 -1.20949 0
M  V30 240 H 20.3923 -1.49991 -2.73695 0
M  V30 241 N 20.6934 1.19889 -1.02296 0
M  V30 242 C 21.9184 1.9393 -0.735237 0
M  V30 243 C 22.3434 1.74639 0.698782 0
M  V30 244 O 21.7014 1.04481 1.48167 0
M  V30 245 C 21.7494 3.43916 -1.08417 0
M  V30 246 O 20.8534 4.11917 -0.199446 0
M  V30 247 H 20.1944 0.605645 -0.272196 0
M  V30 248 H 22.7244 1.52137 -1.36804 0
M  V30 249 H 22.7344 3.9456 -1.03856 0
M  V30 250 H 21.4094 3.5728 -2.12894 0
M  V30 251 H 19.9864 3.71666 -0.303136 0
M  V30 252 N 22.1715 0.800033 1.35784 0
M  V30 253 C 23.4485 0.30088 1.93272 0
M  V30 254 C 23.8285 -1.20857 1.73081 0
M  V30 255 O 23.1765 -2.00502 1.09596 0
M  V30 256 C 23.3865 0.70511 3.41803 0
M  V30 257 C 24.7345 0.690871 4.18942 0
M  V30 258 O 25.7585 0.646244 3.50289 0
M  V30 259 O 24.6175 0.74332 5.41421 0
M  V30 260 H 21.7115 0.0771605 0.823393 0
M  V30 261 H 24.2575 0.88329 1.449 0
M  V30 262 H 23.0295 1.74571 3.50201 0
M  V30 263 H 22.6525 0.0971541 3.97481 0
M  V30 264 N 23.6496 -1.47581 0.552962 0
M  V30 265 C 24.9266 -1.95563 -0.0381515 0
M  V30 266 C 25.3066 -1.49552 -1.48988 0
M  V30 267 O 24.6546 -0.732414 -2.16444 0
M  V30 268 C 24.8646 -3.48848 0.102919 0
M  V30 269 C 26.2126 -4.24577 -0.0446082 0
M  V30 270 O 27.2366 -3.56187 0.0302548 0
M  V30 271 O 26.0956 -5.46116 -0.204923 0
M  V30 272 H 23.1896 -0.824321 -0.0665067 0
M  V30 273 H 25.7356 -1.58001 0.619186 0
M  V30 274 H 24.5076 -3.75129 1.11328 0
M  V30 275 H 24.1306 -3.93165 -0.592224 0
M  V30 276 N 25.1277 -0.289203 -1.54924 0
M  V30 277 C 26.0577 0.58549 -2.2604 0
M  V30 278 C 27.0387 1.14753 -1.25562 0
M  V30 279 O 28.2237 1.17906 -1.54311 0
M  V30 280 C 25.3537 1.76305 -2.99222 0
M  V30 281 C 24.3077 1.33191 -4.06748 0
M  V30 282 C 23.6337 2.5937 -4.6758 0
M  V30 283 C 24.9337 0.471775 -5.20165 0
M  V30 284 H 26.6277 -0.00763532 -2.99399 0
M  V30 285 H 24.1737 -0.00511229 -1.43999 0
M  V30 286 H 26.1267 2.38097 -3.47689 0
M  V30 287 H 24.8507 2.38223 -2.23422 0
M  V30 288 H 23.5097 0.737121 -3.59113 0
M  V30 289 H 23.1577 3.19576 -3.88433 0
M  V30 290 H 22.8577 2.31228 -5.40192 0
M  V30 291 H 24.3817 3.21985 -5.18804 0
M  V30 292 H 25.7957 0.995056 -5.64599 0
M  V30 293 H 24.1927 0.284639 -5.99425 0
M  V30 294 H 25.2627 -0.506041 -4.82252 0
M  V30 295 N 26.6058 1.57591 -0.0167156 0
M  V30 296 C 27.8518 1.91567 0.665582 0
M  V30 297 C 28.1848 0.892298 1.72487 0
M  V30 298 O 27.4598 -0.0867127 1.94307 0
M  V30 299 C 27.7428 3.36069 1.29342 0
M  V30 300 C 27.5958 4.49135 0.244541 0
M  V30 301 C 28.9148 3.803 2.21495 0
M  V30 302 H 26.0338 0.69666 0.240488 0
M  V30 303 H 28.6758 1.89866 -0.0714356 0
M  V30 304 H 26.8258 3.3765 1.92158 0
M  V30 305 H 28.4978 4.59689 -0.385228 0
M  V30 306 H 26.7408 4.3165 -0.431379 0
M  V30 307 H 27.4118 5.47242 0.723207 0
M  V30 308 H 29.8878 3.80377 1.68678 0
M  V30 309 H 28.7638 4.82127 2.62382 0
M  V30 310 H 29.0248 3.15104 3.101 0
M  V30 311 N 28.0839 -0.256276 1.55502 0
M  V30 312 C 29.0139 -1.32102 1.92539 0
M  V30 313 C 29.9949 -1.50684 0.789194 0
M  V30 314 O 31.1799 -1.63449 1.04872 0
M  V30 315 C 28.3099 -2.67752 2.21192 0
M  V30 316 C 27.2639 -2.63878 3.36975 0
M  V30 317 C 26.5899 -4.03236 3.51147 0
M  V30 318 C 27.8899 -2.21682 4.72921 0
M  V30 319 H 29.5839 -1.01351 2.81724 0
M  V30 320 H 27.1299 -0.486105 1.35547 0
M  V30 321 H 29.0829 -3.42365 2.45691 0
M  V30 322 H 27.8069 -3.0012 1.28824 0
M  V30 323 H 26.4659 -1.91722 3.12471 0
M  V30 324 H 26.1139 -4.32854 2.56216 0
M  V30 325 H 25.8139 -4.01535 4.29003 0
M  V30 326 H 27.3379 -4.79563 3.77957 0
M  V30 327 H 28.7519 -2.86023 4.96854 0
M  V30 328 H 27.1489 -2.3111 5.53812 0
M  V30 329 H 28.2189 -1.16833 4.70615 0
M  V30 330 N 29.562 -1.4872 -0.521534 0
M  V30 331 C 30.973 -1.50607 -1.10337 0
M  V30 332 C 31.324 -0.280612 -1.94183 0
M  V30 333 O 30.449 0.611507 -2.0758 0
M  V30 334 C 31.044 -2.72903 -2.00772 0
M  V30 335 C 29.603 -2.77634 -2.54158 0
M  V30 336 C 28.75 -2.44241 -1.31307 0
M  V30 337 H 31.701 -1.55714 -0.306388 0
M  V30 338 H 31.722 -2.519 -2.85178 0
M  V30 339 H 31.234 -3.62077 -1.39721 0
M  V30 340 H 29.335 -1.92689 -3.18907 0
M  V30 341 H 29.448 -3.79283 -2.92714 0
M  V30 342 H 27.812 -1.95577 -1.63161 0
M  V30 343 H 28.595 -3.35666 -0.719943 0
M  V30 344 N 31.0401 0.771051 -1.3745 0
M  V30 345 C 32.0031 1.86598 -1.33093 0
M  V30 346 C 33.0031 1.59076 -0.234845 0
M  V30 347 O 34.1931 1.67145 -0.490732 0
M  V30 348 C 31.3251 3.23747 -1.06773 0
M  V30 349 H 32.5181 1.91873 -2.30488 0
M  V30 350 H 30.0711 0.970876 -1.2249 0
M  V30 351 H 30.8061 3.24148 -0.099129 0
M  V30 352 H 30.5911 3.45115 -1.86112 0
M  V30 353 H 32.0811 4.03824 -1.06377 0
M  V30 354 N 32.5182 1.22032 0.997298 0
M  V30 355 C 33.7672 1.03637 1.73038 0
M  V30 356 C 34.0802 -0.429475 1.90827 0
M  V30 357 O 35.2862 -0.732995 2.61418 0
M  V30 358 C 33.7422 1.80582 3.11317 0
M  V30 359 C 33.3502 3.31387 3.01474 0
M  V30 360 C 35.0942 1.70621 3.88701 0
M  V30 361 C 33.0012 4.00791 4.3488 0
M  V30 362 H 31.9312 0.384179 0.648785 0
M  V30 363 H 34.5822 1.4584 1.11368 0
M  V30 364 H 32.9642 1.31175 3.73643 0
M  V30 365 H 34.1382 3.88155 2.4834 0
M  V30 366 H 32.4532 3.41976 2.37575 0
M  V30 367 H 35.0502 2.19799 4.87434 0
M  V30 368 H 35.3932 0.665823 4.10941 0
M  V30 369 H 35.9262 2.17547 3.33044 0
M  V30 370 H 32.6652 5.05064 4.1784 0
M  V30 371 H 32.1852 3.48811 4.87945 0
M  V30 372 H 33.8642 4.06139 5.03647 0
M  V30 373 N 33.9963 -1.19345 1.0293 0
M  V30 374 C 35.2433 -1.89038 0.726008 0
M  V30 375 C 35.5713 -1.79649 -0.745427 0
M  V30 376 O 34.8263 -1.18354 -1.55855 0
M  V30 377 C 35.1253 -3.39292 1.12319 0
M  V30 378 C 34.7913 -3.68885 2.59297 0
M  V30 379 C 33.4533 -3.76671 2.99453 0
M  V30 380 C 35.8053 -3.82178 3.54386 0
M  V30 381 C 33.1333 -3.9522 4.33611 0
M  V30 382 C 35.4853 -4.0224 4.88248 0
M  V30 383 C 34.1493 -4.08259 5.28092 0
M  V30 384 H 33.4193 -0.691739 0.265665 0
M  V30 385 H 36.0663 -1.41328 1.29223 0
M  V30 386 H 34.3713 -3.88903 0.475584 0
M  V30 387 H 36.0683 -3.91536 0.866037 0
M  V30 388 H 32.6583 -3.63433 2.27189 0
M  V30 389 H 36.8423 -3.75505 3.24514 0
M  V30 390 H 32.0983 -3.98119 4.64016 0
M  V30 391 H 36.2723 -4.11468 5.61843 0
M  V30 392 H 33.8993 -4.22384 6.32057 0
M  V30 393 N 35.4744 -0.807222 -1.35358 0
M  V30 394 C 36.4044 -0.232509 -2.3234 0
M  V30 395 C 37.3854 0.642386 -1.57504 0
M  V30 396 O 38.5704 0.572526 -1.85569 0
M  V30 397 C 35.7004 0.619238 -3.41735 0
M  V30 398 C 34.6544 -0.157215 -4.27711 0
M  V30 399 C 33.9804 0.816273 -5.28433 0
M  V30 400 C 35.2804 -1.35656 -5.04376 0
M  V30 401 H 36.9744 -1.04276 -2.80654 0
M  V30 402 H 34.5204 -0.50288 -1.34934 0
M  V30 403 H 36.4734 1.03137 -4.08584 0
M  V30 404 H 35.1974 1.46239 -2.92031 0
M  V30 405 H 33.8564 -0.550525 -3.62443 0
M  V30 406 H 33.5044 1.65494 -4.74996 0
M  V30 407 H 33.2044 0.301067 -5.86828 0
M  V30 408 H 34.7284 1.22659 -5.98153 0
M  V30 409 H 36.1424 -1.01927 -5.64166 0
M  V30 410 H 34.5394 -1.8063 -5.7227 0
M  V30 411 H 35.6094 -2.14288 -4.34981 0
M  V30 412 N 36.9525 1.47285 -0.560781 0
M  V30 413 C 38.1995 2.02464 -0.038062 0
M  V30 414 C 38.5275 1.43474 1.31322 0
M  V30 415 O 37.7825 0.581311 1.86867 0
M  V30 416 C 38.0815 3.57258 0.100784 0
M  V30 417 C 37.7475 4.35184 -1.18007 0
M  V30 418 C 36.4095 4.56194 -1.53103 0
M  V30 419 C 38.7615 4.80098 -2.02867 0
M  V30 420 C 36.0895 5.19367 -2.729 0
M  V30 421 C 38.4415 5.44593 -3.21871 0
M  V30 422 C 37.1055 5.63835 -3.57276 0
M  V30 423 H 36.3755 0.740869 -0.0139279 0
M  V30 424 H 39.0225 1.76916 -0.733012 0
M  V30 425 H 37.3275 3.81819 0.878724 0
M  V30 426 H 39.0245 3.97606 0.520639 0
M  V30 427 H 35.6145 4.19113 -0.8968 0
M  V30 428 H 39.7985 4.63642 -1.7706 0
M  V30 429 H 35.0545 5.32459 -3.00496 0
M  V30 430 H 39.2285 5.78358 -3.87911 0
M  V30 431 H 36.8555 6.12557 -4.50197 0
M  V30 432 N 38.4306 0.297415 1.54768 0
M  V30 433 C 39.3606 -0.573494 2.26348 0
M  V30 434 C 40.3416 -1.14085 1.26169 0
M  V30 435 O 41.5266 -1.17086 1.54934 0
M  V30 436 C 38.6566 -1.74716 3.00153 0
M  V30 437 C 37.6106 -1.31032 4.07449 0
M  V30 438 C 36.9366 -2.56887 4.68949 0
M  V30 439 C 38.2366 -0.444183 5.20408 0
M  V30 440 H 39.9306 0.0235131 2.99391 0
M  V30 441 H 37.4766 0.0127488 1.43994 0
M  V30 442 H 39.4296 -2.3625 3.48947 0
M  V30 443 H 38.1536 -2.37035 2.24682 0
M  V30 444 H 36.8126 -0.718066 3.59499 0
M  V30 445 H 36.4606 -3.17512 3.90122 0
M  V30 446 H 36.1606 -2.2836 5.41411 0
M  V30 447 H 37.6846 -3.19229 5.20505 0
M  V30 448 H 39.0986 -0.9651 5.65118 0
M  V30 449 H 37.4956 -0.252846 5.99567 0
M  V30 450 H 38.5656 0.531609 4.81977 0
M  V30 451 N 39.9087 -1.5758 0.0250728 0
M  V30 452 C 40.8387 -2.13007 -0.956575 0
M  V30 453 C 41.8197 -1.0452 -1.342 0
M  V30 454 O 43.0047 -1.32332 -1.42133 0
M  V30 455 C 40.1347 -2.65386 -2.24026 0
M  V30 456 C 39.0887 -3.78623 -1.99571 0
M  V30 457 C 38.4147 -4.17414 -3.3417 0
M  V30 458 C 39.7147 -5.04867 -1.33814 0
M  V30 459 H 41.4087 -2.9528 -0.494991 0
M  V30 460 H 38.9547 -1.42042 -0.236651 0
M  V30 461 H 40.9077 -3.02794 -2.93076 0
M  V30 462 H 39.6317 -1.80268 -2.72343 0
M  V30 463 H 38.2907 -3.41646 -1.32941 0
M  V30 464 H 37.9387 -3.29284 -3.80238 0
M  V30 465 H 37.6387 -4.93719 -3.18615 0
M  V30 466 H 39.1627 -4.57402 -4.04495 0
M  V30 467 H 40.5767 -5.39888 -1.92857 0
M  V30 468 H 38.9737 -5.86144 -1.28669 0
M  V30 469 H 40.0437 -4.83904 -0.310561 0
M  V30 470 N 41.3868 0.248026 -1.55636 0
M  V30 471 C 42.3368 1.30994 -1.86614 0
M  V30 472 C 43.3208 1.43543 -0.726918 0
M  V30 473 O 44.5128 1.46804 -0.988818 0
M  V30 474 C 41.6418 2.6656 -2.16335 0
M  V30 475 C 40.7278 2.58019 -3.36581 0
M  V30 476 N 41.1188 2.1911 -4.55878 0
M  V30 477 C 39.4168 2.89035 -3.39669 0
M  V30 478 C 40.1178 2.21174 -5.38012 0
M  V30 479 N 39.0938 2.60632 -4.77045 0
M  V30 480 H 42.8958 0.999583 -2.76379 0
M  V30 481 H 40.4098 0.456652 -1.55848 0
M  V30 482 H 42.4068 3.43194 -2.36692 0
M  V30 483 H 41.0668 2.98463 -1.27867 0
M  V30 484 H 42.0778 1.90672 -4.81523 0
M  V30 485 H 38.7548 3.25485 -2.61469 0
M  V30 486 H 40.1448 1.9344 -6.43452 0
M  V30 487 N 42.8649 1.48995 0.513639 0
M  V30 488 C 44.0929 1.61531 1.29288 0
M  V30 489 C 44.5079 0.281801 1.86685 0
M  V30 490 O 43.8649 -0.731111 1.67215 0
M  V30 491 C 43.9159 2.67449 2.43215 0
M  V30 492 O 43.6369 3.95626 1.88179 0
M  V30 493 C 45.1379 2.90575 3.34785 0
M  V30 494 H 42.3579 0.544165 0.392588 0
M  V30 495 H 44.9019 1.9494 0.617956 0
M  V30 496 H 43.0569 2.36853 3.0656 0
M  V30 497 H 43.4709 4.53868 2.62876 0
M  V30 498 H 44.9449 3.68449 4.11035 0
M  V30 499 H 45.4219 2.00011 3.91015 0
M  V30 500 H 46.0279 3.22538 2.77218 0
M  V30 501 N 44.343 -0.763751 1.37857 0
M  V30 502 C 45.571 -1.55293 1.36718 0
M  V30 503 C 45.986 -1.88745 -0.0455434 0
M  V30 504 O 45.343 -1.52039 -1.00947 0
M  V30 505 C 45.394 -2.85831 2.2132 0
M  V30 506 O 45.115 -2.5381 3.57089 0
M  V30 507 C 46.616 -3.80023 2.28249 0
M  V30 508 H 43.836 -0.480841 0.468009 0
M  V30 509 H 46.38 -0.946009 1.81303 0
M  V30 510 H 44.535 -3.42926 1.80223 0
M  V30 511 H 44.949 -3.37459 4.01524 0
M  V30 512 H 46.423 -4.68599 2.91752 0
M  V30 513 H 46.9 -4.1973 1.2932 0
M  V30 514 H 47.506 -3.28855 2.69693 0
M  V30 515 N 45.8211 -1.22559 -0.990812 0
M  V30 516 C 47.0671 -1.06303 -1.73411 0
M  V30 517 C 47.4221 0.397442 -1.8825 0
M  V30 518 O 46.7151 1.29062 -1.41611 0
M  V30 519 C 46.9091 -1.71011 -3.13831 0
M  V30 520 C 46.7381 -3.232 -3.12685 0
M  V30 521 C 45.5081 -3.92314 -3.18461 0
M  V30 522 C 47.7061 -4.20107 -2.96673 0
M  V30 523 N 45.6881 -5.31571 -3.07091 0
M  V30 524 C 47.0591 -5.46208 -2.93354 0
M  V30 525 C 49.1141 -4.10973 -2.8108 0
M  V30 526 C 47.8171 -6.64225 -2.76039 0
M  V30 527 C 49.8431 -5.28642 -2.65126 0
M  V30 528 C 49.2051 -6.53663 -2.62496 0
M  V30 529 H 45.3041 -0.443441 -0.644115 0
M  V30 530 H 47.8881 -1.55131 -1.17654 0
M  V30 531 H 46.0591 -1.2473 -3.67827 0
M  V30 532 H 47.7911 -1.47828 -3.76735 0
M  V30 533 H 44.5461 -3.43326 -3.26227 0
M  V30 534 H 44.9701 -6.0455 -3.0471 0
M  V30 535 H 49.6121 -3.15098 -2.8191 0
M  V30 536 H 47.3301 -7.60246 -2.73954 0
M  V30 537 H 50.9161 -5.23407 -2.54039 0
M  V30 538 H 49.7961 -7.43182 -2.50302 0
M  V30 539 N 47.2992 1.18797 -1.03562 0
M  V30 540 C 48.5462 1.8865 -0.736023 0
M  V30 541 C 48.8742 1.80041 0.735889 0
M  V30 542 O 48.1292 1.19179 1.55225 0
M  V30 543 C 48.4282 3.38692 -1.14117 0
M  V30 544 C 48.0942 3.67504 -2.6125 0
M  V30 545 C 46.7562 3.75078 -3.01447 0
M  V30 546 C 49.1082 3.80293 -3.56408 0
M  V30 547 C 46.4362 3.92915 -4.35701 0
M  V30 548 C 48.7882 3.99645 -4.90374 0
M  V30 549 C 47.4522 4.05453 -5.30249 0
M  V30 550 H 46.7222 0.690321 -0.26933 0
M  V30 551 H 49.3692 1.40641 -1.29971 0
M  V30 552 H 47.6742 3.88645 -0.496202 0
M  V30 553 H 49.3712 3.91072 -0.886789 0
M  V30 554 H 45.9612 3.62223 -2.29113 0
M  V30 555 H 50.1452 3.73779 -3.26501 0
M  V30 556 H 45.4012 3.95653 -4.66121 0
M  V30 557 H 49.5752 4.08482 -5.64017 0
M  V30 558 H 47.2022 4.19027 -6.34288 0
M  V30 559 N 48.7773 0.814389 1.34928 0
M  V30 560 C 50.0233 0.399013 1.98836 0
M  V30 561 C 50.3563 -1.03314 1.64438 0
M  V30 562 O 49.6313 -1.71811 0.911659 0
M  V30 563 C 49.9143 0.591629 3.55207 0
M  V30 564 C 49.7673 2.06928 3.99376 0
M  V30 565 C 51.0863 0.022199 4.40094 0
M  V30 566 H 48.2053 0.146451 0.722303 0
M  V30 567 H 50.8473 1.02537 1.59957 0
M  V30 568 H 48.9973 0.0584441 3.88456 0
M  V30 569 H 50.6693 2.66544 3.76499 0
M  V30 570 H 48.9123 2.56287 3.49999 0
M  V30 571 H 49.5833 2.1549 5.08201 0
M  V30 572 H 52.0593 0.477643 4.13349 0
M  V30 573 H 50.9353 0.186832 5.48582 0
M  V30 574 H 51.1963 -1.07215 4.28902 0
M  V30 575 N 50.2554 -1.46986 0.568584 0
M  V30 576 C 51.5044 -2.01646 0.0465894 0
M  V30 577 C 51.8174 -1.44721 -1.31587 0
M  V30 578 O 53.0234 -1.91113 -1.92842 0
M  V30 579 C 51.4794 -3.59885 0.032752 0
M  V30 580 C 51.0874 -4.25804 1.39266 0
M  V30 581 C 52.8314 -4.22255 -0.436038 0
M  V30 582 C 50.7384 -5.76081 1.33732 0
M  V30 583 H 49.6684 -0.753876 0.013647 0
M  V30 584 H 52.3194 -1.68864 0.718131 0
M  V30 585 H 50.7014 -3.8968 -0.704669 0
M  V30 586 H 51.8754 -4.07637 2.1487 0
M  V30 587 H 50.1904 -3.7547 1.80032 0
M  V30 588 H 52.7874 -5.32394 -0.49602 0
M  V30 589 H 53.1304 -3.90212 -1.45053 0
M  V30 590 H 53.6634 -3.97033 0.246877 0
M  V30 591 H 50.4024 -6.12761 2.32817 0
M  V30 592 H 49.9224 -5.96553 0.623267 0
M  V30 593 H 51.6014 -6.38518 1.0442 0
M  V30 594 N 51.7335 -0.305618 -1.54608 0
M  V30 595 C 52.6635 0.561482 -2.26649 0
M  V30 596 C 53.6445 1.13415 -1.26772 0
M  V30 597 O 54.8295 1.16262 -1.55553 0
M  V30 598 C 51.9595 1.73122 -3.01075 0
M  V30 599 C 50.9135 1.2887 -4.08138 0
M  V30 600 C 50.2395 2.54396 -4.70305 0
M  V30 601 C 51.5395 0.416578 -5.20636 0
M  V30 602 H 53.2335 -0.0393902 -2.99374 0
M  V30 603 H 50.7795 -0.020385 -1.43986 0
M  V30 604 H 52.7325 2.34396 -3.50195 0
M  V30 605 H 51.4565 2.3584 -2.25936 0
M  V30 606 H 50.1155 0.698991 -3.59875 0
M  V30 607 H 49.7635 3.15439 -3.918 0
M  V30 608 H 49.4635 2.25486 -5.42614 0
M  V30 609 H 50.9875 3.16464 -5.2219 0
M  V30 610 H 52.4015 0.935116 -5.65622 0
M  V30 611 H 50.7985 0.221046 -5.99693 0
M  V30 612 H 51.8685 -0.557162 -4.81688 0
M  V30 613 N 53.2116 1.57565 -0.0334293 0
M  V30 614 C 54.4366 1.96689 0.657895 0
M  V30 615 C 54.8616 0.910057 1.64619 0
M  V30 616 O 54.2196 -0.128598 1.80843 0
M  V30 617 C 54.2676 3.34905 1.33683 0
M  V30 618 O 53.3716 3.31574 2.45219 0
M  V30 619 H 52.7126 0.641205 0.172489 0
M  V30 620 H 55.2426 2.04372 -0.0965621 0
M  V30 621 H 55.2526 3.71234 1.69262 0
M  V30 622 H 53.9276 4.11366 0.612411 0
M  V30 623 H 52.5046 3.06968 2.11719 0
M  V30 624 N 54.6897 -0.239769 1.55765 0
M  V30 625 C 55.9357 -0.968234 1.78194 0
M  V30 626 C 56.2687 -1.84701 0.599938 0
M  V30 627 O 55.5437 -1.9031 -0.401524 0
M  V30 628 C 55.8267 -1.8227 3.10564 0
M  V30 629 C 55.6797 -0.971633 4.3918 0
M  V30 630 C 56.9987 -2.80388 3.39221 0
M  V30 631 H 54.1177 -0.350572 0.648281 0
M  V30 632 H 56.7597 -0.238259 1.885 0
M  V30 633 H 54.9097 -2.44507 3.01908 0
M  V30 634 H 56.5817 -0.367408 4.59835 0
M  V30 635 H 54.8247 -0.276276 4.32919 0
M  V30 636 H 55.4957 -1.60346 5.28198 0
M  V30 637 H 57.9717 -2.28287 3.47885 0
M  V30 638 H 56.8477 -3.3729 4.33044 0
M  V30 639 H 57.1087 -3.57212 2.60484 0
M  V30 640 N 56.1678 -1.49265 -0.50573 0
M  V30 641 C 57.4138 -1.58748 -1.26202 0
M  V30 642 C 57.7468 -0.271227 -1.92297 0
M  V30 643 O 57.0218 0.724831 -1.80489 0
M  V30 644 C 57.3048 -2.74332 -2.33268 0
M  V30 645 C 57.1578 -4.15737 -1.71705 0
M  V30 646 C 58.4768 -2.85576 -3.34865 0
M  V30 647 H 55.5958 -0.577826 -0.457478 0
M  V30 648 H 58.2378 -1.81532 -0.560897 0
M  V30 649 H 56.3878 -2.55036 -2.93068 0
M  V30 650 H 58.0598 -4.46537 -1.15769 0
M  V30 651 H 56.3028 -4.21605 -1.02135 0
M  V30 652 H 56.9738 -4.92477 -2.49341 0
M  V30 653 H 59.4498 -3.03127 -2.8505 0
M  V30 654 H 58.3258 -3.68135 -4.07146 0
M  V30 655 H 58.5868 -1.94732 -3.96903 0
M  V30 656 N 57.6459 0.756429 -1.3826 0
M  V30 657 C 58.5759 1.88374 -1.37976 0
M  V30 658 C 59.5569 1.68311 -0.246082 0
M  V30 659 O 60.7419 1.88944 -0.44874 0
M  V30 660 C 57.8719 3.25864 -1.20125 0
M  V30 661 C 56.8259 3.60523 -2.30666 0
M  V30 662 C 56.1519 4.9672 -1.97923 0
M  V30 663 C 57.4519 3.65692 -3.72916 0
M  V30 664 H 59.1459 1.88869 -2.32312 0
M  V30 665 H 56.6919 0.907272 -1.11824 0
M  V30 666 H 58.6449 4.0438 -1.18552 0
M  V30 667 H 57.3689 3.25841 -0.222498 0
M  V30 668 H 56.0279 2.84324 -2.3142 0
M  V30 669 H 55.6759 4.93253 -0.985393 0
M  V30 670 H 55.3759 5.20878 -2.71955 0
M  V30 671 H 56.8999 5.77618 -1.97964 0
M  V30 672 H 58.3139 4.34328 -3.74208 0
M  V30 673 H 56.7109 4.01358 -4.4613 0
M  V30 674 H 57.7809 2.65987 -4.05436 0
M  V30 675 N 59.124 1.23083 0.984299 0
M  V30 676 C 60.371 1.06057 1.72505 0
M  V30 677 C 60.699 -0.403105 1.90277 0
M  V30 678 O 59.954 -1.3149 1.44944 0
M  V30 679 C 60.253 1.72673 3.1292 0
M  V30 680 C 59.919 3.22586 3.15038 0
M  V30 681 C 58.581 3.63489 3.15324 0
M  V30 682 C 60.933 4.185 3.10657 0
M  V30 683 C 58.261 4.98772 3.08939 0
M  V30 684 C 60.613 5.53769 3.05814 0
M  V30 685 C 59.277 5.94041 3.04419 0
M  V30 686 H 58.547 0.388091 0.631242 0
M  V30 687 H 61.194 1.52963 1.15215 0
M  V30 688 H 59.499 1.18116 3.73572 0
M  V30 689 H 61.196 1.56982 3.68996 0
M  V30 690 H 57.786 2.90022 3.15571 0
M  V30 691 H 61.97 3.87911 3.09579 0
M  V30 692 H 57.226 5.29193 3.0621 0
M  V30 693 H 61.4 6.27808 3.0138 0
M  V30 694 H 59.027 6.98833 2.99227 0
M  V30 695 N 60.6021 -1.18246 1.0419 0
M  V30 696 C 61.8501 -1.87886 0.744543 0
M  V30 697 C 62.1711 -1.8082 -0.730006 0
M  V30 698 O 61.4411 -1.22736 -1.52685 0
M  V30 699 H 60.0211 -0.695556 0.272417 0
M  V30 700 H 62.6831 -1.43494 1.31892 0
M  V30 701 H 61.7791 -2.9389 1.05049 0
M  V30 702 N 62.0802 -0.821533 -1.34494 0
M  V30 703 C 63.0102 -0.257138 -2.3208 0
M  V30 704 C 63.9912 0.625645 -1.58176 0
M  V30 705 O 65.1762 0.552811 -1.86166 0
M  V30 706 C 62.3062 0.582958 -3.42372 0
M  V30 707 C 61.2602 -0.202571 -4.2752 0
M  V30 708 C 60.5862 0.760179 -5.29269 0
M  V30 709 C 61.8862 -1.40998 -5.02908 0
M  V30 710 H 63.5802 -1.07247 -2.79532 0
M  V30 711 H 61.1262 -0.517163 -1.34393 0
M  V30 712 H 63.0792 0.987972 -4.09655 0
M  V30 713 H 61.8032 1.43133 -2.93565 0
M  V30 714 H 60.4622 -0.588936 -3.61838 0
M  V30 715 H 60.1102 1.60447 -4.76724 0
M  V30 716 H 59.8102 0.238809 -5.87115 0
M  V30 717 H 61.3342 1.16308 -5.9942 0
M  V30 718 H 62.7482 -1.07905 -5.63054 0
M  V30 719 H 61.1452 -1.86689 -5.70322 0
M  V30 720 H 62.2152 -2.1889 -4.32684 0
M  V30 721 N 63.5583 1.46682 -0.576371 0
M  V30 722 C 64.8043 2.02712 -0.0596221 0
M  V30 723 C 65.1373 1.44765 1.29448 0
M  V30 724 O 64.4123 0.610355 1.84675 0
M  V30 725 C 64.6953 3.60098 0.0129503 0
M  V30 726 C 64.5483 4.28441 -1.3696 0
M  V30 727 C 65.8673 4.34224 0.71678 0
M  V30 728 H 62.9863 0.736637 -0.0231407 0
M  V30 729 H 65.6283 1.74898 -0.742351 0
M  V30 730 H 63.7783 3.83926 0.594378 0
M  V30 731 H 65.4503 4.15896 -1.9957 0
M  V30 732 H 63.6933 3.8805 -1.93907 0
M  V30 733 H 64.3643 5.3716 -1.27135 0
M  V30 734 H 66.8403 4.15503 0.222908 0
M  V30 735 H 65.7163 5.43936 0.73657 0
M  V30 736 H 65.9773 4.04823 1.77682 0
M  V30 737 N 65.0364 0.313813 1.54444 0
M  V30 738 C 66.2664 -0.293491 2.04505 0
M  V30 739 C 66.6744 -1.47086 1.19005 0
M  V30 740 O 66.0174 -1.82481 0.211257 0
M  V30 741 C 66.0794 -0.800455 3.50475 0
M  V30 742 C 65.7434 0.253322 4.56297 0
M  V30 743 C 66.7404 1.08612 5.08428 0
M  V30 744 C 64.4254 0.398708 5.00715 0
M  V30 745 C 66.4194 2.05013 6.0353 0
M  V30 746 C 64.1064 1.36614 5.95634 0
M  V30 747 C 65.1044 2.19033 6.46926 0
M  V30 748 O 64.7924 3.14134 7.39983 0
M  V30 749 H 64.5244 -0.0658325 0.672787 0
M  V30 750 H 67.0784 0.455177 2.00293 0
M  V30 751 H 65.3084 -1.59987 3.52053 0
M  V30 752 H 66.9974 -1.32504 3.83663 0
M  V30 753 H 67.7634 0.984736 4.74898 0
M  V30 754 H 63.6424 -0.23289 4.60411 0
M  V30 755 H 67.1864 2.69382 6.4349 0
M  V30 756 H 63.0834 1.4682 6.28581 0
M  V30 757 H 63.8514 3.0926 7.57826 0
M  V30 758 N 66.5145 -1.57545 0.0417849 0
M  V30 759 C 67.4625 -2.12148 -0.953723 0
M  V30 760 C 68.4565 -1.05104 -1.32852 0
M  V30 761 O 69.6625 -1.23524 -1.30927 0
M  V30 762 H 66.0375 -0.677957 -0.325389 0
M  V30 763 H 68.0085 -2.94707 -0.467991 0
M  V30 764 C 66.7575 -2.6739 -2.22257 0
M  V30 765 H 66.0805 -3.49413 -1.94295 0
M  V30 766 H 67.5205 -3.09227 -2.90094 0
M  V30 767 C 65.9795 -1.60723 -2.96091 0
M  V30 768 O 66.5095 -1.01449 -3.88679 0
M  V30 769 N 64.7155 -1.32466 -2.58652 0
M  V30 770 H 64.2625 -1.80856 -1.83437 0
M  V30 771 H 64.2205 -0.61325 -3.08361 0
M  V30 772 N 67.9926 0.231505 -1.5589 0
M  V30 773 C 69.4036 0.799327 -1.68724 0
M  V30 774 C 69.7546 1.85398 -0.642022 0
M  V30 775 O 68.8796 2.1539 0.208784 0
M  V30 776 C 69.4746 1.45664 -3.05888 0
M  V30 777 C 68.0336 1.97197 -3.20609 0
M  V30 778 C 67.1806 0.828552 -2.64632 0
M  V30 779 H 70.1316 0.00702616 -1.58698 0
M  V30 780 H 70.1526 2.32517 -3.01191 0
M  V30 781 H 69.6646 0.688808 -3.81939 0
M  V30 782 H 67.7656 2.76813 -2.4941 0
M  V30 783 H 67.8786 2.15878 -4.27707 0
M  V30 784 H 66.2426 1.23321 -2.22854 0
M  V30 785 H 67.0256 0.0735544 -3.43221 0
M  V30 786 N 69.4707 1.49531 0.497807 0
M  V30 787 C 70.4207 1.62829 1.59596 0
M  V30 788 C 71.4047 0.483824 1.53453 0
M  V30 789 O 72.5967 0.736937 1.60929 0
M  V30 790 C 69.7257 1.7011 2.98191 0
M  V30 791 C 68.8117 2.90144 3.09317 0
M  V30 792 N 69.2027 4.1418 2.90324 0
M  V30 793 C 67.5007 2.88148 3.40422 0
M  V30 794 C 68.2017 4.94886 3.05717 0
M  V30 795 N 67.1777 4.28314 3.34736 0
M  V30 796 H 70.9797 2.56446 1.4357 0
M  V30 797 H 68.4937 1.46347 0.704001 0
M  V30 798 H 70.4907 1.77735 3.77115 0
M  V30 799 H 69.1507 0.776315 3.15283 0
M  V30 800 H 70.1617 4.44109 2.66436 0
M  V30 801 H 66.8387 2.05061 3.63671 0
M  V30 802 H 68.2287 6.03432 2.95499 0
M  V30 803 N 70.9488 -0.749086 1.3866 0
M  V30 804 C 71.8588 -1.89358 1.38494 0
M  V30 805 C 72.8748 -1.71708 0.281476 0
M  V30 806 O 74.0508 -1.94554 0.520643 0
M  V30 807 C 71.1158 -3.24782 1.21316 0
M  V30 808 C 70.1768 -3.54926 2.41508 0
M  V30 809 C 69.4098 -4.83888 2.2514 0
M  V30 810 O 69.6328 -5.56592 1.24746 0
M  V30 811 O 68.5668 -5.13612 3.13826 0
M  V30 812 H 72.3928 -1.92452 2.34938 0
M  V30 813 H 69.9778 -0.894981 1.19626 0
M  V30 814 H 71.8598 -4.05739 1.13814 0
M  V30 815 H 70.5348 -3.2249 0.279592 0
M  V30 816 H 69.4418 -2.74112 2.54585 0
M  V30 817 H 70.7748 -3.61983 3.3351 0
M  V30 818 N 72.4269 -1.23603 -0.977757 0
M  V30 819 C 73.3899 -1.02069 -2.05218 0
M  V30 820 C 74.3899 0.0184305 -1.60789 0
M  V30 821 O 75.5799 -0.221569 -1.72785 0
M  V30 822 C 72.7119 -0.544926 -3.36517 0
M  V30 823 H 73.9049 -1.9742 -2.25755 0
M  V30 824 H 71.4579 -1.05684 -1.15155 0
M  V30 825 H 72.1929 0.412241 -3.21669 0
M  V30 826 H 71.9779 -1.2948 -3.70105 0
M  V30 827 H 73.4679 -0.414985 -4.15533 0
M  V30 828 N 73.905 1.17692 -1.04816 0
M  V30 829 C 75.145 1.89545 -0.764979 0
M  V30 830 C 75.509 1.78979 0.695028 0
M  V30 831 O 76.71 2.45613 1.09215 0
M  V30 832 C 74.981 3.35659 -1.22751 0
M  V30 833 S 76.54 4.25526 -1.07112 0
M  V30 834 H 73.358 0.654432 -0.27792 0
M  V30 835 H 75.96 1.42163 -1.34201 0
M  V30 836 H 74.664 3.40882 -2.28533 0
M  V30 837 H 74.195 3.88083 -0.644594 0
M  V30 838 H 76.21 4.962 0.00697508 0
M  V30 839 N 75.3831 0.828654 1.34056 0
M  V30 840 C 76.6081 0.431637 2.02859 0
M  V30 841 C 77.0331 -0.956339 1.61975 0
M  V30 842 O 76.3911 -1.62338 0.807228 0
M  V30 843 C 76.4391 0.548323 3.56407 0
M  V30 844 O 75.5431 -0.429556 4.10157 0
M  V30 845 H 74.8841 0.176886 0.640006 0
M  V30 846 H 77.4141 1.12066 1.71179 0
M  V30 847 H 77.4241 0.426196 4.05768 0
M  V30 848 H 76.0991 1.5606 3.8551 0
M  V30 849 H 74.6761 -0.265836 3.71951 0
M  V30 850 N 76.8612 -1.46375 0.584142 0
M  V30 851 C 77.7912 -2.33103 -0.136037 0
M  V30 852 C 78.7722 -1.45431 -0.882255 0
M  V30 853 O 79.9572 -1.74246 -0.857434 0
M  V30 854 C 77.0872 -3.27731 -1.14933 0
M  V30 855 C 76.0412 -4.24855 -0.517862 0
M  V30 856 C 75.3672 -5.09001 -1.63773 0
M  V30 857 C 76.6672 -5.19439 0.545886 0
M  V30 858 H 78.3612 -2.93568 0.588086 0
M  V30 859 H 75.9072 -1.41166 0.284259 0
M  V30 860 H 77.8602 -3.87261 -1.66153 0
M  V30 861 H 76.5842 -2.65377 -1.90375 0
M  V30 862 H 75.2432 -3.6659 -0.0267361 0
M  V30 863 H 74.8912 -4.43031 -2.38185 0
M  V30 864 H 74.5912 -5.74777 -1.22085 0
M  V30 865 H 76.1152 -5.71396 -2.15266 0
M  V30 866 H 77.5292 -5.73177 0.118704 0
M  V30 867 H 75.9262 -5.93566 0.88317 0
M  V30 868 H 76.9962 -4.63285 1.43162 0
M  V30 869 N 78.3393 -0.321999 -1.54275 0
M  V30 870 C 79.2873 0.560206 -2.25753 0
M  V30 871 C 80.2813 1.11984 -1.27106 0
M  V30 872 O 81.4873 1.06806 -1.44888 0
M  V30 873 H 77.8623 0.199304 -0.725108 0
M  V30 874 H 79.8333 -0.0649365 -2.98329 0
M  V30 875 C 78.5823 1.71023 -3.02731 0
M  V30 876 H 77.9053 1.28885 -3.78456 0
M  V30 877 H 79.3453 2.30314 -3.55993 0
M  V30 878 C 77.8043 2.62692 -2.10938 0
M  V30 879 O 78.3343 3.64364 -1.6912 0
M  V30 880 N 76.5403 2.30891 -1.76459 0
M  V30 881 H 76.0873 1.48253 -2.10663 0
M  V30 882 H 76.0453 2.92487 -1.1532 0
M  V30 883 N 79.8174 1.5752 -0.0501392 0
M  V30 884 C 80.7474 2.14502 0.922566 0
M  V30 885 C 81.7284 1.06642 1.3252 0
M  V30 886 O 82.9134 1.34577 1.4001 0
M  V30 887 C 80.0434 2.68916 2.19776 0
M  V30 888 C 78.9974 3.8175 1.93523 0
M  V30 889 C 78.3234 4.22677 3.27487 0
M  V30 890 C 79.6234 5.06932 1.25765 0
M  V30 891 H 81.3174 2.9603 0.447952 0
M  V30 892 H 78.8634 1.42401 0.214024 0
M  V30 893 H 80.8164 3.07419 2.88222 0
M  V30 894 H 79.5404 1.84578 2.69441 0
M  V30 895 H 78.1994 3.43718 1.27489 0
M  V30 896 H 77.8474 3.35291 3.74952 0
M  V30 897 H 77.5474 4.98725 3.1072 0
M  V30 898 H 79.0714 4.63779 3.97166 0
M  V30 899 H 80.4854 5.42888 1.84244 0
M  V30 900 H 78.8824 5.88116 1.19328 0
M  V30 901 H 79.9524 4.84337 0.233536 0
M  V30 902 N 81.2955 -0.223234 1.56011 0
M  V30 903 C 82.5415 -0.949279 1.79211 0
M  V30 904 C 82.8745 -1.84054 0.619494 0
M  V30 905 O 82.1495 -1.90726 -0.381317 0
M  V30 906 C 82.4325 -1.78965 3.12479 0
M  V30 907 C 82.2855 -0.924997 4.40186 0
M  V30 908 C 83.6045 -2.76774 3.42175 0
M  V30 909 H 80.7235 -0.343676 0.651963 0
M  V30 910 H 83.3655 -0.218253 1.88742 0
M  V30 911 H 81.5155 -2.41291 3.04485 0
M  V30 912 H 83.1875 -0.318615 4.60198 0
M  V30 913 H 81.4305 -0.230344 4.33188 0
M  V30 914 H 82.1015 -1.54735 5.29869 0
M  V30 915 H 84.5775 -2.24584 3.50287 0
M  V30 916 H 83.4535 -3.32678 4.36597 0
M  V30 917 H 83.7145 -3.54429 2.64258 0
M  V30 918 N 82.7736 -1.49793 -0.48987 0
M  V30 919 C 84.0506 -1.50348 -1.25119 0
M  V30 920 C 84.4306 -0.237466 -2.0976 0
M  V30 921 O 83.7786 0.77981 -2.14782 0
M  V30 922 C 83.9886 -2.78872 -2.09837 0
M  V30 923 C 85.3366 -3.288 -2.68655 0
M  V30 924 O 86.3606 -2.80065 -2.20096 0
M  V30 925 O 85.2196 -4.13707 -3.57083 0
M  V30 926 H 82.3136 -0.602242 -0.566775 0
M  V30 927 H 84.8596 -1.62067 -0.503229 0
M  V30 928 H 83.6316 -3.62499 -1.47343 0
M  V30 929 H 83.2546 -2.70066 -2.91805 0
M  V30 930 N 84.2517 0.741722 -1.39055 0
M  V30 931 C 85.2017 1.84661 -1.33732 0
M  V30 932 C 86.1857 1.59397 -0.219401 0
M  V30 933 O 87.3777 1.71015 -0.456375 0
M  V30 934 C 84.5067 3.22512 -1.17647 0
M  V30 935 C 83.5927 3.53628 -2.34112 0
M  V30 936 N 83.9837 3.55723 -3.59576 0
M  V30 937 C 82.2817 3.83956 -2.26923 0
M  V30 938 C 82.9827 3.84443 -4.36553 0
M  V30 939 N 81.9587 4.01877 -3.66055 0
M  V30 940 H 85.7607 1.84576 -2.28711 0
M  V30 941 H 83.2747 0.939647 -1.32455 0
M  V30 942 H 85.2717 4.01597 -1.11917 0
M  V30 943 H 83.9317 3.2384 -0.236124 0
M  V30 944 H 84.9427 3.37196 -3.93089 0
M  V30 945 H 81.6197 3.92929 -1.41113 0
M  V30 946 H 83.0097 3.92588 -5.45274 0
M  V30 947 N 85.7298 1.2412 0.971189 0
M  V30 948 C 86.9778 1.07668 1.71032 0
M  V30 949 C 87.2988 -0.385797 1.91146 0
M  V30 950 O 86.5688 -1.27569 1.4867 0
M  V30 951 H 85.1488 0.395429 0.633755 0
M  V30 952 H 87.8108 1.55984 1.16855 0
M  V30 953 H 86.9068 1.57195 2.69622 0
M  V30 954 N 87.2079 -1.17134 1.05439 0
M  V30 955 C 88.6239 -1.39454 0.776201 0
M  V30 956 C 88.8239 -1.91454 -0.628307 0
M  V30 957 O 87.8799 -2.10777 -1.39031 0
M  V30 958 C 89.1929 -2.38305 1.83388 0
M  V30 959 C 90.7409 -2.52006 1.85639 0
M  V30 960 C 91.2159 -3.54133 2.90437 0
M  V30 961 N 92.7069 -3.61653 2.89415 0
M  V30 962 C 93.4419 -4.4044 3.67152 0
M  V30 963 N 92.9379 -5.22721 4.54681 0
M  V30 964 N 94.7309 -4.35337 3.55581 0
M  V30 965 H 86.8819 -0.817134 1.96053 0
M  V30 966 H 89.1449 -0.421626 0.849079 0
M  V30 967 H 88.8509 -2.07173 2.84204 0
M  V30 968 H 88.7249 -3.37841 1.67761 0
M  V30 969 H 91.1119 -2.82447 0.85486 0
M  V30 970 H 91.1929 -1.52537 2.05344 0
M  V30 971 H 90.8369 -3.24431 3.90777 0
M  V30 972 H 90.7669 -4.53313 2.67983 0
M  V30 973 H 93.2579 -3.02909 2.25952 0
M  V30 974 H 93.5709 -5.80027 5.10674 0
M  V30 975 H 91.9159 -5.22093 4.58741 0
M  V30 976 H 95.1069 -3.70112 2.86592 0
M  V30 977 H 95.2799 -4.96494 4.1641 0
M  V30 978 N 88.686 -0.835752 -1.33615 0
M  V30 979 C 89.934 -0.429109 -1.97492 0
M  V30 980 C 90.255 1.01433 -1.66543 0
M  V30 981 O 89.525 1.70611 -0.962744 0
M  V30 982 H 88.105 -0.155686 -0.730596 0
M  V30 983 H 90.767 -1.06802 -1.63031 0
M  V30 984 H 89.863 -0.55861 -3.0706 0
M  V30 985 N 90.1641 1.46063 -0.591896 0
M  V30 986 C 91.3941 2.06418 -0.0867676 0
M  V30 987 C 91.8021 1.43975 1.22751 0
M  V30 988 O 91.1451 0.542531 1.75506 0
M  V30 989 C 91.2071 3.59213 0.143725 0
M  V30 990 C 90.8711 4.439 -1.08635 0
M  V30 991 C 91.8681 4.79864 -2.00067 0
M  V30 992 C 89.5531 4.84896 -1.31077 0
M  V30 993 C 91.5471 5.55661 -3.12282 0
M  V30 994 C 89.2341 5.6045 -2.43596 0
M  V30 995 C 90.2321 5.95747 -3.34027 0
M  V30 996 O 89.9201 6.69772 -4.4459 0
M  V30 997 H 89.6521 0.673443 -0.0587447 0
M  V30 998 H 92.2061 1.88539 -0.814994 0
M  V30 999 H 90.4361 3.75433 0.926668 0
M  V30 1000 H 92.1251 4.01463 0.5985 0
M  V30 1001 H 92.8911 4.48763 -1.83947 0
M  V30 1002 H 88.7701 4.56867 -0.61594 0
M  V30 1003 H 92.3141 5.8313 -3.82891 0
M  V30 1004 H 88.2111 5.90965 -2.59674 0
M  V30 1005 H 88.9791 6.88207 -4.43073 0
M  V30 1006 N 91.6422 0.330177 1.54103 0
M  V30 1007 C 92.5722 -0.525353 2.27513 0
M  V30 1008 C 93.5532 -1.11383 1.2856 0
M  V30 1009 O 94.7382 -1.13773 1.57383 0
M  V30 1010 C 91.8682 -1.6831 3.03791 0
M  V30 1011 C 90.8222 -1.2236 4.10137 0
M  V30 1012 C 90.1482 -2.46882 4.74293 0
M  V30 1013 C 91.4482 -0.333697 5.21233 0
M  V30 1014 H 93.1422 0.087013 2.99274 0
M  V30 1015 H 90.6882 0.0432893 1.43935 0
M  V30 1016 H 92.6412 -2.28795 3.5388 0
M  V30 1017 H 91.3652 -2.32216 2.29659 0
M  V30 1018 H 90.0242 -0.64165 3.60941 0
M  V30 1019 H 89.6722 -3.09165 3.96769 0
M  V30 1020 H 89.3722 -2.16825 5.46133 0
M  V30 1021 H 90.8962 -3.08117 5.27159 0
M  V30 1022 H 92.3102 -0.845013 5.67038 0
M  V30 1023 H 90.7072 -0.125612 5.99969 0
M  V30 1024 H 91.7772 0.633724 4.80741 0
M  V30 1025 N 93.1203 -1.57491 0.0584922 0
M  V30 1026 C 94.3683 -1.92597 -0.612436 0
M  V30 1027 C 94.6893 -0.938162 -1.70949 0
M  V30 1028 O 93.9593 0.0158301 -1.95894 0
M  V30 1029 H 92.5393 -0.710964 -0.229214 0
M  V30 1030 H 95.2013 -1.94571 0.113218 0
M  V30 1031 H 94.2973 -2.94038 -1.04633 0
M  V30 1032 N 94.5984 0.214957 -1.56127 0
M  V30 1033 C 95.8474 0.936451 -1.78643 0
M  V30 1034 C 96.1604 1.85237 -0.628229 0
M  V30 1035 O 97.3664 2.613 -0.737186 0
M  V30 1036 C 95.8224 1.7154 -3.16389 0
M  V30 1037 C 95.4304 0.845299 -4.39953 0
M  V30 1038 C 97.1744 2.42772 -3.48227 0
M  V30 1039 C 95.0814 1.62198 -5.68723 0
M  V30 1040 H 94.0114 0.353401 -0.666051 0
M  V30 1041 H 96.6624 0.190169 -1.82512 0
M  V30 1042 H 95.0444 2.50484 -3.06715 0
M  V30 1043 H 96.2184 0.0959353 -4.607 0
M  V30 1044 H 94.5334 0.244789 -4.1568 0
M  V30 1045 H 97.1304 3.01394 -4.41663 0
M  V30 1046 H 97.4734 3.15984 -2.71035 0
M  V30 1047 H 98.0064 1.70813 -3.5926 0
M  V30 1048 H 94.7454 0.933011 -6.48826 0
M  V30 1049 H 94.2654 2.34579 -5.52026 0
M  V30 1050 H 95.9444 2.18095 -6.09133 0
M  V30 1051 N 96.0765 1.50051 0.48192 0
M  V30 1052 C 97.0065 1.71046 1.58951 0
M  V30 1053 C 97.9875 0.559288 1.60642 0
M  V30 1054 O 99.1725 0.797243 1.77081 0
M  V30 1055 C 96.3025 1.79462 2.97339 0
M  V30 1056 C 95.2565 2.94558 3.10515 0
M  V30 1057 C 94.5825 2.88105 4.50444 0
M  V30 1058 C 95.8825 4.35227 2.88747 0
M  V30 1059 H 97.5765 2.6378 1.41635 0
M  V30 1060 H 95.1225 1.26936 0.679942 0
M  V30 1061 H 97.0755 1.92734 3.74742 0
M  V30 1062 H 95.7995 0.833412 3.15788 0
M  V30 1063 H 94.4585 2.80918 2.35543 0
M  V30 1064 H 94.1065 1.89853 4.65795 0
M  V30 1065 H 93.8065 3.65366 4.60197 0
M  V30 1066 H 95.3305 3.03412 5.29881 0
M  V30 1067 H 96.7445 4.49449 3.55905 0
M  V30 1068 H 95.1415 5.13856 3.09955 0
M  V30 1069 H 96.2115 4.48347 1.84696 0
M  V30 1070 N 97.5546 -0.734337 1.39446 0
M  V30 1071 C 98.4846 -1.86155 1.40955 0
M  V30 1072 C 99.4656 -1.67898 0.272827 0
M  V30 1073 O 100.651 -1.88207 0.478743 0
M  V30 1074 C 97.7806 -3.23912 1.25294 0
M  V30 1075 C 96.7346 -3.56808 2.36373 0
M  V30 1076 C 96.0606 -4.93508 2.058 0
M  V30 1077 C 97.3606 -3.59713 3.78687 0
M  V30 1078 H 99.0546 -1.8515 2.35287 0
M  V30 1079 H 96.6006 -0.889367 1.13253 0
M  V30 1080 H 98.5536 -4.02443 1.2497 0
M  V30 1081 H 97.2776 -3.25446 0.274308 0
M  V30 1082 H 95.9366 -2.80606 2.35914 0
M  V30 1083 H 95.5846 -4.91623 1.06374 0
M  V30 1084 H 95.2846 -5.16486 2.80208 0
M  V30 1085 H 96.8086 -5.74396 2.07128 0
M  V30 1086 H 98.2226 -4.2832 3.81071 0
M  V30 1087 H 96.6196 -3.94209 4.52459 0
M  V30 1088 H 97.6896 -2.59504 4.09617 0
M  V30 1089 N 99.0327 -1.24633 -0.964593 0
M  V30 1090 C 100.258 -1.11596 -1.74818 0
M  V30 1091 C 100.683 0.32723 -1.85232 0
M  V30 1092 O 100.041 1.23695 -1.32549 0
M  V30 1093 C 100.089 -1.76397 -3.1451 0
M  V30 1094 O 99.1927 -1.03685 -3.99153 0
M  V30 1095 H 98.5337 -0.390196 -0.537255 0
M  V30 1096 H 101.064 -1.65002 -1.20977 0
M  V30 1097 H 101.074 -1.8228 -3.65018 0
M  V30 1098 H 99.7487 -2.81401 -3.06246 0
M  V30 1099 H 98.3257 -1.05611 -3.57632 0
M  V30 1100 N 100.511 1.16574 -1.06058 0
M  V30 1101 C 101.751 1.88723 -0.78504 0
M  V30 1102 C 102.115 1.79706 0.676006 0
M  V30 1103 O 103.316 2.46757 1.06603 0
M  V30 1104 C 101.587 3.34338 -1.26304 0
M  V30 1105 S 103.146 4.24366 -1.1162 0
M  V30 1106 H 99.9638 0.651448 -0.284846 0
M  V30 1107 H 102.566 1.40732 -1.35701 0
M  V30 1108 H 101.27 3.38439 -2.32136 0
M  V30 1109 H 100.801 3.87378 -0.685719 0
M  V30 1110 H 102.816 4.96179 -0.0456539 0
M  V30 1111 N 101.989 0.842826 1.3317 0
M  V30 1112 C 102.922 0.223862 2.27099 0
M  V30 1113 C 103.9 -0.631311 1.49844 0
M  V30 1114 O 105.084 -0.590708 1.79005 0
M  V30 1115 C 102.211 -0.685313 3.31694 0
M  V30 1116 C 101.257 0.094919 4.26394 0
M  V30 1117 S 102.09 1.45546 5.15341 0
M  V30 1118 C 103.246 0.551685 6.23464 0
M  V30 1119 H 103.479 1.02015 2.79249 0
M  V30 1120 H 101.012 0.639797 1.4052 0
M  V30 1121 H 102.97 -1.20426 3.92438 0
M  V30 1122 H 101.631 -1.4553 2.78352 0
M  V30 1123 H 100.824 -0.597059 5.00451 0
M  V30 1124 H 100.426 0.545054 3.70007 0
M  V30 1125 H 102.718 -0.248877 6.77043 0
M  V30 1126 H 103.661 1.26253 6.96754 0
M  V30 1127 H 104.069 0.131275 5.64347 0
M  V30 1128 N 103.467 -1.45747 0.599634 0
M  V30 1129 C 104.716 -2.01502 0.0893511 0
M  V30 1130 C 105.029 -1.4748 -1.28488 0
M  V30 1131 O 106.235 -1.95161 -1.88745 0
M  V30 1132 C 104.691 -3.59735 0.109082 0
M  V30 1133 C 104.299 -4.22754 1.48267 0
M  V30 1134 C 106.043 -4.23085 -0.346374 0
M  V30 1135 C 103.95 -5.73115 1.45921 0
M  V30 1136 H 102.88 -0.753417 0.0296347 0
M  V30 1137 H 105.531 -1.67303 0.753788 0
M  V30 1138 H 103.913 -3.91087 -0.621854 0
M  V30 1139 H 105.087 -4.02987 2.23468 0
M  V30 1140 H 103.402 -3.71567 1.87955 0
M  V30 1141 H 105.999 -5.33327 -0.38298 0
M  V30 1142 H 106.342 -3.93201 -1.36743 0
M  V30 1143 H 106.875 -3.9642 0.331038 0
M  V30 1144 H 103.614 -6.07685 2.45762 0
M  V30 1145 H 103.134 -5.95097 0.749665 0
M  V30 1146 H 104.813 -6.3616 1.17941 0
M  V30 1147 N 104.945 -0.338344 -1.53925 0
M  V30 1148 C 105.908 0.508299 -2.23493 0
M  V30 1149 C 106.908 1.03175 -1.23335 0
M  V30 1150 O 108.098 0.921826 -1.47811 0
M  V30 1151 C 105.23 1.70754 -2.95052 0
M  V30 1152 H 106.423 -0.100058 -2.99733 0
M  V30 1153 H 103.976 -0.0896198 -1.56043 0
M  V30 1154 H 104.711 2.35474 -2.22986 0
M  V30 1155 H 104.496 1.33946 -3.68512 0
M  V30 1156 H 105.986 2.30818 -3.48013 0
M  V30 1157 N 106.423 1.57458 -0.0668435 0
M  V30 1158 C 107.333 2.15937 0.916975 0
M  V30 1159 C 108.349 1.12123 1.33058 0
M  V30 1160 O 109.525 1.44366 1.40429 0
M  V30 1161 C 106.59 2.70547 2.16807 0
M  V30 1162 C 105.651 3.89215 1.81135 0
M  V30 1163 C 104.884 4.41211 3.0028 0
M  V30 1164 O 105.107 3.92225 4.14144 0
M  V30 1165 O 104.041 5.32605 2.80384 0
M  V30 1166 H 107.867 3.00354 0.449561 0
M  V30 1167 H 105.452 1.48584 0.155949 0
M  V30 1168 H 107.334 3.0557 2.90181 0
M  V30 1169 H 106.009 1.89192 2.62656 0
M  V30 1170 H 104.916 3.59054 1.05028 0
M  V30 1171 H 106.249 4.71848 1.40073 0
M  V30 1172 N 107.901 -0.206675 1.56239 0
M  V30 1173 C 108.834 -1.28383 1.88661 0
M  V30 1174 C 109.812 -1.44504 0.745481 0
M  V30 1175 O 110.996 -1.60079 0.995336 0
M  V30 1176 C 108.123 -2.65211 2.10667 0
M  V30 1177 C 107.169 -2.66025 3.33366 0
M  V30 1178 S 108.002 -2.18609 4.88846 0
M  V30 1179 C 109.158 -3.57283 5.13906 0
M  V30 1180 H 109.391 -1.00691 2.7973 0
M  V30 1181 H 106.924 -0.409627 1.48867 0
M  V30 1182 H 108.882 -3.43979 2.24029 0
M  V30 1183 H 107.543 -2.90121 1.20369 0
M  V30 1184 H 106.736 -3.66607 3.45855 0
M  V30 1185 H 106.338 -1.95331 3.18938 0
M  V30 1186 H 108.63 -4.53074 5.03717 0
M  V30 1187 H 109.573 -3.49699 6.15724 0
M  V30 1188 H 109.981 -3.51659 4.41583 0
M  V30 1189 N 109.379 -1.50304 -0.473955 0
M  V30 1190 C 110.342 -1.6841 -1.55469 0
M  V30 1191 C 111.342 -0.554905 -1.50922 0
M  V30 1192 O 112.532 -0.821882 -1.53593 0
M  V30 1193 C 109.664 -1.70667 -2.95102 0
M  V30 1194 H 110.857 -2.64828 -1.40733 0
M  V30 1195 H 108.41 -1.39742 -0.700132 0
M  V30 1196 H 109.145 -0.75932 -3.15285 0
M  V30 1197 H 108.93 -2.52698 -2.9981 0
M  V30 1198 H 110.42 -1.8664 -3.73571 0
M  V30 1199 N 110.857 0.726932 -1.39834 0
M  V30 1200 C 112.106 1.48214 -1.36805 0
M  V30 1201 C 112.419 1.95576 0.0305291 0
M  V30 1202 O 113.625 2.7088 0.183417 0
M  V30 1203 C 112.081 2.67854 -2.40379 0
M  V30 1204 C 111.689 2.27408 -3.85992 0
M  V30 1205 C 113.433 3.45641 -2.46439 0
M  V30 1206 C 111.34 3.43819 -4.81189 0
M  V30 1207 H 110.27 0.556606 -0.508631 0
M  V30 1208 H 112.921 0.792216 -1.65518 0
M  V30 1209 H 111.303 3.3896 -2.04749 0
M  V30 1210 H 112.477 1.63795 -4.30706 0
M  V30 1211 H 110.792 1.62692 -3.83302 0
M  V30 1212 H 113.389 4.32244 -3.14753 0
M  V30 1213 H 113.732 3.88669 -1.49139 0
M  V30 1214 H 114.265 2.8157 -2.81004 0
M  V30 1215 H 111.004 3.05834 -5.79781 0
M  V30 1216 H 110.524 4.06385 -4.41148 0
M  V30 1217 H 112.203 4.10043 -5.00474 0
M  V30 1218 N 112.336 1.25143 0.95797 0
M  V30 1219 C 113.585 1.0909 1.69654 0
M  V30 1220 C 113.898 -0.368548 1.92097 0
M  V30 1221 O 115.104 -0.649455 2.63618 0
M  V30 1222 C 113.56 1.90395 3.05414 0
M  V30 1223 C 113.168 3.4081 2.90779 0
M  V30 1224 C 114.912 1.82901 3.83076 0
M  V30 1225 C 112.819 4.14423 4.21909 0
M  V30 1226 H 111.749 0.404625 0.636235 0
M  V30 1227 H 114.4 1.4931 1.06672 0
M  V30 1228 H 112.782 1.42996 3.69281 0
M  V30 1229 H 113.956 3.95859 2.35865 0
M  V30 1230 H 112.271 3.49361 2.26575 0
M  V30 1231 H 114.868 2.35196 4.80195 0
M  V30 1232 H 115.211 0.796224 4.08615 0
M  V30 1233 H 115.744 2.28033 3.25954 0
M  V30 1234 H 112.483 5.18102 4.01561 0
M  V30 1235 H 112.003 3.64159 4.76601 0
M  V30 1236 H 113.682 4.21956 4.90471 0
M  V30 1237 N 113.814 -1.1601 1.06675 0
M  V30 1238 C 115.06 -1.87145 0.796766 0
M  V30 1239 C 115.415 -1.8037 -0.669658 0
M  V30 1240 O 114.708 -1.21116 -1.48463 0
M  V30 1241 C 114.902 -3.35547 1.23057 0
M  V30 1242 C 114.731 -3.56769 2.73762 0
M  V30 1243 C 113.501 -3.72635 3.41279 0
M  V30 1244 C 115.699 -3.55166 3.7197 0
M  V30 1245 N 113.681 -3.81845 4.80695 0
M  V30 1246 C 115.052 -3.70406 4.97191 0
M  V30 1247 C 117.107 -3.384 3.65226 0
M  V30 1248 C 115.81 -3.70615 6.16471 0
M  V30 1249 C 117.836 -3.39904 4.83962 0
M  V30 1250 C 117.198 -3.55667 6.08013 0
M  V30 1251 H 113.297 -0.702267 0.344014 0
M  V30 1252 H 115.881 -1.39165 1.36166 0
M  V30 1253 H 114.052 -3.82159 0.693456 0
M  V30 1254 H 115.784 -3.94363 0.908844 0
M  V30 1255 H 112.539 -3.73121 2.91681 0
M  V30 1256 H 112.963 -3.90209 5.53232 0
M  V30 1257 H 117.605 -3.25138 2.70269 0
M  V30 1258 H 115.323 -3.82658 7.11757 0
M  V30 1259 H 118.909 -3.28169 4.80413 0
M  V30 1260 H 117.789 -3.56755 6.98352 0
M  V30 1261 N 115.292 -0.849877 -1.32721 0
M  V30 1262 C 116.222 -0.306308 -2.31482 0
M  V30 1263 C 117.203 0.591952 -1.59468 0
M  V30 1264 O 118.388 0.513199 -1.87296 0
M  V30 1265 C 115.518 0.510204 -3.43532 0
M  V30 1266 C 114.472 -0.293209 -4.26994 0
M  V30 1267 C 113.798 0.647743 -5.30762 0
M  V30 1268 C 115.098 -1.51634 -4.99804 0
M  V30 1269 H 116.792 -1.13153 -2.77195 0
M  V30 1270 H 114.338 -0.545553 -1.33266 0
M  V30 1271 H 116.291 0.900856 -4.11658 0
M  V30 1272 H 115.015 1.36874 -2.96535 0
M  V30 1273 H 113.674 -0.665555 -3.60508 0
M  V30 1274 H 113.322 1.50299 -4.8002 0
M  V30 1275 H 113.022 0.11422 -5.87489 0
M  V30 1276 H 114.546 1.03567 -6.01753 0
M  V30 1277 H 115.96 -1.19824 -5.60638 0
M  V30 1278 H 114.357 -1.98745 -5.66234 0
M  V30 1279 H 115.427 -2.28018 -4.27943 0
M  V30 1280 N 116.77 1.45427 -0.607355 0
M  V30 1281 C 117.995 2.07124 -0.107006 0
M  V30 1282 C 118.42 1.44906 1.19933 0
M  V30 1283 O 117.778 0.541687 1.73019 0
M  V30 1284 C 117.826 3.60595 0.0194119 0
M  V30 1285 O 116.93 3.98285 1.0697 0
M  V30 1286 H 116.271 0.659868 -0.0739597 0
M  V30 1287 H 118.801 1.86683 -0.837297 0
M  V30 1288 H 118.811 4.07419 0.2177 0
M  V30 1289 H 117.486 4.05266 -0.934453 0
M  V30 1290 H 116.063 3.63133 0.847889 0
M  V30 1291 N 118.248 0.346503 1.53744 0
M  V30 1292 C 119.181 -0.552023 2.21423 0
M  V30 1293 C 120.159 -1.09798 1.19929 0
M  V30 1294 O 121.343 -1.1577 1.4876 0
M  V30 1295 C 118.47 -1.75972 2.89398 0
M  V30 1296 C 117.516 -1.34295 4.04805 0
M  V30 1297 S 118.349 -0.360263 5.34287 0
M  V30 1298 C 119.505 -1.57473 6.05767 0
M  V30 1299 H 119.738 0.0228119 2.97291 0
M  V30 1300 H 117.271 0.130579 1.53847 0
M  V30 1301 H 119.229 -2.45256 3.2918 0
M  V30 1302 H 117.89 -2.30578 2.1329 0
M  V30 1303 H 117.083 -2.24349 4.51313 0
M  V30 1304 H 116.685 -0.729555 3.66815 0
M  V30 1305 H 118.977 -2.50875 6.29339 0
M  V30 1306 H 119.92 -1.15138 6.98676 0
M  V30 1307 H 120.328 -1.77212 5.35963 0
M  V30 1308 N 119.726 -1.57421 0.075193 0
M  V30 1309 C 121.142 -1.57099 -0.281444 0
M  V30 1310 C 121.342 -1.08486 -1.69803 0
M  V30 1311 O 120.398 -0.752279 -2.41033 0
M  V30 1312 C 121.711 -3.00571 -0.0880041 0
M  V30 1313 C 123.259 -3.12605 -0.157281 0
M  V30 1314 C 123.734 -4.57999 0.0079207 0
M  V30 1315 N 125.225 -4.63176 -0.0475725 0
M  V30 1316 C 125.96 -5.73373 0.0557876 0
M  V30 1317 N 125.456 -6.92473 0.21286 0
M  V30 1318 N 127.249 -5.621 -0.00152098 0
M  V30 1319 H 119.4 -1.87335 1.00098 0
M  V30 1320 H 121.663 -0.86377 0.390646 0
M  V30 1321 H 121.369 -3.40262 0.889629 0
M  V30 1322 H 121.243 -3.67754 -0.838875 0
M  V30 1323 H 123.63 -2.72798 -1.1254 0
M  V30 1324 H 123.711 -2.48053 0.62475 0
M  V30 1325 H 123.355 -4.98496 0.972824 0
M  V30 1326 H 123.285 -5.20586 -0.793556 0
M  V30 1327 H 125.776 -3.7753 -0.167244 0
M  V30 1328 H 126.089 -7.72279 0.283781 0
M  V30 1329 H 124.434 -6.94556 0.248267 0
M  V30 1330 H 127.625 -4.67938 -0.122958 0
M  V30 1331 H 127.798 -6.47948 0.0824844 0
M  V30 1332 N 121.204 0.198386 -1.56346 0
M  V30 1333 C 122.452 0.91747 -1.80075 0
M  V30 1334 C 122.773 1.83929 -0.647692 0
M  V30 1335 O 122.043 1.93029 0.334166 0
M  V30 1336 H 120.623 0.341774 -0.664228 0
M  V30 1337 H 123.285 0.204684 -1.93822 0
M  V30 1338 H 122.381 1.51055 -2.7311 0
M  V30 1339 N 122.682 1.50554 0.465978 0
M  V30 1340 C 123.93 1.61479 1.21528 0
M  V30 1341 C 124.251 0.319596 1.92363 0
M  V30 1342 O 123.521 -0.663194 1.84333 0
M  V30 1343 H 122.101 0.595055 0.451573 0
M  V30 1344 H 124.763 1.87355 0.53704 0
M  V30 1345 H 123.859 2.42846 1.96042 0
M  V30 1346 N 124.16 -0.719506 1.40217 0
M  V30 1347 C 125.409 -1.47486 1.37589 0
M  V30 1348 C 125.722 -1.9559 -0.0201568 0
M  V30 1349 O 126.928 -2.70973 -0.169049 0
M  V30 1350 C 125.384 -2.66575 2.41796 0
M  V30 1351 C 124.992 -2.25358 3.87192 0
M  V30 1352 C 126.736 -3.4433 2.48269 0
M  V30 1353 C 124.643 -3.41262 4.83005 0
M  V30 1354 H 123.573 -0.553901 0.511576 0
M  V30 1355 H 126.224 -0.783427 1.65936 0
M  V30 1356 H 124.606 -3.3787 2.06543 0
M  V30 1357 H 125.78 -1.61509 4.31569 0
M  V30 1358 H 124.095 -1.60657 3.84159 0
M  V30 1359 H 126.692 -4.30569 3.17041 0
M  V30 1360 H 127.035 -3.87872 1.51198 0
M  V30 1361 H 127.568 -2.80076 2.82493 0
M  V30 1362 H 124.307 -3.02755 5.81394 0
M  V30 1363 H 123.827 -4.0404 4.43297 0
M  V30 1364 H 125.506 -4.07383 5.02641 0
M  V30 1365 N 125.638 -1.25649 -0.95132 0
M  V30 1366 C 126.568 -1.08808 -2.06599 0
M  V30 1367 C 127.549 0.00382547 -1.701 0
M  V30 1368 O 128.734 -0.166325 -1.93486 0
M  V30 1369 C 125.864 -0.709542 -3.39975 0
M  V30 1370 C 124.818 -1.75206 -3.90496 0
M  V30 1371 C 124.144 -1.22811 -5.20405 0
M  V30 1372 C 125.444 -3.15153 -4.16504 0
M  V30 1373 H 127.138 -2.02048 -2.20946 0
M  V30 1374 H 124.684 -0.972835 -1.06169 0
M  V30 1375 H 126.637 -0.578649 -4.17408 0
M  V30 1376 H 125.361 0.258556 -3.25575 0
M  V30 1377 H 124.02 -1.87145 -3.15234 0
M  V30 1378 H 123.668 -0.250145 -5.02378 0
M  V30 1379 H 123.368 -1.92492 -5.55176 0
M  V30 1380 H 124.892 -1.10968 -6.00432 0
M  V30 1381 H 126.306 -3.06349 -4.84586 0
M  V30 1382 H 124.703 -3.82333 -4.62538 0
M  V30 1383 H 125.773 -3.61966 -3.22658 0
M  V30 1384 N 127.117 1.15442 -1.07289 0
M  V30 1385 C 128.347 1.89821 -0.815576 0
M  V30 1386 C 128.755 1.7823 0.634867 0
M  V30 1387 O 128.098 1.13152 1.44715 0
M  V30 1388 C 128.16 3.40817 -1.14385 0
M  V30 1389 C 127.824 3.76193 -2.59476 0
M  V30 1390 C 128.821 3.77269 -3.57721 0
M  V30 1391 C 126.506 4.0652 -2.95037 0
M  V30 1392 C 128.5 4.08176 -4.89562 0
M  V30 1393 C 126.187 4.37092 -4.27076 0
M  V30 1394 C 127.185 4.37902 -5.24148 0
M  V30 1395 O 126.873 4.67741 -6.53815 0
M  V30 1396 H 126.605 0.608465 -0.294528 0
M  V30 1397 H 129.159 1.472 -1.43252 0
M  V30 1398 H 127.389 3.83835 -0.469865 0
M  V30 1399 H 129.078 3.96485 -0.869179 0
M  V30 1400 H 129.844 3.5394 -3.3159 0
M  V30 1401 H 125.723 4.05049 -2.20128 0
M  V30 1402 H 129.267 4.08723 -5.65324 0
M  V30 1403 H 125.164 4.59889 -4.5296 0
M  V30 1404 H 125.932 4.85509 -6.58957 0
M  V30 1405 N 128.595 0.856903 1.32268 0
M  V30 1406 C 129.823 0.475439 2.01363 0
M  V30 1407 C 130.238 -0.928486 1.64392 0
M  V30 1408 O 129.595 -1.60624 0.866387 0
M  V30 1409 C 129.646 0.607545 3.56358 0
M  V30 1410 O 129.367 1.95617 3.92002 0
M  V30 1411 C 130.868 0.225382 4.42727 0
M  V30 1412 H 128.088 0.186636 0.644521 0
M  V30 1413 H 130.632 1.15446 1.68797 0
M  V30 1414 H 128.787 -0.0237719 3.87393 0
M  V30 1415 H 129.201 1.95455 4.86721 0
M  V30 1416 H 130.675 0.368813 5.50767 0
M  V30 1417 H 131.152 -0.834369 4.31202 0
M  V30 1418 H 131.758 0.831864 4.17085 0
M  V30 1419 N 130.073 -1.45103 0.615059 0
M  V30 1420 C 130.983 -2.34382 -0.101034 0
M  V30 1421 C 131.999 -1.51681 -0.852585 0
M  V30 1422 O 133.175 -1.8446 -0.808484 0
M  V30 1423 C 130.24 -3.29417 -1.08099 0
M  V30 1424 C 129.301 -4.28025 -0.330577 0
M  V30 1425 C 128.534 -5.1852 -1.26385 0
M  V30 1426 O 128.757 -5.12598 -2.50198 0
M  V30 1427 O 127.691 -5.97122 -0.756866 0
M  V30 1428 H 131.517 -2.97033 0.632855 0
M  V30 1429 H 129.102 -1.4461 0.375293 0
M  V30 1430 H 130.984 -3.87958 -1.6452 0
M  V30 1431 H 129.659 -2.69321 -1.79577 0
M  V30 1432 H 128.566 -3.73078 0.276283 0
M  V30 1433 H 129.899 -4.90997 0.343866 0
M  V30 1434 N 131.551 -0.354651 -1.53558 0
M  V30 1435 C 132.962 0.126902 -1.86268 0
M  V30 1436 C 133.313 1.49075 -1.27558 0
M  V30 1437 O 132.438 2.08105 -0.5934 0
M  V30 1438 C 133.033 0.237046 -3.3797 0
M  V30 1439 C 131.592 0.662842 -3.70518 0
M  V30 1440 C 130.739 -0.196652 -2.76602 0
M  V30 1441 H 133.69 -0.573849 -1.47962 0
M  V30 1442 H 133.711 1.06259 -3.65362 0
M  V30 1443 H 133.223 -0.755725 -3.80671 0
M  V30 1444 H 131.324 1.66424 -3.33367 0
M  V30 1445 H 131.437 0.445034 -4.77029 0
M  V30 1446 H 129.801 0.332763 -2.52517 0
M  V30 1447 H 130.584 -1.18676 -3.22135 0
M  V30 1448 N 133.029 1.57378 -0.0835403 0
M  V30 1449 C 134.445 1.57246 0.273109 0
M  V30 1450 C 134.645 1.09385 1.69225 0
M  V30 1451 O 133.701 0.765051 2.40631 0
M  V30 1452 C 135.014 3.00614 0.0720628 0
M  V30 1453 C 136.562 3.12684 0.1407 0
M  V30 1454 C 137.037 4.57989 -0.0322094 0
M  V30 1455 N 138.528 4.63194 0.0230085 0
M  V30 1456 C 139.263 5.73335 -0.0861941 0
M  V30 1457 N 138.759 6.9235 -0.24958 0
M  V30 1458 N 140.552 5.62093 -0.0282886 0
M  V30 1459 H 132.703 1.86801 -1.0109 0
M  V30 1460 H 134.966 0.861687 -0.395222 0
M  V30 1461 H 134.672 3.39786 -0.907662 0
M  V30 1462 H 134.546 3.68193 0.81936 0
M  V30 1463 H 136.933 2.73391 1.11092 0
M  V30 1464 H 137.014 2.47719 -0.637896 0
M  V30 1465 H 136.658 4.97973 -0.999247 0
M  V30 1466 H 136.588 5.21 0.765937 0
M  V30 1467 H 139.079 3.77613 0.14722 0
M  V30 1468 H 139.392 7.72117 -0.324733 0
M  V30 1469 H 137.737 6.94415 -0.285097 0
M  V30 1470 H 140.928 4.67997 0.0981408 0
M  V30 1471 H 141.101 6.47895 -0.116845 0
M  V30 1472 N 134.507 -0.190092 1.56449 0
M  V30 1473 C 135.784 -0.935886 1.71757 0
M  V30 1474 C 136.164 -2.01173 0.639726 0
M  V30 1475 O 135.512 -2.25827 -0.348502 0
M  V30 1476 C 135.722 -1.51775 3.1427 0
M  V30 1477 C 137.07 -1.99794 3.74656 0
M  V30 1478 O 138.094 -1.61607 3.1743 0
M  V30 1479 O 136.953 -2.70079 4.751 0
M  V30 1480 H 134.047 -0.439229 0.700719 0
M  V30 1481 H 136.593 -0.179395 1.68749 0
M  V30 1482 H 135.365 -0.742505 3.84191 0
M  V30 1483 H 134.988 -2.33894 3.21527 0
M  V30 1484 N 135.985 -1.50799 -0.457987 0
M  V30 1485 C 137.21 -1.66496 -1.23668 0
M  V30 1486 C 137.635 -0.353288 -1.84752 0
M  V30 1487 O 136.993 0.684346 -1.67888 0
M  V30 1488 C 137.041 -2.76763 -2.3116 0
M  V30 1489 O 136.145 -2.38928 -3.36136 0
M  V30 1490 H 135.486 -0.555828 -0.363252 0
M  V30 1491 H 138.016 -1.9725 -0.543474 0
M  V30 1492 H 138.026 -3.00232 -2.76269 0
M  V30 1493 H 136.701 -3.71954 -1.86073 0
M  V30 1494 H 135.278 -2.25953 -2.96647 0
M  V30 1495 N 137.463 0.71206 -1.40597 0
M  V30 1496 C 138.396 1.83582 -1.35546 0
M  V30 1497 C 139.374 1.61032 -0.225284 0
M  V30 1498 O 140.558 1.83998 -0.409519 0
M  V30 1499 C 137.685 3.19983 -1.11034 0
M  V30 1500 C 136.731 3.61355 -2.2655 0
M  V30 1501 S 137.564 3.68062 -3.88961 0
M  V30 1502 C 138.72 5.07216 -3.66719 0
M  V30 1503 H 138.953 1.87586 -2.30648 0
M  V30 1504 H 136.486 0.879182 -1.26924 0
M  V30 1505 H 138.444 3.98734 -0.975761 0
M  V30 1506 H 137.105 3.13608 -0.175798 0
M  V30 1507 H 136.298 4.60403 -2.0505 0
M  V30 1508 H 135.9 2.8987 -2.36329 0
M  V30 1509 H 138.192 5.94238 -3.25404 0
M  V30 1510 H 139.135 5.33753 -4.6531 0
M  V30 1511 H 139.543 4.77976 -3.00332 0
M  V30 1512 N 138.941 1.26152 0.944643 0
M  V30 1513 C 139.891 1.04081 2.02857 0
M  V30 1514 C 140.875 -0.0256555 1.6088 0
M  V30 1515 O 142.067 0.190884 1.75968 0
M  V30 1516 C 139.196 0.672118 3.36656 0
M  V30 1517 C 138.282 1.77586 3.85128 0
M  V30 1518 N 138.673 3.01272 4.06287 0
M  V30 1519 C 136.971 1.65867 4.1401 0
M  V30 1520 C 137.672 3.72983 4.46384 0
M  V30 1521 N 136.648 3.00653 4.52889 0
M  V30 1522 H 140.45 1.97968 2.17223 0
M  V30 1523 H 137.964 1.16618 1.13022 0
M  V30 1524 H 139.961 0.495166 4.13949 0
M  V30 1525 H 138.621 -0.259307 3.23663 0
M  V30 1526 H 139.632 3.37213 3.93075 0
M  V30 1527 H 136.309 0.796907 4.09824 0
M  V30 1528 H 137.699 4.792 4.70975 0
M  V30 1529 N 140.419 -1.14872 1.07899 0
M  V30 1530 C 141.369 -2.17809 0.674027 0
M  V30 1531 C 142.353 -1.58008 -0.303699 0
M  V30 1532 O 143.545 -1.76616 -0.11654 0
M  V30 1533 C 140.674 -3.43208 0.0793318 0
M  V30 1534 C 139.76 -4.10051 1.08253 0
M  V30 1535 N 140.151 -4.52296 2.2641 0
M  V30 1536 C 138.449 -4.36469 0.917124 0
M  V30 1537 C 139.15 -5.04199 2.901 0
M  V30 1538 N 138.126 -4.98088 2.17736 0
M  V30 1539 H 141.928 -2.48207 1.57386 0
M  V30 1540 H 139.442 -1.315 0.952976 0
M  V30 1541 H 141.439 -4.16272 -0.228719 0
M  V30 1542 H 140.099 -3.14291 -0.815551 0
M  V30 1543 H 141.11 -4.45504 2.64096 0
M  V30 1544 H 137.787 -4.17432 0.0756078 0
M  V30 1545 H 139.177 -5.46802 3.90458 0
M  V30 1546 N 141.898 -0.863906 -1.31812 0
M  V30 1547 C 143.309 -0.52522 -1.7916 0
M  V30 1548 C 143.66 0.957518 -1.71248 0
M  V30 1549 O 142.785 1.74734 -1.27659 0
M  V30 1550 C 143.38 -0.9466 -3.25307 0
M  V30 1551 C 141.939 -0.659668 -3.70574 0
M  V30 1552 C 141.086 -1.14126 -2.52726 0
M  V30 1553 H 144.037 -1.05022 -1.1898 0
M  V30 1554 H 144.058 -0.266766 -3.79564 0
M  V30 1555 H 143.57 -2.02579 -3.31034 0
M  V30 1556 H 141.671 0.408416 -3.70355 0
M  V30 1557 H 141.784 -1.23245 -4.62977 0
M  V30 1558 H 140.148 -0.561216 -2.4844 0
M  V30 1559 H 140.931 -2.22775 -2.61201 0
M  V30 1560 N 143.376 1.44774 -0.622745 0
M  V30 1561 C 144.624 2.01721 -0.123655 0
M  V30 1562 C 144.945 1.49172 1.25589 0
M  V30 1563 O 144.215 0.691974 1.83272 0
M  V30 1564 H 142.795 0.745777 -0.0427225 0
M  V30 1565 H 145.457 1.77382 -0.807559 0
M  V30 1566 H 144.553 3.11984 -0.0849534 0
M  V30 1567 N 144.854 0.36279 1.53368 0
M  V30 1568 C 146.131 -0.284021 1.93527 0
M  V30 1569 C 146.511 -1.66628 1.29608 0
M  V30 1570 O 145.859 -2.23942 0.45413 0
M  V30 1571 C 146.069 -0.337028 3.47369 0
M  V30 1572 C 147.417 -0.578708 4.20638 0
M  V30 1573 O 148.441 -0.418352 3.53735 0
M  V30 1574 O 147.3 -0.89074 5.39192 0
M  V30 1575 H 144.394 -0.169743 0.809393 0
M  V30 1576 H 146.94 0.41537 1.64538 0
M  V30 1577 H 145.712 0.632217 3.86159 0
M  V30 1578 H 145.335 -1.08243 3.82582 0
M  V30 1579 N 146.332 -1.57332 0.0918853 0
M  V30 1580 C 147.748 -1.57389 -0.264766 0
M  V30 1581 C 147.948 -1.10281 -1.68643 0
M  V30 1582 O 147.004 -0.777801 -2.40222 0
M  V30 1583 C 148.317 -3.00648 -0.0561195 0
M  V30 1584 C 149.865 -3.12754 -0.124116 0
M  V30 1585 C 150.34 -4.57965 0.0564972 0
M  V30 1586 N 151.831 -4.632 0.00155611 0
M  V30 1587 C 152.566 -5.73281 0.116598 0
M  V30 1588 N 152.062 -6.92208 0.286294 0
M  V30 1589 N 153.855 -5.6207 0.0580973 0
M  V30 1590 H 146.006 -1.86262 1.02079 0
M  V30 1591 H 148.269 -0.859579 0.399786 0
M  V30 1592 H 147.975 -3.393 0.925669 0
M  V30 1593 H 147.849 -3.68623 -0.799823 0
M  V30 1594 H 150.236 -2.73976 -1.09641 0
M  V30 1595 H 150.317 -2.47377 0.651024 0
M  V30 1596 H 149.961 -4.97436 1.02564 0
M  V30 1597 H 149.891 -5.21399 -0.738297 0
M  V30 1598 H 152.382 -3.77686 -0.127192 0
M  V30 1599 H 152.695 -7.71934 0.365676 0
M  V30 1600 H 151.04 -6.94254 0.32192 0
M  V30 1601 H 154.231 -4.68043 -0.0733204 0
M  V30 1602 H 154.404 -6.47824 0.151203 0
M  V30 1603 N 147.81 0.181792 -1.56548 0
M  V30 1604 C 149.056 0.901431 -1.81665 0
M  V30 1605 C 149.389 1.82347 -0.668075 0
M  V30 1606 O 148.664 1.91669 0.330615 0
M  V30 1607 C 148.947 1.70618 -3.17115 0
M  V30 1608 C 148.8 0.807964 -4.42484 0
M  V30 1609 C 150.119 2.67605 -3.49393 0
M  V30 1610 H 147.238 0.32627 -0.660846 0
M  V30 1611 H 149.88 0.168134 -1.89255 0
M  V30 1612 H 148.03 2.33133 -3.10775 0
M  V30 1613 H 149.702 0.19649 -4.60881 0
M  V30 1614 H 147.945 0.115411 -4.33646 0
M  V30 1615 H 148.616 1.40632 -5.33785 0
M  V30 1616 H 151.092 2.15218 -3.56118 0
M  V30 1617 H 149.968 3.20985 -4.45264 0
M  V30 1618 H 150.229 3.47298 -2.73563 0
M  V30 1619 N 149.288 1.51039 0.449983 0
M  V30 1620 C 150.238 1.67824 1.54335 0
M  V30 1621 C 151.222 0.5324 1.51836 0
M  V30 1622 O 152.414 0.787762 1.58503 0
M  V30 1623 C 149.543 1.7951 2.92628 0
M  V30 1624 C 148.629 2.99838 2.9993 0
M  V30 1625 N 149.02 4.23207 2.77001 0
M  V30 1626 C 147.318 2.98832 3.31082 0
M  V30 1627 C 148.019 5.04361 2.89818 0
M  V30 1628 N 146.995 4.38746 3.2094 0
M  V30 1629 H 150.797 2.60884 1.35339 0
M  V30 1630 H 148.311 1.48513 0.657085 0
M  V30 1631 H 150.308 1.89642 3.7127 0
M  V30 1632 H 148.968 0.876227 3.12654 0
M  V30 1633 H 149.979 4.5236 2.52172 0
M  V30 1634 H 146.656 2.16527 3.56963 0
M  V30 1635 H 148.046 6.12528 2.76151 0
M  V30 1636 N 150.766 -0.704594 1.40972 0
M  V30 1637 C 151.696 -1.83124 1.44872 0
M  V30 1638 C 152.677 -1.67281 0.30838 0
M  V30 1639 O 153.862 -1.87149 0.518556 0
M  V30 1640 C 150.992 -3.21181 1.32136 0
M  V30 1641 C 149.946 -3.51714 2.43888 0
M  V30 1642 C 149.272 -4.89032 2.16222 0
M  V30 1643 C 150.572 -3.516 3.86232 0
M  V30 1644 H 152.266 -1.80117 2.39161 0
M  V30 1645 H 149.812 -0.865145 1.15114 0
M  V30 1646 H 151.765 -3.99702 1.33479 0
M  V30 1647 H 150.489 -3.24791 0.343279 0
M  V30 1648 H 149.148 -2.75539 2.41813 0
M  V30 1649 H 148.796 -4.89256 1.16778 0
M  V30 1650 H 148.496 -5.10426 2.911 0
M  V30 1651 H 150.02 -5.69873 2.19265 0
M  V30 1652 H 151.434 -4.2014 3.9007 0
M  V30 1653 H 149.831 -3.84523 4.60719 0
M  V30 1654 H 150.901 -2.50757 4.15029 0
M  V30 1655 N 152.244 -1.26651 -0.937939 0
M  V30 1656 C 153.66 -1.03834 -1.21205 0
M  V30 1657 C 153.86 0.234502 -2.00131 0
M  V30 1658 O 152.916 0.942767 -2.3424 0
M  V30 1659 C 154.229 -2.27167 -1.97017 0
M  V30 1660 C 155.777 -2.32101 -2.09996 0
M  V30 1661 C 156.252 -3.55136 -2.8921 0
M  V30 1662 N 157.743 -3.55632 -2.96783 0
M  V30 1663 C 158.478 -4.475 -3.58512 0
M  V30 1664 N 157.974 -5.4966 -4.21717 0
M  V30 1665 N 159.767 -4.35145 -3.55816 0
M  V30 1666 H 151.918 -2.08398 -0.410391 0
M  V30 1667 H 154.181 -0.916031 -0.244114 0
M  V30 1668 H 153.887 -3.19765 -1.46434 0
M  V30 1669 H 153.761 -2.31672 -2.97671 0
M  V30 1670 H 156.148 -1.40015 -2.59769 0
M  V30 1671 H 156.229 -2.31605 -1.08594 0
M  V30 1672 H 155.873 -4.47553 -2.40123 0
M  V30 1673 H 155.803 -3.5288 -3.90875 0
M  V30 1674 H 158.294 -2.81743 -2.51852 0
M  V30 1675 H 158.607 -6.15943 -4.66727 0
M  V30 1676 H 156.952 -5.53514 -4.20294 0
M  V30 1677 H 160.143 -3.5455 -3.05634 0
M  V30 1678 H 160.316 -5.06934 -4.03636 0
M  V30 1679 N 153.722 1.14298 -1.08507 0
M  V30 1680 C 154.672 2.17449 -0.685569 0
M  V30 1681 C 155.656 1.58167 0.295315 0
M  V30 1682 O 156.848 1.76675 0.107172 0
M  V30 1683 C 153.977 3.43161 -0.0975318 0
M  V30 1684 C 153.063 4.09471 -1.10426 0
M  V30 1685 N 153.454 4.51089 -2.28806 0
M  V30 1686 C 151.752 4.35976 -0.940258 0
M  V30 1687 C 152.453 5.02654 -2.9277 0
M  V30 1688 N 151.429 4.96927 -2.20374 0
M  V30 1689 H 155.231 2.47369 -1.587 0
M  V30 1690 H 152.745 1.30992 -0.959936 0
M  V30 1691 H 154.742 4.16388 0.20664 0
M  V30 1692 H 153.402 3.14719 0.798872 0
M  V30 1693 H 154.413 4.44097 -2.66455 0
M  V30 1694 H 151.09 4.17386 -0.0977441 0
M  V30 1695 H 152.48 5.44723 -3.93352 0
M  V30 1696 N 155.201 0.870884 1.31352 0
M  V30 1697 C 156.617 0.562932 1.49343 0
M  V30 1698 C 156.817 -0.902725 1.80148 0
M  V30 1699 O 155.873 -1.68484 1.88067 0
M  V30 1700 C 157.186 1.46393 2.62659 0
M  V30 1701 C 158.734 1.46607 2.76542 0
M  V30 1702 C 159.209 2.35266 3.92955 0
M  V30 1703 N 160.7 2.33151 4.00243 0
M  V30 1704 C 161.435 2.98471 4.89594 0
M  V30 1705 N 160.931 3.72964 5.8384 0
M  V30 1706 N 162.724 2.87775 4.82848 0
M  V30 1707 H 154.875 1.81923 1.09626 0
M  V30 1708 H 157.138 0.777934 0.541777 0
M  V30 1709 H 156.844 2.50689 2.46674 0
M  V30 1710 H 156.718 1.16314 3.58819 0
M  V30 1711 H 159.105 0.43069 2.9194 0
M  V30 1712 H 159.186 1.8071 1.81046 0
M  V30 1713 H 158.83 3.38881 3.78315 0
M  V30 1714 H 158.76 1.98487 4.87761 0
M  V30 1715 H 161.251 1.79006 3.32814 0
M  V30 1716 H 161.564 4.19932 6.4875 0
M  V30 1717 H 159.909 3.77073 5.83816 0
M  V30 1718 H 163.1 2.29116 4.08195 0
M  V30 1719 H 163.273 3.38961 5.52277 0
M  V30 1720 N 156.679 -1.44442 0.630414 0
M  V30 1721 C 157.927 -2.01653 0.134351 0
M  V30 1722 C 158.248 -1.49836 -1.24796 0
M  V30 1723 O 157.518 -0.701684 -1.82902 0
M  V30 1724 H 156.098 -0.74554 0.0466769 0
M  V30 1725 H 158.76 -1.76952 0.816955 0
M  V30 1726 H 157.856 -3.11935 0.101498 0
M  V30 1727 N 158.157 -0.370918 -1.53173 0
M  V30 1728 C 159.107 0.489588 -2.22681 0
M  V30 1729 C 160.091 1.04442 -1.22395 0
M  V30 1730 O 161.283 0.973578 -1.47819 0
M  V30 1731 C 158.412 1.626 -3.02351 0
M  V30 1732 C 157.498 1.08379 -4.10018 0
M  V30 1733 N 157.889 0.265004 -5.05105 0
M  V30 1734 C 156.187 1.35809 -4.2482 0
M  V30 1735 C 156.888 -0.0324755 -5.81691 0
M  V30 1736 N 155.864 0.566581 -5.40639 0
M  V30 1737 H 159.666 -0.142729 -2.93553 0
M  V30 1738 H 157.18 -0.179221 -1.61408 0
M  V30 1739 H 159.177 2.2547 -3.50669 0
M  V30 1740 H 157.837 2.26132 -2.33011 0
M  V30 1741 H 158.848 -0.0962352 -5.17811 0
M  V30 1742 H 155.525 1.9958 -3.66707 0
M  V30 1743 H 156.915 -0.69473 -6.68299 0
M  V30 1744 N 159.635 1.57281 -0.100228 0
M  V30 1745 C 161.051 1.57527 0.256416 0
M  V30 1746 C 161.251 1.11173 1.68056 0
M  V30 1747 O 160.307 0.79053 2.39806 0
M  V30 1748 C 161.62 3.00673 0.0401747 0
M  V30 1749 C 163.168 3.12815 0.107528 0
M  V30 1750 C 163.643 4.57929 -0.0807834 0
M  V30 1751 N 165.134 4.63193 -0.0261207 0
M  V30 1752 C 165.869 5.73212 -0.146999 0
M  V30 1753 N 165.365 6.92047 -0.322999 0
M  V30 1754 N 167.158 5.62031 -0.0879044 0
M  V30 1755 H 159.309 1.85718 -1.03065 0
M  V30 1756 H 161.572 0.857446 -0.404339 0
M  V30 1757 H 161.278 3.38804 -0.943649 0
M  V30 1758 H 161.152 3.69042 0.780262 0
M  V30 1759 H 163.539 2.74554 1.08186 0
M  V30 1760 H 163.62 2.47028 -0.664134 0
M  V30 1761 H 163.264 4.96886 -1.05201 0
M  V30 1762 H 163.194 5.21783 0.710635 0
M  V30 1763 H 165.685 3.77748 0.107161 0
M  V30 1764 H 165.998 7.7173 -0.406608 0
M  V30 1765 H 164.343 6.94074 -0.358733 0
M  V30 1766 H 167.534 4.68075 0.048498 0
M  V30 1767 H 167.707 6.47734 -0.185557 0
M  V30 1768 N 161.113 -0.173488 1.56642 0
M  V30 1769 C 162.043 -1.2171 1.99271 0
M  V30 1770 C 163.024 -1.46289 0.867959 0
M  V30 1771 O 164.209 -1.5766 1.13388 0
M  V30 1772 C 161.339 -2.55651 2.35074 0
M  V30 1773 C 160.293 -2.45645 3.50489 0
M  V30 1774 C 159.619 -3.84056 3.72028 0
M  V30 1775 C 160.919 -1.96302 4.84007 0
M  V30 1776 H 162.613 -0.86275 2.867 0
M  V30 1777 H 160.159 -0.413571 1.37933 0
M  V30 1778 H 162.112 -3.2886 2.63494 0
M  V30 1779 H 160.836 -2.92869 1.44552 0
M  V30 1780 H 159.495 -1.7489 3.22194 0
M  V30 1781 H 159.143 -4.18664 2.788 0
M  V30 1782 H 158.843 -3.7823 4.49684 0
M  V30 1783 H 160.367 -4.58854 4.02846 0
M  V30 1784 H 161.781 -2.59284 5.11317 0
M  V30 1785 H 160.178 -2.01429 5.65284 0
M  V30 1786 H 161.248 -0.917226 4.76146 0
M  V30 1787 N 162.591 -1.51276 -0.441967 0
M  V30 1788 C 163.554 -1.7167 -1.51862 0
M  V30 1789 C 164.554 -0.586793 -1.49711 0
M  V30 1790 O 165.744 -0.854276 -1.51815 0
M  V30 1791 C 162.876 -1.76889 -2.91416 0
M  V30 1792 H 164.069 -2.67754 -1.35084 0
M  V30 1793 H 161.622 -1.41196 -0.670333 0
M  V30 1794 H 162.357 -0.826026 -3.13604 0
M  V30 1795 H 162.142 -2.59001 -2.94382 0
M  V30 1796 H 163.632 -1.94522 -3.69528 0
M  V30 1797 N 164.069 0.697108 -1.41344 0
M  V30 1798 C 165.019 1.80313 -1.39539 0
M  V30 1799 C 166.003 1.58618 -0.270001 0
M  V30 1800 O 167.195 1.69477 -0.510551 0
M  V30 1801 C 164.324 3.18606 -1.27848 0
M  V30 1802 C 163.41 3.46001 -2.45244 0
M  V30 1803 N 163.801 3.44103 -3.70711 0
M  V30 1804 C 162.099 3.76542 -2.39023 0
M  V30 1805 C 162.8 3.7036 -4.48563 0
M  V30 1806 N 161.776 3.90027 -3.78655 0
M  V30 1807 H 165.578 1.77207 -2.34468 0
M  V30 1808 H 163.092 0.897031 -1.35378 0
M  V30 1809 H 165.089 3.97833 -1.24637 0
M  V30 1810 H 163.749 3.22925 -0.339032 0
M  V30 1811 H 164.76 3.2452 -4.03618 0
M  V30 1812 H 161.437 3.88241 -1.53542 0
M  V30 1813 H 162.827 3.75042 -5.57488 0
M  V30 1814 N 165.547 1.27147 0.931209 0
M  V30 1815 C 166.772 1.16191 1.71797 0
M  V30 1816 C 167.197 -0.278004 1.86034 0
M  V30 1817 O 166.555 -1.20137 1.35782 0
M  V30 1818 C 166.603 1.84673 3.09723 0
M  V30 1819 O 165.707 1.14231 3.96264 0
M  V30 1820 H 165.048 0.404303 0.526721 0
M  V30 1821 H 167.578 1.68152 1.1656 0
M  V30 1822 H 167.588 1.91893 3.60057 0
M  V30 1823 H 166.263 2.89421 2.98677 0
M  V30 1824 H 164.84 1.15056 3.54706 0
M  V30 1825 N 167.025 -1.13721 1.09112 0
M  V30 1826 C 168.271 -1.85198 0.826414 0
M  V30 1827 C 168.604 -1.83129 -0.646319 0
M  V30 1828 O 167.879 -1.2671 -1.47563 0
M  V30 1829 C 168.162 -3.33507 1.35812 0
M  V30 1830 C 168.015 -3.44108 2.89672 0
M  V30 1831 C 169.334 -4.28838 0.989256 0
M  V30 1832 H 166.453 -0.67243 0.301675 0
M  V30 1833 H 169.095 -1.33499 1.35197 0
M  V30 1834 H 167.245 -3.77666 0.911082 0
M  V30 1835 H 168.917 -3.08684 3.428 0
M  V30 1836 H 167.16 -2.85087 3.26967 0
M  V30 1837 H 167.831 -4.48388 3.21951 0
M  V30 1838 H 170.307 -3.92734 1.37475 0
M  V30 1839 H 169.183 -5.31051 1.38838 0
M  V30 1840 H 169.444 -4.4198 -0.102924 0
M  V30 1841 N 168.503 -0.877838 -1.30888 0
M  V30 1842 C 169.433 -0.35534 -2.3078 0
M  V30 1843 C 170.414 0.557994 -1.60687 0
M  V30 1844 O 171.599 0.473355 -1.88343 0
M  V30 1845 C 168.729 0.437221 -3.44537 0
M  V30 1846 C 167.683 -0.383715 -4.26276 0
M  V30 1847 C 167.009 0.535014 -5.32017 0
M  V30 1848 C 168.309 -1.62201 -4.96476 0
M  V30 1849 H 170.003 -1.19007 -2.74732 0
M  V30 1850 H 167.549 -0.573698 -1.32078 0
M  V30 1851 H 169.502 0.813334 -4.13477 0
M  V30 1852 H 168.226 1.30553 -2.99372 0
M  V30 1853 H 166.885 -0.741874 -3.59015 0
M  V30 1854 H 166.533 1.40083 -4.831 0
M  V30 1855 H 166.233 -0.0104211 -5.87599 0
M  V30 1856 H 167.757 0.907799 -6.03814 0
M  V30 1857 H 169.171 -1.31689 -5.5797 0
M  V30 1858 H 167.568 -2.10711 -5.61891 0
M  V30 1859 H 168.638 -2.37044 -4.23011 0
M  V30 1860 N 169.982 1.44106 -0.638065 0
M  V30 1861 C 170.932 2.27843 0.0847285 0
M  V30 1862 C 171.916 1.39055 0.809471 0
M  V30 1863 O 173.108 1.62808 0.694435 0
M  V30 1864 C 170.237 3.26497 1.06089 0
M  V30 1865 C 169.323 4.22772 0.33541 0
M  V30 1866 N 169.714 5.01737 -0.639787 0
M  V30 1867 C 168.012 4.42227 0.578921 0
M  V30 1868 C 168.713 5.71792 -1.06904 0
M  V30 1869 N 167.689 5.42079 -0.406395 0
M  V30 1870 H 171.491 2.86305 -0.663814 0
M  V30 1871 H 169.005 1.55627 -0.464122 0
M  V30 1872 H 171.002 3.8525 1.59337 0
M  V30 1873 H 169.662 2.69595 1.80966 0
M  V30 1874 H 170.673 5.07799 -1.01789 0
M  V30 1875 H 167.35 3.96415 1.31003 0
M  V30 1876 H 168.74 6.45205 -1.8751 0
M  V30 1877 N 171.46 0.379036 1.52974 0
M  V30 1878 C 172.39 -0.452706 2.29069 0
M  V30 1879 C 173.371 -1.07237 1.32039 0
M  V30 1880 O 174.556 -1.08708 1.60923 0
M  V30 1881 C 171.686 -1.5856 3.08992 0
M  V30 1882 C 170.64 -1.0925 4.13822 0
M  V30 1883 C 169.966 -2.31668 4.81907 0
M  V30 1884 C 171.266 -0.167702 5.22031 0
M  V30 1885 H 172.96 0.182181 2.98845 0
M  V30 1886 H 170.506 0.0890592 1.43724 0
M  V30 1887 H 172.459 -2.1742 3.6098 0
M  V30 1888 H 171.183 -2.24792 2.36931 0
M  V30 1889 H 169.842 -0.526494 3.628 0
M  V30 1890 H 169.49 -2.96386 4.06404 0
M  V30 1891 H 169.19 -1.9934 5.52754 0
M  V30 1892 H 170.714 -2.91189 5.36695 0
M  V30 1893 H 172.128 -0.664186 5.6944 0
M  V30 1894 H 170.525 0.0653265 6.00064 0
M  V30 1895 H 171.595 0.786347 4.78482 0
M  V30 1896 N 172.938 -1.57226 0.108567 0
M  V30 1897 C 173.868 -2.17778 -0.84232 0
M  V30 1898 C 174.849 -1.11487 -1.2847 0
M  V30 1899 O 176.034 -1.39681 -1.34918 0
M  V30 1900 C 173.164 -2.76888 -2.09644 0
M  V30 1901 C 172.118 -3.88669 -1.79221 0
M  V30 1902 C 171.444 -4.34541 -3.11574 0
M  V30 1903 C 172.744 -5.11251 -1.06864 0
M  V30 1904 H 174.438 -2.97489 -0.337774 0
M  V30 1905 H 171.984 -1.43097 -0.161025 0
M  V30 1906 H 173.937 -3.17904 -2.76614 0
M  V30 1907 H 172.661 -1.94451 -2.62405 0
M  V30 1908 H 171.32 -3.48213 -1.14644 0
M  V30 1909 H 170.968 -3.48977 -3.62249 0
M  V30 1910 H 170.668 -5.09914 -2.91996 0
M  V30 1911 H 172.192 -4.782 -3.7968 0
M  V30 1912 H 173.606 -5.49352 -1.63968 0
M  V30 1913 H 172.003 -5.9214 -0.974178 0
M  V30 1914 H 173.073 -4.8487 -0.0536168 0
M  V30 1915 N 174.416 0.165178 -1.56732 0
M  V30 1916 C 175.348 1.22911 -1.93457 0
M  V30 1917 C 176.361 1.40152 -0.828333 0
M  V30 1918 O 177.55 1.40046 -1.10677 0
M  V30 1919 C 174.65 2.59686 -2.17753 0
M  V30 1920 C 173.823 2.63663 -3.48999 0
M  V30 1921 C 172.882 3.81845 -3.62051 0
M  V30 1922 O 171.908 3.67559 -4.34613 0
M  V30 1923 N 173.11 4.98557 -2.97357 0
M  V30 1924 H 175.875 0.917118 -2.85323 0
M  V30 1925 H 173.436 0.354895 -1.57962 0
M  V30 1926 H 175.428 3.37225 -2.23743 0
M  V30 1927 H 173.998 2.83251 -1.32242 0
M  V30 1928 H 173.218 1.72173 -3.54612 0
M  V30 1929 H 174.506 2.63336 -4.35352 0
M  V30 1930 H 173.904 5.13065 -2.38287 0
M  V30 1931 H 172.461 5.73936 -3.08934 0
M  V30 1932 N 175.894 1.51508 0.433938 0
M  V30 1933 C 177.31 1.39759 0.770682 0
M  V30 1934 C 177.51 0.482594 1.95636 0
M  V30 1935 O 176.566 -0.0609691 2.52426 0
M  V30 1936 C 177.879 2.81851 1.04787 0
M  V30 1937 C 179.427 2.91025 1.1521 0
M  V30 1938 C 179.902 4.34032 1.46219 0
M  V30 1939 N 181.393 4.37154 1.53136 0
M  V30 1940 C 182.128 5.4484 1.78709 0
M  V30 1941 N 181.624 6.62682 2.02051 0
M  V30 1942 N 183.417 5.32324 1.80519 0
M  V30 1943 H 175.568 2.09548 -0.346892 0
M  V30 1944 H 177.831 0.943446 -0.0928074 0
M  V30 1945 H 177.537 3.50815 0.249304 0
M  V30 1946 H 177.411 3.21386 1.97461 0
M  V30 1947 H 179.798 2.22257 1.94128 0
M  V30 1948 H 179.879 2.54983 0.204281 0
M  V30 1949 H 179.523 5.03351 0.678274 0
M  V30 1950 H 179.453 4.6759 2.42212 0
M  V30 1951 H 181.944 3.52197 1.36987 0
M  V30 1952 H 182.257 7.40543 2.20943 0
M  V30 1953 H 180.602 6.65791 1.99366 0
M  V30 1954 H 183.793 4.39246 1.61805 0
M  V30 1955 H 183.966 6.16328 2.00111 0
M  V30 1956 N 177.372 -0.689602 1.41712 0
M  V30 1957 C 178.783 -1.26973 1.36875 0
M  V30 1958 C 179.134 -1.96124 0.054748 0
M  V30 1959 O 178.259 -1.99141 -0.84687 0
M  V30 1960 C 178.854 -2.30912 2.47922 0
M  V30 1961 C 177.413 -2.84486 2.46464 0
M  V30 1962 C 176.56 -1.58603 2.27465 0
M  V30 1963 H 179.511 -0.48396 1.51141 0
M  V30 1964 H 179.532 -3.12331 2.17323 0
M  V30 1965 H 179.044 -1.80554 3.43543 0
M  V30 1966 H 177.145 -3.39005 1.54617 0
M  V30 1967 H 177.258 -3.34511 3.42986 0
M  V30 1968 H 175.622 -1.84632 1.75451 0
M  V30 1969 H 176.405 -1.10233 3.25121 0
M  V30 1970 N 178.85 -1.27639 -0.924453 0
M  V30 1971 C 179.8 -1.07295 -2.01176 0
M  V30 1972 C 180.784 5.77352e-05 -1.609 0
M  V30 1973 O 181.976 -0.218855 -1.75642 0
M  V30 1974 C 179.105 -0.725592 -3.35544 0
M  V30 1975 C 178.191 -1.83691 -3.82254 0
M  V30 1976 N 178.582 -3.07697 -4.01443 0
M  V30 1977 C 176.88 -1.72433 -4.11319 0
M  V30 1978 C 177.581 -3.80037 -4.40394 0
M  V30 1979 N 176.557 -3.0782 -4.48049 0
M  V30 1980 H 180.359 -2.01399 -2.14046 0
M  V30 1981 H 177.873 -1.18401 -1.11153 0
M  V30 1982 H 179.87 -0.560959 -4.13109 0
M  V30 1983 H 178.53 0.207782 -3.24034 0
M  V30 1984 H 179.541 -3.43424 -3.8766 0
M  V30 1985 H 176.218 -0.862005 -4.08504 0
M  V30 1986 H 177.608 -4.86632 -4.63291 0
M  V30 1987 N 180.328 1.1314 -1.09713 0
M  V30 1988 C 181.568 1.8613 -0.844683 0
M  V30 1989 C 181.932 1.81765 0.618491 0
M  V30 1990 O 183.133 2.50024 0.98699 0
M  V30 1991 C 181.404 3.30151 -1.36877 0
M  V30 1992 S 182.963 4.206 -1.25064 0
M  V30 1993 H 179.781 0.642056 -0.305427 0
M  V30 1994 H 182.383 1.36343 -1.4011 0
M  V30 1995 H 181.087 3.30883 -2.42786 0
M  V30 1996 H 180.618 3.85 -0.808614 0
M  V30 1997 H 182.633 4.95783 -0.203486 0
M  V30 1998 N 181.806 0.884767 1.30421 0
M  V30 1999 C 182.738 0.308655 2.27112 0
M  V30 2000 C 183.751 -0.536655 1.53701 0
M  V30 2001 O 184.94 -0.35624 1.74909 0
M  V30 2002 C 182.04 -0.579782 3.33904 0
M  V30 2003 C 181.213 0.236417 4.36761 0
M  V30 2004 C 180.272 -0.582482 5.22966 0
M  V30 2005 O 179.298 -0.00525502 5.692 0
M  V30 2006 N 180.5 -1.89163 5.48815 0
M  V30 2007 H 183.265 1.13964 2.77186 0
M  V30 2008 H 180.826 0.747731 1.43599 0
M  V30 2009 H 182.818 -1.13366 3.88497 0
M  V30 2010 H 181.388 -1.31144 2.83761 0
M  V30 2011 H 180.608 0.97174 3.82035 0
M  V30 2012 H 181.896 0.795924 5.02536 0
M  V30 2013 H 181.294 -2.38352 5.13035 0
M  V30 2014 H 179.851 -2.39296 6.06284 0
M  V30 2015 N 183.284 -1.43765 0.645699 0
M  V30 2016 C 184.194 -2.34544 -0.0512957 0
M  V30 2017 C 185.21 -1.53455 -0.82022 0
M  V30 2018 O 186.386 -1.86133 -0.769176 0
M  V30 2019 C 183.451 -3.31636 -1.01087 0
M  V30 2020 C 182.512 -4.2863 -0.239712 0
M  V30 2021 C 181.745 -5.21084 -1.15358 0
M  V30 2022 O 181.968 -5.1779 -2.39269 0
M  V30 2023 O 180.902 -5.98593 -0.630038 0
M  V30 2024 H 184.728 -2.95624 0.695718 0
M  V30 2025 H 182.313 -1.43781 0.405882 0
M  V30 2026 H 184.195 -3.9136 -1.56254 0
M  V30 2027 H 182.87 -2.73069 -1.73824 0
M  V30 2028 H 181.777 -3.72408 0.355356 0
M  V30 2029 H 183.11 -4.90157 0.447936 0
M  V30 2030 N 184.763 -0.387143 -1.52771 0
M  V30 2031 C 186.003 0.195537 -2.03463 0
M  V30 2032 C 186.367 1.44222 -1.26744 0
M  V30 2033 O 187.568 2.10192 -1.67549 0
M  V30 2034 C 185.839 0.459097 -3.54439 0
M  V30 2035 S 187.398 1.01237 -4.26962 0
M  V30 2036 H 184.216 0.0552675 -0.708849 0
M  V30 2037 H 186.818 -0.534992 -1.88037 0
M  V30 2038 H 185.522 -0.455382 -4.07866 0
M  V30 2039 H 185.053 1.21811 -3.74066 0
M  V30 2040 H 187.068 2.29492 -4.39941 0
M  V30 2041 N 186.241 1.57166 -0.116904 0
M  V30 2042 C 187.191 2.11756 0.845178 0
M  V30 2043 C 188.175 1.03783 1.22955 0
M  V30 2044 O 189.367 1.3002 1.20099 0
M  V30 2045 C 186.496 2.71886 2.09602 0
M  V30 2046 C 185.582 3.86937 1.7361 0
M  V30 2047 N 185.973 4.94073 1.08284 0
M  V30 2048 C 184.271 3.97082 2.03082 0
M  V30 2049 C 184.972 5.74477 0.913855 0
M  V30 2050 N 183.948 5.2423 1.43818 0
M  V30 2051 H 187.75 2.91967 0.336523 0
M  V30 2052 H 185.264 1.62174 0.0856332 0
M  V30 2053 H 187.261 3.09338 2.79492 0
M  V30 2054 H 185.921 1.93138 2.61013 0
M  V30 2055 H 186.932 5.12483 0.747067 0
M  V30 2056 H 183.609 3.29372 2.56554 0
M  V30 2057 H 184.999 6.70701 0.40125 0
M  V30 2058 N 187.719 -0.156864 1.56817 0
M  V30 2059 C 189.13 -0.717916 1.72345 0
M  V30 2060 C 189.481 -1.82124 0.729747 0
M  V30 2061 O 188.606 -2.16141 -0.105781 0
M  V30 2062 C 189.201 -1.30904 3.12489 0
M  V30 2063 C 187.76 -1.81676 3.29653 0
M  V30 2064 C 186.907 -0.701349 2.68284 0
M  V30 2065 H 189.858 0.0686989 1.58551 0
M  V30 2066 H 189.879 -2.17882 3.11942 0
M  V30 2067 H 189.391 -0.505796 3.8479 0
M  V30 2068 H 187.492 -2.64598 2.62333 0
M  V30 2069 H 187.605 -1.95226 4.3752 0
M  V30 2070 H 185.969 -1.12548 2.28484 0
M  V30 2071 H 186.752 0.0902846 3.43181 0
M  V30 2072 N 189.197 -1.51736 -0.425897 0
M  V30 2073 C 190.613 -1.40166 -0.76326 0
M  V30 2074 C 190.813 -0.492962 -1.95377 0
M  V30 2075 O 189.869 0.0475815 -2.52455 0
M  V30 2076 C 191.182 -2.82403 -1.03291 0
M  V30 2077 C 192.73 -2.91632 -1.13665 0
M  V30 2078 C 193.205 -4.34801 -1.43916 0
M  V30 2079 N 194.696 -4.3796 -1.50816 0
M  V30 2080 C 195.431 -5.4578 -1.75817 0
M  V30 2081 N 194.927 -6.63744 -1.98534 0
M  V30 2082 N 196.72 -5.33274 -1.77694 0
M  V30 2083 H 188.871 -2.09361 0.358 0
M  V30 2084 H 191.134 -0.942941 0.0978094 0
M  V30 2085 H 190.84 -3.50943 -0.230696 0
M  V30 2086 H 190.714 -3.22428 -1.95754 0
M  V30 2087 H 193.101 -2.23284 -1.92947 0
M  V30 2088 H 193.182 -2.55088 -0.190756 0
M  V30 2089 H 192.826 -5.03703 -0.65157 0
M  V30 2090 H 192.756 -4.68868 -2.39729 0
M  V30 2091 H 195.247 -3.52919 -1.35118 0
M  V30 2092 H 195.56 -7.41704 -2.17013 0
M  V30 2093 H 193.905 -6.66839 -1.95832 0
M  V30 2094 H 197.096 -4.40098 -1.59473 0
M  V30 2095 H 197.269 -6.1738 -1.9684 0
M  V30 2096 N 190.675 0.682077 -1.42076 0
M  V30 2097 C 191.623 1.81707 -1.45208 0
M  V30 2098 C 192.617 1.66183 -0.328591 0
M  V30 2099 O 193.823 1.7288 -0.501264 0
M  V30 2100 H 190.198 0.599014 -0.454628 0
M  V30 2101 H 192.169 1.76183 -2.40836 0
M  V30 2102 C 190.918 3.19816 -1.36428 0
M  V30 2103 H 190.241 3.32385 -2.22171 0
M  V30 2104 H 191.681 3.99272 -1.42681 0
M  V30 2105 C 190.14 3.36809 -0.078191 0
M  V30 2106 O 190.67 3.92124 0.87188 0
M  V30 2107 N 188.876 2.906 0.00229266 0
M  V30 2108 H 188.423 2.45772 -0.771616 0
M  V30 2109 H 188.381 3.02347 0.862179 0
M  V30 2110 N 192.153 1.28127 0.917671 0
M  V30 2111 C 193.401 1.14825 1.66312 0
M  V30 2112 C 193.722 -0.304379 1.9261 0
M  V30 2113 O 192.992 -1.21149 1.53947 0
M  V30 2114 H 191.572 0.421953 0.616413 0
M  V30 2115 H 194.234 1.608 1.10134 0
M  V30 2116 H 193.33 1.68489 2.62712 0
M  V30 2117 N 193.631 -1.12557 1.10312 0
M  V30 2118 C 194.871 -1.8568 0.854543 0
M  V30 2119 C 195.235 -1.82091 -0.608843 0
M  V30 2120 O 196.436 -2.50544 -0.973717 0
M  V30 2121 C 194.707 -3.2942 1.38626 0
M  V30 2122 S 196.266 -4.19931 1.27293 0
M  V30 2123 H 193.084 -0.640427 0.308827 0
M  V30 2124 H 195.686 -1.35599 1.40831 0
M  V30 2125 H 194.39 -3.2959 2.44537 0
M  V30 2126 H 193.921 -3.84566 0.82902 0
M  V30 2127 H 195.936 -4.95668 0.229776 0
M  V30 2128 N 195.109 -0.891671 -1.2995 0
M  V30 2129 C 196.039 -0.379797 -2.30391 0
M  V30 2130 C 197.02 0.540919 -1.6127 0
M  V30 2131 O 198.205 0.453352 -1.88834 0
M  V30 2132 C 195.335 0.400654 -3.44981 0
M  V30 2133 C 194.289 -0.428905 -4.25846 0
M  V30 2134 C 193.615 0.478557 -5.32554 0
M  V30 2135 C 194.915 -1.67458 -4.94727 0
M  V30 2136 H 196.609 -1.21914 -2.73454 0
M  V30 2137 H 194.155 -0.587675 -1.31462 0
M  V30 2138 H 196.108 0.769434 -4.14316 0
M  V30 2139 H 194.832 1.27371 -3.0074 0
M  V30 2140 H 193.491 -0.779911 -3.58208 0
M  V30 2141 H 193.139 1.34951 -4.84559 0
M  V30 2142 H 192.839 -0.0727433 -5.87555 0
M  V30 2143 H 194.363 0.843705 -6.04743 0
M  V30 2144 H 195.777 -1.376 -5.56542 0
M  V30 2145 H 194.174 -2.16659 -5.59624 0
M  V30 2146 H 195.244 -2.41518 -4.20473 0
M  V30 2147 N 196.587 1.43421 -0.653314 0
M  V30 2148 C 197.519 2.29071 0.0769134 0
M  V30 2149 C 198.532 1.42513 0.787017 0
M  V30 2150 O 199.721 1.66449 0.644757 0
M  V30 2151 C 196.821 3.19436 1.13199 0
M  V30 2152 C 195.994 4.34533 0.500006 0
M  V30 2153 C 195.053 5.05771 1.45198 0
M  V30 2154 O 194.079 5.61037 0.960538 0
M  V30 2155 N 195.281 5.0928 2.78594 0
M  V30 2156 H 198.046 2.92382 -0.658235 0
M  V30 2157 H 195.607 1.54112 -0.496104 0
M  V30 2158 H 197.599 3.63958 1.76964 0
M  V30 2159 H 196.169 2.57724 1.7691 0
M  V30 2160 H 195.389 3.92925 -0.316738 0
M  V30 2161 H 196.677 5.08766 0.0588345 0
M  V30 2162 H 196.075 4.65751 3.2108 0
M  V30 2163 H 194.632 5.57519 3.37662 0
M  V30 2164 N 198.065 0.39524 1.52563 0
M  V30 2165 C 198.995 -0.428384 2.29537 0
M  V30 2166 C 199.976 -1.05831 1.33169 0
M  V30 2167 O 201.161 -1.06995 1.62067 0
M  V30 2168 C 198.291 -1.55274 3.10656 0
M  V30 2169 C 197.245 -1.04855 4.14957 0
M  V30 2170 C 196.571 -2.26543 4.84337 0
M  V30 2171 C 197.871 -0.112324 5.22179 0
M  V30 2172 H 199.565 0.213867 2.98635 0
M  V30 2173 H 197.111 0.104298 1.43622 0
M  V30 2174 H 199.064 -2.1358 3.63265 0
M  V30 2175 H 197.788 -2.22266 2.39302 0
M  V30 2176 H 196.447 -0.487985 3.63338 0
M  V30 2177 H 196.095 -2.92059 4.09525 0
M  V30 2178 H 195.795 -1.93466 5.54837 0
M  V30 2179 H 197.319 -2.85481 5.39753 0
M  V30 2180 H 198.733 -0.603752 5.70112 0
M  V30 2181 H 197.13 0.128968 5.99961 0
M  V30 2182 H 198.2 0.837052 4.77621 0
M  V30 2183 N 199.544 -1.57102 0.125237 0
M  V30 2184 C 200.792 -1.95021 -0.530198 0
M  V30 2185 C 201.113 -1.00982 -1.66816 0
M  V30 2186 O 200.383 -0.0672693 -1.95784 0
M  V30 2187 H 198.963 -0.720046 -0.198853 0
M  V30 2188 H 201.625 -1.93916 0.19564 0
M  V30 2189 H 200.721 -2.98211 -0.920681 0
M  V30 2190 N 201.022 0.148545 -1.56898 0
M  V30 2191 C 202.247 0.880385 -1.87787 0
M  V30 2192 C 202.672 1.74018 -0.714093 0
M  V30 2193 O 202.03 1.78153 0.336343 0
M  V30 2194 C 202.078 1.71422 -3.17249 0
M  V30 2195 O 201.182 2.8183 -3.01074 0
M  V30 2196 H 200.523 0.245301 -0.617028 0
M  V30 2197 H 203.053 0.139826 -2.04122 0
M  V30 2198 H 203.063 2.10954 -3.49231 0
M  V30 2199 H 201.738 1.08284 -4.01556 0
M  V30 2200 H 200.315 2.45715 -2.80497 0
M  V30 2201 N 202.5 1.5196 0.417844 0
M  V30 2202 C 203.45 1.7106 1.5074 0
M  V30 2203 C 204.434 0.564487 1.50673 0
M  V30 2204 O 205.626 0.821206 1.56797 0
M  V30 2205 C 202.755 1.85677 2.88754 0
M  V30 2206 C 201.841 3.06133 2.93502 0
M  V30 2207 N 202.232 4.28987 2.67962 0
M  V30 2208 C 200.53 3.05787 3.24669 0
M  V30 2209 C 201.231 5.10395 2.79055 0
M  V30 2210 N 200.207 4.45455 3.11561 0
M  V30 2211 H 204.009 2.63696 1.29775 0
M  V30 2212 H 201.523 1.49873 0.625436 0
M  V30 2213 H 203.52 1.97475 3.67164 0
M  V30 2214 H 202.18 0.942348 3.10725 0
M  V30 2215 H 203.191 4.57607 2.4252 0
M  V30 2216 H 199.868 2.2405 3.52289 0
M  V30 2217 H 201.258 6.18247 2.63097 0
M  V30 2218 N 203.978 -0.674533 1.42435 0
M  V30 2219 C 205.389 -1.25514 1.38214 0
M  V30 2220 C 205.74 -1.96055 0.0755464 0
M  V30 2221 O 204.865 -2.00028 -0.8257 0
M  V30 2222 C 205.46 -2.28269 2.50357 0
M  V30 2223 C 204.019 -2.81856 2.49467 0
M  V30 2224 C 203.166 -1.56182 2.29134 0
M  V30 2225 H 206.117 -0.467902 1.51646 0
M  V30 2226 H 206.138 -3.10009 2.20624 0
M  V30 2227 H 205.65 -1.769 3.45439 0
M  V30 2228 H 203.751 -3.37346 1.58204 0
M  V30 2229 H 203.864 -3.30854 3.46515 0
M  V30 2230 H 202.228 -1.82761 1.774 0
M  V30 2231 H 203.011 -1.06778 3.26272 0
M  V30 2232 N 205.456 -1.28612 -0.910864 0
M  V30 2233 C 206.388 -1.08589 -2.01844 0
M  V30 2234 C 207.401 -0.0367419 -1.62759 0
M  V30 2235 O 208.59 -0.280101 -1.76289 0
M  V30 2236 C 205.69 -0.628626 -3.33019 0
M  V30 2237 C 204.863 -1.75382 -4.00699 0
M  V30 2238 C 203.922 -1.28945 -5.10156 0
M  V30 2239 O 202.948 -1.9922 -5.33198 0
M  V30 2240 N 204.15 -0.154224 -5.80295 0
M  V30 2241 H 206.915 -2.03973 -2.19579 0
M  V30 2242 H 204.476 -1.20403 -1.08234 0
M  V30 2243 H 206.468 -0.301508 -4.03575 0
M  V30 2244 H 205.038 0.232451 -3.11735 0
M  V30 2245 H 204.258 -2.25039 -3.23653 0
M  V30 2246 H 205.546 -2.50854 -4.42662 0
M  V30 2247 H 204.944 0.43194 -5.64049 0
M  V30 2248 H 203.501 0.113599 -6.51701 0
M  V30 2249 N 206.934 1.1197 -1.10907 0
M  V30 2250 C 208.174 1.85224 -0.864378 0
M  V30 2251 C 208.538 1.82411 0.599178 0
M  V30 2252 O 209.739 2.51057 0.960416 0
M  V30 2253 C 208.01 3.2868 -1.40371 0
M  V30 2254 S 209.569 4.1925 -1.29518 0
M  V30 2255 H 206.387 0.63878 -0.312219 0
M  V30 2256 H 208.989 1.3485 -1.41548 0
M  V30 2257 H 207.693 3.28289 -2.46281 0
M  V30 2258 H 207.224 3.84121 -0.849402 0
M  V30 2259 H 209.239 4.95539 -0.256059 0
M  V30 2260 N 208.412 0.89855 1.29475 0
M  V30 2261 C 209.658 0.524658 1.95896 0
M  V30 2262 C 209.991 -0.926468 1.70676 0
M  V30 2263 O 209.266 -1.65665 1.01908 0
M  V30 2264 C 209.549 0.81633 3.50725 0
M  V30 2265 C 209.402 2.31907 3.85408 0
M  V30 2266 C 210.721 0.302038 4.39062 0
M  V30 2267 H 207.84 0.19209 0.711527 0
M  V30 2268 H 210.482 1.12502 1.53112 0
M  V30 2269 H 208.632 0.305369 3.87298 0
M  V30 2270 H 210.304 2.89949 3.58786 0
M  V30 2271 H 208.547 2.78027 3.32992 0
M  V30 2272 H 209.218 2.47373 4.93468 0
M  V30 2273 H 211.694 0.739551 4.09475 0
M  V30 2274 H 210.57 0.535331 5.46283 0
M  V30 2275 H 210.831 -0.797216 4.34853 0
M  V30 2276 N 209.89 -1.43072 0.660911 0
M  V30 2277 C 210.84 -2.27948 -0.04847 0
M  V30 2278 C 211.824 -1.40325 -0.787246 0
M  V30 2279 O 213.016 -1.63893 -0.668446 0
M  V30 2280 C 210.145 -3.28143 -1.00881 0
M  V30 2281 C 209.231 -4.23252 -0.268108 0
M  V30 2282 N 209.622 -5.00656 0.719528 0
M  V30 2283 C 207.92 -4.43092 -0.508493 0
M  V30 2284 C 208.621 -5.70019 1.15988 0
M  V30 2285 N 207.597 -5.41364 0.492584 0
M  V30 2286 H 211.399 -2.85213 0.709279 0
M  V30 2287 H 208.913 -1.54869 0.488822 0
M  V30 2288 H 210.91 -3.87736 -1.53188 0
M  V30 2289 H 209.57 -2.7244 -1.76654 0
M  V30 2290 H 210.581 -5.06115 1.09855 0
M  V30 2291 H 207.258 -3.98449 -1.24679 0
M  V30 2292 H 208.648 -6.4214 1.97751 0
M  V30 2293 N 211.368 -0.403325 -1.52352 0
M  V30 2294 C 212.318 0.442244 -2.2367 0
M  V30 2295 C 213.302 1.01823 -1.24583 0
M  V30 2296 O 214.494 0.942005 -1.49851 0
M  V30 2297 C 211.623 1.5615 -3.05732 0
M  V30 2298 C 210.709 0.996575 -4.12225 0
M  V30 2299 N 211.1 0.157804 -5.05554 0
M  V30 2300 C 209.398 1.26767 -4.27605 0
M  V30 2301 C 210.099 -0.155853 -5.81491 0
M  V30 2302 N 209.075 0.451775 -5.41719 0
M  V30 2303 H 212.877 -0.204964 -2.93184 0
M  V30 2304 H 210.391 -0.213418 -1.60992 0
M  V30 2305 H 212.388 2.17981 -3.55373 0
M  V30 2306 H 211.048 2.21139 -2.37755 0
M  V30 2307 H 212.059 -0.206049 -5.1749 0
M  V30 2308 H 208.736 1.91757 -3.70858 0
M  V30 2309 H 210.126 -0.836329 -6.66675 0
M  V30 2310 N 212.846 1.57033 -0.133567 0
M  V30 2311 C 214.086 1.97575 0.523789 0
M  V30 2312 C 214.45 1.01605 1.62912 0
M  V30 2313 O 215.651 1.3114 2.3464 0
M  V30 2314 C 213.922 3.42256 1.02935 0
M  V30 2315 S 215.481 4.04817 1.69319 0
M  V30 2316 H 212.299 0.690427 0.169799 0
M  V30 2317 H 214.901 1.94234 -0.222101 0
M  V30 2318 H 213.605 4.09842 0.213917 0
M  V30 2319 H 213.136 3.4928 1.81017 0
M  V30 2320 H 215.151 3.96767 2.97977 0
M  V30 2321 N 214.325 -0.140222 1.56975 0
M  V30 2322 C 215.736 -0.699596 1.73097 0
M  V30 2323 C 216.087 -1.8134 0.749022 0
M  V30 2324 O 215.212 -2.16241 -0.0828503 0
M  V30 2325 C 215.807 -1.27582 3.1386 0
M  V30 2326 C 214.366 -1.78169 3.31561 0
M  V30 2327 C 213.513 -0.672855 2.69013 0
M  V30 2328 H 216.464 0.0855115 1.58469 0
M  V30 2329 H 216.485 -2.14561 3.14235 0
M  V30 2330 H 215.997 -0.464955 3.85305 0
M  V30 2331 H 214.098 -2.61801 2.65124 0
M  V30 2332 H 214.211 -1.90574 4.39566 0
M  V30 2333 H 212.575 -1.10118 2.29665 0
M  V30 2334 H 213.358 0.126679 3.43066 0
M  V30 2335 N 215.803 -1.52179 -0.40978 0
M  V30 2336 C 216.733 -1.78435 -1.5061 0
M  V30 2337 C 217.714 -0.635295 -1.57791 0
M  V30 2338 O 218.899 -0.880823 -1.73076 0
M  V30 2339 C 216.029 -1.93444 -2.88439 0
M  V30 2340 C 214.983 -3.09038 -2.96108 0
M  V30 2341 C 214.309 -3.09268 -4.36185 0
M  V30 2342 C 215.609 -4.48508 -2.67652 0
M  V30 2343 H 217.303 -2.70237 -1.28889 0
M  V30 2344 H 214.849 -1.30036 -0.618605 0
M  V30 2345 H 216.802 -2.10394 -3.65119 0
M  V30 2346 H 215.526 -0.983129 -3.11452 0
M  V30 2347 H 214.185 -2.91837 -2.21872 0
M  V30 2348 H 213.833 -2.11861 -4.56206 0
M  V30 2349 H 213.533 -3.86907 -4.42241 0
M  V30 2350 H 215.057 -3.28348 -5.14801 0
M  V30 2351 H 216.471 -4.65918 -3.34056 0
M  V30 2352 H 214.868 -5.28059 -2.85085 0
M  V30 2353 H 215.938 -4.56649 -1.63095 0
M  V30 2354 N 217.281 0.66697 -1.42791 0
M  V30 2355 C 218.697 0.981027 -1.25889 0
M  V30 2356 C 218.897 2.00793 -0.168695 0
M  V30 2357 O 217.953 2.48321 0.45747 0
M  V30 2358 C 219.266 1.47838 -2.61848 0
M  V30 2359 C 220.814 1.59575 -2.69267 0
M  V30 2360 C 221.289 2.12704 -4.05612 0
M  V30 2361 N 222.78 2.20026 -4.07606 0
M  V30 2362 C 223.515 2.62227 -5.09926 0
M  V30 2363 N 223.011 3.03824 -6.22626 0
M  V30 2364 N 224.804 2.62045 -4.97281 0
M  V30 2365 H 216.955 -0.0127891 -2.12396 0
M  V30 2366 H 219.218 0.0568258 -0.946295 0
M  V30 2367 H 218.924 0.798299 -3.4252 0
M  V30 2368 H 218.798 2.45579 -2.86305 0
M  V30 2369 H 221.185 2.26687 -1.88936 0
M  V30 2370 H 221.266 0.60302 -2.48591 0
M  V30 2371 H 220.91 1.46198 -4.86404 0
M  V30 2372 H 220.84 3.12782 -4.23645 0
M  V30 2373 H 223.331 1.90708 -3.2625 0
M  V30 2374 H 223.644 3.34734 -6.96544 0
M  V30 2375 H 221.989 3.01662 -6.26119 0
M  V30 2376 H 225.18 2.28916 -4.08308 0
M  V30 2377 H 225.353 2.94613 -5.77154 0
M  V30 2378 N 218.759 1.29093 0.90403 0
M  V30 2379 C 219.689 1.16401 2.02418 0
M  V30 2380 C 220.67 0.0593085 1.69997 0
M  V30 2381 O 221.855 0.238021 1.92736 0
M  V30 2382 C 218.985 0.835233 3.37107 0
M  V30 2383 C 217.939 1.89578 3.83724 0
M  V30 2384 C 217.265 1.42041 5.15489 0
M  V30 2385 C 218.565 3.30394 4.04521 0
M  V30 2386 H 220.259 2.10109 2.13295 0
M  V30 2387 H 217.805 1.01157 1.02486 0
M  V30 2388 H 219.758 0.733169 4.14973 0
M  V30 2389 H 218.482 -0.137543 3.2631 0
M  V30 2390 H 217.141 1.98715 3.08071 0
M  V30 2391 H 216.789 0.436426 5.01103 0
M  V30 2392 H 216.489 2.12964 5.4765 0
M  V30 2393 H 218.013 1.33176 5.959 0
M  V30 2394 H 219.427 3.24123 4.72882 0
M  V30 2395 H 217.824 3.99237 4.48029 0
M  V30 2396 H 218.894 3.73692 3.09002 0
M  V30 2397 N 220.237 -1.11381 1.11499 0
M  V30 2398 C 221.653 -1.35143 0.849031 0
M  V30 2399 C 221.853 -1.94515 -0.525938 0
M  V30 2400 O 220.909 -2.1785 -1.27662 0
M  V30 2401 C 222.222 -2.28249 1.95762 0
M  V30 2402 C 223.77 -2.41812 1.98736 0
M  V30 2403 C 224.245 -3.3824 3.088 0
M  V30 2404 N 225.736 -3.45803 3.08179 0
M  V30 2405 C 226.471 -4.20358 3.89982 0
M  V30 2406 N 225.967 -4.97884 4.8175 0
M  V30 2407 N 227.76 -4.15877 3.78157 0
M  V30 2408 H 219.911 -0.712062 2.00109 0
M  V30 2409 H 222.174 -0.376025 0.870235 0
M  V30 2410 H 221.88 -1.91817 2.94787 0
M  V30 2411 H 221.754 -3.28473 1.85433 0
M  V30 2412 H 224.141 -2.77518 1.00338 0
M  V30 2413 H 224.222 -1.41437 2.13141 0
M  V30 2414 H 223.866 -3.03261 4.07425 0
M  V30 2415 H 223.796 -4.38471 2.91635 0
M  V30 2416 H 226.287 -2.90506 2.41691 0
M  V30 2417 H 226.6 -5.52142 5.40702 0
M  V30 2418 H 224.945 -4.97043 4.85771 0
M  V30 2419 H 228.136 -3.544 3.05808 0
M  V30 2420 H 228.309 -4.73723 4.42143 0
M  V30 2421 N 221.715 -0.905404 -1.28997 0
M  V30 2422 C 223.126 -0.581953 -1.77398 0
M  V30 2423 C 223.477 0.902552 -1.74208 0
M  V30 2424 O 222.602 1.70584 -1.33154 0
M  V30 2425 C 223.197 -1.04961 -3.22131 0
M  V30 2426 C 221.756 -0.777229 -3.68288 0
M  V30 2427 C 220.903 -1.22109 -2.48967 0
M  V30 2428 H 223.854 -1.08754 -1.15578 0
M  V30 2429 H 223.875 -0.387387 -3.78523 0
M  V30 2430 H 223.387 -2.13008 -3.24421 0
M  V30 2431 H 221.488 0.290383 -3.71467 0
M  V30 2432 H 221.601 -1.37911 -4.58822 0
M  V30 2433 H 219.965 -0.639971 -2.46529 0
M  V30 2434 H 220.748 -2.30972 -2.53982 0
M  V30 2435 N 223.193 1.4272 -0.668489 0
M  V30 2436 C 224.143 2.27971 0.0363806 0
M  V30 2437 C 225.127 1.40741 0.779794 0
M  V30 2438 O 226.319 1.64245 0.659745 0
M  V30 2439 C 223.448 3.28673 0.991398 0
M  V30 2440 C 222.534 4.23388 0.245658 0
M  V30 2441 N 222.925 5.00267 -0.746069 0
M  V30 2442 C 221.223 4.43355 0.484988 0
M  V30 2443 C 221.924 5.69396 -1.19009 0
M  V30 2444 N 220.9 5.41095 -0.521287 0
M  V30 2445 H 224.702 2.84833 -0.724394 0
M  V30 2446 H 222.216 1.54607 -0.497028 0
M  V30 2447 H 224.213 3.88543 1.51129 0
M  V30 2448 H 222.873 2.73373 1.75207 0
M  V30 2449 H 223.884 5.05525 -1.12537 0
M  V30 2450 H 220.561 3.99104 1.22565 0
M  V30 2451 H 221.951 6.41083 -2.01153 0
M  V30 2452 N 224.671 0.411399 1.52136 0
M  V30 2453 C 225.919 -0.163322 2.01439 0
M  V30 2454 C 226.24 -1.45453 1.29879 0
M  V30 2455 O 225.51 -1.91225 0.4254 0
M  V30 2456 H 224.09 -0.0633447 0.744309 0
M  V30 2457 H 226.752 0.548161 1.87033 0
M  V30 2458 H 225.848 -0.357817 3.10042 0
M  V30 2459 N 226.149 -1.5696 0.141893 0
M  V30 2460 C 227.56 -1.82797 -0.379776 0
M  V30 2461 C 227.911 -1.06033 -1.6508 0
M  V30 2462 O 227.036 -0.304011 -2.14254 0
M  V30 2463 C 227.631 -3.31578 -0.695802 0
M  V30 2464 C 226.19 -3.58014 -1.16201 0
M  V30 2465 C 225.337 -2.76699 -0.182455 0
M  V30 2466 H 228.288 -1.54406 0.366675 0
M  V30 2467 H 228.309 -3.47454 -1.55099 0
M  V30 2468 H 227.821 -3.87421 0.229449 0
M  V30 2469 H 225.922 -3.07553 -2.10338 0
M  V30 2470 H 226.035 -4.66501 -1.09151 0
M  V30 2471 H 224.399 -2.45618 -0.674072 0
M  V30 2472 H 225.182 -3.35311 0.736297 0
M  V30 2473 N 227.627 0.131896 -1.57047 0
M  V30 2474 C 228.577 1.1679 -1.95816 0
M  V30 2475 C 229.561 1.37756 -0.831393 0
M  V30 2476 O 230.753 1.39065 -1.09499 0
M  V30 2477 C 227.882 2.49778 -2.35512 0
M  V30 2478 C 226.968 2.32342 -3.54793 0
M  V30 2479 N 227.359 1.8469 -4.70875 0
M  V30 2480 C 225.657 2.63043 -3.60173 0
M  V30 2481 C 226.358 1.80656 -5.52936 0
M  V30 2482 N 225.334 2.24528 -4.95064 0
M  V30 2483 H 229.136 0.791818 -2.83033 0
M  V30 2484 H 226.65 0.339791 -1.58805 0
M  V30 2485 H 228.647 3.24692 -2.61498 0
M  V30 2486 H 227.307 2.88156 -1.49654 0
M  V30 2487 H 228.318 1.54429 -4.9434 0
M  V30 2488 H 224.995 3.05193 -2.84892 0
M  V30 2489 H 226.385 1.45178 -6.56028 0
M  V30 2490 N 229.106 1.52395 0.401703 0
M  V30 2491 C 230.036 1.79231 1.49661 0
M  V30 2492 C 231.017 0.643654 1.57452 0
M  V30 2493 O 232.202 0.889989 1.72606 0
M  V30 2494 C 229.332 1.94971 2.87409 0
M  V30 2495 C 228.286 3.10604 2.94465 0
M  V30 2496 C 227.612 3.11577 4.34538 0
M  V30 2497 C 228.912 4.49921 2.6527 0
M  V30 2498 H 230.606 2.70917 1.27454 0
M  V30 2499 H 228.152 1.30362 0.6117 0
M  V30 2500 H 230.105 2.12328 3.63999 0
M  V30 2501 H 228.829 0.999632 3.10926 0
M  V30 2502 H 227.488 2.93009 2.20321 0
M  V30 2503 H 227.136 2.14277 4.55076 0
M  V30 2504 H 226.836 3.89247 4.40183 0
M  V30 2505 H 228.36 3.31073 5.13053 0
M  V30 2506 H 229.774 4.67683 3.31581 0
M  V30 2507 H 228.171 5.29564 2.82281 0
M  V30 2508 H 229.241 4.57507 1.60671 0
M  V30 2509 N 230.584 -0.659388 1.43143 0
M  V30 2510 C 231.824 -1.43121 1.45931 0
M  V30 2511 C 232.188 -1.91838 0.0789298 0
M  V30 2512 O 233.389 -2.68794 -0.018491 0
M  V30 2513 C 231.66 -2.58534 2.46769 0
M  V30 2514 S 233.219 -3.47154 2.68384 0
M  V30 2515 H 230.037 -0.488624 0.516496 0
M  V30 2516 H 232.639 -0.766128 1.79863 0
M  V30 2517 H 231.343 -2.21007 3.45809 0
M  V30 2518 H 230.874 -3.29898 2.14315 0
M  V30 2519 H 232.889 -4.55051 1.97845 0
M  V30 2520 N 232.062 -1.29571 -0.897171 0
M  V30 2521 C 232.994 -1.10724 -2.00681 0
M  V30 2522 C 234.007 -0.0540026 -1.6271 0
M  V30 2523 O 235.196 -0.298783 -1.75982 0
M  V30 2524 C 232.296 -0.663912 -3.32333 0
M  V30 2525 C 231.469 -1.79622 -3.98816 0
M  V30 2526 C 230.528 -1.34349 -5.0876 0
M  V30 2527 O 229.554 -2.04864 -5.31055 0
M  V30 2528 N 230.756 -0.215764 -5.80099 0
M  V30 2529 H 233.521 -2.06291 -2.17403 0
M  V30 2530 H 231.082 -1.21544 -1.06951 0
M  V30 2531 H 233.074 -0.344295 -4.03233 0
M  V30 2532 H 231.644 0.199375 -3.11964 0
M  V30 2533 H 230.864 -2.28459 -3.21248 0
M  V30 2534 H 232.152 -2.55535 -4.39976 0
M  V30 2535 H 231.55 0.372091 -5.64475 0
M  V30 2536 H 230.107 0.0444707 -6.51785 0
M  V30 2537 N 233.54 1.10788 -1.12088 0
M  V30 2538 C 234.503 2.15207 -0.788577 0
M  V30 2539 C 235.503 1.59609 0.195317 0
M  V30 2540 O 236.693 1.74174 -0.0300193 0
M  V30 2541 C 233.825 3.4047 -0.171174 0
M  V30 2542 H 235.018 2.46116 -1.71368 0
M  V30 2543 H 232.571 1.26089 -0.923652 0
M  V30 2544 H 233.306 3.15176 0.763832 0
M  V30 2545 H 233.091 3.82109 -0.879514 0
M  V30 2546 H 234.581 4.17576 0.04496 0
M  V30 2547 N 235.018 0.912232 1.28515 0
M  V30 2548 C 235.928 0.404506 2.31086 0
M  V30 2549 C 236.944 -0.50707 1.66448 0
M  V30 2550 O 238.12 -0.393624 1.97516 0
M  V30 2551 C 235.185 -0.348572 3.44943 0
M  V30 2552 C 234.246 0.59604 4.25142 0
M  V30 2553 C 233.479 -0.121194 5.33562 0
M  V30 2554 O 233.702 -1.34317 5.5436 0
M  V30 2555 O 232.636 0.542716 5.99448 0
M  V30 2556 H 236.462 1.25579 2.76521 0
M  V30 2557 H 234.047 0.676998 1.33181 0
M  V30 2558 H 235.929 -0.77395 4.14232 0
M  V30 2559 H 234.604 -1.17571 3.01594 0
M  V30 2560 H 233.511 1.07079 3.58448 0
M  V30 2561 H 234.844 1.38995 4.72167 0
M  V30 2562 N 236.496 -1.42363 0.676048 0
M  V30 2563 C 237.721 -2.06377 0.205705 0
M  V30 2564 C 238.146 -1.50463 -1.12883 0
M  V30 2565 O 237.504 -0.623619 -1.70237 0
M  V30 2566 C 237.552 -3.60277 0.152655 0
M  V30 2567 O 236.656 -4.02935 -0.87845 0
M  V30 2568 H 235.997 -0.655588 0.105359 0
M  V30 2569 H 238.527 -1.82475 0.925412 0
M  V30 2570 H 238.537 -4.07993 -0.0230675 0
M  V30 2571 H 237.212 -4.00346 1.12675 0
M  V30 2572 H 235.789 -3.66764 -0.673668 0
M  V30 2573 N 237.974 -0.419461 -1.51915 0
M  V30 2574 C 238.924 0.418496 -2.24126 0
M  V30 2575 C 239.908 1.00495 -1.25656 0
M  V30 2576 O 241.1 0.926058 -1.50842 0
M  V30 2577 C 238.229 1.52899 -3.07371 0
M  V30 2578 C 237.315 0.952797 -4.13258 0
M  V30 2579 N 237.706 0.104175 -5.05693 0
M  V30 2580 C 236.004 1.22224 -4.28926 0
M  V30 2581 C 236.705 -0.21752 -5.81293 0
M  V30 2582 N 235.681 0.394293 -5.42168 0
M  V30 2583 H 239.483 -0.236048 -2.92951 0
M  V30 2584 H 236.997 -0.230481 -1.60756 0
M  V30 2585 H 238.994 2.14199 -3.57665 0
M  V30 2586 H 237.654 2.18605 -2.40088 0
M  V30 2587 H 238.665 -0.260924 -5.17242 0
M  V30 2588 H 235.342 1.87812 -3.72871 0
M  V30 2589 H 236.732 -0.906992 -6.6575 0
M  V30 2590 N 239.452 1.56882 -0.150215 0
M  V30 2591 C 240.384 2.14057 0.819286 0
M  V30 2592 C 241.397 1.09082 1.20851 0
M  V30 2593 O 242.586 1.36347 1.15203 0
M  V30 2594 C 239.686 2.65102 2.11127 0
M  V30 2595 C 238.859 3.94511 1.88891 0
M  V30 2596 C 237.918 4.30834 3.02107 0
M  V30 2597 O 236.944 4.99099 2.73659 0
M  V30 2598 N 238.146 3.90676 4.29363 0
M  V30 2599 H 240.911 2.97871 0.330618 0
M  V30 2600 H 238.472 1.61866 0.0332538 0
M  V30 2601 H 240.464 2.86411 2.85921 0
M  V30 2602 H 239.034 1.85994 2.51247 0
M  V30 2603 H 238.254 3.81795 0.981152 0
M  V30 2604 H 239.542 4.7907 1.71376 0
M  V30 2605 H 238.94 3.35677 4.55343 0
M  V30 2606 H 237.497 4.1703 5.00928 0
M  V30 2607 N 240.93 -0.123565 1.57115 0
M  V30 2608 C 241.84 -1.17074 2.033 0
M  V30 2609 C 242.856 -1.4561 0.952559 0
M  V30 2610 O 244.032 -1.56817 1.26374 0
M  V30 2611 C 241.097 -2.47857 2.42421 0
M  V30 2612 C 240.158 -2.26758 3.64526 0
M  V30 2613 C 239.391 -3.51305 4.01771 0
M  V30 2614 O 239.614 -4.5843 3.39409 0
M  V30 2615 O 238.548 -3.42578 4.94898 0
M  V30 2616 H 242.374 -0.808555 2.92739 0
M  V30 2617 H 239.959 -0.334027 1.45618 0
M  V30 2618 H 241.841 -3.2492 2.68338 0
M  V30 2619 H 240.516 -2.83558 1.5613 0
M  V30 2620 H 239.423 -1.47569 3.43765 0
M  V30 2621 H 240.756 -1.95963 4.51508 0
M  V30 2622 N 242.408 -1.52605 -0.393616 0
M  V30 2623 C 243.318 -1.79971 -1.50492 0
M  V30 2624 C 244.334 -0.686181 -1.59899 0
M  V30 2625 O 245.51 -0.973274 -1.76322 0
M  V30 2626 C 242.575 -1.95867 -2.86072 0
M  V30 2627 C 241.636 -3.19781 -2.86424 0
M  V30 2628 C 240.869 -3.34909 -4.15538 0
M  V30 2629 O 241.092 -2.54948 -5.10253 0
M  V30 2630 O 240.026 -4.28141 -4.23059 0
M  V30 2631 H 243.852 -2.74328 -1.30299 0
M  V30 2632 H 241.437 -1.3764 -0.581005 0
M  V30 2633 H 243.319 -2.08056 -3.66457 0
M  V30 2634 H 241.994 -1.04699 -3.063 0
M  V30 2635 H 240.901 -3.13038 -2.04837 0
M  V30 2636 H 242.234 -4.1078 -2.71147 0
M  V30 2637 N 243.887 0.651787 -1.4349 0
M  V30 2638 C 244.85 1.74647 -1.48429 0
M  V30 2639 C 245.85 1.56513 -0.368817 0
M  V30 2640 O 247.04 1.62385 -0.630623 0
M  V30 2641 C 244.172 3.13533 -1.33827 0
M  V30 2642 H 245.365 1.71649 -2.4592 0
M  V30 2643 H 242.918 0.863573 -1.30277 0
M  V30 2644 H 243.653 3.22142 -0.37349 0
M  V30 2645 H 243.438 3.28101 -2.14691 0
M  V30 2646 H 244.928 3.93356 -1.40218 0
M  V30 2647 N 245.365 1.30045 0.890287 0
M  V30 2648 C 246.328 1.15963 1.977 0
M  V30 2649 C 247.328 0.0923777 1.60534 0
M  V30 2650 O 248.518 0.340071 1.70848 0
M  V30 2651 C 245.65 0.775451 3.31963 0
M  V30 2652 H 246.843 2.12502 2.11619 0
M  V30 2653 H 244.396 1.13366 1.07601 0
M  V30 2654 H 245.131 -0.189671 3.23745 0
M  V30 2655 H 244.916 1.54668 3.60306 0
M  V30 2656 H 246.406 0.700251 4.11687 0
M  V30 2657 O 246.882 -1.02616 1.24708 0
M  V30 2658 H 247.573 -1.6429 1.02608 0
M  V30 END ATOM
M  V30 BEGIN BOND
M  V30 END BOND
M  V30 END CTAB
M  END
$$$$
