drugbank_target|Q9UGI9 5'-AMP-activated protein kinase subunit gamma-3 (DB00131; DB00945; DB12010)
 OpenBabel12092121003D

  0  0  0     0  0            999 V3000
M  V30 BEGIN CTAB
M  V30 COUNTS 7639 7728 0 0 0
M  V30 BEGIN ATOM
M  V30 1 H -0.908 1.98254 -0.117106 0
M  V30 2 N 0 1.576 0 0
M  V30 3 C 0.933 2.03868 1.02534 0
M  V30 4 C 1.911 0.928543 1.3348 0
M  V30 5 O 3.095 1.19667 1.45644 0
M  V30 6 C 0.222 2.43627 2.35294 0
M  V30 7 C -0.732 3.65373 2.2001 0
M  V30 8 S 0.101 5.13292 1.52614 0
M  V30 9 C 1.257 5.56322 2.86805 0
M  V30 10 H 1.49 2.90518 0.631377 0
M  V30 11 H -0.977 1.52953 0.210867 0
M  V30 12 H 0.981 2.67203 3.11629 0
M  V30 13 H -0.358 1.57376 2.7183 0
M  V30 14 H -1.165 3.90944 3.18086 0
M  V30 15 H -1.563 3.418 1.51819 0
M  V30 16 H 0.729 5.58782 3.83104 0
M  V30 17 H 1.672 6.56266 2.65933 0
M  V30 18 H 2.08 4.83886 2.90714 0
M  V30 19 N 1.4781 -0.272755 1.55222 0
M  V30 20 C 2.3881 -1.35918 1.91216 0
M  V30 21 C 3.4041 -1.54026 0.809436 0
M  V30 22 O 4.5801 -1.68148 1.10852 0
M  V30 23 C 1.6451 -2.69834 2.17693 0
M  V30 24 C 0.7061 -2.6047 3.41253 0
M  V30 25 C -0.0609 -3.88 3.66458 0
M  V30 26 O 0.1621 -4.88693 2.94169 0
M  V30 27 O -0.9039 -3.88189 4.59992 0
M  V30 28 H 2.9221 -1.0839 2.83699 0
M  V30 29 H 0.5071 -0.471301 1.41771 0
M  V30 30 H 2.3891 -3.49017 2.36147 0
M  V30 31 H 1.0641 -2.97148 1.28392 0
M  V30 32 H -0.0289 -1.79663 3.28134 0
M  V30 33 H 1.3041 -2.38106 4.30774 0
M  V30 34 N 2.9562 -1.48159 -0.537278 0
M  V30 35 C 4.3672 -1.49429 -1.11928 0
M  V30 36 C 4.7182 -0.26 -1.9447 0
M  V30 37 O 3.8432 0.633489 -2.0692 0
M  V30 38 C 4.4382 -2.70758 -2.03656 0
M  V30 39 C 2.9972 -2.74923 -2.57088 0
M  V30 40 C 2.1442 -2.42835 -1.3389 0
M  V30 41 H 5.0952 -1.55381 -0.322886 0
M  V30 42 H 5.1162 -2.48861 -2.87834 0
M  V30 43 H 4.6282 -3.60575 -1.43553 0
M  V30 44 H 2.7292 -1.89296 -3.20933 0
M  V30 45 H 2.8422 -3.76157 -2.9672 0
M  V30 46 H 1.2062 -1.93836 -1.65226 0
M  V30 47 H 1.9892 -3.34884 -0.755504 0
M  V30 48 N 4.4343 0.785586 -1.36625 0
M  V30 49 C 5.6823 1.54057 -1.30808 0
M  V30 50 C 6.0033 1.94683 0.111157 0
M  V30 51 O 5.2733 1.65241 1.05224 0
M  V30 52 H 3.8533 0.571354 -0.481211 0
M  V30 53 H 6.5153 0.935821 -1.70963 0
M  V30 54 H 5.6113 2.44637 -1.93801 0
M  V30 55 N 5.9124 1.20967 1.01018 0
M  V30 56 C 6.8424 0.988272 2.11555 0
M  V30 57 C 7.8234 -0.0849778 1.69888 0
M  V30 58 O 9.0084 0.0738202 1.9406 0
M  V30 59 C 6.1384 0.546528 3.42973 0
M  V30 60 C 5.0924 1.56375 3.9841 0
M  V30 61 C 4.4184 0.97842 5.25672 0
M  V30 62 C 5.7184 2.94922 4.31066 0
M  V30 63 H 7.4124 1.91276 2.30334 0
M  V30 64 H 4.9584 0.921073 1.1069 0
M  V30 65 H 6.9114 0.378839 4.19694 0
M  V30 66 H 5.6354 -0.413598 3.23971 0
M  V30 67 H 4.2944 1.71891 3.23804 0
M  V30 68 H 3.9424 0.0101688 5.02999 0
M  V30 69 H 3.6424 1.65784 5.63728 0
M  V30 70 H 5.1664 0.821939 6.05043 0
M  V30 71 H 6.5804 2.8288 4.9865 0
M  V30 72 H 4.9774 3.5983 4.80253 0
M  V30 73 H 6.0474 3.4616 3.39561 0
M  V30 74 N 7.3905 -1.2043 1.01659 0
M  V30 75 C 8.3005 -2.2689 0.596484 0
M  V30 76 C 9.3165 -1.70107 -0.36599 0
M  V30 77 O 10.4925 -2.00117 -0.226942 0
M  V30 78 C 7.5575 -3.4665 -0.0586659 0
M  V30 79 C 6.6185 -4.18662 0.949751 0
M  V30 80 C 5.8515 -5.32705 0.32577 0
M  V30 81 O 6.0745 -5.63656 -0.874509 0
M  V30 82 O 5.0085 -5.92803 1.04249 0
M  V30 83 H 8.8345 -2.65041 1.4828 0
M  V30 84 H 6.4195 -1.27048 0.786082 0
M  V30 85 H 8.3015 -4.19256 -0.424564 0
M  V30 86 H 6.9765 -3.10375 -0.91918 0
M  V30 87 H 5.8835 -3.48229 1.36702 0
M  V30 88 H 7.2165 -4.58878 1.78023 0
M  V30 89 N 8.8686 -0.792821 -1.36206 0
M  V30 90 C 9.8186 -0.166598 -2.27391 0
M  V30 91 C 10.8026 0.651479 -1.47121 0
M  V30 92 O 11.9946 0.510994 -1.69463 0
M  V30 93 C 9.1236 0.695033 -3.36191 0
M  V30 94 C 8.2096 -0.132019 -4.23894 0
M  V30 95 N 8.6006 -1.18822 -4.91645 0
M  V30 96 C 6.8986 0.0885952 -4.45912 0
M  V30 97 C 7.5996 -1.69198 -5.56549 0
M  V30 98 N 6.5756 -1.00065 -5.34311 0
M  V30 99 H 10.3776 -0.974947 -2.77258 0
M  V30 100 H 7.8916 -0.632616 -1.49572 0
M  V30 101 H 9.8886 1.1596 -4.00448 0
M  V30 102 H 8.5486 1.50189 -2.87877 0
M  V30 103 H 9.5596 -1.57069 -4.93507 0
M  V30 104 H 6.2366 0.865688 -4.08426 0
M  V30 105 H 7.6266 -2.57395 -6.20643 0
M  V30 106 N 10.3467 1.47872 -0.545128 0
M  V30 107 C 11.3097 2.28337 0.198717 0
M  V30 108 C 12.3097 1.36255 0.853888 0
M  V30 109 O 13.4997 1.59003 0.711606 0
M  V30 110 C 10.6317 3.15585 1.28915 0
M  V30 111 H 11.8247 2.95567 -0.507941 0
M  V30 112 H 9.3777 1.53362 -0.301616 0
M  V30 113 H 10.1127 2.53019 2.02859 0
M  V30 114 H 9.8977 3.83337 0.824309 0
M  V30 115 H 11.3877 3.76243 1.81194 0
M  V30 116 N 11.8248 0.280983 1.55075 0
M  V30 117 C 12.7548 -0.597469 2.25727 0
M  V30 118 C 13.7358 -1.15417 1.24952 0
M  V30 119 O 14.9208 -1.18722 1.53684 0
M  V30 120 C 12.0508 -1.7789 2.98283 0
M  V30 121 C 11.0048 -1.35347 4.06036 0
M  V30 122 C 10.3308 -2.61846 4.66198 0
M  V30 123 C 11.6308 -0.499354 5.19907 0
M  V30 124 H 13.3248 -0.00824265 2.99399 0
M  V30 125 H 10.8708 -0.0025244 1.44 0
M  V30 126 H 12.8238 -2.39937 3.46422 0
M  V30 127 H 11.5478 -2.39405 2.22155 0
M  V30 128 H 10.2068 -0.756156 3.58717 0
M  V30 129 H 9.8548 -3.21632 3.86732 0
M  V30 130 H 9.5548 -2.3409 5.38958 0
M  V30 131 H 11.0788 -3.24732 5.1709 0
M  V30 132 H 12.4928 -1.02498 5.64063 0
M  V30 133 H 10.8898 -0.316424 5.99265 0
M  V30 134 H 11.9598 0.480459 4.82514 0
M  V30 135 N 13.3029 -1.57598 0.00835791 0
M  V30 136 C 14.7189 -1.55764 -0.347822 0
M  V30 137 C 14.9189 -1.01186 -1.74252 0
M  V30 138 O 13.9749 -0.649371 -2.44007 0
M  V30 139 C 15.2879 -2.99927 -0.215407 0
M  V30 140 C 16.8359 -3.11656 -0.289725 0
M  V30 141 C 17.3109 -4.57621 -0.18634 0
M  V30 142 N 18.8019 -4.62557 -0.243978 0
M  V30 143 C 19.5369 -5.73094 -0.18745 0
M  V30 144 N 19.0329 -6.92753 -0.0810331 0
M  V30 145 N 20.8259 -5.61588 -0.239925 0
M  V30 146 H 12.9769 -1.91411 0.92062 0
M  V30 147 H 15.2399 -0.879562 0.353659 0
M  V30 148 H 14.9459 -3.43729 0.744512 0
M  V30 149 H 14.8199 -3.63865 -0.994097 0
M  V30 150 H 17.2069 -2.67779 -1.24009 0
M  V30 151 H 17.2879 -2.5048 0.51898 0
M  V30 152 H 16.9319 -5.02174 0.760519 0
M  V30 153 H 16.8619 -5.16752 -1.01364 0
M  V30 154 H 19.3529 -3.76481 -0.327217 0
M  V30 155 H 19.6659 -7.72787 -0.0440241 0
M  V30 156 H 18.0109 -6.94984 -0.0465419 0
M  V30 157 H 21.2019 -4.66996 -0.321317 0
M  V30 158 H 21.3749 -6.47714 -0.192407 0
M  V30 159 N 14.781 0.264519 -1.55364 0
M  V30 160 C 16.197 0.61215 -1.47394 0
M  V30 161 C 16.397 1.89134 -0.695018 0
M  V30 162 O 15.453 2.51563 -0.217275 0
M  V30 163 C 16.766 0.731235 -2.91674 0
M  V30 164 C 18.314 0.82473 -3.01939 0
M  V30 165 C 18.789 0.975522 -4.4749 0
M  V30 166 N 20.28 1.04083 -4.51354 0
M  V30 167 C 21.015 1.17646 -5.61201 0
M  V30 168 N 20.511 1.27874 -6.80896 0
M  V30 169 N 22.304 1.20823 -5.48961 0
M  V30 170 H 14.455 -0.575456 -2.04456 0
M  V30 171 H 16.718 -0.196099 -0.927496 0
M  V30 172 H 16.424 -0.138392 -3.51428 0
M  V30 173 H 16.298 1.60883 -3.41169 0
M  V30 174 H 18.685 1.68482 -2.42276 0
M  V30 175 H 18.766 -0.0776479 -2.55682 0
M  V30 176 H 18.41 0.120058 -5.07758 0
M  V30 177 H 18.34 1.89268 -4.91412 0
M  V30 178 H 20.831 0.973846 -3.65136 0
M  V30 179 H 21.144 1.38081 -7.60364 0
M  V30 180 H 19.489 1.24863 -6.83692 0
M  V30 181 H 22.68 1.12469 -4.54388 0
M  V30 182 H 22.853 1.31049 -6.3461 0
M  V30 183 N 16.2591 1.48442 0.529413 0
M  V30 184 C 17.4871 1.60151 1.30994 0
M  V30 185 C 17.9021 0.261985 1.86973 0
M  V30 186 O 17.2591 -0.748805 1.66431 0
M  V30 187 C 17.3101 2.64854 2.46038 0
M  V30 188 O 17.0311 3.93608 1.92365 0
M  V30 189 C 18.5321 2.87007 3.37849 0
M  V30 190 H 15.7521 0.539971 0.398338 0
M  V30 191 H 18.2961 1.94273 0.638597 0
M  V30 192 H 16.4511 2.33589 3.09055 0
M  V30 193 H 16.8651 4.51055 2.67675 0
M  V30 194 H 18.3391 3.64068 4.14919 0
M  V30 195 H 18.8161 1.95852 3.93114 0
M  V30 196 H 19.4221 3.19579 2.80623 0
M  V30 197 N 17.7372 -0.778329 1.37039 0
M  V30 198 C 19.1482 -1.35421 1.28523 0
M  V30 199 C 19.4992 -1.96075 -0.0700901 0
M  V30 200 O 18.6242 -1.93352 -0.971801 0
M  V30 201 C 19.2192 -2.46211 2.32735 0
M  V30 202 C 17.7782 -2.99585 2.27873 0
M  V30 203 C 16.9252 -1.72748 2.16918 0
M  V30 204 H 19.8762 -0.5791 1.47757 0
M  V30 205 H 19.8972 -3.2552 1.9702 0
M  V30 206 H 19.4092 -2.02036 3.31365 0
M  V30 207 H 17.5102 -3.48152 1.32745 0
M  V30 208 H 17.6232 -3.55646 3.21018 0
M  V30 209 H 15.9872 -1.95416 1.63354 0
M  V30 210 H 16.7702 -1.30686 3.17452 0
M  V30 211 N 19.2153 -1.21501 -1.00376 0
M  V30 212 C 20.4403 -1.05977 -1.78279 0
M  V30 213 C 20.8653 0.385994 -1.84097 0
M  V30 214 O 20.2233 1.27849 -1.28547 0
M  V30 215 C 20.2713 -1.66302 -3.19963 0
M  V30 216 O 19.3753 -0.909333 -4.0225 0
M  V30 217 H 18.7163 -0.372906 -0.549397 0
M  V30 218 H 21.2463 -1.6107 -1.26165 0
M  V30 219 H 21.2563 -1.70574 -3.70632 0
M  V30 220 H 19.9313 -2.71515 -3.15043 0
M  V30 221 H 18.5083 -0.941795 -3.60811 0
M  V30 222 N 20.6934 1.19889 -1.02296 0
M  V30 223 C 21.9394 1.89973 -0.726759 0
M  V30 224 C 22.2944 1.7776 0.73614 0
M  V30 225 O 21.5874 1.15523 1.52856 0
M  V30 226 C 21.7814 3.39883 -1.10518 0
M  V30 227 C 21.6104 3.66684 -2.60332 0
M  V30 228 C 20.3804 3.85045 -3.27213 0
M  V30 229 C 22.5784 3.68727 -3.58532 0
M  V30 230 N 20.5604 3.99422 -4.66192 0
M  V30 231 C 21.9314 3.88604 -4.83101 0
M  V30 232 C 23.9864 3.51722 -3.52414 0
M  V30 233 C 22.6894 3.9324 -6.02292 0
M  V30 234 C 24.7154 3.57632 -4.71013 0
M  V30 235 C 24.0774 3.77988 -5.94394 0
M  V30 236 H 20.1764 0.714551 -0.317712 0
M  V30 237 H 22.7604 1.44123 -1.30907 0
M  V30 238 H 20.9314 3.8447 -0.551142 0
M  V30 239 H 22.6634 3.97464 -0.761853 0
M  V30 240 H 19.4184 3.83689 -2.77632 0
M  V30 241 H 19.8424 4.10473 -5.38368 0
M  V30 242 H 24.4844 3.34945 -2.58015 0
M  V30 243 H 22.2024 4.08811 -6.97065 0
M  V30 244 H 25.7884 3.45773 -4.67902 0
M  V30 245 H 24.6684 3.82428 -6.8463 0
M  V30 246 N 22.1715 0.800033 1.35784 0
M  V30 247 C 23.3965 0.388511 2.03729 0
M  V30 248 C 23.8215 -0.990481 1.5991 0
M  V30 249 O 23.1795 -1.64013 0.772612 0
M  V30 250 C 23.2275 0.4726 3.5749 0
M  V30 251 O 22.3315 -0.51646 4.09153 0
M  V30 252 H 21.6725 0.163271 0.643614 0
M  V30 253 H 24.2025 1.0841 1.73518 0
M  V30 254 H 24.2125 0.34003 4.06581 0
M  V30 255 H 22.8875 1.47848 3.88734 0
M  V30 256 H 21.4645 -0.344673 3.71304 0
M  V30 257 N 23.6496 -1.47581 0.552962 0
M  V30 258 C 24.8746 -2.07378 0.0300593 0
M  V30 259 C 25.2996 -1.40355 -1.25229 0
M  V30 260 O 24.6576 -0.477099 -1.7491 0
M  V30 261 C 24.7056 -3.60274 -0.153231 0
M  V30 262 O 23.8096 -3.94041 -1.21678 0
M  V30 263 H 23.1506 -0.662158 0.0494182 0
M  V30 264 H 25.6806 -1.89662 0.767434 0
M  V30 265 H 25.6906 -4.0633 -0.368761 0
M  V30 266 H 24.3656 -4.08455 0.783397 0
M  V30 267 H 22.9426 -3.59735 -0.982079 0
M  V30 268 N 25.1277 -0.289203 -1.54924 0
M  V30 269 C 26.0577 0.58549 -2.2604 0
M  V30 270 C 27.0387 1.14753 -1.25562 0
M  V30 271 O 28.2237 1.17906 -1.54311 0
M  V30 272 C 25.3537 1.76305 -2.99222 0
M  V30 273 C 24.3077 1.33191 -4.06748 0
M  V30 274 C 23.6337 2.5937 -4.6758 0
M  V30 275 C 24.9337 0.471775 -5.20165 0
M  V30 276 H 26.6277 -0.00763532 -2.99399 0
M  V30 277 H 24.1737 -0.00511229 -1.43999 0
M  V30 278 H 26.1267 2.38097 -3.47689 0
M  V30 279 H 24.8507 2.38223 -2.23422 0
M  V30 280 H 23.5097 0.737121 -3.59113 0
M  V30 281 H 23.1577 3.19576 -3.88433 0
M  V30 282 H 22.8577 2.31228 -5.40192 0
M  V30 283 H 24.3817 3.21985 -5.18804 0
M  V30 284 H 25.7957 0.995056 -5.64599 0
M  V30 285 H 24.1927 0.284639 -5.99425 0
M  V30 286 H 25.2627 -0.506041 -4.82252 0
M  V30 287 N 26.6058 1.57591 -0.0167156 0
M  V30 288 C 27.8538 1.90906 0.663285 0
M  V30 289 C 28.1748 0.892509 1.73376 0
M  V30 290 O 27.4448 -0.0677623 1.95783 0
M  V30 291 H 26.0248 0.704637 0.247983 0
M  V30 292 H 28.6868 1.94803 -0.0615909 0
M  V30 293 H 27.7828 2.9116 1.12393 0
M  V30 294 N 28.0839 -0.256276 1.55502 0
M  V30 295 C 29.3319 -0.983672 1.76545 0
M  V30 296 C 29.6529 -1.86206 0.578982 0
M  V30 297 O 28.9229 -1.91656 -0.405577 0
M  V30 298 H 27.5029 -0.366191 0.651086 0
M  V30 299 H 30.1649 -0.276479 1.92929 0
M  V30 300 H 29.2609 -1.61087 2.67315 0
M  V30 301 N 29.562 -1.4872 -0.521534 0
M  V30 302 C 30.787 -1.61101 -1.30618 0
M  V30 303 C 31.212 -0.274611 -1.86085 0
M  V30 304 O 30.57 0.754937 -1.64834 0
M  V30 305 C 30.618 -2.66709 -2.4269 0
M  V30 306 O 29.722 -2.24456 -3.45967 0
M  V30 307 H 29.063 -0.539921 -0.386499 0
M  V30 308 H 31.593 -1.94767 -0.626645 0
M  V30 309 H 31.603 -2.88245 -2.88754 0
M  V30 310 H 30.278 -3.63727 -2.01682 0
M  V30 311 H 28.855 -2.13168 -3.05964 0
M  V30 312 N 31.0401 0.771051 -1.3745 0
M  V30 313 C 31.9501 1.91538 -1.35464 0
M  V30 314 C 32.9661 1.72134 -0.254123 0
M  V30 315 O 34.1421 1.95358 -0.489626 0
M  V30 316 C 31.2071 3.26671 -1.16134 0
M  V30 317 C 30.2681 3.58723 -2.35831 0
M  V30 318 C 29.5011 4.87409 -2.17413 0
M  V30 319 O 29.7241 5.58506 -1.15876 0
M  V30 320 O 28.6581 5.18539 -3.05615 0
M  V30 321 H 32.4841 1.96165 -2.31847 0
M  V30 322 H 30.0691 0.9139 -1.18187 0
M  V30 323 H 31.9511 4.07499 -1.07345 0
M  V30 324 H 30.6261 3.22894 -0.228251 0
M  V30 325 H 29.5331 2.78127 -2.50192 0
M  V30 326 H 30.8661 3.67243 -3.27709 0
M  V30 327 N 32.5182 1.22032 0.997298 0
M  V30 328 C 33.4682 0.953838 2.07089 0
M  V30 329 C 34.4522 -0.0938669 1.60626 0
M  V30 330 O 35.6442 0.116078 1.76619 0
M  V30 331 C 32.7732 0.528726 3.39204 0
M  V30 332 C 31.8592 1.61092 3.92314 0
M  V30 333 N 32.2502 2.83768 4.18699 0
M  V30 334 C 30.5482 1.48158 4.20672 0
M  V30 335 C 31.2492 3.53715 4.61802 0
M  V30 336 N 30.2252 2.81174 4.65233 0
M  V30 337 H 34.0272 1.88577 2.25424 0
M  V30 338 H 31.5412 1.11719 1.17867 0
M  V30 339 H 33.5382 0.31915 4.15677 0
M  V30 340 H 32.1982 -0.39635 3.22272 0
M  V30 341 H 33.2092 3.20238 4.07023 0
M  V30 342 H 29.8862 0.622369 4.12835 0
M  V30 343 H 31.2762 4.58793 4.90875 0
M  V30 344 N 33.9963 -1.19345 1.0293 0
M  V30 345 C 34.9283 -2.22036 0.56857 0
M  V30 346 C 35.9413 -1.58865 -0.355779 0
M  V30 347 O 37.1303 -1.77851 -0.152103 0
M  V30 348 C 34.2303 -3.38363 -0.190752 0
M  V30 349 C 33.4033 -4.31118 0.738643 0
M  V30 350 C 32.4623 -5.26194 0.0246497 0
M  V30 351 O 31.4883 -5.65461 0.651354 0
M  V30 352 N 32.6903 -5.66971 -1.24594 0
M  V30 353 H 35.4553 -2.6219 1.45177 0
M  V30 354 H 33.0163 -1.34015 0.908381 0
M  V30 355 H 35.0083 -3.98981 -0.677961 0
M  V30 356 H 33.5783 -2.96994 -0.975366 0
M  V30 357 H 32.7983 -3.68276 1.40593 0
M  V30 358 H 34.0863 -4.90001 1.37029 0
M  V30 359 H 33.4843 -5.37104 -1.77583 0
M  V30 360 H 32.0413 -6.2984 -1.67764 0
M  V30 361 N 35.4744 -0.807222 -1.35358 0
M  V30 362 C 36.3844 -0.219594 -2.3357 0
M  V30 363 C 37.4004 0.637734 -1.61892 0
M  V30 364 O 38.5764 0.549336 -1.93763 0
M  V30 365 C 35.6414 0.62158 -3.41083 0
M  V30 366 C 34.7024 -0.256315 -4.28534 0
M  V30 367 C 33.9354 0.544807 -5.30912 0
M  V30 368 O 34.1584 1.77944 -5.41934 0
M  V30 369 O 33.0924 -0.0646478 -6.01865 0
M  V30 370 H 36.9184 -1.03208 -2.85625 0
M  V30 371 H 34.5034 -0.569025 -1.38139 0
M  V30 372 H 36.3854 1.10067 -4.06772 0
M  V30 373 H 35.0604 1.41165 -2.91297 0
M  V30 374 H 33.9674 -0.782559 -3.65823 0
M  V30 375 H 35.3004 -1.01034 -4.81719 0
M  V30 376 N 36.9525 1.47285 -0.560781 0
M  V30 377 C 37.8855 2.27009 0.232821 0
M  V30 378 C 38.8635 1.34273 0.917039 0
M  V30 379 O 40.0475 1.63659 0.935315 0
M  V30 380 C 37.1745 3.11406 1.33206 0
M  V30 381 C 36.2205 4.19746 0.756019 0
M  V30 382 S 37.0535 5.34003 -0.400165 0
M  V30 383 C 38.2095 6.21964 0.700805 0
M  V30 384 H 38.4425 2.93971 -0.443683 0
M  V30 385 H 35.9755 1.50446 -0.347181 0
M  V30 386 H 37.9335 3.60601 1.96156 0
M  V30 387 H 36.5945 2.438 1.98041 0
M  V30 388 H 35.7875 4.78541 1.5816 0
M  V30 389 H 35.3895 3.73451 0.202619 0
M  V30 390 H 37.6815 6.58529 1.59202 0
M  V30 391 H 38.6245 7.07941 0.150126 0
M  V30 392 H 39.0325 5.5566 0.995083 0
M  V30 393 N 38.4306 0.297415 1.54768 0
M  V30 394 C 39.6556 -0.318435 2.04941 0
M  V30 395 C 40.0806 -1.4701 1.17345 0
M  V30 396 O 39.4386 -1.80436 0.176758 0
M  V30 397 C 39.4866 -0.755749 3.52592 0
M  V30 398 O 38.5906 -1.86088 3.68028 0
M  V30 399 H 37.9316 -0.062421 0.661059 0
M  V30 400 H 40.4616 0.438215 1.99852 0
M  V30 401 H 40.4716 -1.04552 3.94376 0
M  V30 402 H 39.1466 0.0867233 4.1581 0
M  V30 403 H 37.7236 -1.57193 3.38149 0
M  V30 404 N 39.9087 -1.5758 0.0250728 0
M  V30 405 C 41.1557 -1.91633 -0.654444 0
M  V30 406 C 41.4837 -0.901103 -1.72367 0
M  V30 407 O 40.7387 0.0905647 -1.9549 0
M  V30 408 C 41.0377 -3.32421 -1.31268 0
M  V30 409 C 40.7037 -4.49344 -0.374223 0
M  V30 410 C 39.3657 -4.8106 -0.115911 0
M  V30 411 C 41.7177 -5.20498 0.270432 0
M  V30 412 C 39.0457 -5.8129 0.79493 0
M  V30 413 C 41.3977 -6.21699 1.1693 0
M  V30 414 C 40.0617 -6.51859 1.43655 0
M  V30 415 H 39.3317 -0.701236 -0.239478 0
M  V30 416 H 41.9787 -1.91307 0.0859734 0
M  V30 417 H 40.2837 -3.28989 -2.12775 0
M  V30 418 H 41.9807 -3.56038 -1.84494 0
M  V30 419 H 38.5707 -4.24579 -0.58573 0
M  V30 420 H 42.7547 -4.96229 0.0839194 0
M  V30 421 H 38.0107 -6.03005 1.00973 0
M  V30 422 H 42.1847 -6.75955 1.67504 0
M  V30 423 H 39.8117 -7.2934 2.144 0
M  V30 424 N 41.3868 0.248026 -1.55636 0
M  V30 425 C 42.3168 1.31079 -1.93237 0
M  V30 426 C 43.2978 1.50264 -0.797174 0
M  V30 427 O 44.4828 1.62891 -1.05737 0
M  V30 428 C 41.6128 2.66575 -2.22609 0
M  V30 429 C 40.5668 2.62087 -3.3837 0
M  V30 430 C 39.8928 4.01369 -3.53281 0
M  V30 431 C 41.1928 2.19171 -4.7409 0
M  V30 432 H 42.8868 0.998556 -2.82257 0
M  V30 433 H 40.4328 0.47891 -1.35803 0
M  V30 434 H 42.3858 3.41057 -2.47503 0
M  V30 435 H 41.1098 2.99432 -1.30414 0
M  V30 436 H 39.7688 1.90063 -3.13483 0
M  V30 437 H 39.4168 4.31489 -2.58508 0
M  V30 438 H 39.1168 3.99254 -4.31127 0
M  V30 439 H 40.6408 4.77552 -3.80495 0
M  V30 440 H 42.0548 2.83384 -4.98363 0
M  V30 441 H 40.4518 2.2817 -5.5503 0
M  V30 442 H 41.5218 1.14336 -4.71227 0
M  V30 443 N 42.8649 1.48995 0.513639 0
M  V30 444 C 43.7749 1.67443 1.64317 0
M  V30 445 C 44.7909 0.556947 1.64846 0
M  V30 446 O 45.9669 0.830082 1.83498 0
M  V30 447 C 43.0319 1.72515 3.00732 0
M  V30 448 C 42.0929 2.96009 3.1093 0
M  V30 449 C 41.3259 3.00829 4.40837 0
M  V30 450 O 41.5489 2.13594 5.28898 0
M  V30 451 O 40.4829 3.93168 4.55744 0
M  V30 452 H 44.3089 2.63106 1.51687 0
M  V30 453 H 41.8939 1.32588 0.688543 0
M  V30 454 H 43.7759 1.78277 3.81831 0
M  V30 455 H 42.4509 0.800278 3.13651 0
M  V30 456 H 41.3579 2.9577 2.29065 0
M  V30 457 H 42.6909 3.87934 3.02933 0
M  V30 458 N 44.343 -0.763751 1.37857 0
M  V30 459 C 45.275 -1.88664 1.30148 0
M  V30 460 C 46.288 -1.61365 0.215685 0
M  V30 461 O 47.477 -1.72134 0.472459 0
M  V30 462 C 44.577 -3.24075 0.991396 0
M  V30 463 C 43.75 -3.78958 2.18426 0
M  V30 464 C 42.809 -4.92862 1.8432 0
M  V30 465 O 41.835 -5.08027 2.56704 0
M  V30 466 N 43.037 -5.75071 0.792081 0
M  V30 467 H 45.802 -1.95791 2.26905 0
M  V30 468 H 43.363 -0.943226 1.31586 0
M  V30 469 H 45.355 -3.97804 0.743935 0
M  V30 470 H 43.925 -3.12399 0.112122 0
M  V30 471 H 43.145 -2.96913 2.59299 0
M  V30 472 H 44.433 -4.12357 2.98058 0
M  V30 473 H 43.831 -5.65375 0.191595 0
M  V30 474 H 42.388 -6.48991 0.60449 0
M  V30 475 N 45.8211 -1.22559 -0.990812 0
M  V30 476 C 46.7311 -1.01394 -2.11557 0
M  V30 477 C 47.7471 0.0383962 -1.73958 0
M  V30 478 O 48.9231 -0.154787 -2.00804 0
M  V30 479 C 45.9881 -0.596569 -3.41529 0
M  V30 480 C 45.0491 -1.72276 -3.93217 0
M  V30 481 C 44.2821 -1.32521 -5.16985 0
M  V30 482 O 44.5051 -0.204909 -5.70032 0
M  V30 483 O 43.4391 -2.14247 -5.62478 0
M  V30 484 H 47.2651 -1.95633 -2.32296 0
M  V30 485 H 44.8501 -1.01172 -1.0993 0
M  V30 486 H 46.7321 -0.374263 -4.19735 0
M  V30 487 H 45.4071 0.316939 -3.22145 0
M  V30 488 H 44.3141 -1.99961 -3.16174 0
M  V30 489 H 45.6471 -2.61421 -4.17037 0
M  V30 490 N 47.2992 1.18797 -1.03562 0
M  V30 491 C 48.2472 2.24297 -0.615905 0
M  V30 492 C 49.2412 1.65643 0.354808 0
M  V30 493 O 50.4472 1.78618 0.22265 0
M  V30 494 H 46.8222 0.729909 -0.180934 0
M  V30 495 H 48.7932 2.5701 -1.5162 0
M  V30 496 C 47.5422 3.47698 0.0104735 0
M  V30 497 H 46.8652 3.93125 -0.727509 0
M  V30 498 H 48.3052 4.23159 0.266995 0
M  V30 499 C 46.7642 3.12489 1.25905 0
M  V30 500 O 47.2942 3.25761 2.35038 0
M  V30 501 N 45.5002 2.6686 1.15039 0
M  V30 502 H 45.0472 2.56261 0.262328 0
M  V30 503 H 45.0052 2.43674 1.98672 0
M  V30 504 N 48.7773 0.814389 1.34928 0
M  V30 505 C 50.0023 0.410097 2.03305 0
M  V30 506 C 50.4273 -0.973464 1.60951 0
M  V30 507 O 49.7853 -1.63185 0.789964 0
M  V30 508 C 49.8333 0.51049 3.56968 0
M  V30 509 O 48.9373 -0.473035 4.09678 0
M  V30 510 H 48.2783 0.170088 0.641846 0
M  V30 511 H 50.8083 1.10244 1.72358 0
M  V30 512 H 50.8183 0.383135 4.06197 0
M  V30 513 H 49.4933 1.51963 3.87144 0
M  V30 514 H 48.0703 -0.305272 3.71648 0
M  V30 515 N 50.2554 -1.46986 0.568584 0
M  V30 516 C 51.4804 -2.07335 0.0520528 0
M  V30 517 C 51.9054 -1.41675 -1.23733 0
M  V30 518 O 51.2634 -0.495623 -1.74394 0
M  V30 519 C 51.3114 -3.60417 -0.11501 0
M  V30 520 O 50.4154 -3.95309 -1.17492 0
M  V30 521 H 49.7564 -0.661597 0.0564385 0
M  V30 522 H 52.2864 -1.88837 0.787507 0
M  V30 523 H 52.2964 -4.06698 -0.325644 0
M  V30 524 H 50.9714 -4.07601 0.826675 0
M  V30 525 H 49.5484 -3.60757 -0.943869 0
M  V30 526 N 51.7335 -0.305618 -1.54608 0
M  V30 527 C 52.9585 0.307562 -2.05107 0
M  V30 528 C 53.3835 1.46385 -1.18123 0
M  V30 529 O 52.7415 1.8034 -0.186324 0
M  V30 530 C 52.7895 0.73704 -3.52987 0
M  V30 531 O 51.8935 1.84134 -3.6901 0
M  V30 532 H 51.2345 0.0589143 -0.661381 0
M  V30 533 H 53.7645 -0.448807 -1.99617 0
M  V30 534 H 53.7745 1.02459 -3.94925 0
M  V30 535 H 52.4495 -0.108773 -4.15758 0
M  V30 536 H 51.0265 1.55398 -3.38978 0
M  V30 537 N 53.2116 1.57565 -0.0334293 0
M  V30 538 C 54.4576 1.93088 0.639417 0
M  V30 539 C 54.8126 0.910589 1.69488 0
M  V30 540 O 54.1056 -0.0727725 1.91462 0
M  V30 541 C 54.2996 3.33112 1.29504 0
M  V30 542 C 54.1286 4.48667 0.304604 0
M  V30 543 C 52.8986 5.05207 -0.0970777 0
M  V30 544 C 55.0966 5.1239 -0.442845 0
M  V30 545 N 53.0786 6.04286 -1.08223 0
M  V30 546 C 54.4496 6.06609 -1.28161 0
M  V30 547 C 56.5046 4.95352 -0.50308 0
M  V30 548 C 55.2076 6.85622 -2.17519 0
M  V30 549 C 57.2336 5.74978 -1.38401 0
M  V30 550 C 56.5956 6.68816 -2.21054 0
M  V30 551 H 52.6946 0.754335 0.206161 0
M  V30 552 H 55.2786 1.94435 -0.101613 0
M  V30 553 H 53.4496 3.32576 2.00618 0
M  V30 554 H 55.1816 3.55972 1.92525 0
M  V30 555 H 51.9366 4.72782 0.278255 0
M  V30 556 H 52.3606 6.58516 -1.57117 0
M  V30 557 H 57.0026 4.22625 0.121694 0
M  V30 558 H 54.7206 7.57652 -2.81049 0
M  V30 559 H 58.3066 5.63826 -1.43496 0
M  V30 560 H 57.1866 7.29355 -2.88116 0
M  V30 561 N 54.6897 -0.239769 1.55765 0
M  V30 562 C 56.1007 -0.808263 1.68297 0
M  V30 563 C 56.4517 -1.85736 0.632181 0
M  V30 564 O 55.5767 -2.15277 -0.220204 0
M  V30 565 C 56.1717 -1.47284 3.05111 0
M  V30 566 C 54.7307 -1.98895 3.19559 0
M  V30 567 C 53.8777 -0.842575 2.64189 0
M  V30 568 H 56.8287 -0.0154422 1.58692 0
M  V30 569 H 56.8497 -2.34111 2.99954 0
M  V30 570 H 56.3617 -0.709053 3.81568 0
M  V30 571 H 54.4627 -2.78132 2.47938 0
M  V30 572 H 54.5757 -2.18143 4.26556 0
M  V30 573 H 52.9397 -1.24501 2.22197 0
M  V30 574 H 53.7227 -0.0917552 3.43177 0
M  V30 575 N 56.1678 -1.49265 -0.50573 0
M  V30 576 C 57.3928 -1.62478 -1.28902 0
M  V30 577 C 57.8178 -0.294332 -1.85783 0
M  V30 578 O 57.1758 0.737412 -1.65626 0
M  V30 579 C 57.2238 -2.69268 -2.39848 0
M  V30 580 O 56.3278 -2.28113 -3.43567 0
M  V30 581 H 55.6688 -0.54399 -0.380751 0
M  V30 582 H 58.1988 -1.95421 -0.605952 0
M  V30 583 H 58.2088 -2.91291 -2.85681 0
M  V30 584 H 56.8838 -3.65846 -1.97812 0
M  V30 585 H 55.4608 -2.16401 -3.03685 0
M  V30 586 N 57.6459 0.756429 -1.3826 0
M  V30 587 C 59.0569 1.33359 -1.30661 0
M  V30 588 C 59.4079 1.96161 0.0388875 0
M  V30 589 O 58.5329 1.94874 0.940918 0
M  V30 590 C 59.1279 2.42477 -2.36622 0
M  V30 591 C 57.6869 2.95922 -2.3261 0
M  V30 592 C 56.8339 1.69275 -2.19639 0
M  V30 593 H 59.7849 0.55552 -1.4866 0
M  V30 594 H 59.8059 3.22345 -2.02174 0
M  V30 595 H 59.3179 1.96739 -3.34538 0
M  V30 596 H 57.4189 3.45996 -1.38267 0
M  V30 597 H 57.5319 3.50494 -3.26636 0
M  V30 598 H 55.8959 1.92793 -1.66442 0
M  V30 599 H 56.6789 1.25619 -3.19491 0
M  V30 600 N 59.124 1.23083 0.984299 0
M  V30 601 C 60.087 1.00979 2.05757 0
M  V30 602 C 61.087 -0.0269573 1.60777 0
M  V30 603 O 62.277 0.212403 1.729 0
M  V30 604 C 59.409 0.527072 3.36801 0
M  V30 605 H 60.602 1.9622 2.26799 0
M  V30 606 H 58.155 1.05072 1.15714 0
M  V30 607 H 58.89 -0.429294 3.21446 0
M  V30 608 H 58.675 1.27515 3.70786 0
M  V30 609 H 60.165 0.392942 4.15747 0
M  V30 610 N 60.6021 -1.18246 1.0419 0
M  V30 611 C 61.8481 -1.88536 0.747122 0
M  V30 612 C 62.1811 -1.80223 -0.723409 0
M  V30 613 O 61.4561 -1.20337 -1.52804 0
M  V30 614 C 61.7391 -3.38968 1.21544 0
M  V30 615 C 61.5921 -3.56084 2.74816 0
M  V30 616 C 62.9111 -4.32648 0.806482 0
M  V30 617 H 60.0301 -0.684619 0.272883 0
M  V30 618 H 62.6721 -1.39113 1.29413 0
M  V30 619 H 60.8221 -3.8119 0.750081 0
M  V30 620 H 62.4941 -3.22946 3.29399 0
M  V30 621 H 60.7371 -2.98699 3.14582 0
M  V30 622 H 61.4081 -4.61639 3.02644 0
M  V30 623 H 63.8841 -3.98211 1.20695 0
M  V30 624 H 62.7601 -5.36462 1.1619 0
M  V30 625 H 63.0211 -4.41146 -0.29029 0
M  V30 626 N 62.0802 -0.821533 -1.34494 0
M  V30 627 C 63.3082 -0.421884 -2.02553 0
M  V30 628 C 63.7232 0.971745 -1.61872 0
M  V30 629 O 63.0802 1.62864 -0.823496 0
M  V30 630 C 63.1312 -0.51285 -3.57844 0
M  V30 631 O 62.8522 -1.85155 -3.97051 0
M  V30 632 C 64.3532 -0.107921 -4.43169 0
M  V30 633 H 61.5732 -0.169482 -0.649243 0
M  V30 634 H 64.1172 -1.1093 -1.71798 0
M  V30 635 H 62.2722 0.126474 -3.87193 0
M  V30 636 H 62.6862 -1.82482 -4.91732 0
M  V30 637 H 64.1602 -0.222657 -5.51551 0
M  V30 638 H 64.6372 0.948401 -4.28838 0
M  V30 639 H 65.2432 -0.720989 -4.19144 0
M  V30 640 N 63.5583 1.46682 -0.576371 0
M  V30 641 C 64.7833 2.07304 -0.0630475 0
M  V30 642 C 65.2083 1.42329 1.2298 0
M  V30 643 O 64.5663 0.504865 1.74129 0
M  V30 644 C 64.6143 3.60472 0.095895 0
M  V30 645 O 63.7183 3.95927 1.15394 0
M  V30 646 H 63.0593 0.661288 -0.0599463 0
M  V30 647 H 65.5893 1.88417 -0.797511 0
M  V30 648 H 65.5993 4.06865 0.304071 0
M  V30 649 H 64.2743 4.07157 -0.84828 0
M  V30 650 H 62.8513 3.61252 0.924724 0
M  V30 651 N 65.0364 0.313813 1.54444 0
M  V30 652 C 66.2614 -0.296681 2.05267 0
M  V30 653 C 66.6864 -1.45757 1.18897 0
M  V30 654 O 66.0444 -1.80239 0.195886 0
M  V30 655 C 66.0924 -0.71831 3.53373 0
M  V30 656 O 65.1964 -1.82175 3.69981 0
M  V30 657 H 64.5374 -0.0554061 0.661684 0
M  V30 658 H 67.0674 0.459387 1.99376 0
M  V30 659 H 67.0774 -1.00364 3.95463 0
M  V30 660 H 65.7524 0.130821 4.15694 0
M  V30 661 H 64.3294 -1.53598 3.39797 0
M  V30 662 N 66.5145 -1.57545 0.0417849 0
M  V30 663 C 67.7395 -1.97035 -0.647455 0
M  V30 664 C 68.1645 -0.918775 -1.64135 0
M  V30 665 O 67.5225 0.119006 -1.80909 0
M  V30 666 C 67.5705 -3.35609 -1.31905 0
M  V30 667 O 66.6745 -3.3287 -2.43457 0
M  V30 668 H 66.0155 -0.64211 -0.169086 0
M  V30 669 H 68.5455 -2.04318 0.107399 0
M  V30 670 H 68.5555 -3.72126 -1.67291 0
M  V30 671 H 67.2305 -4.11685 -0.590586 0
M  V30 672 H 65.8075 -3.08087 -2.10088 0
M  V30 673 N 67.9926 0.231505 -1.5589 0
M  V30 674 C 68.9026 1.308 -1.94752 0
M  V30 675 C 69.9186 1.51826 -0.849989 0
M  V30 676 O 71.0946 1.6515 -1.15271 0
M  V30 677 C 68.1596 2.63968 -2.24771 0
M  V30 678 C 67.2206 2.51331 -3.48039 0
M  V30 679 C 66.4536 3.78148 -3.76616 0
M  V30 680 O 66.6766 4.80722 -3.07022 0
M  V30 681 O 65.6106 3.75857 -4.70123 0
M  V30 682 H 69.4366 1.0083 -2.86474 0
M  V30 683 H 67.0216 0.433547 -1.42971 0
M  V30 684 H 68.9036 3.42633 -2.45318 0
M  V30 685 H 67.5786 2.9364 -1.36225 0
M  V30 686 H 66.4856 1.709 -3.32782 0
M  V30 687 H 67.8186 2.26601 -4.36936 0
M  V30 688 N 69.4707 1.49531 0.497807 0
M  V30 689 C 70.8867 1.36365 0.829266 0
M  V30 690 C 71.0867 0.399184 1.97506 0
M  V30 691 O 70.1427 -0.167977 2.51941 0
M  V30 692 C 71.4557 2.77153 1.16647 0
M  V30 693 C 73.0037 2.85877 1.27449 0
M  V30 694 C 73.4787 4.2744 1.64497 0
M  V30 695 N 74.9697 4.30265 1.7154 0
M  V30 696 C 75.7047 5.3677 2.01656 0
M  V30 697 N 75.2007 6.53516 2.29976 0
M  V30 698 N 76.9937 5.24189 2.02934 0
M  V30 699 H 69.1447 2.10831 -0.257703 0
M  V30 700 H 71.4077 0.946534 -0.0527091 0
M  V30 701 H 71.1137 3.49442 0.397872 0
M  V30 702 H 70.9877 3.12722 2.10915 0
M  V30 703 H 73.3747 2.13824 2.0338 0
M  V30 704 H 73.4557 2.53887 0.312244 0
M  V30 705 H 73.0997 5.00021 0.891151 0
M  V30 706 H 73.0297 4.56896 2.61827 0
M  V30 707 H 75.5207 3.4607 1.51802 0
M  V30 708 H 75.8337 7.30506 2.52153 0
M  V30 709 H 74.1787 6.56737 2.27425 0
M  V30 710 H 77.3697 4.31988 1.80289 0
M  V30 711 H 77.5427 6.07286 2.26071 0
M  V30 712 N 70.9488 -0.749086 1.3866 0
M  V30 713 C 72.1978 -1.50371 1.3443 0
M  V30 714 C 72.5108 -1.95503 -0.0616397 0
M  V30 715 O 73.7168 -2.70554 -0.226489 0
M  V30 716 C 72.1728 -2.71644 2.36088 0
M  V30 717 C 71.7808 -2.3352 3.82325 0
M  V30 718 C 73.5248 -3.49518 2.40909 0
M  V30 719 C 71.4318 -3.51431 4.75658 0
M  V30 720 H 70.3618 -0.564628 0.499712 0
M  V30 721 H 73.0128 -0.818449 1.64237 0
M  V30 722 H 71.3948 -3.42175 1.9933 0
M  V30 723 H 72.5688 -1.70627 4.28046 0
M  V30 724 H 70.8838 -1.6877 3.80665 0
M  V30 725 H 73.4808 -4.37197 3.07836 0
M  V30 726 H 73.8238 -3.90992 1.42937 0
M  V30 727 H 74.3568 -2.86005 2.76489 0
M  V30 728 H 71.0958 -3.15019 5.74842 0
M  V30 729 H 70.6158 -4.13352 4.34627 0
M  V30 730 H 72.2948 -4.17953 4.93887 0
M  V30 731 N 72.4269 -1.23603 -0.977757 0
M  V30 732 C 73.8429 -0.999251 -1.24447 0
M  V30 733 C 74.0429 0.298053 -1.99283 0
M  V30 734 O 73.0989 1.01681 -2.31122 0
M  V30 735 C 74.4119 -2.20784 -2.04144 0
M  V30 736 C 75.9599 -2.25303 -2.17273 0
M  V30 737 C 76.4349 -3.45755 -3.00362 0
M  V30 738 N 77.9259 -3.4601 -3.07947 0
M  V30 739 C 78.6609 -4.35868 -3.72568 0
M  V30 740 N 78.1569 -5.35966 -4.38991 0
M  V30 741 N 79.9499 -4.23605 -3.6948 0
M  V30 742 H 72.1009 -2.06986 -0.476483 0
M  V30 743 H 74.3639 -0.907801 -0.273134 0
M  V30 744 H 74.0699 -3.14945 -1.56533 0
M  V30 745 H 73.9439 -2.22085 -3.04891 0
M  V30 746 H 76.3309 -1.3168 -2.64092 0
M  V30 747 H 76.4119 -2.28033 -1.15907 0
M  V30 748 H 76.0559 -4.39687 -2.5424 0
M  V30 749 H 75.9859 -3.40266 -4.01904 0
M  V30 750 H 78.4769 -2.73588 -2.60688 0
M  V30 751 H 78.7899 -6.00783 -4.86086 0
M  V30 752 H 77.1349 -5.39863 -4.37691 0
M  V30 753 H 80.3259 -3.44647 -3.16759 0
M  V30 754 H 80.4989 -4.93836 -4.1956 0
M  V30 755 N 73.905 1.17692 -1.04816 0
M  V30 756 C 75.153 1.87488 -0.754497 0
M  V30 757 C 75.474 1.81205 0.720407 0
M  V30 758 O 74.744 1.23544 1.52032 0
M  V30 759 H 73.324 0.694101 -0.276102 0
M  V30 760 H 75.986 1.42793 -1.32651 0
M  V30 761 H 75.082 2.93328 -1.06606 0
M  V30 762 N 75.3831 0.828654 1.34056 0
M  V30 763 C 76.3301 0.252567 2.29414 0
M  V30 764 C 77.3001 -0.62588 1.53857 0
M  V30 765 O 78.4851 -0.566312 1.82202 0
M  V30 766 C 75.6251 -0.574831 3.40279 0
M  V30 767 C 74.7381 0.326499 4.30764 0
M  V30 768 C 73.8731 -0.511016 5.28736 0
M  V30 769 C 72.9121 0.389342 6.1086 0
M  V30 770 N 72.0491 -0.409439 7.00905 0
M  V30 771 H 76.8891 1.07108 2.78086 0
M  V30 772 H 74.4261 0.539677 1.36843 0
M  V30 773 H 76.3841 -1.06992 4.03248 0
M  V30 774 H 75.0141 -1.35841 2.92826 0
M  V30 775 H 74.0661 0.939837 3.68607 0
M  V30 776 H 75.3781 1.01857 4.88289 0
M  V30 777 H 74.5321 -1.07035 5.97184 0
M  V30 778 H 73.2711 -1.23657 4.71763 0
M  V30 779 H 72.2761 0.960769 5.4134 0
M  V30 780 H 73.5011 1.1131 6.69916 0
M  V30 781 H 71.4471 -1.11856 6.46393 0
M  V30 782 H 71.3641 0.224126 7.55668 0
M  V30 783 H 72.6321 -0.951336 7.73673 0
M  V30 784 N 76.8612 -1.46375 0.584142 0
M  V30 785 C 78.2772 -1.57694 0.245929 0
M  V30 786 C 78.4772 -1.57903 -1.25175 0
M  V30 787 O 77.5332 -1.49676 -2.03355 0
M  V30 788 C 78.8462 -2.87028 0.896402 0
M  V30 789 C 80.3942 -3.00662 0.870127 0
M  V30 790 C 80.8692 -4.32734 1.50017 0
M  V30 791 N 82.3602 -4.39436 1.46458 0
M  V30 792 C 83.0952 -5.40248 1.92144 0
M  V30 793 N 82.5912 -6.47726 2.4581 0
M  V30 794 N 84.3842 -5.31459 1.83052 0
M  V30 795 H 76.5352 -1.44483 1.55687 0
M  V30 796 H 78.7982 -0.689291 0.650831 0
M  V30 797 H 78.5042 -2.9269 1.95002 0
M  V30 798 H 78.3782 -3.75014 0.405486 0
M  V30 799 H 80.7652 -2.94581 -0.174871 0
M  V30 800 H 80.8462 -2.14148 1.39908 0
M  V30 801 H 80.4902 -4.39573 2.54437 0
M  V30 802 H 80.4202 -5.18025 0.946432 0
M  V30 803 H 82.9112 -3.62367 1.07231 0
M  V30 804 H 83.2242 -7.20863 2.78525 0
M  V30 805 H 81.5692 -6.48542 2.49836 0
M  V30 806 H 84.7602 -4.46396 1.40883 0
M  V30 807 H 84.9332 -6.09881 2.18973 0
M  V30 808 N 78.3393 -0.321999 -1.54275 0
M  V30 809 C 79.7553 0.0306999 -1.5957 0
M  V30 810 C 79.9553 1.50614 -1.33857 0
M  V30 811 O 79.0113 2.2619 -1.12223 0
M  V30 812 C 80.3243 -0.386122 -2.98211 0
M  V30 813 C 81.8723 -0.336647 -3.11184 0
M  V30 814 C 82.3473 -0.728607 -4.52167 0
M  V30 815 N 83.8383 -0.681952 -4.58152 0
M  V30 816 C 84.5733 -0.957449 -5.6535 0
M  V30 817 N 84.0693 -1.3 -6.80494 0
M  V30 818 N 85.8623 -0.883113 -5.55119 0
M  V30 819 H 78.0133 -1.28332 -1.69247 0
M  V30 820 H 80.2763 -0.521716 -0.791528 0
M  V30 821 H 79.9823 -1.41404 -3.22022 0
M  V30 822 H 79.8563 0.249662 -3.76373 0
M  V30 823 H 82.2433 0.682058 -2.8711 0
M  V30 824 H 82.3243 -1.00734 -2.3513 0
M  V30 825 H 81.9683 -1.74522 -4.76974 0
M  V30 826 H 81.8983 -0.0356152 -5.26588 0
M  V30 827 H 84.3893 -0.428985 -3.75457 0
M  V30 828 H 84.7023 -1.49563 -7.58189 0
M  V30 829 H 83.0473 -1.33824 -6.81994 0
M  V30 830 H 86.2383 -0.615001 -4.64042 0
M  V30 831 H 86.4113 -1.10118 -6.38575 0
M  V30 832 N 79.8174 1.5752 -0.0501392 0
M  V30 833 C 80.7804 2.1037 0.909786 0
M  V30 834 C 81.7804 1.02308 1.24056 0
M  V30 835 O 82.9704 1.28385 1.17741 0
M  V30 836 C 80.1024 2.58708 2.21998 0
M  V30 837 H 81.2954 2.96479 0.451665 0
M  V30 838 H 78.8484 1.55038 0.198248 0
M  V30 839 H 79.5834 1.75989 2.72394 0
M  V30 840 H 79.3684 3.37675 1.99295 0
M  V30 841 H 80.8584 2.99747 2.9076 0
M  V30 842 N 81.2955 -0.223234 1.56011 0
M  V30 843 C 82.2425 -1.27664 1.92277 0
M  V30 844 C 83.2125 -1.46659 0.779763 0
M  V30 845 O 84.3975 -1.60256 1.03551 0
M  V30 846 C 81.5375 -2.62234 2.24338 0
M  V30 847 C 80.6505 -2.51051 3.51564 0
M  V30 848 C 79.7855 -3.78133 3.7308 0
M  V30 849 C 78.8245 -3.61665 4.93827 0
M  V30 850 N 77.9615 -4.80693 5.11741 0
M  V30 851 H 82.8015 -0.960358 2.82101 0
M  V30 852 H 80.3385 -0.462901 1.39627 0
M  V30 853 H 82.2965 -3.40596 2.40936 0
M  V30 854 H 80.9265 -2.91961 1.3769 0
M  V30 855 H 79.9785 -1.64132 3.43169 0
M  V30 856 H 81.2905 -2.34803 4.40079 0
M  V30 857 H 80.4445 -4.64938 3.89766 0
M  V30 858 H 79.1835 -3.97304 2.82844 0
M  V30 859 H 78.1885 -2.73244 4.77093 0
M  V30 860 H 79.4135 -3.43966 5.85546 0
M  V30 861 H 77.3595 -5.00181 4.24446 0
M  V30 862 H 77.2765 -4.67165 5.94384 0
M  V30 863 H 78.5445 -5.6893 5.3286 0
M  V30 864 N 82.7736 -1.49793 -0.48987 0
M  V30 865 C 83.7366 -1.66752 -1.57246 0
M  V30 866 C 84.7366 -0.538867 -1.51502 0
M  V30 867 O 85.9266 -0.805545 -1.54456 0
M  V30 868 C 83.0586 -1.67528 -2.96896 0
M  V30 869 H 84.2516 -2.63321 -1.43534 0
M  V30 870 H 81.8046 -1.38992 -0.714914 0
M  V30 871 H 82.5396 -0.725837 -3.16073 0
M  V30 872 H 82.3246 -2.49504 -3.02473 0
M  V30 873 H 83.8146 -1.82667 -3.7553 0
M  V30 874 N 84.2517 0.741722 -1.39055 0
M  V30 875 C 85.1817 1.869 -1.39966 0
M  V30 876 C 86.1627 1.6804 -0.26392 0
M  V30 877 O 87.3477 1.88458 -0.468755 0
M  V30 878 C 84.4777 3.24572 -1.23574 0
M  V30 879 C 83.4317 3.58056 -2.34477 0
M  V30 880 C 82.7577 4.94593 -2.0318 0
M  V30 881 C 84.0577 3.61716 -3.76774 0
M  V30 882 H 85.7517 1.86395 -2.34302 0
M  V30 883 H 83.2977 0.895361 -1.1278 0
M  V30 884 H 85.2507 4.031 -1.22834 0
M  V30 885 H 83.9747 3.25587 -0.257045 0
M  V30 886 H 82.6337 2.81854 -2.34423 0
M  V30 887 H 82.2817 4.92181 -1.03765 0
M  V30 888 H 81.9817 5.17964 -2.77465 0
M  V30 889 H 83.5057 5.75486 -2.04079 0
M  V30 890 H 84.9197 4.30335 -3.78794 0
M  V30 891 H 83.3167 3.96603 -4.50362 0
M  V30 892 H 84.3867 2.61672 -4.08235 0
M  V30 893 N 85.7298 1.2412 0.971189 0
M  V30 894 C 87.1458 1.00584 1.23916 0
M  V30 895 C 87.3458 -0.287481 1.99439 0
M  V30 896 O 86.4018 -1.00454 2.31658 0
M  V30 897 C 87.7148 2.21864 2.0297 0
M  V30 898 C 89.2628 2.26452 2.16076 0
M  V30 899 C 89.7378 3.47343 2.98524 0
M  V30 900 N 91.2288 3.47639 3.06107 0
M  V30 901 C 91.9638 4.37837 3.70251 0
M  V30 902 N 91.4598 5.38286 4.36142 0
M  V30 903 N 93.2528 4.25558 3.67228 0
M  V30 904 H 85.4038 2.07236 0.465499 0
M  V30 905 H 87.6668 0.909236 0.268315 0
M  V30 906 H 87.3728 3.15771 1.54861 0
M  V30 907 H 87.2468 2.23698 3.03709 0
M  V30 908 H 89.6338 1.33078 2.6339 0
M  V30 909 H 89.7148 2.28645 1.14696 0
M  V30 910 H 89.3588 4.41029 2.51905 0
M  V30 911 H 89.2888 3.42393 4.00093 0
M  V30 912 H 91.7798 2.74966 2.59233 0
M  V30 913 H 92.0928 6.03352 4.82894 0
M  V30 914 H 90.4378 5.42176 4.34822 0
M  V30 915 H 93.6288 3.46322 3.14927 0
M  V30 916 H 93.8018 4.96054 4.16935 0
M  V30 917 N 87.2079 -1.17134 1.05439 0
M  V30 918 C 88.4539 -1.87979 0.776872 0
M  V30 919 C 88.8089 -1.7965 -0.688751 0
M  V30 920 O 88.1019 -1.19535 -1.4974 0
M  V30 921 C 88.2959 -3.36833 1.19491 0
M  V30 922 C 88.1249 -3.59653 2.69963 0
M  V30 923 C 86.8949 -3.76234 3.37307 0
M  V30 924 C 89.0929 -3.59091 3.68182 0
M  V30 925 N 87.0749 -3.86922 4.76618 0
M  V30 926 C 88.4459 -3.75659 4.93235 0
M  V30 927 C 90.5009 -3.42255 3.61616 0
M  V30 928 C 89.2039 -3.77133 6.12506 0
M  V30 929 C 91.2299 -3.45018 4.8033 0
M  V30 930 C 90.5919 -3.62096 6.04207 0
M  V30 931 H 86.6909 -0.705876 0.336546 0
M  V30 932 H 89.2749 -1.40602 1.34682 0
M  V30 933 H 87.4459 -3.82873 0.652884 0
M  V30 934 H 89.1779 -3.95305 0.866966 0
M  V30 935 H 85.9329 -3.76193 2.87708 0
M  V30 936 H 86.3569 -3.96055 5.49062 0
M  V30 937 H 90.9989 -3.27986 2.66805 0
M  V30 938 H 88.7169 -3.90186 7.07659 0
M  V30 939 H 92.3029 -3.33246 4.76905 0
M  V30 940 H 91.1829 -3.64142 6.94529 0
M  V30 941 N 88.686 -0.835752 -1.33615 0
M  V30 942 C 89.914 -0.443344 -2.02094 0
M  V30 943 C 90.329 0.954522 -1.62894 0
M  V30 944 O 89.686 1.61982 -0.840723 0
M  V30 945 C 89.737 -0.550775 -3.5728 0
M  V30 946 O 89.458 -1.89356 -3.95065 0
M  V30 947 C 90.959 -0.154919 -4.43029 0
M  V30 948 H 88.179 -0.176359 -0.647409 0
M  V30 949 H 90.723 -1.12746 -1.70612 0
M  V30 950 H 88.878 0.0853997 -3.87306 0
M  V30 951 H 89.292 -1.87687 -4.89769 0
M  V30 952 H 90.766 -0.281144 -5.51284 0
M  V30 953 H 91.243 0.902863 -4.2982 0
M  V30 954 H 91.849 -0.765404 -4.18356 0
M  V30 955 N 90.1641 1.46063 -0.591896 0
M  V30 956 C 91.5801 1.57561 -0.254288 0
M  V30 957 C 91.7801 1.58565 1.24336 0
M  V30 958 O 90.8361 1.50753 2.02558 0
M  V30 959 C 92.1491 2.86549 -0.911611 0
M  V30 960 C 93.6971 3.00197 -0.886059 0
M  V30 961 C 94.1721 4.31933 -1.5231 0
M  V30 962 N 95.6631 4.38654 -1.48786 0
M  V30 963 C 96.3981 5.39222 -1.95006 0
M  V30 964 N 95.8941 6.46414 -2.49241 0
M  V30 965 N 97.6871 5.3048 -1.85868 0
M  V30 966 H 89.8381 1.43655 -1.56451 0
M  V30 967 H 92.1011 0.68583 -0.654478 0
M  V30 968 H 91.8071 2.91651 -1.96551 0
M  V30 969 H 91.6811 3.74794 -0.425368 0
M  V30 970 H 94.0681 2.9467 0.159246 0
M  V30 971 H 94.1491 2.13403 -1.41041 0
M  V30 972 H 93.7931 4.38217 -2.56765 0
M  V30 973 H 93.7231 5.17516 -0.973891 0
M  V30 974 H 96.2141 3.61793 -1.09151 0
M  V30 975 H 96.5271 7.19376 -2.82344 0
M  V30 976 H 94.8721 6.47208 -2.53272 0
M  V30 977 H 98.0631 4.45643 -1.43248 0
M  V30 978 H 98.2361 6.08711 -2.22204 0
M  V30 979 N 91.6422 0.330177 1.54103 0
M  V30 980 C 92.5742 -0.566902 2.22079 0
M  V30 981 C 93.5872 -1.07462 1.22294 0
M  V30 982 O 94.7762 -0.987065 1.48726 0
M  V30 983 C 91.8762 -1.79138 2.87685 0
M  V30 984 C 91.0492 -1.42123 4.13666 0
M  V30 985 C 90.1082 -2.50394 4.62806 0
M  V30 986 O 89.1342 -2.14261 5.27334 0
M  V30 987 N 90.3362 -3.81433 4.37595 0
M  V30 988 H 93.1012 0.0151844 2.99696 0
M  V30 989 H 90.6622 0.153681 1.61169 0
M  V30 990 H 92.6542 -2.50975 3.1748 0
M  V30 991 H 91.2242 -2.28115 2.13734 0
M  V30 992 H 90.4442 -0.534201 3.90564 0
M  V30 993 H 91.7322 -1.14971 4.9564 0
M  V30 994 H 91.1302 -4.13584 3.8596 0
M  V30 995 H 89.6872 -4.4948 4.72029 0
M  V30 996 N 93.1203 -1.57491 0.0584922 0
M  V30 997 C 94.0673 -2.11958 -0.913376 0
M  V30 998 C 95.0373 -1.02875 -1.30407 0
M  V30 999 O 96.2223 -1.30464 -1.39226 0
M  V30 1000 C 93.3623 -2.67497 -2.18035 0
M  V30 1001 C 92.4753 -3.90691 -1.84349 0
M  V30 1002 C 91.6103 -4.3452 -3.05559 0
M  V30 1003 C 90.6493 -5.50395 -2.67827 0
M  V30 1004 N 89.7863 -5.89244 -3.81754 0
M  V30 1005 H 94.6263 -2.94704 -0.442017 0
M  V30 1006 H 92.1633 -1.45643 -0.206545 0
M  V30 1007 H 94.1213 -2.978 -2.92183 0
M  V30 1008 H 92.7513 -1.87537 -2.62735 0
M  V30 1009 H 91.8033 -3.66934 -1.00319 0
M  V30 1010 H 93.1153 -4.7489 -1.5258 0
M  V30 1011 H 92.2693 -4.66414 -3.87998 0
M  V30 1012 H 91.0083 -3.49147 -3.40511 0
M  V30 1013 H 90.0133 -5.18165 -1.83806 0
M  V30 1014 H 91.2383 -6.3749 -2.34059 0
M  V30 1015 H 89.1843 -5.06823 -4.16493 0
M  V30 1016 H 89.1013 -6.68151 -3.53708 0
M  V30 1017 H 90.3693 -6.25756 -4.64811 0
M  V30 1018 N 94.5984 0.214957 -1.56127 0
M  V30 1019 C 95.8234 0.95924 -1.83884 0
M  V30 1020 C 96.2484 1.7689 -0.639644 0
M  V30 1021 O 95.6064 1.76566 0.411601 0
M  V30 1022 C 95.6544 1.84723 -3.09693 0
M  V30 1023 O 94.7584 2.94346 -2.8885 0
M  V30 1024 H 94.0994 0.27125 -0.606069 0
M  V30 1025 H 96.6294 0.226276 -2.03345 0
M  V30 1026 H 96.6394 2.25576 -3.39969 0
M  V30 1027 H 95.3144 1.25218 -3.96602 0
M  V30 1028 H 93.8914 2.57391 -2.69823 0
M  V30 1029 N 96.0765 1.50051 0.48192 0
M  V30 1030 C 97.3225 1.60736 1.2366 0
M  V30 1031 C 97.6555 0.301786 1.91841 0
M  V30 1032 O 96.9305 -0.696025 1.8162 0
M  V30 1033 C 97.2135 2.78009 2.28874 0
M  V30 1034 C 97.0665 4.18416 1.65069 0
M  V30 1035 C 98.3855 2.90867 3.30279 0
M  V30 1036 H 95.5045 0.585031 0.448228 0
M  V30 1037 H 98.1465 1.82402 0.531946 0
M  V30 1038 H 96.2965 2.59667 2.88973 0
M  V30 1039 H 97.9685 4.48322 1.0865 0
M  V30 1040 H 96.2115 4.23177 0.954148 0
M  V30 1041 H 96.8825 4.96381 2.41474 0
M  V30 1042 H 99.3585 3.07623 2.80191 0
M  V30 1043 H 98.2345 3.74566 4.01238 0
M  V30 1044 H 98.4955 2.01021 3.93755 0
M  V30 1045 N 97.5546 -0.734337 1.39446 0
M  V30 1046 C 98.4646 -1.87879 1.40495 0
M  V30 1047 C 99.4806 -1.714 0.299672 0
M  V30 1048 O 100.657 -1.93991 0.541249 0
M  V30 1049 C 97.7216 -3.23477 1.24754 0
M  V30 1050 C 96.7826 -3.52344 2.45259 0
M  V30 1051 C 96.0156 -4.81473 2.30259 0
M  V30 1052 O 96.2386 -5.55237 1.30643 0
M  V30 1053 O 95.1726 -5.10254 3.19256 0
M  V30 1054 H 98.9986 -1.89949 2.36966 0
M  V30 1055 H 96.5836 -0.882243 1.20569 0
M  V30 1056 H 98.4656 -4.04509 1.18111 0
M  V30 1057 H 97.1406 -3.22176 0.313781 0
M  V30 1058 H 96.0476 -2.71396 2.57478 0
M  V30 1059 H 97.3806 -3.58426 3.37331 0
M  V30 1060 N 99.0327 -1.24633 -0.964593 0
M  V30 1061 C 99.9427 -1.05859 -2.09359 0
M  V30 1062 C 100.959 0.00148855 -1.74 0
M  V30 1063 O 102.135 -0.197346 -2.00431 0
M  V30 1064 C 99.1997 -0.668879 -3.40187 0
M  V30 1065 C 98.2607 -1.80578 -3.89474 0
M  V30 1066 C 97.4937 -1.43457 -5.14058 0
M  V30 1067 O 97.7167 -0.325775 -5.69469 0
M  V30 1068 O 96.6507 -2.2613 -5.57807 0
M  V30 1069 H 100.477 -2.00516 -2.28094 0
M  V30 1070 H 98.0617 -1.03481 -1.0776 0
M  V30 1071 H 99.9437 -0.463211 -4.18846 0
M  V30 1072 H 98.6187 0.248536 -3.22744 0
M  V30 1073 H 97.5257 -2.06623 -3.11862 0
M  V30 1074 H 98.8587 -2.70208 -4.11398 0
M  V30 1075 N 100.511 1.16574 -1.06058 0
M  V30 1076 C 101.759 1.86677 -0.77434 0
M  V30 1077 C 102.08 1.81959 0.701147 0
M  V30 1078 O 101.35 1.2515 1.50713 0
M  V30 1079 H 99.9298 0.691134 -0.283449 0
M  V30 1080 H 102.592 1.41378 -1.34158 0
M  V30 1081 H 101.688 2.92181 -1.09711 0
M  V30 1082 N 101.989 0.842826 1.3317 0
M  V30 1083 C 102.899 0.281444 2.32906 0
M  V30 1084 C 103.915 -0.594587 1.63526 0
M  V30 1085 O 105.091 -0.49777 1.95152 0
M  V30 1086 C 102.156 -0.530929 3.42611 0
M  V30 1087 C 101.217 0.369843 4.27704 0
M  V30 1088 C 100.45 -0.403853 5.3217 0
M  V30 1089 O 100.673 -1.63513 5.46461 0
M  V30 1090 O 99.6069 0.224199 6.01482 0
M  V30 1091 H 103.433 1.10744 2.82789 0
M  V30 1092 H 101.018 0.60545 1.36582 0
M  V30 1093 H 102.9 -0.992437 4.09547 0
M  V30 1094 H 101.575 -1.33392 2.94938 0
M  V30 1095 H 100.482 0.879275 3.6362 0
M  V30 1096 H 101.815 1.13771 4.78871 0
M  V30 1097 N 103.467 -1.45747 0.599634 0
M  V30 1098 C 104.878 -1.85853 0.177681 0
M  V30 1099 C 105.229 -1.50102 -1.26348 0
M  V30 1100 O 104.354 -0.923905 -1.95686 0
M  V30 1101 C 104.949 -3.37326 0.315688 0
M  V30 1102 C 103.508 -3.76365 -0.0515144 0
M  V30 1103 C 102.655 -2.69722 0.643822 0
M  V30 1104 H 105.606 -1.36661 0.806814 0
M  V30 1105 H 105.627 -3.77778 -0.454321 0
M  V30 1106 H 105.139 -3.63315 1.36468 0
M  V30 1107 H 103.24 -3.55993 -1.09999 0
M  V30 1108 H 103.353 -4.77916 0.336594 0
M  V30 1109 H 101.717 -2.54567 0.0822881 0
M  V30 1110 H 102.5 -2.98549 1.6948 0
M  V30 1111 N 104.945 -0.338344 -1.53925 0
M  V30 1112 C 106.356 0.146651 -1.86123 0
M  V30 1113 C 106.707 1.5042 -1.2597 0
M  V30 1114 O 105.832 2.08723 -0.571294 0
M  V30 1115 C 106.427 0.272879 -3.37699 0
M  V30 1116 C 104.986 0.702103 -3.69794 0
M  V30 1117 C 104.133 -0.167304 -2.76795 0
M  V30 1118 H 107.084 -0.558123 -1.48562 0
M  V30 1119 H 107.105 1.10128 -3.64214 0
M  V30 1120 H 106.617 -0.715307 -3.81451 0
M  V30 1121 H 104.718 1.6995 -3.31584 0
M  V30 1122 H 104.831 0.495604 -4.7653 0
M  V30 1123 H 103.195 0.359527 -2.5215 0
M  V30 1124 H 103.978 -1.15253 -3.23375 0
M  V30 1125 N 106.423 1.57458 -0.0668435 0
M  V30 1126 C 107.671 1.92919 0.602214 0
M  V30 1127 C 107.992 0.947215 1.70449 0
M  V30 1128 O 107.262 -0.00544117 1.95899 0
M  V30 1129 H 105.842 0.71217 0.22544 0
M  V30 1130 H 108.504 1.94508 -0.123535 0
M  V30 1131 H 107.6 2.94589 1.03073 0
M  V30 1132 N 107.901 -0.206675 1.56239 0
M  V30 1133 C 108.833 -1.27997 1.9013 0
M  V30 1134 C 109.846 -1.42299 0.790883 0
M  V30 1135 O 111.035 -1.42931 1.06925 0
M  V30 1136 C 108.135 -2.65368 2.10792 0
M  V30 1137 C 107.308 -2.72824 3.41886 0
M  V30 1138 C 106.367 -3.9131 3.51799 0
M  V30 1139 O 105.393 -3.78953 4.24716 0
M  V30 1140 N 106.595 -5.06265 2.84035 0
M  V30 1141 H 109.36 -0.992444 2.82791 0
M  V30 1142 H 106.921 -0.396652 1.56966 0
M  V30 1143 H 108.913 -3.43039 2.14724 0
M  V30 1144 H 107.483 -2.86657 1.24685 0
M  V30 1145 H 106.703 -1.81515 3.49923 0
M  V30 1146 H 107.991 -2.74786 4.28217 0
M  V30 1147 H 107.389 -5.19203 2.246 0
M  V30 1148 H 105.946 -5.81925 2.93609 0
M  V30 1149 N 109.379 -1.50304 -0.473955 0
M  V30 1150 C 110.627 -1.60832 -1.22382 0
M  V30 1151 C 110.948 -0.30939 -1.9253 0
M  V30 1152 O 110.218 0.67296 -1.83978 0
M  V30 1153 H 108.798 -0.592652 -0.454723 0
M  V30 1154 H 111.46 -1.87068 -0.546968 0
M  V30 1155 H 110.556 -2.41803 -1.97327 0
M  V30 1156 N 110.857 0.726932 -1.39834 0
M  V30 1157 C 111.767 1.87131 -1.41489 0
M  V30 1158 C 112.783 1.71239 -0.308757 0
M  V30 1159 O 113.959 1.93701 -0.551529 0
M  V30 1160 C 111.024 3.22811 -1.26468 0
M  V30 1161 C 110.085 3.51039 -2.47124 0
M  V30 1162 C 109.318 4.80245 -2.3281 0
M  V30 1163 O 109.541 5.54537 -1.33585 0
M  V30 1164 O 108.475 5.08554 -3.21957 0
M  V30 1165 H 112.301 1.8869 -2.3797 0
M  V30 1166 H 109.886 0.875837 -1.21035 0
M  V30 1167 H 111.768 4.03877 -1.20255 0
M  V30 1168 H 110.443 3.22005 -0.330862 0
M  V30 1169 H 109.35 2.70027 -2.58914 0
M  V30 1170 H 110.683 3.56632 -3.39227 0
M  V30 1171 N 112.336 1.25143 0.95797 0
M  V30 1172 C 113.584 1.09476 1.69881 0
M  V30 1173 C 113.905 -0.365502 1.91544 0
M  V30 1174 O 113.175 -1.25985 1.50015 0
M  V30 1175 H 111.755 0.402128 0.629525 0
M  V30 1176 H 114.417 1.57214 1.15194 0
M  V30 1177 H 113.513 1.60046 2.6794 0
M  V30 1178 N 113.814 -1.1601 1.06675 0
M  V30 1179 C 115.225 -1.68235 0.809565 0
M  V30 1180 C 115.576 -1.8454 -0.666303 0
M  V30 1181 O 114.701 -1.54374 -1.5165 0
M  V30 1182 C 115.296 -3.05585 1.46299 0
M  V30 1183 C 113.855 -3.54915 1.25349 0
M  V30 1184 C 113.002 -2.30804 1.53703 0
M  V30 1185 H 115.953 -1.00318 1.22971 0
M  V30 1186 H 115.974 -3.70174 0.880431 0
M  V30 1187 H 115.486 -2.93686 2.53713 0
M  V30 1188 H 113.587 -3.72067 0.199261 0
M  V30 1189 H 113.7 -4.36774 1.9689 0
M  V30 1190 H 112.064 -2.36007 0.957739 0
M  V30 1191 H 112.847 -2.21499 2.62284 0
M  V30 1192 N 115.292 -0.849877 -1.32721 0
M  V30 1193 C 116.708 -0.539102 -1.50219 0
M  V30 1194 C 116.908 0.931271 -1.78689 0
M  V30 1195 O 115.964 1.71455 -1.85363 0
M  V30 1196 C 117.277 -1.42196 -2.64954 0
M  V30 1197 C 118.825 -1.42189 -2.78839 0
M  V30 1198 C 119.3 -2.28985 -3.96648 0
M  V30 1199 N 120.791 -2.26754 -4.03902 0
M  V30 1200 C 121.526 -2.90644 -4.94281 0
M  V30 1201 N 121.022 -3.63629 -5.897 0
M  V30 1202 N 122.815 -2.80057 -4.87365 0
M  V30 1203 H 114.966 -1.80156 -1.12506 0
M  V30 1204 H 117.229 -0.769217 -0.554085 0
M  V30 1205 H 116.935 -2.46733 -2.50631 0
M  V30 1206 H 116.809 -1.10591 -3.60624 0
M  V30 1207 H 119.196 -0.38419 -2.92588 0
M  V30 1208 H 119.277 -1.77807 -1.83898 0
M  V30 1209 H 118.921 -3.32819 -3.83658 0
M  V30 1210 H 118.851 -1.90702 -4.90857 0
M  V30 1211 H 121.342 -1.73688 -3.3562 0
M  V30 1212 H 121.655 -4.09558 -6.55349 0
M  V30 1213 H 120 -3.67737 -5.89741 0
M  V30 1214 H 123.191 -2.22593 -4.11789 0
M  V30 1215 H 123.364 -3.30132 -5.57599 0
M  V30 1216 N 116.77 1.45427 -0.607355 0
M  V30 1217 C 117.995 2.07124 -0.107006 0
M  V30 1218 C 118.42 1.44906 1.19933 0
M  V30 1219 O 117.778 0.541687 1.73019 0
M  V30 1220 C 117.826 3.60595 0.0194119 0
M  V30 1221 O 116.93 3.98285 1.0697 0
M  V30 1222 H 116.271 0.659868 -0.0739597 0
M  V30 1223 H 118.801 1.86683 -0.837297 0
M  V30 1224 H 118.811 4.07419 0.2177 0
M  V30 1225 H 117.486 4.05266 -0.934453 0
M  V30 1226 H 116.063 3.63133 0.847889 0
M  V30 1227 N 118.248 0.346503 1.53744 0
M  V30 1228 C 119.664 -0.00530975 1.59599 0
M  V30 1229 C 119.864 -1.48465 1.36236 0
M  V30 1230 O 118.92 -2.24376 1.15808 0
M  V30 1231 C 120.233 0.433516 2.97559 0
M  V30 1232 C 121.781 0.386111 3.10609 0
M  V30 1233 C 122.256 0.800451 4.50951 0
M  V30 1234 N 123.747 0.754753 4.5701 0
M  V30 1235 C 124.482 1.04727 5.63755 0
M  V30 1236 N 123.978 1.4081 6.7834 0
M  V30 1237 N 125.771 0.971316 5.53644 0
M  V30 1238 H 117.922 1.31009 1.67184 0
M  V30 1239 H 120.185 0.534242 0.783128 0
M  V30 1240 H 119.891 1.46509 3.19731 0
M  V30 1241 H 119.765 -0.189753 3.76722 0
M  V30 1242 H 122.152 -0.636295 2.88158 0
M  V30 1243 H 122.233 1.04462 2.33498 0
M  V30 1244 H 121.877 1.82088 4.74137 0
M  V30 1245 H 121.807 0.119386 5.26465 0
M  V30 1246 H 124.298 0.488662 3.74727 0
M  V30 1247 H 124.611 1.61607 7.55714 0
M  V30 1248 H 122.956 1.44657 6.79779 0
M  V30 1249 H 126.147 0.688748 4.63005 0
M  V30 1250 H 126.32 1.20263 6.36742 0
M  V30 1251 N 119.726 -1.57421 0.075193 0
M  V30 1252 C 121.137 -1.81021 -0.456964 0
M  V30 1253 C 121.488 -0.98936 -1.69429 0
M  V30 1254 O 120.613 -0.212865 -2.15351 0
M  V30 1255 C 121.208 -3.28329 -0.83581 0
M  V30 1256 C 119.767 -3.52764 -1.31281 0
M  V30 1257 C 118.914 -2.75676 -0.299648 0
M  V30 1258 H 121.865 -1.55822 0.300856 0
M  V30 1259 H 121.886 -3.40564 -1.69696 0
M  V30 1260 H 121.398 -3.88046 0.0649238 0
M  V30 1261 H 119.499 -2.98355 -2.23193 0
M  V30 1262 H 119.612 -4.61451 -1.28839 0
M  V30 1263 H 117.976 -2.42538 -0.777641 0
M  V30 1264 H 118.759 -3.38132 0.593417 0
M  V30 1265 N 121.204 0.198386 -1.56346 0
M  V30 1266 C 122.167 1.22952 -1.93431 0
M  V30 1267 C 123.167 1.38611 -0.815092 0
M  V30 1268 O 124.357 1.36479 -1.08255 0
M  V30 1269 C 121.489 2.59946 -2.20546 0
M  V30 1270 H 122.682 0.912626 -2.85677 0
M  V30 1271 H 120.235 0.43977 -1.49986 0
M  V30 1272 H 120.97 2.96696 -1.30927 0
M  V30 1273 H 120.755 2.49953 -3.02102 0
M  V30 1274 H 122.245 3.3431 -2.50253 0
M  V30 1275 N 122.682 1.50554 0.465978 0
M  V30 1276 C 123.645 1.69233 1.54574 0
M  V30 1277 C 124.645 0.562901 1.50626 0
M  V30 1278 O 125.835 0.830016 1.53155 0
M  V30 1279 C 122.967 1.7223 2.94193 0
M  V30 1280 H 124.16 2.65571 1.39327 0
M  V30 1281 H 121.713 1.40111 0.692711 0
M  V30 1282 H 122.448 0.77603 3.14878 0
M  V30 1283 H 122.233 2.54285 2.98466 0
M  V30 1284 H 123.723 1.88618 3.72576 0
M  V30 1285 N 124.16 -0.719506 1.40217 0
M  V30 1286 C 125.07 -1.86378 1.42479 0
M  V30 1287 C 126.086 -1.71073 0.317834 0
M  V30 1288 O 127.262 -1.93406 0.561794 0
M  V30 1289 C 124.327 -3.22136 1.28178 0
M  V30 1290 C 123.388 -3.49723 2.48982 0
M  V30 1291 C 122.621 -4.79004 2.35353 0
M  V30 1292 O 122.844 -5.53821 1.36524 0
M  V30 1293 O 121.778 -5.06839 3.2465 0
M  V30 1294 H 125.604 -1.87425 2.38968 0
M  V30 1295 H 123.189 -0.869405 1.21498 0
M  V30 1296 H 125.071 -4.03234 1.22395 0
M  V30 1297 H 123.746 -3.21825 0.347934 0
M  V30 1298 H 122.653 -2.6865 2.60342 0
M  V30 1299 H 123.986 -3.54828 3.41113 0
M  V30 1300 N 125.638 -1.25649 -0.95132 0
M  V30 1301 C 126.863 -1.13443 -1.73624 0
M  V30 1302 C 127.288 0.307565 -1.85568 0
M  V30 1303 O 126.646 1.22282 -1.33854 0
M  V30 1304 C 126.694 -1.79723 -3.12621 0
M  V30 1305 O 125.798 -1.07912 -3.98031 0
M  V30 1306 H 125.139 -0.395872 -0.533086 0
M  V30 1307 H 127.669 -1.66276 -1.1922 0
M  V30 1308 H 127.679 -1.86141 -3.63064 0
M  V30 1309 H 126.354 -2.84633 -3.03244 0
M  V30 1310 H 124.931 -1.09398 -3.56492 0
M  V30 1311 N 127.117 1.15442 -1.07289 0
M  V30 1312 C 128.345 1.90096 -0.81676 0
M  V30 1313 C 128.76 1.7798 0.629966 0
M  V30 1314 O 128.117 1.1313 1.43206 0
M  V30 1315 C 128.168 3.40466 -1.21512 0
M  V30 1316 O 127.889 3.52232 -2.60508 0
M  V30 1317 C 129.39 4.32145 -0.988198 0
M  V30 1318 H 126.61 0.602495 -0.295366 0
M  V30 1319 H 129.154 1.4627 -1.42918 0
M  V30 1320 H 127.309 3.81958 -0.647039 0
M  V30 1321 H 127.723 4.45549 -2.76742 0
M  V30 1322 H 129.197 5.36072 -1.31645 0
M  V30 1323 H 129.674 4.39135 0.0755063 0
M  V30 1324 H 130.28 3.96395 -1.54115 0
M  V30 1325 N 128.595 0.856903 1.32268 0
M  V30 1326 C 129.843 0.460474 1.96784 0
M  V30 1327 C 130.164 -0.987701 1.68135 0
M  V30 1328 O 129.434 -1.69058 0.989765 0
M  V30 1329 H 128.014 0.167289 0.728027 0
M  V30 1330 H 130.676 1.09383 1.61312 0
M  V30 1331 H 129.772 0.60739 3.06133 0
M  V30 1332 N 130.073 -1.45103 0.615059 0
M  V30 1333 C 131.003 -2.33339 -0.0865619 0
M  V30 1334 C 131.984 -1.4727 -0.851209 0
M  V30 1335 O 133.169 -1.76026 -0.820281 0
M  V30 1336 C 130.299 -3.30095 -1.07956 0
M  V30 1337 C 129.253 -4.25858 -0.427628 0
M  V30 1338 C 128.579 -5.12361 -1.5294 0
M  V30 1339 C 129.879 -5.18165 0.655944 0
M  V30 1340 H 131.573 -2.92254 0.650224 0
M  V30 1341 H 129.119 -1.40532 0.314138 0
M  V30 1342 H 131.072 -3.90698 -1.57901 0
M  V30 1343 H 129.796 -2.69355 -1.84703 0
M  V30 1344 H 128.455 -3.66564 0.0510292 0
M  V30 1345 H 128.103 -4.47984 -2.28734 0
M  V30 1346 H 127.803 -5.77238 -1.09865 0
M  V30 1347 H 129.327 -5.75833 -2.03098 0
M  V30 1348 H 130.741 -5.72796 0.240257 0
M  V30 1349 H 129.138 -5.91559 1.00888 0
M  V30 1350 H 130.208 -4.60144 1.52957 0
M  V30 1351 N 131.551 -0.354651 -1.53558 0
M  V30 1352 C 132.461 0.50515 -2.29097 0
M  V30 1353 C 133.477 1.10223 -1.34636 0
M  V30 1354 O 134.653 1.11553 -1.67684 0
M  V30 1355 C 131.718 1.63479 -3.05738 0
M  V30 1356 C 130.779 1.06636 -4.15845 0
M  V30 1357 C 130.012 2.14217 -4.88822 0
M  V30 1358 O 130.235 3.35137 -4.61562 0
M  V30 1359 O 129.169 1.77887 -5.75013 0
M  V30 1360 H 132.995 -0.109237 -3.03503 0
M  V30 1361 H 130.58 -0.119357 -1.48922 0
M  V30 1362 H 132.462 2.2918 -3.5363 0
M  V30 1363 H 131.137 2.23478 -2.34178 0
M  V30 1364 H 130.044 0.373565 -3.7223 0
M  V30 1365 H 131.377 0.511081 -4.89539 0
M  V30 1366 N 133.029 1.57378 -0.0835403 0
M  V30 1367 C 133.992 2.12252 0.864959 0
M  V30 1368 C 134.992 1.04916 1.21858 0
M  V30 1369 O 136.182 1.30853 1.14991 0
M  V30 1370 C 133.314 2.63358 2.16461 0
M  V30 1371 H 134.507 2.97371 0.388676 0
M  V30 1372 H 132.06 1.55423 0.165317 0
M  V30 1373 H 132.795 1.81727 2.686 0
M  V30 1374 H 132.58 3.41826 1.92087 0
M  V30 1375 H 134.07 3.05847 2.84337 0
M  V30 1376 N 134.507 -0.190092 1.56449 0
M  V30 1377 C 135.735 -0.925772 1.85033 0
M  V30 1378 C 136.15 -1.76638 0.666658 0
M  V30 1379 O 135.507 -1.78822 -0.364565 0
M  V30 1380 C 135.558 -1.81786 3.12468 0
M  V30 1381 O 135.279 -1.01118 4.26271 0
M  V30 1382 C 136.78 -2.6648 3.54265 0
M  V30 1383 H 134 -0.269872 0.614337 0
M  V30 1384 H 136.544 -0.195837 2.0356 0
M  V30 1385 H 134.699 -2.50136 2.95822 0
M  V30 1386 H 135.113 -1.61956 4.98869 0
M  V30 1387 H 136.587 -3.24722 4.46385 0
M  V30 1388 H 137.064 -3.40434 2.77491 0
M  V30 1389 H 137.67 -2.03493 3.73458 0
M  V30 1390 N 135.985 -1.50799 -0.457987 0
M  V30 1391 C 137.232 -1.62442 -1.20908 0
M  V30 1392 C 137.56 -0.330865 -1.91665 0
M  V30 1393 O 136.815 0.68401 -1.83357 0
M  V30 1394 C 137.114 -2.76358 -2.2663 0
M  V30 1395 C 136.78 -4.16378 -1.73033 0
M  V30 1396 C 135.442 -4.54473 -1.58138 0
M  V30 1397 C 137.794 -5.03836 -1.33413 0
M  V30 1398 C 135.122 -5.77754 -1.02065 0
M  V30 1399 C 137.474 -6.27676 -0.78778 0
M  V30 1400 C 136.138 -6.64562 -0.625561 0
M  V30 1401 H 135.408 -0.594417 -0.442435 0
M  V30 1402 H 138.055 -1.84772 -0.503136 0
M  V30 1403 H 136.36 -2.48167 -3.03184 0
M  V30 1404 H 138.057 -2.82568 -2.84528 0
M  V30 1405 H 134.647 -3.86331 -1.85598 0
M  V30 1406 H 138.831 -4.75026 -1.4375 0
M  V30 1407 H 134.087 -6.04997 -0.882547 0
M  V30 1408 H 138.261 -6.94797 -0.472177 0
M  V30 1409 H 135.888 -7.59965 -0.188926 0
M  V30 1410 N 137.463 0.71206 -1.40597 0
M  V30 1411 C 138.874 1.29135 -1.34837 0
M  V30 1412 C 139.225 1.96186 -0.0235395 0
M  V30 1413 O 138.35 1.97768 0.878444 0
M  V30 1414 C 138.945 2.34827 -2.44217 0
M  V30 1415 C 137.504 2.88371 -2.41907 0
M  V30 1416 C 136.651 1.62202 -2.24913 0
M  V30 1417 H 139.602 0.507944 -1.50352 0
M  V30 1418 H 139.623 3.15749 -2.12327 0
M  V30 1419 H 139.135 1.85996 -3.40627 0
M  V30 1420 H 137.236 3.41422 -1.49204 0
M  V30 1421 H 137.349 3.39925 -3.37621 0
M  V30 1422 H 135.713 1.874 -1.72492 0
M  V30 1423 H 136.496 1.15391 -3.23326 0
M  V30 1424 N 138.941 1.26152 0.944643 0
M  V30 1425 C 139.888 1.07408 2.04285 0
M  V30 1426 C 140.858 -0.0198413 1.66088 0
M  V30 1427 O 142.043 0.139264 1.90291 0
M  V30 1428 C 139.183 0.70945 3.37729 0
M  V30 1429 C 138.296 1.87926 3.88983 0
M  V30 1430 C 137.431 1.45807 5.10797 0
M  V30 1431 C 136.47 2.5964 5.54305 0
M  V30 1432 N 135.607 2.18226 6.67324 0
M  V30 1433 H 140.447 2.01389 2.1965 0
M  V30 1434 H 137.984 1.00275 1.07626 0
M  V30 1435 H 139.942 0.478948 4.14442 0
M  V30 1436 H 138.572 -0.193389 3.2222 0
M  V30 1437 H 137.624 2.22279 3.08701 0
M  V30 1438 H 138.936 2.73377 4.17213 0
M  V30 1439 H 138.09 1.18781 5.94959 0
M  V30 1440 H 136.829 0.574414 4.84305 0
M  V30 1441 H 135.834 2.87399 4.68702 0
M  V30 1442 H 137.059 3.48599 5.828 0
M  V30 1443 H 135.005 1.3229 6.42523 0
M  V30 1444 H 134.922 2.97221 6.95123 0
M  V30 1445 H 136.19 1.94403 7.54869 0
M  V30 1446 N 140.419 -1.14872 1.07899 0
M  V30 1447 C 141.647 -1.89661 0.82683 0
M  V30 1448 C 142.062 -1.78312 -0.620519 0
M  V30 1449 O 141.419 -1.13888 -1.42604 0
M  V30 1450 C 141.47 -3.39817 1.23316 0
M  V30 1451 O 141.191 -3.50845 2.62372 0
M  V30 1452 C 142.692 -4.31615 1.0111 0
M  V30 1453 H 139.912 -0.60092 0.298557 0
M  V30 1454 H 142.456 -1.4551 1.43691 0
M  V30 1455 H 140.611 -3.8161 0.667286 0
M  V30 1456 H 141.025 -4.44076 2.79101 0
M  V30 1457 H 142.499 -5.35367 1.34486 0
M  V30 1458 H 142.976 -4.39169 -0.0522168 0
M  V30 1459 H 143.582 -3.95572 1.56215 0
M  V30 1460 N 141.898 -0.863906 -1.31812 0
M  V30 1461 C 143.126 -0.486111 -2.01108 0
M  V30 1462 C 143.541 0.919755 -1.64882 0
M  V30 1463 O 142.898 1.60162 -0.874893 0
M  V30 1464 C 142.949 -0.626435 -3.56031 0
M  V30 1465 O 142.67 -1.97693 -3.90959 0
M  V30 1466 C 144.171 -0.248857 -4.42601 0
M  V30 1467 H 141.391 -0.190052 -0.643523 0
M  V30 1468 H 143.935 -1.1634 -1.68182 0
M  V30 1469 H 142.09 0.00322717 -3.874 0
M  V30 1470 H 142.504 -1.98034 -4.85678 0
M  V30 1471 H 143.978 -0.398016 -5.50563 0
M  V30 1472 H 144.455 0.811489 -4.31638 0
M  V30 1473 H 145.061 -0.853971 -4.16638 0
M  V30 1474 N 143.376 1.44774 -0.622745 0
M  V30 1475 C 144.787 1.85546 -0.207226 0
M  V30 1476 C 145.138 1.52093 1.23944 0
M  V30 1477 O 144.263 0.95492 1.94191 0
M  V30 1478 C 144.858 3.36781 -0.369313 0
M  V30 1479 C 143.417 3.76399 -0.00836847 0
M  V30 1480 C 142.564 2.68664 -0.686651 0
M  V30 1481 H 145.515 1.3536 -0.828454 0
M  V30 1482 H 145.536 3.78453 0.394162 0
M  V30 1483 H 145.048 3.61098 -1.42231 0
M  V30 1484 H 143.149 3.57698 1.04322 0
M  V30 1485 H 143.262 4.7732 -0.412584 0
M  V30 1486 H 141.626 2.54404 -0.122777 0
M  V30 1487 H 142.409 2.95815 -1.74208 0
M  V30 1488 N 144.854 0.36279 1.53368 0
M  V30 1489 C 145.784 -0.476976 2.28576 0
M  V30 1490 C 146.765 -1.08631 1.30894 0
M  V30 1491 O 147.95 -1.10409 1.59761 0
M  V30 1492 C 145.08 -1.61828 3.07293 0
M  V30 1493 C 144.034 -1.13633 4.1264 0
M  V30 1494 C 143.36 -2.36766 4.79423 0
M  V30 1495 C 144.66 -0.223061 5.21823 0
M  V30 1496 H 146.354 0.150474 2.99022 0
M  V30 1497 H 143.9 0.0738103 1.43811 0
M  V30 1498 H 145.853 -2.21237 3.58653 0
M  V30 1499 H 144.577 -2.27292 2.34533 0
M  V30 1500 H 143.236 -0.564945 3.62221 0
M  V30 1501 H 142.884 -3.0068 4.03238 0
M  V30 1502 H 142.584 -2.05192 5.50609 0
M  V30 1503 H 144.108 -2.96865 5.33576 0
M  V30 1504 H 145.522 -0.724545 5.68703 0
M  V30 1505 H 143.919 0.001678 6.001 0
M  V30 1506 H 144.989 0.735553 4.79289 0
M  V30 1507 N 146.332 -1.57332 0.0918853 0
M  V30 1508 C 147.295 -2.12708 -0.85369 0
M  V30 1509 C 148.295 -1.05561 -1.213 0
M  V30 1510 O 149.485 -1.31461 -1.14296 0
M  V30 1511 C 146.617 -2.64503 -2.15061 0
M  V30 1512 H 147.81 -2.97573 -0.3729 0
M  V30 1513 H 145.363 -1.55509 -0.157072 0
M  V30 1514 H 146.098 -1.83149 -2.67632 0
M  V30 1515 H 145.883 -3.4284 -1.90272 0
M  V30 1516 H 147.373 -3.07351 -2.82711 0
M  V30 1517 N 147.81 0.181792 -1.56548 0
M  V30 1518 C 148.742 1.24956 -1.92142 0
M  V30 1519 C 149.755 1.41022 -0.813422 0
M  V30 1520 O 150.944 1.41212 -1.09186 0
M  V30 1521 C 148.044 2.61981 -2.14987 0
M  V30 1522 C 147.217 2.6735 -3.46183 0
M  V30 1523 C 146.276 3.85664 -3.5798 0
M  V30 1524 O 145.302 3.72148 -4.30691 0
M  V30 1525 N 146.504 5.01683 -2.92053 0
M  V30 1526 H 149.269 0.947329 -2.84334 0
M  V30 1527 H 146.83 0.371629 -1.57577 0
M  V30 1528 H 148.822 3.3958 -2.20154 0
M  V30 1529 H 147.392 2.84637 -1.2923 0
M  V30 1530 H 146.612 1.75925 -3.52766 0
M  V30 1531 H 147.9 2.67939 -4.32534 0
M  V30 1532 H 147.298 5.15564 -2.32832 0
M  V30 1533 H 145.855 5.77181 -3.0283 0
M  V30 1534 N 149.288 1.51039 0.449983 0
M  V30 1535 C 150.251 1.70863 1.5277 0
M  V30 1536 C 151.251 0.578846 1.5002 0
M  V30 1537 O 152.441 0.846213 1.52266 0
M  V30 1538 C 149.573 1.75341 2.9235 0
M  V30 1539 H 150.766 2.67034 1.36502 0
M  V30 1540 H 148.319 1.40838 0.677812 0
M  V30 1541 H 149.054 0.809383 3.14037 0
M  V30 1542 H 148.839 2.57436 2.95752 0
M  V30 1543 H 150.329 1.92559 3.70555 0
M  V30 1544 N 150.766 -0.704594 1.40972 0
M  V30 1545 C 152.043 -1.45847 1.30338 0
M  V30 1546 C 152.423 -2.10973 -0.0732344 0
M  V30 1547 O 151.771 -2.00997 -1.08685 0
M  V30 1548 C 151.981 -2.48525 2.45023 0
M  V30 1549 C 153.329 -3.1404 2.8577 0
M  V30 1550 O 154.353 -2.58848 2.44696 0
M  V30 1551 O 153.212 -4.13981 3.56766 0
M  V30 1552 H 150.306 -0.649092 0.512454 0
M  V30 1553 H 152.852 -0.735836 1.52917 0
M  V30 1554 H 151.624 -1.98994 3.36923 0
M  V30 1555 H 151.247 -3.2831 2.24272 0
M  V30 1556 N 152.244 -1.26651 -0.937939 0
M  V30 1557 C 153.655 -1.1125 -1.49934 0
M  V30 1558 C 154.006 0.306077 -1.93798 0
M  V30 1559 O 153.131 1.19792 -1.80219 0
M  V30 1560 C 153.726 -2.01339 -2.72485 0
M  V30 1561 C 152.285 -1.90074 -3.24883 0
M  V30 1562 C 151.432 -1.94498 -1.97651 0
M  V30 1563 H 154.383 -1.39693 -0.753091 0
M  V30 1564 H 154.404 -1.56319 -3.46907 0
M  V30 1565 H 153.916 -3.04577 -2.40529 0
M  V30 1566 H 152.017 -0.897827 -3.61621 0
M  V30 1567 H 152.13 -2.75778 -3.9177 0
M  V30 1568 H 150.494 -1.38591 -2.13693 0
M  V30 1569 H 151.277 -2.99372 -1.68022 0
M  V30 1570 N 153.722 1.14298 -1.08507 0
M  V30 1571 C 154.685 2.17607 -0.719711 0
M  V30 1572 C 155.685 1.58907 0.245997 0
M  V30 1573 O 156.875 1.74181 0.0254081 0
M  V30 1574 C 154.007 3.40842 -0.0627695 0
M  V30 1575 H 155.2 2.51443 -1.63452 0
M  V30 1576 H 152.753 1.28963 -0.88307 0
M  V30 1577 H 153.488 3.12587 0.863716 0
M  V30 1578 H 153.273 3.84713 -0.757504 0
M  V30 1579 H 154.763 4.17221 0.177786 0
M  V30 1580 N 155.201 0.870884 1.31352 0
M  V30 1581 C 156.449 0.48132 1.96285 0
M  V30 1582 C 156.77 -0.969813 1.69173 0
M  V30 1583 O 156.04 -1.67998 1.00764 0
M  V30 1584 H 154.62 0.175002 0.726212 0
M  V30 1585 H 157.282 1.11087 1.60143 0
M  V30 1586 H 156.378 0.639825 3.05471 0
M  V30 1587 N 156.679 -1.44442 0.630414 0
M  V30 1588 C 157.925 -2.02351 0.134816 0
M  V30 1589 C 158.258 -1.4947 -1.23986 0
M  V30 1590 O 157.533 -0.678475 -1.82283 0
M  V30 1591 C 157.816 -3.59898 0.120707 0
M  V30 1592 C 157.669 -4.23063 1.52767 0
M  V30 1593 C 158.988 -4.36585 -0.555127 0
M  V30 1594 H 156.107 -0.73527 0.0504646 0
M  V30 1595 H 158.749 -1.72022 0.806751 0
M  V30 1596 H 156.899 -3.85868 -0.451477 0
M  V30 1597 H 158.571 -4.08202 2.14869 0
M  V30 1598 H 156.814 -3.80586 2.08175 0
M  V30 1599 H 157.485 -5.32071 1.46984 0
M  V30 1600 H 159.961 -4.16044 -0.0685429 0
M  V30 1601 H 158.837 -5.46294 -0.534185 0
M  V30 1602 H 159.098 -4.11138 -1.62535 0
M  V30 1603 N 158.157 -0.370918 -1.53173 0
M  V30 1604 C 159.405 0.216673 -2.00935 0
M  V30 1605 C 159.726 1.48845 -1.25977 0
M  V30 1606 O 158.996 1.92286 -0.374551 0
M  V30 1607 H 157.576 0.0830565 -0.742368 0
M  V30 1608 H 160.238 -0.49838 -1.8842 0
M  V30 1609 H 159.334 0.439893 -3.08984 0
M  V30 1610 N 159.635 1.57281 -0.100228 0
M  V30 1611 C 160.863 1.98879 0.570509 0
M  V30 1612 C 161.278 0.979476 1.61405 0
M  V30 1613 O 160.635 -0.0302288 1.82475 0
M  V30 1614 C 160.686 3.4052 1.2136 0
M  V30 1615 O 160.407 4.37588 0.211786 0
M  V30 1616 C 161.908 3.97149 1.96945 0
M  V30 1617 H 159.128 0.653428 0.152555 0
M  V30 1618 H 161.672 2.03697 -0.18103 0
M  V30 1619 H 159.827 3.367 1.91603 0
M  V30 1620 H 160.241 5.20118 0.676607 0
M  V30 1621 H 161.715 4.98393 2.37294 0
M  V30 1622 H 162.192 3.3525 2.83733 0
M  V30 1623 H 162.798 4.04458 1.31506 0
M  V30 1624 N 161.113 -0.173488 1.56642 0
M  V30 1625 C 162.524 -0.736155 1.71574 0
M  V30 1626 C 162.875 -1.82888 0.710389 0
M  V30 1627 O 162 -2.16017 -0.1287 0
M  V30 1628 C 162.595 -1.34211 3.11083 0
M  V30 1629 C 161.154 -1.85162 3.27707 0
M  V30 1630 C 160.301 -0.729765 2.67525 0
M  V30 1631 H 163.252 0.0518786 1.58615 0
M  V30 1632 H 163.273 -2.21178 3.09613 0
M  V30 1633 H 162.785 -0.546579 3.84232 0
M  V30 1634 H 160.886 -2.67366 2.59512 0
M  V30 1635 H 160.999 -1.99855 4.35425 0
M  V30 1636 H 159.363 -1.14965 2.27278 0
M  V30 1637 H 160.146 0.0538806 3.43258 0
M  V30 1638 N 162.591 -1.51276 -0.441967 0
M  V30 1639 C 164.002 -1.56244 -1.02199 0
M  V30 1640 C 164.353 -0.383149 -1.92422 0
M  V30 1641 O 163.478 0.500613 -2.1053 0
M  V30 1642 C 164.073 -2.83162 -1.86024 0
M  V30 1643 C 162.632 -2.90716 -2.39084 0
M  V30 1644 C 161.779 -2.50858 -1.18175 0
M  V30 1645 H 164.73 -1.5712 -0.223416 0
M  V30 1646 H 164.751 -2.66663 -2.71425 0
M  V30 1647 H 164.263 -3.68974 -1.20331 0
M  V30 1648 H 162.364 -2.09323 -3.08244 0
M  V30 1649 H 162.477 -3.94266 -2.72198 0
M  V30 1650 H 160.841 -2.03951 -1.52565 0
M  V30 1651 H 161.624 -3.3901 -0.541001 0
M  V30 1652 N 164.069 0.697108 -1.41344 0
M  V30 1653 C 165.297 1.48593 -1.43972 0
M  V30 1654 C 165.712 1.88747 -0.0445612 0
M  V30 1655 O 165.069 1.56682 0.935785 0
M  V30 1656 C 165.12 2.74946 -2.34706 0
M  V30 1657 O 164.841 2.36484 -3.68791 0
M  V30 1658 C 166.342 3.687 -2.46121 0
M  V30 1659 H 163.562 0.457964 -0.490418 0
M  V30 1660 H 166.106 0.858429 -1.8561 0
M  V30 1661 H 164.261 3.33937 -1.9638 0
M  V30 1662 H 164.675 3.17918 -4.17167 0
M  V30 1663 H 166.149 4.54145 -3.13777 0
M  V30 1664 H 166.626 4.13081 -1.49199 0
M  V30 1665 H 167.232 3.15613 -2.85076 0
M  V30 1666 N 165.547 1.27147 0.931209 0
M  V30 1667 C 166.795 1.13055 1.6752 0
M  V30 1668 C 167.116 -0.324791 1.92276 0
M  V30 1669 O 166.386 -1.22775 1.52654 0
M  V30 1670 H 164.966 0.415391 0.620854 0
M  V30 1671 H 167.628 1.59623 1.11833 0
M  V30 1672 H 166.724 1.65694 2.64485 0
M  V30 1673 N 167.025 -1.13721 1.09112 0
M  V30 1674 C 168.271 -1.85413 0.836283 0
M  V30 1675 C 168.626 -1.8175 -0.631249 0
M  V30 1676 O 167.919 -1.24238 -1.45861 0
M  V30 1677 C 168.113 -3.32861 1.30146 0
M  V30 1678 C 167.942 -3.50882 2.81268 0
M  V30 1679 C 166.712 -3.65312 3.49106 0
M  V30 1680 C 168.91 -3.47196 3.7942 0
M  V30 1681 N 166.892 -3.71563 4.88686 0
M  V30 1682 C 168.263 -3.59777 5.04936 0
M  V30 1683 C 170.318 -3.30577 3.72321 0
M  V30 1684 C 169.021 -3.57455 6.24194 0
M  V30 1685 C 171.047 -3.29562 4.91063 0
M  V30 1686 C 170.409 -3.42691 6.15421 0
M  V30 1687 H 166.508 -0.694812 0.358832 0
M  V30 1688 H 169.092 -1.36246 1.39087 0
M  V30 1689 H 167.263 -3.80602 0.774361 0
M  V30 1690 H 168.995 -3.92346 0.99229 0
M  V30 1691 H 165.75 -3.6685 2.9953 0
M  V30 1692 H 166.174 -3.78387 5.61384 0
M  V30 1693 H 170.816 -3.19332 2.77105 0
M  V30 1694 H 168.534 -3.67475 7.19714 0
M  V30 1695 H 172.12 -3.17905 4.87266 0
M  V30 1696 H 171 -3.41862 7.05762 0
M  V30 1697 N 168.503 -0.877838 -1.30888 0
M  V30 1698 C 169.78 -0.413052 -1.91189 0
M  V30 1699 C 170.16 1.1056 -1.79832 0
M  V30 1700 O 169.508 1.93771 -1.21099 0
M  V30 1701 C 169.718 -0.903191 -3.3711 0
M  V30 1702 C 171.066 -0.93395 -4.14201 0
M  V30 1703 O 172.09 -0.849373 -3.45925 0
M  V30 1704 O 170.949 -1.05772 -5.36167 0
M  V30 1705 H 168.043 -0.125035 -0.817493 0
M  V30 1706 H 170.589 -0.966269 -1.39504 0
M  V30 1707 H 169.361 -1.94692 -3.39427 0
M  V30 1708 H 168.984 -0.328732 -3.96239 0
M  V30 1709 N 169.982 1.44106 -0.638065 0
M  V30 1710 C 171.222 2.03858 -0.148733 0
M  V30 1711 C 171.586 1.49153 1.20903 0
M  V30 1712 O 172.787 2.00452 1.79088 0
M  V30 1713 C 171.058 3.57117 -0.142314 0
M  V30 1714 S 172.617 4.37897 0.281385 0
M  V30 1715 H 169.435 0.708069 -0.0644912 0
M  V30 1716 H 172.037 1.7639 -0.843009 0
M  V30 1717 H 170.741 3.94436 -1.13349 0
M  V30 1718 H 170.272 3.89205 0.572988 0
M  V30 1719 H 172.287 4.72218 1.52395 0
M  V30 1720 N 171.46 0.379036 1.52974 0
M  V30 1721 C 172.39 -0.452706 2.29069 0
M  V30 1722 C 173.371 -1.07237 1.32039 0
M  V30 1723 O 174.556 -1.08708 1.60923 0
M  V30 1724 C 171.686 -1.5856 3.08992 0
M  V30 1725 C 170.64 -1.0925 4.13822 0
M  V30 1726 C 169.966 -2.31668 4.81907 0
M  V30 1727 C 171.266 -0.167702 5.22031 0
M  V30 1728 H 172.96 0.182181 2.98845 0
M  V30 1729 H 170.506 0.0890592 1.43724 0
M  V30 1730 H 172.459 -2.1742 3.6098 0
M  V30 1731 H 171.183 -2.24792 2.36931 0
M  V30 1732 H 169.842 -0.526494 3.628 0
M  V30 1733 H 169.49 -2.96386 4.06404 0
M  V30 1734 H 169.19 -1.9934 5.52754 0
M  V30 1735 H 170.714 -2.91189 5.36695 0
M  V30 1736 H 172.128 -0.664186 5.6944 0
M  V30 1737 H 170.525 0.0653265 6.00064 0
M  V30 1738 H 171.595 0.786347 4.78482 0
M  V30 1739 N 172.938 -1.57226 0.108567 0
M  V30 1740 C 174.349 -1.8195 -0.418464 0
M  V30 1741 C 174.7 -1.02508 -1.67292 0
M  V30 1742 O 173.825 -0.258496 -2.14851 0
M  V30 1743 C 174.42 -3.30028 -0.765979 0
M  V30 1744 C 172.979 -3.55469 -1.23769 0
M  V30 1745 C 172.126 -2.7625 -0.241106 0
M  V30 1746 H 175.077 -1.55149 0.33384 0
M  V30 1747 H 175.098 -3.44086 -1.62434 0
M  V30 1748 H 174.61 -3.87821 0.147219 0
M  V30 1749 H 172.711 -3.03022 -2.16814 0
M  V30 1750 H 172.824 -4.6408 -1.19022 0
M  V30 1751 H 171.188 -2.44133 -0.72602 0
M  V30 1752 H 171.971 -3.36797 0.665007 0
M  V30 1753 N 174.416 0.165178 -1.56732 0
M  V30 1754 C 175.641 0.900253 -1.86843 0
M  V30 1755 C 176.066 1.74766 -0.695596 0
M  V30 1756 O 175.424 1.77786 0.35522 0
M  V30 1757 C 175.472 1.74777 -3.15413 0
M  V30 1758 O 174.576 2.85007 -2.98068 0
M  V30 1759 H 173.917 0.251832 -0.614391 0
M  V30 1760 H 176.447 0.161468 -2.03962 0
M  V30 1761 H 176.457 2.14646 -3.46974 0
M  V30 1762 H 175.132 1.12537 -4.00385 0
M  V30 1763 H 173.709 2.48676 -2.77875 0
M  V30 1764 N 175.894 1.51508 0.433938 0
M  V30 1765 C 177.171 1.54888 1.19453 0
M  V30 1766 C 177.551 0.315154 2.08734 0
M  V30 1767 O 176.899 -0.699558 2.17528 0
M  V30 1768 C 177.109 2.86467 1.99342 0
M  V30 1769 C 178.457 3.38545 2.56267 0
M  V30 1770 O 179.481 2.88041 2.0955 0
M  V30 1771 O 178.34 4.26675 3.41483 0
M  V30 1772 H 175.434 0.622863 0.544032 0
M  V30 1773 H 177.98 1.63823 0.442732 0
M  V30 1774 H 176.752 3.67718 1.33788 0
M  V30 1775 H 176.375 2.8071 2.8158 0
M  V30 1776 N 177.372 -0.689602 1.41712 0
M  V30 1777 C 178.612 -1.46184 1.42862 0
M  V30 1778 C 178.976 -1.91962 0.0382204 0
M  V30 1779 O 180.177 -2.68694 -0.0755019 0
M  V30 1780 C 178.448 -2.6371 2.4123 0
M  V30 1781 S 180.007 -3.52768 2.6096 0
M  V30 1782 H 176.825 -0.49947 0.506015 0
M  V30 1783 H 179.427 -0.804107 1.78198 0
M  V30 1784 H 178.131 -2.28293 3.41044 0
M  V30 1785 H 177.662 -3.3437 2.07269 0
M  V30 1786 H 179.677 -4.59146 1.88148 0
M  V30 1787 N 178.85 -1.27639 -0.924453 0
M  V30 1788 C 180.078 -1.16989 -1.70649 0
M  V30 1789 C 180.493 0.272869 -1.86818 0
M  V30 1790 O 179.85 1.18549 -1.38753 0
M  V30 1791 C 179.901 -1.85229 -3.10439 0
M  V30 1792 O 179.622 -3.23868 -2.95028 0
M  V30 1793 C 181.123 -1.80746 -4.04779 0
M  V30 1794 H 178.343 -0.406595 -0.53378 0
M  V30 1795 H 180.887 -1.68569 -1.15778 0
M  V30 1796 H 179.042 -1.37545 -3.6216 0
M  V30 1797 H 179.456 -3.57889 -3.83426 0
M  V30 1798 H 180.93 -2.33101 -5.00368 0
M  V30 1799 H 181.407 -0.777499 -4.32263 0
M  V30 1800 H 182.013 -2.28059 -3.58984 0
M  V30 1801 N 180.328 1.1314 -1.09713 0
M  V30 1802 C 181.291 2.16831 -0.742751 0
M  V30 1803 C 182.291 1.59159 0.229129 0
M  V30 1804 O 183.481 1.74199 0.00693237 0
M  V30 1805 C 180.613 3.40756 -0.0989168 0
M  V30 1806 H 181.806 2.49695 -1.66109 0
M  V30 1807 H 179.359 1.2802 -0.896699 0
M  V30 1808 H 180.094 3.13485 0.830514 0
M  V30 1809 H 179.879 3.83888 -0.798265 0
M  V30 1810 H 181.369 4.17386 0.133524 0
M  V30 1811 N 181.806 0.884767 1.30421 0
M  V30 1812 C 183.031 0.517288 2.00845 0
M  V30 1813 C 183.456 -0.886779 1.65885 0
M  V30 1814 O 182.814 -1.58768 0.875354 0
M  V30 1815 C 182.862 0.698994 3.5376 0
M  V30 1816 O 181.966 -0.255208 4.1161 0
M  V30 1817 H 181.307 0.203872 0.631927 0
M  V30 1818 H 183.837 1.19225 1.66272 0
M  V30 1819 H 183.847 0.597912 4.03595 0
M  V30 1820 H 182.522 1.72271 3.78544 0
M  V30 1821 H 181.099 -0.10784 3.72744 0
M  V30 1822 N 183.284 -1.43765 0.645699 0
M  V30 1823 C 184.247 -2.29163 -0.0409488 0
M  V30 1824 C 185.247 -1.41813 -0.757996 0
M  V30 1825 O 186.437 -1.63527 -0.600382 0
M  V30 1826 C 183.569 -3.23716 -1.06869 0
M  V30 1827 H 184.762 -2.91366 0.710345 0
M  V30 1828 H 182.315 -1.5092 0.406547 0
M  V30 1829 H 183.05 -2.66393 -1.84947 0
M  V30 1830 H 182.835 -3.88105 -0.558277 0
M  V30 1831 H 184.325 -3.87831 -1.54845 0
M  V30 1832 N 184.763 -0.387143 -1.52771 0
M  V30 1833 C 185.726 0.436939 -2.24997 0
M  V30 1834 C 186.726 0.991991 -1.26555 0
M  V30 1835 O 187.916 0.874335 -1.50669 0
M  V30 1836 C 185.048 1.61281 -3.00335 0
M  V30 1837 H 186.241 -0.195365 -2.99263 0
M  V30 1838 H 183.794 -0.139218 -1.55679 0
M  V30 1839 H 184.529 2.2826 -2.30364 0
M  V30 1840 H 184.314 1.22154 -3.72587 0
M  V30 1841 H 185.804 2.19629 -3.5518 0
M  V30 1842 N 186.241 1.57166 -0.116904 0
M  V30 1843 C 187.489 1.94737 0.540533 0
M  V30 1844 C 187.81 1.00096 1.67349 0
M  V30 1845 O 187.08 0.0568854 1.95817 0
M  V30 1846 H 185.66 0.718981 0.202669 0
M  V30 1847 H 188.322 1.94017 -0.185353 0
M  V30 1848 H 187.418 2.97719 0.936483 0
M  V30 1849 N 187.719 -0.156864 1.56817 0
M  V30 1850 C 188.944 -0.890331 1.87318 0
M  V30 1851 C 189.369 -1.74394 0.704855 0
M  V30 1852 O 188.727 -1.77972 -0.345786 0
M  V30 1853 C 188.775 -1.73102 3.16336 0
M  V30 1854 O 187.879 -2.83422 2.99576 0
M  V30 1855 H 187.22 -0.24857 0.615718 0
M  V30 1856 H 189.75 -0.150649 2.04045 0
M  V30 1857 H 189.76 -2.12803 3.48107 0
M  V30 1858 H 188.435 -1.10412 4.00976 0
M  V30 1859 H 187.012 -2.47199 2.7919 0
M  V30 1860 N 189.197 -1.51736 -0.425897 0
M  V30 1861 C 190.422 -1.69082 -1.20108 0
M  V30 1862 C 190.847 -0.392398 -1.83962 0
M  V30 1863 O 190.205 0.64858 -1.69302 0
M  V30 1864 C 190.253 -2.81604 -2.25237 0
M  V30 1865 O 189.357 -2.46004 -3.30992 0
M  V30 1866 H 188.698 -0.563408 -0.35138 0
M  V30 1867 H 191.228 -1.98358 -0.501512 0
M  V30 1868 H 191.238 -3.06025 -2.69838 0
M  V30 1869 H 189.913 -3.75817 -1.78142 0
M  V30 1870 H 188.49 -2.32195 -2.91787 0
M  V30 1871 N 190.675 0.682077 -1.42076 0
M  V30 1872 C 191.903 1.47057 -1.4554 0
M  V30 1873 C 192.318 1.8869 -0.0645779 0
M  V30 1874 O 191.675 1.57666 0.919115 0
M  V30 1875 C 191.726 2.72442 -2.37609 0
M  V30 1876 O 191.447 2.32559 -3.71279 0
M  V30 1877 C 192.948 3.66069 -2.50017 0
M  V30 1878 H 190.168 0.452737 -0.495248 0
M  V30 1879 H 192.712 0.838695 -1.8651 0
M  V30 1880 H 190.867 3.31835 -1.9991 0
M  V30 1881 H 191.281 3.13475 -4.20516 0
M  V30 1882 H 192.755 4.50792 -3.18576 0
M  V30 1883 H 193.232 4.11476 -1.53572 0
M  V30 1884 H 193.838 3.12572 -2.88407 0
M  V30 1885 N 192.153 1.28127 0.917671 0
M  V30 1886 C 193.43 1.05761 1.64542 0
M  V30 1887 C 193.81 -0.404344 2.07191 0
M  V30 1888 O 193.158 -1.38963 1.81388 0
M  V30 1889 C 193.368 2.02857 2.83989 0
M  V30 1890 C 194.716 2.32786 3.551 0
M  V30 1891 O 195.74 2.0091 2.94132 0
M  V30 1892 O 194.599 2.87169 4.64969 0
M  V30 1893 H 191.693 0.403916 0.721652 0
M  V30 1894 H 194.239 1.39431 0.967322 0
M  V30 1895 H 193.011 3.01407 2.49538 0
M  V30 1896 H 192.634 1.69809 3.59514 0
M  V30 1897 N 193.631 -1.12557 1.10312 0
M  V30 1898 C 194.908 -1.80363 0.756878 0
M  V30 1899 C 195.288 -1.97067 -0.756824 0
M  V30 1900 O 194.636 -1.54601 -1.68259 0
M  V30 1901 C 194.846 -3.14812 1.50647 0
M  V30 1902 C 196.194 -3.90029 1.67817 0
M  V30 1903 O 197.218 -3.24464 1.46974 0
M  V30 1904 O 196.077 -5.07652 2.02365 0
M  V30 1905 H 193.171 -0.780667 0.272926 0
M  V30 1906 H 195.717 -1.19404 1.20586 0
M  V30 1907 H 194.489 -2.97936 2.53672 0
M  V30 1908 H 194.112 -3.83478 1.05026 0
M  V30 1909 N 195.109 -0.891671 -1.2995 0
M  V30 1910 C 196.355 -0.514261 -1.96171 0
M  V30 1911 C 196.688 0.935506 -1.70182 0
M  V30 1912 O 195.963 1.66204 -1.01028 0
M  V30 1913 C 196.246 -0.797719 -3.51153 0
M  V30 1914 C 196.099 -2.2986 -3.86632 0
M  V30 1915 C 197.418 -0.278749 -4.39216 0
M  V30 1916 H 194.537 -0.188314 -0.712535 0
M  V30 1917 H 197.179 -1.11689 -1.53706 0
M  V30 1918 H 195.329 -0.284826 -3.87455 0
M  V30 1919 H 197.001 -2.88042 -3.60319 0
M  V30 1920 H 195.244 -2.76257 -3.34462 0
M  V30 1921 H 195.915 -2.44753 -4.94773 0
M  V30 1922 H 198.391 -0.717825 -4.09862 0
M  V30 1923 H 197.267 -0.506353 -5.46559 0
M  V30 1924 H 197.528 0.820266 -4.34424 0
M  V30 1925 N 196.587 1.43421 -0.653314 0
M  V30 1926 C 197.497 2.34568 0.0388565 0
M  V30 1927 C 198.513 1.53888 0.81207 0
M  V30 1928 O 199.689 1.86539 0.759294 0
M  V30 1929 C 196.754 3.32167 0.993269 0
M  V30 1930 C 195.815 4.28751 0.216977 0
M  V30 1931 C 195.048 5.21688 1.12593 0
M  V30 1932 O 195.271 5.19052 2.36519 0
M  V30 1933 O 194.205 5.98919 0.598284 0
M  V30 1934 H 198.031 2.95251 -0.711386 0
M  V30 1935 H 195.616 1.43564 -0.413502 0
M  V30 1936 H 197.498 3.92183 1.54176 0
M  V30 1937 H 196.173 2.73987 1.72374 0
M  V30 1938 H 195.08 3.72215 -0.375101 0
M  V30 1939 H 196.413 4.89913 -0.473924 0
M  V30 1940 N 198.065 0.39524 1.52563 0
M  V30 1941 C 198.995 -0.428384 2.29537 0
M  V30 1942 C 199.976 -1.05831 1.33169 0
M  V30 1943 O 201.161 -1.06995 1.62067 0
M  V30 1944 C 198.291 -1.55274 3.10656 0
M  V30 1945 C 197.245 -1.04855 4.14957 0
M  V30 1946 C 196.571 -2.26543 4.84337 0
M  V30 1947 C 197.871 -0.112324 5.22179 0
M  V30 1948 H 199.565 0.213867 2.98635 0
M  V30 1949 H 197.111 0.104298 1.43622 0
M  V30 1950 H 199.064 -2.1358 3.63265 0
M  V30 1951 H 197.788 -2.22266 2.39302 0
M  V30 1952 H 196.447 -0.487985 3.63338 0
M  V30 1953 H 196.095 -2.92059 4.09525 0
M  V30 1954 H 195.795 -1.93466 5.54837 0
M  V30 1955 H 197.319 -2.85481 5.39753 0
M  V30 1956 H 198.733 -0.603752 5.70112 0
M  V30 1957 H 197.13 0.128968 5.99961 0
M  V30 1958 H 198.2 0.837052 4.77621 0
M  V30 1959 N 199.544 -1.57102 0.125237 0
M  V30 1960 C 200.507 -2.14471 -0.80838 0
M  V30 1961 C 201.507 -1.0811 -1.19033 0
M  V30 1962 O 202.697 -1.33856 -1.11482 0
M  V30 1963 C 199.829 -2.69005 -2.09402 0
M  V30 1964 H 201.022 -2.98297 -0.309696 0
M  V30 1965 H 198.575 -1.55807 -0.124051 0
M  V30 1966 H 199.31 -1.88785 -2.63687 0
M  V30 1967 H 199.095 -3.46799 -1.82957 0
M  V30 1968 H 200.585 -3.13278 -2.76128 0
M  V30 1969 N 201.022 0.148545 -1.56898 0
M  V30 1970 C 202.25 0.876389 -1.87422 0
M  V30 1971 C 202.665 1.74809 -0.713256 0
M  V30 1972 O 202.022 1.79725 0.317025 0
M  V30 1973 C 202.073 1.73438 -3.17178 0
M  V30 1974 O 201.794 0.897809 -4.28802 0
M  V30 1975 C 203.295 2.56993 -3.61205 0
M  V30 1976 H 200.515 0.253489 -0.621277 0
M  V30 1977 H 203.059 0.141798 -2.04008 0
M  V30 1978 H 201.214 2.42205 -3.0235 0
M  V30 1979 H 201.628 1.48672 -5.02988 0
M  V30 1980 H 203.102 3.12773 -4.54838 0
M  V30 1981 H 203.579 3.32958 -2.86419 0
M  V30 1982 H 204.185 1.9352 -3.78722 0
M  V30 1983 N 202.5 1.5196 0.417844 0
M  V30 1984 C 203.41 1.77554 1.53336 0
M  V30 1985 C 204.426 0.660655 1.6097 0
M  V30 1986 O 205.602 0.945099 1.77848 0
M  V30 1987 C 202.667 1.91291 2.89152 0
M  V30 1988 C 201.728 3.15183 2.91475 0
M  V30 1989 C 200.961 3.28256 4.20813 0
M  V30 1990 O 201.184 2.46798 5.14244 0
M  V30 1991 O 200.118 4.21356 4.29817 0
M  V30 1992 H 203.944 2.7222 1.34647 0
M  V30 1993 H 201.529 1.36698 0.602828 0
M  V30 1994 H 203.411 2.02199 3.69721 0
M  V30 1995 H 202.086 0.998129 3.07927 0
M  V30 1996 H 200.993 3.09739 2.09791 0
M  V30 1997 H 202.326 4.06414 2.77648 0
M  V30 1998 N 203.978 -0.674533 1.42435 0
M  V30 1999 C 205.225 -1.43459 1.42919 0
M  V30 2000 C 205.553 -1.94446 0.0457312 0
M  V30 2001 O 204.808 -1.7132 -0.94593 0
M  V30 2002 C 205.107 -2.64767 2.40069 0
M  V30 2003 C 204.773 -2.3232 3.86443 0
M  V30 2004 C 203.435 -2.23182 4.26314 0
M  V30 2005 C 205.787 -2.05977 4.78773 0
M  V30 2006 C 203.115 -1.85827 5.56494 0
M  V30 2007 C 205.467 -1.70125 6.09295 0
M  V30 2008 C 204.131 -1.59498 6.48164 0
M  V30 2009 H 203.401 -0.524952 0.522978 0
M  V30 2010 H 206.048 -0.769097 1.75377 0
M  V30 2011 H 204.353 -3.36349 2.00939 0
M  V30 2012 H 206.05 -3.22949 2.37707 0
M  V30 2013 H 202.64 -2.40334 3.54877 0
M  V30 2014 H 206.824 -2.11969 4.48757 0
M  V30 2015 H 202.08 -1.76168 5.8547 0
M  V30 2016 H 206.254 -1.48767 6.80324 0
M  V30 2017 H 203.881 -1.30322 7.48946 0
M  V30 2018 N 205.456 -1.28612 -0.910864 0
M  V30 2019 C 206.867 -1.14406 -1.47541 0
M  V30 2020 C 207.218 0.264901 -1.94403 0
M  V30 2021 O 206.343 1.15942 -1.82719 0
M  V30 2022 C 206.938 -2.07073 -2.68153 0
M  V30 2023 C 205.497 -1.96923 -3.20778 0
M  V30 2024 C 204.644 -1.98646 -1.93481 0
M  V30 2025 H 207.595 -1.41259 -0.723291 0
M  V30 2026 H 207.616 -1.63642 -3.43514 0
M  V30 2027 H 207.128 -3.09611 -2.34015 0
M  V30 2028 H 205.229 -0.97433 -3.59635 0
M  V30 2029 H 205.342 -2.84026 -3.85832 0
M  V30 2030 H 203.706 -1.43093 -2.10705 0
M  V30 2031 H 204.489 -3.02868 -1.61634 0
M  V30 2032 N 206.934 1.1197 -1.10907 0
M  V30 2033 C 207.897 2.16031 -0.765707 0
M  V30 2034 C 208.897 1.59393 0.212235 0
M  V30 2035 O 210.087 1.74196 -0.0115441 0
M  V30 2036 C 207.219 3.40632 -0.135053 0
M  V30 2037 H 208.412 2.47919 -1.68748 0
M  V30 2038 H 205.965 1.27061 -0.910226 0
M  V30 2039 H 206.7 3.14348 0.797218 0
M  V30 2040 H 206.485 3.8302 -0.838937 0
M  V30 2041 H 207.975 4.17505 0.0892469 0
M  V30 2042 N 208.412 0.89855 1.29475 0
M  V30 2043 C 209.64 0.539261 1.99749 0
M  V30 2044 C 210.055 -0.875716 1.67262 0
M  V30 2045 O 209.412 -1.57786 0.917049 0
M  V30 2046 C 209.463 0.72061 3.54245 0
M  V30 2047 O 209.184 2.07989 3.8558 0
M  V30 2048 C 210.685 0.366118 4.41786 0
M  V30 2049 H 207.905 0.207047 0.638258 0
M  V30 2050 H 210.449 1.20758 1.65039 0
M  V30 2051 H 208.604 0.0994862 3.87272 0
M  V30 2052 H 209.018 2.10841 4.80257 0
M  V30 2053 H 210.492 0.543848 5.49314 0
M  V30 2054 H 210.969 -0.696763 4.33638 0
M  V30 2055 H 211.575 0.964135 4.14228 0
M  V30 2056 N 209.89 -1.43072 0.660911 0
M  V30 2057 C 210.8 -2.34585 -0.0264163 0
M  V30 2058 C 211.816 -1.54316 -0.803898 0
M  V30 2059 O 212.992 -1.86939 -0.749391 0
M  V30 2060 C 210.057 -3.32689 -0.975639 0
M  V30 2061 C 209.118 -4.2886 -0.194236 0
M  V30 2062 C 208.351 -5.22278 -1.09825 0
M  V30 2063 O 208.574 -5.20299 -2.33763 0
M  V30 2064 O 207.508 -5.99228 -0.566513 0
M  V30 2065 H 211.334 -2.94869 0.727034 0
M  V30 2066 H 208.919 -1.43342 0.42111 0
M  V30 2067 H 210.801 -3.92995 -1.52094 0
M  V30 2068 H 209.476 -2.74898 -1.70918 0
M  V30 2069 H 208.383 -3.72011 0.394835 0
M  V30 2070 H 209.716 -4.89655 0.499899 0
M  V30 2071 N 211.368 -0.403325 -1.52352 0
M  V30 2072 C 212.331 0.413051 -2.25447 0
M  V30 2073 C 213.331 0.978513 -1.276 0
M  V30 2074 O 214.521 0.858305 -1.51587 0
M  V30 2075 C 211.653 1.58087 -3.02029 0
M  V30 2076 H 212.846 -0.227094 -2.99039 0
M  V30 2077 H 210.399 -0.155722 -1.55522 0
M  V30 2078 H 211.134 2.25804 -2.32772 0
M  V30 2079 H 210.919 1.18195 -3.73861 0
M  V30 2080 H 212.409 2.1585 -3.57489 0
M  V30 2081 N 212.846 1.57033 -0.133567 0
M  V30 2082 C 214.092 1.96764 0.515326 0
M  V30 2083 C 214.447 1.01653 1.63353 0
M  V30 2084 O 213.74 0.0491374 1.91537 0
M  V30 2085 C 213.934 3.40674 1.08057 0
M  V30 2086 C 213.763 4.49696 0.0186522 0
M  V30 2087 C 212.533 5.03567 -0.418174 0
M  V30 2088 C 214.731 5.08536 -0.767809 0
M  V30 2089 N 212.713 5.9618 -1.46434 0
M  V30 2090 C 214.084 5.97231 -1.6648 0
M  V30 2091 C 216.139 4.9115 -0.817087 0
M  V30 2092 C 214.842 6.70401 -2.60681 0
M  V30 2093 C 216.868 5.65012 -1.74687 0
M  V30 2094 C 216.23 6.53403 -2.63141 0
M  V30 2095 H 212.329 0.765919 0.157771 0
M  V30 2096 H 214.913 1.93395 -0.22506 0
M  V30 2097 H 213.084 3.44662 1.79061 0
M  V30 2098 H 214.816 3.67495 1.69497 0
M  V30 2099 H 211.571 4.73594 -0.0229803 0
M  V30 2100 H 211.995 6.47191 -1.98678 0
M  V30 2101 H 216.637 4.22543 -0.147326 0
M  V30 2102 H 214.355 7.38245 -3.28664 0
M  V30 2103 H 217.941 5.53559 -1.79063 0
M  V30 2104 H 216.821 7.09556 -3.33917 0
M  V30 2105 N 214.325 -0.140222 1.56975 0
M  V30 2106 C 215.235 -1.19223 2.02047 0
M  V30 2107 C 216.251 -1.46612 0.937062 0
M  V30 2108 O 217.427 -1.58148 1.24704 0
M  V30 2109 C 214.492 -2.50414 2.39778 0
M  V30 2110 C 213.553 -2.30612 3.621 0
M  V30 2111 C 212.786 -3.55547 3.98023 0
M  V30 2112 O 213.009 -4.62004 3.34528 0
M  V30 2113 O 211.943 -3.47808 4.91237 0
M  V30 2114 H 215.769 -0.839559 2.91865 0
M  V30 2115 H 213.354 -0.349453 1.45256 0
M  V30 2116 H 215.236 -3.27747 2.64877 0
M  V30 2117 H 213.911 -2.85198 1.53114 0
M  V30 2118 H 212.818 -1.51207 3.4218 0
M  V30 2119 H 214.151 -2.00741 4.49404 0
M  V30 2120 N 215.803 -1.52179 -0.40978 0
M  V30 2121 C 217.043 -1.67882 -1.16597 0
M  V30 2122 C 217.407 -0.399795 -1.87791 0
M  V30 2123 O 218.608 -0.43292 -2.65291 0
M  V30 2124 C 216.879 -2.86662 -2.13448 0
M  V30 2125 S 218.438 -3.22843 -2.97183 0
M  V30 2126 H 215.256 -0.59118 -0.395002 0
M  V30 2127 H 217.858 -1.9017 -0.453373 0
M  V30 2128 H 216.562 -3.77998 -1.59831 0
M  V30 2129 H 216.093 -2.66645 -2.89247 0
M  V30 2130 H 218.108 -2.71415 -4.15389 0
M  V30 2131 N 217.281 0.66697 -1.42791 0
M  V30 2132 C 218.191 1.80962 -1.49299 0
M  V30 2133 C 219.207 1.69775 -0.381108 0
M  V30 2134 O 220.383 1.91188 -0.633188 0
M  V30 2135 C 217.448 3.17156 -1.40045 0
M  V30 2136 C 216.509 3.40242 -2.6179 0
M  V30 2137 C 215.742 4.69939 -2.52969 0
M  V30 2138 O 215.965 5.48372 -1.56985 0
M  V30 2139 O 214.899 4.94441 -3.43237 0
M  V30 2140 H 218.725 1.78427 -2.45759 0
M  V30 2141 H 216.31 0.823713 -1.24641 0
M  V30 2142 H 218.192 3.98413 -1.37276 0
M  V30 2143 H 216.867 3.20312 -0.467138 0
M  V30 2144 H 215.774 2.58802 -2.70134 0
M  V30 2145 H 217.107 3.41923 -3.54047 0
M  V30 2146 N 218.759 1.29093 0.90403 0
M  V30 2147 C 219.689 1.16401 2.02418 0
M  V30 2148 C 220.67 0.0593085 1.69997 0
M  V30 2149 O 221.855 0.238021 1.92736 0
M  V30 2150 C 218.985 0.835233 3.37107 0
M  V30 2151 C 217.939 1.89578 3.83724 0
M  V30 2152 C 217.265 1.42041 5.15489 0
M  V30 2153 C 218.565 3.30394 4.04521 0
M  V30 2154 H 220.259 2.10109 2.13295 0
M  V30 2155 H 217.805 1.01157 1.02486 0
M  V30 2156 H 219.758 0.733169 4.14973 0
M  V30 2157 H 218.482 -0.137543 3.2631 0
M  V30 2158 H 217.141 1.98715 3.08071 0
M  V30 2159 H 216.789 0.436426 5.01103 0
M  V30 2160 H 216.489 2.12964 5.4765 0
M  V30 2161 H 218.013 1.33176 5.959 0
M  V30 2162 H 219.427 3.24123 4.72882 0
M  V30 2163 H 217.824 3.99237 4.48029 0
M  V30 2164 H 218.894 3.73692 3.09002 0
M  V30 2165 N 220.237 -1.11381 1.11499 0
M  V30 2166 C 221.147 -2.21019 0.786628 0
M  V30 2167 C 222.163 -1.72597 -0.220507 0
M  V30 2168 O 223.339 -2.01321 -0.0565251 0
M  V30 2169 C 220.404 -3.459 0.235333 0
M  V30 2170 C 219.465 -4.09107 1.30115 0
M  V30 2171 C 218.698 -5.28027 0.776068 0
M  V30 2172 O 218.921 -5.6904 -0.393661 0
M  V30 2173 O 217.855 -5.81835 1.54114 0
M  V30 2174 H 221.681 -2.51521 1.70209 0
M  V30 2175 H 219.266 -1.19928 0.890928 0
M  V30 2176 H 221.148 -4.21346 -0.067715 0
M  V30 2177 H 219.823 -3.17049 -0.652828 0
M  V30 2178 H 218.73 -3.35391 1.65722 0
M  V30 2179 H 220.063 -4.42139 2.16273 0
M  V30 2180 N 221.715 -0.905404 -1.28997 0
M  V30 2181 C 222.963 -0.533192 -1.9494 0
M  V30 2182 C 223.284 0.924618 -1.71685 0
M  V30 2183 O 222.554 1.65268 -1.05183 0
M  V30 2184 H 221.134 -0.194194 -0.721317 0
M  V30 2185 H 223.796 -1.15294 -1.57141 0
M  V30 2186 H 222.892 -0.72059 -3.03667 0
M  V30 2187 N 223.193 1.4272 -0.668489 0
M  V30 2188 C 224.123 2.335 -0.000100175 0
M  V30 2189 C 225.104 1.50328 0.795964 0
M  V30 2190 O 226.289 1.78949 0.754385 0
M  V30 2191 C 223.419 3.33874 0.956302 0
M  V30 2192 C 222.373 4.27152 0.269278 0
M  V30 2193 C 221.699 5.17684 1.33818 0
M  V30 2194 C 222.999 5.15373 -0.847805 0
M  V30 2195 H 224.693 2.89639 -0.758244 0
M  V30 2196 H 222.239 1.39269 -0.366079 0
M  V30 2197 H 224.192 3.9629 1.43292 0
M  V30 2198 H 222.916 2.76025 1.74579 0
M  V30 2199 H 221.575 3.66123 -0.187042 0
M  V30 2200 H 221.223 4.56165 2.1195 0
M  V30 2201 H 220.923 5.80918 0.883659 0
M  V30 2202 H 222.447 5.82974 1.81586 0
M  V30 2203 H 223.861 5.7151 -0.452681 0
M  V30 2204 H 222.258 5.87407 -1.22773 0
M  V30 2205 H 223.328 4.5415 -1.69929 0
M  V30 2206 N 224.671 0.411399 1.52136 0
M  V30 2207 C 225.601 -0.404015 2.29978 0
M  V30 2208 C 226.582 -1.04412 1.34284 0
M  V30 2209 O 227.767 -1.0527 1.63192 0
M  V30 2210 C 224.897 -1.5197 3.12286 0
M  V30 2211 C 223.851 -1.00448 4.16046 0
M  V30 2212 C 223.177 -2.21393 4.86712 0
M  V30 2213 C 224.477 -0.0569336 5.22269 0
M  V30 2214 H 226.171 0.245529 2.98392 0
M  V30 2215 H 223.717 0.119525 1.43503 0
M  V30 2216 H 225.67 -2.09715 3.6551 0
M  V30 2217 H 224.394 -2.19716 2.41646 0
M  V30 2218 H 223.053 -0.449421 3.63835 0
M  V30 2219 H 222.701 -2.87699 4.12599 0
M  V30 2220 H 222.401 -1.87571 5.56858 0
M  V30 2221 H 223.925 -2.7974 5.4275 0
M  V30 2222 H 225.339 -0.54325 5.7072 0
M  V30 2223 H 223.736 0.192594 5.99791 0
M  V30 2224 H 224.806 0.887663 4.76706 0
M  V30 2225 N 226.149 -1.5696 0.141893 0
M  V30 2226 C 227.059 -2.20066 -0.812905 0
M  V30 2227 C 228.075 -1.18344 -1.27557 0
M  V30 2228 O 229.251 -1.50902 -1.33381 0
M  V30 2229 C 226.316 -2.80583 -2.03652 0
M  V30 2230 C 225.377 -3.97414 -1.62359 0
M  V30 2231 C 224.61 -4.55036 -2.78887 0
M  V30 2232 O 224.833 -4.11538 -3.94959 0
M  V30 2233 O 223.767 -5.45376 -2.54653 0
M  V30 2234 H 227.593 -3.02157 -0.305746 0
M  V30 2235 H 225.178 -1.49159 -0.0848799 0
M  V30 2236 H 227.06 -3.19067 -2.75272 0
M  V30 2237 H 225.735 -2.01508 -2.5333 0
M  V30 2238 H 224.642 -3.63656 -0.877775 0
M  V30 2239 H 225.975 -4.77994 -1.17401 0
M  V30 2240 N 227.627 0.131896 -1.57047 0
M  V30 2241 C 228.537 1.1815 -2.02676 0
M  V30 2242 C 229.553 1.46113 -0.944824 0
M  V30 2243 O 230.729 1.57485 -1.25541 0
M  V30 2244 C 227.794 2.49139 -2.41103 0
M  V30 2245 C 226.855 2.28688 -3.63318 0
M  V30 2246 C 226.088 3.53431 -3.99903 0
M  V30 2247 O 226.311 4.60223 -3.36973 0
M  V30 2248 O 225.245 3.45198 -4.93074 0
M  V30 2249 H 229.071 0.824069 -2.92306 0
M  V30 2250 H 226.656 0.341745 -1.45439 0
M  V30 2251 H 228.538 3.26338 -2.66611 0
M  V30 2252 H 227.213 2.84382 -1.54624 0
M  V30 2253 H 226.12 1.4939 -3.42977 0
M  V30 2254 H 227.453 1.98355 -4.50462 0
M  V30 2255 N 229.106 1.52395 0.401703 0
M  V30 2256 C 230.522 1.41363 0.740864 0
M  V30 2257 C 230.722 0.523982 1.94568 0
M  V30 2258 O 229.778 -0.00741204 2.52499 0
M  V30 2259 C 231.091 2.84011 0.987847 0
M  V30 2260 C 232.639 2.93404 1.09011 0
M  V30 2261 C 233.114 4.37036 1.3698 0
M  V30 2262 N 234.605 4.40304 1.43829 0
M  V30 2263 C 235.34 5.48508 1.67112 0
M  V30 2264 N 234.836 6.66819 1.87949 0
M  V30 2265 N 236.629 5.36034 1.69187 0
M  V30 2266 H 228.78 2.08765 -0.391262 0
M  V30 2267 H 231.043 0.941265 -0.112798 0
M  V30 2268 H 230.749 3.51265 0.174835 0
M  V30 2269 H 230.623 3.25502 1.906 0
M  V30 2270 H 233.01 2.26325 1.8937 0
M  V30 2271 H 233.091 2.55359 0.15015 0
M  V30 2272 H 232.735 5.04676 0.571353 0
M  V30 2273 H 232.665 4.72623 2.3224 0
M  V30 2274 H 235.156 3.55024 1.29486 0
M  V30 2275 H 235.469 7.45063 2.05185 0
M  V30 2276 H 233.814 6.6987 1.85199 0
M  V30 2277 H 237.005 4.42579 1.52451 0
M  V30 2278 H 237.178 6.20434 1.86993 0
M  V30 2279 N 230.584 -0.659388 1.43143 0
M  V30 2280 C 231.995 -1.24041 1.39537 0
M  V30 2281 C 232.346 -1.95963 0.0963364 0
M  V30 2282 O 231.471 -2.00892 -0.804438 0
M  V30 2283 C 232.066 -2.25601 2.52764 0
M  V30 2284 C 230.625 -2.79195 2.52443 0
M  V30 2285 C 229.772 -1.53743 2.30778 0
M  V30 2286 H 232.723 -0.451792 1.52133 0
M  V30 2287 H 232.744 -3.07651 2.23899 0
M  V30 2288 H 232.256 -1.73226 3.47296 0
M  V30 2289 H 230.357 -3.35649 1.61773 0
M  V30 2290 H 230.47 -3.2716 3.50004 0
M  V30 2291 H 228.834 -1.80869 1.79328 0
M  V30 2292 H 229.617 -1.03312 3.27386 0
M  V30 2293 N 232.062 -1.29571 -0.897171 0
M  V30 2294 C 233.025 -1.14913 -1.98312 0
M  V30 2295 C 234.025 -0.0838629 -1.60581 0
M  V30 2296 O 235.215 -0.331006 -1.71026 0
M  V30 2297 C 232.347 -0.757835 -3.3237 0
M  V30 2298 H 233.54 -2.11377 -2.12743 0
M  V30 2299 H 231.093 -1.12793 -1.08201 0
M  V30 2300 H 231.828 0.206837 -3.2364 0
M  V30 2301 H 231.613 -1.52755 -3.61121 0
M  V30 2302 H 233.103 -0.678408 -4.12053 0
M  V30 2303 N 233.54 1.10788 -1.12088 0
M  V30 2304 C 234.47 2.19083 -0.807755 0
M  V30 2305 C 235.451 1.6858 0.226859 0
M  V30 2306 O 236.636 1.93997 0.0888475 0
M  V30 2307 C 233.766 3.46344 -0.257576 0
M  V30 2308 C 232.72 4.101 -1.22483 0
M  V30 2309 C 232.046 5.32016 -0.535052 0
M  V30 2310 C 233.346 4.54236 -2.57811 0
M  V30 2311 H 235.04 2.45534 -1.71328 0
M  V30 2312 H 232.586 1.1801 -0.825205 0
M  V30 2313 H 234.539 4.21392 -0.0262679 0
M  V30 2314 H 233.263 3.19373 0.683278 0
M  V30 2315 H 231.922 3.37054 -1.44189 0
M  V30 2316 H 231.57 5.01319 0.410827 0
M  V30 2317 H 231.27 5.75625 -1.18024 0
M  V30 2318 H 232.794 6.09799 -0.312695 0
M  V30 2319 H 234.208 5.20575 -2.40155 0
M  V30 2320 H 232.605 5.08682 -3.18375 0
M  V30 2321 H 233.675 3.6734 -3.16528 0
M  V30 2322 N 235.018 0.912232 1.28515 0
M  V30 2323 C 236.258 0.551677 1.96814 0
M  V30 2324 C 236.622 -0.887825 1.7024 0
M  V30 2325 O 237.823 -1.35588 2.32098 0
M  V30 2326 C 236.094 0.850555 3.47132 0
M  V30 2327 S 237.653 0.59619 4.34731 0
M  V30 2328 H 234.471 0.204191 0.681049 0
M  V30 2329 H 237.073 1.17736 1.56072 0
M  V30 2330 H 235.777 1.8962 3.63968 0
M  V30 2331 H 235.308 0.213471 3.9282 0
M  V30 2332 H 237.323 -0.553154 4.93107 0
M  V30 2333 N 236.496 -1.42363 0.676048 0
M  V30 2334 C 237.426 -2.33497 0.0124832 0
M  V30 2335 C 238.407 -1.50748 -0.787981 0
M  V30 2336 O 239.592 -1.79346 -0.744884 0
M  V30 2337 C 236.722 -3.34377 -0.938582 0
M  V30 2338 C 235.676 -4.27289 -0.246622 0
M  V30 2339 C 235.002 -5.18386 -1.31071 0
M  V30 2340 C 236.302 -5.14916 0.875125 0
M  V30 2341 H 237.996 -2.89233 0.773593 0
M  V30 2342 H 235.542 -1.39073 0.37346 0
M  V30 2343 H 237.495 -3.97044 -1.41188 0
M  V30 2344 H 236.219 -2.76947 -1.73113 0
M  V30 2345 H 234.878 -3.66018 0.206456 0
M  V30 2346 H 234.526 -4.57282 -2.09528 0
M  V30 2347 H 234.226 -5.81378 -0.852839 0
M  V30 2348 H 235.75 -5.83929 -1.78492 0
M  V30 2349 H 237.164 -5.71262 0.482983 0
M  V30 2350 H 235.561 -5.86747 1.25887 0
M  V30 2351 H 236.631 -4.53242 1.72335 0
M  V30 2352 N 237.974 -0.419461 -1.51915 0
M  V30 2353 C 239.199 0.154572 -2.06823 0
M  V30 2354 C 239.624 1.3722 -1.28656 0
M  V30 2355 O 238.982 1.78461 -0.319583 0
M  V30 2356 C 239.03 0.473172 -3.57482 0
M  V30 2357 O 238.134 1.56255 -3.81652 0
M  V30 2358 H 237.475 0.0096924 -0.663929 0
M  V30 2359 H 240.005 -0.595642 -1.95738 0
M  V30 2360 H 240.015 0.728825 -4.01438 0
M  V30 2361 H 238.69 -0.416873 -4.13805 0
M  V30 2362 H 237.267 1.29825 -3.49571 0
M  V30 2363 N 239.452 1.56882 -0.150215 0
M  V30 2364 C 240.863 1.82995 0.370076 0
M  V30 2365 C 241.214 1.06907 1.64515 0
M  V30 2366 O 240.339 0.315369 2.1409 0
M  V30 2367 C 240.934 3.31942 0.678208 0
M  V30 2368 C 239.493 3.58625 1.14301 0
M  V30 2369 C 238.64 2.76792 0.167778 0
M  V30 2370 H 241.591 1.54209 -0.374858 0
M  V30 2371 H 241.612 3.48272 1.53254 0
M  V30 2372 H 241.124 3.87294 -0.249991 0
M  V30 2373 H 239.225 3.08664 2.08704 0
M  V30 2374 H 239.338 4.67073 1.06676 0
M  V30 2375 H 237.702 2.45972 0.661037 0
M  V30 2376 H 238.485 3.34916 -0.754069 0
M  V30 2377 N 240.93 -0.123565 1.57115 0
M  V30 2378 C 241.862 -1.17739 1.96648 0
M  V30 2379 C 242.875 -1.37906 0.865201 0
M  V30 2380 O 244.064 -1.37062 1.14351 0
M  V30 2381 C 241.164 -2.53821 2.24562 0
M  V30 2382 C 240.337 -2.54317 3.55867 0
M  V30 2383 C 239.396 -3.72112 3.72047 0
M  V30 2384 O 238.422 -3.55907 4.44206 0
M  V30 2385 N 239.624 -4.90498 3.10471 0
M  V30 2386 H 242.389 -0.841147 2.87654 0
M  V30 2387 H 239.95 -0.31289 1.58848 0
M  V30 2388 H 241.942 -3.31175 2.32606 0
M  V30 2389 H 240.512 -2.79645 1.39705 0
M  V30 2390 H 239.732 -1.62711 3.59053 0
M  V30 2391 H 241.02 -2.51701 4.42181 0
M  V30 2392 H 240.418 -5.06567 2.51806 0
M  V30 2393 H 238.975 -5.65544 3.24043 0
M  V30 2394 N 242.408 -1.52605 -0.393616 0
M  V30 2395 C 243.371 -1.76415 -1.46323 0
M  V30 2396 C 244.371 -0.634126 -1.47768 0
M  V30 2397 O 245.561 -0.902142 -1.4902 0
M  V30 2398 C 242.693 -1.8607 -2.85641 0
M  V30 2399 H 243.886 -2.71916 -1.26498 0
M  V30 2400 H 241.439 -1.43257 -0.625073 0
M  V30 2401 H 242.174 -0.925378 -3.10817 0
M  V30 2402 H 241.959 -2.68235 -2.85993 0
M  V30 2403 H 243.449 -2.06179 -3.63153 0
M  V30 2404 N 243.887 0.651787 -1.4349 0
M  V30 2405 C 245.298 1.233 -1.40193 0
M  V30 2406 C 245.649 1.9591 -0.106727 0
M  V30 2407 O 244.774 2.01316 0.793773 0
M  V30 2408 C 245.369 2.24257 -2.53957 0
M  V30 2409 C 243.928 2.77852 -2.5392 0
M  V30 2410 C 243.075 1.52517 -2.3159 0
M  V30 2411 H 246.026 0.443717 -1.52371 0
M  V30 2412 H 246.047 3.0646 -2.25528 0
M  V30 2413 H 245.559 1.71382 -3.4821 0
M  V30 2414 H 243.66 3.34786 -1.63551 0
M  V30 2415 H 243.773 3.25299 -3.51735 0
M  V30 2416 H 242.137 1.79915 -1.80285 0
M  V30 2417 H 242.92 1.01574 -3.27929 0
M  V30 2418 N 245.365 1.30045 0.890287 0
M  V30 2419 C 246.612 1.18561 1.64163 0
M  V30 2420 C 246.94 -0.260852 1.92743 0
M  V30 2421 O 246.195 -1.20376 1.54299 0
M  V30 2422 C 246.494 1.95409 2.99249 0
M  V30 2423 C 246.16 3.45066 2.90242 0
M  V30 2424 C 244.822 3.85878 2.87492 0
M  V30 2425 C 247.174 4.4039 2.78758 0
M  V30 2426 C 244.502 5.20314 2.7109 0
M  V30 2427 C 246.854 5.74928 2.63894 0
M  V30 2428 C 245.518 6.14986 2.59516 0
M  V30 2429 H 244.788 0.433846 0.600715 0
M  V30 2430 H 247.435 1.61088 1.03552 0
M  V30 2431 H 245.74 1.45501 3.63781 0
M  V30 2432 H 247.437 1.8392 3.56334 0
M  V30 2433 H 244.027 3.12631 2.93189 0
M  V30 2434 H 248.211 4.09806 2.79952 0
M  V30 2435 H 243.467 5.50449 2.66112 0
M  V30 2436 H 247.641 6.48434 2.53981 0
M  V30 2437 H 245.268 7.19104 2.46565 0
M  V30 2438 N 246.843 -1.10192 1.12674 0
M  V30 2439 C 248.254 -1.63707 0.897604 0
M  V30 2440 C 248.605 -1.87812 -0.567546 0
M  V30 2441 O 247.73 -1.62196 -1.43253 0
M  V30 2442 C 248.325 -2.974 1.62292 0
M  V30 2443 C 246.884 -3.47772 1.43986 0
M  V30 2444 C 246.031 -2.22332 1.65722 0
M  V30 2445 H 248.982 -0.936587 1.28116 0
M  V30 2446 H 249.003 -3.64986 1.07541 0
M  V30 2447 H 248.515 -2.79824 2.68924 0
M  V30 2448 H 246.616 -3.70487 0.396206 0
M  V30 2449 H 246.729 -4.25723 2.19765 0
M  V30 2450 H 245.093 -2.30599 1.08149 0
M  V30 2451 H 245.876 -2.07285 2.73657 0
M  V30 2452 N 248.321 -0.919034 -1.28029 0
M  V30 2453 C 249.268 -0.410005 -2.27129 0
M  V30 2454 C 250.238 0.518405 -1.57803 0
M  V30 2455 O 251.423 0.439451 -1.8567 0
M  V30 2456 C 248.563 0.339054 -3.4343 0
M  V30 2457 C 247.676 -0.622468 -4.27492 0
M  V30 2458 C 246.811 0.145567 -5.31001 0
M  V30 2459 C 245.85 -0.809226 -6.06727 0
M  V30 2460 N 244.987 -0.0743728 -7.02061 0
M  V30 2461 H 249.827 -1.26011 -2.70047 0
M  V30 2462 H 247.364 -0.632663 -1.328 0
M  V30 2463 H 249.322 0.789586 -4.0966 0
M  V30 2464 H 247.952 1.15346 -3.01488 0
M  V30 2465 H 247.004 -1.19153 -3.61257 0
M  V30 2466 H 248.316 -1.35252 -4.80113 0
M  V30 2467 H 247.47 0.656417 -6.03139 0
M  V30 2468 H 246.209 0.908643 -4.79161 0
M  V30 2469 H 245.214 -1.3314 -5.33436 0
M  V30 2470 H 246.439 -1.57194 -6.60656 0
M  V30 2471 H 244.385 0.670616 -6.52563 0
M  V30 2472 H 244.302 -0.744157 -7.52329 0
M  V30 2473 H 245.57 0.416109 -7.78389 0
M  V30 2474 N 249.799 1.42003 -0.683588 0
M  V30 2475 C 250.729 2.33487 -0.024866 0
M  V30 2476 C 251.71 1.51163 0.779975 0
M  V30 2477 O 252.895 1.79739 0.735362 0
M  V30 2478 C 250.025 3.3487 0.920836 0
M  V30 2479 C 248.979 4.27414 0.223958 0
M  V30 2480 C 248.305 5.19074 1.2832 0
M  V30 2481 C 249.605 5.14445 -0.90242 0
M  V30 2482 H 251.299 2.88819 -0.788921 0
M  V30 2483 H 248.845 1.38873 -0.38083 0
M  V30 2484 H 250.798 3.97787 1.39081 0
M  V30 2485 H 249.522 2.77861 1.71642 0
M  V30 2486 H 248.181 3.65904 -0.225864 0
M  V30 2487 H 247.829 4.58387 2.071 0
M  V30 2488 H 247.529 5.81822 0.821995 0
M  V30 2489 H 249.053 5.84867 1.75392 0
M  V30 2490 H 250.467 5.70998 -0.513272 0
M  V30 2491 H 248.864 5.86072 -1.28997 0
M  V30 2492 H 249.934 4.52322 -1.74737 0
M  V30 2493 N 251.277 0.427512 1.51691 0
M  V30 2494 C 252.525 -0.141948 2.01601 0
M  V30 2495 C 252.846 -1.44067 1.31414 0
M  V30 2496 O 252.116 -1.90763 0.445658 0
M  V30 2497 H 250.696 -0.0554468 0.744939 0
M  V30 2498 H 253.358 0.567968 1.86441 0
M  V30 2499 H 252.454 -0.324913 3.10404 0
M  V30 2500 N 252.755 -1.56801 0.158532 0
M  V30 2501 C 254.001 -1.97559 -0.483957 0
M  V30 2502 C 254.356 -1.04239 -1.61716 0
M  V30 2503 O 253.649 -0.079603 -1.91435 0
M  V30 2504 C 253.843 -3.4235 -1.02623 0
M  V30 2505 C 253.672 -4.49669 0.0528929 0
M  V30 2506 C 252.442 -5.02838 0.498234 0
M  V30 2507 C 254.64 -5.0725 0.848616 0
M  V30 2508 N 252.622 -5.93775 1.559 0
M  V30 2509 C 253.993 -5.94506 1.7596 0
M  V30 2510 C 256.048 -4.89788 0.895121 0
M  V30 2511 C 254.751 -6.66169 2.71314 0
M  V30 2512 C 256.777 -5.62161 1.83654 0
M  V30 2513 C 256.139 -6.49134 2.73503 0
M  V30 2514 H 252.238 -0.768332 -0.145566 0
M  V30 2515 H 254.822 -1.93012 0.255799 0
M  V30 2516 H 252.993 -3.47467 -1.73555 0
M  V30 2517 H 254.725 -3.70145 -1.63629 0
M  V30 2518 H 251.48 -4.73498 0.0983222 0
M  V30 2519 H 251.904 -6.43948 2.08949 0
M  V30 2520 H 256.546 -4.22255 0.21453 0
M  V30 2521 H 254.264 -7.32923 3.40367 0
M  V30 2522 H 257.85 -5.5064 1.87847 0
M  V30 2523 H 256.73 -7.04153 3.45163 0
M  V30 2524 N 254.233 0.115231 -1.57178 0
M  V30 2525 C 255.51 0.852873 -1.76027 0
M  V30 2526 C 255.89 1.97892 -0.73498 0
M  V30 2527 O 255.238 2.27232 0.24036 0
M  V30 2528 C 255.448 1.36608 -3.21153 0
M  V30 2529 C 256.796 1.81692 -3.83762 0
M  V30 2530 O 257.82 1.46278 -3.24779 0
M  V30 2531 O 256.679 2.47104 -4.87444 0
M  V30 2532 H 253.773 0.405296 -0.720877 0
M  V30 2533 H 256.319 0.0986785 -1.69413 0
M  V30 2534 H 255.091 0.558357 -3.87296 0
M  V30 2535 H 254.714 2.18287 -3.3232 0
M  V30 2536 N 255.711 1.52812 0.385517 0
M  V30 2537 C 256.988 1.5861 1.14465 0
M  V30 2538 C 257.368 0.381402 2.07626 0
M  V30 2539 O 256.716 -0.629999 2.19643 0
M  V30 2540 C 256.926 2.92664 1.90128 0
M  V30 2541 C 258.274 3.46526 2.45367 0
M  V30 2542 O 259.298 2.94562 2.0028 0
M  V30 2543 O 258.157 4.37323 3.27736 0
M  V30 2544 H 255.251 0.639855 0.523941 0
M  V30 2545 H 257.797 1.65149 0.390389 0
M  V30 2546 H 256.569 3.71788 1.22022 0
M  V30 2547 H 256.192 2.89527 2.72507 0
M  V30 2548 N 257.189 -0.644168 1.43834 0
M  V30 2549 C 258.099 -1.78563 1.52159 0
M  V30 2550 C 259.115 -1.69147 0.408069 0
M  V30 2551 O 260.291 -1.90156 0.663524 0
M  V30 2552 C 257.356 -3.14888 1.45073 0
M  V30 2553 C 256.417 -3.36034 2.6717 0
M  V30 2554 C 255.65 -4.65855 2.60413 0
M  V30 2555 O 255.873 -5.45805 1.65689 0
M  V30 2556 O 254.807 -4.88918 3.5106 0
M  V30 2557 H 258.633 -1.74494 2.48567 0
M  V30 2558 H 256.218 -0.80378 1.25935 0
M  V30 2559 H 258.1 -3.96179 1.43597 0
M  V30 2560 H 256.775 -3.19528 0.518037 0
M  V30 2561 H 255.682 -2.54472 2.74217 0
M  V30 2562 H 257.015 -3.36247 3.59442 0
M  V30 2563 N 258.668 -1.30515 -0.883378 0
M  V30 2564 C 259.598 -1.19607 -2.00541 0
M  V30 2565 C 260.579 -0.086346 -1.69881 0
M  V30 2566 O 261.764 -0.268654 -1.92333 0
M  V30 2567 C 258.894 -0.888758 -3.35736 0
M  V30 2568 C 257.848 -1.95659 -3.8066 0
M  V30 2569 C 257.174 -1.50224 -5.13164 0
M  V30 2570 C 258.474 -3.36788 -3.99213 0
M  V30 2571 H 260.168 -2.13476 -2.09925 0
M  V30 2572 H 257.714 -1.02775 -1.00863 0
M  V30 2573 H 259.667 -0.799094 -4.13754 0
M  V30 2574 H 258.391 0.0856125 -3.26488 0
M  V30 2575 H 257.05 -2.03591 -3.04871 0
M  V30 2576 H 256.698 -0.516092 -5.00345 0
M  V30 2577 H 256.398 -2.2165 -5.44192 0
M  V30 2578 H 257.922 -1.42639 -5.93706 0
M  V30 2579 H 259.336 -3.31605 -4.67665 0
M  V30 2580 H 257.733 -4.06314 -4.41621 0
M  V30 2581 H 258.803 -3.78561 -3.03017 0
M  V30 2582 N 260.146 1.09593 -1.13257 0
M  V30 2583 C 261.562 1.33775 -0.870423 0
M  V30 2584 C 261.762 1.95327 0.494926 0
M  V30 2585 O 260.818 2.19853 1.2418 0
M  V30 2586 C 262.131 2.25106 -1.99369 0
M  V30 2587 C 263.679 2.3862 -2.02558 0
M  V30 2588 C 264.154 3.33285 -3.14142 0
M  V30 2589 N 265.645 3.40857 -3.13641 0
M  V30 2590 C 266.38 4.14101 -3.96621 0
M  V30 2591 N 265.876 4.90157 -4.8961 0
M  V30 2592 N 267.669 4.09808 -3.84726 0
M  V30 2593 H 259.82 0.680136 -2.01216 0
M  V30 2594 H 262.083 0.362133 -0.876107 0
M  V30 2595 H 261.789 1.87103 -2.97801 0
M  V30 2596 H 261.663 3.25481 -1.90635 0
M  V30 2597 H 264.05 2.75887 -1.0474 0
M  V30 2598 H 264.131 1.38028 -2.15364 0
M  V30 2599 H 263.775 2.96741 -4.12198 0
M  V30 2600 H 263.705 4.33776 -2.98574 0
M  V30 2601 H 266.196 2.86624 -2.46282 0
M  V30 2602 H 266.509 5.4347 -5.49418 0
M  V30 2603 H 264.854 4.89251 -4.93617 0
M  V30 2604 H 268.045 3.4949 -3.11408 0
M  V30 2605 H 268.218 4.66629 -4.49623 0
M  V30 2606 N 261.624 0.925811 1.2754 0
M  V30 2607 C 262.571 0.422045 2.26908 0
M  V30 2608 C 263.541 -0.510029 1.58076 0
M  V30 2609 O 264.726 -0.429599 1.85901 0
M  V30 2610 C 261.866 -0.320837 3.43605 0
M  V30 2611 C 260.979 0.64513 4.27156 0
M  V30 2612 C 260.114 -0.117405 5.3107 0
M  V30 2613 C 259.153 0.841391 6.0629 0
M  V30 2614 N 258.29 0.111604 7.02011 0
M  V30 2615 H 263.13 1.27441 2.69375 0
M  V30 2616 H 260.667 0.639697 1.32462 0
M  V30 2617 H 262.625 -0.76785 4.10073 0
M  V30 2618 H 261.255 -1.13745 3.02096 0
M  V30 2619 H 260.307 1.21067 3.6062 0
M  V30 2620 H 261.619 1.37797 4.79389 0
M  V30 2621 H 260.773 -0.624422 6.03478 0
M  V30 2622 H 259.512 -0.883219 4.79636 0
M  V30 2623 H 258.517 1.35967 5.32722 0
M  V30 2624 H 259.742 1.60696 6.59813 0
M  V30 2625 H 257.688 -0.635999 6.5291 0
M  V30 2626 H 257.605 0.784044 7.51923 0
M  V30 2627 H 258.873 -0.374823 7.78598 0
M  V30 2628 N 263.102 -1.41638 0.69111 0
M  V30 2629 C 264.513 -1.84346 0.295517 0
M  V30 2630 C 264.864 -1.57833 -1.16547 0
M  V30 2631 O 263.989 -1.04648 -1.89414 0
M  V30 2632 C 264.584 -3.34636 0.529575 0
M  V30 2633 C 263.143 -3.7593 0.187944 0
M  V30 2634 C 262.29 -2.65082 0.814052 0
M  V30 2635 H 265.241 -1.31253 0.892092 0
M  V30 2636 H 265.262 -3.79903 -0.213148 0
M  V30 2637 H 264.774 -3.53901 1.59297 0
M  V30 2638 H 262.875 -3.62268 -0.871367 0
M  V30 2639 H 262.988 -4.74808 0.63985 0
M  V30 2640 H 261.352 -2.53528 0.244017 0
M  V30 2641 H 262.135 -2.87167 1.88123 0
M  V30 2642 N 264.58 -0.43555 -1.51462 0
M  V30 2643 C 265.828 0.131254 -2.01673 0
M  V30 2644 C 266.149 1.43368 -1.32177 0
M  V30 2645 O 265.419 1.90524 -0.455769 0
M  V30 2646 H 263.999 0.0514954 -0.745223 0
M  V30 2647 H 266.661 -0.577847 -1.86137 0
M  V30 2648 H 265.757 0.308446 -3.10572 0
M  V30 2649 N 266.058 1.56714 -0.166846 0
M  V30 2650 C 267.021 2.16539 0.751232 0
M  V30 2651 C 268.021 1.11228 1.16125 0
M  V30 2652 O 269.211 1.36765 1.07894 0
M  V30 2653 C 266.343 2.74462 2.02196 0
M  V30 2654 H 267.536 2.99013 0.230499 0
M  V30 2655 H 265.089 1.56081 0.0826982 0
M  V30 2656 H 265.824 1.95709 2.58589 0
M  V30 2657 H 265.609 3.51527 1.73698 0
M  V30 2658 H 267.099 3.20489 2.67725 0
M  V30 2659 N 267.536 -0.106894 1.57237 0
M  V30 2660 C 268.468 -1.15646 1.97885 0
M  V30 2661 C 269.481 -1.36981 0.879779 0
M  V30 2662 O 270.67 -1.35841 1.15799 0
M  V30 2663 C 267.77 -2.51425 2.27241 0
M  V30 2664 C 266.943 -2.50529 3.58545 0
M  V30 2665 C 266.002 -3.68145 3.75973 0
M  V30 2666 O 265.028 -3.51176 4.47956 0
M  V30 2667 N 266.23 -4.87177 3.15656 0
M  V30 2668 H 268.995 -0.81059 2.8853 0
M  V30 2669 H 266.556 -0.296024 1.59171 0
M  V30 2670 H 268.548 -3.28689 2.36105 0
M  V30 2671 H 267.118 -2.78147 1.42663 0
M  V30 2672 H 266.338 -1.58894 3.60758 0
M  V30 2673 H 267.626 -2.46997 4.44826 0
M  V30 2674 H 267.024 -5.03868 2.57165 0
M  V30 2675 H 265.581 -5.62075 3.30023 0
M  V30 2676 N 269.014 -1.53014 -0.377408 0
M  V30 2677 C 270.263 -1.67845 -1.11853 0
M  V30 2678 C 270.576 -0.430625 -1.90801 0
M  V30 2679 O 271.782 -0.459261 -2.67587 0
M  V30 2680 C 270.238 -2.96668 -2.03756 0
M  V30 2681 C 269.846 -4.28671 -1.30175 0
M  V30 2682 C 271.59 -3.20865 -2.77932 0
M  V30 2683 C 269.497 -5.48591 -2.20911 0
M  V30 2684 H 268.427 -0.625343 -0.421263 0
M  V30 2685 H 271.078 -1.79514 -0.380409 0
M  V30 2686 H 269.46 -2.78773 -2.8125 0
M  V30 2687 H 270.634 -4.57157 -0.578259 0
M  V30 2688 H 268.949 -4.10825 -0.679108 0
M  V30 2689 H 271.546 -4.07642 -3.46024 0
M  V30 2690 H 271.889 -2.36424 -3.4265 0
M  V30 2691 H 272.422 -3.39379 -2.07525 0
M  V30 2692 H 269.161 -6.35474 -1.6079 0
M  V30 2693 H 268.681 -5.244 -2.91144 0
M  V30 2694 H 270.36 -5.8292 -2.80736 0
M  V30 2695 N 270.492 0.636531 -1.44174 0
M  V30 2696 C 271.722 1.42146 -1.49927 0
M  V30 2697 C 272.13 1.88812 -0.121063 0
M  V30 2698 O 271.473 1.61126 0.882267 0
M  V30 2699 C 271.535 2.67883 -2.39748 0
M  V30 2700 C 271.199 2.43048 -3.8701 0
M  V30 2701 C 272.196 2.05216 -4.77684 0
M  V30 2702 C 269.881 2.56856 -4.3166 0
M  V30 2703 C 271.875 1.81512 -6.11009 0
M  V30 2704 C 269.562 2.32766 -5.65034 0
M  V30 2705 C 270.56 1.95152 -6.54526 0
M  V30 2706 O 270.248 1.71326 -7.85431 0
M  V30 2707 H 269.98 0.442567 -0.51099 0
M  V30 2708 H 272.534 0.786158 -1.8976 0
M  V30 2709 H 270.764 3.34032 -1.94832 0
M  V30 2710 H 272.453 3.29874 -2.36513 0
M  V30 2711 H 273.219 1.94111 -4.44462 0
M  V30 2712 H 269.098 2.85104 -3.62266 0
M  V30 2713 H 272.642 1.52077 -6.80822 0
M  V30 2714 H 268.539 2.43479 -5.97819 0
M  V30 2715 H 269.307 1.85616 -7.97176 0
M  V30 2716 N 271.97 1.30982 0.876444 0
M  V30 2717 C 272.903 1.12414 1.98591 0
M  V30 2718 C 273.881 0.0294078 1.62573 0
M  V30 2719 O 275.065 0.184598 1.87594 0
M  V30 2720 C 272.192 0.716276 3.3104 0
M  V30 2721 C 271.238 1.81311 3.86042 0
M  V30 2722 S 272.071 3.41727 4.1229 0
M  V30 2723 C 273.227 3.02863 5.47745 0
M  V30 2724 H 273.46 2.06338 2.14037 0
M  V30 2725 H 270.993 1.15393 1.02586 0
M  V30 2726 H 272.951 0.487697 4.07593 0
M  V30 2727 H 271.612 -0.203749 3.13438 0
M  V30 2728 H 270.805 1.48021 4.81774 0
M  V30 2729 H 270.407 1.99641 3.16259 0
M  V30 2730 H 272.699 2.51353 6.29148 0
M  V30 2731 H 273.642 3.97533 5.8598 0
M  V30 2732 H 274.05 2.40487 5.10711 0
M  V30 2733 N 273.449 -1.08991 1.13837 0
M  V30 2734 C 274.865 -1.33312 0.877506 0
M  V30 2735 C 275.065 -1.95587 -0.48456 0
M  V30 2736 O 274.121 -2.20509 -1.23013 0
M  V30 2737 C 275.434 -2.24045 2.0056 0
M  V30 2738 C 276.982 -2.37542 2.03821 0
M  V30 2739 C 277.457 -3.31614 3.15905 0
M  V30 2740 N 278.948 -3.39189 3.15445 0
M  V30 2741 C 279.683 -4.11992 3.98811 0
M  V30 2742 N 279.179 -4.87553 4.92203 0
M  V30 2743 N 280.972 -4.07762 3.86894 0
M  V30 2744 H 273.123 -0.669456 2.01574 0
M  V30 2745 H 275.386 -0.357482 0.878015 0
M  V30 2746 H 275.092 -1.85521 2.98789 0
M  V30 2747 H 274.966 -3.24466 1.92359 0
M  V30 2748 H 277.353 -2.75327 1.06202 0
M  V30 2749 H 277.434 -1.36884 2.16093 0
M  V30 2750 H 277.078 -2.94551 4.13766 0
M  V30 2751 H 277.008 -4.32186 3.0087 0
M  V30 2752 H 279.499 -2.85314 2.47799 0
M  V30 2753 H 279.812 -5.40549 5.52292 0
M  V30 2754 H 278.157 -4.86627 4.96205 0
M  V30 2755 H 281.348 -3.47833 3.13257 0
M  V30 2756 H 281.521 -4.64238 4.52092 0
M  V30 2757 N 274.927 -0.932562 -1.27047 0
M  V30 2758 C 276.174 -0.575559 -1.94148 0
M  V30 2759 C 276.502 0.883984 -1.73251 0
M  V30 2760 O 275.757 1.64655 -1.0577 0
M  V30 2761 C 276.056 -0.853713 -3.47054 0
M  V30 2762 C 275.722 -2.29577 -3.88079 0
M  V30 2763 C 274.384 -2.68999 -3.9899 0
M  V30 2764 C 276.736 -3.23331 -4.08787 0
M  V30 2765 C 274.064 -4.01289 -4.28 0
M  V30 2766 C 276.416 -4.55207 -4.39282 0
M  V30 2767 C 275.08 -4.94457 -4.48407 0
M  V30 2768 H 274.35 -0.210612 -0.710439 0
M  V30 2769 H 276.997 -1.17744 -1.51025 0
M  V30 2770 H 275.302 -0.169204 -3.91434 0
M  V30 2771 H 276.999 -0.55639 -3.97121 0
M  V30 2772 H 273.589 -1.97994 -3.80127 0
M  V30 2773 H 277.773 -2.94074 -3.99793 0
M  V30 2774 H 273.029 -4.31374 -4.33275 0
M  V30 2775 H 277.203 -5.27852 -4.54252 0
M  V30 2776 H 274.83 -5.96994 -4.7064 0
M  V30 2777 N 276.405 1.4127 -0.698611 0
M  V30 2778 C 277.338 2.28195 0.0153898 0
M  V30 2779 C 278.316 1.42402 0.784883 0
M  V30 2780 O 279.5 1.71828 0.775067 0
M  V30 2781 C 276.627 3.22685 1.02918 0
M  V30 2782 C 275.673 4.25041 0.352501 0
M  V30 2783 S 276.506 5.27757 -0.907322 0
M  V30 2784 C 277.662 6.25812 0.104796 0
M  V30 2785 H 277.895 2.88403 -0.721858 0
M  V30 2786 H 275.428 1.46452 -0.488996 0
M  V30 2787 H 277.386 3.77655 1.60893 0
M  V30 2788 H 276.047 2.61566 1.73902 0
M  V30 2789 H 275.24 4.91437 1.11828 0
M  V30 2790 H 274.842 3.73682 -0.154254 0
M  V30 2791 H 277.134 6.70705 0.957103 0
M  V30 2792 H 278.077 7.06149 -0.525323 0
M  V30 2793 H 278.485 5.62615 0.460931 0
M  V30 2794 N 277.883 0.443576 1.51229 0
M  V30 2795 C 278.815 -0.400608 2.25672 0
M  V30 2796 C 279.828 -0.980945 1.29928 0
M  V30 2797 O 281.017 -0.874024 1.55638 0
M  V30 2798 C 278.117 -1.57304 3.00181 0
M  V30 2799 C 277.29 -1.11046 4.23069 0
M  V30 2800 C 276.349 -2.15374 4.80105 0
M  V30 2801 O 275.375 -1.74554 5.41774 0
M  V30 2802 N 276.577 -3.47922 4.64683 0
M  V30 2803 H 279.342 0.23745 2.98758 0
M  V30 2804 H 276.903 0.272809 1.59585 0
M  V30 2805 H 278.895 -2.26733 3.35223 0
M  V30 2806 H 277.465 -2.11632 2.30066 0
M  V30 2807 H 276.685 -0.243019 3.9345 0
M  V30 2808 H 277.973 -0.778888 5.02803 0
M  V30 2809 H 277.371 -3.83815 4.15575 0
M  V30 2810 H 275.928 -4.13228 5.0407 0
M  V30 2811 N 279.361 -1.56624 0.175154 0
M  V30 2812 C 280.271 -2.21741 -0.766042 0
M  V30 2813 C 281.287 -1.21023 -1.25018 0
M  V30 2814 O 282.463 -1.53697 -1.3015 0
M  V30 2815 C 279.528 -2.84839 -1.97655 0
M  V30 2816 C 278.589 -4.00769 -1.53892 0
M  V30 2817 C 277.822 -4.60849 -2.69173 0
M  V30 2818 O 278.045 -4.19823 -3.86141 0
M  V30 2819 O 276.979 -5.50655 -2.43028 0
M  V30 2820 H 280.805 -3.02738 -0.241585 0
M  V30 2821 H 278.39 -1.49305 -0.053222 0
M  V30 2822 H 280.272 -3.24834 -2.68442 0
M  V30 2823 H 278.947 -2.06836 -2.48999 0
M  V30 2824 H 277.854 -3.65436 -0.80044 0
M  V30 2825 H 279.187 -4.80376 -1.07236 0
M  V30 2826 N 280.839 0.0985539 -1.57292 0
M  V30 2827 C 281.789 1.1261 -1.9825 0
M  V30 2828 C 282.773 1.35961 -0.860426 0
M  V30 2829 O 283.965 1.36711 -1.12424 0
M  V30 2830 C 281.094 2.44727 -2.40757 0
M  V30 2831 C 280.18 2.24764 -3.59642 0
M  V30 2832 N 280.571 1.74661 -4.74687 0
M  V30 2833 C 278.869 2.55344 -3.65672 0
M  V30 2834 C 279.57 1.68887 -5.56644 0
M  V30 2835 N 278.546 2.13976 -4.99715 0
M  V30 2836 H 282.348 0.731604 -2.84648 0
M  V30 2837 H 279.862 0.306029 -1.59491 0
M  V30 2838 H 281.859 3.19072 -2.68326 0
M  V30 2839 H 280.519 2.84917 -1.55733 0
M  V30 2840 H 281.53 1.43908 -4.97505 0
M  V30 2841 H 278.207 2.99081 -2.91302 0
M  V30 2842 H 279.597 1.3123 -6.5896 0
M  V30 2843 N 282.317 1.53212 0.369288 0
M  V30 2844 C 283.545 1.73119 1.13303 0
M  V30 2845 C 283.96 0.458455 1.83149 0
M  V30 2846 O 283.317 -0.568403 1.73423 0
M  V30 2847 C 283.368 2.89413 2.16616 0
M  V30 2848 O 283.089 4.11761 1.49614 0
M  V30 2849 C 284.59 3.21161 3.05566 0
M  V30 2850 H 281.81 0.579107 0.338934 0
M  V30 2851 H 284.354 1.99942 0.429338 0
M  V30 2852 H 282.509 2.64994 2.82589 0
M  V30 2853 H 282.923 4.76858 2.18419 0
M  V30 2854 H 284.397 4.05949 3.74045 0
M  V30 2855 H 284.874 2.36369 3.70171 0
M  V30 2856 H 285.48 3.47492 2.45213 0
M  V30 2857 N 283.795 -0.628877 1.44509 0
M  V30 2858 C 285.035 -1.39993 1.48934 0
M  V30 2859 C 285.399 -1.91627 0.119604 0
M  V30 2860 O 286.6 -2.68772 0.0385283 0
M  V30 2861 C 284.871 -2.53241 2.52198 0
M  V30 2862 S 286.43 -3.41383 2.75687 0
M  V30 2863 H 283.248 -0.477558 0.526744 0
M  V30 2864 H 285.85 -0.727804 1.81448 0
M  V30 2865 H 284.554 -2.13622 3.50419 0
M  V30 2866 H 284.085 -3.25278 2.21264 0
M  V30 2867 H 286.1 -4.50752 2.07453 0
M  V30 2868 N 285.273 -1.31445 -0.869486 0
M  V30 2869 C 286.503 -1.23942 -1.65294 0
M  V30 2870 C 286.911 0.197561 -1.88166 0
M  V30 2871 O 286.254 1.14019 -1.44033 0
M  V30 2872 C 286.316 -1.91385 -3.04322 0
M  V30 2873 C 285.98 -3.40726 -3.04557 0
M  V30 2874 C 286.977 -4.36464 -2.82481 0
M  V30 2875 C 284.662 -3.82425 -3.25663 0
M  V30 2876 C 286.656 -5.71876 -2.8149 0
M  V30 2877 C 284.343 -5.1795 -3.243 0
M  V30 2878 C 285.341 -6.12486 -3.02241 0
M  V30 2879 O 285.029 -7.45534 -3.00724 0
M  V30 2880 H 284.761 -0.429459 -0.522054 0
M  V30 2881 H 287.315 -1.73873 -1.0935 0
M  V30 2882 H 285.545 -1.36004 -3.61994 0
M  V30 2883 H 287.234 -1.77791 -3.64891 0
M  V30 2884 H 288 -4.05576 -2.65956 0
M  V30 2885 H 283.879 -3.09274 -3.41863 0
M  V30 2886 H 287.423 -6.45638 -2.64191 0
M  V30 2887 H 283.32 -5.48473 -3.40365 0
M  V30 2888 H 284.088 -7.54713 -3.16782 0
M  V30 2889 N 286.751 1.08385 -1.14413 0
M  V30 2890 C 288.028 1.77429 -0.823297 0
M  V30 2891 C 288.408 1.9974 0.683163 0
M  V30 2892 O 287.756 1.60739 1.62405 0
M  V30 2893 C 287.966 3.09004 -1.62227 0
M  V30 2894 C 289.314 3.83532 -1.82177 0
M  V30 2895 O 290.338 3.18786 -1.58915 0
M  V30 2896 O 289.197 4.99792 -2.21067 0
M  V30 2897 H 286.291 0.769999 -0.301712 0
M  V30 2898 H 288.837 1.14846 -1.24934 0
M  V30 2899 H 287.609 2.88316 -2.64555 0
M  V30 2900 H 287.232 3.79316 -1.19187 0
M  V30 2901 N 288.23 0.939286 1.26551 0
M  V30 2902 C 289.193 0.451987 2.24699 0
M  V30 2903 C 290.193 -0.435869 1.5478 0
M  V30 2904 O 291.383 -0.235314 1.72603 0
M  V30 2905 C 288.515 -0.348801 3.39111 0
M  V30 2906 H 289.708 1.3193 2.69322 0
M  V30 2907 H 287.261 0.721072 1.38673 0
M  V30 2908 H 287.996 -1.23444 2.99887 0
M  V30 2909 H 287.781 0.287945 3.91041 0
M  V30 2910 H 289.271 -0.679726 4.12031 0
M  V30 2911 N 289.708 -1.40897 0.706093 0
M  V30 2912 C 290.641 -2.282 -0.00328781 0
M  V30 2913 C 291.619 -1.42816 -0.77732 0
M  V30 2914 O 292.803 -1.72237 -0.765944 0
M  V30 2915 C 289.93 -3.23226 -1.01205 0
M  V30 2916 C 288.976 -4.25222 -0.329955 0
M  V30 2917 S 289.809 -5.27269 0.935298 0
M  V30 2918 C 290.965 -6.25859 -0.0716061 0
M  V30 2919 H 291.198 -2.88016 0.737143 0
M  V30 2920 H 288.731 -1.46191 0.496756 0
M  V30 2921 H 290.689 -3.78503 -1.58888 0
M  V30 2922 H 289.35 -2.62485 -1.72513 0
M  V30 2923 H 288.543 -4.92023 -1.09221 0
M  V30 2924 H 288.145 -3.73595 0.174069 0
M  V30 2925 H 290.437 -6.71204 -0.921521 0
M  V30 2926 H 291.38 -7.0586 0.562765 0
M  V30 2927 H 291.788 -5.62852 -0.431088 0
M  V30 2928 N 291.186 -0.45159 -1.50991 0
M  V30 2929 C 292.149 0.341117 -2.26647 0
M  V30 2930 C 293.149 0.937422 -1.30649 0
M  V30 2931 O 294.339 0.809644 -1.54241 0
M  V30 2932 C 291.471 1.48398 -3.06905 0
M  V30 2933 H 292.664 -0.322117 -2.98165 0
M  V30 2934 H 290.217 -0.205122 -1.54948 0
M  V30 2935 H 290.952 2.18284 -2.39838 0
M  V30 2936 H 290.737 1.06241 -3.77432 0
M  V30 2937 H 292.227 2.04367 -3.64176 0
M  V30 2938 N 292.664 1.56529 -0.183458 0
M  V30 2939 C 293.892 2.01623 0.464285 0
M  V30 2940 C 294.307 1.06366 1.55986 0
M  V30 2941 O 293.664 0.0665398 1.82379 0
M  V30 2942 C 293.715 3.46475 1.03139 0
M  V30 2943 O 293.436 4.38095 -0.0204675 0
M  V30 2944 C 294.937 4.0703 1.75617 0
M  V30 2945 H 292.157 0.660596 0.117704 0
M  V30 2946 H 294.701 2.02451 -0.288751 0
M  V30 2947 H 292.856 3.46383 1.73486 0
M  V30 2948 H 293.27 5.22973 0.399952 0
M  V30 2949 H 294.744 5.10271 2.10542 0
M  V30 2950 H 295.221 3.49819 2.65563 0
M  V30 2951 H 295.827 4.1086 1.09882 0
M  V30 2952 N 294.142 -0.090211 1.57342 0
M  V30 2953 C 295.367 -0.810082 1.90925 0
M  V30 2954 C 295.792 -1.71248 0.778187 0
M  V30 2955 O 295.15 -1.79278 -0.269991 0
M  V30 2956 C 295.198 -1.59529 3.23393 0
M  V30 2957 O 294.302 -2.70461 3.11327 0
M  V30 2958 H 293.643 -0.222231 0.625707 0
M  V30 2959 H 296.173 -0.0639716 2.045 0
M  V30 2960 H 296.183 -1.97847 3.5682 0
M  V30 2961 H 294.858 -0.933055 4.05299 0
M  V30 2962 H 293.435 -2.35135 2.89423 0
M  V30 2963 N 295.62 -1.53406 -0.361157 0
M  V30 2964 C 296.845 -1.74024 -1.12829 0
M  V30 2965 C 297.27 -0.470069 -1.82132 0
M  V30 2966 O 296.628 0.57619 -1.719 0
M  V30 2967 C 296.676 -2.90903 -2.13091 0
M  V30 2968 O 295.78 -2.59821 -3.20261 0
M  V30 2969 H 295.121 -0.577804 -0.327168 0
M  V30 2970 H 297.651 -2.00307 -0.41693 0
M  V30 2971 H 297.661 -3.17194 -2.56616 0
M  V30 2972 H 296.336 -3.83034 -1.62042 0
M  V30 2973 H 294.913 -2.44362 -2.81677 0
M  V30 2974 N 297.098 0.621204 -1.44841 0
M  V30 2975 C 298.045 1.73267 -1.5247 0
M  V30 2976 C 299.015 1.6189 -0.371611 0
M  V30 2977 O 300.2 1.81668 -0.58321 0
M  V30 2978 C 297.34 3.11545 -1.48438 0
M  V30 2979 C 296.453 3.33827 -2.74196 0
M  V30 2980 C 295.588 4.62133 -2.61929 0
M  V30 2981 C 294.627 4.77627 -3.82804 0
M  V30 2982 N 293.764 5.97219 -3.69153 0
M  V30 2983 H 298.604 1.66082 -2.47428 0
M  V30 2984 H 296.141 0.810026 -1.22788 0
M  V30 2985 H 298.099 3.91528 -1.4409 0
M  V30 2986 H 296.729 3.1772 -0.570402 0
M  V30 2987 H 295.781 2.47715 -2.88689 0
M  V30 2988 H 297.093 3.41153 -3.6389 0
M  V30 2989 H 296.247 5.50291 -2.5547 0
M  V30 2990 H 294.986 4.57182 -1.69811 0
M  V30 2991 H 293.991 3.87896 -3.89637 0
M  V30 2992 H 295.216 4.84385 -4.75971 0
M  V30 2993 H 293.162 5.93339 -2.79794 0
M  V30 2994 H 293.079 6.05644 -4.52472 0
M  V30 2995 H 294.347 6.87912 -3.66603 0
M  V30 2996 N 298.576 1.31904 0.862503 0
M  V30 2997 C 299.506 1.22782 1.98612 0
M  V30 2998 C 300.487 0.113362 1.69722 0
M  V30 2999 O 301.672 0.299218 1.91881 0
M  V30 3000 C 298.802 0.942058 3.34279 0
M  V30 3001 C 297.756 2.0169 3.77499 0
M  V30 3002 C 297.082 1.58369 5.10709 0
M  V30 3003 C 298.382 3.43096 3.93805 0
M  V30 3004 H 300.076 2.16788 2.06502 0
M  V30 3005 H 297.622 1.04366 0.992154 0
M  V30 3006 H 299.575 0.864818 4.1243 0
M  V30 3007 H 298.299 -0.0336603 3.26583 0
M  V30 3008 H 296.958 2.08416 3.01593 0
M  V30 3009 H 296.606 0.595628 4.99461 0
M  V30 3010 H 296.306 2.30279 5.40597 0
M  V30 3011 H 297.83 1.52067 5.91361 0
M  V30 3012 H 299.244 3.39003 4.62331 0
M  V30 3013 H 297.641 4.13288 4.35101 0
M  V30 3014 H 298.711 3.83334 2.96957 0
M  V30 3015 N 300.054 -1.07777 1.14986 0
M  V30 3016 C 301.3 -1.80557 0.923422 0
M  V30 3017 C 301.633 -1.86298 -0.548337 0
M  V30 3018 O 300.908 -1.34354 -1.40639 0
M  V30 3019 C 301.191 -3.25839 1.53299 0
M  V30 3020 C 301.044 -3.28269 3.07505 0
M  V30 3021 C 302.363 -4.22991 1.21518 0
M  V30 3022 H 299.482 -0.655493 0.336894 0
M  V30 3023 H 302.124 -1.26144 1.42083 0
M  V30 3024 H 300.274 -3.72306 1.10999 0
M  V30 3025 H 301.946 -2.90079 3.58681 0
M  V30 3026 H 300.189 -2.67355 3.4162 0
M  V30 3027 H 300.86 -4.30691 3.45266 0
M  V30 3028 H 303.336 -3.84894 1.581 0
M  V30 3029 H 302.212 -5.22945 1.66793 0
M  V30 3030 H 302.473 -4.41904 0.131505 0
M  V30 3031 N 301.532 -0.945985 -1.26051 0
M  V30 3032 C 302.781 -0.591836 -1.92822 0
M  V30 3033 C 303.094 0.873956 -1.7499 0
M  V30 3034 O 304.3 1.33769 -2.36259 0
M  V30 3035 C 302.756 -1.00776 -3.45503 0
M  V30 3036 C 302.364 -2.4955 -3.7206 0
M  V30 3037 C 304.108 -0.725735 -4.1825 0
M  V30 3038 C 302.015 -2.84988 -5.18205 0
M  V30 3039 H 300.945 -0.217635 -0.721908 0
M  V30 3040 H 303.596 -1.14927 -1.43052 0
M  V30 3041 H 301.978 -0.378812 -3.94184 0
M  V30 3042 H 303.152 -3.1739 -3.34066 0
M  V30 3043 H 301.467 -2.75133 -3.12555 0
M  V30 3044 H 304.064 -0.966771 -5.25887 0
M  V30 3045 H 304.407 0.337639 -4.14929 0
M  V30 3046 H 304.94 -1.31463 -3.7545 0
M  V30 3047 H 301.679 -3.90307 -5.26631 0
M  V30 3048 H 301.199 -2.21813 -5.57278 0
M  V30 3049 H 302.878 -2.73712 -5.86252 0
M  V30 3050 N 303.011 1.40521 -0.713556 0
M  V30 3051 C 304.258 2.00923 -0.25219 0
M  V30 3052 C 304.586 1.56571 1.15395 0
M  V30 3053 O 303.841 0.775874 1.79663 0
M  V30 3054 C 304.14 3.56317 -0.278 0
M  V30 3055 C 303.806 4.20246 -1.63415 0
M  V30 3056 C 302.468 4.37422 -2.00538 0
M  V30 3057 C 304.82 4.55923 -2.52554 0
M  V30 3058 C 302.148 4.87558 -3.2635 0
M  V30 3059 C 304.5 5.07458 -3.77716 0
M  V30 3060 C 303.164 5.22843 -4.14959 0
M  V30 3061 H 302.434 0.735231 -0.0922829 0
M  V30 3062 H 305.081 1.68161 -0.916188 0
M  V30 3063 H 303.386 3.88976 0.469567 0
M  V30 3064 H 305.083 4.00883 0.0967819 0
M  V30 3065 H 301.673 4.07263 -1.33546 0
M  V30 3066 H 305.857 4.42291 -2.25149 0
M  V30 3067 H 301.113 4.97654 -3.55176 0
M  V30 3068 H 305.287 5.34041 -4.4696 0
M  V30 3069 H 302.914 5.61454 -5.12516 0
M  V30 3070 N 304.489 0.459591 1.5075 0
M  V30 3071 C 305.766 -0.160371 1.94941 0
M  V30 3072 C 306.146 -1.58048 1.39943 0
M  V30 3073 O 305.494 -2.206 0.595629 0
M  V30 3074 C 305.704 -0.115432 3.48809 0
M  V30 3075 C 307.052 -0.310026 4.23467 0
M  V30 3076 O 308.076 -0.192543 3.55679 0
M  V30 3077 O 306.935 -0.546031 5.43765 0
M  V30 3078 H 304.029 -0.117925 0.818549 0
M  V30 3079 H 306.575 0.519169 1.61563 0
M  V30 3080 H 305.347 0.87652 3.81357 0
M  V30 3081 H 304.97 -0.836928 3.88692 0
M  V30 3082 N 305.967 -1.56429 0.191757 0
M  V30 3083 C 307.195 -2.01867 -0.453586 0
M  V30 3084 C 307.61 -1.07191 -1.5542 0
M  V30 3085 O 306.967 -0.0762108 -1.82341 0
M  V30 3086 C 307.018 -3.47017 -1.013 0
M  V30 3087 O 306.739 -4.38078 0.0437005 0
M  V30 3088 C 308.24 -4.07956 -1.73456 0
M  V30 3089 H 305.46 -0.661211 -0.114199 0
M  V30 3090 H 308.004 -2.02295 0.299483 0
M  V30 3091 H 306.159 -3.47298 -1.71647 0
M  V30 3092 H 306.573 -5.23178 -0.372212 0
M  V30 3093 H 308.047 -5.1138 -2.07833 0
M  V30 3094 H 308.524 -3.51222 -2.63704 0
M  V30 3095 H 309.13 -4.11437 -1.07702 0
M  V30 3096 N 307.445 0.0818655 -1.57387 0
M  V30 3097 C 308.378 1.12986 -1.98266 0
M  V30 3098 C 309.356 1.38123 -0.857954 0
M  V30 3099 O 310.54 1.51663 -1.1194 0
M  V30 3100 C 307.667 2.47632 -2.31076 0
M  V30 3101 C 306.713 2.38693 -3.53452 0
M  V30 3102 S 307.546 1.79071 -5.04672 0
M  V30 3103 C 308.702 3.15316 -5.40673 0
M  V30 3104 H 308.935 0.781435 -2.86846 0
M  V30 3105 H 306.468 0.290034 -1.51651 0
M  V30 3106 H 308.426 3.25089 -2.50654 0
M  V30 3107 H 307.087 2.79638 -1.43043 0
M  V30 3108 H 306.28 3.37964 -3.73893 0
M  V30 3109 H 305.882 1.69369 -3.33452 0
M  V30 3110 H 308.174 4.11613 -5.38127 0
M  V30 3111 H 309.117 2.99664 -6.41566 0
M  V30 3112 H 309.525 3.15457 -4.68132 0
M  V30 3113 N 308.923 1.53595 0.353017 0
M  V30 3114 C 309.853 1.83902 1.43883 0
M  V30 3115 C 310.834 0.693421 1.55324 0
M  V30 3116 O 312.019 0.944452 1.69687 0
M  V30 3117 C 309.149 2.04016 2.8106 0
M  V30 3118 C 308.103 3.19814 2.84434 0
M  V30 3119 C 307.429 3.25244 4.24406 0
M  V30 3120 C 308.729 4.58133 2.50822 0
M  V30 3121 H 310.423 2.74835 1.1877 0
M  V30 3122 H 307.969 1.32242 0.569917 0
M  V30 3123 H 309.922 2.238 3.57059 0
M  V30 3124 H 308.646 1.09804 3.07588 0
M  V30 3125 H 307.305 2.9987 2.10887 0
M  V30 3126 H 306.953 2.28646 4.48029 0
M  V30 3127 H 306.653 4.03054 4.27576 0
M  V30 3128 H 308.177 3.47228 5.0226 0
M  V30 3129 H 309.591 4.77995 3.16534 0
M  V30 3130 H 307.988 5.38276 2.6529 0
M  V30 3131 H 309.058 4.62387 1.46034 0
M  V30 3132 N 310.401 -0.613514 1.45168 0
M  V30 3133 C 311.311 -1.75296 1.55912 0
M  V30 3134 C 312.327 -1.68244 0.443856 0
M  V30 3135 O 313.503 -1.88706 0.70371 0
M  V30 3136 C 310.568 -3.1174 1.5172 0
M  V30 3137 C 309.629 -3.30291 2.74238 0
M  V30 3138 C 308.862 -4.60226 2.70236 0
M  V30 3139 O 309.085 -5.42168 1.77229 0
M  V30 3140 O 308.019 -4.81361 3.61352 0
M  V30 3141 H 311.845 -1.69183 2.52212 0
M  V30 3142 H 309.43 -0.776886 1.27612 0
M  V30 3143 H 311.312 -3.93044 1.51968 0
M  V30 3144 H 309.987 -3.18357 0.585697 0
M  V30 3145 H 308.894 -2.48598 2.79553 0
M  V30 3146 H 310.227 -3.28547 3.66494 0
M  V30 3147 N 311.879 -1.3236 -0.855495 0
M  V30 3148 C 313.128 -1.22226 -1.60448 0
M  V30 3149 C 313.441 0.214733 -1.94418 0
M  V30 3150 O 314.647 0.437917 -2.67945 0
M  V30 3151 C 313.103 -2.14063 -2.89318 0
M  V30 3152 C 312.711 -3.62839 -2.62777 0
M  V30 3153 C 314.455 -2.12764 -3.67331 0
M  V30 3154 C 312.362 -4.4664 -3.87643 0
M  V30 3155 H 311.292 -0.453904 -0.602069 0
M  V30 3156 H 313.943 -1.57314 -0.944698 0
M  V30 3157 H 312.325 -1.71889 -3.5675 0
M  V30 3158 H 313.499 -4.1335 -2.03662 0
M  V30 3159 H 311.814 -3.66261 -1.98096 0
M  V30 3160 H 314.411 -2.72611 -4.59987 0
M  V30 3161 H 314.754 -1.11841 -4.00995 0
M  V30 3162 H 315.287 -2.53214 -3.06802 0
M  V30 3163 H 312.026 -5.48373 -3.5912 0
M  V30 3164 H 311.546 -4.0088 -4.46156 0
M  V30 3165 H 313.225 -4.59597 -4.55389 0
M  V30 3166 N 313.357 1.07166 -1.15556 0
M  V30 3167 C 314.304 2.14417 -0.854055 0
M  V30 3168 C 315.274 1.64965 0.193806 0
M  V30 3169 O 316.459 1.90703 0.0609443 0
M  V30 3170 C 313.599 3.43304 -0.351574 0
M  V30 3171 C 312.712 4.06537 -1.46123 0
M  V30 3172 C 311.847 5.23266 -0.914677 0
M  V30 3173 C 310.886 5.78464 -2.00114 0
M  V30 3174 N 310.023 6.86521 -1.47083 0
M  V30 3175 H 314.863 2.39548 -1.77259 0
M  V30 3176 H 312.4 1.17543 -0.884425 0
M  V30 3177 H 314.358 4.17179 -0.0419409 0
M  V30 3178 H 312.988 3.18419 0.530037 0
M  V30 3179 H 312.04 3.30297 -1.88701 0
M  V30 3180 H 313.352 4.43567 -2.28144 0
M  V30 3181 H 312.506 6.04131 -0.557698 0
M  V30 3182 H 311.245 4.87658 -0.0636583 0
M  V30 3183 H 310.25 4.96243 -2.36692 0
M  V30 3184 H 311.475 6.16126 -2.85597 0
M  V30 3185 H 309.421 6.52849 -0.642198 0
M  V30 3186 H 309.338 7.22446 -2.22729 0
M  V30 3187 H 310.606 7.71087 -1.14215 0
M  V30 3188 N 314.835 0.952656 1.25548 0
M  V30 3189 C 315.782 0.47008 2.25962 0
M  V30 3190 C 316.752 -0.476384 1.59122 0
M  V30 3191 O 317.937 -0.39007 1.8677 0
M  V30 3192 C 315.077 -0.247881 3.44209 0
M  V30 3193 C 314.19 0.735591 4.25691 0
M  V30 3194 C 313.325 -0.0047306 5.312 0
M  V30 3195 C 312.364 0.969805 6.04368 0
M  V30 3196 N 311.501 0.260486 7.01617 0
M  V30 3197 H 316.341 1.33126 2.66611 0
M  V30 3198 H 313.878 0.66765 1.31076 0
M  V30 3199 H 315.836 -0.680695 4.1161 0
M  V30 3200 H 314.466 -1.07312 3.0444 0
M  V30 3201 H 313.518 1.28689 3.57971 0
M  V30 3202 H 314.83 1.47934 4.76358 0
M  V30 3203 H 313.984 -0.496275 6.04667 0
M  V30 3204 H 312.723 -0.781282 4.81401 0
M  V30 3205 H 311.728 1.47237 5.29718 0
M  V30 3206 H 312.953 1.74655 6.56256 0
M  V30 3207 H 310.899 -0.497364 6.54112 0
M  V30 3208 H 310.816 0.943362 7.50091 0
M  V30 3209 H 312.084 -0.209587 7.79218 0
M  V30 3210 N 316.313 -1.40141 0.720998 0
M  V30 3211 C 317.276 -2.29058 0.0805834 0
M  V30 3212 C 318.276 -1.45632 -0.681758 0
M  V30 3213 O 319.466 -1.6648 -0.512856 0
M  V30 3214 C 316.598 -3.28925 -0.895593 0
M  V30 3215 H 317.791 -2.87191 0.863793 0
M  V30 3216 H 315.344 -1.48553 0.485975 0
M  V30 3217 H 316.079 -2.75822 -1.70566 0
M  V30 3218 H 315.864 -3.90519 -0.351766 0
M  V30 3219 H 317.354 -3.95494 -1.34069 0
M  V30 3220 N 317.792 -0.46758 -1.50504 0
M  V30 3221 C 319.039 0.0886219 -2.02306 0
M  V30 3222 C 319.367 1.40037 -1.34981 0
M  V30 3223 O 318.622 1.90136 -0.463318 0
M  V30 3224 C 318.921 0.323995 -3.55928 0
M  V30 3225 C 318.587 -0.905618 -4.41712 0
M  V30 3226 C 317.249 -1.24275 -4.64875 0
M  V30 3227 C 319.601 -1.72448 -4.91845 0
M  V30 3228 C 316.929 -2.39888 -5.35417 0
M  V30 3229 C 319.281 -2.87185 -5.63656 0
M  V30 3230 C 317.945 -3.21317 -5.85074 0
M  V30 3231 H 317.215 0.0324291 -0.74029 0
M  V30 3232 H 319.862 -0.620945 -1.81153 0
M  V30 3233 H 318.167 1.11577 -3.75577 0
M  V30 3234 H 319.864 0.76826 -3.93572 0
M  V30 3235 H 316.454 -0.632956 -4.239 0
M  V30 3236 H 320.638 -1.4772 -4.73806 0
M  V30 3237 H 315.894 -2.66611 -5.50208 0
M  V30 3238 H 320.068 -3.50985 -6.01484 0
M  V30 3239 H 317.695 -4.1101 -6.39511 0
M  V30 3240 N 319.27 1.56325 -0.20005 0
M  V30 3241 C 320.517 1.97719 0.437411 0
M  V30 3242 C 320.845 1.08709 1.61284 0
M  V30 3243 O 320.1 0.127261 1.95286 0
M  V30 3244 C 320.399 3.4495 0.935103 0
M  V30 3245 C 320.065 4.5072 -0.12749 0
M  V30 3246 C 318.727 4.79368 -0.419451 0
M  V30 3247 C 321.079 5.14268 -0.847231 0
M  V30 3248 C 318.407 5.68854 -1.43604 0
M  V30 3249 C 320.759 6.04852 -1.85301 0
M  V30 3250 C 319.423 6.31855 -2.15211 0
M  V30 3251 H 318.693 0.723507 0.16006 0
M  V30 3252 H 321.34 1.89166 -0.298056 0
M  V30 3253 H 319.645 3.50599 1.74894 0
M  V30 3254 H 321.342 3.74337 1.43781 0
M  V30 3255 H 317.932 4.28458 0.11023 0
M  V30 3256 H 322.116 4.92222 -0.634901 0
M  V30 3257 H 317.372 5.88047 -1.67364 0
M  V30 3258 H 321.546 6.53152 -2.41591 0
M  V30 3259 H 319.173 7.00994 -2.94129 0
M  V30 3260 N 320.748 -0.0735177 1.57428 0
M  V30 3261 C 321.711 -1.07192 2.02589 0
M  V30 3262 C 322.711 -1.31695 0.922661 0
M  V30 3263 O 323.901 -1.27445 1.18758 0
M  V30 3264 C 321.033 -2.41599 2.40506 0
M  V30 3265 H 322.226 -0.682727 2.92025 0
M  V30 3266 H 319.779 -0.319193 1.53006 0
M  V30 3267 H 320.514 -2.85354 1.5409 0
M  V30 3268 H 320.299 -2.25156 3.21009 0
M  V30 3269 H 321.789 -3.13367 2.76027 0
M  V30 3270 N 322.226 -1.5378 -0.344866 0
M  V30 3271 C 323.156 -1.84662 -1.42906 0
M  V30 3272 C 324.137 -0.701648 -1.54955 0
M  V30 3273 O 325.322 -0.953438 -1.69184 0
M  V30 3274 C 322.452 -2.05503 -2.79974 0
M  V30 3275 C 321.406 -3.21318 -2.82734 0
M  V30 3276 C 320.732 -3.2749 -4.22675 0
M  V30 3277 C 322.032 -4.59456 -2.48389 0
M  V30 3278 H 323.726 -2.75461 -1.17311 0
M  V30 3279 H 321.272 -1.32542 -0.562896 0
M  V30 3280 H 323.225 -2.25691 -3.55867 0
M  V30 3281 H 321.949 -1.11434 -3.07002 0
M  V30 3282 H 320.608 -3.00984 -2.09294 0
M  V30 3283 H 320.256 -2.31019 -4.4681 0
M  V30 3284 H 319.956 -4.05316 -4.25433 0
M  V30 3285 H 321.48 -3.49887 -5.00412 0
M  V30 3286 H 322.894 -4.79667 -3.13995 0
M  V30 3287 H 321.291 -5.39675 -2.62432 0
M  V30 3288 H 322.361 -4.63155 -1.4358 0
M  V30 3289 N 323.704 0.605807 -1.45491 0
M  V30 3290 C 324.95 1.36679 -1.49823 0
M  V30 3291 C 325.283 1.93693 -0.140175 0
M  V30 3292 O 324.558 1.75158 0.845581 0
M  V30 3293 C 324.841 2.51337 -2.57879 0
M  V30 3294 C 324.694 1.99508 -4.03134 0
M  V30 3295 C 326.013 3.53463 -2.62205 0
M  V30 3296 H 323.132 0.495617 -0.545466 0
M  V30 3297 H 325.774 0.682732 -1.7731 0
M  V30 3298 H 323.924 3.09691 -2.34571 0
M  V30 3299 H 325.596 1.45789 -4.37656 0
M  V30 3300 H 323.839 1.30496 -4.13707 0
M  V30 3301 H 324.51 2.82169 -4.74431 0
M  V30 3302 H 326.986 3.04953 -2.83095 0
M  V30 3303 H 325.862 4.31178 -3.39672 0
M  V30 3304 H 326.123 4.09197 -1.67363 0
M  V30 3305 N 325.182 1.32811 0.848464 0
M  V30 3306 C 326.145 1.22194 1.9391 0
M  V30 3307 C 327.145 0.143404 1.60159 0
M  V30 3308 O 328.335 0.394253 1.6968 0
M  V30 3309 C 325.467 0.88067 3.29328 0
M  V30 3310 H 326.66 2.19127 2.04752 0
M  V30 3311 H 324.213 1.16731 1.0394 0
M  V30 3312 H 324.948 -0.0865776 3.24184 0
M  V30 3313 H 324.733 1.66052 3.55203 0
M  V30 3314 H 326.223 0.830871 4.09251 0
M  V30 3315 N 326.66 -1.06551 1.16123 0
M  V30 3316 C 327.608 -2.16063 0.861371 0
M  V30 3317 C 328.602 -1.6856 -0.168517 0
M  V30 3318 O 329.808 -1.79986 -0.0227579 0
M  V30 3319 H 326.183 -0.705278 0.260934 0
M  V30 3320 H 328.154 -2.38567 1.79244 0
M  V30 3321 C 326.903 -3.45661 0.376018 0
M  V30 3322 H 326.226 -3.82604 1.15992 0
M  V30 3323 H 327.666 -4.23504 0.204951 0
M  V30 3324 C 326.125 -3.24546 -0.903954 0
M  V30 3325 O 326.655 -3.49865 -1.97377 0
M  V30 3326 N 324.861 -2.77992 -0.846679 0
M  V30 3327 H 324.408 -2.57589 0.0241017 0
M  V30 3328 H 324.366 -2.64244 -1.70359 0
M  V30 3329 N 328.138 -0.959301 -1.25041 0
M  V30 3330 C 329.386 -0.615393 -1.92503 0
M  V30 3331 C 329.707 0.850969 -1.75452 0
M  V30 3332 O 328.977 1.60658 -1.12098 0
M  V30 3333 H 327.557 -0.224613 -0.712431 0
M  V30 3334 H 330.219 -1.21855 -1.5211 0
M  V30 3335 H 329.315 -0.848738 -3.00338 0
M  V30 3336 N 329.616 1.39756 -0.72842 0
M  V30 3337 C 330.862 2.00942 -0.273892 0
M  V30 3338 C 331.195 1.57656 1.13394 0
M  V30 3339 O 330.47 0.802434 1.77176 0
M  V30 3340 C 330.753 3.58211 -0.368346 0
M  V30 3341 C 330.606 4.11534 -1.81548 0
M  V30 3342 C 331.925 4.39372 0.253054 0
M  V30 3343 H 329.044 0.730047 -0.100996 0
M  V30 3344 H 331.686 1.66056 -0.923337 0
M  V30 3345 H 329.836 3.88061 0.184588 0
M  V30 3346 H 331.508 3.92431 -2.42478 0
M  V30 3347 H 329.751 3.65341 -2.33898 0
M  V30 3348 H 330.422 5.20682 -1.83288 0
M  V30 3349 H 332.898 4.15527 -0.218224 0
M  V30 3350 H 331.774 5.48677 0.156585 0
M  V30 3351 H 332.035 4.21358 1.33826 0
M  V30 3352 N 331.094 0.475555 1.50254 0
M  V30 3353 C 332.51 0.12997 1.5907 0
M  V30 3354 C 332.71 -1.36385 1.48328 0
M  V30 3355 O 331.766 -2.13754 1.34407 0
M  V30 3356 C 333.079 0.684139 2.92814 0
M  V30 3357 C 334.627 0.647965 3.0622 0
M  V30 3358 C 335.102 1.17975 4.42545 0
M  V30 3359 N 336.593 1.13936 4.48969 0
M  V30 3360 C 337.328 1.52129 5.52851 0
M  V30 3361 N 336.824 1.97793 6.63965 0
M  V30 3362 N 338.617 1.43704 5.4342 0
M  V30 3363 H 330.768 1.44706 1.55479 0
M  V30 3364 H 333.031 0.598691 0.735033 0
M  V30 3365 H 332.737 1.73079 3.06164 0
M  V30 3366 H 332.611 0.130204 3.76975 0
M  V30 3367 H 334.998 -0.38979 2.92514 0
M  V30 3368 H 335.079 1.23876 2.23805 0
M  V30 3369 H 334.723 2.21616 4.57 0
M  V30 3370 H 334.653 0.565138 5.23559 0
M  V30 3371 H 337.144 0.804488 3.69238 0
M  V30 3372 H 337.457 2.25072 7.39299 0
M  V30 3373 H 335.802 2.01749 6.65073 0
M  V30 3374 H 338.993 1.07867 4.55502 0
M  V30 3375 H 339.166 1.73794 6.24259 0
M  V30 3376 N 332.573 -1.56217 0.208337 0
M  V30 3377 C 333.536 -2.18455 -0.693557 0
M  V30 3378 C 334.536 -1.14268 -1.13135 0
M  V30 3379 O 335.726 -1.39577 -1.0423 0
M  V30 3380 C 332.858 -2.79727 -1.94848 0
M  V30 3381 H 334.051 -2.99519 -0.15114 0
M  V30 3382 H 331.604 -1.56245 -0.041287 0
M  V30 3383 H 332.339 -2.02497 -2.53309 0
M  V30 3384 H 332.124 -3.56009 -1.64316 0
M  V30 3385 H 333.614 -3.27475 -2.59133 0
M  V30 3386 N 334.051 0.0651679 -1.57465 0
M  V30 3387 C 335.014 1.06117 -2.03155 0
M  V30 3388 C 336.014 1.31204 -0.929632 0
M  V30 3389 O 337.204 1.26813 -1.19432 0
M  V30 3390 C 334.336 2.4032 -2.41783 0
M  V30 3391 H 335.529 0.667231 -2.92383 0
M  V30 3392 H 333.082 0.311075 -1.53173 0
M  V30 3393 H 333.817 2.84532 -1.55601 0
M  V30 3394 H 333.602 2.23451 -3.22199 0
M  V30 3395 H 335.092 3.11898 -2.77685 0
M  V30 3396 N 335.529 1.53961 0.336706 0
M  V30 3397 C 336.94 1.62914 0.911925 0
M  V30 3398 C 337.291 0.514795 1.89326 0
M  V30 3399 O 336.416 -0.354395 2.13478 0
M  V30 3400 C 337.011 2.95304 1.66076 0
M  V30 3401 C 335.57 3.06496 2.18489 0
M  V30 3402 C 334.717 2.58403 1.00613 0
M  V30 3403 H 337.668 1.58285 0.114649 0
M  V30 3404 H 337.689 2.84727 2.5241 0
M  V30 3405 H 337.201 3.76387 0.946276 0
M  V30 3406 H 335.302 2.3006 2.93092 0
M  V30 3407 H 335.415 4.1208 2.44391 0
M  V30 3408 H 333.779 2.13977 1.38152 0
M  V30 3409 H 334.562 3.41932 0.306179 0
M  V30 3410 N 337.007 -0.598083 1.45811 0
M  V30 3411 C 337.937 -1.71873 1.58057 0
M  V30 3412 C 338.918 -1.64533 0.431615 0
M  V30 3413 O 340.103 -1.82787 0.65595 0
M  V30 3414 C 337.233 -3.10495 1.55597 0
M  V30 3415 C 336.187 -3.32654 2.69305 0
M  V30 3416 C 335.513 -4.71646 2.51902 0
M  V30 3417 C 336.813 -3.21981 4.11248 0
M  V30 3418 H 338.507 -1.61881 2.51863 0
M  V30 3419 H 336.053 -0.777372 1.21214 0
M  V30 3420 H 338.006 -3.88699 1.6276 0
M  V30 3421 H 336.73 -3.2135 0.583255 0
M  V30 3422 H 335.389 -2.56843 2.61586 0
M  V30 3423 H 335.037 -4.79246 1.52748 0
M  V30 3424 H 334.737 -4.87426 3.2816 0
M  V30 3425 H 336.261 -5.52038 2.60933 0
M  V30 3426 H 337.675 -3.90049 4.20161 0
M  V30 3427 H 336.072 -3.49289 4.87972 0
M  V30 3428 H 337.142 -2.1928 4.32486 0
M  V30 3429 N 338.485 -1.33259 -0.841409 0
M  V30 3430 C 339.731 -1.25766 -1.59857 0
M  V30 3431 C 340.086 0.175602 -1.91597 0
M  V30 3432 O 339.379 1.117 -1.55672 0
M  V30 3433 C 339.573 -2.06381 -2.9179 0
M  V30 3434 C 339.402 -3.57401 -2.72937 0
M  V30 3435 C 338.172 -4.26718 -2.70628 0
M  V30 3436 C 340.37 -4.51786 -2.45753 0
M  V30 3437 N 338.352 -5.63705 -2.43125 0
M  V30 3438 C 339.723 -5.76643 -2.27777 0
M  V30 3439 C 341.778 -4.40898 -2.31329 0
M  V30 3440 C 340.481 -6.91842 -1.96841 0
M  V30 3441 C 342.507 -5.55911 -2.01786 0
M  V30 3442 C 341.869 -6.79776 -1.8462 0
M  V30 3443 H 337.968 -0.515406 -0.588117 0
M  V30 3444 H 340.552 -1.67772 -0.987955 0
M  V30 3445 H 338.723 -1.667 -3.50807 0
M  V30 3446 H 340.455 -1.90678 -3.56965 0
M  V30 3447 H 337.21 -3.78968 -2.84043 0
M  V30 3448 H 337.634 -6.35911 -2.32265 0
M  V30 3449 H 342.276 -3.45772 -2.43314 0
M  V30 3450 H 339.994 -7.86968 -1.83594 0
M  V30 3451 H 343.58 -5.49421 -1.91384 0
M  V30 3452 H 342.46 -7.67266 -1.62088 0
M  V30 3453 N 339.963 1.05934 -1.16686 0
M  V30 3454 C 341.24 1.75643 -0.860747 0
M  V30 3455 C 341.62 2.01144 0.640641 0
M  V30 3456 O 340.968 1.64147 1.58959 0
M  V30 3457 C 341.178 3.05493 -1.68745 0
M  V30 3458 C 342.526 3.79581 -1.90271 0
M  V30 3459 O 343.55 3.15344 -1.65641 0
M  V30 3460 O 342.409 4.9499 -2.31618 0
M  V30 3461 H 339.503 0.763426 -0.317977 0
M  V30 3462 H 342.049 1.1217 -1.27342 0
M  V30 3463 H 340.821 2.8264 -2.70611 0
M  V30 3464 H 340.444 3.76702 -1.27206 0
M  V30 3465 N 341.441 0.965919 1.2453 0
M  V30 3466 C 342.666 0.643971 1.97149 0
M  V30 3467 C 343.091 -0.779487 1.71189 0
M  V30 3468 O 342.449 -1.5288 0.974553 0
M  V30 3469 C 342.497 0.922557 3.48599 0
M  V30 3470 O 341.601 0.00707672 4.12399 0
M  V30 3471 H 340.942 0.243647 0.617683 0
M  V30 3472 H 343.472 1.29558 1.58353 0
M  V30 3473 H 343.482 0.853373 3.98976 0
M  V30 3474 H 342.157 1.95996 3.66822 0
M  V30 3475 H 340.734 0.12943 3.72675 0
M  V30 3476 N 342.919 -1.39368 0.735821 0
M  V30 3477 C 343.866 -2.30599 0.0963825 0
M  V30 3478 C 344.836 -1.49257 -0.728794 0
M  V30 3479 O 346.021 -1.77941 -0.688588 0
M  V30 3480 C 343.161 -3.35596 -0.804305 0
M  V30 3481 C 342.274 -4.31987 0.0335761 0
M  V30 3482 C 341.409 -5.24053 -0.868461 0
M  V30 3483 C 340.448 -6.12095 -0.0258776 0
M  V30 3484 N 339.585 -6.96514 -0.883893 0
M  V30 3485 H 344.425 -2.8471 0.880002 0
M  V30 3486 H 341.962 -1.40188 0.445619 0
M  V30 3487 H 343.92 -3.95062 -1.34096 0
M  V30 3488 H 342.55 -2.82938 -1.55389 0
M  V30 3489 H 341.602 -3.74133 0.68766 0
M  V30 3490 H 342.914 -4.94074 0.685036 0
M  V30 3491 H 342.068 -5.88549 -1.47293 0
M  V30 3492 H 340.807 -4.62289 -1.5537 0
M  V30 3493 H 339.812 -5.4661 0.591386 0
M  V30 3494 H 341.037 -6.75923 0.656156 0
M  V30 3495 H 338.983 -6.37318 -1.55441 0
M  V30 3496 H 338.9 -7.55448 -0.288931 0
M  V30 3497 H 340.168 -7.65439 -1.4739 0
M  V30 3498 N 344.397 -0.483516 -1.5 0
M  V30 3499 C 345.344 0.304164 -2.28787 0
M  V30 3500 C 346.314 0.976114 -1.34392 0
M  V30 3501 O 347.499 0.986156 -1.63339 0
M  V30 3502 C 344.639 1.37298 -3.16612 0
M  V30 3503 C 343.752 0.714561 -4.26049 0
M  V30 3504 C 342.887 1.76232 -5.01114 0
M  V30 3505 C 341.926 1.08483 -6.0241 0
M  V30 3506 N 341.063 2.076 -6.70706 0
M  V30 3507 H 345.903 -0.373981 -2.95644 0
M  V30 3508 H 343.44 -0.196275 -1.45785 0
M  V30 3509 H 345.398 2.00445 -3.65893 0
M  V30 3510 H 344.028 2.02012 -2.51776 0
M  V30 3511 H 343.08 -0.0297798 -3.80388 0
M  V30 3512 H 344.392 0.180383 -4.98474 0
M  V30 3513 H 343.546 2.46929 -5.54176 0
M  V30 3514 H 342.285 2.33033 -4.28424 0
M  V30 3515 H 341.29 0.363545 -5.48597 0
M  V30 3516 H 342.515 0.523551 -6.77079 0
M  V30 3517 H 340.461 2.63394 -6.00799 0
M  V30 3518 H 340.378 1.59201 -7.39047 0
M  V30 3519 H 341.646 2.77639 -7.2838 0
M  V30 3520 N 345.875 1.56104 -0.216619 0
M  V30 3521 C 346.807 2.17339 0.72776 0
M  V30 3522 C 347.82 1.14109 1.16116 0
M  V30 3523 O 349.009 1.4111 1.09317 0
M  V30 3524 C 346.109 2.73818 1.99693 0
M  V30 3525 C 345.282 4.02168 1.71988 0
M  V30 3526 C 344.341 4.43259 2.83562 0
M  V30 3527 O 343.367 5.10257 2.52244 0
M  V30 3528 N 344.569 4.08535 4.12407 0
M  V30 3529 H 347.334 2.99005 0.203983 0
M  V30 3530 H 344.895 1.61861 -0.0354289 0
M  V30 3531 H 346.887 2.9828 2.73516 0
M  V30 3532 H 345.457 1.96483 2.43132 0
M  V30 3533 H 344.677 3.85612 0.818337 0
M  V30 3534 H 345.965 4.85907 1.50903 0
M  V30 3535 H 345.363 3.54687 4.40696 0
M  V30 3536 H 343.92 4.37901 4.8279 0
M  V30 3537 N 347.353 -0.0568162 1.57498 0
M  V30 3538 C 348.578 -0.769402 1.92601 0
M  V30 3539 C 349.003 -1.69559 0.814336 0
M  V30 3540 O 348.361 -1.79811 -0.231903 0
M  V30 3541 C 348.409 -1.52634 3.26704 0
M  V30 3542 O 347.513 -2.63797 3.16994 0
M  V30 3543 H 346.854 -0.208909 0.63028 0
M  V30 3544 H 349.384 -0.0205798 2.0459 0
M  V30 3545 H 349.394 -1.90234 3.60936 0
M  V30 3546 H 348.069 -0.846875 4.07186 0
M  V30 3547 H 346.646 -2.28943 2.94346 0
M  V30 3548 N 348.832 -1.54138 -0.328536 0
M  V30 3549 C 350.079 -1.72105 -1.06706 0
M  V30 3550 C 350.407 -0.492111 -1.88171 0
M  V30 3551 O 349.662 0.526153 -1.88494 0
M  V30 3552 C 349.961 -2.9457 -2.02393 0
M  V30 3553 C 349.627 -4.29544 -1.37122 0
M  V30 3554 C 348.289 -4.6624 -1.19052 0
M  V30 3555 C 350.641 -5.1333 -0.902331 0
M  V30 3556 C 347.969 -5.84325 -0.527331 0
M  V30 3557 C 350.321 -6.32094 -0.252988 0
M  V30 3558 C 348.985 -6.67473 -0.0600901 0
M  V30 3559 H 348.255 -0.629775 -0.390466 0
M  V30 3560 H 350.902 -1.88372 -0.34473 0
M  V30 3561 H 349.207 -2.72969 -2.81061 0
M  V30 3562 H 350.904 -3.05665 -2.59557 0
M  V30 3563 H 347.494 -4.0067 -1.52188 0
M  V30 3564 H 351.678 -4.855 -1.02974 0
M  V30 3565 H 346.934 -6.103 -0.366634 0
M  V30 3566 H 351.108 -6.96299 0.118366 0
M  V30 3567 H 348.735 -7.58832 0.455828 0
M  V30 3568 N 350.31 0.590341 -1.46126 0
M  V30 3569 C 351.556 1.35082 -1.51264 0
M  V30 3570 C 351.889 1.93534 -0.160711 0
M  V30 3571 O 351.164 1.76045 0.826956 0
M  V30 3572 C 351.447 2.48588 -2.6053 0
M  V30 3573 C 351.3 1.95221 -4.05227 0
M  V30 3574 C 352.619 3.50662 -2.6594 0
M  V30 3575 H 349.738 0.489803 -0.550692 0
M  V30 3576 H 352.38 0.663887 -1.78024 0
M  V30 3577 H 350.53 3.07186 -2.37843 0
M  V30 3578 H 352.202 1.41139 -4.39178 0
M  V30 3579 H 350.445 1.26101 -4.15068 0
M  V30 3580 H 351.116 2.77121 -4.77397 0
M  V30 3581 H 353.592 3.01934 -2.86313 0
M  V30 3582 H 352.468 4.27551 -3.44226 0
M  V30 3583 H 352.729 4.07399 -1.71694 0
M  V30 3584 N 351.788 1.33704 0.83433 0
M  V30 3585 C 353.036 1.25169 1.58673 0
M  V30 3586 C 353.357 -0.18127 1.94156 0
M  V30 3587 O 352.627 -1.11113 1.6134 0
M  V30 3588 H 351.207 0.4603 0.58833 0
M  V30 3589 H 353.869 1.67478 0.996847 0
M  V30 3590 H 352.965 1.84856 2.51465 0
M  V30 3591 N 353.266 -1.05314 1.17247 0
M  V30 3592 C 354.199 -2.12512 0.831507 0
M  V30 3593 C 355.177 -1.61351 -0.201168 0
M  V30 3594 O 356.361 -1.88317 -0.0829831 0
M  V30 3595 C 353.488 -3.37848 0.24015 0
M  V30 3596 C 352.534 -4.07832 1.24801 0
M  V30 3597 S 353.367 -4.56537 2.79882 0
M  V30 3598 C 354.523 -5.85122 2.22223 0
M  V30 3599 H 354.756 -2.41106 1.7394 0
M  V30 3600 H 352.289 -1.17896 0.996988 0
M  V30 3601 H 354.247 -4.10391 -0.0945588 0
M  V30 3602 H 352.908 -3.07392 -0.645668 0
M  V30 3603 H 352.101 -4.97883 0.78287 0
M  V30 3604 H 351.703 -3.41348 1.52831 0
M  V30 3605 H 353.995 -6.58408 1.59703 0
M  V30 3606 H 354.938 -6.36381 3.10523 0
M  V30 3607 H 355.346 -5.39626 1.65722 0
M  V30 3608 N 354.744 -0.972509 -1.24016 0
M  V30 3609 C 355.674 -0.525548 -2.27509 0
M  V30 3610 C 356.655 0.437262 -1.64384 0
M  V30 3611 O 357.84 0.332343 -1.91335 0
M  V30 3612 C 354.97 0.180448 -3.46831 0
M  V30 3613 C 353.924 -0.698859 -4.22256 0
M  V30 3614 C 353.25 0.138903 -5.3452 0
M  V30 3615 C 354.55 -1.98582 -4.83076 0
M  V30 3616 H 356.244 -1.39058 -2.65148 0
M  V30 3617 H 353.79 -0.67009 -1.27459 0
M  V30 3618 H 355.743 0.504387 -4.18371 0
M  V30 3619 H 354.467 1.07987 -3.08231 0
M  V30 3620 H 353.126 -1.00614 -3.52523 0
M  V30 3621 H 352.774 1.03862 -4.9216 0
M  V30 3622 H 352.474 -0.446259 -5.85903 0
M  V30 3623 H 353.998 0.457404 -6.08884 0
M  V30 3624 H 355.412 -1.72715 -5.46665 0
M  V30 3625 H 353.809 -2.5181 -5.44713 0
M  V30 3626 H 354.879 -2.67769 -4.04262 0
M  V30 3627 N 356.222 1.38976 -0.743202 0
M  V30 3628 C 357.45 2.04636 -0.30525 0
M  V30 3629 C 357.865 1.56044 1.06281 0
M  V30 3630 O 357.222 0.728921 1.67311 0
M  V30 3631 C 357.273 3.60193 -0.307177 0
M  V30 3632 O 356.994 4.06998 -1.62124 0
M  V30 3633 C 358.495 4.4306 0.145928 0
M  V30 3634 H 355.715 0.65788 -0.132041 0
M  V30 3635 H 358.259 1.77866 -1.00915 0
M  V30 3636 H 356.414 3.85835 0.347898 0
M  V30 3637 H 356.828 5.01371 -1.54036 0
M  V30 3638 H 358.302 5.51921 0.0934183 0
M  V30 3639 H 358.779 4.22706 1.19231 0
M  V30 3640 H 359.385 4.22584 -0.479886 0
M  V30 3641 N 357.7 0.491464 1.49741 0
M  V30 3642 C 358.949 -0.0582189 2.01616 0
M  V30 3643 C 359.262 -1.38927 1.3769 0
M  V30 3644 O 360.468 -2.02509 1.80838 0
M  V30 3645 C 358.924 -0.154235 3.59569 0
M  V30 3646 C 358.532 1.1696 4.32463 0
M  V30 3647 C 360.276 -0.65479 4.1942 0
M  V30 3648 C 358.183 1.03627 5.8225 0
M  V30 3649 H 357.113 -0.0255317 0.753568 0
M  V30 3650 H 359.764 0.629445 1.72367 0
M  V30 3651 H 358.146 -0.906138 3.85493 0
M  V30 3652 H 359.32 1.93405 4.18248 0
M  V30 3653 H 357.635 1.60285 3.84315 0
M  V30 3654 H 360.232 -0.771903 5.29099 0
M  V30 3655 H 360.575 -1.65127 3.8215 0
M  V30 3656 H 361.108 0.040304 3.9778 0
M  V30 3657 H 357.847 2.00672 6.24028 0
M  V30 3658 H 357.367 0.312546 5.98985 0
M  V30 3659 H 359.046 0.711114 6.4308 0
M  V30 3660 N 359.178 -1.55987 0.224894 0
M  V30 3661 C 360.406 -2.02784 -0.410665 0
M  V30 3662 C 360.821 -1.10464 -1.53112 0
M  V30 3663 O 360.178 -0.114871 -1.82138 0
M  V30 3664 C 360.229 -3.49087 -0.939165 0
M  V30 3665 O 359.95 -4.37887 0.136614 0
M  V30 3666 C 361.451 -4.11543 -1.64763 0
M  V30 3667 H 358.671 -0.663484 -0.100148 0
M  V30 3668 H 361.215 -2.01614 0.342326 0
M  V30 3669 H 359.37 -3.50861 -1.64242 0
M  V30 3670 H 359.784 -5.23849 -0.261155 0
M  V30 3671 H 361.258 -5.15673 -1.96939 0
M  V30 3672 H 361.735 -3.56736 -2.56195 0
M  V30 3673 H 362.341 -4.13629 -0.989503 0
M  V30 3674 N 360.656 0.0484629 -1.57525 0
M  V30 3675 C 361.933 0.777447 -1.79486 0
M  V30 3676 C 362.313 1.94597 -0.818251 0
M  V30 3677 O 361.661 2.28047 0.143767 0
M  V30 3678 C 361.871 1.22864 -3.26658 0
M  V30 3679 C 363.219 1.65251 -3.91123 0
M  V30 3680 O 364.243 1.32372 -3.3069 0
M  V30 3681 O 363.102 2.26207 -4.97486 0
M  V30 3682 H 360.196 0.374357 -0.737419 0
M  V30 3683 H 362.742 0.0267359 -1.69679 0
M  V30 3684 H 361.514 0.393589 -3.89316 0
M  V30 3685 H 361.137 2.03996 -3.41279 0
M  V30 3686 N 362.134 1.5431 0.320358 0
M  V30 3687 C 363.381 1.72668 1.05792 0
M  V30 3688 C 363.709 0.502084 1.87908 0
M  V30 3689 O 362.964 -0.516149 1.88771 0
M  V30 3690 C 363.263 2.95639 2.00828 0
M  V30 3691 C 362.929 4.30265 1.34843 0
M  V30 3692 C 361.591 4.66865 1.16578 0
M  V30 3693 C 363.943 5.13801 0.875095 0
M  V30 3694 C 361.271 5.84597 0.496336 0
M  V30 3695 C 363.623 6.32219 0.219463 0
M  V30 3696 C 362.287 6.67495 0.0246915 0
M  V30 3697 H 361.557 0.631837 0.387121 0
M  V30 3698 H 364.204 1.88552 0.334735 0
M  V30 3699 H 362.509 2.74456 2.79609 0
M  V30 3700 H 364.206 3.07038 2.57932 0
M  V30 3701 H 360.796 4.01472 1.50061 0
M  V30 3702 H 364.98 4.86039 1.00398 0
M  V30 3703 H 360.236 6.10486 0.334264 0
M  V30 3704 H 364.41 6.96227 -0.155291 0
M  V30 3705 H 362.037 7.5858 -0.496065 0
M  V30 3706 N 363.613 -0.582584 1.46437 0
M  V30 3707 C 364.862 -1.337 1.5102 0
M  V30 3708 C 365.175 -1.94891 0.166359 0
M  V30 3709 O 366.381 -2.71351 0.0899954 0
M  V30 3710 C 364.837 -2.42315 2.66104 0
M  V30 3711 C 364.445 -1.87427 4.06909 0
M  V30 3712 C 366.189 -3.19099 2.79958 0
M  V30 3713 C 364.096 -2.93672 5.13333 0
M  V30 3714 H 363.026 -0.502619 0.562041 0
M  V30 3715 H 365.677 -0.621701 1.72647 0
M  V30 3716 H 364.059 -3.16645 2.37807 0
M  V30 3717 H 365.233 -1.19639 4.44998 0
M  V30 3718 H 363.548 -1.2331 3.97723 0
M  V30 3719 H 366.145 -3.9839 3.56636 0
M  V30 3720 H 366.488 -3.71695 1.87479 0
M  V30 3721 H 367.021 -2.51875 3.07902 0
M  V30 3722 H 363.76 -2.45962 6.07604 0
M  V30 3723 H 363.28 -3.59948 4.79789 0
M  V30 3724 H 364.959 -3.5762 5.39182 0
M  V30 3725 N 365.091 -1.34144 -0.827227 0
M  V30 3726 C 366.021 -1.28005 -1.95287 0
M  V30 3727 C 367.002 -0.158321 -1.69362 0
M  V30 3728 O 368.187 -0.349987 -1.9102 0
M  V30 3729 C 365.317 -1.03036 -3.31664 0
M  V30 3730 C 364.271 -2.11628 -3.72019 0
M  V30 3731 C 363.597 -1.71854 -5.0633 0
M  V30 3732 C 364.897 -3.53417 -3.8457 0
M  V30 3733 H 366.591 -2.22187 -2.00682 0
M  V30 3734 H 364.137 -1.0696 -0.964135 0
M  V30 3735 H 366.09 -0.973863 -4.09993 0
M  V30 3736 H 364.814 -0.0529391 -3.26557 0
M  V30 3737 H 363.473 -2.16339 -2.95961 0
M  V30 3738 H 363.121 -0.727841 -4.97706 0
M  V30 3739 H 362.821 -2.44531 -5.34302 0
M  V30 3740 H 364.345 -1.67692 -5.87122 0
M  V30 3741 H 365.759 -3.51142 -4.5318 0
M  V30 3742 H 364.156 -4.24679 -4.2399 0
M  V30 3743 H 365.226 -3.91072 -2.86689 0
M  V30 3744 N 366.569 1.04691 -1.17803 0
M  V30 3745 C 367.815 1.78045 -0.970969 0
M  V30 3746 C 368.148 1.87686 0.498751 0
M  V30 3747 O 367.423 1.38035 1.37027 0
M  V30 3748 C 367.706 3.2166 -1.61884 0
M  V30 3749 C 367.559 3.20001 -3.161 0
M  V30 3750 C 368.878 4.1962 -1.3269 0
M  V30 3751 H 365.997 0.64633 -0.354155 0
M  V30 3752 H 368.639 1.22333 -1.45378 0
M  V30 3753 H 366.789 3.69232 -1.20831 0
M  V30 3754 H 368.461 2.80467 -3.66246 0
M  V30 3755 H 366.704 2.58203 -3.48588 0
M  V30 3756 H 367.375 4.21386 -3.56564 0
M  V30 3757 H 369.851 3.80567 -1.68249 0
M  V30 3758 H 368.727 5.18339 -1.80599 0
M  V30 3759 H 368.988 4.414 -0.248622 0
M  V30 3760 N 368.047 0.979072 1.23499 0
M  V30 3761 C 368.977 0.537606 2.27227 0
M  V30 3762 C 369.958 -0.428539 1.64613 0
M  V30 3763 O 371.143 -0.322191 1.91509 0
M  V30 3764 C 368.273 -0.162052 3.46922 0
M  V30 3765 C 367.227 0.721242 4.21879 0
M  V30 3766 C 366.553 -0.110555 5.34586 0
M  V30 3767 C 367.853 2.01141 4.82016 0
M  V30 3768 H 369.547 1.40462 2.64406 0
M  V30 3769 H 367.093 0.67684 1.27102 0
M  V30 3770 H 369.046 -0.482192 4.18632 0
M  V30 3771 H 367.77 -1.06351 3.08799 0
M  V30 3772 H 366.429 1.02482 3.51984 0
M  V30 3773 H 366.077 -1.0125 4.92704 0
M  V30 3774 H 365.777 0.477325 5.85658 0
M  V30 3775 H 367.301 -0.425107 6.09118 0
M  V30 3776 H 368.715 1.75612 5.45741 0
M  V30 3777 H 367.112 2.54695 5.43369 0
M  V30 3778 H 368.182 2.69909 4.02836 0
M  V30 3779 N 369.525 -1.3858 0.750561 0
M  V30 3780 C 370.475 -2.27795 0.0965949 0
M  V30 3781 C 371.459 -1.45048 -0.696411 0
M  V30 3782 O 372.651 -1.67812 -0.562863 0
M  V30 3783 C 369.78 -3.33894 -0.798085 0
M  V30 3784 C 368.866 -4.241 0.0016067 0
M  V30 3785 N 369.257 -4.95067 1.03647 0
M  V30 3786 C 367.555 -4.45429 -0.225674 0
M  V30 3787 C 368.256 -5.61489 1.52004 0
M  V30 3788 N 367.232 -5.37135 0.835874 0
M  V30 3789 H 371.034 -2.80125 0.889228 0
M  V30 3790 H 368.548 -1.51446 0.586323 0
M  V30 3791 H 370.545 -3.96693 -1.28219 0
M  V30 3792 H 369.205 -2.83123 -1.5897 0
M  V30 3793 H 370.216 -4.98104 1.41819 0
M  V30 3794 H 366.893 -4.05571 -0.990872 0
M  V30 3795 H 368.283 -6.28264 2.38188 0
M  V30 3796 N 371.003 -0.499398 -1.49478 0
M  V30 3797 C 372.419 -0.155261 -1.58843 0
M  V30 3798 C 372.619 1.34008 -1.50479 0
M  V30 3799 O 371.675 2.11589 -1.37791 0
M  V30 3800 C 372.988 -0.730636 -2.91689 0
M  V30 3801 C 374.536 -0.696599 -3.0515 0
M  V30 3802 C 375.011 -1.25001 -4.40612 0
M  V30 3803 N 376.502 -1.21064 -4.47099 0
M  V30 3804 C 377.237 -1.60905 -5.50361 0
M  V30 3805 N 376.733 -2.08331 -6.60735 0
M  V30 3806 N 378.526 -1.52331 -5.41065 0
M  V30 3807 H 370.677 -1.47162 -1.53158 0
M  V30 3808 H 372.94 -0.610309 -0.725415 0
M  V30 3809 H 372.646 -1.77928 -3.03372 0
M  V30 3810 H 372.52 -0.190161 -3.7672 0
M  V30 3811 H 374.907 0.343204 -2.93097 0
M  V30 3812 H 374.988 -1.2742 -2.21806 0
M  V30 3813 H 374.632 -2.28859 -4.53416 0
M  V30 3814 H 374.562 -0.64836 -5.22593 0
M  V30 3815 H 377.053 -0.863128 -3.67911 0
M  V30 3816 H 377.366 -2.36805 -7.35624 0
M  V30 3817 H 375.711 -2.12304 -6.6178 0
M  V30 3818 H 378.902 -1.151 -4.53729 0
M  V30 3819 H 379.075 -1.83704 -6.21415 0
M  V30 3820 N 372.481 1.55866 -0.233164 0
M  V30 3821 C 373.711 2.02704 0.399325 0
M  V30 3822 C 374.119 1.11204 1.53069 0
M  V30 3823 O 373.462 0.116182 1.83332 0
M  V30 3824 C 373.524 3.45844 0.981429 0
M  V30 3825 C 373.188 4.56997 -0.0159561 0
M  V30 3826 C 374.185 5.13384 -0.820552 0
M  V30 3827 C 371.87 5.0211 -0.138072 0
M  V30 3828 C 373.864 6.13365 -1.73386 0
M  V30 3829 C 371.551 6.01926 -1.0549 0
M  V30 3830 C 372.549 6.57431 -1.85132 0
M  V30 3831 O 372.237 7.55302 -2.75272 0
M  V30 3832 H 371.969 0.668459 0.100692 0
M  V30 3833 H 374.523 2.02387 -0.35052 0
M  V30 3834 H 372.753 3.43267 1.78058 0
M  V30 3835 H 374.442 3.76262 1.52255 0
M  V30 3836 H 375.208 4.79372 -0.736721 0
M  V30 3837 H 371.087 4.5858 0.471737 0
M  V30 3838 H 374.631 6.56614 -2.35592 0
M  V30 3839 H 370.528 6.35359 -1.1397 0
M  V30 3840 H 371.296 7.72867 -2.69477 0
M  V30 3841 N 373.959 -0.0401083 1.57549 0
M  V30 3842 C 375.189 -0.744115 1.92734 0
M  V30 3843 C 375.597 -1.70005 0.830348 0
M  V30 3844 O 374.94 -1.82576 -0.20286 0
M  V30 3845 C 375.002 -1.56516 3.2364 0
M  V30 3846 C 374.666 -0.7752 4.50377 0
M  V30 3847 C 375.663 -0.0803326 5.19838 0
M  V30 3848 C 373.348 -0.733002 4.96923 0
M  V30 3849 C 375.342 0.646154 6.34116 0
M  V30 3850 C 373.029 -0.00276321 6.111 0
M  V30 3851 C 374.027 0.685585 6.7955 0
M  V30 3852 O 373.715 1.40399 7.91545 0
M  V30 3853 H 373.447 -0.214861 0.640945 0
M  V30 3854 H 376.001 -0.00503675 2.05399 0
M  V30 3855 H 374.231 -2.3478 3.07271 0
M  V30 3856 H 375.92 -2.15076 3.44234 0
M  V30 3857 H 376.686 -0.104035 4.84888 0
M  V30 3858 H 372.565 -1.25827 4.43496 0
M  V30 3859 H 376.109 1.18398 6.87479 0
M  V30 3860 H 372.006 0.0229012 6.45496 0
M  V30 3861 H 372.774 1.31653 8.07843 0
M  V30 3862 N 375.437 -1.54477 -0.31217 0
M  V30 3863 C 376.853 -1.45442 -0.657185 0
M  V30 3864 C 377.053 -0.63653 -1.91182 0
M  V30 3865 O 376.109 -0.139815 -2.52113 0
M  V30 3866 C 377.422 -2.89287 -0.82058 0
M  V30 3867 C 378.97 -2.9926 -0.917188 0
M  V30 3868 C 379.445 -4.44279 -1.11267 0
M  V30 3869 N 380.936 -4.4794 -1.17914 0
M  V30 3870 C 381.671 -5.57318 -1.34848 0
M  V30 3871 N 381.167 -6.76642 -1.48752 0
M  V30 3872 N 382.96 -5.44986 -1.37647 0
M  V30 3873 H 375.111 -2.06129 0.512313 0
M  V30 3874 H 377.374 -0.933088 0.167485 0
M  V30 3875 H 377.08 -3.51687 0.0302604 0
M  V30 3876 H 376.954 -3.36061 -1.71298 0
M  V30 3877 H 379.341 -2.36981 -1.75852 0
M  V30 3878 H 379.422 -2.558 -0.00101257 0
M  V30 3879 H 379.066 -5.07149 -0.27614 0
M  V30 3880 H 378.996 -4.85359 -2.04289 0
M  V30 3881 H 381.487 -3.61969 -1.08567 0
M  V30 3882 H 381.8 -7.55758 -1.61397 0
M  V30 3883 H 380.145 -6.79529 -1.45828 0
M  V30 3884 H 383.336 -4.50715 -1.26388 0
M  V30 3885 H 383.509 -6.3028 -1.50501 0
M  V30 3886 N 376.915 0.57481 -1.46744 0
M  V30 3887 C 378.14 1.36341 -1.56288 0
M  V30 3888 C 378.565 1.86954 -0.207347 0
M  V30 3889 O 377.923 1.62006 0.813871 0
M  V30 3890 C 377.971 2.52147 -2.57787 0
M  V30 3891 O 377.075 3.53834 -2.11838 0
M  V30 3892 H 376.416 0.405713 -0.525636 0
M  V30 3893 H 378.946 0.696453 -1.92382 0
M  V30 3894 H 378.956 2.98958 -2.77648 0
M  V30 3895 H 377.631 2.14663 -3.5622 0
M  V30 3896 H 376.208 3.1345 -2.01999 0
M  V30 3897 N 378.394 1.34581 0.820102 0
M  V30 3898 C 379.805 1.24298 1.39309 0
M  V30 3899 C 380.156 -0.130351 1.95767 0
M  V30 3900 O 379.281 -1.0308 1.90272 0
M  V30 3901 C 379.876 2.25054 2.53251 0
M  V30 3902 C 378.435 2.18552 3.0645 0
M  V30 3903 C 377.582 2.11503 1.79337 0
M  V30 3904 H 380.533 1.45906 0.624262 0
M  V30 3905 H 380.554 1.86917 3.31425 0
M  V30 3906 H 380.066 3.24996 2.1213 0
M  V30 3907 H 378.167 1.21976 3.52069 0
M  V30 3908 H 378.28 3.0993 3.65349 0
M  V30 3909 H 376.644 1.57268 2.00347 0
M  V30 3910 H 377.427 3.13284 1.40386 0
M  V30 3911 N 379.872 -1.04064 1.18357 0
M  V30 3912 C 380.802 -2.14001 0.934113 0
M  V30 3913 C 381.783 -1.69616 -0.128186 0
M  V30 3914 O 382.968 -1.94185 0.0244093 0
M  V30 3915 C 380.098 -3.44253 0.459066 0
M  V30 3916 C 379.052 -4.02261 1.46185 0
M  V30 3917 C 378.378 -5.27992 0.844322 0
M  V30 3918 C 379.678 -4.38432 2.83856 0
M  V30 3919 H 381.372 -2.35127 1.85352 0
M  V30 3920 H 378.918 -1.12998 0.892604 0
M  V30 3921 H 380.871 -4.20522 0.271907 0
M  V30 3922 H 379.595 -3.22813 -0.495912 0
M  V30 3923 H 378.254 -3.28074 1.63595 0
M  V30 3924 H 377.902 -5.02862 -0.117845 0
M  V30 3925 H 377.602 -5.67765 1.51384 0
M  V30 3926 H 379.126 -6.06938 0.667693 0
M  V30 3927 H 380.54 -5.05688 2.70098 0
M  V30 3928 H 378.937 -4.89254 3.47491 0
M  V30 3929 H 380.007 -3.4826 3.37406 0
M  V30 3930 N 381.35 -0.985608 -1.22978 0
M  V30 3931 C 382.596 -0.65836 -1.91816 0
M  V30 3932 C 382.929 0.806692 -1.76653 0
M  V30 3933 O 382.204 1.58252 -1.13078 0
M  V30 3934 C 382.487 -1.056 -3.44268 0
M  V30 3935 C 382.34 -2.57906 -3.68516 0
M  V30 3936 C 383.659 -0.603781 -4.35939 0
M  V30 3937 H 380.778 -0.24065 -0.696604 0
M  V30 3938 H 383.42 -1.22783 -1.44998 0
M  V30 3939 H 381.57 -0.571445 -3.84274 0
M  V30 3940 H 383.242 -3.13976 -3.3796 0
M  V30 3941 H 381.485 -3.00305 -3.13048 0
M  V30 3942 H 382.156 -2.80779 -4.75255 0
M  V30 3943 H 384.632 -1.01987 -4.03408 0
M  V30 3944 H 383.508 -0.910383 -5.41298 0
M  V30 3945 H 383.769 0.495761 -4.39312 0
M  V30 3946 N 382.828 1.3818 -0.7579 0
M  V30 3947 C 383.76 2.2901 -0.0932177 0
M  V30 3948 C 384.773 1.47958 0.679136 0
M  V30 3949 O 385.962 1.70773 0.519514 0
M  V30 3950 C 383.062 3.26953 0.89192 0
M  V30 3951 C 382.235 4.37045 0.176303 0
M  V30 3952 C 381.294 5.15148 1.07281 0
M  V30 3953 O 380.32 5.66616 0.541728 0
M  V30 3954 N 381.522 5.28542 2.40049 0
M  V30 3955 H 384.287 2.86694 -0.873303 0
M  V30 3956 H 381.848 1.50007 -0.609054 0
M  V30 3957 H 383.84 3.76083 1.49479 0
M  V30 3958 H 382.41 2.70136 1.57306 0
M  V30 3959 H 381.63 3.89493 -0.607328 0
M  V30 3960 H 382.918 5.07801 -0.318718 0
M  V30 3961 H 382.316 4.88285 2.85647 0
M  V30 3962 H 380.873 5.8103 2.95376 0
M  V30 3963 N 384.306 0.507319 1.49211 0
M  V30 3964 C 385.555 -0.0368315 2.01666 0
M  V30 3965 C 385.868 -1.37459 1.39156 0
M  V30 3966 O 387.074 -2.00579 1.82976 0
M  V30 3967 C 385.53 -0.116089 3.59713 0
M  V30 3968 C 385.138 1.2154 4.31198 0
M  V30 3969 C 386.882 -0.610268 4.2009 0
M  V30 3970 C 384.789 1.09796 5.81119 0
M  V30 3971 H 383.719 -0.0175376 0.753796 0
M  V30 3972 H 386.37 0.647691 1.71689 0
M  V30 3973 H 384.752 -0.8652 3.86433 0
M  V30 3974 H 385.926 1.9783 4.16173 0
M  V30 3975 H 384.241 1.64352 3.82593 0
M  V30 3976 H 386.838 -0.715742 5.29888 0
M  V30 3977 H 387.181 -1.61064 3.8388 0
M  V30 3978 H 387.714 0.0824916 3.97714 0
M  V30 3979 H 384.453 2.0728 6.21864 0
M  V30 3980 H 383.973 0.376058 5.9862 0
M  V30 3981 H 385.652 0.779281 6.4229 0
M  V30 3982 N 385.784 -1.5574 0.241426 0
M  V30 3983 C 387.014 -2.02913 -0.38857 0
M  V30 3984 C 387.422 -1.12014 -1.52478 0
M  V30 3985 O 386.765 -0.125903 -1.83268 0
M  V30 3986 C 386.827 -3.4636 -0.963075 0
M  V30 3987 C 386.491 -4.56982 0.0401916 0
M  V30 3988 C 387.488 -5.12941 0.847766 0
M  V30 3989 C 385.173 -5.0203 0.164699 0
M  V30 3990 C 387.167 -6.12437 1.76636 0
M  V30 3991 C 384.854 -6.01358 1.0868 0
M  V30 3992 C 385.852 -6.5644 1.88616 0
M  V30 3993 O 385.54 -7.53831 2.79273 0
M  V30 3994 H 385.272 -0.668983 -0.0971452 0
M  V30 3995 H 387.826 -2.02198 0.361248 0
M  V30 3996 H 386.056 -3.44206 -1.76235 0
M  V30 3997 H 387.745 -3.77065 -1.50257 0
M  V30 3998 H 388.511 -4.78974 0.762133 0
M  V30 3999 H 384.39 -4.58824 -0.447411 0
M  V30 4000 H 387.934 -6.55355 2.39071 0
M  V30 4001 H 383.831 -6.34746 1.17338 0
M  V30 4002 H 384.599 -7.71428 2.73572 0
M  V30 4003 N 387.262 0.0317525 -1.57568 0
M  V30 4004 C 388.172 1.05021 -2.0978 0
M  V30 4005 C 389.188 1.39809 -1.03583 0
M  V30 4006 O 390.364 1.49182 -1.35302 0
M  V30 4007 C 387.429 2.33301 -2.56459 0
M  V30 4008 C 386.49 2.0512 -3.77127 0
M  V30 4009 C 385.723 3.27283 -4.2157 0
M  V30 4010 O 385.946 4.37861 -3.65559 0
M  V30 4011 O 384.88 3.13141 -5.14029 0
M  V30 4012 H 388.706 0.636505 -2.96955 0
M  V30 4013 H 386.291 0.248559 -1.47318 0
M  V30 4014 H 388.173 3.08722 -2.86825 0
M  V30 4015 H 386.848 2.73973 -1.72397 0
M  V30 4016 H 385.755 1.27276 -3.51784 0
M  V30 4017 H 387.088 1.69305 -4.62165 0
M  V30 4018 N 388.74 1.54641 0.303973 0
M  V30 4019 C 389.989 1.7299 1.03717 0
M  V30 4020 C 390.302 0.521168 1.88529 0
M  V30 4021 O 391.508 0.586408 2.65092 0
M  V30 4022 C 389.964 3.06051 1.89369 0
M  V30 4023 C 389.572 4.34393 1.09574 0
M  V30 4024 C 391.316 3.3376 2.62306 0
M  V30 4025 C 389.223 5.58506 1.94486 0
M  V30 4026 H 388.153 0.64473 0.390947 0
M  V30 4027 H 390.804 1.81124 0.294328 0
M  V30 4028 H 389.186 2.91874 2.67629 0
M  V30 4029 H 390.36 4.59396 0.359485 0
M  V30 4030 H 388.675 4.13597 0.482324 0
M  V30 4031 H 391.272 4.23687 3.26181 0
M  V30 4032 H 391.615 2.52503 3.3098 0
M  V30 4033 H 392.148 3.48894 1.91097 0
M  V30 4034 H 388.887 6.42422 1.30287 0
M  V30 4035 H 388.407 5.37694 2.65792 0
M  V30 4036 H 390.086 5.95651 2.52605 0
M  V30 4037 N 390.218 -0.567019 1.47046 0
M  V30 4038 C 391.128 -1.70247 1.6141 0
M  V30 4039 C 392.144 -1.66746 0.497157 0
M  V30 4040 O 393.32 -1.86371 0.763389 0
M  V30 4041 C 390.385 -3.06756 1.61561 0
M  V30 4042 C 389.446 -3.21399 2.84607 0
M  V30 4043 C 388.679 -4.51396 2.84741 0
M  V30 4044 O 388.902 -5.36255 1.94388 0
M  V30 4045 O 387.836 -4.69621 3.76483 0
M  V30 4046 H 391.662 -1.61073 2.57467 0
M  V30 4047 H 389.247 -0.735894 1.30019 0
M  V30 4048 H 391.129 -3.8801 1.64396 0
M  V30 4049 H 389.804 -3.16333 0.686684 0
M  V30 4050 H 388.711 -2.39579 2.8732 0
M  V30 4051 H 390.044 -3.16721 3.76761 0
M  V30 4052 N 391.696 -1.35014 -0.812953 0
M  V30 4053 C 392.628 -1.23262 -1.93233 0
M  V30 4054 C 393.641 -0.157371 -1.62038 0
M  V30 4055 O 394.83 -0.410096 -1.73725 0
M  V30 4056 C 391.93 -0.87392 -3.27438 0
M  V30 4057 C 391.103 -2.04622 -3.86586 0
M  V30 4058 C 390.162 -1.66432 -4.99186 0
M  V30 4059 O 389.188 -2.38222 -5.16951 0
M  V30 4060 N 390.39 -0.584248 -5.77552 0
M  V30 4061 H 393.155 -2.19699 -2.03844 0
M  V30 4062 H 390.716 -1.281 -0.99005 0
M  V30 4063 H 392.708 -0.600039 -4.00227 0
M  V30 4064 H 391.278 0.00057392 -3.126 0
M  V30 4065 H 390.498 -2.48427 -3.06068 0
M  V30 4066 H 391.786 -2.82999 -4.22835 0
M  V30 4067 H 391.184 0.0123526 -5.65699 0
M  V30 4068 H 389.741 -0.37013 -6.50748 0
M  V30 4069 N 393.175 1.03435 -1.18907 0
M  V30 4070 C 394.125 2.09924 -0.889706 0
M  V30 4071 C 395.109 1.60261 0.143216 0
M  V30 4072 O 396.301 1.76892 -0.0617122 0
M  V30 4073 C 393.43 3.40669 -0.424168 0
M  V30 4074 C 392.516 3.97082 -1.48952 0
M  V30 4075 N 392.907 4.27227 -2.70759 0
M  V30 4076 C 391.205 4.25029 -1.35152 0
M  V30 4077 C 391.906 4.7246 -3.39347 0
M  V30 4078 N 390.882 4.7366 -2.66735 0
M  V30 4079 H 394.684 2.31116 -1.81555 0
M  V30 4080 H 392.198 1.21246 -1.08042 0
M  V30 4081 H 394.195 4.16461 -0.191176 0
M  V30 4082 H 392.855 3.20901 0.495263 0
M  V30 4083 H 393.866 4.16678 -3.0757 0
M  V30 4084 H 390.543 4.14554 -0.495126 0
M  V30 4085 H 391.933 5.04751 -4.43481 0
M  V30 4086 N 394.653 0.992116 1.22453 0
M  V30 4087 C 395.6 0.541731 2.24352 0
M  V30 4088 C 396.57 -0.425519 1.60557 0
M  V30 4089 O 397.755 -0.330453 1.87917 0
M  V30 4090 C 394.895 -0.138248 3.44823 0
M  V30 4091 C 394.008 0.870649 4.23136 0
M  V30 4092 C 393.143 0.164269 5.30946 0
M  V30 4093 C 392.182 1.16159 6.00977 0
M  V30 4094 N 391.319 0.483568 7.00433 0
M  V30 4095 H 396.159 1.41541 2.62241 0
M  V30 4096 H 393.696 0.709013 1.28885 0
M  V30 4097 H 395.654 -0.5494 4.13567 0
M  V30 4098 H 394.284 -0.975721 3.077 0
M  V30 4099 H 393.336 1.40013 3.53696 0
M  V30 4100 H 394.648 1.63014 4.7141 0
M  V30 4101 H 393.802 -0.303653 6.0594 0
M  V30 4102 H 392.541 -0.627733 4.83643 0
M  V30 4103 H 391.546 1.64015 5.24766 0
M  V30 4104 H 392.771 1.95445 6.50368 0
M  V30 4105 H 390.717 -0.289012 6.55363 0
M  V30 4106 H 390.634 1.18152 7.4671 0
M  V30 4107 H 391.902 0.0384219 7.79491 0
M  V30 4108 N 396.131 -1.37776 0.765217 0
M  V30 4109 C 397.38 -1.99092 0.323307 0
M  V30 4110 C 397.693 -1.61434 -1.10446 0
M  V30 4111 O 398.899 -2.15805 -1.64743 0
M  V30 4112 C 397.355 -3.56019 0.527098 0
M  V30 4113 C 396.963 -4.0262 1.96471 0
M  V30 4114 C 398.707 -4.2424 0.148483 0
M  V30 4115 C 396.614 -5.52233 2.11644 0
M  V30 4116 H 395.544 -0.744846 0.117137 0
M  V30 4117 H 398.195 -1.57391 0.943417 0
M  V30 4118 H 396.577 -3.95667 -0.162372 0
M  V30 4119 H 397.751 -3.74234 2.68859 0
M  V30 4120 H 396.066 -3.47161 2.29931 0
M  V30 4121 H 398.663 -5.34159 0.240456 0
M  V30 4122 H 399.006 -4.06446 -0.900422 0
M  V30 4123 H 399.539 -3.89872 0.79025 0
M  V30 4124 H 396.278 -5.74945 3.1483 0
M  V30 4125 H 395.798 -5.82324 1.4373 0
M  V30 4126 H 397.477 -6.18106 1.91193 0
M  V30 4127 N 397.609 -0.515225 -1.4894 0
M  V30 4128 C 398.519 0.259774 -2.33157 0
M  V30 4129 C 399.535 0.953501 -1.45548 0
M  V30 4130 O 400.711 0.931735 -1.78552 0
M  V30 4131 C 397.776 1.30193 -3.21326 0
M  V30 4132 C 396.837 0.620129 -4.24797 0
M  V30 4133 C 396.07 1.61263 -5.08753 0
M  V30 4134 O 396.293 2.84389 -4.94448 0
M  V30 4135 O 395.227 1.16013 -5.90614 0
M  V30 4136 H 399.053 -0.429932 -3.00641 0
M  V30 4137 H 396.638 -0.276346 -1.46822 0
M  V30 4138 H 398.52 1.90455 -3.75905 0
M  V30 4139 H 397.195 1.97431 -2.56521 0
M  V30 4140 H 396.102 -0.0226019 -3.74093 0
M  V30 4141 H 397.435 -0.0100493 -4.92199 0
M  V30 4142 N 399.087 1.5561 -0.249682 0
M  V30 4143 C 400.315 2.03411 0.378352 0
M  V30 4144 C 400.73 1.12886 1.51335 0
M  V30 4145 O 400.087 0.143833 1.81932 0
M  V30 4146 C 400.138 3.50537 0.88351 0
M  V30 4147 O 399.859 4.37614 -0.20626 0
M  V30 4148 C 401.36 4.14113 1.58195 0
M  V30 4149 H 398.58 0.664994 0.08958 0
M  V30 4150 H 401.124 2.01044 -0.374357 0
M  V30 4151 H 399.279 3.5343 1.58639 0
M  V30 4152 H 399.693 5.24199 0.177782 0
M  V30 4153 H 401.167 5.18741 1.8871 0
M  V30 4154 H 401.644 3.60767 2.50487 0
M  V30 4155 H 402.25 4.15151 0.923573 0
M  V30 4156 N 400.565 -0.0233959 1.57583 0
M  V30 4157 C 401.811 -0.708611 1.90657 0
M  V30 4158 C 402.166 -1.7266 0.848895 0
M  V30 4159 O 401.459 -1.91075 -0.141749 0
M  V30 4160 C 401.653 -1.41428 3.28227 0
M  V30 4161 C 401.482 -0.466155 4.47277 0
M  V30 4162 C 400.252 -0.085117 5.05228 0
M  V30 4163 C 402.45 0.257836 5.13653 0
M  V30 4164 N 400.432 0.863672 6.07794 0
M  V30 4165 C 401.803 1.06209 6.10835 0
M  V30 4166 C 403.858 0.324174 4.96844 0
M  V30 4167 C 402.561 1.9266 6.93018 0
M  V30 4168 C 404.587 1.17583 5.79593 0
M  V30 4169 C 403.949 1.96799 6.7635 0
M  V30 4170 H 400.048 -0.233222 0.746412 0
M  V30 4171 H 402.632 0.0314512 1.94675 0
M  V30 4172 H 400.803 -2.12477 3.25128 0
M  V30 4173 H 402.535 -2.05233 3.488 0
M  V30 4174 H 399.29 -0.448516 4.71471 0
M  V30 4175 H 399.714 1.33274 6.63752 0
M  V30 4176 H 404.356 -0.273975 4.21911 0
M  V30 4177 H 402.074 2.53552 7.67292 0
M  V30 4178 H 405.66 1.23076 5.68633 0
M  V30 4179 H 404.54 2.61635 7.39268 0
M  V30 4180 N 402.043 -1.548 -0.295768 0
M  V30 4181 C 403.459 -1.4613 -0.641722 0
M  V30 4182 C 403.659 -0.656771 -1.90496 0
M  V30 4183 O 402.715 -0.166547 -2.5195 0
M  V30 4184 C 404.028 -2.90141 -0.789852 0
M  V30 4185 C 405.576 -3.00216 -0.885396 0
M  V30 4186 C 406.051 -4.45434 -1.06548 0
M  V30 4187 N 407.542 -4.49166 -1.13156 0
M  V30 4188 C 408.277 -5.58717 -1.28929 0
M  V30 4189 N 407.773 -6.78182 -1.41567 0
M  V30 4190 N 409.566 -5.46415 -1.31859 0
M  V30 4191 H 401.717 -2.05574 0.534147 0
M  V30 4192 H 403.98 -0.931259 0.177372 0
M  V30 4193 H 403.686 -3.51635 0.0675598 0
M  V30 4194 H 403.56 -3.37859 -1.67724 0
M  V30 4195 H 405.947 -2.38833 -1.73329 0
M  V30 4196 H 406.028 -2.55787 0.0261185 0
M  V30 4197 H 405.672 -5.07413 -0.222335 0
M  V30 4198 H 405.602 -4.87499 -1.9913 0
M  V30 4199 H 408.093 -3.631 -1.04721 0
M  V30 4200 H 408.406 -7.57428 -1.53372 0
M  V30 4201 H 406.751 -6.81037 -1.38613 0
M  V30 4202 H 409.942 -4.5203 -1.21601 0
M  V30 4203 H 410.115 -6.31841 -1.43808 0
M  V30 4204 N 403.521 0.559213 -1.47345 0
M  V30 4205 C 404.431 1.69388 -1.62311 0
M  V30 4206 C 405.447 1.6648 -0.505993 0
M  V30 4207 O 406.623 1.85964 -0.773262 0
M  V30 4208 C 403.688 3.05894 -1.63185 0
M  V30 4209 C 402.749 3.19885 -2.86307 0
M  V30 4210 C 401.982 4.49879 -2.87131 0
M  V30 4211 O 402.205 5.35217 -1.97229 0
M  V30 4212 O 401.139 4.67618 -3.78968 0
M  V30 4213 H 404.965 1.59706 -2.58317 0
M  V30 4214 H 402.55 0.728989 -1.30407 0
M  V30 4215 H 404.432 3.87133 -1.66451 0
M  V30 4216 H 403.107 3.15964 -0.70345 0
M  V30 4217 H 402.014 2.38052 -2.88587 0
M  V30 4218 H 403.347 3.14718 -3.78435 0
M  V30 4219 N 404.999 1.35443 0.805782 0
M  V30 4220 C 406.248 1.28097 1.55801 0
M  V30 4221 C 406.561 -0.142428 1.95081 0
M  V30 4222 O 407.767 -0.33817 2.69386 0
M  V30 4223 C 406.223 2.24653 2.81174 0
M  V30 4224 C 405.831 3.72342 2.49129 0
M  V30 4225 C 407.575 2.2625 3.59181 0
M  V30 4226 C 405.482 4.60719 3.70799 0
M  V30 4227 H 404.412 0.475937 0.584808 0
M  V30 4228 H 407.063 1.60712 0.885661 0
M  V30 4229 H 405.445 1.85011 3.50124 0
M  V30 4230 H 406.619 4.20624 1.88181 0
M  V30 4231 H 404.934 3.73361 1.84366 0
M  V30 4232 H 407.531 2.89495 4.49552 0
M  V30 4233 H 407.874 1.26647 3.96568 0
M  V30 4234 H 408.407 2.64426 2.97193 0
M  V30 4235 H 405.146 5.61324 3.3852 0
M  V30 4236 H 404.666 4.17163 4.3097 0
M  V30 4237 H 406.345 4.76182 4.38018 0
M  V30 4238 N 406.477 -1.02803 1.19454 0
M  V30 4239 C 407.707 -1.79581 1.02149 0
M  V30 4240 C 408.115 -1.84182 -0.432851 0
M  V30 4241 O 407.458 -1.28534 -1.31243 0
M  V30 4242 C 407.52 -3.25993 1.51554 0
M  V30 4243 C 407.184 -3.45025 2.99678 0
M  V30 4244 C 408.181 -3.35175 3.97434 0
M  V30 4245 C 405.866 -3.71212 3.38389 0
M  V30 4246 C 407.86 -3.51238 5.31893 0
M  V30 4247 C 405.547 -3.8692 4.73008 0
M  V30 4248 C 406.545 -3.76936 5.69569 0
M  V30 4249 O 406.233 -3.92179 7.01748 0
M  V30 4250 H 405.965 -0.571962 0.360327 0
M  V30 4251 H 408.519 -1.30367 1.58725 0
M  V30 4252 H 406.749 -3.76235 0.893543 0
M  V30 4253 H 408.438 -3.84368 1.30444 0
M  V30 4254 H 409.204 -3.14895 3.68872 0
M  V30 4255 H 405.083 -3.78075 2.6378 0
M  V30 4256 H 408.627 -3.43362 6.07247 0
M  V30 4257 H 404.524 -4.06699 5.01265 0
M  V30 4258 H 405.292 -4.09265 7.08833 0
M  V30 4259 N 407.956 -0.998596 -1.21925 0
M  V30 4260 C 408.886 -0.573688 -2.26343 0
M  V30 4261 C 409.867 0.402296 -1.65274 0
M  V30 4262 O 411.052 0.291683 -1.91997 0
M  V30 4263 C 408.182 0.106839 -3.47136 0
M  V30 4264 C 407.136 -0.788269 -4.20678 0
M  V30 4265 C 406.462 0.0254927 -5.34694 0
M  V30 4266 C 407.762 -2.08784 -4.78755 0
M  V30 4267 H 409.456 -1.44651 -2.62138 0
M  V30 4268 H 407.002 -0.696975 -1.26009 0
M  V30 4269 H 408.955 0.415531 -4.19346 0
M  V30 4270 H 407.679 1.01424 -3.10452 0
M  V30 4271 H 406.338 -1.08069 -3.50309 0
M  V30 4272 H 405.986 0.933989 -4.94253 0
M  V30 4273 H 405.686 -0.570437 -5.84825 0
M  V30 4274 H 407.21 0.328147 -6.09718 0
M  V30 4275 H 408.624 -1.84272 -5.42878 0
M  V30 4276 H 407.021 -2.63307 -5.39249 0
M  V30 4277 H 408.091 -2.76284 -3.98491 0
M  V30 4278 N 409.434 1.37368 -0.772513 0
M  V30 4279 C 410.366 2.28899 -0.117502 0
M  V30 4280 C 411.379 1.4867 0.663405 0
M  V30 4281 O 412.568 1.71314 0.501372 0
M  V30 4282 C 409.668 3.2788 0.857192 0
M  V30 4283 C 408.841 4.37207 0.129938 0
M  V30 4284 C 407.9 5.16257 1.01811 0
M  V30 4285 O 406.926 5.67159 0.481601 0
M  V30 4286 N 408.128 5.31058 2.3443 0
M  V30 4287 H 410.893 2.85752 -0.903662 0
M  V30 4288 H 408.454 1.49353 -0.62493 0
M  V30 4289 H 410.446 3.77647 1.45482 0
M  V30 4290 H 409.016 2.7179 1.54432 0
M  V30 4291 H 408.236 3.88827 -0.648605 0
M  V30 4292 H 409.524 5.07434 -0.372559 0
M  V30 4293 H 408.922 4.91287 2.80452 0
M  V30 4294 H 407.479 5.84131 2.89197 0
M  V30 4295 N 410.912 0.523116 1.48665 0
M  V30 4296 C 412.16 -0.0134497 2.02096 0
M  V30 4297 C 412.481 -1.35418 1.40311 0
M  V30 4298 O 411.751 -1.87543 0.566074 0
M  V30 4299 H 410.331 -0.00795915 0.746958 0
M  V30 4300 H 412.993 0.685388 1.82451 0
M  V30 4301 H 412.089 -0.126849 3.11842 0
M  V30 4302 N 412.39 -1.55475 0.257931 0
M  V30 4303 C 413.63 -2.01112 -0.365129 0
M  V30 4304 C 413.994 -1.1423 -1.54323 0
M  V30 4305 O 415.195 -1.49371 -2.23477 0
M  V30 4306 C 413.466 -3.49353 -0.754117 0
M  V30 4307 S 415.025 -4.16992 -1.36614 0
M  V30 4308 H 411.843 -0.701737 -0.114397 0
M  V30 4309 H 414.445 -1.91855 0.375747 0
M  V30 4310 H 413.149 -4.10246 0.112441 0
M  V30 4311 H 412.68 -3.6256 -1.52689 0
M  V30 4312 H 414.695 -4.19191 -2.65505 0
M  V30 4313 N 413.868 0.0150385 -1.57593 0
M  V30 4314 C 415.115 0.703001 -1.89906 0
M  V30 4315 C 415.443 1.74604 -0.856944 0
M  V30 4316 O 414.698 1.95197 0.140287 0
M  V30 4317 C 414.997 1.39686 -3.28972 0
M  V30 4318 C 414.663 0.488457 -4.48246 0
M  V30 4319 C 413.325 0.2383 -4.8061 0
M  V30 4320 C 415.677 -0.137881 -5.21018 0
M  V30 4321 C 413.005 -0.646738 -5.83125 0
M  V30 4322 C 415.357 -1.0107 -6.24474 0
M  V30 4323 C 414.021 -1.27019 -6.55303 0
M  V30 4324 H 413.291 0.257246 -0.694914 0
M  V30 4325 H 415.938 -0.037259 -1.91464 0
M  V30 4326 H 414.243 2.21079 -3.23468 0
M  V30 4327 H 415.94 1.93495 -3.51227 0
M  V30 4328 H 412.53 0.693593 -4.22951 0
M  V30 4329 H 416.714 0.0423953 -4.96282 0
M  V30 4330 H 411.97 -0.855937 -6.05379 0
M  V30 4331 H 416.144 -1.50247 -6.79999 0
M  V30 4332 H 413.771 -1.95769 -7.3456 0
M  V30 4333 N 415.346 1.54954 0.287554 0
M  V30 4334 C 416.293 1.86834 1.35505 0
M  V30 4335 C 417.263 0.718452 1.49758 0
M  V30 4336 O 418.448 0.968358 1.644 0
M  V30 4337 C 415.588 2.13303 2.71286 0
M  V30 4338 C 414.701 3.40883 2.65373 0
M  V30 4339 C 413.836 3.57125 3.93236 0
M  V30 4340 C 412.875 4.78449 3.81776 0
M  V30 4341 N 412.012 4.91426 5.01443 0
M  V30 4342 H 416.852 2.77889 1.07619 0
M  V30 4343 H 414.389 1.37593 0.520241 0
M  V30 4344 H 416.347 2.26646 3.50267 0
M  V30 4345 H 414.977 1.25499 2.97405 0
M  V30 4346 H 414.029 3.36088 1.78182 0
M  V30 4347 H 415.341 4.29993 2.52799 0
M  V30 4348 H 414.495 3.70207 4.80658 0
M  V30 4349 H 413.234 2.66173 4.0866 0
M  V30 4350 H 412.239 4.65386 2.92738 0
M  V30 4351 H 413.464 5.70822 3.67884 0
M  V30 4352 H 411.41 4.03401 5.17304 0
M  V30 4353 H 411.327 5.74559 4.91343 0
M  V30 4354 H 412.595 5.08879 5.90477 0
M  V30 4355 N 416.824 -0.551391 1.4764 0
M  V30 4356 C 418.235 -1.13349 1.48354 0
M  V30 4357 C 418.586 -1.94709 0.241432 0
M  V30 4358 O 417.711 -2.06306 -0.653205 0
M  V30 4359 C 418.306 -2.0623 2.68802 0
M  V30 4360 C 416.865 -2.597 2.72457 0
M  V30 4361 C 416.012 -1.36201 2.41546 0
M  V30 4362 H 418.963 -0.337698 1.55065 0
M  V30 4363 H 418.984 -2.90196 2.46103 0
M  V30 4364 H 418.496 -1.46987 3.59188 0
M  V30 4365 H 416.597 -3.22724 1.86225 0
M  V30 4366 H 416.71 -3.00296 3.73308 0
M  V30 4367 H 415.074 -1.67068 1.9225 0
M  V30 4368 H 415.857 -0.787425 3.34147 0
M  V30 4369 N 418.302 -1.35869 -0.798587 0
M  V30 4370 C 419.232 -1.32118 -1.92528 0
M  V30 4371 C 420.213 -0.194209 -1.68988 0
M  V30 4372 O 421.398 -0.390426 -1.90235 0
M  V30 4373 C 418.528 -1.10047 -3.29404 0
M  V30 4374 C 417.482 -2.19471 -3.67446 0
M  V30 4375 C 416.808 -1.82555 -5.02571 0
M  V30 4376 C 418.108 -3.61495 -3.76987 0
M  V30 4377 H 419.802 -2.26394 -1.95924 0
M  V30 4378 H 417.348 -1.08981 -0.94123 0
M  V30 4379 H 419.301 -1.06061 -4.07835 0
M  V30 4380 H 418.025 -0.122195 -3.26371 0
M  V30 4381 H 416.684 -2.22568 -2.91306 0
M  V30 4382 H 416.332 -0.833249 -4.9605 0
M  V30 4383 H 416.032 -2.5581 -5.28995 0
M  V30 4384 H 417.556 -1.80108 -5.83432 0
M  V30 4385 H 418.97 -3.60676 -4.4563 0
M  V30 4386 H 417.367 -4.33577 -4.14887 0
M  V30 4387 H 418.437 -3.97065 -2.78329 0
M  V30 4388 N 419.78 1.02168 -1.19998 0
M  V30 4389 C 421.026 1.75945 -1.00852 0
M  V30 4390 C 421.359 1.88702 0.458828 0
M  V30 4391 O 420.634 1.40911 1.34069 0
M  V30 4392 C 420.917 3.18154 -1.68671 0
M  V30 4393 C 420.77 3.13224 -3.22817 0
M  V30 4394 C 422.089 4.16711 -1.41561 0
M  V30 4395 H 419.208 0.638673 -0.367785 0
M  V30 4396 H 421.85 1.19222 -1.4794 0
M  V30 4397 H 420 3.66586 -1.28636 0
M  V30 4398 H 421.672 2.72635 -3.72112 0
M  V30 4399 H 419.915 2.50751 -3.53986 0
M  V30 4400 H 420.586 4.13728 -3.65422 0
M  V30 4401 H 423.062 3.76913 -1.76284 0
M  V30 4402 H 421.938 5.14391 -1.91553 0
M  V30 4403 H 422.199 4.40774 -0.342193 0
M  V30 4404 N 421.258 1.00505 1.21394 0
M  V30 4405 C 422.483 0.706367 1.95001 0
M  V30 4406 C 422.908 -0.72463 1.73582 0
M  V30 4407 O 422.266 -1.49702 1.0227 0
M  V30 4408 C 422.314 1.03299 3.45487 0
M  V30 4409 O 421.418 0.138275 4.12168 0
M  V30 4410 H 420.759 0.263175 0.609619 0
M  V30 4411 H 423.289 1.34531 1.54151 0
M  V30 4412 H 423.299 0.979872 3.96059 0
M  V30 4413 H 421.974 2.07567 3.60401 0
M  V30 4414 H 420.551 0.247928 3.72075 0
M  V30 4415 N 422.737 -1.36956 0.779787 0
M  V30 4416 C 423.986 -1.98738 0.344405 0
M  V30 4417 C 424.299 -1.62596 -1.08728 0
M  V30 4418 O 425.505 -2.1754 -1.62445 0
M  V30 4419 C 423.961 -3.5544 0.564829 0
M  V30 4420 C 423.569 -4.00514 2.0073 0
M  V30 4421 C 425.313 -4.24059 0.193471 0
M  V30 4422 C 423.22 -5.49957 2.17489 0
M  V30 4423 H 422.15 -0.743561 0.12503 0
M  V30 4424 H 424.801 -1.56381 0.960057 0
M  V30 4425 H 423.183 -3.95817 -0.120397 0
M  V30 4426 H 424.357 -3.71362 2.72814 0
M  V30 4427 H 422.672 -3.44703 2.336 0
M  V30 4428 H 425.269 -5.33874 0.297097 0
M  V30 4429 H 425.612 -4.07378 -0.857263 0
M  V30 4430 H 426.145 -3.89012 0.831556 0
M  V30 4431 H 422.884 -5.71574 3.2091 0
M  V30 4432 H 422.404 -5.80767 1.49899 0
M  V30 4433 H 424.083 -6.16043 1.97738 0
M  V30 4434 N 424.215 -0.530993 -1.48385 0
M  V30 4435 C 425.44 0.000729535 -2.074 0
M  V30 4436 C 425.865 1.27298 -1.3848 0
M  V30 4437 O 425.223 1.75599 -0.451081 0
M  V30 4438 C 425.271 0.206697 -3.60007 0
M  V30 4439 O 424.375 1.27514 -3.92191 0
M  V30 4440 H 423.716 -0.039583 -0.662819 0
M  V30 4441 H 426.246 -0.739194 -1.9078 0
M  V30 4442 H 426.256 0.42904 -4.05738 0
M  V30 4443 H 424.931 -0.722675 -4.09573 0
M  V30 4444 H 423.508 1.03537 -3.58238 0
M  V30 4445 N 425.693 1.55336 -0.266172 0
M  V30 4446 C 427.104 1.85236 0.233315 0
M  V30 4447 C 427.455 1.18816 1.56132 0
M  V30 4448 O 426.58 0.473307 2.11161 0
M  V30 4449 C 427.175 3.36059 0.430113 0
M  V30 4450 C 425.734 3.66116 0.873842 0
M  V30 4451 C 424.881 2.77274 -0.0380016 0
M  V30 4452 H 427.832 1.51004 -0.488214 0
M  V30 4453 H 427.853 3.58681 1.26998 0
M  V30 4454 H 427.365 3.84373 -0.536588 0
M  V30 4455 H 425.466 3.23295 1.85233 0
M  V30 4456 H 425.579 4.73699 0.717358 0
M  V30 4457 H 423.943 2.50198 0.476759 0
M  V30 4458 H 424.726 3.284 -1.00042 0
M  V30 4459 N 427.171 -0.0066808 1.57599 0
M  V30 4460 C 428.119 -1.01851 2.09115 0
M  V30 4461 C 429.113 -1.36021 1.00969 0
M  V30 4462 O 430.319 -1.34663 1.19439 0
M  V30 4463 H 426.694 -0.346083 0.667631 0
M  V30 4464 H 428.665 -0.558394 2.93129 0
M  V30 4465 C 427.414 -2.30374 2.60429 0
M  V30 4466 H 426.737 -2.04947 3.43273 0
M  V30 4467 H 428.177 -2.99466 3.00161 0
M  V30 4468 C 426.636 -3.00893 1.51542 0
M  V30 4469 O 427.166 -3.91614 0.894484 0
M  V30 4470 N 425.372 -2.62603 1.2445 0
M  V30 4471 H 424.919 -1.88911 1.75129 0
M  V30 4472 H 424.877 -3.10101 0.518137 0
M  V30 4473 N 428.649 -1.55105 -0.279332 0
M  V30 4474 C 429.926 -1.66119 -1.03267 0
M  V30 4475 C 430.306 -0.523525 -2.04505 0
M  V30 4476 O 429.654 0.477194 -2.23462 0
M  V30 4477 C 429.864 -3.05067 -1.69515 0
M  V30 4478 C 431.212 -3.62606 -2.20912 0
M  V30 4479 O 432.236 -3.07659 -1.79512 0
M  V30 4480 O 431.095 -4.58861 -2.96831 0
M  V30 4481 H 428.189 -0.674429 -0.478618 0
M  V30 4482 H 430.735 -1.67446 -0.275694 0
M  V30 4483 H 429.507 -3.79311 -0.9612 0
M  V30 4484 H 429.13 -3.07611 -2.51915 0
M  V30 4485 N 430.127 0.543554 -1.4793 0
M  V30 4486 C 431.352 1.32995 -1.59145 0
M  V30 4487 C 431.777 1.86472 -0.246956 0
M  V30 4488 O 431.135 1.63696 0.779324 0
M  V30 4489 C 431.183 2.46623 -2.63077 0
M  V30 4490 O 430.287 3.49261 -2.19295 0
M  V30 4491 H 429.628 0.394472 -0.534124 0
M  V30 4492 H 432.158 0.655489 -1.93816 0
M  V30 4493 H 432.168 2.93001 -2.83926 0
M  V30 4494 H 430.843 2.07059 -3.60693 0
M  V30 4495 H 429.42 3.09094 -2.08603 0
M  V30 4496 N 431.605 1.3629 0.791371 0
M  V30 4497 C 432.535 1.33137 1.91825 0
M  V30 4498 C 433.516 0.203168 1.68882 0
M  V30 4499 O 434.701 0.400509 1.90025 0
M  V30 4500 C 431.831 1.11793 3.28816 0
M  V30 4501 C 430.785 2.21417 3.66277 0
M  V30 4502 C 430.111 1.85218 5.01596 0
M  V30 4503 C 431.411 3.63489 3.75064 0
M  V30 4504 H 433.105 2.2743 1.9472 0
M  V30 4505 H 430.651 1.09479 0.935437 0
M  V30 4506 H 432.604 1.08222 4.07266 0
M  V30 4507 H 431.328 0.139501 3.26302 0
M  V30 4508 H 429.987 2.2411 2.90121 0
M  V30 4509 H 429.635 0.859544 4.95602 0
M  V30 4510 H 429.335 2.58611 5.27631 0
M  V30 4511 H 430.859 1.832 5.82469 0
M  V30 4512 H 432.273 3.63034 4.43711 0
M  V30 4513 H 430.67 4.35771 4.12582 0
M  V30 4514 H 431.74 3.98536 2.76219 0
M  V30 4515 N 433.083 -1.0153 1.20538 0
M  V30 4516 C 434.33 -1.75149 1.01633 0
M  V30 4517 C 434.658 -1.89189 -0.451399 0
M  V30 4518 O 433.913 -1.41551 -1.35136 0
M  V30 4519 C 434.212 -3.17213 1.64654 0
M  V30 4520 C 433.878 -3.23146 3.14464 0
M  V30 4521 C 432.54 -3.24472 3.55347 0
M  V30 4522 C 434.892 -3.21207 4.10458 0
M  V30 4523 C 432.22 -3.21532 4.90748 0
M  V30 4524 C 434.572 -3.19808 5.45807 0
M  V30 4525 C 433.236 -3.19439 5.86102 0
M  V30 4526 H 432.506 -0.640914 0.3719 0
M  V30 4527 H 435.153 -1.19071 1.49981 0
M  V30 4528 H 433.458 -3.76457 1.08571 0
M  V30 4529 H 435.155 -3.72871 1.4754 0
M  V30 4530 H 431.745 -3.2285 2.81897 0
M  V30 4531 H 435.929 -3.19351 3.79906 0
M  V30 4532 H 431.185 -3.19578 5.21229 0
M  V30 4533 H 435.359 -3.1726 6.19935 0
M  V30 4534 H 432.986 -3.16915 6.90991 0
M  V30 4535 N 434.561 -1.01147 -1.20859 0
M  V30 4536 C 435.471 -0.58686 -2.27141 0
M  V30 4537 C 436.487 0.373198 -1.69951 0
M  V30 4538 O 437.663 0.235423 -2.00019 0
M  V30 4539 C 434.728 0.0733602 -3.46622 0
M  V30 4540 C 433.789 -0.931995 -4.19061 0
M  V30 4541 C 433.022 -0.303186 -5.32838 0
M  V30 4542 O 433.245 0.898395 -5.63281 0
M  V30 4543 O 432.179 -1.01735 -5.9324 0
M  V30 4544 H 436.005 -1.47155 -2.65667 0
M  V30 4545 H 433.59 -0.780689 -1.2738 0
M  V30 4546 H 435.472 0.442333 -4.19072 0
M  V30 4547 H 434.147 0.932329 -3.09983 0
M  V30 4548 H 433.054 -1.35224 -3.48805 0
M  V30 4549 H 434.387 -1.76076 -4.59628 0
M  V30 4550 N 436.039 1.36541 -0.78704 0
M  V30 4551 C 437.002 2.28413 -0.189778 0
M  V30 4552 C 438.002 1.48719 0.611499 0
M  V30 4553 O 439.192 1.68737 0.432842 0
M  V30 4554 C 436.324 3.32824 0.737638 0
M  V30 4555 H 437.517 2.82743 -0.999831 0
M  V30 4556 H 435.07 1.46065 -0.556298 0
M  V30 4557 H 435.805 2.83646 1.57212 0
M  V30 4558 H 435.59 3.91752 0.165044 0
M  V30 4559 H 437.08 4.0144 1.15047 0
M  V30 4560 N 437.518 0.538854 1.48102 0
M  V30 4561 C 438.764 0.00801365 2.02798 0
M  V30 4562 C 439.097 -1.3309 1.41424 0
M  V30 4563 O 438.372 -1.86169 0.563158 0
M  V30 4564 C 438.655 -0.104589 3.59948 0
M  V30 4565 C 438.508 1.26012 4.31788 0
M  V30 4566 C 439.827 -0.827055 4.32259 0
M  V30 4567 H 436.946 0.00438624 0.736987 0
M  V30 4568 H 439.588 0.6976 1.7673 0
M  V30 4569 H 437.738 -0.691893 3.82289 0
M  V30 4570 H 439.41 1.88922 4.2084 0
M  V30 4571 H 437.653 1.83968 3.92859 0
M  V30 4572 H 438.324 1.13424 5.40221 0
M  V30 4573 H 440.8 -0.328578 4.14801 0
M  V30 4574 H 439.676 -0.87476 5.41885 0
M  V30 4575 H 439.937 -1.87927 4.0017 0
M  V30 4576 N 438.996 -1.55193 0.274407 0
M  V30 4577 C 440.226 -2.03692 -0.345442 0
M  V30 4578 C 440.634 -1.15224 -1.50067 0
M  V30 4579 O 439.977 -0.164749 -1.8296 0
M  V30 4580 C 440.039 -3.48325 -0.88939 0
M  V30 4581 C 439.703 -4.56794 0.137115 0
M  V30 4582 C 440.7 -5.11028 0.956378 0
M  V30 4583 C 438.385 -5.01568 0.27115 0
M  V30 4584 C 440.379 -6.08552 1.89587 0
M  V30 4585 C 438.066 -5.98918 1.21412 0
M  V30 4586 C 439.064 -6.52291 2.02498 0
M  V30 4587 O 438.752 -7.47738 2.952 0
M  V30 4588 H 438.484 -0.670893 -0.0829332 0
M  V30 4589 H 441.038 -2.01387 0.404056 0
M  V30 4590 H 439.268 -3.47867 -1.68895 0
M  V30 4591 H 440.957 -3.80167 -1.42225 0
M  V30 4592 H 441.723 -4.7725 0.863559 0
M  V30 4593 H 437.602 -4.5967 -0.349987 0
M  V30 4594 H 441.146 -6.50137 2.52918 0
M  V30 4595 H 437.043 -6.32114 1.30776 0
M  V30 4596 H 437.811 -7.65451 2.89874 0
M  V30 4597 N 440.474 -0.00167713 -1.576 0
M  V30 4598 C 441.702 0.693759 -1.94922 0
M  V30 4599 C 442.117 1.67215 -0.876626 0
M  V30 4600 O 441.474 1.81929 0.144279 0
M  V30 4601 C 441.525 1.42416 -3.32265 0
M  V30 4602 O 441.246 0.485014 -4.35407 0
M  V30 4603 C 442.747 2.21395 -3.84056 0
M  V30 4604 H 439.967 0.193118 -0.642609 0
M  V30 4605 H 442.511 -0.0532952 -2.04431 0
M  V30 4606 H 440.666 2.12284 -3.24059 0
M  V30 4607 H 441.08 1.00053 -5.14868 0
M  V30 4608 H 442.554 2.67996 -4.82578 0
M  V30 4609 H 443.031 3.04142 -3.16851 0
M  V30 4610 H 443.637 1.56542 -3.95443 0
M  V30 4611 N 441.952 1.55251 0.271103 0
M  V30 4612 C 442.882 1.9127 1.33933 0
M  V30 4613 C 443.863 0.77478 1.5143 0
M  V30 4614 O 445.048 1.03307 1.64442 0
M  V30 4615 C 442.178 2.18627 2.69851 0
M  V30 4616 C 441.132 3.34442 2.67081 0
M  V30 4617 C 440.458 3.47284 4.06569 0
M  V30 4618 C 441.758 4.70784 2.26185 0
M  V30 4619 H 443.452 2.80744 1.04035 0
M  V30 4620 H 440.998 1.35077 0.499017 0
M  V30 4621 H 442.951 2.42413 3.44694 0
M  V30 4622 H 441.675 1.25955 3.01335 0
M  V30 4623 H 440.334 3.10627 1.94695 0
M  V30 4624 H 439.982 2.52074 4.35279 0
M  V30 4625 H 439.682 4.25152 4.0561 0
M  V30 4626 H 441.206 3.73363 4.83148 0
M  V30 4627 H 442.62 4.94102 2.90751 0
M  V30 4628 H 441.017 5.51582 2.36384 0
M  V30 4629 H 442.087 4.69478 1.21319 0
M  V30 4630 N 443.43 -0.535701 1.48216 0
M  V30 4631 C 444.679 -1.28828 1.55197 0
M  V30 4632 C 444.992 -1.94263 0.228278 0
M  V30 4633 O 446.198 -2.70927 0.176278 0
M  V30 4634 C 444.654 -2.33727 2.73678 0
M  V30 4635 C 444.262 -1.74386 4.12666 0
M  V30 4636 C 446.006 -3.1003 2.89968 0
M  V30 4637 C 443.913 -2.77192 5.22416 0
M  V30 4638 H 442.843 -0.484484 0.577747 0
M  V30 4639 H 445.494 -0.56646 1.74538 0
M  V30 4640 H 443.876 -3.08919 2.4776 0
M  V30 4641 H 445.05 -1.05421 4.48579 0
M  V30 4642 H 443.365 -1.10595 4.01445 0
M  V30 4643 H 445.962 -3.86842 3.6913 0
M  V30 4644 H 446.305 -3.65542 1.9921 0
M  V30 4645 H 446.838 -2.41952 3.15759 0
M  V30 4646 H 443.577 -2.26507 6.15122 0
M  V30 4647 H 443.097 -3.44502 4.90998 0
M  V30 4648 H 444.776 -3.40285 5.50286 0
M  V30 4649 N 444.908 -1.36708 -0.784132 0
M  V30 4650 C 445.855 -1.31466 -1.89698 0
M  V30 4651 C 446.825 -0.18239 -1.65096 0
M  V30 4652 O 448.01 -0.369762 -1.87183 0
M  V30 4653 C 445.15 -1.1151 -3.26588 0
M  V30 4654 C 444.263 -2.33859 -3.63227 0
M  V30 4655 C 443.398 -2.06873 -4.89262 0
M  V30 4656 C 442.437 -3.25154 -5.18595 0
M  V30 4657 N 441.574 -2.978 -6.35814 0
M  V30 4658 H 446.414 -2.26619 -1.93515 0
M  V30 4659 H 443.951 -1.12625 -0.946256 0
M  V30 4660 H 445.909 -0.979653 -4.05535 0
M  V30 4661 H 444.539 -0.200103 -3.22179 0
M  V30 4662 H 443.591 -2.58188 -2.79362 0
M  V30 4663 H 444.903 -3.22109 -3.8085 0
M  V30 4664 H 444.057 -1.90289 -5.76086 0
M  V30 4665 H 442.796 -1.15942 -4.73718 0
M  V30 4666 H 441.801 -3.42292 -4.30251 0
M  V30 4667 H 443.026 -4.1692 -5.36055 0
M  V30 4668 H 440.972 -2.09485 -6.21653 0
M  V30 4669 H 440.889 -3.7959 -6.53794 0
M  V30 4670 H 442.157 -2.84805 -7.25607 0
M  V30 4671 N 446.386 1.0089 -1.21074 0
M  V30 4672 C 447.334 2.11707 -0.963476 0
M  V30 4673 C 448.328 1.69172 0.0879032 0
M  V30 4674 O 449.534 1.79889 -0.0631415 0
M  V30 4675 H 445.909 0.692026 -0.294287 0
M  V30 4676 H 447.88 2.29743 -1.90422 0
M  V30 4677 C 446.629 3.43473 -0.540509 0
M  V30 4678 H 445.952 3.76634 -1.34114 0
M  V30 4679 H 447.392 4.22044 -0.406777 0
M  V30 4680 C 445.851 3.2849 0.748079 0
M  V30 4681 O 446.381 3.58883 1.8046 0
M  V30 4682 N 444.587 2.81715 0.713081 0
M  V30 4683 H 444.134 2.5718 -0.146973 0
M  V30 4684 H 444.092 2.72071 1.57558 0
M  V30 4685 N 447.864 1.01787 1.20321 0
M  V30 4686 C 449.28 0.732951 1.41774 0
M  V30 4687 C 449.48 -0.686883 1.89431 0
M  V30 4688 O 448.536 -1.45446 2.06402 0
M  V30 4689 C 449.849 1.75973 2.43832 0
M  V30 4690 C 451.397 1.77802 2.57596 0
M  V30 4691 C 451.872 2.7941 3.62897 0
M  V30 4692 N 453.363 2.78157 3.70382 0
M  V30 4693 C 454.098 3.53434 4.51521 0
M  V30 4694 N 453.594 4.38392 5.36455 0
M  V30 4695 N 455.387 3.42026 4.46066 0
M  V30 4696 H 447.538 1.93447 0.877035 0
M  V30 4697 H 449.801 0.835712 0.447536 0
M  V30 4698 H 449.507 2.77699 2.15815 0
M  V30 4699 H 449.381 1.57292 3.4284 0
M  V30 4700 H 451.768 0.767602 2.84942 0
M  V30 4701 H 451.849 2.00557 1.58779 0
M  V30 4702 H 451.493 3.80616 3.36295 0
M  V30 4703 H 451.423 2.53916 4.61339 0
M  V30 4704 H 453.914 2.16531 3.09714 0
M  V30 4705 H 454.227 4.92596 5.95457 0
M  V30 4706 H 452.572 4.4247 5.35953 0
M  V30 4707 H 455.763 2.75075 3.78749 0
M  V30 4708 H 455.936 4.00946 5.09064 0
M  V30 4709 N 449.342 -1.36122 0.79427 0
M  V30 4710 C 450.591 -1.98361 0.365464 0
M  V30 4711 C 450.904 -1.6374 -1.06997 0
M  V30 4712 O 452.11 -2.19251 -1.60129 0
M  V30 4713 C 450.566 -3.54821 0.602496 0
M  V30 4714 C 450.174 -3.98362 2.04967 0
M  V30 4715 C 451.918 -4.2383 0.238437 0
M  V30 4716 C 449.825 -5.47619 2.2331 0
M  V30 4717 H 448.755 -0.742193 0.13291 0
M  V30 4718 H 451.406 -1.55354 0.976589 0
M  V30 4719 H 449.788 -3.95922 -0.078409 0
M  V30 4720 H 450.962 -3.68447 2.76737 0
M  V30 4721 H 449.277 -3.42206 2.37243 0
M  V30 4722 H 451.874 -5.33529 0.353705 0
M  V30 4723 H 452.217 -4.08264 -0.814006 0
M  V30 4724 H 452.75 -3.88108 0.872769 0
M  V30 4725 H 449.489 -5.68138 3.26955 0
M  V30 4726 H 449.009 -5.79145 1.5605 0
M  V30 4727 H 450.688 -6.13911 2.0426 0
M  V30 4728 N 450.82 -0.546701 -1.47814 0
M  V30 4729 C 451.77 0.227042 -2.26867 0
M  V30 4730 C 452.754 0.894844 -1.33721 0
M  V30 4731 O 453.946 0.794887 -1.58147 0
M  V30 4732 C 451.075 1.26299 -3.19223 0
M  V30 4733 C 450.161 0.59913 -4.19847 0
M  V30 4734 N 450.552 -0.324777 -5.04756 0
M  V30 4735 C 448.85 0.854331 -4.37741 0
M  V30 4736 C 449.551 -0.709386 -5.77358 0
M  V30 4737 N 448.527 -0.0666153 -5.43559 0
M  V30 4738 H 452.329 -0.483476 -2.89896 0
M  V30 4739 H 449.843 -0.365893 -1.58224 0
M  V30 4740 H 451.84 1.83116 -3.74532 0
M  V30 4741 H 450.5 1.97471 -2.57751 0
M  V30 4742 H 451.511 -0.698351 -5.1317 0
M  V30 4743 H 448.188 1.55536 -3.87447 0
M  V30 4744 H 449.578 -1.46796 -6.55668 0
M  V30 4745 N 452.299 1.55045 -0.282633 0
M  V30 4746 C 453.715 1.59441 0.0712997 0
M  V30 4747 C 453.915 1.2998 1.53972 0
M  V30 4748 O 452.971 1.06431 2.28973 0
M  V30 4749 C 454.284 2.99097 -0.310104 0
M  V30 4750 C 455.832 3.1194 -0.257343 0
M  V30 4751 C 456.307 4.53875 -0.613297 0
M  V30 4752 N 457.798 4.5974 -0.565134 0
M  V30 4753 C 458.533 5.67603 -0.81326 0
M  V30 4754 N 458.029 6.83582 -1.1264 0
M  V30 4755 N 459.822 5.57187 -0.741553 0
M  V30 4756 H 451.973 1.72458 -1.23984 0
M  V30 4757 H 454.236 0.804549 -0.501403 0
M  V30 4758 H 453.942 3.25516 -1.33163 0
M  V30 4759 H 453.816 3.75616 0.345366 0
M  V30 4760 H 456.203 2.85281 0.754905 0
M  V30 4761 H 456.284 2.37618 -0.947178 0
M  V30 4762 H 455.928 4.81261 -1.62327 0
M  V30 4763 H 455.858 5.26508 0.09841 0
M  V30 4764 H 458.349 3.76427 -0.333294 0
M  V30 4765 H 458.662 7.6175 -1.30219 0
M  V30 4766 H 457.007 6.85179 -1.16425 0
M  V30 4767 H 460.198 4.65457 -0.496705 0
M  V30 4768 H 460.371 6.41171 -0.938306 0
M  V30 4769 N 453.777 0.010035 1.57597 0
M  V30 4770 C 454.707 -0.976857 2.12084 0
M  V30 4771 C 455.688 -1.35191 1.03235 0
M  V30 4772 O 456.873 -1.43389 1.3097 0
M  V30 4773 C 454.003 -2.26548 2.63236 0
M  V30 4774 C 452.957 -2.03175 3.76701 0
M  V30 4775 C 452.283 -3.38138 4.14206 0
M  V30 4776 C 453.583 -1.38625 5.03568 0
M  V30 4777 H 455.277 -0.523145 2.94794 0
M  V30 4778 H 452.823 -0.250195 1.4181 0
M  V30 4779 H 454.776 -2.95952 2.99984 0
M  V30 4780 H 453.5 -2.74051 1.77661 0
M  V30 4781 H 452.159 -1.36195 3.40362 0
M  V30 4782 H 451.807 -3.83363 3.25641 0
M  V30 4783 H 451.507 -3.23312 4.90656 0
M  V30 4784 H 453.031 -4.08841 4.53521 0
M  V30 4785 H 454.445 -1.98 5.38023 0
M  V30 4786 H 452.842 -1.34256 5.84889 0
M  V30 4787 H 453.912 -0.356722 4.83586 0
M  V30 4788 N 455.255 -1.55392 -0.262866 0
M  V30 4789 C 456.666 -1.67079 -0.833158 0
M  V30 4790 C 457.017 -0.604539 -1.86654 0
M  V30 4791 O 456.142 0.252138 -2.14926 0
M  V30 4792 C 456.737 -3.02891 -1.51797 0
M  V30 4793 C 455.296 -3.16571 -2.03617 0
M  V30 4794 C 454.443 -2.62909 -0.881701 0
M  V30 4795 H 457.394 -1.58652 -0.0389986 0
M  V30 4796 H 457.415 -2.96445 -2.38538 0
M  V30 4797 H 456.927 -3.80473 -0.765619 0
M  V30 4798 H 455.028 -2.43782 -2.81782 0
M  V30 4799 H 455.141 -4.23271 -2.24452 0
M  V30 4800 H 453.505 -2.20324 -1.27786 0
M  V30 4801 H 454.288 -3.43003 -0.14269 0
M  V30 4802 N 456.733 0.527833 -1.48498 0
M  V30 4803 C 457.979 1.28545 -1.56857 0
M  V30 4804 C 458.312 1.92678 -0.242651 0
M  V30 4805 O 457.587 1.79394 0.751545 0
M  V30 4806 C 457.87 2.37314 -2.70839 0
M  V30 4807 C 457.723 1.77858 -4.13142 0
M  V30 4808 C 459.042 3.39068 -2.80573 0
M  V30 4809 H 456.161 0.466006 -0.570971 0
M  V30 4810 H 458.803 0.587784 -1.8068 0
M  V30 4811 H 456.953 2.96821 -2.50658 0
M  V30 4812 H 458.625 1.22385 -4.44769 0
M  V30 4813 H 456.868 1.08383 -4.20042 0
M  V30 4814 H 457.539 2.56624 -4.88721 0
M  V30 4815 H 460.015 2.89518 -2.98862 0
M  V30 4816 H 458.891 4.12566 -3.6205 0
M  V30 4817 H 459.152 3.9975 -1.88818 0
M  V30 4818 N 458.211 1.37122 0.776871 0
M  V30 4819 C 459.141 1.35164 1.90402 0
M  V30 4820 C 460.122 0.221069 1.68657 0
M  V30 4821 O 461.307 0.420642 1.8959 0
M  V30 4822 C 458.437 1.15274 3.27611 0
M  V30 4823 C 457.391 2.25289 3.63908 0
M  V30 4824 C 456.717 1.90527 4.99603 0
M  V30 4825 C 458.017 3.67446 3.71188 0
M  V30 4826 H 459.711 2.29482 1.92297 0
M  V30 4827 H 457.257 1.10465 0.923773 0
M  V30 4828 H 459.21 1.12536 4.06096 0
M  V30 4829 H 457.934 0.174102 3.26136 0
M  V30 4830 H 456.593 2.27174 2.87728 0
M  V30 4831 H 456.241 0.91206 4.94662 0
M  V30 4832 H 455.941 2.64193 5.24858 0
M  V30 4833 H 457.465 1.89367 5.80493 0
M  V30 4834 H 458.879 3.67719 4.39836 0
M  V30 4835 H 457.276 4.40123 4.07936 0
M  V30 4836 H 458.346 4.01443 2.71977 0
M  V30 4837 N 459.689 -1.00246 1.21608 0
M  V30 4838 C 460.966 -1.71336 0.943568 0
M  V30 4839 C 461.346 -2.03972 -0.543943 0
M  V30 4840 O 460.694 -1.71545 -1.50946 0
M  V30 4841 C 460.904 -2.97094 1.83128 0
M  V30 4842 C 462.252 -3.70071 2.08165 0
M  V30 4843 O 463.276 -3.07081 1.80498 0
M  V30 4844 O 462.135 -4.83376 2.54971 0
M  V30 4845 H 459.229 -0.747386 0.354039 0
M  V30 4846 H 461.775 -1.05967 1.32549 0
M  V30 4847 H 460.547 -2.69407 2.83788 0
M  V30 4848 H 460.17 -3.70204 1.45034 0
M  V30 4849 N 461.167 -1.02423 -1.1978 0
M  V30 4850 C 462.578 -0.748389 -1.71044 0
M  V30 4851 C 462.929 0.732398 -1.82017 0
M  V30 4852 O 462.054 1.57116 -1.48807 0
M  V30 4853 C 462.649 -1.35187 -3.1066 0
M  V30 4854 C 461.208 -1.12472 -3.59203 0
M  V30 4855 C 460.355 -1.45283 -2.36195 0
M  V30 4856 H 463.306 -1.19275 -1.04686 0
M  V30 4857 H 463.327 -0.746408 -3.73107 0
M  V30 4858 H 462.839 -2.4296 -3.02642 0
M  V30 4859 H 460.94 -0.0649983 -3.72543 0
M  V30 4860 H 461.053 -1.81016 -4.43588 0
M  V30 4861 H 459.417 -0.872034 -2.39307 0
M  V30 4862 H 460.2 -2.54129 -2.30811 0
M  V30 4863 N 462.645 1.35699 -0.801477 0
M  V30 4864 C 463.891 1.99208 -0.380022 0
M  V30 4865 C 464.224 1.63445 1.04878 0
M  V30 4866 O 463.499 0.895223 1.72673 0
M  V30 4867 C 463.782 3.55755 -0.557708 0
M  V30 4868 C 463.635 4.01332 -2.03107 0
M  V30 4869 C 464.954 4.40096 0.0197968 0
M  V30 4870 H 462.073 0.723667 -0.139552 0
M  V30 4871 H 464.715 1.60928 -1.01006 0
M  V30 4872 H 462.865 3.88494 -0.0213741 0
M  V30 4873 H 464.537 3.79026 -2.62939 0
M  V30 4874 H 462.78 3.52429 -2.52936 0
M  V30 4875 H 463.451 5.10234 -2.1063 0
M  V30 4876 H 465.927 4.13786 -0.438179 0
M  V30 4877 H 464.803 5.48735 -0.134477 0
M  V30 4878 H 465.064 4.2786 1.11303 0
M  V30 4879 N 464.123 0.554532 1.47522 0
M  V30 4880 C 465.348 0.0322661 2.07375 0
M  V30 4881 C 465.773 -1.25079 1.40488 0
M  V30 4882 O 465.131 -1.74859 0.47896 0
M  V30 4883 C 465.179 -0.149397 3.6029 0
M  V30 4884 O 464.283 -1.21259 3.9417 0
M  V30 4885 H 463.624 0.0501228 0.662106 0
M  V30 4886 H 466.154 0.769452 1.8958 0
M  V30 4887 H 466.164 -0.364437 4.06369 0
M  V30 4888 H 464.839 0.787743 4.08372 0
M  V30 4889 H 463.416 -0.97825 3.5984 0
M  V30 4890 N 465.601 -1.54893 0.290851 0
M  V30 4891 C 466.849 -1.99538 -0.320756 0
M  V30 4892 C 467.17 -1.18075 -1.55188 0
M  V30 4893 O 466.44 -0.274162 -1.93972 0
M  V30 4894 H 465.02 -0.737052 -0.121507 0
M  V30 4895 H 467.682 -1.90755 0.399832 0
M  V30 4896 H 466.778 -3.06282 -0.599802 0
M  V30 4897 N 467.08 -0.0183926 -1.57589 0
M  V30 4898 C 468.028 0.985111 -2.10709 0
M  V30 4899 C 469.022 1.34397 -1.0312 0
M  V30 4900 O 470.228 1.32746 -1.21567 0
M  V30 4901 H 466.603 0.335418 -0.673052 0
M  V30 4902 H 468.574 0.511689 -2.9398 0
M  V30 4903 C 467.323 2.26202 -2.64061 0
M  V30 4904 H 466.646 1.9946 -3.4649 0
M  V30 4905 H 468.086 2.94652 -3.04887 0
M  V30 4906 C 466.545 2.98444 -1.5631 0
M  V30 4907 O 467.075 3.90142 -0.956674 0
M  V30 4908 N 465.281 2.6059 -1.28612 0
M  V30 4909 H 464.828 1.86101 -1.78112 0
M  V30 4910 H 464.786 3.09238 -0.567406 0
M  V30 4911 N 468.558 1.5553 0.254621 0
M  V30 4912 C 469.804 1.77262 0.985193 0
M  V30 4913 C 470.137 0.582286 1.85265 0
M  V30 4914 O 469.412 -0.419666 1.89919 0
M  V30 4915 C 469.695 3.0881 1.85225 0
M  V30 4916 C 469.548 4.38233 1.0135 0
M  V30 4917 C 470.867 3.3653 2.83612 0
M  V30 4918 H 467.986 0.644906 0.356742 0
M  V30 4919 H 470.628 1.88264 0.256236 0
M  V30 4920 H 468.778 2.99562 2.47376 0
M  V30 4921 H 470.45 4.59463 0.411269 0
M  V30 4922 H 468.693 4.32636 0.317574 0
M  V30 4923 H 469.364 5.26644 1.65379 0
M  V30 4924 H 471.84 3.45691 2.31596 0
M  V30 4925 H 470.716 4.29805 3.41407 0
M  V30 4926 H 470.977 2.57064 3.59681 0
M  V30 4927 N 470.036 -0.519951 1.48776 0
M  V30 4928 C 470.966 -1.63253 1.66945 0
M  V30 4929 C 471.947 -1.62014 0.518224 0
M  V30 4930 O 473.132 -1.79053 0.751919 0
M  V30 4931 C 470.262 -3.0181 1.71836 0
M  V30 4932 C 469.216 -3.17911 2.8656 0
M  V30 4933 C 468.542 -4.5763 2.76548 0
M  V30 4934 C 469.842 -2.99729 4.27738 0
M  V30 4935 H 471.536 -1.48302 2.6009 0
M  V30 4936 H 469.082 -0.712026 1.25165 0
M  V30 4937 H 471.035 -3.79525 1.83135 0
M  V30 4938 H 469.759 -3.17806 0.752775 0
M  V30 4939 H 468.418 -2.42616 2.74833 0
M  V30 4940 H 468.066 -4.70476 1.77937 0
M  V30 4941 H 467.766 -4.69346 3.53536 0
M  V30 4942 H 469.29 -5.37431 2.89828 0
M  V30 4943 H 470.704 -3.67228 4.40246 0
M  V30 4944 H 469.101 -3.22932 5.05801 0
M  V30 4945 H 470.171 -1.96047 4.43502 0
M  V30 4946 N 471.514 -1.37532 -0.769588 0
M  V30 4947 C 472.464 -1.29984 -1.87318 0
M  V30 4948 C 473.448 -0.187242 -1.59807 0
M  V30 4949 O 474.64 -0.421827 -1.719 0
M  V30 4950 C 471.769 -1.11126 -3.24817 0
M  V30 4951 C 470.855 -2.26939 -3.58273 0
M  V30 4952 N 471.246 -3.52336 -3.62895 0
M  V30 4953 C 469.544 -2.19141 -3.8845 0
M  V30 4954 C 470.245 -4.28719 -3.9316 0
M  V30 4955 N 469.221 -3.57884 -4.0917 0
M  V30 4956 H 473.023 -2.24946 -1.89147 0
M  V30 4957 H 470.537 -1.30535 -0.966143 0
M  V30 4958 H 472.534 -1.03803 -4.0377 0
M  V30 4959 H 471.194 -0.17083 -3.2425 0
M  V30 4960 H 472.205 -3.86216 -3.45048 0
M  V30 4961 H 468.882 -1.33167 -3.95693 0
M  V30 4962 H 470.272 -5.37254 -4.03494 0
M  V30 4963 N 472.992 0.995999 -1.22138 0
M  V30 4964 C 474.241 1.72928 -1.03821 0
M  V30 4965 C 474.554 1.90872 0.427444 0
M  V30 4966 O 475.76 2.61496 0.730212 0
M  V30 4967 C 474.216 3.11124 -1.80913 0
M  V30 4968 C 473.824 3.01122 -3.31707 0
M  V30 4969 C 475.568 3.8852 -1.71035 0
M  V30 4970 C 473.475 4.34453 -4.01253 0
M  V30 4971 H 472.405 0.648376 -0.384869 0
M  V30 4972 H 475.056 1.11213 -1.45959 0
M  V30 4973 H 473.438 3.73503 -1.31573 0
M  V30 4974 H 474.612 2.47926 -3.88419 0
M  V30 4975 H 472.927 2.3721 -3.42228 0
M  V30 4976 H 475.524 4.872 -2.20318 0
M  V30 4977 H 475.867 4.1087 -0.670196 0
M  V30 4978 H 476.4 3.32812 -2.17902 0
M  V30 4979 H 473.139 4.17303 -5.05508 0
M  V30 4980 H 472.659 4.87574 -3.49331 0
M  V30 4981 H 474.338 5.03215 -4.06674 0
M  V30 4982 N 474.47 1.03057 1.19235 0
M  V30 4983 C 475.4 0.633497 2.24742 0
M  V30 4984 C 476.381 -0.358335 1.66283 0
M  V30 4985 O 477.566 -0.240676 1.92703 0
M  V30 4986 C 474.696 -0.0147648 3.47297 0
M  V30 4987 C 473.65 0.899527 4.18441 0
M  V30 4988 C 472.976 0.116281 5.34574 0
M  V30 4989 C 474.276 2.21404 4.73051 0
M  V30 4990 H 475.97 1.5155 2.58211 0
M  V30 4991 H 473.516 0.73014 1.24117 0
M  V30 4992 H 475.469 -0.304202 4.20301 0
M  V30 4993 H 474.193 -0.931577 3.13032 0
M  V30 4994 H 472.852 1.17319 3.47321 0
M  V30 4995 H 472.5 -0.802619 4.96555 0
M  V30 4996 H 472.2 0.725293 5.83107 0
M  V30 4997 H 473.724 -0.166376 6.10373 0
M  V30 4998 H 475.138 1.98601 5.37802 0
M  V30 4999 H 473.535 2.77512 5.32078 0
M  V30 5000 H 474.605 2.86752 3.91026 0
M  V30 5001 N 475.948 -1.35272 0.808662 0
M  V30 5002 C 477.176 -2.02946 0.402537 0
M  V30 5003 C 477.591 -1.60937 -0.987147 0
M  V30 5004 O 476.948 -0.807917 -1.63643 0
M  V30 5005 C 476.999 -3.58317 0.47868 0
M  V30 5006 O 476.72 -3.98799 1.81358 0
M  V30 5007 C 478.221 -4.43251 0.0656281 0
M  V30 5008 H 475.441 -0.650831 0.163279 0
M  V30 5009 H 477.985 -1.72849 1.09286 0
M  V30 5010 H 476.14 -3.87055 -0.163415 0
M  V30 5011 H 476.554 -4.93451 1.77781 0
M  V30 5012 H 478.028 -5.51738 0.170017 0
M  V30 5013 H 478.505 -4.27913 -0.989278 0
M  V30 5014 H 479.111 -4.19813 0.68096 0
M  V30 5015 N 477.426 -0.562348 -1.47226 0
M  V30 5016 C 478.376 0.202967 -2.27095 0
M  V30 5017 C 479.36 0.880611 -1.34663 0
M  V30 5018 O 480.552 0.778069 -1.58981 0
M  V30 5019 C 477.681 1.22906 -3.20545 0
M  V30 5020 C 476.767 0.554566 -4.20459 0
M  V30 5021 N 477.158 -0.378295 -5.04383 0
M  V30 5022 C 475.456 0.807854 -4.38623 0
M  V30 5023 C 476.157 -0.770583 -5.76573 0
M  V30 5024 N 475.133 -0.124263 -5.43458 0
M  V30 5025 H 478.935 -0.514196 -2.89367 0
M  V30 5026 H 476.449 -0.382655 -1.57827 0
M  V30 5027 H 478.446 1.79134 -3.76453 0
M  V30 5028 H 477.106 1.94726 -2.59831 0
M  V30 5029 H 478.117 -0.75274 -5.124 0
M  V30 5030 H 474.794 1.51418 -3.89075 0
M  V30 5031 H 476.184 -1.53742 -6.54074 0
M  V30 5032 N 478.904 1.54736 -0.299062 0
M  V30 5033 C 479.851 2.23448 0.577899 0
M  V30 5034 C 480.821 1.21637 1.13109 0
M  V30 5035 O 482.006 1.50252 1.17597 0
M  V30 5036 C 479.146 2.9774 1.74484 0
M  V30 5037 C 478.259 4.1432 1.22323 0
M  V30 5038 C 477.394 4.76199 2.35388 0
M  V30 5039 C 476.433 5.84927 1.80351 0
M  V30 5040 N 475.57 6.4077 2.86982 0
M  V30 5041 H 480.41 2.97996 -0.0146545 0
M  V30 5042 H 477.947 1.47088 -0.0190013 0
M  V30 5043 H 479.905 3.39045 2.43114 0
M  V30 5044 H 478.535 2.25572 2.30905 0
M  V30 5045 H 477.587 3.7797 0.429249 0
M  V30 5046 H 478.899 4.92659 0.780309 0
M  V30 5047 H 478.053 5.20346 3.11969 0
M  V30 5048 H 476.792 3.97188 2.83006 0
M  V30 5049 H 475.797 5.40207 1.02259 0
M  V30 5050 H 477.022 6.65821 1.3364 0
M  V30 5051 H 474.968 5.64643 3.33938 0
M  V30 5052 H 474.885 7.1445 2.4718 0
M  V30 5053 H 476.153 6.89574 3.63466 0
M  V30 5054 N 480.382 0.0267497 1.57577 0
M  V30 5055 C 481.798 -0.32962 1.56159 0
M  V30 5056 C 481.998 -1.73059 1.03213 0
M  V30 5057 O 481.054 -2.43233 0.677804 0
M  V30 5058 C 482.367 -0.18039 3.00158 0
M  V30 5059 C 483.915 -0.253334 3.11973 0
M  V30 5060 C 484.39 -0.132921 4.57807 0
M  V30 5061 N 485.881 -0.189979 4.6281 0
M  V30 5062 C 486.616 -0.120554 5.73273 0
M  V30 5063 N 486.112 -0.000180315 6.928 0
M  V30 5064 N 487.905 -0.174369 5.61829 0
M  V30 5065 H 480.056 0.942896 1.90324 0
M  V30 5066 H 482.319 0.3639 0.875375 0
M  V30 5067 H 482.025 0.784576 3.42837 0
M  V30 5068 H 481.899 -0.951565 3.65 0
M  V30 5069 H 484.286 -1.20876 2.69208 0
M  V30 5070 H 484.367 0.548177 2.49857 0
M  V30 5071 H 484.011 0.819073 5.01252 0
M  V30 5072 H 483.941 -0.953264 5.179 0
M  V30 5073 H 486.432 -0.283257 3.76837 0
M  V30 5074 H 486.745 0.0461666 7.72786 0
M  V30 5075 H 485.09 0.034569 6.94991 0
M  V30 5076 H 488.281 -0.266794 4.67339 0
M  V30 5077 H 488.454 -0.116802 6.47895 0
M  V30 5078 N 481.861 -1.55662 -0.24637 0
M  V30 5079 C 482.791 -1.93377 -1.30873 0
M  V30 5080 C 483.772 -0.798773 -1.50179 0
M  V30 5081 O 484.957 -1.0591 -1.62778 0
M  V30 5082 C 482.087 -2.22893 -2.66338 0
M  V30 5083 C 481.041 -3.38649 -2.61727 0
M  V30 5084 C 480.367 -3.53708 -4.00992 0
M  V30 5085 C 481.667 -4.74323 -2.18666 0
M  V30 5086 H 483.361 -2.82363 -0.995552 0
M  V30 5087 H 480.907 -1.35854 -0.477464 0
M  V30 5088 H 482.86 -2.47866 -3.40794 0
M  V30 5089 H 481.584 -1.30733 -2.99293 0
M  V30 5090 H 480.243 -3.13685 -1.89729 0
M  V30 5091 H 479.891 -2.58967 -4.31214 0
M  V30 5092 H 479.591 -4.31551 -3.98795 0
M  V30 5093 H 481.115 -3.81003 -4.77147 0
M  V30 5094 H 482.529 -4.98665 -2.82854 0
M  V30 5095 H 480.926 -5.55273 -2.27579 0
M  V30 5096 H 481.996 -4.71349 -1.13834 0
M  V30 5097 N 483.339 0.512053 -1.4905 0
M  V30 5098 C 484.269 1.62365 -1.67809 0
M  V30 5099 C 485.25 1.61737 -0.526809 0
M  V30 5100 O 486.435 1.78651 -0.761404 0
M  V30 5101 C 483.565 3.00895 -1.73435 0
M  V30 5102 C 482.519 3.16387 -2.88242 0
M  V30 5103 C 481.845 4.56157 -2.78971 0
M  V30 5104 C 483.145 2.97457 -4.29321 0
M  V30 5105 H 484.839 1.46921 -2.60873 0
M  V30 5106 H 482.385 0.705379 -1.2554 0
M  V30 5107 H 484.338 3.78549 -1.85145 0
M  V30 5108 H 483.062 3.17403 -0.769619 0
M  V30 5109 H 481.721 2.41155 -2.76116 0
M  V30 5110 H 481.369 4.69525 -1.8043 0
M  V30 5111 H 481.069 4.67465 -3.5602 0
M  V30 5112 H 482.593 5.35886 -2.92675 0
M  V30 5113 H 484.007 3.64888 -4.42187 0
M  V30 5114 H 482.404 3.20245 -5.07507 0
M  V30 5115 H 483.474 1.93692 -4.44535 0
M  V30 5116 N 484.817 1.37938 0.762283 0
M  V30 5117 C 485.764 1.34467 1.87583 0
M  V30 5118 C 486.734 0.208633 1.64785 0
M  V30 5119 O 487.919 0.399494 1.86571 0
M  V30 5120 C 485.059 1.16692 3.24772 0
M  V30 5121 C 484.172 2.39608 3.59461 0
M  V30 5122 C 483.307 2.14631 4.85908 0
M  V30 5123 C 482.346 3.33364 5.13357 0
M  V30 5124 N 481.483 3.07877 6.30996 0
M  V30 5125 H 486.323 2.29669 1.89885 0
M  V30 5126 H 483.86 1.14116 0.928219 0
M  V30 5127 H 485.818 1.04405 4.03925 0
M  V30 5128 H 484.448 0.251333 3.2182 0
M  V30 5129 H 483.5 2.626 2.75219 0
M  V30 5130 H 484.812 3.28128 3.75678 0
M  V30 5131 H 483.966 1.99429 5.72986 0
M  V30 5132 H 482.705 1.23463 4.71814 0
M  V30 5133 H 481.71 3.49094 4.24751 0
M  V30 5134 H 482.935 4.25395 5.29354 0
M  V30 5135 H 480.881 2.19348 6.18241 0
M  V30 5136 H 480.798 3.89944 6.47673 0
M  V30 5137 H 482.066 2.96313 7.20985 0
M  V30 5138 N 486.295 -0.989507 1.22664 0
M  V30 5139 C 487.542 -1.72953 1.05325 0
M  V30 5140 C 487.87 -1.90104 -0.411168 0
M  V30 5141 O 487.125 -1.44386 -1.32103 0
M  V30 5142 C 487.424 -3.13649 1.71345 0
M  V30 5143 C 487.09 -3.16403 3.21248 0
M  V30 5144 C 485.752 -3.16862 3.62149 0
M  V30 5145 C 488.104 -3.12428 4.17179 0
M  V30 5146 C 485.432 -3.11051 4.97458 0
M  V30 5147 C 487.784 -3.08159 5.52468 0
M  V30 5148 C 486.448 -3.06935 5.92746 0
M  V30 5149 H 485.718 -0.632881 0.385412 0
M  V30 5150 H 488.365 -1.15863 1.52473 0
M  V30 5151 H 486.67 -3.74069 1.16532 0
M  V30 5152 H 488.367 -3.69658 1.55416 0
M  V30 5153 H 484.957 -3.16798 2.88682 0
M  V30 5154 H 489.141 -3.11221 3.86595 0
M  V30 5155 H 484.397 -3.0845 5.27891 0
M  V30 5156 H 488.571 -3.04039 6.26525 0
M  V30 5157 H 486.198 -3.02186 6.97558 0
M  V30 5158 N 487.773 -1.03688 -1.18687 0
M  V30 5159 C 488.703 -0.645407 -2.24403 0
M  V30 5160 C 489.684 0.349511 -1.66471 0
M  V30 5161 O 490.869 0.230453 -1.92828 0
M  V30 5162 C 487.999 -0.00365337 -3.473 0
M  V30 5163 C 486.953 -0.921705 -4.17958 0
M  V30 5164 C 486.279 -0.144629 -5.34504 0
M  V30 5165 C 487.579 -2.23909 -4.71871 0
M  V30 5166 H 489.273 -1.52917 -2.57404 0
M  V30 5167 H 486.819 -0.736711 -1.23728 0
M  V30 5168 H 488.772 0.281908 -4.20456 0
M  V30 5169 H 487.496 0.914963 -3.13522 0
M  V30 5170 H 486.155 -1.19159 -3.46694 0
M  V30 5171 H 485.803 0.776274 -4.96974 0
M  V30 5172 H 485.503 -0.756206 -5.82714 0
M  V30 5173 H 487.027 0.134004 -6.10453 0
M  V30 5174 H 488.441 -2.0145 -5.36741 0
M  V30 5175 H 486.838 -2.8033 -5.30599 0
M  V30 5176 H 487.908 -2.88822 -3.895 0
M  V30 5177 N 489.251 1.34841 -0.815825 0
M  V30 5178 C 490.201 2.27075 -0.205169 0
M  V30 5179 C 491.185 1.48205 0.626414 0
M  V30 5180 O 492.377 1.70306 0.482157 0
M  V30 5181 C 489.506 3.37322 0.637871 0
M  V30 5182 C 488.592 4.23609 -0.203948 0
M  V30 5183 N 488.983 4.89558 -1.27149 0
M  V30 5184 C 487.281 4.45998 0.0128971 0
M  V30 5185 C 487.982 5.53597 -1.7862 0
M  V30 5186 N 486.958 5.32535 -1.0912 0
M  V30 5187 H 490.76 2.75563 -1.02187 0
M  V30 5188 H 488.274 1.48477 -0.657912 0
M  V30 5189 H 490.271 4.02359 1.09146 0
M  V30 5190 H 488.931 2.90385 1.45281 0
M  V30 5191 H 489.942 4.9077 -1.65423 0
M  V30 5192 H 486.619 4.09837 0.79624 0
M  V30 5193 H 488.009 6.16184 -2.67892 0
M  V30 5194 N 490.729 0.570148 1.46925 0
M  V30 5195 C 491.978 0.0487352 2.01641 0
M  V30 5196 C 492.291 -1.31433 1.44861 0
M  V30 5197 O 493.497 -1.92638 1.91318 0
M  V30 5198 C 491.953 0.0365817 3.59881 0
M  V30 5199 C 491.561 1.39719 4.25655 0
M  V30 5200 C 493.305 -0.431545 4.22301 0
M  V30 5201 C 491.212 1.34345 5.75939 0
M  V30 5202 H 490.142 0.0144492 0.753862 0
M  V30 5203 H 492.793 0.719928 1.68788 0
M  V30 5204 H 491.175 -0.700522 3.89755 0
M  V30 5205 H 492.349 2.15303 4.07408 0
M  V30 5206 H 490.664 1.80431 3.75278 0
M  V30 5207 H 493.261 -0.490354 5.32447 0
M  V30 5208 H 493.604 -1.44638 3.90366 0
M  V30 5209 H 494.137 0.251102 3.97007 0
M  V30 5210 H 490.876 2.33469 6.12513 0
M  V30 5211 H 490.396 0.629615 5.96486 0
M  V30 5212 H 492.075 1.051 6.38407 0
M  V30 5213 N 492.207 -1.54576 0.307264 0
M  V30 5214 C 493.454 -2.00263 -0.300167 0
M  V30 5215 C 493.782 -1.19561 -1.53413 0
M  V30 5216 O 493.037 -0.261487 -1.93945 0
M  V30 5217 C 493.336 -3.50572 -0.695253 0
M  V30 5218 C 493.002 -4.48771 0.437679 0
M  V30 5219 C 491.664 -4.7534 0.748681 0
M  V30 5220 C 494.016 -5.0721 1.19949 0
M  V30 5221 C 491.344 -5.5761 1.8245 0
M  V30 5222 C 493.696 -5.90651 2.26527 0
M  V30 5223 C 492.36 -6.15528 2.58227 0
M  V30 5224 H 491.63 -0.732814 -0.109839 0
M  V30 5225 H 494.277 -1.86664 0.427661 0
M  V30 5226 H 492.582 -3.61814 -1.50326 0
M  V30 5227 H 494.279 -3.83352 -1.17653 0
M  V30 5228 H 490.869 -4.282 0.185187 0
M  V30 5229 H 495.053 -4.86679 0.972474 0
M  V30 5230 H 490.309 -5.75121 2.07476 0
M  V30 5231 H 494.483 -6.34957 2.86011 0
M  V30 5232 H 492.11 -6.79066 3.4172 0
M  V30 5233 N 493.685 -0.035106 -1.57561 0
M  V30 5234 C 494.933 0.64096 -1.91667 0
M  V30 5235 C 495.254 1.72323 -0.912681 0
M  V30 5236 O 494.524 1.95849 0.0449089 0
M  V30 5237 H 493.104 0.239743 -0.707483 0
M  V30 5238 H 495.766 -0.084321 -1.94718 0
M  V30 5239 H 494.862 1.08987 -2.92452 0
M  V30 5240 N 495.163 1.55791 0.238111 0
M  V30 5241 C 496.388 1.8244 0.986432 0
M  V30 5242 C 496.813 0.613314 1.7782 0
M  V30 5243 O 496.171 -0.437767 1.75935 0
M  V30 5244 C 496.219 3.06917 1.893 0
M  V30 5245 O 495.323 2.84449 2.98601 0
M  V30 5246 H 494.664 0.601975 0.280218 0
M  V30 5247 H 497.194 2.02987 0.256437 0
M  V30 5248 H 497.204 3.36583 2.30598 0
M  V30 5249 H 495.879 3.947 1.31091 0
M  V30 5250 H 494.456 2.65972 2.61368 0
M  V30 5251 N 496.642 -0.504142 1.49319 0
M  V30 5252 C 497.572 -1.61473 1.68667 0
M  V30 5253 C 498.553 -1.61455 0.535378 0
M  V30 5254 O 499.738 -1.78245 0.770868 0
M  V30 5255 C 496.868 -2.99971 1.75028 0
M  V30 5256 C 495.822 -3.14854 2.89916 0
M  V30 5257 C 495.148 -4.54671 2.81387 0
M  V30 5258 C 496.448 -2.95176 4.30893 0
M  V30 5259 H 498.142 -1.45535 2.61648 0
M  V30 5260 H 495.688 -0.698711 1.25913 0
M  V30 5261 H 497.641 -3.77562 1.8715 0
M  V30 5262 H 496.365 -3.1699 0.786441 0
M  V30 5263 H 495.024 -2.39687 2.77391 0
M  V30 5264 H 494.672 -4.68562 1.82917 0
M  V30 5265 H 494.372 -4.6557 3.58494 0
M  V30 5266 H 495.896 -5.34327 2.95512 0
M  V30 5267 H 497.31 -3.62538 4.44116 0
M  V30 5268 H 495.707 -3.17549 5.09198 0
M  V30 5269 H 496.777 -1.91332 4.45556 0
M  V30 5270 N 498.12 -1.38341 -0.754957 0
M  V30 5271 C 499.05 -1.38176 -1.88227 0
M  V30 5272 C 500.031 -0.247873 -1.68284 0
M  V30 5273 O 501.216 -0.45075 -1.88896 0
M  V30 5274 C 498.346 -1.20471 -3.25736 0
M  V30 5275 C 497.3 -2.3105 -3.60278 0
M  V30 5276 C 496.626 -1.98452 -4.96509 0
M  V30 5277 C 497.926 -3.73305 -3.65295 0
M  V30 5278 H 499.62 -2.32512 -1.88622 0
M  V30 5279 H 497.166 -1.1192 -0.906082 0
M  V30 5280 H 499.119 -1.18982 -4.04254 0
M  V30 5281 H 497.843 -0.225965 -3.25817 0
M  V30 5282 H 496.502 -2.31723 -2.84078 0
M  V30 5283 H 496.15 -0.990641 -4.93148 0
M  V30 5284 H 495.85 -2.7251 -5.20588 0
M  V30 5285 H 497.374 -1.98578 -5.77407 0
M  V30 5286 H 498.788 -3.7467 -4.3393 0
M  V30 5287 H 497.185 -4.46557 -4.00883 0
M  V30 5288 H 498.255 -4.05719 -2.65556 0
M  V30 5289 N 499.598 0.982988 -1.23187 0
M  V30 5290 C 501.009 1.53847 -1.05773 0
M  V30 5291 C 501.36 1.92568 0.375744 0
M  V30 5292 O 500.485 1.75783 1.26211 0
M  V30 5293 C 501.08 2.79567 -1.91384 0
M  V30 5294 C 499.639 3.31524 -1.78238 0
M  V30 5295 C 498.786 2.04534 -1.87246 0
M  V30 5296 H 501.737 0.802962 -1.36888 0
M  V30 5297 H 501.758 3.52317 -1.43711 0
M  V30 5298 H 501.27 2.51353 -2.95708 0
M  V30 5299 H 499.371 3.64623 -0.766875 0
M  V30 5300 H 499.484 4.01457 -2.61475 0
M  V30 5301 H 497.848 2.1855 -1.30797 0
M  V30 5302 H 498.631 1.78706 -2.9312 0
M  V30 5303 N 501.076 1.04316 1.18135 0
M  V30 5304 C 502.492 0.762858 1.40188 0
M  V30 5305 C 502.692 -0.646547 1.90846 0
M  V30 5306 O 501.748 -1.41036 2.0944 0
M  V30 5307 C 503.061 1.81106 2.40044 0
M  V30 5308 C 504.609 1.83226 2.53766 0
M  V30 5309 C 505.084 2.87044 3.56889 0
M  V30 5310 N 506.575 2.85951 3.64398 0
M  V30 5311 C 507.31 3.62932 4.43923 0
M  V30 5312 N 506.806 4.49672 5.27036 0
M  V30 5313 N 508.599 3.51411 4.38711 0
M  V30 5314 H 500.75 1.95264 0.835805 0
M  V30 5315 H 503.013 0.845017 0.429709 0
M  V30 5316 H 502.719 2.82214 2.09876 0
M  V30 5317 H 502.593 1.64529 3.39426 0
M  V30 5318 H 504.98 0.827869 2.8325 0
M  V30 5319 H 505.061 2.03879 1.54489 0
M  V30 5320 H 504.705 3.87663 3.28145 0
M  V30 5321 H 504.635 2.63645 4.5585 0
M  V30 5322 H 507.126 2.23051 3.05052 0
M  V30 5323 H 507.439 5.05116 5.84874 0
M  V30 5324 H 505.784 4.53738 5.26447 0
M  V30 5325 H 508.975 2.83047 3.72829 0
M  V30 5326 H 509.148 4.11654 5.00445 0
M  V30 5327 N 502.554 -1.34406 0.822964 0
M  V30 5328 C 503.965 -1.8069 0.469879 0
M  V30 5329 C 504.316 -1.68223 -1.00972 0
M  V30 5330 O 503.441 -1.22226 -1.78577 0
M  V30 5331 C 504.036 -3.28064 0.846118 0
M  V30 5332 C 502.595 -3.72428 0.545402 0
M  V30 5333 C 501.742 -2.56116 1.06301 0
M  V30 5334 H 504.693 -1.22153 1.01313 0
M  V30 5335 H 504.714 -3.80205 0.149922 0
M  V30 5336 H 504.226 -3.37107 1.92304 0
M  V30 5337 H 502.327 -3.68924 -0.522109 0
M  V30 5338 H 502.44 -4.66548 1.0895 0
M  V30 5339 H 500.804 -2.50048 0.484554 0
M  V30 5340 H 501.587 -2.67928 2.14638 0
M  V30 5341 N 504.032 -0.577932 -1.46621 0
M  V30 5342 C 505.257 -0.0652536 -2.07297 0
M  V30 5343 C 505.682 1.22828 -1.4246 0
M  V30 5344 O 505.04 1.74075 -0.506718 0
M  V30 5345 C 505.088 0.0920589 -3.60482 0
M  V30 5346 O 504.192 1.14972 -3.96049 0
M  V30 5347 H 503.533 -0.06065 -0.661224 0
M  V30 5348 H 506.063 -0.799515 -1.88332 0
M  V30 5349 H 506.073 0.299741 -4.06897 0
M  V30 5350 H 504.748 -0.852612 -4.07067 0
M  V30 5351 H 503.325 0.920879 -3.61351 0
M  V30 5352 N 505.51 1.54411 -0.315457 0
M  V30 5353 C 506.757 2.00419 0.289543 0
M  V30 5354 C 507.085 1.20373 1.52776 0
M  V30 5355 O 506.34 0.271769 1.93804 0
M  V30 5356 C 506.639 3.50936 0.676652 0
M  V30 5357 C 506.305 4.48532 -0.461472 0
M  V30 5358 C 504.967 4.74936 -0.773879 0
M  V30 5359 C 507.319 5.06567 -1.22637 0
M  V30 5360 C 504.647 5.56634 -1.85405 0
M  V30 5361 C 506.999 5.89441 -2.29657 0
M  V30 5362 C 505.663 6.1415 -2.61488 0
M  V30 5363 H 504.933 0.733386 0.105951 0
M  V30 5364 H 507.58 1.86434 -0.437554 0
M  V30 5365 H 505.885 3.62606 1.48405 0
M  V30 5366 H 507.582 3.83971 1.15618 0
M  V30 5367 H 504.172 4.28096 -0.207893 0
M  V30 5368 H 508.356 4.86157 -0.998271 0
M  V30 5369 H 503.612 5.74012 -2.10523 0
M  V30 5370 H 507.786 6.33432 -2.89374 0
M  V30 5371 H 505.413 6.77245 -3.45317 0
M  V30 5372 N 506.988 0.0434614 1.5754 0
M  V30 5373 C 507.918 -0.931651 2.14109 0
M  V30 5374 C 508.899 -1.32971 1.06079 0
M  V30 5375 O 510.084 -1.40579 1.33982 0
M  V30 5376 C 507.214 -2.20914 2.67982 0
M  V30 5377 C 506.168 -1.95139 3.80926 0
M  V30 5378 C 505.494 -3.29276 4.21285 0
M  V30 5379 C 506.794 -1.27913 5.06395 0
M  V30 5380 H 508.488 -0.460497 2.95837 0
M  V30 5381 H 506.034 -0.220058 1.42309 0
M  V30 5382 H 507.987 -2.89522 3.06194 0
M  V30 5383 H 506.711 -2.70221 1.83434 0
M  V30 5384 H 505.37 -1.28945 3.43175 0
M  V30 5385 H 505.018 -3.76369 3.33699 0
M  V30 5386 H 504.718 -3.12831 4.97404 0
M  V30 5387 H 506.242 -3.99129 4.62091 0
M  V30 5388 H 507.656 -1.86544 5.42102 0
M  V30 5389 H 506.053 -1.2182 5.87605 0
M  V30 5390 H 507.123 -0.254066 4.84234 0
M  V30 5391 N 508.466 -1.55915 -0.229846 0
M  V30 5392 C 509.696 -1.82352 -0.971152 0
M  V30 5393 C 510.104 -0.619231 -1.7878 0
M  V30 5394 O 509.447 0.421597 -1.78797 0
M  V30 5395 C 509.509 -3.02399 -1.9441 0
M  V30 5396 C 509.173 -4.37739 -1.31277 0
M  V30 5397 C 510.17 -5.15074 -0.706757 0
M  V30 5398 C 507.855 -4.84454 -1.32702 0
M  V30 5399 C 509.849 -6.37281 -0.123413 0
M  V30 5400 C 507.536 -6.06605 -0.739831 0
M  V30 5401 C 508.534 -6.82858 -0.139071 0
M  V30 5402 O 508.222 -8.027 0.439007 0
M  V30 5403 H 507.954 -0.61035 -0.290601 0
M  V30 5404 H 510.508 -2.03839 -0.252746 0
M  V30 5405 H 508.738 -2.76709 -2.70128 0
M  V30 5406 H 510.427 -3.15779 -2.55026 0
M  V30 5407 H 511.193 -4.80093 -0.688131 0
M  V30 5408 H 507.072 -4.25081 -1.78402 0
M  V30 5409 H 510.616 -6.96741 0.346124 0
M  V30 5410 H 506.513 -6.4106 -0.755841 0
M  V30 5411 H 507.281 -8.17824 0.332521 0
M  V30 5412 N 509.944 0.496216 -1.49584 0
M  V30 5413 C 511.36 0.827814 -1.36453 0
M  V30 5414 C 511.56 1.97464 -0.401285 0
M  V30 5415 O 510.616 2.51958 0.165296 0
M  V30 5416 C 511.929 1.16352 -2.77277 0
M  V30 5417 C 513.477 1.27145 -2.86013 0
M  V30 5418 C 513.952 1.64042 -4.27615 0
M  V30 5419 N 515.443 1.71082 -4.30448 0
M  V30 5420 C 516.178 2.01085 -5.36984 0
M  V30 5421 N 515.674 2.2928 -6.5376 0
M  V30 5422 N 517.467 2.02376 -5.24405 0
M  V30 5423 H 509.618 -0.259947 -2.10803 0
M  V30 5424 H 511.881 -0.0537163 -0.946477 0
M  V30 5425 H 511.587 0.394153 -3.49484 0
M  V30 5426 H 511.461 2.10582 -3.12946 0
M  V30 5427 H 513.848 2.03152 -2.1404 0
M  V30 5428 H 513.929 0.309542 -2.5392 0
M  V30 5429 H 513.573 0.88583 -5.00115 0
M  V30 5430 H 513.503 2.6134 -4.57175 0
M  V30 5431 H 515.994 1.51434 -3.46232 0
M  V30 5432 H 516.307 2.51376 -7.30774 0
M  V30 5433 H 514.652 2.26726 -6.56978 0
M  V30 5434 H 517.843 1.79829 -4.32179 0
M  V30 5435 H 518.016 2.25425 -6.07526 0
M  V30 5436 N 511.423 1.38739 0.74761 0
M  V30 5437 C 512.651 1.38521 1.53686 0
M  V30 5438 C 513.066 -0.0235129 1.88785 0
M  V30 5439 O 512.423 -0.991662 1.53207 0
M  V30 5440 C 512.474 2.24641 2.83229 0
M  V30 5441 O 512.195 3.60026 2.49625 0
M  V30 5442 C 513.696 2.32669 3.77333 0
M  V30 5443 H 510.916 0.473589 0.475347 0
M  V30 5444 H 513.46 1.82395 0.924786 0
M  V30 5445 H 511.615 1.84213 3.40799 0
M  V30 5446 H 512.029 4.05435 3.3275 0
M  V30 5447 H 513.503 2.97201 4.65162 0
M  V30 5448 H 513.98 1.3421 4.18192 0
M  V30 5449 H 514.586 2.73512 3.25685 0
M  V30 5450 N 512.901 -0.976442 1.23707 0
M  V30 5451 C 514.15 -1.71254 1.06559 0
M  V30 5452 C 514.463 -1.91528 -0.397024 0
M  V30 5453 O 515.669 -2.62625 -0.688518 0
M  V30 5454 C 514.125 -3.08207 1.8584 0
M  V30 5455 C 513.733 -2.95806 3.36456 0
M  V30 5456 C 515.477 -3.85749 1.77194 0
M  V30 5457 C 513.384 -4.28015 4.08114 0
M  V30 5458 H 512.314 -0.642171 0.395136 0
M  V30 5459 H 514.965 -1.08877 1.4771 0
M  V30 5460 H 513.347 -3.71363 1.37498 0
M  V30 5461 H 514.521 -2.41716 3.92314 0
M  V30 5462 H 512.836 -2.31736 3.45959 0
M  V30 5463 H 515.433 -4.83633 2.28041 0
M  V30 5464 H 515.776 -4.09752 0.735477 0
M  V30 5465 H 516.309 -3.29303 2.23169 0
M  V30 5466 H 513.048 -4.09208 5.12083 0
M  V30 5467 H 512.568 -4.81955 3.57043 0
M  V30 5468 H 514.247 -4.96681 4.14629 0
M  V30 5469 N 514.379 -1.04941 -1.1758 0
M  V30 5470 C 515.311 -0.606174 -2.21039 0
M  V30 5471 C 516.324 0.328763 -1.59446 0
M  V30 5472 O 517.513 0.121895 -1.78083 0
M  V30 5473 C 514.613 0.133294 -3.38638 0
M  V30 5474 C 513.786 -0.811711 -4.29802 0
M  V30 5475 C 512.845 -0.113958 -5.26077 0
M  V30 5476 O 511.871 -0.747237 -5.64274 0
M  V30 5477 N 513.073 1.14953 -5.69004 0
M  V30 5478 H 515.838 -1.49606 -2.59689 0
M  V30 5479 H 513.399 -0.930997 -1.32454 0
M  V30 5480 H 515.391 0.610144 -4.00074 0
M  V30 5481 H 513.961 0.924816 -2.98607 0
M  V30 5482 H 513.181 -1.46824 -3.65837 0
M  V30 5483 H 514.469 -1.45326 -4.87604 0
M  V30 5484 H 513.867 1.68441 -5.40041 0
M  V30 5485 H 512.424 1.57049 -6.32597 0
M  V30 5486 N 515.857 1.33968 -0.830081 0
M  V30 5487 C 517.134 1.92554 -0.343858 0
M  V30 5488 C 517.514 1.7573 1.16971 0
M  V30 5489 O 516.862 1.14035 1.98011 0
M  V30 5490 C 517.072 3.40147 -0.781073 0
M  V30 5491 C 518.42 4.17299 -0.78402 0
M  V30 5492 O 519.444 3.48762 -0.724112 0
M  V30 5493 O 518.303 5.39631 -0.863739 0
M  V30 5494 H 515.397 0.821469 -0.0954827 0
M  V30 5495 H 517.943 1.42897 -0.915348 0
M  V30 5496 H 516.715 3.46225 -1.82329 0
M  V30 5497 H 516.338 3.97166 -0.18567 0
M  V30 5498 N 517.335 0.585699 1.46312 0
M  V30 5499 C 518.265 -0.133556 2.33118 0
M  V30 5500 C 519.246 -0.880707 1.45525 0
M  V30 5501 O 520.431 -0.855579 1.74337 0
M  V30 5502 C 517.561 -1.14585 3.27853 0
M  V30 5503 C 516.515 -0.513341 4.2491 0
M  V30 5504 C 515.841 -1.63231 5.09175 0
M  V30 5505 C 517.141 0.551413 5.19381 0
M  V30 5506 H 518.835 0.59121 2.93505 0
M  V30 5507 H 516.381 0.285761 1.41136 0
M  V30 5508 H 518.334 -1.65741 3.87438 0
M  V30 5509 H 517.058 -1.90093 2.65579 0
M  V30 5510 H 515.717 -0.0228349 3.66593 0
M  V30 5511 H 515.365 -2.37713 4.43285 0
M  V30 5512 H 515.065 -1.21473 5.74907 0
M  V30 5513 H 516.589 -2.14658 5.71624 0
M  V30 5514 H 518.003 0.124804 5.73164 0
M  V30 5515 H 516.4 0.889486 5.93471 0
M  V30 5516 H 517.47 1.43655 4.63132 0
M  V30 5517 N 518.813 -1.54241 0.323641 0
M  V30 5518 C 520.061 -2.00174 -0.278359 0
M  V30 5519 C 520.382 -1.2134 -1.52648 0
M  V30 5520 O 519.652 -0.315244 -1.93347 0
M  V30 5521 H 518.232 -0.739463 -0.105845 0
M  V30 5522 H 520.894 -1.89864 0.440204 0
M  V30 5523 H 519.99 -3.07486 -0.5347 0
M  V30 5524 N 520.291 -0.0518155 -1.57515 0
M  V30 5525 C 521.54 0.621286 -1.91893 0
M  V30 5526 C 521.853 1.71966 -0.932052 0
M  V30 5527 O 523.059 2.45096 -1.16791 0
M  V30 5528 C 521.515 1.15641 -3.40816 0
M  V30 5529 C 521.123 0.0901146 -4.47909 0
M  V30 5530 C 522.867 1.80472 -3.84227 0
M  V30 5531 C 520.774 0.638154 -5.87947 0
M  V30 5532 H 519.704 0.235835 -0.716169 0
M  V30 5533 H 522.355 -0.120809 -1.83102 0
M  V30 5534 H 520.737 1.95084 -3.44613 0
M  V30 5535 H 521.911 -0.683525 -4.55702 0
M  V30 5536 H 520.226 -0.460774 -4.13843 0
M  V30 5537 H 522.823 2.22471 -4.86221 0
M  V30 5538 H 523.166 2.65669 -3.20508 0
M  V30 5539 H 523.699 1.07683 -3.82948 0
M  V30 5540 H 520.438 -0.176202 -6.55263 0
M  V30 5541 H 519.958 1.37976 -5.83714 0
M  V30 5542 H 521.637 1.12085 -6.37217 0
M  V30 5543 N 521.769 1.56035 0.221574 0
M  V30 5544 C 523.017 1.78693 0.944102 0
M  V30 5545 C 523.338 0.620317 1.8487 0
M  V30 5546 O 522.608 -0.362784 1.92512 0
M  V30 5547 H 521.188 0.659082 0.351597 0
M  V30 5548 H 523.85 1.93497 0.233435 0
M  V30 5549 H 522.946 2.70837 1.55093 0
M  V30 5550 N 523.247 -0.488276 1.49845 0
M  V30 5551 C 524.475 -1.26527 1.63702 0
M  V30 5552 C 524.89 -1.8618 0.313447 0
M  V30 5553 O 524.247 -1.68432 -0.702624 0
M  V30 5554 C 524.298 -2.3864 2.71538 0
M  V30 5555 O 524.019 -1.81437 3.98763 0
M  V30 5556 C 525.52 -3.29805 2.96215 0
M  V30 5557 H 522.74 -0.383295 0.55075 0
M  V30 5558 H 525.284 -0.584779 1.95961 0
M  V30 5559 H 523.439 -3.02496 2.42023 0
M  V30 5560 H 523.853 -2.55135 4.58265 0
M  V30 5561 H 525.327 -4.04722 3.75372 0
M  V30 5562 H 525.804 -3.87563 2.06619 0
M  V30 5563 H 526.41 -2.71703 3.27196 0
M  V30 5564 N 524.725 -1.39134 -0.740242 0
M  V30 5565 C 525.972 -1.36071 -1.49969 0
M  V30 5566 C 526.3 0.0450245 -1.94448 0
M  V30 5567 O 525.555 1.02482 -1.66721 0
M  V30 5568 C 525.854 -2.27457 -2.75678 0
M  V30 5569 C 525.52 -3.75185 -2.50094 0
M  V30 5570 C 524.182 -4.15439 -2.42825 0
M  V30 5571 C 526.534 -4.68643 -2.28086 0
M  V30 5572 C 523.862 -5.4722 -2.11584 0
M  V30 5573 C 526.214 -6.00695 -1.98363 0
M  V30 5574 C 524.878 -6.40018 -1.8956 0
M  V30 5575 H 524.148 -0.497921 -0.548777 0
M  V30 5576 H 526.795 -1.71599 -0.85007 0
M  V30 5577 H 525.1 -1.8503 -3.45356 0
M  V30 5578 H 526.797 -2.22384 -3.33686 0
M  V30 5579 H 523.387 -3.43279 -2.56627 0
M  V30 5580 H 527.571 -4.3838 -2.32672 0
M  V30 5581 H 522.827 -5.76615 -2.03287 0
M  V30 5582 H 527.001 -6.72644 -1.80341 0
M  V30 5583 H 524.628 -7.42051 -1.65117 0
M  V30 5584 N 526.204 0.969867 -1.24223 0
M  V30 5585 C 527.62 1.23809 -1.00716 0
M  V30 5586 C 527.82 1.99469 0.285358 0
M  V30 5587 O 526.876 2.31764 1.00207 0
M  V30 5588 C 528.189 2.02734 -2.2208 0
M  V30 5589 C 529.737 2.15834 -2.26681 0
M  V30 5590 C 530.212 2.98154 -3.47661 0
M  V30 5591 N 531.703 3.05737 -3.47964 0
M  V30 5592 C 532.438 3.69785 -4.38231 0
M  V30 5593 N 531.934 4.35569 -5.3875 0
M  V30 5594 N 533.727 3.66775 -4.25949 0
M  V30 5595 H 525.878 0.463294 -2.07286 0
M  V30 5596 H 528.141 0.267348 -0.909521 0
M  V30 5597 H 527.847 1.54524 -3.15935 0
M  V30 5598 H 527.721 3.0347 -2.24021 0
M  V30 5599 H 530.108 2.63248 -1.33359 0
M  V30 5600 H 530.189 1.14453 -2.28767 0
M  V30 5601 H 529.833 2.51435 -4.41297 0
M  V30 5602 H 529.763 3.99729 -3.42818 0
M  V30 5603 H 532.254 2.58941 -2.75242 0
M  V30 5604 H 532.567 4.82251 -6.03866 0
M  V30 5605 H 530.912 4.34244 -5.42639 0
M  V30 5606 H 534.103 3.14558 -3.46657 0
M  V30 5607 H 534.276 4.16407 -4.96497 0
M  V30 5608 N 527.682 1.05563 1.17022 0
M  V30 5609 C 528.959 0.68165 1.83338 0
M  V30 5610 C 529.339 -0.837665 1.93769 0
M  V30 5611 O 528.687 -1.74507 1.47511 0
M  V30 5612 C 528.897 1.375 3.20772 0
M  V30 5613 C 530.245 1.51545 3.96635 0
M  V30 5614 O 531.269 1.33431 3.30264 0
M  V30 5615 O 530.128 1.812 5.15586 0
M  V30 5616 H 527.222 0.240412 0.791285 0
M  V30 5617 H 529.768 1.15545 1.24288 0
M  V30 5618 H 528.54 2.41135 3.08171 0
M  V30 5619 H 528.163 0.890798 3.87493 0
M  V30 5620 N 529.16 -1.33526 0.837174 0
M  V30 5621 C 530.09 -2.31764 0.284206 0
M  V30 5622 C 531.071 -1.58896 -0.607142 0
M  V30 5623 O 532.256 -1.86798 -0.531047 0
M  V30 5624 C 529.386 -3.43029 -0.542962 0
M  V30 5625 C 528.34 -4.27255 0.252451 0
M  V30 5626 C 527.666 -5.3012 -0.69836 0
M  V30 5627 C 528.966 -5.01229 1.46858 0
M  V30 5628 H 530.66 -2.78262 1.10502 0
M  V30 5629 H 528.206 -1.3378 0.532812 0
M  V30 5630 H 530.159 -4.1078 -0.940096 0
M  V30 5631 H 528.883 -2.95216 -1.39697 0
M  V30 5632 H 527.542 -3.61127 0.631124 0
M  V30 5633 H 527.19 -4.78564 -1.54872 0
M  V30 5634 H 526.89 -5.87353 -0.170274 0
M  V30 5635 H 528.414 -6.00737 -1.09305 0
M  V30 5636 H 529.828 -5.61756 1.14469 0
M  V30 5637 H 528.225 -5.68104 1.93333 0
M  V30 5638 H 529.295 -4.301 2.23924 0
M  V30 5639 N 530.638 -0.59345 -1.46 0
M  V30 5640 C 531.601 0.123538 -2.28867 0
M  V30 5641 C 532.601 0.808628 -1.38989 0
M  V30 5642 O 533.791 0.658945 -1.61256 0
M  V30 5643 C 530.923 1.1847 -3.19653 0
M  V30 5644 H 532.116 -0.604843 -2.93737 0
M  V30 5645 H 529.669 -0.351875 -1.52288 0
M  V30 5646 H 530.404 1.94431 -2.59552 0
M  V30 5647 H 530.189 0.69783 -3.8584 0
M  V30 5648 H 531.679 1.68726 -3.81997 0
M  V30 5649 N 532.116 1.54067 -0.331816 0
M  V30 5650 C 533.362 2.01012 0.268667 0
M  V30 5651 C 533.695 1.2195 1.51136 0
M  V30 5652 O 532.97 0.303972 1.9211 0
M  V30 5653 C 533.253 3.55158 0.59456 0
M  V30 5654 C 533.106 4.4494 -0.659409 0
M  V30 5655 C 534.425 4.16939 1.4089 0
M  V30 5656 H 531.544 0.730698 0.0961756 0
M  V30 5657 H 534.186 1.84593 -0.450031 0
M  V30 5658 H 532.336 3.6928 1.20685 0
M  V30 5659 H 534.008 4.42675 -1.29756 0
M  V30 5660 H 532.251 4.1428 -1.28665 0
M  V30 5661 H 532.922 5.50643 -0.386804 0
M  V30 5662 H 535.398 4.06443 0.891272 0
M  V30 5663 H 534.274 5.24889 1.60569 0
M  V30 5664 H 534.535 3.70798 2.40752 0
M  V30 5665 N 533.594 0.0601682 1.57485 0
M  V30 5666 C 534.84 -0.612501 1.93329 0
M  V30 5667 C 535.173 -1.6996 0.939526 0
M  V30 5668 O 534.448 -1.94472 -0.0330957 0
M  V30 5669 C 534.731 -1.20025 3.39508 0
M  V30 5670 C 534.584 -0.12059 4.49638 0
M  V30 5671 C 535.903 -2.10923 3.86264 0
M  V30 5672 H 533.022 -0.221185 0.703027 0
M  V30 5673 H 535.664 0.123768 1.89596 0
M  V30 5674 H 533.814 -1.82774 3.42821 0
M  V30 5675 H 535.486 0.51185 4.58452 0
M  V30 5676 H 533.729 0.550251 4.30296 0
M  V30 5677 H 534.4 -0.572019 5.49028 0
M  V30 5678 H 536.876 -1.58124 3.84884 0
M  V30 5679 H 535.752 -2.48987 4.8918 0
M  V30 5680 H 536.013 -3.01292 3.23536 0
M  V30 5681 N 535.072 -1.5615 -0.213296 0
M  V30 5682 C 536.002 -1.96109 -1.26742 0
M  V30 5683 C 536.983 -0.830448 -1.48451 0
M  V30 5684 O 538.168 -1.09339 -1.60495 0
M  V30 5685 C 535.298 -2.28492 -2.61551 0
M  V30 5686 C 534.252 -3.44124 -2.54485 0
M  V30 5687 C 533.578 -3.62134 -3.93399 0
M  V30 5688 C 534.878 -4.78855 -2.08556 0
M  V30 5689 H 536.572 -2.84412 -0.935434 0
M  V30 5690 H 534.118 -1.36836 -0.44854 0
M  V30 5691 H 536.071 -2.55039 -3.3546 0
M  V30 5692 H 534.795 -1.37052 -2.96453 0
M  V30 5693 H 533.454 -3.17639 -1.83033 0
M  V30 5694 H 533.102 -2.68055 -4.25623 0
M  V30 5695 H 532.802 -4.39913 -3.89551 0
M  V30 5696 H 534.326 -3.91038 -4.68958 0
M  V30 5697 H 535.74 -5.04552 -2.72213 0
M  V30 5698 H 534.137 -5.59975 -2.1575 0
M  V30 5699 H 535.207 -4.73657 -1.03811 0
M  V30 5700 N 536.55 0.480323 -1.50102 0
M  V30 5701 C 537.46 1.60547 -1.71061 0
M  V30 5702 C 538.476 1.63564 -0.593529 0
M  V30 5703 O 539.652 1.81604 -0.870751 0
M  V30 5704 C 536.717 2.96814 -1.79171 0
M  V30 5705 C 535.778 3.04259 -3.02861 0
M  V30 5706 C 535.011 4.34027 -3.10574 0
M  V30 5707 O 535.234 5.24009 -2.25323 0
M  V30 5708 O 534.168 4.46873 -4.03223 0
M  V30 5709 H 537.994 1.45788 -2.6642 0
M  V30 5710 H 535.579 0.658838 -1.34088 0
M  V30 5711 H 537.461 3.77765 -1.86738 0
M  V30 5712 H 536.136 3.11791 -0.869947 0
M  V30 5713 H 535.043 2.22419 -3.008 0
M  V30 5714 H 536.376 2.94216 -3.94586 0
M  V30 5715 N 538.028 1.39524 0.732853 0
M  V30 5716 C 539.256 1.40143 1.52209 0
M  V30 5717 C 539.671 -0.00348836 1.888 0
M  V30 5718 O 539.028 -0.975357 1.5425 0
M  V30 5719 C 539.079 2.27632 2.8083 0
M  V30 5720 O 538.8 3.62654 2.45792 0
M  V30 5721 C 540.301 2.36658 3.74844 0
M  V30 5722 H 537.521 0.478604 0.470297 0
M  V30 5723 H 540.065 1.83366 0.905388 0
M  V30 5724 H 538.22 1.87818 3.38826 0
M  V30 5725 H 538.634 4.08941 3.28431 0
M  V30 5726 H 540.108 3.02118 4.61984 0
M  V30 5727 H 540.585 1.38638 4.16745 0
M  V30 5728 H 541.191 2.76951 3.22766 0
M  V30 5729 N 539.506 -0.963266 1.24736 0
M  V30 5730 C 540.469 -2.04013 1.04457 0
M  V30 5731 C 541.469 -1.608 0.000335555 0
M  V30 5732 O 542.659 -1.72515 0.241719 0
M  V30 5733 C 539.791 -3.35858 0.584162 0
M  V30 5734 H 540.984 -2.23436 2.00041 0
M  V30 5735 H 538.537 -1.13914 1.07021 0
M  V30 5736 H 539.272 -3.22128 -0.374673 0
M  V30 5737 H 539.057 -3.68568 1.3379 0
M  V30 5738 H 540.547 -4.1502 0.463451 0
M  V30 5739 N 540.985 -1.06182 -1.16461 0
M  V30 5740 C 542.396 -0.802426 -1.68576 0
M  V30 5741 C 542.747 0.67412 -1.84255 0
M  V30 5742 O 541.872 1.52303 -1.5373 0
M  V30 5743 C 542.467 -1.45002 -3.06202 0
M  V30 5744 C 541.026 -1.23843 -3.55443 0
M  V30 5745 C 540.173 -1.52724 -2.31454 0
M  V30 5746 H 543.124 -1.22545 -1.00839 0
M  V30 5747 H 543.145 -0.864731 -3.70544 0
M  V30 5748 H 542.657 -2.52466 -2.94759 0
M  V30 5749 H 540.758 -0.183487 -3.72148 0
M  V30 5750 H 540.871 -1.95036 -4.37604 0
M  V30 5751 H 539.235 -0.947726 -2.36411 0
M  V30 5752 H 540.018 -2.61343 -2.22609 0
M  V30 5753 N 542.463 1.3308 -0.844243 0
M  V30 5754 C 543.712 1.96868 -0.438833 0
M  V30 5755 C 544.025 1.67599 1.00846 0
M  V30 5756 O 545.231 2.25043 1.51881 0
M  V30 5757 C 543.687 3.5234 -0.73377 0
M  V30 5758 C 543.295 3.90481 -2.1961 0
M  V30 5759 C 545.039 4.22653 -0.395574 0
M  V30 5760 C 542.946 5.38954 -2.43481 0
M  V30 5761 H 541.876 0.736749 -0.160364 0
M  V30 5762 H 544.527 1.51623 -1.03358 0
M  V30 5763 H 542.909 3.95941 -0.068589 0
M  V30 5764 H 544.083 3.57922 -2.90221 0
M  V30 5765 H 542.398 3.33165 -2.4978 0
M  V30 5766 H 544.995 5.31848 -0.551477 0
M  V30 5767 H 545.338 4.11004 0.661921 0
M  V30 5768 H 545.871 3.84601 -1.01621 0
M  V30 5769 H 542.61 5.55612 -3.47816 0
M  V30 5770 H 542.13 5.72954 -1.77437 0
M  V30 5771 H 543.809 6.05907 -2.26905 0
M  V30 5772 N 543.941 0.601185 1.45683 0
M  V30 5773 C 544.871 -0.108824 2.33246 0
M  V30 5774 C 545.852 -0.865223 1.46451 0
M  V30 5775 O 547.037 -0.83704 1.75235 0
M  V30 5776 C 544.167 -1.11101 3.2905 0
M  V30 5777 C 543.121 -0.468244 4.25431 0
M  V30 5778 C 542.447 -1.57822 5.10878 0
M  V30 5779 C 543.747 0.606469 5.18767 0
M  V30 5780 H 545.441 0.622306 2.92861 0
M  V30 5781 H 542.987 0.300714 1.40825 0
M  V30 5782 H 544.94 -1.61622 3.89174 0
M  V30 5783 H 543.664 -1.87265 2.67581 0
M  V30 5784 H 542.323 0.0160484 3.66596 0
M  V30 5785 H 541.971 -2.32998 4.45781 0
M  V30 5786 H 541.671 -1.15369 5.76163 0
M  V30 5787 H 543.195 -2.08583 5.73869 0
M  V30 5788 H 544.609 0.185589 5.73 0
M  V30 5789 H 543.006 0.952381 5.92494 0
M  V30 5790 H 544.076 1.48559 4.61582 0
M  V30 5791 N 545.419 -1.53889 0.339982 0
M  V30 5792 C 546.647 -2.05271 -0.259114 0
M  V30 5793 C 547.062 -1.21517 -1.44496 0
M  V30 5794 O 546.419 -0.24966 -1.80784 0
M  V30 5795 C 546.47 -3.55092 -0.677634 0
M  V30 5796 O 546.191 -4.35667 0.461051 0
M  V30 5797 C 547.692 -4.22631 -1.33782 0
M  V30 5798 H 544.912 -0.669085 -0.0506566 0
M  V30 5799 H 547.456 -1.9852 0.490935 0
M  V30 5800 H 545.611 -3.62077 -1.37763 0
M  V30 5801 H 546.025 -5.24343 0.128144 0
M  V30 5802 H 547.499 -5.28861 -1.58145 0
M  V30 5803 H 547.976 -3.74758 -2.29027 0
M  V30 5804 H 548.582 -4.19829 -0.679957 0
M  V30 5805 N 546.897 -0.0685191 -1.57451 0
M  V30 5806 C 547.86 0.885173 -2.11417 0
M  V30 5807 C 548.86 1.22853 -1.03748 0
M  V30 5808 O 550.05 1.16235 -1.2975 0
M  V30 5809 C 547.182 2.18964 -2.61281 0
M  V30 5810 H 548.375 0.417034 -2.96986 0
M  V30 5811 H 545.928 0.18014 -1.55258 0
M  V30 5812 H 546.663 2.70321 -1.79156 0
M  V30 5813 H 546.448 1.9534 -3.39977 0
M  V30 5814 H 547.938 2.87242 -3.0312 0
M  V30 5815 N 548.375 1.56261 0.205012 0
M  V30 5816 C 549.305 1.96779 1.257 0
M  V30 5817 C 550.286 0.838309 1.48008 0
M  V30 5818 O 551.471 1.10189 1.59913 0
M  V30 5819 C 548.601 2.29876 2.60335 0
M  V30 5820 C 547.555 3.45469 2.52656 0
M  V30 5821 C 546.881 3.64215 3.91473 0
M  V30 5822 C 548.181 4.79954 2.06014 0
M  V30 5823 H 549.875 2.84904 0.920338 0
M  V30 5824 H 547.421 1.37072 0.441277 0
M  V30 5825 H 549.374 2.56814 3.34102 0
M  V30 5826 H 548.098 1.38622 2.95722 0
M  V30 5827 H 546.757 3.18605 1.81345 0
M  V30 5828 H 546.405 2.70309 4.24196 0
M  V30 5829 H 546.105 4.41973 3.87213 0
M  V30 5830 H 547.629 3.93519 4.66878 0
M  V30 5831 H 549.043 5.05989 2.69533 0
M  V30 5832 H 547.44 5.61111 2.12777 0
M  V30 5833 H 548.51 4.74201 1.01297 0
M  V30 5834 N 549.853 -0.472356 1.50355 0
M  V30 5835 C 551.13 -1.23356 1.51798 0
M  V30 5836 C 551.51 -2.09469 0.26193 0
M  V30 5837 O 550.858 -2.15677 -0.754691 0
M  V30 5838 C 551.068 -2.06568 2.81302 0
M  V30 5839 C 552.416 -2.648 3.31913 0
M  V30 5840 O 553.44 -2.16812 2.82614 0
M  V30 5841 O 552.299 -3.52231 4.17846 0
M  V30 5842 H 549.393 -0.559707 0.608816 0
M  V30 5843 H 551.939 -0.48428 1.62643 0
M  V30 5844 H 550.711 -1.43103 3.64194 0
M  V30 5845 H 550.334 -2.88633 2.73454 0
M  V30 5846 N 551.331 -1.39911 -0.725443 0
M  V30 5847 C 552.58 -1.36963 -1.48068 0
M  V30 5848 C 552.893 0.0284478 -1.95579 0
M  V30 5849 O 554.099 0.180535 -2.70899 0
M  V30 5850 C 552.555 -2.40664 -2.67598 0
M  V30 5851 C 552.163 -3.86234 -2.26997 0
M  V30 5852 C 553.907 -2.46807 -3.45379 0
M  V30 5853 C 551.814 -4.81554 -3.43307 0
M  V30 5854 H 550.744 -0.509223 -0.556065 0
M  V30 5855 H 553.395 -1.65602 -0.790454 0
M  V30 5856 H 551.777 -2.05109 -3.38742 0
M  V30 5857 H 552.951 -4.3088 -1.63337 0
M  V30 5858 H 551.266 -3.83475 -1.62284 0
M  V30 5859 H 553.863 -3.15213 -4.31909 0
M  V30 5860 H 554.206 -1.49552 -3.8851 0
M  V30 5861 H 554.739 -2.81303 -2.81271 0
M  V30 5862 H 551.478 -5.80106 -3.05217 0
M  V30 5863 H 550.998 -4.4158 -4.05915 0
M  V30 5864 H 552.677 -5.0091 -4.0951 0
M  V30 5865 N 552.809 0.956637 -1.25245 0
M  V30 5866 C 554.056 1.701 -1.09874 0
M  V30 5867 C 554.384 1.91128 0.36062 0
M  V30 5868 O 553.639 1.47837 1.28229 0
M  V30 5869 C 553.938 3.08996 -1.79601 0
M  V30 5870 C 553.604 3.07774 -3.29523 0
M  V30 5871 C 552.266 3.07149 -3.70423 0
M  V30 5872 C 554.618 3.01257 -4.25316 0
M  V30 5873 C 551.946 2.97752 -5.0553 0
M  V30 5874 C 554.298 2.93403 -5.60444 0
M  V30 5875 C 552.962 2.91111 -6.00675 0
M  V30 5876 H 552.232 0.62244 -0.402056 0
M  V30 5877 H 554.879 1.1178 -1.55491 0
M  V30 5878 H 553.184 3.70848 -1.26408 0
M  V30 5879 H 554.881 3.65407 -1.65162 0
M  V30 5880 H 551.471 3.09032 -2.9698 0
M  V30 5881 H 555.655 3.00861 -3.9471 0
M  V30 5882 H 550.911 2.94346 -5.35883 0
M  V30 5883 H 555.085 2.87321 -6.34366 0
M  V30 5884 H 552.712 2.83586 -7.05325 0
M  V30 5885 N 554.287 1.06798 1.15896 0
M  V30 5886 C 555.533 0.788934 1.86825 0
M  V30 5887 C 555.866 -0.683084 1.8179 0
M  V30 5888 O 555.141 -1.50086 1.23711 0
M  V30 5889 C 555.424 1.29065 3.36176 0
M  V30 5890 C 555.277 2.8268 3.49874 0
M  V30 5891 C 556.596 0.902655 4.30744 0
M  V30 5892 H 553.715 0.288066 0.678371 0
M  V30 5893 H 556.357 1.32479 1.36195 0
M  V30 5894 H 554.507 0.834806 3.79425 0
M  V30 5895 H 556.179 3.36511 3.15528 0
M  V30 5896 H 554.422 3.21157 2.91617 0
M  V30 5897 H 555.093 3.12852 4.54783 0
M  V30 5898 H 557.569 1.29535 3.95424 0
M  V30 5899 H 556.445 1.28111 5.3374 0
M  V30 5900 H 556.706 -0.191951 4.41683 0
M  V30 5901 N 555.766 -1.3263 0.851289 0
M  V30 5902 C 557.043 -1.91982 0.374448 0
M  V30 5903 C 557.423 -1.77568 -1.14161 0
M  V30 5904 O 556.771 -1.1717 -1.96172 0
M  V30 5905 C 556.981 -3.38862 0.835088 0
M  V30 5906 C 558.329 -4.15999 0.850309 0
M  V30 5907 O 559.353 -3.47566 0.779505 0
M  V30 5908 O 558.212 -5.38189 0.949481 0
M  V30 5909 H 555.306 -0.819846 0.10854 0
M  V30 5910 H 557.852 -1.41422 0.937966 0
M  V30 5911 H 556.624 -3.43281 1.87814 0
M  V30 5912 H 556.247 -3.96821 0.248833 0
M  V30 5913 N 557.244 -0.608902 -1.45362 0
M  V30 5914 C 558.66 -0.272659 -1.57254 0
M  V30 5915 C 558.86 1.22477 -1.60005 0
M  V30 5916 O 557.916 2.00785 -1.53106 0
M  V30 5917 C 559.229 -0.944991 -2.85465 0
M  V30 5918 C 560.777 -0.921033 -2.99142 0
M  V30 5919 C 561.252 -1.5734 -4.30126 0
M  V30 5920 N 562.743 -1.53895 -4.36887 0
M  V30 5921 C 563.478 -2.01286 -5.36909 0
M  V30 5922 N 562.974 -2.56768 -6.43461 0
M  V30 5923 N 564.767 -1.92046 -5.28275 0
M  V30 5924 H 556.918 -1.58117 -1.4182 0
M  V30 5925 H 559.181 -0.662437 -0.678146 0
M  V30 5926 H 558.887 -1.99941 -2.89338 0
M  V30 5927 H 558.761 -0.469079 -3.74272 0
M  V30 5928 H 561.148 0.124846 -2.94836 0
M  V30 5929 H 561.229 -1.43522 -2.11743 0
M  V30 5930 H 560.873 -2.61862 -4.35191 0
M  V30 5931 H 560.803 -1.03422 -5.16344 0
M  V30 5932 H 563.294 -1.13366 -3.60495 0
M  V30 5933 H 563.607 -2.9072 -7.16032 0
M  V30 5934 H 561.952 -2.60808 -6.44208 0
M  V30 5935 H 565.143 -1.48439 -4.43941 0
M  V30 5936 H 565.316 -2.29293 -6.06077 0
M  V30 5937 N 558.722 1.53707 -0.348139 0
M  V30 5938 C 560.138 1.596 0.00361134 0
M  V30 5939 C 560.338 1.36394 1.4832 0
M  V30 5940 O 559.394 1.16046 2.24253 0
M  V30 5941 C 560.707 2.97512 -0.436682 0
M  V30 5942 C 562.255 3.10568 -0.389416 0
M  V30 5943 C 562.73 4.50866 -0.805249 0
M  V30 5944 N 564.221 4.56929 -0.759616 0
M  V30 5945 C 564.956 5.63643 -1.05327 0
M  V30 5946 N 564.452 6.78189 -1.41531 0
M  V30 5947 N 566.245 5.5354 -0.977207 0
M  V30 5948 H 558.396 1.67044 -1.31187 0
M  V30 5949 H 560.659 0.782559 -0.535075 0
M  V30 5950 H 560.365 3.19575 -1.46849 0
M  V30 5951 H 560.239 3.76742 0.185744 0
M  V30 5952 H 562.626 2.88226 0.633228 0
M  V30 5953 H 562.707 2.33387 -1.04711 0
M  V30 5954 H 562.351 4.73943 -1.82593 0
M  V30 5955 H 562.281 5.26452 -0.124989 0
M  V30 5956 H 564.772 3.74675 -0.49265 0
M  V30 5957 H 565.085 7.55541 -1.62411 0
M  V30 5958 H 563.43 6.79624 -1.45381 0
M  V30 5959 H 566.621 4.62932 -0.693675 0
M  V30 5960 H 566.794 6.36614 -1.2094 0
M  V30 5961 N 560.2 0.0768682 1.57412 0
M  V30 5962 C 561.446 -0.591961 1.93968 0
M  V30 5963 C 561.779 -1.68954 0.9575 0
M  V30 5964 O 561.054 -1.94496 -0.0124675 0
M  V30 5965 C 561.337 -1.16418 3.40762 0
M  V30 5966 C 561.19 -0.0728933 4.49741 0
M  V30 5967 C 562.509 -2.06814 3.88479 0
M  V30 5968 H 559.628 -0.213716 0.705333 0
M  V30 5969 H 562.27 0.14387 1.89455 0
M  V30 5970 H 560.42 -1.79128 3.4474 0
M  V30 5971 H 562.092 0.560446 4.57883 0
M  V30 5972 H 560.335 0.595859 4.29688 0
M  V30 5973 H 561.006 -0.513755 5.49604 0
M  V30 5974 H 563.482 -1.54033 3.8654 0
M  V30 5975 H 562.358 -2.43785 4.91793 0
M  V30 5976 H 562.619 -2.97844 3.26713 0
M  V30 5977 N 561.678 -1.56367 -0.196722 0
M  V30 5978 C 562.903 -1.84991 -0.937714 0
M  V30 5979 C 563.328 -0.660244 -1.76132 0
M  V30 5980 O 562.686 0.390967 -1.77034 0
M  V30 5981 C 562.734 -3.11828 -1.81096 0
M  V30 5982 O 561.838 -2.92266 -2.90955 0
M  V30 5983 H 561.179 -0.609193 -0.264159 0
M  V30 5984 H 563.709 -2.03595 -0.202529 0
M  V30 5985 H 563.719 -3.42579 -2.21594 0
M  V30 5986 H 562.394 -3.98037 -1.2058 0
M  V30 5987 H 560.971 -2.72809 -2.54224 0
M  V30 5988 N 563.156 0.464375 -1.50603 0
M  V30 5989 C 564.119 1.54393 -1.69397 0
M  V30 5990 C 565.119 1.50566 -0.564504 0
M  V30 5991 O 566.309 1.53066 -0.831645 0
M  V30 5992 C 563.441 2.9401 -1.72543 0
M  V30 5993 H 564.634 1.39044 -2.65719 0
M  V30 5994 H 562.187 0.69122 -1.40185 0
M  V30 5995 H 562.922 3.14795 -0.77938 0
M  V30 5996 H 562.707 2.98195 -2.54602 0
M  V30 5997 H 564.197 3.72375 -1.89015 0
M  V30 5998 N 564.634 1.40294 0.718013 0
M  V30 5999 C 565.564 1.43118 1.84498 0
M  V30 6000 C 566.545 0.292403 1.67568 0
M  V30 6001 O 567.73 0.500675 1.87635 0
M  V30 6002 C 564.86 1.29065 3.22427 0
M  V30 6003 C 563.814 2.40521 3.54025 0
M  V30 6004 C 563.14 2.11546 4.91073 0
M  V30 6005 C 564.44 3.82859 3.55269 0
M  V30 6006 H 566.134 2.37432 1.82391 0
M  V30 6007 H 563.68 1.14283 0.87609 0
M  V30 6008 H 565.633 1.29658 4.00957 0
M  V30 6009 H 564.357 0.312271 3.25104 0
M  V30 6010 H 563.016 2.39173 2.77834 0
M  V30 6011 H 562.664 1.12104 4.90348 0
M  V30 6012 H 562.364 2.86216 5.1318 0
M  V30 6013 H 563.888 2.13817 5.71939 0
M  V30 6014 H 565.302 3.86044 4.23843 0
M  V30 6015 H 563.699 4.57029 3.88902 0
M  V30 6016 H 564.769 4.12617 2.54706 0
M  V30 6017 N 566.112 -0.949982 1.2575 0
M  V30 6018 C 567.523 -1.50989 1.09815 0
M  V30 6019 C 567.874 -1.93497 -0.324556 0
M  V30 6020 O 566.999 -1.79068 -1.21506 0
M  V30 6021 C 567.594 -2.74394 1.98729 0
M  V30 6022 C 566.153 -3.26682 1.86965 0
M  V30 6023 C 565.3 -1.99498 1.92603 0
M  V30 6024 H 568.251 -0.766387 1.38968 0
M  V30 6025 H 568.272 -3.48383 1.53001 0
M  V30 6026 H 567.784 -2.43425 3.02268 0
M  V30 6027 H 565.885 -3.62461 0.863279 0
M  V30 6028 H 565.998 -3.94383 2.72027 0
M  V30 6029 H 564.362 -2.15005 1.36546 0
M  V30 6030 H 565.145 -1.70871 2.97755 0
M  V30 6031 N 567.59 -1.07411 -1.15328 0
M  V30 6032 C 568.836 -0.798831 -1.86404 0
M  V30 6033 C 569.169 0.673433 -1.8215 0
M  V30 6034 O 568.444 1.49428 -1.24505 0
M  V30 6035 C 568.727 -1.30846 -3.35487 0
M  V30 6036 C 568.58 -2.84532 -3.4837 0
M  V30 6037 C 569.899 -0.925486 -4.30259 0
M  V30 6038 H 567.018 -0.291659 -0.676834 0
M  V30 6039 H 569.66 -1.332 -1.35491 0
M  V30 6040 H 567.81 -0.854916 -3.78977 0
M  V30 6041 H 569.482 -3.3818 -3.13739 0
M  V30 6042 H 567.725 -3.22699 -2.8991 0
M  V30 6043 H 568.396 -3.15259 -4.53118 0
M  V30 6044 H 570.872 -1.3163 -3.94731 0
M  V30 6045 H 569.748 -1.3094 -5.33053 0
M  V30 6046 H 570.009 0.168525 -4.41779 0
M  V30 6047 N 569.068 1.32177 -0.85831 0
M  V30 6048 C 570.314 1.97417 -0.46417 0
M  V30 6049 C 570.647 1.67746 0.978514 0
M  V30 6050 O 569.922 0.967654 1.68721 0
M  V30 6051 C 570.205 3.53069 -0.708094 0
M  V30 6052 C 570.058 3.92357 -2.19946 0
M  V30 6053 C 571.377 4.39783 -0.166881 0
M  V30 6054 H 568.496 0.717097 -0.17012 0
M  V30 6055 H 571.138 1.56499 -1.07741 0
M  V30 6056 H 569.288 3.88054 -0.186128 0
M  V30 6057 H 570.96 3.67533 -2.78779 0
M  V30 6058 H 569.203 3.41384 -2.67656 0
M  V30 6059 H 569.874 5.00841 -2.32082 0
M  V30 6060 H 572.35 4.11556 -0.613285 0
M  V30 6061 H 571.226 5.47671 -0.367093 0
M  V30 6062 H 571.487 4.32196 0.930559 0
M  V30 6063 N 570.547 0.616602 1.45037 0
M  V30 6064 C 571.495 -0.109318 2.32343 0
M  V30 6065 C 572.489 -0.850543 1.465 0
M  V30 6066 O 573.695 -0.765088 1.62931 0
M  V30 6067 H 570.07 -0.0541091 0.750051 0
M  V30 6068 H 572.041 0.645326 2.91338 0
M  V30 6069 C 570.79 -1.0872 3.30266 0
M  V30 6070 H 570.113 -0.526267 3.96321 0
M  V30 6071 H 571.553 -1.56489 3.94065 0
M  V30 6072 C 570.012 -2.16525 2.58105 0
M  V30 6073 O 570.542 -3.244 2.36913 0
M  V30 6074 N 568.748 -1.92057 2.18088 0
M  V30 6075 H 568.295 -1.04337 2.35524 0
M  V30 6076 H 568.253 -2.64391 1.70131 0
M  V30 6077 N 572.025 -1.5352 0.356285 0
M  V30 6078 C 572.935 -2.29151 -0.502712 0
M  V30 6079 C 573.951 -1.34753 -1.1008 0
M  V30 6080 O 575.127 -1.67803 -1.11374 0
M  V30 6081 C 572.192 -3.05911 -1.63154 0
M  V30 6082 C 571.253 -4.15958 -1.06194 0
M  V30 6083 C 570.486 -4.8905 -2.13696 0
M  V30 6084 O 570.709 -4.61919 -3.34645 0
M  V30 6085 O 569.643 -5.75202 -1.77275 0
M  V30 6086 H 573.469 -3.03492 0.112466 0
M  V30 6087 H 571.054 -1.4891 0.120942 0
M  V30 6088 H 572.936 -3.53874 -2.28804 0
M  V30 6089 H 571.611 -2.34415 -2.23229 0
M  V30 6090 H 570.518 -3.7227 -0.369603 0
M  V30 6091 H 571.851 -4.89593 -0.505872 0
M  V30 6092 N 573.503 -0.0852151 -1.57369 0
M  V30 6093 C 574.743 0.584297 -1.95871 0
M  V30 6094 C 575.107 1.6596 -0.965473 0
M  V30 6095 O 576.308 2.38561 -1.23862 0
M  V30 6096 C 574.579 1.13411 -3.38929 0
M  V30 6097 S 576.138 1.81687 -3.99419 0
M  V30 6098 H 572.956 0.19095 -0.684879 0
M  V30 6099 H 575.558 -0.162267 -1.94825 0
M  V30 6100 H 574.262 0.339845 -4.0899 0
M  V30 6101 H 573.793 1.91672 -3.43548 0
M  V30 6102 H 575.808 3.10037 -3.87417 0
M  V30 6103 N 574.981 1.5647 0.188427 0
M  V30 6104 C 576.229 1.80655 0.905986 0
M  V30 6105 C 576.55 0.659391 1.83513 0
M  V30 6106 O 575.82 -0.321868 1.93238 0
M  V30 6107 H 574.4 0.666391 0.337538 0
M  V30 6108 H 577.062 1.93949 0.192339 0
M  V30 6109 H 576.158 2.74066 1.49313 0
M  V30 6110 N 576.459 -0.456382 1.50847 0
M  V30 6111 C 577.391 -1.57033 1.66953 0
M  V30 6112 C 578.404 -1.53207 0.550593 0
M  V30 6113 O 579.593 -1.58328 0.824285 0
M  V30 6114 C 576.693 -2.95937 1.65149 0
M  V30 6115 C 575.866 -3.24475 2.93317 0
M  V30 6116 C 574.925 -4.43007 2.83957 0
M  V30 6117 O 573.951 -4.42592 3.57912 0
M  V30 6118 N 575.153 -5.45503 1.9851 0
M  V30 6119 H 577.918 -1.43629 2.63042 0
M  V30 6120 H 575.479 -0.645037 1.48495 0
M  V30 6121 H 577.471 -3.73224 1.56481 0
M  V30 6122 H 576.041 -3.03036 0.767343 0
M  V30 6123 H 575.261 -2.35664 3.16 0
M  V30 6124 H 576.549 -3.4036 3.78196 0
M  V30 6125 H 575.947 -5.48668 1.37766 0
M  V30 6126 H 574.504 -6.21716 1.95735 0
M  V30 6127 N 577.937 -1.40673 -0.710563 0
M  V30 6128 C 579.183 -1.39428 -1.47267 0
M  V30 6129 C 579.516 0.00182129 -1.942 0
M  V30 6130 O 578.791 0.971387 -1.68506 0
M  V30 6131 C 579.074 -2.38812 -2.6952 0
M  V30 6132 C 578.927 -3.87467 -2.28449 0
M  V30 6133 C 580.246 -2.3566 -3.71689 0
M  V30 6134 H 577.365 -0.507768 -0.534173 0
M  V30 6135 H 580.007 -1.71843 -0.810547 0
M  V30 6136 H 578.157 -2.113 -3.26013 0
M  V30 6137 H 579.829 -4.25825 -1.77399 0
M  V30 6138 H 578.072 -4.03058 -1.60395 0
M  V30 6139 H 578.743 -4.5253 -3.16103 0
M  V30 6140 H 581.219 -2.6004 -3.24836 0
M  V30 6141 H 580.095 -3.07237 -4.54859 0
M  V30 6142 H 580.356 -1.36996 -4.20339 0
M  V30 6143 N 579.415 0.9433 -1.26252 0
M  V30 6144 C 580.661 1.69175 -1.11837 0
M  V30 6145 C 580.994 1.91238 0.337891 0
M  V30 6146 O 580.269 1.49152 1.24836 0
M  V30 6147 C 580.552 3.06783 -1.88563 0
M  V30 6148 C 580.405 2.9206 -3.42083 0
M  V30 6149 C 581.724 4.06865 -1.67776 0
M  V30 6150 H 578.843 0.61399 -0.407658 0
M  V30 6151 H 581.485 1.09572 -1.55222 0
M  V30 6152 H 579.635 3.57663 -1.51689 0
M  V30 6153 H 581.307 2.48419 -3.88698 0
M  V30 6154 H 579.55 2.27731 -3.69217 0
M  V30 6155 H 580.221 3.89651 -3.90994 0
M  V30 6156 H 582.697 3.64939 -1.99897 0
M  V30 6157 H 581.573 5.01168 -2.23879 0
M  V30 6158 H 581.834 4.37705 -0.621816 0
M  V30 6159 N 580.893 1.08022 1.14757 0
M  V30 6160 C 582.141 0.805913 1.85336 0
M  V30 6161 C 582.462 -0.670162 1.83122 0
M  V30 6162 O 581.732 -1.48567 1.2769 0
M  V30 6163 H 580.312 0.295138 0.686223 0
M  V30 6164 H 582.974 1.36538 1.3908 0
M  V30 6165 H 582.07 1.14655 2.90277 0
M  V30 6166 N 582.371 -1.3172 0.865308 0
M  V30 6167 C 583.301 -2.31109 0.333302 0
M  V30 6168 C 584.282 -1.60148 -0.573301 0
M  V30 6169 O 585.467 -1.87882 -0.491305 0
M  V30 6170 C 582.597 -3.44104 -0.470078 0
M  V30 6171 C 581.551 -4.26623 0.343021 0
M  V30 6172 C 580.877 -5.31482 -0.585756 0
M  V30 6173 C 582.177 -4.98001 1.57456 0
M  V30 6174 H 583.871 -2.75855 1.1638 0
M  V30 6175 H 581.417 -1.3262 0.561069 0
M  V30 6176 H 583.37 -4.12682 -0.852752 0
M  V30 6177 H 582.094 -2.98112 -1.33404 0
M  V30 6178 H 580.753 -3.59707 0.707583 0
M  V30 6179 H 580.401 -4.81741 -1.44686 0
M  V30 6180 H 580.101 -5.87582 -0.0456494 0
M  V30 6181 H 581.625 -6.0292 -0.965375 0
M  V30 6182 H 583.039 -5.59201 1.26359 0
M  V30 6183 H 581.436 -5.63876 2.05339 0
M  V30 6184 H 582.506 -4.25253 2.32997 0
M  V30 6185 N 583.85 -0.624285 -1.44708 0
M  V30 6186 C 585.08 -0.132726 -2.06173 0
M  V30 6187 C 585.488 1.19513 -1.46674 0
M  V30 6188 O 584.831 1.74254 -0.581491 0
M  V30 6189 C 584.893 0.0636732 -3.59444 0
M  V30 6190 C 584.557 -1.18496 -4.4137 0
M  V30 6191 C 585.553 -2.10706 -4.75288 0
M  V30 6192 C 583.239 -1.41846 -4.81856 0
M  V30 6193 C 585.233 -3.24582 -5.48567 0
M  V30 6194 C 582.92 -2.5602 -5.54885 0
M  V30 6195 C 583.918 -3.47215 -5.88159 0
M  V30 6196 O 583.606 -4.59399 -6.59703 0
M  V30 6197 H 583.338 -0.0737313 -0.671967 0
M  V30 6198 H 585.892 -0.856789 -1.86677 0
M  V30 6199 H 584.122 0.842809 -3.77404 0
M  V30 6200 H 585.811 0.508924 -4.02697 0
M  V30 6201 H 586.577 -1.93898 -4.44554 0
M  V30 6202 H 582.456 -0.717556 -4.55381 0
M  V30 6203 H 586 -3.95785 -5.74456 0
M  V30 6204 H 581.897 -2.72774 -5.85034 0
M  V30 6205 H 582.665 -4.58293 -6.78166 0
M  V30 6206 N 585.328 1.53329 -0.364422 0
M  V30 6207 C 586.553 2.06132 0.229033 0
M  V30 6208 C 586.978 1.23625 1.41769 0
M  V30 6209 O 586.336 0.255038 1.79497 0
M  V30 6210 C 586.384 3.55544 0.60174 0
M  V30 6211 O 585.488 3.75771 1.69912 0
M  V30 6212 H 584.829 0.663148 0.0336213 0
M  V30 6213 H 587.359 1.97758 -0.524689 0
M  V30 6214 H 587.369 3.98549 0.873073 0
M  V30 6215 H 586.044 4.15039 -0.267421 0
M  V30 6216 H 584.621 3.44663 1.42343 0
M  V30 6217 N 586.806 0.0935595 1.57322 0
M  V30 6218 C 588.222 -0.263091 1.57417 0
M  V30 6219 C 588.422 -1.68526 1.1046 0
M  V30 6220 O 587.478 -2.40139 0.780357 0
M  V30 6221 C 588.791 -0.0529201 3.00653 0
M  V30 6222 C 590.339 -0.120788 3.12767 0
M  V30 6223 C 590.814 0.0613707 4.57959 0
M  V30 6224 N 592.305 0.00648534 4.632 0
M  V30 6225 C 593.04 0.122699 5.73269 0
M  V30 6226 N 592.536 0.29366 6.92177 0
M  V30 6227 N 594.329 0.0640787 5.62063 0
M  V30 6228 H 586.48 1.02277 1.86154 0
M  V30 6229 H 588.743 0.4007 0.859153 0
M  V30 6230 H 588.449 0.929279 3.39201 0
M  V30 6231 H 588.323 -0.795899 3.68708 0
M  V30 6232 H 590.71 -1.09349 2.74093 0
M  V30 6233 H 590.791 0.653656 2.47307 0
M  V30 6234 H 590.435 1.03093 4.97327 0
M  V30 6235 H 590.365 -0.732748 5.21477 0
M  V30 6236 H 592.856 -0.123173 3.77699 0
M  V30 6237 H 593.169 0.37389 7.71895 0
M  V30 6238 H 591.514 0.329307 6.94219 0
M  V30 6239 H 594.705 -0.0683396 4.6805 0
M  V30 6240 H 594.878 0.158097 6.47807 0
M  V30 6241 N 588.284 -1.56567 -0.180126 0
M  V30 6242 C 589.531 -1.81492 -0.898167 0
M  V30 6243 C 589.859 -0.669225 -1.82624 0
M  V30 6244 O 589.114 0.344096 -1.92651 0
M  V30 6245 C 589.413 -3.1252 -1.73395 0
M  V30 6246 C 589.079 -4.40658 -0.955567 0
M  V30 6247 C 587.741 -4.75465 -0.740707 0
M  V30 6248 C 590.093 -5.19593 -0.408948 0
M  V30 6249 C 587.421 -5.86691 0.0320128 0
M  V30 6250 C 589.773 -6.31627 0.350638 0
M  V30 6251 C 588.437 -6.65007 0.576378 0
M  V30 6252 H 587.707 -0.664125 -0.328662 0
M  V30 6253 H 590.354 -1.908 -0.163616 0
M  V30 6254 H 588.659 -2.98515 -2.53763 0
M  V30 6255 H 590.356 -3.29013 -2.29241 0
M  V30 6256 H 586.946 -4.13352 -1.13306 0
M  V30 6257 H 591.13 -4.93104 -0.562307 0
M  V30 6258 H 586.386 -6.11016 0.216735 0
M  V30 6259 H 590.56 -6.92001 0.781497 0
M  V30 6260 H 588.187 -7.51033 1.17703 0
M  V30 6261 N 589.762 0.448376 -1.51087 0
M  V30 6262 C 591.039 1.20926 -1.53741 0
M  V30 6263 C 591.419 2.09025 -0.295222 0
M  V30 6264 O 590.767 2.16851 0.720283 0
M  V30 6265 C 590.977 2.02067 -2.84552 0
M  V30 6266 C 592.325 2.59486 -3.36084 0
M  V30 6267 O 593.349 2.12289 -2.86028 0
M  V30 6268 O 592.208 3.45539 -4.23397 0
M  V30 6269 H 589.302 0.549951 -0.617643 0
M  V30 6270 H 591.848 0.458344 -1.63393 0
M  V30 6271 H 590.62 1.37291 -3.66425 0
M  V30 6272 H 590.243 2.84246 -2.78011 0
M  V30 6273 N 591.24 1.41047 0.703093 0
M  V30 6274 C 592.486 1.40207 1.46526 0
M  V30 6275 C 592.819 0.00847763 1.94198 0
M  V30 6276 O 592.094 -0.962437 1.69019 0
M  V30 6277 C 592.377 2.40238 2.6825 0
M  V30 6278 C 592.23 3.88674 2.26391 0
M  V30 6279 C 593.549 2.37627 3.70434 0
M  V30 6280 H 590.668 0.510594 0.531472 0
M  V30 6281 H 593.31 1.72271 0.801422 0
M  V30 6282 H 591.46 2.13026 3.24888 0
M  V30 6283 H 593.132 4.2676 1.75138 0
M  V30 6284 H 591.375 4.03903 1.58255 0
M  V30 6285 H 592.046 4.542 3.13698 0
M  V30 6286 H 594.522 2.61759 3.23452 0
M  V30 6287 H 593.398 3.09645 4.53223 0
M  V30 6288 H 593.659 1.39223 4.19606 0
M  V30 6289 N 592.718 -0.936591 1.26751 0
M  V30 6290 C 593.967 -1.67778 1.11953 0
M  V30 6291 C 594.28 -1.92694 -0.33589 0
M  V30 6292 O 595.486 -2.64682 -0.604618 0
M  V30 6293 C 593.942 -3.02138 1.95551 0
M  V30 6294 C 593.55 -2.84953 3.45696 0
M  V30 6295 C 595.294 -3.79917 1.89377 0
M  V30 6296 C 593.201 -4.14814 4.21525 0
M  V30 6297 H 592.131 -0.629275 0.415366 0
M  V30 6298 H 594.782 -1.04122 1.51099 0
M  V30 6299 H 593.164 -3.668 1.49243 0
M  V30 6300 H 594.338 -2.29112 3.99805 0
M  V30 6301 H 592.653 -2.20612 3.53156 0
M  V30 6302 H 595.25 -4.76134 2.43312 0
M  V30 6303 H 595.593 -4.07204 0.865464 0
M  V30 6304 H 596.126 -3.22037 2.33532 0
M  V30 6305 H 592.865 -3.92709 5.24843 0
M  V30 6306 H 592.385 -4.70352 3.72195 0
M  V30 6307 H 594.064 -4.83239 4.3022 0
M  V30 6308 N 594.196 -1.08629 -1.14182 0
M  V30 6309 C 595.146 -0.687882 -2.17376 0
M  V30 6310 C 596.13 0.293632 -1.58198 0
M  V30 6311 O 597.322 0.105292 -1.76687 0
M  V30 6312 C 594.451 -0.101184 -3.43151 0
M  V30 6313 C 593.537 -1.10862 -4.09354 0
M  V30 6314 N 593.928 -2.29285 -4.50846 0
M  V30 6315 C 592.226 -0.944897 -4.35876 0
M  V30 6316 C 592.927 -2.93305 -5.02342 0
M  V30 6317 N 591.903 -2.20903 -4.96692 0
M  V30 6318 H 595.705 -1.58963 -2.472 0
M  V30 6319 H 593.219 -0.961329 -1.3089 0
M  V30 6320 H 595.216 0.202209 -4.16409 0
M  V30 6321 H 593.876 0.795522 -3.14804 0
M  V30 6322 H 594.887 -2.66927 -4.43813 0
M  V30 6323 H 591.564 -0.102186 -4.17375 0
M  V30 6324 H 592.954 -3.93932 -5.44304 0
M  V30 6325 N 595.674 1.31259 -0.872281 0
M  V30 6326 C 596.604 2.30929 -0.345554 0
M  V30 6327 C 597.585 1.60449 0.5648 0
M  V30 6328 O 598.77 1.8814 0.481335 0
M  V30 6329 C 595.9 3.44348 0.451823 0
M  V30 6330 C 594.854 4.26435 -0.365641 0
M  V30 6331 C 594.18 5.31785 0.557562 0
M  V30 6332 C 595.48 4.97159 -1.60095 0
M  V30 6333 H 597.174 2.75234 -1.17841 0
M  V30 6334 H 594.72 1.3232 -0.568094 0
M  V30 6335 H 596.673 4.13128 0.830854 0
M  V30 6336 H 595.397 2.98816 1.31821 0
M  V30 6337 H 594.056 3.59326 -0.726649 0
M  V30 6338 H 593.704 4.82502 1.4213 0
M  V30 6339 H 593.404 5.87598 0.0144878 0
M  V30 6340 H 594.928 6.03424 0.933387 0
M  V30 6341 H 596.342 5.58523 -1.29323 0
M  V30 6342 H 594.739 5.62779 -2.08327 0
M  V30 6343 H 595.809 4.24012 -2.35249 0
M  V30 6344 N 597.152 0.631951 1.44375 0
M  V30 6345 C 598.115 -0.0628142 2.29114 0
M  V30 6346 C 599.115 -0.771494 1.41084 0
M  V30 6347 O 600.305 -0.615959 1.62947 0
M  V30 6348 C 597.437 -1.09953 3.22681 0
M  V30 6349 H 598.63 0.682509 2.92031 0
M  V30 6350 H 596.183 0.392128 1.51301 0
M  V30 6351 H 596.918 -1.87481 2.64616 0
M  V30 6352 H 596.703 -0.595286 3.87555 0
M  V30 6353 H 598.193 -1.58538 3.86336 0
M  V30 6354 N 598.631 -1.53133 0.372548 0
M  V30 6355 C 599.594 -2.24569 -0.458389 0
M  V30 6356 C 600.594 -1.25603 -1.00402 0
M  V30 6357 O 601.784 -1.49827 -0.888672 0
M  V30 6358 C 598.916 -2.98783 -1.6414 0
M  V30 6359 H 600.109 -2.99436 0.166799 0
M  V30 6360 H 597.662 -1.55805 0.124357 0
M  V30 6361 H 598.397 -2.28176 -2.30448 0
M  V30 6362 H 598.182 -3.71404 -1.25704 0
M  V30 6363 H 599.672 -3.53068 -2.23008 0
M  V30 6364 N 600.109 -0.101901 -1.5727 0
M  V30 6365 C 601.041 0.884723 -2.11436 0
M  V30 6366 C 602.054 1.24149 -1.05314 0
M  V30 6367 O 603.243 1.19341 -1.3274 0
M  V30 6368 C 600.343 2.19179 -2.58484 0
M  V30 6369 C 599.516 2.00933 -3.88516 0
M  V30 6370 C 598.575 3.15213 -4.2134 0
M  V30 6371 O 597.601 2.88877 -4.90448 0
M  V30 6372 N 598.803 4.41174 -3.77288 0
M  V30 6373 H 601.568 0.422058 -2.96713 0
M  V30 6374 H 599.129 0.0830128 -1.61687 0
M  V30 6375 H 601.121 2.94593 -2.77484 0
M  V30 6376 H 599.691 2.56847 -1.7818 0
M  V30 6377 H 598.911 1.09809 -3.78597 0
M  V30 6378 H 600.199 1.86026 -4.73573 0
M  V30 6379 H 599.597 4.6545 -3.21516 0
M  V30 6380 H 598.154 5.13515 -4.01429 0
M  V30 6381 N 601.587 1.56661 0.17182 0
M  V30 6382 C 602.519 1.92934 1.2373 0
M  V30 6383 C 603.532 0.822385 1.40502 0
M  V30 6384 O 604.721 1.10083 1.40514 0
M  V30 6385 C 601.821 2.16651 2.60607 0
M  V30 6386 C 600.994 3.47878 2.6514 0
M  V30 6387 C 600.053 3.60429 3.83377 0
M  V30 6388 O 599.079 4.33051 3.69398 0
M  V30 6389 N 600.281 2.95241 4.99813 0
M  V30 6390 H 603.046 2.84931 0.929205 0
M  V30 6391 H 600.607 1.5781 0.361588 0
M  V30 6392 H 602.599 2.22312 3.38171 0
M  V30 6393 H 601.169 1.3104 2.83809 0
M  V30 6394 H 600.389 3.53879 1.73675 0
M  V30 6395 H 601.677 4.34232 2.6518 0
M  V30 6396 H 601.075 2.3611 5.14071 0
M  V30 6397 H 599.632 3.06499 5.75241 0
M  V30 6398 N 603.065 -0.440357 1.51323 0
M  V30 6399 C 604.293 -1.21255 1.67645 0
M  V30 6400 C 604.708 -1.85088 0.37252 0
M  V30 6401 O 604.065 -1.70582 -0.648683 0
M  V30 6402 C 604.116 -2.29881 2.78993 0
M  V30 6403 O 603.837 -1.68659 4.04334 0
M  V30 6404 C 605.338 -3.20214 3.06558 0
M  V30 6405 H 602.558 -0.36558 0.562666 0
M  V30 6406 H 605.102 -0.52214 1.97722 0
M  V30 6407 H 603.257 -2.94643 2.51524 0
M  V30 6408 H 603.671 -2.40426 4.6615 0
M  V30 6409 H 605.145 -3.92575 3.88058 0
M  V30 6410 H 605.622 -3.80794 2.18844 0
M  V30 6411 H 606.228 -2.61156 3.35675 0
M  V30 6412 N 604.543 -1.41418 -0.695603 0
M  V30 6413 C 605.773 -1.43921 -1.48224 0
M  V30 6414 C 606.181 -0.0428855 -1.89151 0
M  V30 6415 O 605.524 0.948138 -1.5734 0
M  V30 6416 C 605.586 -2.28466 -2.77567 0
M  V30 6417 C 605.25 -3.76629 -2.58844 0
M  V30 6418 C 606.247 -4.6879 -2.24793 0
M  V30 6419 C 603.932 -4.2067 -2.74485 0
M  V30 6420 C 605.926 -6.02981 -2.06622 0
M  V30 6421 C 603.613 -5.54926 -2.55931 0
M  V30 6422 C 604.611 -6.45897 -2.2205 0
M  V30 6423 O 604.299 -7.77675 -2.03657 0
M  V30 6424 H 604.031 -0.492252 -0.463318 0
M  V30 6425 H 606.585 -1.86347 -0.863952 0
M  V30 6426 H 604.815 -1.80853 -3.41802 0
M  V30 6427 H 606.504 -2.2267 -3.39371 0
M  V30 6428 H 607.27 -4.36055 -2.12323 0
M  V30 6429 H 603.149 -3.50167 -2.9984 0
M  V30 6430 H 606.693 -6.73951 -1.80099 0
M  V30 6431 H 602.59 -5.8724 -2.67991 0
M  V30 6432 H 603.358 -7.88819 -2.1842 0
M  V30 6433 N 606.021 0.929856 -1.27246 0
M  V30 6434 C 606.969 2.05151 -1.09616 0
M  V30 6435 C 607.963 1.69388 -0.0198617 0
M  V30 6436 O 609.169 1.79124 -0.177417 0
M  V30 6437 H 605.544 0.671909 -0.337701 0
M  V30 6438 H 607.515 2.17168 -2.04648 0
M  V30 6439 C 606.264 3.3934 -0.757851 0
M  V30 6440 H 605.587 3.67343 -1.57795 0
M  V30 6441 H 607.027 4.18603 -0.674358 0
M  V30 6442 C 605.486 3.32582 0.537658 0
M  V30 6443 O 606.016 3.69633 1.57271 0
M  V30 6444 N 604.222 2.8568 0.532478 0
M  V30 6445 H 603.769 2.55725 -0.310233 0
M  V30 6446 H 603.727 2.81541 1.39936 0
M  V30 6447 N 607.499 1.09233 1.13605 0
M  V30 6448 C 608.449 0.6994 2.17008 0
M  V30 6449 C 609.433 -0.285238 1.58352 0
M  V30 6450 O 610.625 -0.09592 1.7674 0
M  V30 6451 C 607.754 0.11938 3.43092 0
M  V30 6452 C 606.84 1.13031 4.0876 0
M  V30 6453 N 607.231 2.31673 4.49623 0
M  V30 6454 C 605.529 0.967999 4.35369 0
M  V30 6455 C 606.23 2.95964 5.00779 0
M  V30 6456 N 605.206 2.23534 4.95513 0
M  V30 6457 H 609.008 1.60272 2.46354 0
M  V30 6458 H 606.522 0.968257 1.30378 0
M  V30 6459 H 608.519 -0.180122 4.16511 0
M  V30 6460 H 607.179 -0.778816 3.15221 0
M  V30 6461 H 608.19 2.69277 4.42391 0
M  V30 6462 H 604.867 0.124319 4.17315 0
M  V30 6463 H 606.257 3.96813 5.42208 0
M  V30 6464 N 608.977 -1.30795 0.87923 0
M  V30 6465 C 609.907 -2.30742 0.357796 0
M  V30 6466 C 610.888 -1.60747 -0.556283 0
M  V30 6467 O 612.073 -1.88393 -0.47135 0
M  V30 6468 C 609.203 -3.44583 -0.433555 0
M  V30 6469 C 608.157 -4.26235 0.388251 0
M  V30 6470 C 607.483 -5.32073 -0.529352 0
M  V30 6471 C 608.783 -4.96303 1.62729 0
M  V30 6472 H 610.477 -2.74605 1.19299 0
M  V30 6473 H 608.023 -1.32017 0.575104 0
M  V30 6474 H 609.976 -4.13563 -0.808934 0
M  V30 6475 H 608.7 -2.99511 -1.30234 0
M  V30 6476 H 607.359 -3.58936 0.745695 0
M  V30 6477 H 607.007 -4.83249 -1.39569 0
M  V30 6478 H 606.707 -5.87598 0.0166741 0
M  V30 6479 H 608.231 -6.0391 -0.901373 0
M  V30 6480 H 609.645 -5.5783 1.32283 0
M  V30 6481 H 608.042 -5.61666 2.11309 0
M  V30 6482 H 609.112 -4.22758 2.37494 0
M  V30 6483 N 610.455 -0.639598 -1.44038 0
M  V30 6484 C 611.732 -0.078012 -1.95444 0
M  V30 6485 C 612.112 1.39847 -1.58133 0
M  V30 6486 O 611.46 2.11714 -0.859614 0
M  V30 6487 C 611.67 -0.309832 -3.47622 0
M  V30 6488 C 613.018 -0.207521 -4.24093 0
M  V30 6489 O 614.042 -0.241653 -3.55379 0
M  V30 6490 O 612.901 -0.119641 -5.46369 0
M  V30 6491 H 609.995 0.0174534 -0.826816 0
M  V30 6492 H 612.541 -0.711891 -1.54046 0
M  V30 6493 H 611.313 -1.33401 -3.67858 0
M  V30 6494 H 610.936 0.357777 -3.95987 0
M  V30 6495 N 611.933 1.52934 -0.380664 0
M  V30 6496 C 612.866 2.22597 0.502564 0
M  V30 6497 C 613.844 1.22345 1.071 0
M  V30 6498 O 615.028 1.51302 1.12428 0
M  V30 6499 C 612.155 2.93246 1.69482 0
M  V30 6500 C 611.201 4.07696 1.25244 0
M  V30 6501 S 612.034 5.34957 0.241159 0
M  V30 6502 C 613.19 6.09124 1.4394 0
M  V30 6503 H 613.423 2.97167 -0.089029 0
M  V30 6504 H 610.956 1.53518 -0.164817 0
M  V30 6505 H 612.914 3.34562 2.37863 0
M  V30 6506 H 611.575 2.18373 2.2577 0
M  V30 6507 H 610.768 4.56199 2.1424 0
M  V30 6508 H 610.37 3.68349 0.647664 0
M  V30 6509 H 612.662 6.34771 2.36794 0
M  V30 6510 H 613.605 7.01068 0.995464 0
M  V30 6511 H 614.013 5.39777 1.65229 0
M  V30 6512 N 613.412 0.11024 1.57214 0
M  V30 6513 C 614.637 -0.561179 1.99664 0
M  V30 6514 C 615.062 -1.59985 0.989266 0
M  V30 6515 O 614.42 -1.81255 -0.0402399 0
M  V30 6516 C 614.468 -1.17189 3.41027 0
M  V30 6517 O 613.572 -2.28755 3.4314 0
M  V30 6518 H 612.913 -0.14101 0.648855 0
M  V30 6519 H 615.443 0.196128 2.03658 0
M  V30 6520 H 615.453 -1.50954 3.79047 0
M  V30 6521 H 614.128 -0.411041 4.13864 0
M  V30 6522 H 612.705 -1.96495 3.16929 0
M  V30 6523 N 614.89 -1.56749 -0.16351 0
M  V30 6524 C 616.136 -1.82704 -0.880168 0
M  V30 6525 C 616.469 -0.689311 -1.81555 0
M  V30 6526 O 615.744 0.308224 -1.92042 0
M  V30 6527 C 616.027 -3.19084 -1.66905 0
M  V30 6528 C 615.88 -4.43397 -0.756269 0
M  V30 6529 C 617.199 -3.52493 -2.63509 0
M  V30 6530 H 614.318 -0.664608 -0.318535 0
M  V30 6531 H 616.96 -1.89438 -0.146036 0
M  V30 6532 H 615.11 -3.13475 -2.2949 0
M  V30 6533 H 616.782 -4.61079 -0.14269 0
M  V30 6534 H 615.025 -4.33752 -0.0647944 0
M  V30 6535 H 615.696 -5.3539 -1.34393 0
M  V30 6536 H 618.172 -3.58606 -2.11047 0
M  V30 6537 H 617.048 -4.48979 -3.15767 0
M  V30 6538 H 617.309 -2.77597 -3.44082 0
M  V30 6539 N 616.368 0.432326 -1.51554 0
M  V30 6540 C 617.616 1.17901 -1.64146 0
M  V30 6541 C 617.937 1.91604 -0.362367 0
M  V30 6542 O 617.207 1.85764 0.621968 0
M  V30 6543 H 615.787 0.438206 -0.604966 0
M  V30 6544 H 618.449 0.495172 -1.88505 0
M  V30 6545 H 617.545 1.90584 -2.47152 0
M  V30 6546 N 617.846 1.41785 0.688094 0
M  V30 6547 C 618.756 1.46596 1.83158 0
M  V30 6548 C 619.772 0.355862 1.70322 0
M  V30 6549 O 620.948 0.604737 1.92106 0
M  V30 6550 C 618.013 1.35322 3.192 0
M  V30 6551 C 617.074 2.56711 3.4409 0
M  V30 6552 C 616.307 2.45965 4.73642 0
M  V30 6553 O 616.53 1.48827 5.50642 0
M  V30 6554 O 615.464 3.35859 4.99482 0
M  V30 6555 H 619.29 2.43083 1.82056 0
M  V30 6556 H 616.875 1.23404 0.842126 0
M  V30 6557 H 618.757 1.31347 4.00407 0
M  V30 6558 H 617.432 0.419536 3.2097 0
M  V30 6559 H 616.339 2.66262 2.62784 0
M  V30 6560 H 617.672 3.48933 3.47141 0
M  V30 6561 N 619.324 -0.923095 1.27737 0
M  V30 6562 C 620.287 -2.00587 1.10894 0
M  V30 6563 C 621.287 -1.60718 0.0514927 0
M  V30 6564 O 622.477 -1.71658 0.296481 0
M  V30 6565 C 619.609 -3.33829 0.690717 0
M  V30 6566 H 620.802 -2.16959 2.07048 0
M  V30 6567 H 618.355 -1.10451 1.1059 0
M  V30 6568 H 619.09 -3.23157 -0.272 0
M  V30 6569 H 618.875 -3.64125 1.45448 0
M  V30 6570 H 620.365 -4.13336 0.595252 0
M  V30 6571 N 620.802 -1.09834 -1.13024 0
M  V30 6572 C 621.732 -0.763451 -2.20666 0
M  V30 6573 C 622.713 0.260778 -1.68089 0
M  V30 6574 O 623.898 0.127915 -1.93778 0
M  V30 6575 C 621.028 -0.187744 -3.46792 0
M  V30 6576 C 619.982 -1.14196 -4.12484 0
M  V30 6577 C 619.308 -0.427755 -5.32986 0
M  V30 6578 C 620.608 -2.48607 -4.59338 0
M  V30 6579 H 622.302 -1.66347 -2.48936 0
M  V30 6580 H 619.848 -0.801261 -1.19649 0
M  V30 6581 H 621.801 0.0586375 -4.21359 0
M  V30 6582 H 620.525 0.747485 -3.17931 0
M  V30 6583 H 619.184 -1.37369 -3.3989 0
M  V30 6584 H 618.832 0.511747 -5.0039 0
M  V30 6585 H 618.532 -1.06403 -5.77886 0
M  V30 6586 H 620.056 -0.189772 -6.10305 0
M  V30 6587 H 621.47 -2.29618 -5.25308 0
M  V30 6588 H 619.867 -3.08062 -5.14993 0
M  V30 6589 H 620.937 -3.09062 -3.73642 0
M  V30 6590 N 622.28 1.30327 -0.886154 0
M  V30 6591 C 623.696 1.48676 -0.580323 0
M  V30 6592 C 623.896 1.81189 0.881639 0
M  V30 6593 O 622.952 1.90021 1.66278 0
M  V30 6594 C 624.265 2.60932 -1.49449 0
M  V30 6595 C 625.813 2.74812 -1.49824 0
M  V30 6596 C 626.288 3.90183 -2.39836 0
M  V30 6597 N 627.779 3.97495 -2.37806 0
M  V30 6598 C 628.514 4.86078 -3.04165 0
M  V30 6599 N 628.01 5.79448 -3.79753 0
M  V30 6600 N 629.803 4.79456 -2.93391 0
M  V30 6601 H 621.954 1.07495 -1.8319 0
M  V30 6602 H 624.217 0.532661 -0.784204 0
M  V30 6603 H 623.923 2.43731 -2.5355 0
M  V30 6604 H 623.797 3.57437 -1.20494 0
M  V30 6605 H 626.184 2.91418 -0.464731 0
M  V30 6606 H 626.265 1.78924 -1.82811 0
M  V30 6607 H 625.909 3.74334 -3.43273 0
M  V30 6608 H 625.839 4.85411 -2.04166 0
M  V30 6609 H 628.33 3.30703 -1.82877 0
M  V30 6610 H 628.643 6.43805 -4.27475 0
M  V30 6611 H 626.988 5.79376 -3.8386 0
M  V30 6612 H 630.179 4.05494 -2.33864 0
M  V30 6613 H 630.352 5.48283 -3.45383 0
M  V30 6614 N 623.758 0.647228 1.43697 0
M  V30 6615 C 624.69 -0.0866232 2.29036 0
M  V30 6616 C 625.703 -0.793051 1.42178 0
M  V30 6617 O 626.892 -0.651807 1.66174 0
M  V30 6618 C 623.992 -1.14552 3.18953 0
M  V30 6619 C 623.165 -0.518422 4.34317 0
M  V30 6620 C 622.224 -1.4734 5.05151 0
M  V30 6621 O 621.25 -0.984312 5.60625 0
M  V30 6622 N 622.452 -2.8075 5.08094 0
M  V30 6623 H 625.217 0.645834 2.92659 0
M  V30 6624 H 622.778 0.489567 1.54321 0
M  V30 6625 H 624.77 -1.78505 3.63205 0
M  V30 6626 H 623.34 -1.78001 2.56971 0
M  V30 6627 H 622.56 0.300079 3.93056 0
M  V30 6628 H 623.848 -0.080401 5.08736 0
M  V30 6629 H 623.246 -3.23052 4.64386 0
M  V30 6630 H 621.803 -3.40022 5.56083 0
M  V30 6631 N 625.236 -1.5273 0.388769 0
M  V30 6632 C 626.652 -1.59553 0.0387049 0
M  V30 6633 C 626.852 -1.40278 -1.44652 0
M  V30 6634 O 625.908 -1.21951 -2.21098 0
M  V30 6635 C 627.221 -2.9625 0.515409 0
M  V30 6636 C 628.769 -3.09426 0.471621 0
M  V30 6637 C 629.244 -4.48572 0.924505 0
M  V30 6638 N 630.735 -4.54754 0.880496 0
M  V30 6639 C 631.47 -5.60653 1.20234 0
M  V30 6640 N 630.966 -6.74198 1.59463 0
M  V30 6641 N 632.759 -5.50755 1.12363 0
M  V30 6642 H 624.91 -1.63508 1.35569 0
M  V30 6643 H 627.173 -0.768097 0.555636 0
M  V30 6644 H 626.879 -3.15569 1.5527 0
M  V30 6645 H 626.753 -3.77102 -0.085792 0
M  V30 6646 H 629.14 -2.89804 -0.556588 0
M  V30 6647 H 629.221 -2.30528 1.10862 0
M  V30 6648 H 628.865 -4.68936 1.95094 0
M  V30 6649 H 628.795 -5.25935 0.264524 0
M  V30 6650 H 631.286 -3.73237 0.591815 0
M  V30 6651 H 631.599 -7.5097 1.82385 0
M  V30 6652 H 629.944 -6.75531 1.63349 0
M  V30 6653 H 633.135 -4.6093 0.816169 0
M  V30 6654 H 633.308 -6.33184 1.37777 0
M  V30 6655 N 626.714 -0.118576 -1.57153 0
M  V30 6656 C 627.942 0.54726 -1.99531 0
M  V30 6657 C 628.357 1.60251 -0.998246 0
M  V30 6658 O 627.714 1.82498 0.00893106 0
M  V30 6659 C 627.765 1.17378 -3.41913 0
M  V30 6660 O 627.486 0.160703 -4.37805 0
M  V30 6661 C 628.987 1.92297 -3.9942 0
M  V30 6662 H 626.207 0.144919 -0.655164 0
M  V30 6663 H 628.751 -0.20479 -2.03472 0
M  V30 6664 H 626.906 1.87661 -3.38913 0
M  V30 6665 H 627.32 0.61586 -5.20872 0
M  V30 6666 H 628.794 2.31462 -5.01128 0
M  V30 6667 H 629.271 2.79801 -3.38538 0
M  V30 6668 H 629.877 1.26777 -4.05965 0
M  V30 6669 N 628.193 1.56834 0.155195 0
M  V30 6670 C 629.123 2.00678 1.19376 0
M  V30 6671 C 630.104 0.884973 1.45266 0
M  V30 6672 O 631.289 1.1522 1.56326 0
M  V30 6673 C 628.419 2.38042 2.5289 0
M  V30 6674 C 627.373 3.53332 2.41538 0
M  V30 6675 C 626.699 3.76485 3.79688 0
M  V30 6676 C 627.999 4.86265 1.9064 0
M  V30 6677 H 629.693 2.87688 0.829232 0
M  V30 6678 H 627.239 1.38407 0.397445 0
M  V30 6679 H 629.192 2.67314 3.25763 0
M  V30 6680 H 627.916 1.4796 2.91162 0
M  V30 6681 H 626.575 3.24213 1.71117 0
M  V30 6682 H 626.223 2.83667 4.15382 0
M  V30 6683 H 625.923 4.54068 3.72956 0
M  V30 6684 H 627.447 4.08174 4.54122 0
M  V30 6685 H 628.861 5.14308 2.53299 0
M  V30 6686 H 627.258 5.67597 1.94818 0
M  V30 6687 H 628.328 4.77184 0.861596 0
M  V30 6688 N 629.671 -0.424282 1.51781 0
M  V30 6689 C 630.911 -1.18194 1.66762 0
M  V30 6690 C 631.275 -1.88164 0.381857 0
M  V30 6691 O 632.476 -2.65692 0.407586 0
M  V30 6692 C 630.747 -2.16173 2.84612 0
M  V30 6693 S 632.306 -3.0025 3.19993 0
M  V30 6694 H 629.124 -0.400626 0.587384 0
M  V30 6695 H 631.726 -0.471499 1.89729 0
M  V30 6696 H 630.43 -1.6343 3.76455 0
M  V30 6697 H 629.961 -2.91778 2.63873 0
M  V30 6698 H 631.976 -4.1796 2.67439 0
M  V30 6699 N 631.149 -1.42148 -0.680565 0
M  V30 6700 C 632.079 -1.4796 -1.80638 0
M  V30 6701 C 633.06 -0.336728 -1.66734 0
M  V30 6702 O 634.245 -0.550247 -1.86242 0
M  V30 6703 C 631.375 -1.37569 -3.18892 0
M  V30 6704 C 630.329 -2.49823 -3.47524 0
M  V30 6705 C 629.655 -2.24491 -4.85291 0
M  V30 6706 C 630.955 -3.92144 -3.44994 0
M  V30 6707 H 632.649 -2.42184 -1.76032 0
M  V30 6708 H 630.195 -1.16566 -0.845481 0
M  V30 6709 H 632.148 -1.40243 -3.97379 0
M  V30 6710 H 630.872 -0.398357 -3.24162 0
M  V30 6711 H 629.531 -2.46455 -2.71395 0
M  V30 6712 H 629.179 -1.25066 -4.87204 0
M  V30 6713 H 628.879 -2.99722 -5.05411 0
M  V30 6714 H 630.403 -2.28906 -5.66069 0
M  V30 6715 H 631.817 -3.97145 -4.13459 0
M  V30 6716 H 630.214 -4.67179 -3.76648 0
M  V30 6717 H 631.284 -4.19225 -2.43676 0
M  V30 6718 N 632.627 0.916307 -1.28225 0
M  V30 6719 C 633.537 2.05165 -1.13775 0
M  V30 6720 C 634.553 1.73879 -0.0649418 0
M  V30 6721 O 635.729 1.99531 -0.273722 0
M  V30 6722 C 632.794 3.37385 -0.798267 0
M  V30 6723 C 631.855 3.82296 -1.95316 0
M  V30 6724 C 631.088 5.08206 -1.62978 0
M  V30 6725 O 631.311 5.6781 -0.542948 0
M  V30 6726 O 630.245 5.48768 -2.47261 0
M  V30 6727 H 634.071 2.20273 -2.09078 0
M  V30 6728 H 631.656 1.0373 -1.07519 0
M  V30 6729 H 633.538 4.16773 -0.62278 0
M  V30 6730 H 632.213 3.23458 0.125139 0
M  V30 6731 H 631.12 3.03746 -2.18378 0
M  V30 6732 H 632.453 4.00782 -2.85718 0
M  V30 6733 N 634.105 1.10431 1.1244 0
M  V30 6734 C 635.353 0.845045 1.83585 0
M  V30 6735 C 635.674 -0.631168 1.84503 0
M  V30 6736 O 634.944 -1.45825 1.30813 0
M  V30 6737 H 633.524 0.309628 0.679809 0
M  V30 6738 H 636.186 1.39458 1.36153 0
M  V30 6739 H 635.282 1.20786 2.8778 0
M  V30 6740 N 635.583 -1.29855 0.893053 0
M  V30 6741 C 636.829 -1.96116 0.516349 0
M  V30 6742 C 637.162 -1.70281 -0.933695 0
M  V30 6743 O 636.437 -1.01205 -1.66096 0
M  V30 6744 C 636.72 -3.51068 0.801455 0
M  V30 6745 C 636.573 -3.86387 2.30272 0
M  V30 6746 C 637.892 -4.39186 0.283423 0
M  V30 6747 H 635.011 -0.712335 0.189072 0
M  V30 6748 H 637.653 -1.53587 1.11852 0
M  V30 6749 H 635.803 -3.87424 0.288949 0
M  V30 6750 H 637.475 -3.60012 2.88425 0
M  V30 6751 H 635.718 -3.34167 2.76613 0
M  V30 6752 H 636.389 -4.94512 2.45279 0
M  V30 6753 H 638.865 -4.09785 0.722187 0
M  V30 6754 H 637.741 -5.46505 0.512169 0
M  V30 6755 H 638.002 -4.34511 -0.815643 0
M  V30 6756 N 637.061 -0.65484 -1.43351 0
M  V30 6757 C 637.991 0.0221809 -2.33489 0
M  V30 6758 C 638.972 0.810272 -1.49561 0
M  V30 6759 O 640.157 0.771426 -1.78221 0
M  V30 6760 C 637.287 0.988117 -3.32947 0
M  V30 6761 C 636.241 0.310026 -4.26876 0
M  V30 6762 C 635.567 1.38752 -5.16384 0
M  V30 6763 C 636.867 -0.798589 -5.16159 0
M  V30 6764 H 638.561 -0.730571 -2.9035 0
M  V30 6765 H 636.107 -0.352773 -1.39612 0
M  V30 6766 H 638.06 1.47067 -3.94904 0
M  V30 6767 H 636.784 1.77205 -2.74346 0
M  V30 6768 H 635.443 -0.152097 -3.66284 0
M  V30 6769 H 635.091 2.16293 -4.54121 0
M  V30 6770 H 634.791 0.939051 -5.80048 0
M  V30 6771 H 636.315 1.87141 -5.81215 0
M  V30 6772 H 637.729 -0.398126 -5.71916 0
M  V30 6773 H 636.126 -1.17163 -5.88552 0
M  V30 6774 H 637.196 -1.65588 -4.55751 0
M  V30 6775 N 638.539 1.52521 -0.396863 0
M  V30 6776 C 639.764 2.06571 0.185258 0
M  V30 6777 C 640.189 1.26605 1.39115 0
M  V30 6778 O 639.547 0.293055 1.78916 0
M  V30 6779 C 639.595 3.5674 0.526189 0
M  V30 6780 O 638.699 3.7929 1.61903 0
M  V30 6781 H 638.04 0.663712 0.0195474 0
M  V30 6782 H 640.57 1.966 -0.566519 0
M  V30 6783 H 640.58 4.00311 0.788338 0
M  V30 6784 H 639.255 4.14379 -0.355397 0
M  V30 6785 H 637.832 3.47605 1.35 0
M  V30 6786 N 640.017 0.126909 1.57088 0
M  V30 6787 C 641.257 -0.53216 1.97351 0
M  V30 6788 C 641.621 -1.63342 1.00913 0
M  V30 6789 O 642.822 -2.35194 1.30144 0
M  V30 6790 C 641.093 -1.04385 3.41817 0
M  V30 6791 S 642.652 -1.71033 4.04095 0
M  V30 6792 H 639.47 -0.172724 0.689701 0
M  V30 6793 H 642.072 0.213865 1.94327 0
M  V30 6794 H 640.776 -0.231289 4.09748 0
M  V30 6795 H 640.307 -1.82496 3.48509 0
M  V30 6796 H 642.322 -2.99656 3.95501 0
M  V30 6797 N 641.495 -1.56914 -0.146875 0
M  V30 6798 C 642.427 -1.94878 -1.20645 0
M  V30 6799 C 643.44 -0.844633 -1.39175 0
M  V30 6800 O 644.629 -1.12304 -1.38744 0
M  V30 6801 C 641.729 -2.20769 -2.57127 0
M  V30 6802 C 640.902 -3.52053 -2.59572 0
M  V30 6803 C 639.961 -3.66482 -3.77594 0
M  V30 6804 O 638.987 -4.38873 -3.62462 0
M  V30 6805 N 640.189 -3.03156 -4.95052 0
M  V30 6806 H 642.954 -2.86374 -0.883757 0
M  V30 6807 H 640.515 -1.58366 -0.336436 0
M  V30 6808 H 642.507 -2.27664 -3.34591 0
M  V30 6809 H 641.077 -1.35538 -2.81688 0
M  V30 6810 H 640.297 -3.56598 -1.68023 0
M  V30 6811 H 641.585 -4.38396 -2.58238 0
M  V30 6812 H 640.983 -2.44258 -5.10249 0
M  V30 6813 H 639.54 -3.15611 -5.70292 0
M  V30 6814 N 642.974 0.416227 -1.52004 0
M  V30 6815 C 644.385 0.995319 -1.57957 0
M  V30 6816 C 644.736 1.91744 -0.415754 0
M  V30 6817 O 643.861 2.11349 0.464808 0
M  V30 6818 C 644.456 1.81191 -2.86278 0
M  V30 6819 C 643.015 2.34115 -2.94732 0
M  V30 6820 C 642.162 1.139 -2.52828 0
M  V30 6821 H 645.113 0.196716 -1.57476 0
M  V30 6822 H 645.134 2.66859 -2.71231 0
M  V30 6823 H 644.646 1.14051 -3.70963 0
M  V30 6824 H 642.747 3.04647 -2.14525 0
M  V30 6825 H 642.86 2.65466 -3.98829 0
M  V30 6826 H 641.224 1.49081 -2.06511 0
M  V30 6827 H 642.007 0.483383 -3.3988 0
M  V30 6828 N 644.452 1.42507 0.673017 0
M  V30 6829 C 645.402 1.4258 1.77919 0
M  V30 6830 C 646.386 0.296885 1.58137 0
M  V30 6831 O 647.578 0.539243 1.68586 0
M  V30 6832 C 644.707 1.33238 3.1639 0
M  V30 6833 C 643.793 2.51081 3.41788 0
M  V30 6834 N 644.184 3.76498 3.37761 0
M  V30 6835 C 642.482 2.4538 3.72431 0
M  V30 6836 C 643.183 4.54784 3.62693 0
M  V30 6837 N 642.159 3.8522 3.83544 0
M  V30 6838 H 645.961 2.37442 1.73201 0
M  V30 6839 H 643.475 1.36881 0.873924 0
M  V30 6840 H 645.472 1.31372 3.9566 0
M  V30 6841 H 644.132 0.393794 3.22303 0
M  V30 6842 H 645.143 4.09068 3.17622 0
M  V30 6843 H 641.82 1.60109 3.85579 0
M  V30 6844 H 643.21 5.63774 3.65525 0
M  V30 6845 N 645.93 -0.909495 1.28709 0
M  V30 6846 C 646.84 -2.04558 1.14861 0
M  V30 6847 C 647.856 -1.73842 0.0741621 0
M  V30 6848 O 649.032 -1.99383 0.2843 0
M  V30 6849 C 646.097 -3.36957 0.816148 0
M  V30 6850 C 645.158 -3.81255 1.97341 0
M  V30 6851 C 644.391 -5.07335 1.65671 0
M  V30 6852 O 644.614 -5.67514 0.573053 0
M  V30 6853 O 643.548 -5.47449 2.50167 0
M  V30 6854 H 647.374 -2.19161 2.10243 0
M  V30 6855 H 644.959 -1.03159 1.08068 0
M  V30 6856 H 646.841 -4.16436 0.644873 0
M  V30 6857 H 645.516 -3.2352 -0.107983 0
M  V30 6858 H 644.423 -3.02584 2.19986 0
M  V30 6859 H 645.756 -3.99261 2.87839 0
M  V30 6860 N 647.408 -1.11026 -1.11852 0
M  V30 6861 C 648.633 -0.879064 -1.87849 0
M  V30 6862 C 649.058 0.565406 -1.79401 0
M  V30 6863 O 648.416 1.39886 -1.15333 0
M  V30 6864 C 648.464 -1.33985 -3.34784 0
M  V30 6865 O 647.568 -0.508803 -4.09249 0
M  V30 6866 H 646.909 -0.316992 -0.583448 0
M  V30 6867 H 649.439 -1.47863 -1.41413 0
M  V30 6868 H 649.449 -1.33248 -3.85628 0
M  V30 6869 H 648.124 -2.39172 -3.40249 0
M  V30 6870 H 646.701 -0.581913 -3.68332 0
M  V30 6871 N 648.886 1.2938 -0.899927 0
M  V30 6872 C 649.816 2.30144 -0.39446 0
M  V30 6873 C 650.797 1.61611 0.530639 0
M  V30 6874 O 651.982 1.89119 0.441319 0
M  V30 6875 C 649.112 3.45229 0.37868 0
M  V30 6876 C 648.066 4.25564 -0.456012 0
M  V30 6877 C 647.392 5.32848 0.444637 0
M  V30 6878 C 648.692 4.93651 -1.70605 0
M  V30 6879 H 650.386 2.72673 -1.23653 0
M  V30 6880 H 647.932 1.31086 -0.596034 0
M  V30 6881 H 649.885 4.14797 0.743037 0
M  V30 6882 H 648.609 3.01545 1.25453 0
M  V30 6883 H 647.268 3.57704 -0.802704 0
M  V30 6884 H 646.916 4.85408 1.31863 0
M  V30 6885 H 646.616 5.87497 -0.110154 0
M  V30 6886 H 648.14 6.05268 0.805182 0
M  V30 6887 H 649.554 5.55655 -1.41141 0
M  V30 6888 H 647.951 5.58233 -2.20217 0
M  V30 6889 H 649.021 4.18926 -2.4419 0
M  V30 6890 N 650.364 0.662433 1.43002 0
M  V30 6891 C 651.612 0.179237 2.01304 0
M  V30 6892 C 651.933 -1.21428 1.52579 0
M  V30 6893 O 651.203 -1.81294 0.742252 0
M  V30 6894 H 649.783 0.0632725 0.744316 0
M  V30 6895 H 652.445 0.856169 1.75088 0
M  V30 6896 H 651.541 0.170957 3.11631 0
M  V30 6897 N 651.842 -1.52309 0.404946 0
M  V30 6898 C 652.752 -2.30634 -0.429555 0
M  V30 6899 C 653.768 -1.38187 -1.05737 0
M  V30 6900 O 654.944 -1.71261 -1.05979 0
M  V30 6901 C 652.009 -3.10947 -1.53339 0
M  V30 6902 C 651.07 -4.19126 -0.929065 0
M  V30 6903 C 650.303 -4.95601 -1.9803 0
M  V30 6904 O 650.526 -4.72331 -3.1978 0
M  V30 6905 O 649.46 -5.80551 -1.58886 0
M  V30 6906 H 653.286 -3.0298 0.208963 0
M  V30 6907 H 650.871 -1.4845 0.168255 0
M  V30 6908 H 652.753 -3.60974 -2.1743 0
M  V30 6909 H 651.428 -2.41399 -2.15658 0
M  V30 6910 H 650.335 -3.73257 -0.250982 0
M  V30 6911 H 651.668 -4.90955 -0.349855 0
M  V30 6912 N 653.32 -0.135238 -1.57019 0
M  V30 6913 C 654.566 0.519563 -1.96032 0
M  V30 6914 C 654.899 1.65284 -1.01955 0
M  V30 6915 O 654.174 1.94408 -0.059727 0
M  V30 6916 C 654.457 1.0369 -3.44848 0
M  V30 6917 C 654.31 -0.0940754 -4.49702 0
M  V30 6918 C 655.629 1.92254 -3.95887 0
M  V30 6919 H 652.748 0.18739 -0.712779 0
M  V30 6920 H 655.39 -0.214086 -1.8879 0
M  V30 6921 H 653.54 1.66209 -3.5115 0
M  V30 6922 H 655.212 -0.73 -4.55487 0
M  V30 6923 H 653.455 -0.754924 -4.27181 0
M  V30 6924 H 654.126 0.309419 -5.51132 0
M  V30 6925 H 656.602 1.39581 -3.9199 0
M  V30 6926 H 655.478 2.25364 -5.00502 0
M  V30 6927 H 655.739 2.85513 -3.37543 0
M  V30 6928 N 654.798 1.5699 0.138552 0
M  V30 6929 C 656.047 1.82998 0.848205 0
M  V30 6930 C 656.36 0.717829 1.81952 0
M  V30 6931 O 657.566 0.863756 2.57394 0
M  V30 6932 C 656.022 3.24379 1.55904 0
M  V30 6933 C 655.63 4.43552 0.62971 0
M  V30 6934 C 657.374 3.59654 2.25498 0
M  V30 6935 C 655.281 5.75957 1.34266 0
M  V30 6936 H 654.211 0.682495 0.320495 0
M  V30 6937 H 656.862 1.83222 0.100924 0
M  V30 6938 H 655.244 3.18567 2.35226 0
M  V30 6939 H 656.418 4.6062 -0.128882 0
M  V30 6940 H 654.733 4.16379 0.0417526 0
M  V30 6941 H 657.33 4.55837 2.79493 0
M  V30 6942 H 657.673 2.86124 3.02388 0
M  V30 6943 H 658.206 3.67164 1.53087 0
M  V30 6944 H 654.945 6.52604 0.615441 0
M  V30 6945 H 654.465 5.62811 2.07375 0
M  V30 6946 H 656.144 6.19046 1.88126 0
M  V30 6947 N 656.276 -0.40816 1.52223 0
M  V30 6948 C 657.553 -1.16807 1.56893 0
M  V30 6949 C 657.933 -2.08169 0.350537 0
M  V30 6950 O 657.281 -2.18684 -0.662536 0
M  V30 6951 C 657.491 -1.94451 2.8981 0
M  V30 6952 C 658.839 -2.50484 3.42845 0
M  V30 6953 O 659.863 -2.0463 2.91556 0
M  V30 6954 O 658.722 -3.34192 4.3241 0
M  V30 6955 H 655.816 -0.533382 0.632007 0
M  V30 6956 H 658.362 -0.414862 1.64551 0
M  V30 6957 H 657.134 -1.27527 3.69936 0
M  V30 6958 H 656.757 -2.76775 2.85449 0
M  V30 6959 N 657.755 -1.42862 -0.66545 0
M  V30 6960 C 659.171 -1.25993 -0.979687 0
M  V30 6961 C 659.371 -0.170831 -2.00775 0
M  V30 6962 O 658.427 0.454827 -2.4837 0
M  V30 6963 C 659.74 -2.62005 -1.47559 0
M  V30 6964 C 661.288 -2.69437 -1.59288 0
M  V30 6965 C 661.763 -4.05838 -2.12272 0
M  V30 6966 N 663.254 -4.0784 -2.19592 0
M  V30 6967 C 663.989 -5.10205 -2.61684 0
M  V30 6968 N 663.485 -6.22949 -3.03161 0
M  V30 6969 N 665.278 -4.9756 -2.61516 0
M  V30 6970 H 657.429 -2.12395 0.0150493 0
M  V30 6971 H 659.692 -0.946355 -0.0558187 0
M  V30 6972 H 659.398 -3.42605 -0.794654 0
M  V30 6973 H 659.272 -2.86566 -2.45275 0
M  V30 6974 H 661.659 -1.89178 -2.26486 0
M  V30 6975 H 661.74 -2.48655 -0.600374 0
M  V30 6976 H 661.384 -4.86559 -1.4568 0
M  V30 6977 H 661.314 -4.23977 -3.12331 0
M  V30 6978 H 663.805 -3.26452 -1.90361 0
M  V30 6979 H 664.118 -6.96899 -3.33993 0
M  V30 6980 H 662.463 -6.2644 -3.00995 0
M  V30 6981 H 665.654 -4.08551 -2.28481 0
M  V30 6982 H 665.827 -5.77468 -2.93999 0
M  V30 6983 N 659.233 0.902656 -1.29189 0
M  V30 6984 C 660.482 1.6475 -1.16362 0
M  V30 6985 C 660.795 1.93517 0.284682 0
M  V30 6986 O 662.001 2.66192 0.534229 0
M  V30 6987 C 660.457 2.96848 -2.03493 0
M  V30 6988 C 660.065 2.75687 -3.5313 0
M  V30 6989 C 661.809 3.74762 -1.99383 0
M  V30 6990 C 659.716 4.03492 -4.32375 0
M  V30 6991 H 658.646 0.618041 -0.431904 0
M  V30 6992 H 661.297 1.0008 -1.53806 0
M  V30 6993 H 659.679 3.62715 -1.58916 0
M  V30 6994 H 660.853 2.18431 -4.05739 0
M  V30 6995 H 659.168 2.11171 -3.58881 0
M  V30 6996 H 661.765 4.69515 -2.5585 0
M  V30 6997 H 662.108 4.04767 -0.973123 0
M  V30 6998 H 662.641 3.15732 -2.41988 0
M  V30 6999 H 659.38 3.78656 -5.3507 0
M  V30 7000 H 658.9 4.60318 -3.84535 0
M  V30 7001 H 660.579 4.71662 -4.42881 0
M  V30 7002 N 660.711 1.11618 1.11262 0
M  V30 7003 C 661.674 0.779447 2.15539 0
M  V30 7004 C 662.674 -0.202081 1.59525 0
M  V30 7005 O 663.864 0.0226356 1.74185 0
M  V30 7006 C 660.996 0.15674 3.40539 0
M  V30 7007 H 662.189 1.70324 2.4684 0
M  V30 7008 H 659.742 0.918298 1.26479 0
M  V30 7009 H 660.477 -0.777186 3.1485 0
M  V30 7010 H 660.262 0.863308 3.82478 0
M  V30 7011 H 661.752 -0.062661 4.17553 0
M  V30 7012 N 662.189 -1.289 0.906776 0
M  V30 7013 C 663.605 -1.47733 0.603902 0
M  V30 7014 C 663.805 -1.82568 -0.852702 0
M  V30 7015 O 662.861 -1.92642 -1.63234 0
M  V30 7016 C 664.174 -2.58522 1.53581 0
M  V30 7017 C 665.722 -2.72394 1.54177 0
M  V30 7018 C 666.197 -3.86318 2.46013 0
M  V30 7019 N 667.688 -3.93661 2.441 0
M  V30 7020 C 668.423 -4.81177 3.11859 0
M  V30 7021 N 667.919 -5.73333 3.88923 0
M  V30 7022 N 669.712 -4.74728 3.00981 0
M  V30 7023 H 661.863 -1.04567 1.84877 0
M  V30 7024 H 664.126 -0.520118 0.792579 0
M  V30 7025 H 663.832 -2.39667 2.57396 0
M  V30 7026 H 663.706 -3.55475 1.26165 0
M  V30 7027 H 666.093 -2.90641 0.511034 0
M  V30 7028 H 666.174 -1.75993 1.85634 0
M  V30 7029 H 665.818 -3.68826 3.49185 0
M  V30 7030 H 665.748 -4.82102 2.11862 0
M  V30 7031 H 668.239 -3.27751 1.88115 0
M  V30 7032 H 668.552 -6.36923 4.37663 0
M  V30 7033 H 666.897 -5.73196 3.93029 0
M  V30 7034 H 670.088 -4.01722 2.40286 0
M  V30 7035 H 670.261 -5.42719 3.54062 0
M  V30 7036 N 663.667 -0.670007 -1.42649 0
M  V30 7037 C 664.577 0.0114788 -2.34597 0
M  V30 7038 C 665.593 0.794055 -1.54825 0
M  V30 7039 O 666.769 0.737472 -1.87412 0
M  V30 7040 C 663.834 0.954436 -3.33304 0
M  V30 7041 C 662.895 0.166925 -4.28975 0
M  V30 7042 C 662.128 1.06497 -5.22967 0
M  V30 7043 O 662.351 2.30446 -5.21777 0
M  V30 7044 O 661.285 0.528347 -5.99577 0
M  V30 7045 H 665.111 -0.745794 -2.944 0
M  V30 7046 H 662.696 -0.430228 -1.43071 0
M  V30 7047 H 664.578 1.49589 -3.93956 0
M  V30 7048 H 663.253 1.69164 -2.7598 0
M  V30 7049 H 662.16 -0.418515 -3.71752 0
M  V30 7050 H 663.493 -0.531067 -4.89327 0
M  V30 7051 N 665.145 1.52092 -0.413018 0
M  V30 7052 C 666.077 2.24819 0.445994 0
M  V30 7053 C 667.09 1.27925 1.00692 0
M  V30 7054 O 668.279 1.53845 0.905204 0
M  V30 7055 C 665.379 2.96951 1.6332 0
M  V30 7056 C 664.552 4.20746 1.19548 0
M  V30 7057 C 663.611 4.75668 2.25003 0
M  V30 7058 O 662.637 5.38148 1.85434 0
M  V30 7059 N 663.839 4.57579 3.57214 0
M  V30 7060 H 666.604 2.99176 -0.177209 0
M  V30 7061 H 664.165 1.60102 -0.240601 0
M  V30 7062 H 666.157 3.30586 2.33441 0
M  V30 7063 H 664.727 2.25756 2.16225 0
M  V30 7064 H 663.947 3.92881 0.32224 0
M  V30 7065 H 665.235 5.01132 0.880033 0
M  V30 7066 H 664.633 4.07758 3.92109 0
M  V30 7067 H 663.19 4.95642 4.23299 0
M  V30 7068 N 666.623 0.143563 1.56945 0
M  V30 7069 C 667.869 -0.50916 1.96304 0
M  V30 7070 C 668.202 -1.64741 1.0283 0
M  V30 7071 O 667.477 -1.94374 0.0700361 0
M  V30 7072 C 667.76 -1.0186 3.45393 0
M  V30 7073 C 667.613 0.117923 4.49645 0
M  V30 7074 C 668.932 -1.90151 3.96901 0
M  V30 7075 H 666.051 -0.183608 0.713763 0
M  V30 7076 H 668.693 0.224095 1.88674 0
M  V30 7077 H 666.843 -1.64345 3.52027 0
M  V30 7078 H 668.515 0.754145 4.55094 0
M  V30 7079 H 666.758 0.777568 4.26774 0
M  V30 7080 H 667.429 -0.280187 5.51288 0
M  V30 7081 H 669.905 -1.375 3.92725 0
M  V30 7082 H 668.781 -2.22707 5.0169 0
M  V30 7083 H 669.042 -2.83718 3.39052 0
M  V30 7084 N 668.101 -1.57061 -0.130224 0
M  V30 7085 C 669.051 -1.95941 -1.16582 0
M  V30 7086 C 670.035 -0.832858 -1.37667 0
M  V30 7087 O 671.227 -1.09647 -1.38948 0
M  V30 7088 C 668.356 -2.35777 -2.49528 0
M  V30 7089 C 667.442 -3.5504 -2.31964 0
M  V30 7090 N 667.833 -4.71071 -1.84189 0
M  V30 7091 C 666.131 -3.60453 -2.62659 0
M  V30 7092 C 666.832 -5.53128 -1.80068 0
M  V30 7093 N 665.808 -4.95303 -2.24001 0
M  V30 7094 H 669.61 -2.83117 -0.788806 0
M  V30 7095 H 667.124 -1.58842 -0.3381 0
M  V30 7096 H 669.121 -2.61843 -3.24413 0
M  V30 7097 H 667.781 -1.49961 -2.87996 0
M  V30 7098 H 668.792 -4.94504 -1.53903 0
M  V30 7099 H 665.469 -2.85217 -3.0489 0
M  V30 7100 H 666.859 -6.56182 -1.4448 0
M  V30 7101 N 669.579 0.400081 -1.52437 0
M  V30 7102 C 670.995 0.739359 -1.41441 0
M  V30 7103 C 671.195 1.94512 -0.526053 0
M  V30 7104 O 670.251 2.525 0.00472502 0
M  V30 7105 C 671.564 0.984824 -2.84116 0
M  V30 7106 C 673.112 1.08698 -2.93519 0
M  V30 7107 C 673.587 1.36515 -4.37181 0
M  V30 7108 N 675.078 1.43361 -4.40457 0
M  V30 7109 C 675.813 1.66528 -5.48686 0
M  V30 7110 N 675.309 1.87239 -6.67018 0
M  V30 7111 N 677.102 1.68617 -5.36213 0
M  V30 7112 H 669.253 -0.393484 -2.08723 0
M  V30 7113 H 671.516 -0.1138 -0.941145 0
M  V30 7114 H 671.222 0.171096 -3.51284 0
M  V30 7115 H 671.096 1.90253 -3.25705 0
M  V30 7116 H 673.483 1.89129 -2.26526 0
M  V30 7117 H 673.564 0.147432 -2.55375 0
M  V30 7118 H 673.208 0.565982 -5.04737 0
M  V30 7119 H 673.138 2.31737 -4.7287 0
M  V30 7120 H 675.629 1.29108 -3.55161 0
M  V30 7121 H 675.942 2.04392 -7.45281 0
M  V30 7122 H 674.287 1.84486 -6.70067 0
M  V30 7123 H 677.478 1.5198 -4.42741 0
M  V30 7124 H 677.651 1.86332 -6.20632 0
M  V30 7125 N 671.057 1.43213 0.657864 0
M  V30 7126 C 671.987 1.50815 1.78262 0
M  V30 7127 C 672.968 0.363211 1.66177 0
M  V30 7128 O 674.153 0.579806 1.85343 0
M  V30 7129 C 671.283 1.42625 3.16663 0
M  V30 7130 C 670.237 2.5532 3.43505 0
M  V30 7131 C 669.563 2.32184 4.81658 0
M  V30 7132 C 670.863 3.97583 3.38711 0
M  V30 7133 H 672.557 2.44954 1.72157 0
M  V30 7134 H 670.103 1.17896 0.82683 0
M  V30 7135 H 672.056 1.46548 3.95097 0
M  V30 7136 H 670.78 0.449877 3.23487 0
M  V30 7137 H 669.439 2.50742 2.6744 0
M  V30 7138 H 669.087 1.32801 4.85153 0
M  V30 7139 H 668.787 3.07724 5.00579 0
M  V30 7140 H 670.311 2.37883 5.62356 0
M  V30 7141 H 671.725 4.03673 4.07089 0
M  V30 7142 H 670.122 4.73112 3.69168 0
M  V30 7143 H 671.192 4.23049 2.36976 0
M  V30 7144 N 672.536 -0.895792 1.29666 0
M  V30 7145 C 673.782 -1.64908 1.18039 0
M  V30 7146 C 674.115 -1.9236 -0.266682 0
M  V30 7147 O 673.39 -1.53682 -1.19214 0
M  V30 7148 C 673.673 -2.99574 1.99819 0
M  V30 7149 C 673.526 -2.79163 3.52687 0
M  V30 7150 C 674.845 -4.00358 1.82761 0
M  V30 7151 H 671.964 -0.598437 0.430165 0
M  V30 7152 H 674.606 -1.03736 1.59182 0
M  V30 7153 H 672.756 -3.51786 1.64859 0
M  V30 7154 H 674.428 -2.33821 3.9765 0
M  V30 7155 H 672.671 -2.13871 3.77414 0
M  V30 7156 H 673.342 -3.74871 4.05186 0
M  V30 7157 H 675.818 -3.57268 2.13304 0
M  V30 7158 H 674.694 -4.92514 2.42325 0
M  V30 7159 H 674.955 -4.35096 0.783839 0
M  V30 7160 N 674.014 -1.12206 -1.10668 0
M  V30 7161 C 674.944 -0.810086 -2.18997 0
M  V30 7162 C 675.925 0.225065 -1.68604 0
M  V30 7163 O 677.11 0.086783 -1.94006 0
M  V30 7164 C 674.24 -0.261262 -3.46316 0
M  V30 7165 C 673.194 -1.2292 -4.09969 0
M  V30 7166 C 672.52 -0.540713 -5.31959 0
M  V30 7167 C 673.82 -2.58295 -4.53962 0
M  V30 7168 H 675.514 -1.7159 -2.45352 0
M  V30 7169 H 673.06 -0.82646 -1.17922 0
M  V30 7170 H 675.013 -0.0307522 -4.21389 0
M  V30 7171 H 673.737 0.679879 -3.19445 0
M  V30 7172 H 672.396 -1.44548 -3.369 0
M  V30 7173 H 672.044 0.405492 -5.01363 0
M  V30 7174 H 671.744 -1.18637 -5.75499 0
M  V30 7175 H 673.268 -0.319184 -6.09765 0
M  V30 7176 H 674.682 -2.40709 -5.20319 0
M  V30 7177 H 673.079 -3.18916 -5.08343 0
M  V30 7178 H 674.149 -3.16918 -3.67002 0
M  V30 7179 N 675.492 1.28418 -0.913599 0
M  V30 7180 C 676.738 1.9527 -0.547484 0
M  V30 7181 C 677.071 1.71745 0.906486 0
M  V30 7182 O 676.346 1.03834 1.64465 0
M  V30 7183 C 676.629 3.49748 -0.857205 0
M  V30 7184 C 676.482 3.82675 -2.3639 0
M  V30 7185 C 677.801 4.3868 -0.353258 0
M  V30 7186 H 674.92 0.709236 -0.200381 0
M  V30 7187 H 677.562 1.51789 -1.14281 0
M  V30 7188 H 675.712 3.86915 -0.350548 0
M  V30 7189 H 677.384 3.55378 -2.94116 0
M  V30 7190 H 675.627 3.29724 -2.81894 0
M  V30 7191 H 676.298 4.90547 -2.53115 0
M  V30 7192 H 678.774 4.08584 -0.787288 0
M  V30 7193 H 677.65 5.45621 -0.599049 0
M  V30 7194 H 677.911 4.35753 0.746413 0
M  V30 7195 N 676.97 0.677563 1.42291 0
M  V30 7196 C 678.247 0.129803 1.95169 0
M  V30 7197 C 678.627 -1.35605 1.61786 0
M  V30 7198 O 677.975 -2.09361 0.915444 0
M  V30 7199 C 678.185 0.401889 3.46678 0
M  V30 7200 C 679.533 0.319889 4.23393 0
M  V30 7201 O 680.557 0.33579 3.54614 0
M  V30 7202 O 679.416 0.264459 5.4586 0
M  V30 7203 H 676.51 0.00447433 0.826988 0
M  V30 7204 H 679.056 0.752483 1.52105 0
M  V30 7205 H 677.828 1.43108 3.64192 0
M  V30 7206 H 677.451 -0.252662 3.96796 0
M  V30 7207 N 678.448 -1.51871 0.421078 0
M  V30 7208 C 679.358 -2.31077 -0.405069 0
M  V30 7209 C 680.374 -1.39301 -1.04265 0
M  V30 7210 O 681.55 -1.72376 -1.04157 0
M  V30 7211 C 678.615 -3.12556 -1.50032 0
M  V30 7212 C 677.676 -4.20088 -0.884559 0
M  V30 7213 C 676.909 -4.97673 -1.92762 0
M  V30 7214 O 677.132 -4.75696 -3.14753 0
M  V30 7215 O 676.066 -5.82203 -1.52719 0
M  V30 7216 H 679.892 -3.02742 0.241086 0
M  V30 7217 H 677.477 -1.48263 0.183991 0
M  V30 7218 H 679.359 -3.6326 -2.13589 0
M  V30 7219 H 678.034 -2.43672 -2.13086 0
M  V30 7220 H 676.941 -3.73502 -0.211379 0
M  V30 7221 H 678.274 -4.91298 -0.297763 0
M  V30 7222 N 679.926 -0.151884 -1.56866 0
M  V30 7223 C 681.154 0.504813 -2.00647 0
M  V30 7224 C 681.569 1.58098 -1.03201 0
M  V30 7225 O 680.926 1.82476 -0.0297814 0
M  V30 7226 C 680.977 1.10099 -3.44326 0
M  V30 7227 O 680.698 0.0678021 -4.38048 0
M  V30 7228 C 682.199 1.83782 -4.03409 0
M  V30 7229 H 679.419 0.130989 -0.65809 0
M  V30 7230 H 681.963 -0.247903 -2.02992 0
M  V30 7231 H 680.118 1.8043 -3.42817 0
M  V30 7232 H 680.532 0.505237 -5.22061 0
M  V30 7233 H 682.006 2.2078 -5.05925 0
M  V30 7234 H 682.483 2.72557 -3.44397 0
M  V30 7235 H 683.089 1.18138 -4.08563 0
M  V30 7236 N 681.404 1.57128 0.121893 0
M  V30 7237 C 682.336 1.96773 1.17529 0
M  V30 7238 C 683.349 0.866668 1.37814 0
M  V30 7239 O 684.538 1.14497 1.3694 0
M  V30 7240 C 681.638 2.24832 2.53582 0
M  V30 7241 C 680.811 3.56138 2.53939 0
M  V30 7242 C 679.87 3.72443 3.71716 0
M  V30 7243 O 678.896 4.44584 3.55434 0
M  V30 7244 N 680.098 3.10993 4.90167 0
M  V30 7245 H 682.863 2.87743 0.838086 0
M  V30 7246 H 680.424 1.58881 0.311199 0
M  V30 7247 H 682.416 2.32958 3.30927 0
M  V30 7248 H 680.986 1.40002 2.79496 0
M  V30 7249 H 680.206 3.59226 1.62329 0
M  V30 7250 H 681.494 4.42448 2.51231 0
M  V30 7251 H 680.892 2.52345 5.06299 0
M  V30 7252 H 679.449 3.24644 5.65198 0
M  V30 7253 N 682.882 -0.391992 1.52647 0
M  V30 7254 C 683.832 -1.47815 1.73594 0
M  V30 7255 C 684.816 -1.49693 0.589979 0
M  V30 7256 O 686.008 -1.5538 0.847701 0
M  V30 7257 C 683.137 -2.85561 1.90551 0
M  V30 7258 C 682.223 -2.88264 3.1107 0
M  V30 7259 N 682.614 -2.60642 4.33474 0
M  V30 7260 C 680.912 -3.19432 3.11254 0
M  V30 7261 C 681.613 -2.70351 5.15058 0
M  V30 7262 N 680.589 -3.03956 4.50679 0
M  V30 7263 H 684.391 -1.2528 2.65861 0
M  V30 7264 H 681.905 -0.599907 1.50913 0
M  V30 7265 H 683.902 -3.63759 2.03678 0
M  V30 7266 H 682.562 -3.09081 0.994952 0
M  V30 7267 H 683.573 -2.34718 4.61658 0
M  V30 7268 H 680.25 -3.48436 2.29997 0
M  V30 7269 H 681.64 -2.52565 6.22624 0
M  V30 7270 N 684.36 -1.4356 -0.65026 0
M  V30 7271 C 685.29 -1.51758 -1.77459 0
M  V30 7272 C 686.271 -0.372019 -1.65982 0
M  V30 7273 O 687.456 -0.589627 -1.85033 0
M  V30 7274 C 684.586 -1.44302 -3.15902 0
M  V30 7275 C 683.54 -2.57138 -3.42146 0
M  V30 7276 C 682.866 -2.34735 -4.8042 0
M  V30 7277 C 684.166 -3.99373 -3.36598 0
M  V30 7278 H 685.86 -2.45863 -1.70855 0
M  V30 7279 H 683.406 -1.18333 -0.820566 0
M  V30 7280 H 685.359 -1.48641 -3.94314 0
M  V30 7281 H 684.083 -0.467026 -3.23244 0
M  V30 7282 H 682.742 -2.52157 -2.66106 0
M  V30 7283 H 682.39 -1.35372 -4.84441 0
M  V30 7284 H 682.09 -3.10375 -4.9894 0
M  V30 7285 H 683.614 -2.40862 -5.61086 0
M  V30 7286 H 685.028 -4.05826 -4.04942 0
M  V30 7287 H 683.425 -4.75063 -3.66654 0
M  V30 7288 H 684.495 -4.243 -2.34729 0
M  V30 7289 N 685.838 0.888903 -1.30139 0
M  V30 7290 C 686.768 2.01046 -1.18755 0
M  V30 7291 C 687.749 1.69916 -0.0791438 0
M  V30 7292 O 688.934 1.92445 -0.260498 0
M  V30 7293 C 686.064 3.36109 -0.874518 0
M  V30 7294 C 685.018 3.81486 -1.94043 0
M  V30 7295 C 684.344 5.13796 -1.48047 0
M  V30 7296 C 685.644 4.00637 -3.35093 0
M  V30 7297 H 687.338 2.10828 -2.12584 0
M  V30 7298 H 684.884 1.01298 -1.02346 0
M  V30 7299 H 686.837 4.14089 -0.781548 0
M  V30 7300 H 685.561 3.26449 0.0994519 0
M  V30 7301 H 684.22 3.05731 -2.02297 0
M  V30 7302 H 683.868 5.0056 -0.494878 0
M  V30 7303 H 683.568 5.45127 -2.19341 0
M  V30 7304 H 685.092 5.94305 -1.40121 0
M  V30 7305 H 686.506 4.69067 -3.2962 0
M  V30 7306 H 684.903 4.43339 -4.04438 0
M  V30 7307 H 685.973 3.0462 -3.77273 0
M  V30 7308 N 687.317 1.12792 1.10072 0
M  V30 7309 C 688.565 0.883796 1.81751 0
M  V30 7310 C 688.886 -0.591891 1.858 0
M  V30 7311 O 688.156 -1.43017 1.33876 0
M  V30 7312 H 686.736 0.323978 0.673088 0
M  V30 7313 H 689.398 1.42314 1.33164 0
M  V30 7314 H 688.494 1.26863 2.85153 0
M  V30 7315 N 688.795 -1.27931 0.920396 0
M  V30 7316 C 690.041 -1.94977 0.557832 0
M  V30 7317 C 690.374 -1.72224 -0.897365 0
M  V30 7318 O 689.649 -1.04705 -1.63912 0
M  V30 7319 C 689.932 -3.49289 0.875741 0
M  V30 7320 C 689.785 -3.81416 2.38416 0
M  V30 7321 C 691.104 -4.38486 0.376517 0
M  V30 7322 H 688.223 -0.708164 0.20414 0
M  V30 7323 H 690.865 -1.5118 1.15085 0
M  V30 7324 H 689.015 -3.86724 0.371062 0
M  V30 7325 H 690.687 -3.53813 2.95997 0
M  V30 7326 H 688.93 -3.28225 2.83639 0
M  V30 7327 H 689.601 -4.89198 2.55713 0
M  V30 7328 H 692.077 -4.08161 0.808945 0
M  V30 7329 H 690.953 -5.45296 0.627976 0
M  V30 7330 H 691.214 -4.36143 -0.723293 0
M  V30 7331 N 690.273 -0.685099 -1.4193 0
M  V30 7332 C 691.519 -0.211971 -2.01689 0
M  V30 7333 C 691.852 1.18189 -1.54094 0
M  V30 7334 O 691.127 1.79559 -0.747572 0
M  V30 7335 C 691.41 -0.258019 -3.59174 0
M  V30 7336 C 691.263 -1.68807 -4.16922 0
M  V30 7337 C 692.582 0.388044 -4.38386 0
M  V30 7338 H 689.701 -0.0784987 -0.732808 0
M  V30 7339 H 692.343 -0.871837 -1.68816 0
M  V30 7340 H 690.493 0.303832 -3.8731 0
M  V30 7341 H 692.165 -2.30296 -3.99702 0
M  V30 7342 H 690.408 -2.22553 -3.72361 0
M  V30 7343 H 691.079 -1.6719 -5.26072 0
M  V30 7344 H 693.555 -0.0903432 -4.16002 0
M  V30 7345 H 692.431 0.325232 -5.47936 0
M  V30 7346 H 692.692 1.4672 -4.17044 0
M  V30 7347 N 691.751 1.51645 -0.429126 0
M  V30 7348 C 692.976 2.06917 0.141399 0
M  V30 7349 C 693.401 1.29527 1.36398 0
M  V30 7350 O 692.759 0.33094 1.78254 0
M  V30 7351 C 692.807 3.57776 0.4504 0
M  V30 7352 O 691.911 3.82639 1.53821 0
M  V30 7353 H 691.252 0.663978 0.0054647 0
M  V30 7354 H 693.782 1.95355 -0.608093 0
M  V30 7355 H 693.792 4.01894 0.703249 0
M  V30 7356 H 692.467 4.13532 -0.443213 0
M  V30 7357 H 691.044 3.5039 1.27597 0
M  V30 7358 N 693.229 0.160201 1.56784 0
M  V30 7359 C 694.159 -0.770264 2.2043 0
M  V30 7360 C 695.14 -1.24736 1.15651 0
M  V30 7361 O 696.325 -1.30253 1.44041 0
M  V30 7362 C 693.455 -2.00427 2.83631 0
M  V30 7363 C 692.409 -1.66345 3.94352 0
M  V30 7364 C 691.735 -2.97119 4.4455 0
M  V30 7365 C 693.035 -0.899972 5.14488 0
M  V30 7366 H 694.729 -0.239783 2.98438 0
M  V30 7367 H 692.275 -0.113891 1.43549 0
M  V30 7368 H 694.228 -2.66012 3.26827 0
M  V30 7369 H 692.952 -2.5587 2.02973 0
M  V30 7370 H 691.611 -1.03133 3.51794 0
M  V30 7371 H 691.259 -3.5058 3.60698 0
M  V30 7372 H 690.959 -2.75073 5.19238 0
M  V30 7373 H 692.483 -3.63753 4.90425 0
M  V30 7374 H 693.897 -1.45818 5.54446 0
M  V30 7375 H 692.294 -0.778968 5.95023 0
M  V30 7376 H 693.364 0.105827 4.84785 0
M  V30 7377 N 694.707 -1.5719 -0.113559 0
M  V30 7378 C 695.932 -1.89702 -0.838336 0
M  V30 7379 C 696.357 -0.752679 -1.72384 0
M  V30 7380 O 695.715 0.296575 -1.78858 0
M  V30 7381 C 695.763 -3.20989 -1.64312 0
M  V30 7382 O 694.867 -3.07278 -2.75053 0
M  V30 7383 H 694.208 -0.622339 -0.231496 0
M  V30 7384 H 696.738 -2.04382 -0.0943228 0
M  V30 7385 H 696.748 -3.53843 -2.03123 0
M  V30 7386 H 695.423 -4.03869 -0.993119 0
M  V30 7387 H 694 -2.85901 -2.39406 0
M  V30 7388 N 696.185 0.383891 -1.52853 0
M  V30 7389 C 697.462 1.14296 -1.58732 0
M  V30 7390 C 697.842 2.07585 -0.383611 0
M  V30 7391 O 697.19 2.1971 0.627661 0
M  V30 7392 C 697.4 1.89816 -2.92867 0
M  V30 7393 C 698.748 2.44998 -3.46787 0
M  V30 7394 O 699.772 1.99966 -2.94774 0
M  V30 7395 O 698.631 3.2727 -4.37672 0
M  V30 7396 H 695.725 0.52326 -0.640413 0
M  V30 7397 H 698.271 0.388631 -1.6519 0
M  V30 7398 H 697.043 1.21626 -3.71918 0
M  V30 7399 H 696.666 2.72199 -2.89816 0
M  V30 7400 N 697.663 1.43903 0.642637 0
M  V30 7401 C 698.912 1.45362 1.39831 0
M  V30 7402 C 699.225 0.0856289 1.95412 0
M  V30 7403 O 700.431 -0.0222856 2.71491 0
M  V30 7404 C 698.887 2.55857 2.53111 0
M  V30 7405 C 698.495 3.98811 2.04092 0
M  V30 7406 C 700.239 2.66524 3.30402 0
M  V30 7407 C 698.146 5.00751 3.14647 0
M  V30 7408 H 697.076 0.540777 0.52543 0
M  V30 7409 H 699.727 1.69929 0.692559 0
M  V30 7410 H 698.109 2.2451 3.26207 0
M  V30 7411 H 699.283 4.3967 1.37938 0
M  V30 7412 H 697.598 3.92284 1.39651 0
M  V30 7413 H 700.195 3.39858 4.12796 0
M  V30 7414 H 700.538 1.71949 3.79129 0
M  V30 7415 H 701.071 2.97224 2.64392 0
M  V30 7416 H 697.81 5.96914 2.70876 0
M  V30 7417 H 697.33 4.64495 3.79479 0
M  V30 7418 H 699.009 5.23933 3.79609 0
M  V30 7419 N 699.141 -0.881989 1.30609 0
M  V30 7420 C 700.071 -2.00413 1.1982 0
M  V30 7421 C 701.052 -1.69871 0.0881538 0
M  V30 7422 O 702.237 -1.92304 0.2707 0
M  V30 7423 C 699.367 -3.35641 0.89233 0
M  V30 7424 C 698.321 -3.80451 1.96064 0
M  V30 7425 C 697.647 -5.13003 1.5077 0
M  V30 7426 C 698.947 -3.98855 3.37213 0
M  V30 7427 H 700.641 -2.09698 2.13699 0
M  V30 7428 H 698.187 -1.00754 1.02882 0
M  V30 7429 H 700.14 -4.13669 0.803497 0
M  V30 7430 H 698.864 -3.26497 -0.0821381 0
M  V30 7431 H 697.523 -3.04654 2.03916 0
M  V30 7432 H 697.171 -5.0029 0.521417 0
M  V30 7433 H 696.871 -5.43956 2.22229 0
M  V30 7434 H 698.395 -5.93554 1.43271 0
M  V30 7435 H 699.809 -4.67312 3.32103 0
M  V30 7436 H 698.206 -4.41188 4.06784 0
M  V30 7437 H 699.276 -3.02614 3.78883 0
M  V30 7438 N 700.619 -1.13374 -1.09472 0
M  V30 7439 C 701.551 -0.768466 -2.15933 0
M  V30 7440 C 702.564 0.209585 -1.61445 0
M  V30 7441 O 703.753 -0.010539 -1.78497 0
M  V30 7442 C 700.853 -0.118266 -3.38694 0
M  V30 7443 C 700.026 -1.12829 -4.22597 0
M  V30 7444 C 699.085 -0.503875 -5.23782 0
M  V30 7445 O 698.111 -1.16374 -5.57177 0
M  V30 7446 N 699.313 0.724288 -5.75964 0
M  V30 7447 H 702.078 -1.68457 -2.47876 0
M  V30 7448 H 699.639 -1.02668 -1.25183 0
M  V30 7449 H 701.631 0.311698 -4.03498 0
M  V30 7450 H 700.201 0.700769 -3.04644 0
M  V30 7451 H 699.421 -1.73556 -3.53938 0
M  V30 7452 H 700.709 -1.81095 -4.75481 0
M  V30 7453 H 700.107 1.27918 -5.51048 0
M  V30 7454 H 698.664 1.09692 -6.42504 0
M  V30 7455 N 702.098 1.27442 -0.927168 0
M  V30 7456 C 703.061 2.2512 -0.430525 0
M  V30 7457 C 704.061 1.54357 0.450619 0
M  V30 7458 O 705.251 1.72371 0.251774 0
M  V30 7459 C 702.383 3.38763 0.381144 0
M  V30 7460 H 703.576 2.70569 -1.29354 0
M  V30 7461 H 701.129 1.39355 -0.707806 0
M  V30 7462 H 701.864 2.98695 1.263 0
M  V30 7463 H 701.649 3.91298 -0.250618 0
M  V30 7464 H 703.139 4.11364 0.719012 0
M  V30 7465 N 703.576 0.692616 1.41565 0
M  V30 7466 C 704.506 0.0397325 2.33466 0
M  V30 7467 C 705.487 -0.770334 1.51657 0
M  V30 7468 O 706.672 -0.723903 1.80203 0
M  V30 7469 C 703.802 -0.899495 3.3545 0
M  V30 7470 C 702.756 -0.196738 4.27548 0
M  V30 7471 C 702.082 -1.25012 5.19881 0
M  V30 7472 C 703.382 0.935158 5.1386 0
M  V30 7473 H 705.076 0.807296 2.88311 0
M  V30 7474 H 702.622 0.389665 1.38628 0
M  V30 7475 H 704.575 -1.36545 3.98665 0
M  V30 7476 H 703.299 -1.69869 2.78948 0
M  V30 7477 H 701.958 0.249158 3.65752 0
M  V30 7478 H 701.606 -2.04177 4.59696 0
M  V30 7479 H 701.306 -0.784931 5.82334 0
M  V30 7480 H 702.83 -1.71665 5.85972 0
M  V30 7481 H 704.244 0.549619 5.70659 0
M  V30 7482 H 702.641 1.32726 5.85238 0
M  V30 7483 H 703.711 1.77613 4.512 0
M  V30 7484 N 705.054 -1.51416 0.437162 0
M  V30 7485 C 706.3 -2.02386 -0.129555 0
M  V30 7486 C 706.633 -1.32071 -1.42376 0
M  V30 7487 O 705.908 -0.43559 -1.8956 0
M  V30 7488 C 706.191 -3.5841 -0.348487 0
M  V30 7489 C 706.044 -4.39341 0.964352 0
M  V30 7490 C 707.363 -4.25654 -1.11834 0
M  V30 7491 H 704.482 -0.735587 -0.0456109 0
M  V30 7492 H 707.124 -1.81055 0.576124 0
M  V30 7493 H 705.274 -3.76716 -0.949592 0
M  V30 7494 H 706.946 -4.32685 1.59942 0
M  V30 7495 H 705.189 -4.04432 1.56898 0
M  V30 7496 H 705.86 -5.4667 0.765212 0
M  V30 7497 H 708.336 -4.11617 -0.609165 0
M  V30 7498 H 707.212 -5.34704 -1.24029 0
M  V30 7499 H 707.473 -3.86502 -2.14636 0
M  V30 7500 N 706.532 -0.168513 -1.56696 0
M  V30 7501 C 707.462 0.758563 -2.20835 0
M  V30 7502 C 708.443 1.24121 -1.1631 0
M  V30 7503 O 709.628 1.29487 -1.4473 0
M  V30 7504 C 706.758 1.9892 -2.8469 0
M  V30 7505 C 705.712 1.64252 -3.95228 0
M  V30 7506 C 705.038 2.94757 -4.46119 0
M  V30 7507 C 706.338 0.872675 -5.14958 0
M  V30 7508 H 708.032 0.223953 -2.98561 0
M  V30 7509 H 705.578 0.106277 -1.43607 0
M  V30 7510 H 707.531 2.64275 -3.28233 0
M  V30 7511 H 706.255 2.5479 -2.04327 0
M  V30 7512 H 704.914 1.01266 -3.52336 0
M  V30 7513 H 704.562 3.48662 -3.62552 0
M  V30 7514 H 704.262 2.72316 -5.2069 0
M  V30 7515 H 705.786 3.61147 -4.92347 0
M  V30 7516 H 707.2 1.42875 -5.55211 0
M  V30 7517 H 705.597 0.747402 -5.95428 0
M  V30 7518 H 706.667 -0.131535 -4.84722 0
M  V30 7519 N 708.01 1.57248 0.105221 0
M  V30 7520 C 709.235 1.90143 0.828264 0
M  V30 7521 C 709.66 0.761811 1.71983 0
M  V30 7522 O 709.018 -0.287086 1.79013 0
M  V30 7523 C 709.066 3.21856 1.62608 0
M  V30 7524 O 708.17 3.08732 2.7342 0
M  V30 7525 H 707.511 0.623558 0.228192 0
M  V30 7526 H 710.041 2.0443 0.0834826 0
M  V30 7527 H 710.051 3.54916 2.01243 0
M  V30 7528 H 708.726 4.0439 0.971687 0
M  V30 7529 H 707.303 2.87167 2.37886 0
M  V30 7530 N 709.488 -0.375779 1.53054 0
M  V30 7531 C 710.899 -0.95309 1.6054 0
M  V30 7532 C 711.25 -1.90575 0.466446 0
M  V30 7533 O 710.375 -2.12507 -0.408609 0
M  V30 7534 C 710.97 -1.73537 2.90982 0
M  V30 7535 C 709.529 -2.26218 3.00836 0
M  V30 7536 C 708.676 -1.07157 2.55759 0
M  V30 7537 H 711.627 -0.154895 1.57942 0
M  V30 7538 H 711.648 -2.59574 2.78211 0
M  V30 7539 H 711.16 -1.04176 3.73857 0
M  V30 7540 H 709.261 -2.98852 2.22527 0
M  V30 7541 H 709.374 -2.54799 4.05727 0
M  V30 7542 H 707.738 -1.43553 2.10391 0
M  V30 7543 H 708.521 -0.393099 3.41042 0
M  V30 7544 N 710.966 -1.44241 -0.634997 0
M  V30 7545 C 711.929 -1.50457 -1.72903 0
M  V30 7546 C 712.929 -0.387058 -1.56072 0
M  V30 7547 O 714.119 -0.649531 -1.61638 0
M  V30 7548 C 711.251 -1.37477 -3.1195 0
M  V30 7549 H 712.444 -2.47907 -1.68767 0
M  V30 7550 H 709.997 -1.31276 -0.84831 0
M  V30 7551 H 710.732 -0.41106 -3.21684 0
M  V30 7552 H 710.517 -2.18506 -3.25573 0
M  V30 7553 H 712.007 -1.44799 -3.91692 0
M  V30 7554 N 712.444 0.87505 -1.31075 0
M  V30 7555 C 713.692 1.62447 -1.20231 0
M  V30 7556 C 714.013 1.93506 0.240888 0
M  V30 7557 O 713.283 1.57847 1.16022 0
M  V30 7558 H 711.863 0.602207 -0.441991 0
M  V30 7559 H 714.525 1.04788 -1.64334 0
M  V30 7560 H 713.621 2.57031 -1.77036 0
M  V30 7561 N 713.922 1.13953 1.08869 0
M  V30 7562 C 715.171 0.899431 1.80536 0
M  V30 7563 C 715.484 -0.575781 1.86933 0
M  V30 7564 O 716.69 -0.932988 2.54966 0
M  V30 7565 C 715.146 1.55963 3.24351 0
M  V30 7566 C 714.754 3.07077 3.26202 0
M  V30 7567 C 716.498 1.40046 4.00733 0
M  V30 7568 C 714.405 3.65955 4.64576 0
M  V30 7569 H 713.335 0.332849 0.676556 0
M  V30 7570 H 715.986 1.3679 1.22314 0
M  V30 7571 H 714.368 1.01883 3.82669 0
M  V30 7572 H 715.542 3.67785 2.77617 0
M  V30 7573 H 713.857 3.22576 2.63312 0
M  V30 7574 H 716.454 1.81441 5.02974 0
M  V30 7575 H 716.797 0.345993 4.1486 0
M  V30 7576 H 717.33 1.91137 3.48872 0
M  V30 7577 H 714.069 4.71234 4.55652 0
M  V30 7578 H 713.589 3.10027 5.13462 0
M  V30 7579 H 715.268 3.65968 5.33551 0
M  V30 7580 N 715.4 -1.26948 0.933913 0
M  V30 7581 C 716.677 -1.89212 0.495784 0
M  V30 7582 C 717.057 -1.84469 -1.02637 0
M  V30 7583 O 716.405 -1.29409 -1.88323 0
M  V30 7584 C 716.615 -3.32865 1.0489 0
M  V30 7585 C 717.963 -4.09749 1.11315 0
M  V30 7586 O 718.987 -3.41905 0.998966 0
M  V30 7587 O 717.846 -5.31061 1.28983 0
M  V30 7588 H 714.94 -0.811284 0.160459 0
M  V30 7589 H 717.486 -1.35171 1.02601 0
M  V30 7590 H 716.258 -3.30642 2.09265 0
M  V30 7591 H 715.881 -3.94435 0.500692 0
M  V30 7592 N 716.879 -0.700114 -1.41195 0
M  V30 7593 C 717.842 -0.0465706 -2.29153 0
M  V30 7594 C 718.842 0.703302 -1.44604 0
M  V30 7595 O 720.032 0.537513 -1.657 0
M  V30 7596 C 717.164 0.944324 -3.2756 0
M  V30 7597 H 718.357 -0.821064 -2.88442 0
M  V30 7598 H 715.91 -0.463869 -1.49258 0
M  V30 7599 H 716.645 1.74642 -2.73259 0
M  V30 7600 H 716.43 0.409701 -3.89954 0
M  V30 7601 H 717.92 1.39925 -3.9346 0
M  V30 7602 N 718.357 1.51182 -0.445186 0
M  V30 7603 C 719.287 2.30821 0.352686 0
M  V30 7604 C 720.268 1.36576 1.01395 0
M  V30 7605 O 721.453 1.65497 1.01609 0
M  V30 7606 C 718.583 3.15593 1.44976 0
M  V30 7607 C 717.537 4.1818 0.911553 0
M  V30 7608 C 716.863 4.91523 2.10497 0
M  V30 7609 C 718.163 5.22266 -0.059418 0
M  V30 7610 H 719.857 2.97771 -0.311936 0
M  V30 7611 H 717.403 1.43201 -0.151461 0
M  V30 7612 H 719.356 3.70091 2.01521 0
M  V30 7613 H 718.08 2.4648 2.14278 0
M  V30 7614 H 716.739 3.64746 0.368264 0
M  V30 7615 H 716.387 4.18906 2.78437 0
M  V30 7616 H 716.087 5.60898 1.7512 0
M  V30 7617 H 717.611 5.48847 2.6758 0
M  V30 7618 H 719.025 5.71789 0.415985 0
M  V30 7619 H 717.422 5.99213 -0.326152 0
M  V30 7620 H 718.492 4.7461 -0.993631 0
M  V30 7621 N 719.835 0.176821 1.56605 0
M  V30 7622 C 721.083 -0.465793 1.96659 0
M  V30 7623 C 721.404 -1.63406 1.06412 0
M  V30 7624 O 720.674 -1.95457 0.131603 0
M  V30 7625 H 719.254 -0.175072 0.726195 0
M  V30 7626 H 721.916 0.25929 1.93168 0
M  V30 7627 H 721.012 -0.822138 3.01077 0
M  V30 7628 N 721.313 -1.57302 -0.09688 0
M  V30 7629 C 722.276 -2.00976 -1.10188 0
M  V30 7630 C 723.276 -0.903009 -1.3305 0
M  V30 7631 O 724.466 -1.16853 -1.29194 0
M  V30 7632 C 721.598 -2.36893 -2.45142 0
M  V30 7633 H 722.791 -2.9098 -0.726003 0
M  V30 7634 H 720.344 -1.52515 -0.341872 0
M  V30 7635 H 721.079 -1.49837 -2.8761 0
M  V30 7636 H 720.864 -3.17632 -2.29897 0
M  V30 7637 H 722.354 -2.71345 -3.1743 0
M  V30 7638 O 722.83 0.240887 -1.59693 0
M  V30 7639 H 723.521 0.88365 -1.7237 0
M  V30 END ATOM
M  V30 BEGIN BOND
M  V30 END BOND
M  V30 END CTAB
M  END
$$$$
