drugbank_target|P05230 Fibroblast growth factor 1 (DB00686; DB01025; DB01109; DB01901; DB01942; DB02264; DB03959; DB04409; DB06589; DB08238; DB10770; DB10772)
 OpenBabel12092119373D

  0  0  0     0  0            999 V3000
M  V30 BEGIN CTAB
M  V30 COUNTS 2437 2465 0 0 0
M  V30 BEGIN ATOM
M  V30 1 H -0.908 1.98254 -0.117106 0
M  V30 2 N 0 1.576 0 0
M  V30 3 C 0.933 2.03868 1.02534 0
M  V30 4 C 1.911 0.928543 1.3348 0
M  V30 5 O 3.095 1.19667 1.45644 0
M  V30 6 C 0.222 2.43627 2.35294 0
M  V30 7 C -0.732 3.65373 2.2001 0
M  V30 8 S 0.101 5.13292 1.52614 0
M  V30 9 C 1.257 5.56322 2.86805 0
M  V30 10 H 1.49 2.90518 0.631377 0
M  V30 11 H -0.977 1.52953 0.210867 0
M  V30 12 H 0.981 2.67203 3.11629 0
M  V30 13 H -0.358 1.57376 2.7183 0
M  V30 14 H -1.165 3.90944 3.18086 0
M  V30 15 H -1.563 3.418 1.51819 0
M  V30 16 H 0.729 5.58782 3.83104 0
M  V30 17 H 1.672 6.56266 2.65933 0
M  V30 18 H 2.08 4.83886 2.90714 0
M  V30 19 N 1.4781 -0.272755 1.55222 0
M  V30 20 C 2.4411 -1.32041 1.87344 0
M  V30 21 C 3.4411 -1.42342 0.74803 0
M  V30 22 O 4.6311 -1.41488 1.0162 0
M  V30 23 C 1.7631 -2.70173 2.07893 0
M  V30 24 H 2.9561 -1.04789 2.80997 0
M  V30 25 H 0.5091 -0.51083 1.47717 0
M  V30 26 H 1.2441 -3.02605 1.16622 0
M  V30 27 H 1.0291 -2.64082 2.89833 0
M  V30 28 H 2.5191 -3.45869 2.34017 0
M  V30 29 N 2.9562 -1.48159 -0.537278 0
M  V30 30 C 3.8662 -1.64807 -1.6696 0
M  V30 31 C 4.8822 -0.530651 -1.65711 0
M  V30 32 O 6.0582 -0.800784 -1.84796 0
M  V30 33 C 3.1232 -1.67708 -3.03438 0
M  V30 34 C 2.1842 -2.91025 -3.156 0
M  V30 35 C 1.4172 -2.93778 -4.45567 0
M  V30 36 O 1.6402 -2.05153 -5.3223 0
M  V30 37 O 0.5742 -3.85868 -4.61941 0
M  V30 38 H 4.4002 -2.6066 -1.55853 0
M  V30 39 H 1.9852 -1.31475 -0.709549 0
M  V30 40 H 3.8672 -1.7218 -3.84619 0
M  V30 41 H 2.5422 -0.750278 -3.14885 0
M  V30 42 H 1.4492 -2.92089 -2.33741 0
M  V30 43 H 2.7822 -3.83065 -3.09066 0
M  V30 44 N 4.4343 0.785586 -1.36625 0
M  V30 45 C 5.6823 1.54057 -1.30808 0
M  V30 46 C 6.0033 1.94683 0.111157 0
M  V30 47 O 5.2733 1.65241 1.05224 0
M  V30 48 H 3.8533 0.571354 -0.481211 0
M  V30 49 H 6.5153 0.935821 -1.70963 0
M  V30 50 H 5.6113 2.44637 -1.93801 0
M  V30 51 N 5.9124 1.20967 1.01018 0
M  V30 52 C 6.8224 0.980157 2.13143 0
M  V30 53 C 7.8384 -0.0660665 1.73875 0
M  V30 54 O 9.0144 0.122821 2.01025 0
M  V30 55 C 6.0794 0.54216 3.42435 0
M  V30 56 C 5.1404 1.65999 3.95908 0
M  V30 57 C 4.3734 1.2428 5.19028 0
M  V30 58 O 4.5964 0.114196 5.70286 0
M  V30 59 O 3.5304 2.05271 5.65816 0
M  V30 60 H 7.3564 1.91913 2.35379 0
M  V30 61 H 4.9414 0.994099 1.11526 0
M  V30 62 H 6.8234 0.30744 4.20277 0
M  V30 63 H 5.4984 -0.36815 3.216 0
M  V30 64 H 4.4054 1.94906 3.19316 0
M  V30 65 H 5.7384 2.54753 4.21143 0
M  V30 66 N 7.3905 -1.2043 1.01659 0
M  V30 67 C 8.6395 -1.89118 0.701237 0
M  V30 68 C 8.9525 -1.79705 -0.772358 0
M  V30 69 O 10.1585 -2.43528 -1.20026 0
M  V30 70 C 8.6145 -3.39168 1.20388 0
M  V30 71 C 8.2225 -3.57166 2.70438 0
M  V30 72 C 9.9665 -4.1341 0.963953 0
M  V30 73 C 7.8735 -5.01042 3.14183 0
M  V30 74 H 6.8035 -0.708267 0.2586 0
M  V30 75 H 9.4545 -1.36239 1.22927 0
M  V30 76 H 7.8365 -3.91369 0.603824 0
M  V30 77 H 9.0105 -3.15351 3.35992 0
M  V30 78 H 7.3255 -2.96294 2.92572 0
M  V30 79 H 9.9225 -5.19491 1.26621 0
M  V30 80 H 10.2655 -4.16181 -0.099578 0
M  V30 81 H 10.7985 -3.67309 1.52738 0
M  V30 82 H 7.5375 -5.03426 4.19812 0
M  V30 83 H 7.0575 -5.43668 2.53348 0
M  V30 84 H 8.7365 -5.69623 3.0682 0
M  V30 85 N 8.8686 -0.792821 -1.36206 0
M  V30 86 C 10.0966 -0.378825 -2.03402 0
M  V30 87 C 10.5116 1.00586 -1.59774 0
M  V30 88 O 9.8686 1.64574 -0.788764 0
M  V30 89 C 9.9196 -0.43683 -3.58851 0
M  V30 90 O 9.6406 -1.76691 -4.00889 0
M  V30 91 C 11.1416 -0.0138943 -4.43298 0
M  V30 92 H 8.3616 -0.155673 -0.652692 0
M  V30 93 H 10.9056 -1.07261 -1.74113 0
M  V30 94 H 9.0606 0.208575 -3.86838 0
M  V30 95 H 9.4746 -1.72011 -4.95492 0
M  V30 96 H 10.9486 -0.105615 -5.51899 0
M  V30 97 H 11.4256 1.03915 -4.2673 0
M  V30 98 H 12.0316 -0.63192 -4.20579 0
M  V30 99 N 10.3467 1.47872 -0.545128 0
M  V30 100 C 11.5747 2.06889 -0.021084 0
M  V30 101 C 11.9897 1.39955 1.2672 0
M  V30 102 O 11.3467 0.492036 1.75742 0
M  V30 103 C 11.3977 3.60996 0.190817 0
M  V30 104 O 11.1187 4.25419 -1.04644 0
M  V30 105 C 12.6197 4.36849 0.753521 0
M  V30 106 H 9.8397 0.669785 -0.0403635 0
M  V30 107 H 12.3837 1.90049 -0.755095 0
M  V30 108 H 10.5387 3.77391 0.87492 0
M  V30 109 H 10.9527 5.17785 -0.836611 0
M  V30 110 H 12.4267 5.45399 0.851139 0
M  V30 111 H 12.9037 4.02306 1.762 0
M  V30 112 H 13.5097 4.25169 0.105503 0
M  V30 113 N 11.8248 0.280983 1.55075 0
M  V30 114 C 13.0718 -0.334115 1.99725 0
M  V30 115 C 13.3998 -1.5542 1.1694 0
M  V30 116 O 12.6548 -1.94361 0.228531 0
M  V30 117 C 12.9538 -0.754656 3.49342 0
M  V30 118 C 12.6198 0.361445 4.49449 0
M  V30 119 C 11.2818 0.667893 4.76542 0
M  V30 120 C 13.6338 1.11322 5.09173 0
M  V30 121 C 10.9618 1.7296 5.60626 0
M  V30 122 C 13.3138 2.1647 5.9441 0
M  V30 123 C 11.9778 2.47742 6.19822 0
M  V30 124 H 11.2478 -0.122261 0.730844 0
M  V30 125 H 13.8948 0.395917 1.87363 0
M  V30 126 H 12.1998 -1.56446 3.5921 0
M  V30 127 H 13.8968 -1.24142 3.813 0
M  V30 128 H 10.4868 0.112481 4.28452 0
M  V30 129 H 14.6708 0.88973 4.8826 0
M  V30 130 H 9.9268 1.97684 5.78559 0
M  V30 131 H 14.1008 2.75193 6.3972 0
M  V30 132 H 11.7278 3.30145 6.84769 0
M  V30 133 N 13.3029 -1.57598 0.00835791 0
M  V30 134 C 14.5309 -1.95214 -0.68549 0
M  V30 135 C 14.9459 -0.883706 -1.66841 0
M  V30 136 O 14.3029 0.136565 -1.81988 0
M  V30 137 C 14.3539 -3.32865 -1.41007 0
M  V30 138 O 14.0749 -4.35609 -0.466552 0
M  V30 139 C 15.5759 -3.84991 -2.19765 0
M  V30 140 H 12.7959 -0.643422 -0.190392 0
M  V30 141 H 15.3399 -2.04406 0.0619607 0
M  V30 142 H 13.4949 -3.24956 -2.10908 0
M  V30 143 H 13.9089 -5.15288 -0.978699 0
M  V30 144 H 15.3829 -4.8371 -2.65948 0
M  V30 145 H 15.8599 -3.18137 -3.02796 0
M  V30 146 H 16.4659 -3.96103 -1.54864 0
M  V30 147 N 14.781 0.264519 -1.55364 0
M  V30 148 C 15.744 1.31046 -1.88042 0
M  V30 149 C 16.744 1.41943 -0.755569 0
M  V30 150 O 17.934 1.40947 -1.02369 0
M  V30 151 C 15.066 2.69067 -2.09323 0
M  V30 152 H 16.259 1.03297 -2.81549 0
M  V30 153 H 13.812 0.502989 -1.47986 0
M  V30 154 H 14.547 3.01982 -1.18226 0
M  V30 155 H 14.332 2.62542 -2.91229 0
M  V30 156 H 15.822 3.44623 -2.35848 0
M  V30 157 N 16.2591 1.48442 0.529413 0
M  V30 158 C 17.1891 1.65902 1.64313 0
M  V30 159 C 18.1701 0.507897 1.6234 0
M  V30 160 O 19.3551 0.740503 1.79528 0
M  V30 161 C 16.4851 1.69911 3.02898 0
M  V30 162 C 15.4391 2.8453 3.19729 0
M  V30 163 C 14.7651 2.73629 4.59381 0
M  V30 164 C 16.0651 4.25821 3.02447 0
M  V30 165 H 17.7591 2.5914 1.49955 0
M  V30 166 H 15.3051 1.24709 0.719982 0
M  V30 167 H 17.2581 1.80715 3.80684 0
M  V30 168 H 15.9821 0.732524 3.18279 0
M  V30 169 H 14.6411 2.73283 2.44361 0
M  V30 170 H 14.2891 1.74938 4.71599 0
M  V30 171 H 13.9891 3.50541 4.71588 0
M  V30 172 H 15.5131 2.86401 5.39265 0
M  V30 173 H 16.9271 4.37898 3.70024 0
M  V30 174 H 15.3241 5.03735 3.26146 0
M  V30 175 H 16.3941 4.42244 1.98867 0
M  V30 176 N 17.7372 -0.778329 1.37039 0
M  V30 177 C 18.9652 -1.56734 1.35063 0
M  V30 178 C 19.3802 -1.88686 -0.0655597 0
M  V30 179 O 18.7372 -1.5096 -1.02554 0
M  V30 180 C 18.7882 -2.88163 2.18276 0
M  V30 181 O 18.5092 -2.57583 3.54376 0
M  V30 182 C 20.0102 -3.82422 2.24206 0
M  V30 183 H 17.2302 -0.485778 0.462883 0
M  V30 184 H 19.7742 -0.965185 1.8029 0
M  V30 185 H 17.9292 -3.44818 1.76576 0
M  V30 186 H 18.3432 -3.41699 3.97922 0
M  V30 187 H 19.8172 -4.71667 2.86765 0
M  V30 188 H 20.2942 -4.21078 1.24861 0
M  V30 189 H 20.9002 -3.31697 2.6619 0
M  V30 190 N 19.2153 -1.21501 -1.00376 0
M  V30 191 C 20.1253 -0.991447 -2.12621 0
M  V30 192 C 21.1413 0.0568446 -1.73907 0
M  V30 193 O 22.3173 -0.13348 -2.00957 0
M  V30 194 C 19.3823 -0.560312 -3.42142 0
M  V30 195 C 18.4433 -1.68096 -3.95022 0
M  V30 196 C 17.6763 -1.2703 -5.18362 0
M  V30 197 O 17.8993 -0.144438 -5.70217 0
M  V30 198 O 16.8333 -2.08269 -5.64719 0
M  V30 199 H 20.6593 -1.93158 -2.34358 0
M  V30 200 H 18.2443 -0.999999 -1.10997 0
M  V30 201 H 20.1263 -0.329724 -4.20108 0
M  V30 202 H 18.8013 0.351089 -3.2179 0
M  V30 203 H 17.7083 -1.96597 -3.18278 0
M  V30 204 H 19.0413 -2.56983 -4.19786 0
M  V30 205 N 20.6934 1.19889 -1.02296 0
M  V30 206 C 21.6404 2.22901 -0.598651 0
M  V30 207 C 22.6104 1.61588 0.384521 0
M  V30 208 O 23.7954 1.88697 0.282522 0
M  V30 209 C 20.9354 3.45063 0.0504476 0
M  V30 210 C 20.0484 4.20783 -0.978053 0
M  V30 211 C 19.1834 5.30356 -0.299338 0
M  V30 212 C 18.2224 5.97826 -1.31416 0
M  V30 213 N 17.3594 6.98975 -0.661667 0
M  V30 214 H 22.1994 2.58554 -1.48169 0
M  V30 215 H 19.7364 1.27039 -0.741584 0
M  V30 216 H 21.6944 4.14831 0.443971 0
M  V30 217 H 20.3244 3.10084 0.897097 0
M  V30 218 H 19.3764 3.50018 -1.48969 0
M  V30 219 H 20.6884 4.67109 -1.74958 0
M  V30 220 H 19.8424 6.06516 0.149347 0
M  V30 221 H 18.5814 4.85084 0.504445 0
M  V30 222 H 17.5864 5.20422 -1.77317 0
M  V30 223 H 18.8114 6.45183 -2.11933 0
M  V30 224 H 16.7574 6.55886 0.122132 0
M  V30 225 H 16.6744 7.43461 -1.37117 0
M  V30 226 H 17.9424 7.7914 -0.236785 0
M  V30 227 N 22.1715 0.800033 1.35784 0
M  V30 228 C 23.4185 0.377342 1.98953 0
M  V30 229 C 23.7465 -1.05378 1.6348 0
M  V30 230 O 23.0015 -1.74459 0.886707 0
M  V30 231 C 23.3005 0.500276 3.53881 0
M  V30 232 C 22.9665 1.89375 4.09204 0
M  V30 233 C 21.6285 2.27499 4.24025 0
M  V30 234 C 23.9805 2.8057 4.39238 0
M  V30 235 C 21.3085 3.562 4.66195 0
M  V30 236 C 23.6605 4.0871 4.82844 0
M  V30 237 C 22.3245 4.46843 4.95871 0
M  V30 238 H 21.5945 0.138079 0.728021 0
M  V30 239 H 24.2415 1.01955 1.62103 0
M  V30 240 H 22.5465 -0.225405 3.91151 0
M  V30 241 H 24.2435 0.154097 4.00704 0
M  V30 242 H 20.8335 1.58753 3.98115 0
M  V30 243 H 25.0175 2.52367 4.27346 0
M  V30 244 H 20.2735 3.85602 4.74469 0
M  V30 245 H 24.4475 4.79481 5.05046 0
M  V30 246 H 22.0745 5.46623 5.28306 0
M  V30 247 N 23.6496 -1.47581 0.552962 0
M  V30 248 C 24.5976 -2.31648 -0.21023 0
M  V30 249 C 25.5916 -1.42663 -0.913432 0
M  V30 250 O 26.7976 -1.5945 -0.835201 0
M  V30 251 H 23.1726 -0.746989 -0.0866676 0
M  V30 252 H 25.1436 -2.93869 0.518051 0
M  V30 253 C 23.8926 -3.25226 -1.22976 0
M  V30 254 H 23.2156 -3.93658 -0.698077 0
M  V30 255 H 24.6556 -3.86889 -1.73473 0
M  V30 256 C 23.1146 -2.48448 -2.27542 0
M  V30 257 O 23.6446 -2.22585 -3.34393 0
M  V30 258 N 21.8506 -2.09532 -2.01357 0
M  V30 259 H 21.3976 -2.30765 -1.14478 0
M  V30 260 H 21.3556 -1.58476 -2.71538 0
M  V30 261 N 25.1277 -0.289203 -1.54924 0
M  V30 262 C 26.0577 0.58549 -2.2604 0
M  V30 263 C 27.0387 1.14753 -1.25562 0
M  V30 264 O 28.2237 1.17906 -1.54311 0
M  V30 265 C 25.3537 1.76305 -2.99222 0
M  V30 266 C 24.3077 1.33191 -4.06748 0
M  V30 267 C 23.6337 2.5937 -4.6758 0
M  V30 268 C 24.9337 0.471775 -5.20165 0
M  V30 269 H 26.6277 -0.00763532 -2.99399 0
M  V30 270 H 24.1737 -0.00511229 -1.43999 0
M  V30 271 H 26.1267 2.38097 -3.47689 0
M  V30 272 H 24.8507 2.38223 -2.23422 0
M  V30 273 H 23.5097 0.737121 -3.59113 0
M  V30 274 H 23.1577 3.19576 -3.88433 0
M  V30 275 H 22.8577 2.31228 -5.40192 0
M  V30 276 H 24.3817 3.21985 -5.18804 0
M  V30 277 H 25.7957 0.995056 -5.64599 0
M  V30 278 H 24.1927 0.284639 -5.99425 0
M  V30 279 H 25.2627 -0.506041 -4.82252 0
M  V30 280 N 26.6058 1.57591 -0.0167156 0
M  V30 281 C 28.0168 1.79201 0.523834 0
M  V30 282 C 28.3678 0.925796 1.72984 0
M  V30 283 O 27.4928 0.132792 2.15992 0
M  V30 284 C 28.0878 3.25 0.957091 0
M  V30 285 C 26.6468 3.47648 1.44283 0
M  V30 286 C 25.7938 2.74374 0.401757 0
M  V30 287 H 28.7448 1.56831 -0.242816 0
M  V30 288 H 28.7658 3.34031 1.82219 0
M  V30 289 H 28.2778 3.88019 0.0791415 0
M  V30 290 H 26.3788 2.89866 2.34113 0
M  V30 291 H 26.4918 4.56352 1.45877 0
M  V30 292 H 24.8558 2.39485 0.867121 0
M  V30 293 H 25.6388 3.40102 -0.467513 0
M  V30 294 N 28.0839 -0.256276 1.55502 0
M  V30 295 C 29.4949 -0.826068 1.67431 0
M  V30 296 C 29.8459 -1.86396 0.612446 0
M  V30 297 O 28.9709 -2.15031 -0.243025 0
M  V30 298 C 29.5659 -1.50512 3.03532 0
M  V30 299 C 28.1249 -2.02273 3.17431 0
M  V30 300 C 27.2719 -0.870548 2.63281 0
M  V30 301 H 30.2229 -0.0322728 1.58667 0
M  V30 302 H 30.2439 -2.37279 2.97454 0
M  V30 303 H 29.7559 -0.749484 3.80794 0
M  V30 304 H 27.8569 -2.80746 2.44974 0
M  V30 305 H 27.9699 -2.22655 4.24219 0
M  V30 306 H 26.3339 -1.26851 2.20864 0
M  V30 307 H 27.1169 -0.128149 3.43061 0
M  V30 308 N 29.562 -1.4872 -0.521534 0
M  V30 309 C 30.81 -1.56857 -1.27437 0
M  V30 310 C 31.131 -0.247982 -1.93417 0
M  V30 311 O 30.401 0.731151 -1.81744 0
M  V30 312 H 28.981 -0.577885 -0.473347 0
M  V30 313 H 31.643 -1.85233 -0.606205 0
M  V30 314 H 30.739 -2.35402 -2.0492 0
M  V30 315 N 31.0401 0.771051 -1.3745 0
M  V30 316 C 31.9881 1.90574 -1.33358 0
M  V30 317 C 32.9821 1.67936 -0.22224 0
M  V30 318 O 34.1881 1.75717 -0.390304 0
M  V30 319 H 30.5631 0.626714 -0.415612 0
M  V30 320 H 32.5341 1.91142 -2.29144 0
M  V30 321 C 31.2831 3.27845 -1.15813 0
M  V30 322 H 30.6061 3.45842 -2.00583 0
M  V30 323 H 32.0461 4.07538 -1.17 0
M  V30 324 C 30.5051 3.36625 0.136165 0
M  V30 325 O 31.0351 3.85785 1.11949 0
M  V30 326 N 29.2411 2.89997 0.187099 0
M  V30 327 H 28.7881 2.50182 -0.613753 0
M  V30 328 H 28.7461 2.96252 1.05272 0
M  V30 329 N 32.5182 1.22032 0.997298 0
M  V30 330 C 33.7482 1.06686 1.76923 0
M  V30 331 C 34.1562 -0.385838 1.85224 0
M  V30 332 O 33.4992 -1.27929 1.31833 0
M  V30 333 C 33.5612 1.59802 3.22031 0
M  V30 334 C 33.2252 3.08362 3.37286 0
M  V30 335 C 34.2222 4.05835 3.24952 0
M  V30 336 C 31.9072 3.47727 3.6248 0
M  V30 337 C 33.9012 5.4066 3.37588 0
M  V30 338 C 31.5882 4.82701 3.74757 0
M  V30 339 C 32.5862 5.78977 3.62319 0
M  V30 340 O 32.2742 7.11502 3.74193 0
M  V30 341 H 32.0062 0.374767 0.562606 0
M  V30 342 H 34.5602 1.61991 1.26286 0
M  V30 343 H 32.7902 0.989003 3.73839 0
M  V30 344 H 34.4792 1.40184 3.80924 0
M  V30 345 H 35.2452 3.76766 3.05405 0
M  V30 346 H 31.1242 2.73317 3.7124 0
M  V30 347 H 34.6682 6.15788 3.27796 0
M  V30 348 H 30.5652 5.11453 3.9381 0
M  V30 349 H 31.3332 7.19019 3.91093 0
M  V30 350 N 33.9963 -1.19345 1.0293 0
M  V30 351 C 34.9433 -2.2258 0.610464 0
M  V30 352 C 35.9133 -1.6179 -0.375946 0
M  V30 353 O 37.0983 -1.88844 -0.272511 0
M  V30 354 C 34.2383 -3.45085 -0.0321473 0
M  V30 355 C 33.3513 -4.20258 1.00035 0
M  V30 356 C 32.4863 -5.3019 0.32746 0
M  V30 357 C 31.5253 -5.97121 1.34584 0
M  V30 358 N 30.6623 -6.98615 0.698726 0
M  V30 359 H 35.5023 -2.57764 1.49538 0
M  V30 360 H 33.0393 -1.26644 0.748311 0
M  V30 361 H 34.9973 -4.15061 -0.421966 0
M  V30 362 H 33.6273 -3.10555 -0.88064 0
M  V30 363 H 32.6793 -3.49223 1.50823 0
M  V30 364 H 33.9913 -4.66175 1.77433 0
M  V30 365 H 33.1453 -6.06587 -0.11718 0
M  V30 366 H 31.8843 -4.85345 -0.478713 0
M  V30 367 H 30.8893 -5.19474 1.80074 0
M  V30 368 H 32.1143 -6.4405 2.15352 0
M  V30 369 H 30.0603 -6.55942 -0.0873471 0
M  V30 370 H 29.9773 -7.42724 1.41058 0
M  V30 371 H 31.2453 -7.79004 0.278102 0
M  V30 372 N 35.4744 -0.807222 -1.35358 0
M  V30 373 C 36.4214 -0.216037 -2.29787 0
M  V30 374 C 37.3914 0.650278 -1.52842 0
M  V30 375 O 38.5764 0.595227 -1.81278 0
M  V30 376 C 35.7164 0.628893 -3.39321 0
M  V30 377 C 34.8294 -0.257927 -4.31229 0
M  V30 378 C 33.9644 0.595069 -5.27856 0
M  V30 379 C 33.0034 -0.292111 -6.11403 0
M  V30 380 N 32.1404 0.520895 -7.00165 0
M  V30 381 H 36.9804 -1.02671 -2.79755 0
M  V30 382 H 34.5174 -0.517839 -1.37684 0
M  V30 383 H 36.4754 1.13393 -4.01494 0
M  V30 384 H 35.1054 1.40482 -2.90628 0
M  V30 385 H 34.1574 -0.881076 -3.70056 0
M  V30 386 H 35.4694 -0.940759 -4.89848 0
M  V30 387 H 34.6234 1.16522 -5.95405 0
M  V30 388 H 33.3624 1.31146 -4.69736 0
M  V30 389 H 32.3674 -0.874525 -5.428 0
M  V30 390 H 33.5924 -1.00638 -6.71602 0
M  V30 391 H 31.5384 1.22125 -6.44532 0
M  V30 392 H 31.4554 -0.103877 -7.55929 0
M  V30 393 H 32.7234 1.0743 -7.72062 0
M  V30 394 N 36.9525 1.47285 -0.560781 0
M  V30 395 C 38.3635 1.86258 -0.128343 0
M  V30 396 C 38.7145 1.46699 1.30284 0
M  V30 397 O 37.8395 0.871698 1.98067 0
M  V30 398 C 38.4345 3.38044 -0.22614 0
M  V30 399 C 36.9935 3.76096 0.151283 0
M  V30 400 C 36.1405 2.71335 -0.572084 0
M  V30 401 H 39.0915 1.38752 -0.770297 0
M  V30 402 H 39.1125 3.76441 0.554322 0
M  V30 403 H 38.6245 3.66806 -1.26788 0
M  V30 404 H 36.7255 3.52951 1.19399 0
M  V30 405 H 36.8385 4.78641 -0.209765 0
M  V30 406 H 35.2025 2.54696 -0.0147653 0
M  V30 407 H 35.9855 3.02938 -1.61504 0
M  V30 408 N 38.4306 0.297415 1.54768 0
M  V30 409 C 39.3776 -0.580276 2.23386 0
M  V30 410 C 40.3476 -1.13238 1.21517 0
M  V30 411 O 41.5326 -1.17757 1.50126 0
M  V30 412 C 38.6726 -1.74801 2.97555 0
M  V30 413 C 37.7856 -1.22764 4.1419 0
M  V30 414 C 36.9206 -2.35895 4.75949 0
M  V30 415 C 35.9596 -1.80974 5.84735 0
M  V30 416 N 35.0966 -2.87664 6.40464 0
M  V30 417 H 39.9366 0.0114833 2.97998 0
M  V30 418 H 37.4736 0.0174361 1.4709 0
M  V30 419 H 39.4316 -2.43475 3.38786 0
M  V30 420 H 38.0616 -2.31145 2.25326 0
M  V30 421 H 37.1136 -0.433271 3.77924 0
M  V30 422 H 38.4256 -0.785551 4.92575 0
M  V30 423 H 37.5796 -3.12523 5.20014 0
M  V30 424 H 36.3186 -2.83429 3.96887 0
M  V30 425 H 35.3236 -1.02834 5.40097 0
M  V30 426 H 36.5486 -1.34348 6.65678 0
M  V30 427 H 34.4946 -3.34538 5.64287 0
M  V30 428 H 34.4116 -2.4794 7.14186 0
M  V30 429 H 35.6796 -3.642 6.89187 0
M  V30 430 N 39.9087 -1.5758 0.0250728 0
M  V30 431 C 40.8387 -2.13007 -0.956575 0
M  V30 432 C 41.8197 -1.0452 -1.342 0
M  V30 433 O 43.0047 -1.32332 -1.42133 0
M  V30 434 C 40.1347 -2.65386 -2.24026 0
M  V30 435 C 39.0887 -3.78623 -1.99571 0
M  V30 436 C 38.4147 -4.17414 -3.3417 0
M  V30 437 C 39.7147 -5.04867 -1.33814 0
M  V30 438 H 41.4087 -2.9528 -0.494991 0
M  V30 439 H 38.9547 -1.42042 -0.236651 0
M  V30 440 H 40.9077 -3.02794 -2.93076 0
M  V30 441 H 39.6317 -1.80268 -2.72343 0
M  V30 442 H 38.2907 -3.41646 -1.32941 0
M  V30 443 H 37.9387 -3.29284 -3.80238 0
M  V30 444 H 37.6387 -4.93719 -3.18615 0
M  V30 445 H 39.1627 -4.57402 -4.04495 0
M  V30 446 H 40.5767 -5.39888 -1.92857 0
M  V30 447 H 38.9737 -5.86144 -1.28669 0
M  V30 448 H 40.0437 -4.83904 -0.310561 0
M  V30 449 N 41.3868 0.248026 -1.55636 0
M  V30 450 C 42.3168 1.31079 -1.93237 0
M  V30 451 C 43.2978 1.50264 -0.797174 0
M  V30 452 O 44.4828 1.62891 -1.05737 0
M  V30 453 C 41.6128 2.66575 -2.22609 0
M  V30 454 C 40.5668 2.62087 -3.3837 0
M  V30 455 C 39.8928 4.01369 -3.53281 0
M  V30 456 C 41.1928 2.19171 -4.7409 0
M  V30 457 H 42.8868 0.998556 -2.82257 0
M  V30 458 H 40.4328 0.47891 -1.35803 0
M  V30 459 H 42.3858 3.41057 -2.47503 0
M  V30 460 H 41.1098 2.99432 -1.30414 0
M  V30 461 H 39.7688 1.90063 -3.13483 0
M  V30 462 H 39.4168 4.31489 -2.58508 0
M  V30 463 H 39.1168 3.99254 -4.31127 0
M  V30 464 H 40.6408 4.77552 -3.80495 0
M  V30 465 H 42.0548 2.83384 -4.98363 0
M  V30 466 H 40.4518 2.2817 -5.5503 0
M  V30 467 H 41.5218 1.14336 -4.71227 0
M  V30 468 N 42.8649 1.48995 0.513639 0
M  V30 469 C 44.0949 1.61297 1.291 0
M  V30 470 C 44.5029 0.278656 1.87137 0
M  V30 471 O 43.8459 -0.744325 1.67945 0
M  V30 472 C 43.9079 2.61326 2.46879 0
M  V30 473 C 43.5719 4.05993 2.09807 0
M  V30 474 C 44.5689 4.93183 1.64519 0
M  V30 475 C 42.2539 4.51642 2.19829 0
M  V30 476 C 44.2479 6.24056 1.2974 0
M  V30 477 C 41.9349 5.82532 1.84662 0
M  V30 478 C 42.9329 6.68562 1.3969 0
M  V30 479 O 42.6209 7.97014 1.04992 0
M  V30 480 H 42.3529 0.546236 0.39825 0
M  V30 481 H 44.9069 1.95673 0.62459 0
M  V30 482 H 43.1369 2.22104 3.16554 0
M  V30 483 H 44.8259 2.6329 3.08923 0
M  V30 484 H 45.5919 4.59147 1.56233 0
M  V30 485 H 41.4709 3.84855 2.53786 0
M  V30 486 H 45.0149 6.91161 0.945659 0
M  V30 487 H 40.9119 6.16099 1.92594 0
M  V30 488 H 41.6799 8.09913 1.18249 0
M  V30 489 N 44.343 -0.763751 1.37857 0
M  V30 490 C 45.583 -1.53551 1.34913 0
M  V30 491 C 45.947 -1.91895 -0.0635882 0
M  V30 492 O 47.148 -2.67916 -0.217825 0
M  V30 493 C 45.419 -2.76126 2.26912 0
M  V30 494 S 46.978 -3.66105 2.41893 0
M  V30 495 H 43.796 -0.52559 0.478828 0
M  V30 496 H 46.398 -0.897435 1.73685 0
M  V30 497 H 45.102 -2.4605 3.28463 0
M  V30 498 H 44.633 -3.44887 1.89253 0
M  V30 499 H 46.648 -4.68473 1.63545 0
M  V30 500 N 45.8211 -1.22559 -0.990812 0
M  V30 501 C 47.0461 -1.07862 -1.77145 0
M  V30 502 C 47.4711 0.366447 -1.84496 0
M  V30 503 O 46.8291 1.26478 -1.29896 0
M  V30 504 C 46.8771 -1.69686 -3.18181 0
M  V30 505 O 45.9811 -0.951946 -4.01263 0
M  V30 506 H 45.3221 -0.378712 -0.545411 0
M  V30 507 H 47.8521 -1.62399 -1.2445 0
M  V30 508 H 47.8621 -1.74496 -3.68802 0
M  V30 509 H 46.5371 -2.74841 -3.12146 0
M  V30 510 H 45.1141 -0.980011 -3.59792 0
M  V30 511 N 47.2992 1.18797 -1.03562 0
M  V30 512 C 48.2472 2.24297 -0.615905 0
M  V30 513 C 49.2412 1.65643 0.354808 0
M  V30 514 O 50.4472 1.78618 0.22265 0
M  V30 515 H 46.8222 0.729909 -0.180934 0
M  V30 516 H 48.7932 2.5701 -1.5162 0
M  V30 517 C 47.5422 3.47698 0.0104735 0
M  V30 518 H 46.8652 3.93125 -0.727509 0
M  V30 519 H 48.3052 4.23159 0.266995 0
M  V30 520 C 46.7642 3.12489 1.25905 0
M  V30 521 O 47.2942 3.25761 2.35038 0
M  V30 522 N 45.5002 2.6686 1.15039 0
M  V30 523 H 45.0472 2.56261 0.262328 0
M  V30 524 H 45.0052 2.43674 1.98672 0
M  V30 525 N 48.7773 0.814389 1.34928 0
M  V30 526 C 50.0253 0.397636 1.9815 0
M  V30 527 C 50.3463 -1.04069 1.64908 0
M  V30 528 O 49.6163 -1.72121 0.93548 0
M  V30 529 H 48.1963 0.144043 0.732981 0
M  V30 530 H 50.8583 1.04195 1.6471 0
M  V30 531 H 49.9543 0.509688 3.0791 0
M  V30 532 N 50.2554 -1.46986 0.568584 0
M  V30 533 C 51.5034 -2.02041 0.0487022 0
M  V30 534 C 51.8244 -1.44408 -1.31039 0
M  V30 535 O 51.0944 -0.623477 -1.85714 0
M  V30 536 H 49.6744 -0.746849 0.015014 0
M  V30 537 H 52.3364 -1.80257 0.741168 0
M  V30 538 H 51.4324 -3.12085 -0.0308961 0
M  V30 539 N 51.7335 -0.305618 -1.54608 0
M  V30 540 C 52.6835 0.583595 -2.20405 0
M  V30 541 C 53.6675 1.09539 -1.17856 0
M  V30 542 O 54.8595 1.0354 -1.43557 0
M  V30 543 C 51.9885 1.75277 -2.95183 0
M  V30 544 C 51.0745 1.25672 -4.05052 0
M  V30 545 N 51.4655 0.478998 -5.03527 0
M  V30 546 C 49.7635 1.53704 -4.18678 0
M  V30 547 C 50.4645 0.214269 -5.81305 0
M  V30 548 N 49.4405 0.795374 -5.3775 0
M  V30 549 H 53.2425 -0.0180946 -2.93894 0
M  V30 550 H 50.7565 -0.110601 -1.62023 0
M  V30 551 H 52.7535 2.4014 -3.40791 0
M  V30 552 H 51.4135 2.35812 -2.23211 0
M  V30 553 H 52.4245 0.123473 -5.17753 0
M  V30 554 H 49.1015 2.14954 -3.57912 0
M  V30 555 H 50.4915 -0.410656 -6.70644 0
M  V30 556 N 53.2116 1.57565 -0.0334293 0
M  V30 557 C 54.4586 1.91978 0.644272 0
M  V30 558 C 54.7866 0.910231 1.71887 0
M  V30 559 O 54.0416 -0.0801961 1.95536 0
M  V30 560 C 54.3406 3.33112 1.29504 0
M  V30 561 C 54.0066 4.49537 0.350388 0
M  V30 562 C 52.6686 4.81115 0.0903974 0
M  V30 563 C 55.0206 5.20347 -0.298032 0
M  V30 564 C 52.3486 5.8086 -0.825746 0
M  V30 565 C 54.7006 6.2107 -1.20226 0
M  V30 566 C 53.3646 6.51088 -1.4711 0
M  V30 567 H 52.6346 0.702496 0.235756 0
M  V30 568 H 55.2816 1.91259 -0.0961176 0
M  V30 569 H 53.5866 3.30113 2.11028 0
M  V30 570 H 55.2836 3.57011 1.82603 0
M  V30 571 H 51.8736 4.24883 0.563205 0
M  V30 572 H 56.0576 4.96178 -0.110234 0
M  V30 573 H 51.3136 6.02461 -1.04169 0
M  V30 574 H 55.4876 6.75057 -1.71086 0
M  V30 575 H 53.1146 7.28193 -2.18264 0
M  V30 576 N 54.6897 -0.239769 1.55765 0
M  V30 577 C 55.6197 -1.30052 1.9393 0
M  V30 578 C 56.6007 -1.49839 0.805132 0
M  V30 579 O 57.7857 -1.62328 1.06599 0
M  V30 580 C 54.9157 -2.65391 2.2402 0
M  V30 581 C 53.8697 -2.60289 3.39755 0
M  V30 582 C 53.1957 -3.99489 3.55405 0
M  V30 583 C 54.4957 -2.16654 4.75246 0
M  V30 584 H 56.1897 -0.983573 2.82783 0
M  V30 585 H 53.7357 -0.471701 1.36055 0
M  V30 586 H 55.6887 -3.3974 2.49308 0
M  V30 587 H 54.4127 -2.98736 1.32 0
M  V30 588 H 53.0717 -1.88398 3.14487 0
M  V30 589 H 52.7197 -4.30112 2.60793 0
M  V30 590 H 52.4197 -3.96962 4.33238 0
M  V30 591 H 53.9437 -4.75528 3.83022 0
M  V30 592 H 55.3577 -2.80737 4.99859 0
M  V30 593 H 53.7547 -2.25223 5.56232 0
M  V30 594 H 54.8247 -1.11835 4.71827 0
M  V30 595 N 56.1678 -1.49265 -0.50573 0
M  V30 596 C 57.5838 -1.35923 -0.836486 0
M  V30 597 C 57.7838 -0.388704 -1.97715 0
M  V30 598 O 56.8398 0.181336 -2.51848 0
M  V30 599 C 58.1528 -2.76531 -1.18115 0
M  V30 600 C 59.7008 -2.85197 -1.28964 0
M  V30 601 C 60.1758 -4.26561 -1.66761 0
M  V30 602 N 61.6668 -4.2935 -1.73819 0
M  V30 603 C 62.4018 -5.35693 -2.045 0
M  V30 604 N 61.8978 -6.52287 -2.33438 0
M  V30 605 N 63.6908 -5.23105 -2.05711 0
M  V30 606 H 55.8418 -2.10965 0.246519 0
M  V30 607 H 58.1048 -0.9468 0.0476887 0
M  V30 608 H 57.8108 -3.49226 -0.416398 0
M  V30 609 H 57.6848 -3.11599 -2.1257 0
M  V30 610 H 60.0718 -2.12742 -2.04511 0
M  V30 611 H 60.1528 -2.53718 -0.325704 0
M  V30 612 H 59.7968 -4.99541 -0.917656 0
M  V30 613 H 59.7268 -4.55502 -2.64246 0
M  V30 614 H 62.2178 -3.4526 -1.53635 0
M  V30 615 H 62.5308 -7.29158 -2.56024 0
M  V30 616 H 60.8758 -6.55521 -2.30905 0
M  V30 617 H 64.0668 -4.31026 -1.82577 0
M  V30 618 H 64.2398 -6.06078 -2.29289 0
M  V30 619 N 57.6459 0.756429 -1.3826 0
M  V30 620 C 58.8949 1.51082 -1.3363 0
M  V30 621 C 59.2079 1.95467 0.0720068 0
M  V30 622 O 60.4139 2.7043 0.240834 0
M  V30 623 C 58.8699 2.72893 -2.34644 0
M  V30 624 C 58.4779 2.35544 -3.81081 0
M  V30 625 C 60.2219 3.50791 -2.39052 0
M  V30 626 C 58.1289 3.53948 -4.73787 0
M  V30 627 H 57.0589 0.56727 -0.49671 0
M  V30 628 H 59.7099 0.827147 -1.638 0
M  V30 629 H 58.0919 3.43227 -1.97513 0
M  V30 630 H 59.2659 1.72894 -4.27135 0
M  V30 631 H 57.5809 1.70786 -3.79764 0
M  V30 632 H 60.1779 4.38823 -3.05513 0
M  V30 633 H 60.5209 3.91745 -1.40861 0
M  V30 634 H 61.0539 2.87467 -2.74968 0
M  V30 635 H 57.7929 3.18064 -5.73163 0
M  V30 636 H 57.3129 4.15651 -4.32428 0
M  V30 637 H 58.9919 4.20566 -4.91663 0
M  V30 638 N 59.124 1.23083 0.984299 0
M  V30 639 C 60.054 1.03292 2.09411 0
M  V30 640 C 61.035 -0.048923 1.7003 0
M  V30 641 O 62.22 0.114967 1.93859 0
M  V30 642 C 59.35 0.619155 3.41736 0
M  V30 643 C 58.304 1.64791 3.95004 0
M  V30 644 C 57.63 1.0897 5.23478 0
M  V30 645 C 58.93 3.03999 4.24714 0
M  V30 646 H 60.624 1.96119 2.26225 0
M  V30 647 H 58.17 0.944344 1.08711 0
M  V30 648 H 60.123 0.467777 4.18796 0
M  V30 649 H 58.847 -0.344786 3.24775 0
M  V30 650 H 57.506 1.78721 3.20085 0
M  V30 651 H 57.154 0.11686 5.02864 0
M  V30 652 H 56.854 1.77704 5.60085 0
M  V30 653 H 58.378 0.950093 6.03163 0
M  V30 654 H 59.792 2.93393 4.92538 0
M  V30 655 H 58.189 3.69936 4.72512 0
M  V30 656 H 59.259 3.53285 3.32142 0
M  V30 657 N 60.6021 -1.18246 1.0419 0
M  V30 658 C 62.0131 -1.69914 0.773698 0
M  V30 659 C 62.3641 -1.83085 -0.705297 0
M  V30 660 O 61.4891 -1.51123 -1.5489 0
M  V30 661 C 62.0841 -3.08619 1.39784 0
M  V30 662 C 60.6431 -3.57494 1.17792 0
M  V30 663 C 59.7901 -2.34013 1.48773 0
M  V30 664 H 62.7411 -1.02904 1.20816 0
M  V30 665 H 62.7621 -3.71958 0.801714 0
M  V30 666 H 62.2741 -2.99001 2.47426 0
M  V30 667 H 60.3751 -3.72406 0.120295 0
M  V30 668 H 60.4881 -4.40852 1.87581 0
M  V30 669 H 58.8521 -2.37986 0.907463 0
M  V30 670 H 59.6351 -2.27013 2.57527 0
M  V30 671 N 62.0802 -0.821533 -1.34494 0
M  V30 672 C 63.3572 -0.33159 -1.92769 0
M  V30 673 C 63.7372 1.18088 -1.74981 0
M  V30 674 O 63.0852 1.98733 -1.12772 0
M  V30 675 C 63.2952 -0.759398 -3.40638 0
M  V30 676 C 64.6432 -0.757433 -4.1779 0
M  V30 677 O 65.6672 -0.70189 -3.49216 0
M  V30 678 O 64.5262 -0.829361 -5.4017 0
M  V30 679 H 61.6202 -0.0902502 -0.822061 0
M  V30 680 H 64.1662 -0.906231 -1.43477 0
M  V30 681 H 62.9382 -1.8012 -3.47379 0
M  V30 682 H 62.5612 -0.160378 -3.97276 0
M  V30 683 N 63.5583 1.46682 -0.576371 0
M  V30 684 C 64.8063 2.02013 -0.0594163 0
M  V30 685 C 65.1273 1.45101 1.30271 0
M  V30 686 O 64.3973 0.633317 1.8538 0
M  V30 687 H 62.9773 0.746759 -0.0189745 0
M  V30 688 H 65.6393 1.79862 -0.750717 0
M  V30 689 H 64.7353 3.12097 0.014345 0
M  V30 690 N 65.0364 0.313813 1.54444 0
M  V30 691 C 66.2644 -0.293918 2.04802 0
M  V30 692 C 66.6794 -1.46537 1.19047 0
M  V30 693 O 66.0364 -1.81182 0.218939 0
M  V30 694 C 66.0874 -0.737806 3.53891 0
M  V30 695 O 65.8084 0.387038 4.36387 0
M  V30 696 C 67.3094 -1.40936 4.203 0
M  V30 697 H 64.5294 -0.0620057 0.668129 0
M  V30 698 H 67.0734 0.457169 1.99324 0
M  V30 699 H 65.2284 -1.43889 3.59687 0
M  V30 700 H 65.6424 0.0391274 5.24485 0
M  V30 701 H 67.1164 -1.67099 5.26101 0
M  V30 702 H 67.5934 -2.35355 3.70816 0
M  V30 703 H 68.1994 -0.751117 4.18615 0
M  V30 704 N 66.5145 -1.57545 0.0417849 0
M  V30 705 C 67.7605 -1.92601 -0.635021 0
M  V30 706 C 68.0935 -0.919627 -1.71045 0
M  V30 707 O 67.3685 0.0557892 -1.9442 0
M  V30 708 C 67.6515 -3.38085 -1.23979 0
M  V30 709 C 67.5045 -4.49467 -0.173057 0
M  V30 710 C 68.8235 -3.83776 -2.15416 0
M  V30 711 H 65.9425 -0.700397 -0.229374 0
M  V30 712 H 68.5845 -1.89728 0.101633 0
M  V30 713 H 66.7345 -3.40664 -1.86762 0
M  V30 714 H 68.4065 -4.59018 0.458312 0
M  V30 715 H 66.6495 -4.30909 0.499996 0
M  V30 716 H 67.3205 -5.48323 -0.636054 0
M  V30 717 H 69.7965 -3.83013 -1.62605 0
M  V30 718 H 68.6725 -4.8624 -2.54679 0
M  V30 719 H 68.9335 -3.19998 -3.05047 0
M  V30 720 N 67.9926 0.231505 -1.5589 0
M  V30 721 C 69.2696 0.981096 -1.69215 0
M  V30 722 C 69.6496 2.02799 -0.586164 0
M  V30 723 O 68.9976 2.24823 0.408253 0
M  V30 724 C 69.2076 1.60054 -3.10135 0
M  V30 725 C 70.5556 2.09658 -3.69227 0
M  V30 726 O 71.5796 1.69967 -3.13033 0
M  V30 727 O 70.4386 2.8258 -4.67772 0
M  V30 728 H 67.5326 0.457653 -0.688827 0
M  V30 729 H 70.0786 0.224073 -1.68214 0
M  V30 730 H 68.8506 0.844105 -3.82087 0
M  V30 731 H 68.4736 2.42336 -3.15212 0
M  V30 732 N 69.4707 1.49531 0.497807 0
M  V30 733 C 70.7187 1.58865 1.24926 0
M  V30 734 C 71.0397 0.278721 1.92998 0
M  V30 735 O 70.3097 -0.702144 1.82885 0
M  V30 736 H 68.8897 0.585343 0.464094 0
M  V30 737 H 71.5517 1.86174 0.57666 0
M  V30 738 H 70.6477 2.38633 2.01149 0
M  V30 739 N 70.9488 -0.749086 1.3866 0
M  V30 740 C 72.1768 -1.53834 1.38358 0
M  V30 741 C 72.5918 -1.88783 -0.0255219 0
M  V30 742 O 71.9488 -1.53101 -0.993292 0
M  V30 743 C 71.9998 -2.83468 2.2434 0
M  V30 744 O 71.7208 -2.50008 3.5976 0
M  V30 745 C 73.2218 -3.7758 2.32267 0
M  V30 746 H 70.4418 -0.47585 0.473083 0
M  V30 747 H 72.9858 -0.926726 1.82297 0
M  V30 748 H 71.1408 -3.40995 1.83851 0
M  V30 749 H 71.5548 -3.33182 4.05081 0
M  V30 750 H 73.0288 -4.65478 2.96706 0
M  V30 751 H 73.5058 -4.18334 1.33765 0
M  V30 752 H 74.1118 -3.25976 2.73166 0
M  V30 753 N 72.4269 -1.23603 -0.977757 0
M  V30 754 C 73.8429 -0.999251 -1.24447 0
M  V30 755 C 74.0429 0.298053 -1.99283 0
M  V30 756 O 73.0989 1.01681 -2.31122 0
M  V30 757 C 74.4119 -2.20784 -2.04144 0
M  V30 758 C 75.9599 -2.25303 -2.17273 0
M  V30 759 C 76.4349 -3.45755 -3.00362 0
M  V30 760 N 77.9259 -3.4601 -3.07947 0
M  V30 761 C 78.6609 -4.35868 -3.72568 0
M  V30 762 N 78.1569 -5.35966 -4.38991 0
M  V30 763 N 79.9499 -4.23605 -3.6948 0
M  V30 764 H 72.1009 -2.06986 -0.476483 0
M  V30 765 H 74.3639 -0.907801 -0.273134 0
M  V30 766 H 74.0699 -3.14945 -1.56533 0
M  V30 767 H 73.9439 -2.22085 -3.04891 0
M  V30 768 H 76.3309 -1.3168 -2.64092 0
M  V30 769 H 76.4119 -2.28033 -1.15907 0
M  V30 770 H 76.0559 -4.39687 -2.5424 0
M  V30 771 H 75.9859 -3.40266 -4.01904 0
M  V30 772 H 78.4769 -2.73588 -2.60688 0
M  V30 773 H 78.7899 -6.00783 -4.86086 0
M  V30 774 H 77.1349 -5.39863 -4.37691 0
M  V30 775 H 80.3259 -3.44647 -3.16759 0
M  V30 776 H 80.4989 -4.93836 -4.1956 0
M  V30 777 N 73.905 1.17692 -1.04816 0
M  V30 778 C 75.182 1.83768 -0.669963 0
M  V30 779 C 75.562 1.93232 0.849986 0
M  V30 780 O 74.91 1.46397 1.75443 0
M  V30 781 C 75.12 3.21641 -1.35455 0
M  V30 782 C 76.468 3.97592 -1.49017 0
M  V30 783 O 77.492 3.31107 -1.31326 0
M  V30 784 O 76.351 5.16729 -1.77914 0
M  V30 785 H 73.445 0.792799 -0.235368 0
M  V30 786 H 75.991 1.25021 -1.14751 0
M  V30 787 H 74.763 3.097 -2.39168 0
M  V30 788 H 74.386 3.88052 -0.866107 0
M  V30 789 N 75.3831 0.828654 1.34056 0
M  V30 790 C 76.7991 0.515135 1.51058 0
M  V30 791 C 76.9991 -0.959581 1.77184 0
M  V30 792 O 76.0551 -1.74382 1.82612 0
M  V30 793 C 77.3681 1.37963 2.67183 0
M  V30 794 C 78.9161 1.37735 2.81066 0
M  V30 795 C 79.3911 2.22645 4.00241 0
M  V30 796 N 80.8821 2.203 4.07458 0
M  V30 797 C 81.6171 2.82744 4.98842 0
M  V30 798 N 81.1131 3.54201 5.9541 0
M  V30 799 N 82.9061 2.72268 4.91759 0
M  V30 800 H 75.0571 1.78343 1.15358 0
M  V30 801 H 77.3201 0.760304 0.566252 0
M  V30 802 H 77.0261 2.42714 2.54525 0
M  V30 803 H 76.9001 1.0484 3.62338 0
M  V30 804 H 79.2871 0.337593 2.93163 0
M  V30 805 H 79.3681 1.74859 1.86703 0
M  V30 806 H 79.0121 3.26674 3.88905 0
M  V30 807 H 78.9421 1.82869 4.93829 0
M  V30 808 H 81.4331 1.68327 3.38341 0
M  V30 809 H 81.7461 3.9908 6.61782 0
M  V30 810 H 80.0911 3.58308 5.95517 0
M  V30 811 H 83.2821 2.16014 4.15278 0
M  V30 812 H 83.4551 3.21219 5.62781 0
M  V30 813 N 76.8612 -1.46375 0.584142 0
M  V30 814 C 78.0862 -2.07268 0.0740405 0
M  V30 815 C 78.5112 -1.42979 -1.22223 0
M  V30 816 O 77.8692 -0.514092 -1.73859 0
M  V30 817 C 77.9172 -3.60518 -0.0767769 0
M  V30 818 O 77.0212 -3.96533 -1.13292 0
M  V30 819 H 76.3622 -0.660961 0.0634524 0
M  V30 820 H 78.8922 -1.87991 0.807492 0
M  V30 821 H 78.9022 -4.07021 -0.282489 0
M  V30 822 H 77.5772 -4.06702 0.86986 0
M  V30 823 H 76.1542 -3.61738 -0.905553 0
M  V30 824 N 78.3393 -0.321999 -1.54275 0
M  V30 825 C 79.6163 0.335232 -1.92706 0
M  V30 826 C 79.9963 1.70006 -1.25145 0
M  V30 827 O 79.3443 2.25067 -0.394596 0
M  V30 828 C 79.5543 0.429008 -3.46353 0
M  V30 829 C 80.9023 0.690029 -4.18956 0
M  V30 830 O 81.9263 0.511992 -3.52501 0
M  V30 831 O 80.7853 1.03338 -5.36641 0
M  V30 832 H 77.8793 0.191143 -0.804608 0
M  V30 833 H 80.4253 -0.3716 -1.65581 0
M  V30 834 H 79.1973 -0.529611 -3.87699 0
M  V30 835 H 78.8203 1.18348 -3.79578 0
M  V30 836 N 79.8174 1.5752 -0.0501392 0
M  V30 837 C 80.7494 2.08413 0.95376 0
M  V30 838 C 81.7624 1.01175 1.27544 0
M  V30 839 O 82.9514 1.28744 1.23641 0
M  V30 840 C 80.0514 2.51138 2.27559 0
M  V30 841 C 79.2244 3.817 2.13598 0
M  V30 842 C 78.2834 4.10749 3.28895 0
M  V30 843 O 77.3094 4.80685 3.04845 0
M  V30 844 N 78.5114 3.62579 4.5334 0
M  V30 845 H 81.2764 2.95165 0.519383 0
M  V30 846 H 78.8374 1.61327 0.136127 0
M  V30 847 H 80.8294 2.67648 3.03557 0
M  V30 848 H 79.3994 1.6964 2.62567 0
M  V30 849 H 78.6194 3.74782 1.22197 0
M  V30 850 H 79.9074 4.67201 2.01496 0
M  V30 851 H 79.3054 3.06039 4.75769 0
M  V30 852 H 77.8624 3.84329 5.26436 0
M  V30 853 N 81.2955 -0.223234 1.56011 0
M  V30 854 C 82.2455 -1.28008 1.88674 0
M  V30 855 C 83.2295 -1.42369 0.749663 0
M  V30 856 O 84.4215 -1.45212 1.01205 0
M  V30 857 C 81.5505 -2.63084 2.20548 0
M  V30 858 C 80.6365 -2.52632 3.40643 0
M  V30 859 N 81.0275 -2.11829 4.59306 0
M  V30 860 C 79.3255 -2.83594 3.44224 0
M  V30 861 C 80.0265 -2.12587 5.41463 0
M  V30 862 N 79.0025 -2.5301 4.81131 0
M  V30 863 H 82.8045 -0.955487 2.77935 0
M  V30 864 H 80.3185 -0.431801 1.56554 0
M  V30 865 H 82.3155 -3.39385 2.42122 0
M  V30 866 H 80.9755 -2.96391 1.32599 0
M  V30 867 H 81.9865 -1.82988 4.84496 0
M  V30 868 H 78.6635 -3.21284 2.66614 0
M  V30 869 H 80.0535 -1.83179 6.46448 0
M  V30 870 N 82.7736 -1.49793 -0.48987 0
M  V30 871 C 84.0226 -1.59085 -1.23995 0
M  V30 872 C 84.3356 -0.287907 -1.9347 0
M  V30 873 O 85.5416 -0.259506 -2.70257 0
M  V30 874 C 83.9976 -2.80736 -2.252 0
M  V30 875 C 83.6056 -4.17833 -1.61614 0
M  V30 876 C 85.3496 -2.99364 -3.00967 0
M  V30 877 C 83.2566 -5.30693 -2.60996 0
M  V30 878 H 82.1866 -0.592372 -0.466488 0
M  V30 879 H 84.8376 -1.76197 -0.51252 0
M  V30 880 H 83.2196 -2.57142 -3.01154 0
M  V30 881 H 84.3936 -4.51608 -0.915774 0
M  V30 882 H 82.7086 -4.04656 -0.981977 0
M  V30 883 H 85.3056 -3.80851 -3.75308 0
M  V30 884 H 85.6486 -2.10356 -3.59244 0
M  V30 885 H 86.1816 -3.2305 -2.32128 0
M  V30 886 H 82.9206 -6.21796 -2.07485 0
M  V30 887 H 82.4406 -5.01359 -3.2924 0
M  V30 888 H 84.1196 -5.6049 -3.23202 0
M  V30 889 N 84.2517 0.741722 -1.39055 0
M  V30 890 C 85.1837 1.8657 -1.33133 0
M  V30 891 C 86.1967 1.61001 -0.241329 0
M  V30 892 O 87.3857 1.7136 -0.499784 0
M  V30 893 C 84.4857 3.22457 -1.04283 0
M  V30 894 C 83.6587 3.75435 -2.24427 0
M  V30 895 C 82.7177 4.89867 -1.92138 0
M  V30 896 O 81.7437 5.03879 -2.64754 0
M  V30 897 N 82.9457 5.73738 -0.88347 0
M  V30 898 H 85.7107 1.92156 -2.29991 0
M  V30 899 H 83.2717 0.922172 -1.3307 0
M  V30 900 H 85.2637 3.9657 -0.807128 0
M  V30 901 H 83.8337 3.12181 -0.161807 0
M  V30 902 H 83.0537 2.92751 -2.6399 0
M  V30 903 H 84.3417 4.07563 -3.04581 0
M  V30 904 H 83.7397 5.64999 -0.281517 0
M  V30 905 H 82.2967 6.47947 -0.707662 0
M  V30 906 N 85.7298 1.2412 0.971189 0
M  V30 907 C 86.6598 1.05508 2.08304 0
M  V30 908 C 87.6408 -0.0308864 1.70072 0
M  V30 909 O 88.8258 0.135521 1.93727 0
M  V30 910 C 85.9558 0.655365 3.4106 0
M  V30 911 C 84.9098 1.68971 3.93234 0
M  V30 912 C 84.2358 1.14516 5.22293 0
M  V30 913 C 85.5358 3.08487 4.21465 0
M  V30 914 H 87.2298 1.98507 2.24132 0
M  V30 915 H 84.7758 0.955821 1.07704 0
M  V30 916 H 86.7288 0.51217 4.18276 0
M  V30 917 H 85.4528 -0.31032 3.25122 0
M  V30 918 H 84.1118 1.82106 3.18171 0
M  V30 919 H 83.7598 0.170189 5.02712 0
M  V30 920 H 83.4598 1.83635 5.58168 0
M  V30 921 H 84.9838 1.01401 6.02121 0
M  V30 922 H 86.3978 2.98601 4.89398 0
M  V30 923 H 84.7948 3.74926 4.68562 0
M  V30 924 H 85.8648 3.56787 3.28376 0
M  V30 925 N 87.2079 -1.17134 1.05439 0
M  V30 926 C 88.1399 -2.2078 0.615539 0
M  V30 927 C 89.1529 -1.59584 -0.322001 0
M  V30 928 O 90.3419 -1.78133 -0.114344 0
M  V30 929 C 87.4419 -3.38691 -0.118938 0
M  V30 930 C 86.6149 -4.29454 0.829924 0
M  V30 931 C 85.6739 -5.26024 0.136258 0
M  V30 932 O 84.6999 -5.63952 0.77115 0
M  V30 933 N 85.9019 -5.69487 -1.1254 0
M  V30 934 H 88.6669 -2.59052 1.50705 0
M  V30 935 H 86.2279 -1.32058 0.936603 0
M  V30 936 H 88.2199 -4.00329 -0.593179 0
M  V30 937 H 86.7899 -2.98996 -0.91215 0
M  V30 938 H 86.0099 -3.65211 1.48373 0
M  V30 939 H 87.2979 -4.86984 1.47392 0
M  V30 940 H 86.6959 -5.4075 -1.6615 0
M  V30 941 H 85.2529 -6.33257 -1.54366 0
M  V30 942 N 88.686 -0.835752 -1.33615 0
M  V30 943 C 89.616 -0.281739 -2.31794 0
M  V30 944 C 90.597 0.608833 -1.58831 0
M  V30 945 O 91.782 0.533035 -1.86741 0
M  V30 946 C 88.912 0.546612 -3.42971 0
M  V30 947 C 87.866 -0.247904 -4.27281 0
M  V30 948 C 87.192 0.704001 -5.30045 0
M  V30 949 C 88.492 -1.46324 -5.01385 0
M  V30 950 H 90.186 -1.10206 -2.78379 0
M  V30 951 H 87.732 -0.531388 -1.33837 0
M  V30 952 H 89.685 0.944467 -4.1068 0
M  V30 953 H 88.409 1.40011 -2.95067 0
M  V30 954 H 87.068 -0.627281 -3.61194 0
M  V30 955 H 86.716 1.55381 -4.78399 0
M  V30 956 H 86.416 0.176524 -5.87335 0
M  V30 957 H 87.94 1.09944 -6.0062 0
M  V30 958 H 89.354 -1.13871 -5.61877 0
M  V30 959 H 87.751 -1.92728 -5.6831 0
M  V30 960 H 88.821 -2.23467 -4.30338 0
M  V30 961 N 90.1641 1.46063 -0.591896 0
M  V30 962 C 91.3891 2.07226 -0.0850314 0
M  V30 963 C 91.8141 1.43625 1.21463 0
M  V30 964 O 91.1721 0.523305 1.73583 0
M  V30 965 C 91.2201 3.60554 0.0576567 0
M  V30 966 O 90.3241 3.97128 1.11188 0
M  V30 967 H 89.6651 0.660615 -0.0669568 0
M  V30 968 H 92.1951 1.8756 -0.81745 0
M  V30 969 H 92.2051 4.07165 0.2609 0
M  V30 970 H 90.8801 4.06235 -0.891416 0
M  V30 971 H 89.4571 3.62213 0.886356 0
M  V30 972 N 91.6422 0.330177 1.54103 0
M  V30 973 C 92.6052 -0.520144 2.2322 0
M  V30 974 C 93.6052 -1.03828 1.22786 0
M  V30 975 O 94.7952 -0.929652 1.4732 0
M  V30 976 C 91.9272 -1.72317 2.94142 0
M  V30 977 H 93.1202 0.0841605 2.99782 0
M  V30 978 H 90.6732 0.0813433 1.56088 0
M  V30 979 H 91.4082 -2.36653 2.21734 0
M  V30 980 H 91.1932 -1.35898 3.67796 0
M  V30 981 H 92.6832 -2.3266 3.46784 0
M  V30 982 N 93.1203 -1.57491 0.0584922 0
M  V30 983 C 94.0303 -2.15448 -0.928414 0
M  V30 984 C 95.0463 -1.11416 -1.3365 0
M  V30 985 O 96.2223 -1.4362 -1.41193 0
M  V30 986 C 93.2873 -2.69393 -2.18239 0
M  V30 987 C 92.3483 -3.88249 -1.83196 0
M  V30 988 C 91.5813 -4.39613 -3.02616 0
M  V30 989 O 91.8043 -3.90023 -4.16219 0
M  V30 990 O 90.7383 -5.31111 -2.83204 0
M  V30 991 H 94.5643 -3.00112 -0.465483 0
M  V30 992 H 92.1493 -1.48499 -0.163826 0
M  V30 993 H 94.0313 -3.04026 -2.91798 0
M  V30 994 H 92.7063 -1.87796 -2.63656 0
M  V30 995 H 91.6133 -3.58492 -1.06931 0
M  V30 996 H 92.9463 -4.71098 -1.42573 0
M  V30 997 N 94.5984 0.214957 -1.56127 0
M  V30 998 C 95.8234 0.95924 -1.83884 0
M  V30 999 C 96.2484 1.7689 -0.639644 0
M  V30 1000 O 95.6064 1.76566 0.411601 0
M  V30 1001 C 95.6544 1.84723 -3.09693 0
M  V30 1002 O 94.7584 2.94346 -2.8885 0
M  V30 1003 H 94.0994 0.27125 -0.606069 0
M  V30 1004 H 96.6294 0.226276 -2.03345 0
M  V30 1005 H 96.6394 2.25576 -3.39969 0
M  V30 1006 H 95.3144 1.25218 -3.96602 0
M  V30 1007 H 93.8914 2.57391 -2.69823 0
M  V30 1008 N 96.0765 1.50051 0.48192 0
M  V30 1009 C 97.3225 1.60736 1.2366 0
M  V30 1010 C 97.6555 0.301786 1.91841 0
M  V30 1011 O 96.9305 -0.696025 1.8162 0
M  V30 1012 C 97.2135 2.78009 2.28874 0
M  V30 1013 C 97.0665 4.18416 1.65069 0
M  V30 1014 C 98.3855 2.90867 3.30279 0
M  V30 1015 H 95.5045 0.585031 0.448228 0
M  V30 1016 H 98.1465 1.82402 0.531946 0
M  V30 1017 H 96.2965 2.59667 2.88973 0
M  V30 1018 H 97.9685 4.48322 1.0865 0
M  V30 1019 H 96.2115 4.23177 0.954148 0
M  V30 1020 H 96.8825 4.96381 2.41474 0
M  V30 1021 H 99.3585 3.07623 2.80191 0
M  V30 1022 H 98.2345 3.74566 4.01238 0
M  V30 1023 H 98.4955 2.01021 3.93755 0
M  V30 1024 N 97.5546 -0.734337 1.39446 0
M  V30 1025 C 98.8026 -1.49096 1.36436 0
M  V30 1026 C 99.1236 -1.94961 -0.0388255 0
M  V30 1027 O 98.3936 -1.69033 -0.990191 0
M  V30 1028 H 96.9736 -0.5531 0.502085 0
M  V30 1029 H 99.6356 -0.871725 1.74319 0
M  V30 1030 H 98.7316 -2.37276 2.02747 0
M  V30 1031 N 99.0327 -1.24633 -0.964593 0
M  V30 1032 C 99.9427 -1.05859 -2.09359 0
M  V30 1033 C 100.959 0.00148855 -1.74 0
M  V30 1034 O 102.135 -0.197346 -2.00431 0
M  V30 1035 C 99.1997 -0.668879 -3.40187 0
M  V30 1036 C 98.2607 -1.80578 -3.89474 0
M  V30 1037 C 97.4937 -1.43457 -5.14058 0
M  V30 1038 O 97.7167 -0.325775 -5.69469 0
M  V30 1039 O 96.6507 -2.2613 -5.57807 0
M  V30 1040 H 100.477 -2.00516 -2.28094 0
M  V30 1041 H 98.0617 -1.03481 -1.0776 0
M  V30 1042 H 99.9437 -0.463211 -4.18846 0
M  V30 1043 H 98.6187 0.248536 -3.22744 0
M  V30 1044 H 97.5257 -2.06623 -3.11862 0
M  V30 1045 H 98.8587 -2.70208 -4.11398 0
M  V30 1046 N 100.511 1.16574 -1.06058 0
M  V30 1047 C 101.757 1.87324 -0.777022 0
M  V30 1048 C 102.09 1.81351 0.694645 0
M  V30 1049 O 101.365 1.22753 1.50871 0
M  V30 1050 C 101.648 3.36991 -1.26922 0
M  V30 1051 C 101.501 3.51667 -2.80447 0
M  V30 1052 C 102.82 4.3131 -0.87521 0
M  V30 1053 H 99.9388 0.680191 -0.28374 0
M  V30 1054 H 102.581 1.37036 -1.3161 0
M  V30 1055 H 100.731 3.79949 -0.81063 0
M  V30 1056 H 102.403 3.17664 -3.34495 0
M  V30 1057 H 100.646 2.93656 -3.19294 0
M  V30 1058 H 101.317 4.56766 -3.0995 0
M  V30 1059 H 103.793 3.9624 -1.27014 0
M  V30 1060 H 102.669 5.34545 -1.2471 0
M  V30 1061 H 102.93 4.41552 0.220071 0
M  V30 1062 N 101.989 0.842826 1.3317 0
M  V30 1063 C 103.219 0.453397 2.01564 0
M  V30 1064 C 103.627 -0.951147 1.63554 0
M  V30 1065 O 102.97 -1.63021 0.846746 0
M  V30 1066 C 103.032 0.499013 3.5602 0
M  V30 1067 C 102.696 1.86037 4.1742 0
M  V30 1068 C 103.693 2.82416 4.36506 0
M  V30 1069 C 101.378 2.15428 4.53757 0
M  V30 1070 C 103.372 4.06346 4.91082 0
M  V30 1071 C 101.059 3.39615 5.0804 0
M  V30 1072 C 102.057 4.3489 5.26649 0
M  V30 1073 O 101.745 5.5688 5.79776 0
M  V30 1074 H 101.477 0.177871 0.652179 0
M  V30 1075 H 104.031 1.13808 1.70988 0
M  V30 1076 H 102.261 -0.242467 3.85939 0
M  V30 1077 H 103.95 0.126852 4.05702 0
M  V30 1078 H 104.716 2.6101 4.08777 0
M  V30 1079 H 100.595 1.42061 4.38565 0
M  V30 1080 H 104.139 4.80722 5.05522 0
M  V30 1081 H 100.036 3.60876 5.352 0
M  V30 1082 H 100.804 5.58674 5.98185 0
M  V30 1083 N 103.467 -1.45747 0.599634 0
M  V30 1084 C 104.716 -2.01502 0.0893511 0
M  V30 1085 C 105.029 -1.4748 -1.28488 0
M  V30 1086 O 106.235 -1.95161 -1.88745 0
M  V30 1087 C 104.691 -3.59735 0.109082 0
M  V30 1088 C 104.299 -4.22754 1.48267 0
M  V30 1089 C 106.043 -4.23085 -0.346374 0
M  V30 1090 C 103.95 -5.73115 1.45921 0
M  V30 1091 H 102.88 -0.753417 0.0296347 0
M  V30 1092 H 105.531 -1.67303 0.753788 0
M  V30 1093 H 103.913 -3.91087 -0.621854 0
M  V30 1094 H 105.087 -4.02987 2.23468 0
M  V30 1095 H 103.402 -3.71567 1.87955 0
M  V30 1096 H 105.999 -5.33327 -0.38298 0
M  V30 1097 H 106.342 -3.93201 -1.36743 0
M  V30 1098 H 106.875 -3.9642 0.331038 0
M  V30 1099 H 103.614 -6.07685 2.45762 0
M  V30 1100 H 103.134 -5.95097 0.749665 0
M  V30 1101 H 104.813 -6.3616 1.17941 0
M  V30 1102 N 104.945 -0.338344 -1.53925 0
M  V30 1103 C 105.892 0.520845 -2.24846 0
M  V30 1104 C 106.862 1.09976 -1.24477 0
M  V30 1105 O 108.047 1.13735 -1.53196 0
M  V30 1106 C 105.187 1.6685 -3.02084 0
M  V30 1107 C 104.3 1.11739 -4.17299 0
M  V30 1108 C 103.435 2.23193 -4.82036 0
M  V30 1109 C 102.474 1.65407 -5.89328 0
M  V30 1110 N 101.611 2.70582 -6.47866 0
M  V30 1111 H 106.451 -0.0904881 -2.97863 0
M  V30 1112 H 103.988 -0.0564282 -1.46992 0
M  V30 1113 H 105.946 2.34407 -3.45122 0
M  V30 1114 H 104.576 2.2509 -2.31375 0
M  V30 1115 H 103.628 0.332919 -3.7894 0
M  V30 1116 H 104.94 0.654677 -4.94485 0
M  V30 1117 H 104.094 2.98626 -5.28117 0
M  V30 1118 H 102.833 2.72807 -4.04262 0
M  V30 1119 H 101.838 0.884779 -5.42634 0
M  V30 1120 H 103.063 1.16652 -6.69006 0
M  V30 1121 H 101.009 3.1946 -5.72959 0
M  V30 1122 H 100.926 2.28917 -7.20509 0
M  V30 1123 H 102.194 3.45799 -6.98601 0
M  V30 1124 N 106.423 1.57458 -0.0668435 0
M  V30 1125 C 107.648 1.9804 0.616027 0
M  V30 1126 C 108.073 0.944771 1.62652 0
M  V30 1127 O 107.431 -0.0902094 1.81075 0
M  V30 1128 C 107.479 3.37665 1.26549 0
M  V30 1129 O 106.583 3.36701 2.38131 0
M  V30 1130 H 105.924 0.644719 0.158849 0
M  V30 1131 H 108.454 2.04121 -0.139891 0
M  V30 1132 H 108.464 3.7474 1.6135 0
M  V30 1133 H 107.139 4.12573 0.525016 0
M  V30 1134 H 105.716 3.1139 2.0516 0
M  V30 1135 N 107.901 -0.206675 1.56239 0
M  V30 1136 C 109.129 -0.945345 1.8404 0
M  V30 1137 C 109.544 -1.77336 0.647885 0
M  V30 1138 O 108.901 -1.78425 -0.383511 0
M  V30 1139 C 108.952 -1.8509 3.10522 0
M  V30 1140 O 108.673 -1.05634 4.25174 0
M  V30 1141 C 110.174 -2.70222 3.51418 0
M  V30 1142 H 107.394 -0.276372 0.61144 0
M  V30 1143 H 109.938 -0.217417 2.03341 0
M  V30 1144 H 108.093 -2.53259 2.93153 0
M  V30 1145 H 108.507 -1.67238 4.97124 0
M  V30 1146 H 109.981 -3.29438 4.42916 0
M  V30 1147 H 110.458 -3.43358 2.73864 0
M  V30 1148 H 111.064 -2.07443 3.71278 0
M  V30 1149 N 109.379 -1.50304 -0.473955 0
M  V30 1150 C 110.289 -1.7174 -1.5982 0
M  V30 1151 C 111.305 -0.600457 -1.63311 0
M  V30 1152 O 112.481 -0.878441 -1.81233 0
M  V30 1153 C 109.546 -1.80427 -2.96052 0
M  V30 1154 C 108.607 -3.04148 -3.02972 0
M  V30 1155 C 107.84 -3.12411 -4.32706 0
M  V30 1156 O 108.063 -2.27542 -5.23049 0
M  V30 1157 O 106.997 -4.05113 -4.45159 0
M  V30 1158 H 110.823 -2.67035 -1.44657 0
M  V30 1159 H 108.408 -1.34366 -0.653148 0
M  V30 1160 H 110.29 -1.88338 -3.7697 0
M  V30 1161 H 108.965 -0.883156 -3.11419 0
M  V30 1162 H 107.872 -3.0174 -2.21142 0
M  V30 1163 H 109.205 -3.95829 -2.92541 0
M  V30 1164 N 110.857 0.726932 -1.39834 0
M  V30 1165 C 112.085 1.51613 -1.40787 0
M  V30 1166 C 112.5 1.88799 -0.00451505 0
M  V30 1167 O 111.857 1.54662 0.968809 0
M  V30 1168 C 111.908 2.79863 -2.28821 0
M  V30 1169 O 111.629 2.44253 -3.63692 0
M  V30 1170 C 113.13 3.73837 -2.38245 0
M  V30 1171 H 110.35 0.468264 -0.480593 0
M  V30 1172 H 112.894 0.897607 -1.83748 0
M  V30 1173 H 111.049 3.38027 -1.89252 0
M  V30 1174 H 111.463 3.26695 -4.1033 0
M  V30 1175 H 112.937 4.60699 -3.04073 0
M  V30 1176 H 113.414 4.16153 -1.40403 0
M  V30 1177 H 114.02 3.21589 -2.78317 0
M  V30 1178 N 112.336 1.25143 0.95797 0
M  V30 1179 C 113.584 1.09476 1.69881 0
M  V30 1180 C 113.905 -0.365502 1.91544 0
M  V30 1181 O 113.175 -1.25985 1.50015 0
M  V30 1182 H 111.755 0.402128 0.629525 0
M  V30 1183 H 114.417 1.57214 1.15194 0
M  V30 1184 H 113.513 1.60046 2.6794 0
M  V30 1185 N 113.814 -1.1601 1.06675 0
M  V30 1186 C 114.746 -2.20115 0.638921 0
M  V30 1187 C 115.759 -1.59916 -0.305057 0
M  V30 1188 O 116.948 -1.78245 -0.0954446 0
M  V30 1189 C 114.048 -3.38798 -0.0830083 0
M  V30 1190 C 113.221 -4.2855 0.875426 0
M  V30 1191 C 112.28 -5.25849 0.192042 0
M  V30 1192 O 111.306 -5.63102 0.830921 0
M  V30 1193 N 112.508 -5.70648 -1.06493 0
M  V30 1194 H 115.273 -2.57439 1.53444 0
M  V30 1195 H 112.834 -1.31057 0.950557 0
M  V30 1196 H 114.826 -4.00936 -0.550685 0
M  V30 1197 H 113.396 -2.99947 -0.880386 0
M  V30 1198 H 112.616 -3.63617 1.52238 0
M  V30 1199 H 113.904 -4.85393 1.52548 0
M  V30 1200 H 113.302 -5.42482 -1.60405 0
M  V30 1201 H 111.859 -6.34859 -1.47641 0
M  V30 1202 N 115.292 -0.849877 -1.32721 0
M  V30 1203 C 116.522 -0.46408 -2.0132 0
M  V30 1204 C 116.93 0.94246 -1.64056 0
M  V30 1205 O 116.273 1.6257 -0.855379 0
M  V30 1206 C 116.335 -0.517887 -3.5575 0
M  V30 1207 C 115.999 -1.88248 -4.16427 0
M  V30 1208 C 116.996 -2.84726 -4.35002 0
M  V30 1209 C 114.681 -2.17832 -4.52609 0
M  V30 1210 C 116.675 -4.08945 -4.8892 0
M  V30 1211 C 114.362 -3.42304 -5.06232 0
M  V30 1212 C 115.36 -4.37677 -5.24335 0
M  V30 1213 O 115.048 -5.59946 -5.76815 0
M  V30 1214 H 114.78 -0.181327 -0.651227 0
M  V30 1215 H 117.334 -1.14713 -1.70382 0
M  V30 1216 H 115.564 0.221997 -3.86062 0
M  V30 1217 H 117.253 -0.148366 -4.05629 0
M  V30 1218 H 118.019 -2.63174 -4.07388 0
M  V30 1219 H 113.898 -1.44385 -4.37806 0
M  V30 1220 H 117.442 -4.83396 -5.02966 0
M  V30 1221 H 113.339 -3.63709 -5.33278 0
M  V30 1222 H 114.107 -5.61838 -5.95214 0
M  V30 1223 N 116.77 1.45427 -0.607355 0
M  V30 1224 C 117.7 2.3329 0.0989352 0
M  V30 1225 C 118.681 1.46816 0.859007 0
M  V30 1226 O 119.866 1.75588 0.829604 0
M  V30 1227 C 116.996 3.29518 1.09705 0
M  V30 1228 C 115.95 4.25626 0.450206 0
M  V30 1229 C 115.276 5.11542 1.55655 0
M  V30 1230 C 116.576 5.18505 -0.628455 0
M  V30 1231 H 118.27 2.92595 -0.634716 0
M  V30 1232 H 115.816 1.40696 -0.306681 0
M  V30 1233 H 117.769 3.89855 1.59971 0
M  V30 1234 H 116.493 2.68372 1.86129 0
M  V30 1235 H 115.152 3.66586 -0.0315886 0
M  V30 1236 H 114.8 4.46765 2.31107 0
M  V30 1237 H 114.5 5.76647 1.12925 0
M  V30 1238 H 116.024 5.74748 2.06148 0
M  V30 1239 H 117.438 5.72916 -0.209877 0
M  V30 1240 H 115.835 5.92085 -0.977489 0
M  V30 1241 H 116.905 4.60948 -1.50514 0
M  V30 1242 N 118.248 0.346503 1.53744 0
M  V30 1243 C 119.211 -0.496439 2.23759 0
M  V30 1244 C 120.211 -1.0252 1.2388 0
M  V30 1245 O 121.401 -0.913974 1.48297 0
M  V30 1246 C 118.533 -1.69187 2.95954 0
M  V30 1247 H 119.726 0.115952 2.99676 0
M  V30 1248 H 117.279 0.0978939 1.55993 0
M  V30 1249 H 118.014 -2.34288 2.24231 0
M  V30 1250 H 117.799 -1.31989 3.69217 0
M  V30 1251 H 119.289 -2.28969 3.49232 0
M  V30 1252 N 119.726 -1.57421 0.075193 0
M  V30 1253 C 120.659 -2.08528 -0.926904 0
M  V30 1254 C 121.637 -0.991171 -1.28898 0
M  V30 1255 O 122.821 -1.26479 -1.39769 0
M  V30 1256 C 119.948 -2.54576 -2.23402 0
M  V30 1257 C 118.994 -3.75454 -2.02327 0
M  V30 1258 S 119.827 -5.19989 -1.27951 0
M  V30 1259 C 120.983 -5.69372 -2.59935 0
M  V30 1260 H 121.216 -2.932 -0.492048 0
M  V30 1261 H 118.749 -1.53785 -0.137651 0
M  V30 1262 H 120.707 -2.81767 -2.98526 0
M  V30 1263 H 119.368 -1.70166 -2.64012 0
M  V30 1264 H 118.561 -4.05675 -2.99071 0
M  V30 1265 H 118.163 -3.48654 -1.35339 0
M  V30 1266 H 120.455 -5.76424 -3.56008 0
M  V30 1267 H 121.398 -6.68207 -2.34319 0
M  V30 1268 H 121.806 -4.97205 -2.67296 0
M  V30 1269 N 121.204 0.198386 -1.56346 0
M  V30 1270 C 122.481 0.944982 -1.71258 0
M  V30 1271 C 122.861 2.0151 -0.629048 0
M  V30 1272 O 122.209 2.25639 0.360473 0
M  V30 1273 C 122.419 1.5344 -3.1346 0
M  V30 1274 C 123.767 2.01778 -3.73591 0
M  V30 1275 O 124.791 1.63288 -3.16568 0
M  V30 1276 O 123.65 2.72594 -4.73661 0
M  V30 1277 H 120.744 0.442939 -0.69838 0
M  V30 1278 H 123.29 0.188342 -1.68652 0
M  V30 1279 H 122.062 0.762869 -3.83792 0
M  V30 1280 H 121.685 2.35596 -3.20282 0
M  V30 1281 N 122.682 1.50554 0.465978 0
M  V30 1282 C 123.91 1.65563 1.24083 0
M  V30 1283 C 124.325 0.341051 1.85694 0
M  V30 1284 O 123.682 -0.677543 1.69457 0
M  V30 1285 C 123.733 2.75051 2.34583 0
M  V30 1286 O 123.454 4.01413 1.75497 0
M  V30 1287 C 124.955 3.01078 3.25372 0
M  V30 1288 H 122.175 0.55638 0.375077 0
M  V30 1289 H 124.719 1.96807 0.555624 0
M  V30 1290 H 122.874 2.46486 2.9887 0
M  V30 1291 H 123.288 4.62002 2.48303 0
M  V30 1292 H 124.762 3.81339 3.99105 0
M  V30 1293 H 125.239 2.12349 3.84453 0
M  V30 1294 H 125.845 3.31194 2.66816 0
M  V30 1295 N 124.16 -0.719506 1.40217 0
M  V30 1296 C 125.437 -1.47221 1.28784 0
M  V30 1297 C 125.817 -2.10883 -0.0956067 0
M  V30 1298 O 125.165 -1.99833 -1.10811 0
M  V30 1299 C 125.375 -2.5111 2.42373 0
M  V30 1300 C 126.723 -3.17053 2.82423 0
M  V30 1301 O 127.747 -2.61429 2.41937 0
M  V30 1302 O 126.606 -4.17742 3.52355 0
M  V30 1303 H 123.7 -0.654491 0.50554 0
M  V30 1304 H 126.246 -0.752014 1.52128 0
M  V30 1305 H 125.018 -2.02556 3.34793 0
M  V30 1306 H 124.641 -3.3067 2.20778 0
M  V30 1307 N 125.638 -1.25649 -0.95132 0
M  V30 1308 C 126.886 -1.10375 -1.69298 0
M  V30 1309 C 127.207 0.355339 -1.91735 0
M  V30 1310 O 126.477 1.25188 -1.50681 0
M  V30 1311 H 125.057 -0.405461 -0.627384 0
M  V30 1312 H 127.719 -1.57823 -1.14358 0
M  V30 1313 H 126.815 -1.61465 -2.67087 0
M  V30 1314 N 127.117 1.15442 -1.07289 0
M  V30 1315 C 128.047 2.22312 -0.714107 0
M  V30 1316 C 129.028 1.67467 0.298155 0
M  V30 1317 O 130.213 1.93445 0.171048 0
M  V30 1318 C 127.343 3.47124 -0.110448 0
M  V30 1319 C 126.297 4.14926 -1.04979 0
M  V30 1320 C 125.623 5.33807 -0.308924 0
M  V30 1321 C 126.923 4.64762 -2.38314 0
M  V30 1322 H 128.617 2.5258 -1.6076 0
M  V30 1323 H 126.163 1.21404 -0.77441 0
M  V30 1324 H 128.116 4.21124 0.152482 0
M  V30 1325 H 126.84 3.16187 0.81812 0
M  V30 1326 H 125.499 3.42866 -1.29764 0
M  V30 1327 H 125.147 4.99126 0.623084 0
M  V30 1328 H 124.847 5.80113 -0.935036 0
M  V30 1329 H 126.371 6.10576 -0.0537771 0
M  V30 1330 H 127.785 5.30292 -2.1786 0
M  V30 1331 H 126.182 5.21728 -2.96514 0
M  V30 1332 H 127.252 3.80434 -3.00663 0
M  V30 1333 N 128.595 0.856903 1.32268 0
M  V30 1334 C 129.525 0.31858 2.31316 0
M  V30 1335 C 130.506 -0.583487 1.59779 0
M  V30 1336 O 131.691 -0.503259 1.87566 0
M  V30 1337 C 128.821 -0.491979 3.43798 0
M  V30 1338 C 127.775 0.315849 4.26833 0
M  V30 1339 C 127.101 -0.619586 5.31098 0
M  V30 1340 C 128.401 1.54282 4.98993 0
M  V30 1341 H 130.095 1.14621 2.76591 0
M  V30 1342 H 127.641 0.552613 1.32974 0
M  V30 1343 H 129.594 -0.879012 4.1213 0
M  V30 1344 H 128.318 -1.35299 2.97257 0
M  V30 1345 H 126.977 0.684664 3.6015 0
M  V30 1346 H 126.625 -1.47751 4.8081 0
M  V30 1347 H 126.325 -0.0830621 5.87541 0
M  V30 1348 H 127.849 -1.00375 6.02293 0
M  V30 1349 H 129.263 1.22796 5.59995 0
M  V30 1350 H 127.66 2.01745 5.65172 0
M  V30 1351 H 128.73 2.30285 4.26728 0
M  V30 1352 N 130.073 -1.45103 0.615059 0
M  V30 1353 C 131.303 -2.06254 0.119596 0
M  V30 1354 C 131.711 -1.4591 -1.20445 0
M  V30 1355 O 131.054 -0.570384 -1.7462 0
M  V30 1356 C 131.116 -3.59396 -0.0865591 0
M  V30 1357 C 130.78 -4.42116 1.15683 0
M  V30 1358 C 131.777 -4.7662 2.07676 0
M  V30 1359 C 129.462 -4.82749 1.38775 0
M  V30 1360 C 131.456 -5.50622 3.21082 0
M  V30 1361 C 129.143 -5.56504 2.52481 0
M  V30 1362 C 130.141 -5.90358 3.43463 0
M  V30 1363 O 129.829 -6.62615 4.55189 0
M  V30 1364 H 129.561 -0.672423 0.0694512 0
M  V30 1365 H 132.115 -1.87219 0.844885 0
M  V30 1366 H 130.345 -3.76859 -0.866823 0
M  V30 1367 H 132.034 -4.02365 -0.534555 0
M  V30 1368 H 132.8 -4.4578 1.91063 0
M  V30 1369 H 128.679 -4.55829 0.688545 0
M  V30 1370 H 132.223 -5.76965 3.92119 0
M  V30 1371 H 128.12 -5.86759 2.69043 0
M  V30 1372 H 128.888 -6.81071 4.53966 0
M  V30 1373 N 131.551 -0.354651 -1.53558 0
M  V30 1374 C 132.799 0.237972 -2.00694 0
M  V30 1375 C 133.12 1.50173 -1.24391 0
M  V30 1376 O 132.39 1.92673 -0.354135 0
M  V30 1377 H 130.97 0.0909256 -0.741446 0
M  V30 1378 H 133.632 -0.478368 -1.88938 0
M  V30 1379 H 132.728 0.47264 -3.085 0
M  V30 1380 N 133.029 1.57378 -0.0835403 0
M  V30 1381 C 134.254 1.98682 0.594987 0
M  V30 1382 C 134.679 0.961969 1.61641 0
M  V30 1383 O 134.037 -0.0709989 1.81161 0
M  V30 1384 C 134.085 3.38988 1.2296 0
M  V30 1385 O 133.189 3.39208 2.34546 0
M  V30 1386 H 132.53 0.646368 0.152002 0
M  V30 1387 H 135.06 2.03961 -0.161533 0
M  V30 1388 H 135.07 3.76431 1.57366 0
M  V30 1389 H 133.745 4.13107 0.481228 0
M  V30 1390 H 132.322 3.13548 2.01846 0
M  V30 1391 N 134.507 -0.190092 1.56449 0
M  V30 1392 C 135.439 -1.25973 1.91477 0
M  V30 1393 C 136.452 -1.41452 0.805931 0
M  V30 1394 O 137.641 -1.41789 1.08435 0
M  V30 1395 C 134.741 -2.63117 2.13594 0
M  V30 1396 C 133.914 -2.69182 3.4476 0
M  V30 1397 C 132.973 -3.87557 3.5593 0
M  V30 1398 O 131.999 -3.74427 4.28711 0
M  V30 1399 N 133.201 -5.03224 2.89388 0
M  V30 1400 H 135.966 -0.962394 2.83828 0
M  V30 1401 H 133.527 -0.379981 1.57378 0
M  V30 1402 H 135.519 -3.40742 2.1835 0
M  V30 1403 H 134.089 -2.85319 1.27719 0
M  V30 1404 H 133.309 -1.77793 3.51828 0
M  V30 1405 H 134.597 -2.70229 4.31107 0
M  V30 1406 H 133.995 -5.16791 2.30094 0
M  V30 1407 H 132.552 -5.78778 2.99764 0
M  V30 1408 N 135.985 -1.50799 -0.457987 0
M  V30 1409 C 137.213 -1.66218 -1.23203 0
M  V30 1410 C 137.628 -0.350894 -1.85511 0
M  V30 1411 O 136.985 0.668546 -1.69814 0
M  V30 1412 C 137.036 -2.76291 -2.33121 0
M  V30 1413 O 136.757 -4.02338 -1.73366 0
M  V30 1414 C 138.258 -3.028 -3.2377 0
M  V30 1415 H 135.478 -0.558361 -0.372121 0
M  V30 1416 H 138.022 -1.97099 -0.545179 0
M  V30 1417 H 136.177 -2.48068 -2.97558 0
M  V30 1418 H 136.591 -4.63312 -2.4585 0
M  V30 1419 H 138.065 -3.8345 -3.97077 0
M  V30 1420 H 138.542 -2.14385 -3.83322 0
M  V30 1421 H 139.148 -3.32604 -2.65056 0
M  V30 1422 N 137.463 0.71206 -1.40597 0
M  V30 1423 C 138.874 1.29135 -1.34837 0
M  V30 1424 C 139.225 1.96186 -0.0235395 0
M  V30 1425 O 138.35 1.97768 0.878444 0
M  V30 1426 C 138.945 2.34827 -2.44217 0
M  V30 1427 C 137.504 2.88371 -2.41907 0
M  V30 1428 C 136.651 1.62202 -2.24913 0
M  V30 1429 H 139.602 0.507944 -1.50352 0
M  V30 1430 H 139.623 3.15749 -2.12327 0
M  V30 1431 H 139.135 1.85996 -3.40627 0
M  V30 1432 H 137.236 3.41422 -1.49204 0
M  V30 1433 H 137.349 3.39925 -3.37621 0
M  V30 1434 H 135.713 1.874 -1.72492 0
M  V30 1435 H 136.496 1.15391 -3.23326 0
M  V30 1436 N 138.941 1.26152 0.944643 0
M  V30 1437 C 139.889 1.07215 2.06417 0
M  V30 1438 C 140.883 9.2007e-05 1.694 0
M  V30 1439 O 142.089 0.1565 1.79318 0
M  V30 1440 H 138.464 0.329837 0.675805 0
M  V30 1441 H 140.435 2.02099 2.19541 0
M  V30 1442 C 139.184 0.718197 3.40202 0
M  V30 1443 H 138.507 1.53497 3.69159 0
M  V30 1444 H 139.947 0.625459 4.19361 0
M  V30 1445 C 138.406 -0.576435 3.31932 0
M  V30 1446 O 138.936 -1.61574 3.67773 0
M  V30 1447 N 137.142 -0.565781 2.85039 0
M  V30 1448 H 136.689 0.280367 2.5607 0
M  V30 1449 H 136.647 -1.43213 2.79888 0
M  V30 1450 N 140.419 -1.14872 1.07899 0
M  V30 1451 C 141.329 -2.2341 0.715915 0
M  V30 1452 C 142.345 -1.71808 -0.275306 0
M  V30 1453 O 143.521 -2.01039 -0.120545 0
M  V30 1454 C 140.586 -3.46474 0.125168 0
M  V30 1455 C 139.647 -4.13039 1.17034 0
M  V30 1456 C 138.88 -5.30229 0.607688 0
M  V30 1457 O 139.103 -5.675 -0.574497 0
M  V30 1458 O 138.037 -5.86444 1.35526 0
M  V30 1459 H 141.863 -2.56808 1.62121 0
M  V30 1460 H 139.448 -1.22702 0.852322 0
M  V30 1461 H 141.33 -4.20917 -0.201729 0
M  V30 1462 H 140.005 -3.14811 -0.753364 0
M  V30 1463 H 138.912 -3.40493 1.54968 0
M  V30 1464 H 140.245 -4.48796 2.02097 0
M  V30 1465 N 141.898 -0.863906 -1.31812 0
M  V30 1466 C 142.808 -0.318461 -2.32428 0
M  V30 1467 C 143.824 0.568496 -1.64451 0
M  V30 1468 O 145 0.46666 -1.95919 0
M  V30 1469 C 142.065 0.476355 -3.43412 0
M  V30 1470 C 141.126 -0.43784 -4.27061 0
M  V30 1471 C 140.359 0.319138 -5.32745 0
M  V30 1472 O 140.582 1.54799 -5.48993 0
M  V30 1473 O 139.516 -0.319861 -6.01049 0
M  V30 1474 H 143.342 -1.15229 -2.80991 0
M  V30 1475 H 140.927 -0.627103 -1.35602 0
M  V30 1476 H 142.809 0.927156 -4.11074 0
M  V30 1477 H 141.484 1.28683 -2.97022 0
M  V30 1478 H 140.391 -0.937013 -3.62175 0
M  V30 1479 H 141.724 -1.21375 -4.77 0
M  V30 1480 N 143.376 1.44774 -0.622745 0
M  V30 1481 C 144.616 2.04004 -0.127102 0
M  V30 1482 C 144.98 1.47862 1.22478 0
M  V30 1483 O 146.181 1.98541 1.81204 0
M  V30 1484 C 144.452 3.57247 -0.104429 0
M  V30 1485 S 146.011 4.37574 0.327814 0
M  V30 1486 H 142.829 0.708713 -0.0569776 0
M  V30 1487 H 145.431 1.77275 -0.824253 0
M  V30 1488 H 144.135 3.95616 -1.09159 0
M  V30 1489 H 143.666 3.88575 0.614236 0
M  V30 1490 H 145.681 4.70575 1.57395 0
M  V30 1491 N 144.854 0.36279 1.53368 0
M  V30 1492 C 145.784 -0.476976 2.28576 0
M  V30 1493 C 146.765 -1.08631 1.30894 0
M  V30 1494 O 147.95 -1.10409 1.59761 0
M  V30 1495 C 145.08 -1.61828 3.07293 0
M  V30 1496 C 144.034 -1.13633 4.1264 0
M  V30 1497 C 143.36 -2.36766 4.79423 0
M  V30 1498 C 144.66 -0.223061 5.21823 0
M  V30 1499 H 146.354 0.150474 2.99022 0
M  V30 1500 H 143.9 0.0738103 1.43811 0
M  V30 1501 H 145.853 -2.21237 3.58653 0
M  V30 1502 H 144.577 -2.27292 2.34533 0
M  V30 1503 H 143.236 -0.564945 3.62221 0
M  V30 1504 H 142.884 -3.0068 4.03238 0
M  V30 1505 H 142.584 -2.05192 5.50609 0
M  V30 1506 H 144.108 -2.96865 5.33576 0
M  V30 1507 H 145.522 -0.724545 5.68703 0
M  V30 1508 H 143.919 0.001678 6.001 0
M  V30 1509 H 144.989 0.735553 4.79289 0
M  V30 1510 N 146.332 -1.57332 0.0918853 0
M  V30 1511 C 147.579 -1.94236 -0.572577 0
M  V30 1512 C 147.907 -0.973398 -1.6839 0
M  V30 1513 O 147.162 0.00756912 -1.95699 0
M  V30 1514 C 147.461 -3.37689 -1.17051 0
M  V30 1515 C 147.127 -4.50527 -0.183304 0
M  V30 1516 C 145.789 -4.81119 0.0882276 0
M  V30 1517 C 148.141 -5.18883 0.49095 0
M  V30 1518 C 145.469 -5.77395 1.04076 0
M  V30 1519 C 147.821 -6.1618 1.43193 0
M  V30 1520 C 146.485 -6.45179 1.71173 0
M  V30 1521 H 145.755 -0.710762 -0.209521 0
M  V30 1522 H 148.402 -1.9077 0.167036 0
M  V30 1523 H 146.707 -3.37718 -1.9863 0
M  V30 1524 H 148.404 -3.63543 -1.69227 0
M  V30 1525 H 144.994 -4.26681 -0.405124 0
M  V30 1526 H 149.178 -4.95427 0.294312 0
M  V30 1527 H 144.434 -5.98179 1.26457 0
M  V30 1528 H 148.608 -6.68243 1.96023 0
M  V30 1529 H 146.235 -7.1959 2.4514 0
M  V30 1530 N 147.81 0.181792 -1.56548 0
M  V30 1531 C 148.74 1.22765 -1.98623 0
M  V30 1532 C 149.721 1.46747 -0.860189 0
M  V30 1533 O 150.906 1.58259 -1.12551 0
M  V30 1534 C 148.036 2.56894 -2.33715 0
M  V30 1535 C 146.99 2.475 -3.49182 0
M  V30 1536 C 146.316 3.86023 -3.69986 0
M  V30 1537 C 147.616 1.98866 -4.82959 0
M  V30 1538 H 149.31 0.877942 -2.86239 0
M  V30 1539 H 146.856 0.42088 -1.37712 0
M  V30 1540 H 148.809 3.30253 -2.61746 0
M  V30 1541 H 147.533 2.93632 -1.42997 0
M  V30 1542 H 146.192 1.76596 -3.21262 0
M  V30 1543 H 145.84 4.20136 -2.76576 0
M  V30 1544 H 145.54 3.80609 -4.47672 0
M  V30 1545 H 147.064 4.60984 -4.00407 0
M  V30 1546 H 148.478 2.61992 -5.09934 0
M  V30 1547 H 146.875 2.04424 -5.64208 0
M  V30 1548 H 147.945 0.942465 -4.75653 0
M  V30 1549 N 149.288 1.51039 0.449983 0
M  V30 1550 C 150.198 1.74261 1.57067 0
M  V30 1551 C 151.214 0.626363 1.62335 0
M  V30 1552 O 152.39 0.907162 1.79812 0
M  V30 1553 C 149.455 1.85114 2.93144 0
M  V30 1554 C 148.516 3.0893 2.98095 0
M  V30 1555 C 147.749 3.19256 4.27681 0
M  V30 1556 O 147.972 2.35835 5.19363 0
M  V30 1557 O 146.906 4.12144 4.38658 0
M  V30 1558 H 150.732 2.69303 1.40391 0
M  V30 1559 H 148.317 1.35389 0.631688 0
M  V30 1560 H 150.199 1.94311 3.73926 0
M  V30 1561 H 148.874 0.932588 3.09975 0
M  V30 1562 H 147.781 3.0522 2.16314 0
M  V30 1563 H 149.114 4.00433 2.86206 0
M  V30 1564 N 150.766 -0.704594 1.40972 0
M  V30 1565 C 152.182 -1.01406 1.23244 0
M  V30 1566 C 152.382 -2.01169 0.115399 0
M  V30 1567 O 151.438 -2.47021 -0.523147 0
M  V30 1568 C 152.751 -1.54728 2.57836 0
M  V30 1569 C 154.299 -1.66658 2.64942 0
M  V30 1570 C 154.774 -2.23383 3.9983 0
M  V30 1571 N 156.265 -2.30756 4.01629 0
M  V30 1572 C 157 -2.75655 5.02794 0
M  V30 1573 N 156.496 -3.20225 6.14352 0
M  V30 1574 N 158.289 -2.75138 4.90159 0
M  V30 1575 H 150.44 -0.0435285 2.12355 0
M  V30 1576 H 152.703 -0.0818951 0.944456 0
M  V30 1577 H 152.409 -0.888832 3.40283 0
M  V30 1578 H 152.283 -2.53084 2.79693 0
M  V30 1579 H 154.67 -2.31617 1.8286 0
M  V30 1580 H 154.751 -0.668717 2.46904 0
M  V30 1581 H 154.395 -1.59043 4.82357 0
M  V30 1582 H 154.325 -3.23904 4.15203 0
M  V30 1583 H 156.816 -1.99291 3.21079 0
M  V30 1584 H 157.129 -3.53084 6.87424 0
M  V30 1585 H 155.474 -3.18156 6.17901 0
M  V30 1586 H 158.665 -2.39661 4.02095 0
M  V30 1587 H 158.838 -3.09812 5.6914 0
M  V30 1588 N 152.244 -1.26651 -0.937939 0
M  V30 1589 C 153.174 -1.10993 -2.05433 0
M  V30 1590 C 154.155 -0.0142161 -1.70094 0
M  V30 1591 O 155.34 -0.186837 -1.93299 0
M  V30 1592 C 152.47 -0.745561 -3.39203 0
M  V30 1593 C 151.424 -1.79337 -3.88616 0
M  V30 1594 C 150.75 -1.28324 -5.19073 0
M  V30 1595 C 152.05 -3.19553 -4.13138 0
M  V30 1596 H 153.744 -2.0438 -2.1879 0
M  V30 1597 H 151.29 -0.984041 -1.05131 0
M  V30 1598 H 153.243 -0.622888 -4.16771 0
M  V30 1599 H 151.967 0.22401 -3.25831 0
M  V30 1600 H 150.626 -1.90477 -3.13231 0
M  V30 1601 H 150.274 -0.303414 -5.02084 0
M  V30 1602 H 149.974 -1.98369 -5.53103 0
M  V30 1603 H 151.498 -1.1733 -5.99221 0
M  V30 1604 H 152.912 -3.11471 -4.81309 0
M  V30 1605 H 151.309 -3.87218 -4.58457 0
M  V30 1606 H 152.379 -3.65368 -3.18801 0
M  V30 1607 N 153.722 1.14298 -1.08507 0
M  V30 1608 C 154.632 2.23027 -0.727753 0
M  V30 1609 C 155.648 1.71952 0.26619 0
M  V30 1610 O 156.824 2.011 0.109882 0
M  V30 1611 C 153.889 3.46403 -0.143541 0
M  V30 1612 C 152.95 4.12413 -1.19223 0
M  V30 1613 C 152.183 5.29899 -0.635798 0
M  V30 1614 O 152.406 5.67796 0.544393 0
M  V30 1615 O 151.34 5.85717 -1.38634 0
M  V30 1616 H 155.166 2.55945 -1.63481 0
M  V30 1617 H 152.751 1.22248 -0.858817 0
M  V30 1618 H 154.633 4.21018 0.179404 0
M  V30 1619 H 153.308 3.15206 0.736659 0
M  V30 1620 H 152.215 3.39667 -1.56772 0
M  V30 1621 H 153.548 4.47718 -2.04474 0
M  V30 1622 N 155.201 0.870884 1.31352 0
M  V30 1623 C 156.111 0.330783 2.32256 0
M  V30 1624 C 157.127 -0.559767 1.6475 0
M  V30 1625 O 158.303 -0.456263 1.96164 0
M  V30 1626 C 155.368 -0.458137 3.4366 0
M  V30 1627 C 154.429 0.460482 4.26823 0
M  V30 1628 C 153.662 -0.290881 5.32907 0
M  V30 1629 O 153.885 -1.51885 5.49806 0
M  V30 1630 O 152.819 0.351732 6.00871 0
M  V30 1631 H 156.645 1.16718 2.80376 0
M  V30 1632 H 154.23 0.634285 1.35267 0
M  V30 1633 H 156.112 -0.905343 4.1156 0
M  V30 1634 H 154.787 -1.27106 2.97701 0
M  V30 1635 H 153.694 0.956207 3.61673 0
M  V30 1636 H 155.027 1.23903 4.7635 0
M  V30 1637 N 156.679 -1.44442 0.630414 0
M  V30 1638 C 157.627 -2.32437 -0.0871428 0
M  V30 1639 C 158.621 -1.47304 -0.836525 0
M  V30 1640 O 159.827 -1.63653 -0.749506 0
M  V30 1641 H 156.202 -0.750533 -0.0469495 0
M  V30 1642 H 158.173 -2.90709 0.673096 0
M  V30 1643 C 156.922 -3.31288 -1.05563 0
M  V30 1644 H 156.245 -3.96805 -0.488426 0
M  V30 1645 H 157.685 -3.9554 -1.52721 0
M  V30 1646 C 156.144 -2.6016 -2.14052 0
M  V30 1647 O 156.674 -2.39997 -3.22124 0
M  V30 1648 N 154.88 -2.19911 -1.89967 0
M  V30 1649 H 154.427 -2.36509 -1.02085 0
M  V30 1650 H 154.385 -1.72646 -2.62756 0
M  V30 1651 N 158.157 -0.370918 -1.53173 0
M  V30 1652 C 159.107 0.489588 -2.22681 0
M  V30 1653 C 160.091 1.04442 -1.22395 0
M  V30 1654 O 161.283 0.973578 -1.47819 0
M  V30 1655 C 158.412 1.626 -3.02351 0
M  V30 1656 C 157.498 1.08379 -4.10018 0
M  V30 1657 N 157.889 0.265004 -5.05105 0
M  V30 1658 C 156.187 1.35809 -4.2482 0
M  V30 1659 C 156.888 -0.0324755 -5.81691 0
M  V30 1660 N 155.864 0.566581 -5.40639 0
M  V30 1661 H 159.666 -0.142729 -2.93553 0
M  V30 1662 H 157.18 -0.179221 -1.61408 0
M  V30 1663 H 159.177 2.2547 -3.50669 0
M  V30 1664 H 157.837 2.26132 -2.33011 0
M  V30 1665 H 158.848 -0.0962352 -5.17811 0
M  V30 1666 H 155.525 1.9958 -3.66707 0
M  V30 1667 H 156.915 -0.69473 -6.68299 0
M  V30 1668 N 159.635 1.57281 -0.100228 0
M  V30 1669 C 160.865 1.98591 0.569681 0
M  V30 1670 C 161.273 0.978315 1.61943 0
M  V30 1671 O 160.616 -0.0396108 1.83657 0
M  V30 1672 C 160.678 3.36282 1.271 0
M  V30 1673 C 160.342 4.55488 0.371409 0
M  V30 1674 C 161.339 5.18491 -0.382504 0
M  V30 1675 C 159.024 5.01474 0.287965 0
M  V30 1676 C 161.018 6.25852 -1.20779 0
M  V30 1677 C 158.705 6.08701 -0.540965 0
M  V30 1678 C 159.703 6.70755 -1.28749 0
M  V30 1679 O 159.391 7.75914 -2.10269 0
M  V30 1680 H 159.123 0.65752 0.156982 0
M  V30 1681 H 161.677 2.0463 -0.177734 0
M  V30 1682 H 159.907 3.26941 2.0651 0
M  V30 1683 H 161.596 3.62005 1.83595 0
M  V30 1684 H 162.362 4.83891 -0.3278 0
M  V30 1685 H 158.241 4.52932 0.858689 0
M  V30 1686 H 161.785 6.74218 -1.79096 0
M  V30 1687 H 157.682 6.42732 -0.597131 0
M  V30 1688 H 158.45 7.92925 -2.03007 0
M  V30 1689 N 161.113 -0.173488 1.56642 0
M  V30 1690 C 162.061 -1.23417 1.97157 0
M  V30 1691 C 163.055 -1.45946 0.860013 0
M  V30 1692 O 164.261 -1.46551 1.04512 0
M  V30 1693 H 160.636 -0.414818 0.62724 0
M  V30 1694 H 162.607 -0.865582 2.8557 0
M  V30 1695 C 161.356 -2.5665 2.34576 0
M  V30 1696 H 160.679 -2.40137 3.19647 0
M  V30 1697 H 162.119 -3.2956 2.6677 0
M  V30 1698 C 160.578 -3.15245 1.18836 0
M  V30 1699 O 161.108 -3.98883 0.474869 0
M  V30 1700 N 159.314 -2.74303 0.959497 0
M  V30 1701 H 158.861 -2.0639 1.54146 0
M  V30 1702 H 158.819 -3.13844 0.186932 0
M  V30 1703 N 162.591 -1.51276 -0.441967 0
M  V30 1704 C 163.819 -1.67516 -1.21434 0
M  V30 1705 C 164.234 -0.37055 -1.85128 0
M  V30 1706 O 163.591 0.650498 -1.70513 0
M  V30 1707 C 163.642 -2.78748 -2.30177 0
M  V30 1708 O 163.363 -4.04154 -1.69089 0
M  V30 1709 C 164.864 -3.06217 -3.20541 0
M  V30 1710 H 162.084 -0.562276 -0.366178 0
M  V30 1711 H 164.628 -1.97666 -0.524244 0
M  V30 1712 H 162.783 -2.5121 -2.94911 0
M  V30 1713 H 163.197 -4.65894 -2.40922 0
M  V30 1714 H 164.671 -3.8764 -3.92987 0
M  V30 1715 H 165.148 -2.18439 -3.81026 0
M  V30 1716 H 165.754 -3.35397 -2.61513 0
M  V30 1717 N 164.069 0.697108 -1.41344 0
M  V30 1718 C 165.299 1.48377 -1.43763 0
M  V30 1719 C 165.707 1.89156 -0.0408726 0
M  V30 1720 O 165.05 1.57239 0.949812 0
M  V30 1721 C 165.112 2.7781 -2.2817 0
M  V30 1722 C 164.776 2.59244 -3.76353 0
M  V30 1723 C 165.773 2.25292 -4.68551 0
M  V30 1724 C 163.458 2.74933 -4.20378 0
M  V30 1725 C 165.452 2.07264 -6.02761 0
M  V30 1726 C 163.139 2.56521 -5.54653 0
M  V30 1727 C 164.137 2.22737 -6.4566 0
M  V30 1728 O 163.825 2.04485 -7.77458 0
M  V30 1729 H 163.557 0.463842 -0.491759 0
M  V30 1730 H 166.111 0.865934 -1.86255 0
M  V30 1731 H 164.341 3.41995 -1.8049 0
M  V30 1732 H 166.03 3.39608 -2.22309 0
M  V30 1733 H 166.796 2.12787 -4.35829 0
M  V30 1734 H 162.675 3.00213 -3.49848 0
M  V30 1735 H 166.219 1.80817 -6.73759 0
M  V30 1736 H 162.116 2.68616 -5.86955 0
M  V30 1737 H 162.884 2.1926 -7.88586 0
M  V30 1738 N 165.547 1.27147 0.931209 0
M  V30 1739 C 166.796 1.12664 1.67302 0
M  V30 1740 C 167.109 -0.327718 1.92835 0
M  V30 1741 O 168.315 -0.593392 2.64936 0
M  V30 1742 C 166.771 1.9683 3.01307 0
M  V30 1743 C 166.379 3.46901 2.83485 0
M  V30 1744 C 168.123 1.90985 3.79111 0
M  V30 1745 C 166.03 4.23279 4.13024 0
M  V30 1746 H 164.96 0.41803 0.627509 0
M  V30 1747 H 167.611 1.51539 1.03481 0
M  V30 1748 H 165.993 1.50797 3.66164 0
M  V30 1749 H 167.167 4.00773 2.27415 0
M  V30 1750 H 165.482 3.54088 2.19113 0
M  V30 1751 H 168.079 2.45328 4.75098 0
M  V30 1752 H 168.422 0.882718 4.06834 0
M  V30 1753 H 168.955 2.34895 3.21044 0
M  V30 1754 H 165.694 5.26503 3.90481 0
M  V30 1755 H 165.214 3.74186 4.6877 0
M  V30 1756 H 166.893 4.32265 4.81411 0
M  V30 1757 N 167.025 -1.13721 1.09112 0
M  V30 1758 C 168.25 -1.89314 0.847053 0
M  V30 1759 C 168.675 -1.78416 -0.595774 0
M  V30 1760 O 168.033 -1.12942 -1.41823 0
M  V30 1761 C 168.081 -3.3701 1.28284 0
M  V30 1762 O 167.185 -4.10054 0.439267 0
M  V30 1763 H 166.526 -0.588745 0.307044 0
M  V30 1764 H 169.056 -1.43902 1.45442 0
M  V30 1765 H 169.066 -3.87834 1.26683 0
M  V30 1766 H 167.741 -3.4426 2.33363 0
M  V30 1767 H 166.318 -3.69266 0.519312 0
M  V30 1768 N 168.503 -0.877838 -1.30888 0
M  V30 1769 C 169.45 -0.337538 -2.28318 0
M  V30 1770 C 170.42 0.568346 -1.56074 0
M  V30 1771 O 171.605 0.498298 -1.84178 0
M  V30 1772 C 168.745 0.448142 -3.42178 0
M  V30 1773 C 167.858 -0.48615 -4.29256 0
M  V30 1774 C 166.993 0.314427 -5.30269 0
M  V30 1775 C 166.032 -0.615791 -6.08995 0
M  V30 1776 N 165.169 0.14902 -7.01942 0
M  V30 1777 H 170.009 -1.17356 -2.73919 0
M  V30 1778 H 167.546 -0.590094 -1.34745 0
M  V30 1779 H 169.504 0.919517 -4.06941 0
M  V30 1780 H 168.134 1.24879 -2.97666 0
M  V30 1781 H 167.186 -1.076 -3.64865 0
M  V30 1782 H 168.498 -1.19909 -4.84173 0
M  V30 1783 H 167.652 0.847969 -6.00745 0
M  V30 1784 H 166.391 1.06062 -4.76027 0
M  V30 1785 H 165.396 -1.16102 -5.37401 0
M  V30 1786 H 166.621 -1.36097 -6.65323 0
M  V30 1787 H 164.567 0.877884 -6.50099 0
M  V30 1788 H 164.484 -0.504433 -7.54315 0
M  V30 1789 H 165.752 0.663537 -7.76671 0
M  V30 1790 N 169.982 1.44106 -0.638065 0
M  V30 1791 C 170.929 2.30715 0.062701 0
M  V30 1792 C 171.899 1.43882 0.829883 0
M  V30 1793 O 173.084 1.72775 0.809532 0
M  V30 1794 C 170.224 3.29258 1.03358 0
M  V30 1795 C 169.337 4.31192 0.26409 0
M  V30 1796 C 168.472 5.16825 1.22741 0
M  V30 1797 C 167.511 6.10462 0.447475 0
M  V30 1798 N 166.648 6.8877 1.36161 0
M  V30 1799 H 171.488 2.90096 -0.681781 0
M  V30 1800 H 169.025 1.42925 -0.347988 0
M  V30 1801 H 170.983 3.84886 1.60992 0
M  V30 1802 H 169.613 2.71562 1.74511 0
M  V30 1803 H 168.665 3.77981 -0.428295 0
M  V30 1804 H 169.977 4.97619 -0.343052 0
M  V30 1805 H 169.131 5.77004 1.87487 0
M  V30 1806 H 167.87 4.50488 1.86847 0
M  V30 1807 H 166.875 5.49386 -0.213433 0
M  V30 1808 H 168.1 6.78837 -0.188968 0
M  V30 1809 H 166.046 6.25096 1.98975 0
M  V30 1810 H 165.963 7.51663 0.808656 0
M  V30 1811 H 167.231 7.53467 1.99769 0
M  V30 1812 N 171.46 0.379036 1.52974 0
M  V30 1813 C 172.41 -0.477772 2.22938 0
M  V30 1814 C 173.394 -1.03792 1.22948 0
M  V30 1815 O 174.586 -0.965725 1.48333 0
M  V30 1816 C 171.715 -1.60994 3.03209 0
M  V30 1817 C 170.801 -1.06203 4.10587 0
M  V30 1818 N 171.192 -0.238214 5.05239 0
M  V30 1819 C 169.49 -1.33554 4.25534 0
M  V30 1820 C 170.191 0.0633235 5.81666 0
M  V30 1821 N 169.167 -0.537901 5.40932 0
M  V30 1822 H 172.969 0.158295 2.93473 0
M  V30 1823 H 170.483 0.187778 1.61311 0
M  V30 1824 H 172.48 -2.23607 3.5186 0
M  V30 1825 H 171.14 -2.24893 2.34207 0
M  V30 1826 H 172.151 0.123695 5.17752 0
M  V30 1827 H 168.828 -1.97632 3.6776 0
M  V30 1828 H 170.218 0.730161 6.67921 0
M  V30 1829 N 172.938 -1.57226 0.108567 0
M  V30 1830 C 173.901 -2.13602 -0.831082 0
M  V30 1831 C 174.901 -1.06841 -1.20173 0
M  V30 1832 O 176.091 -1.32666 -1.12895 0
M  V30 1833 C 173.223 -2.66769 -2.12243 0
M  V30 1834 H 174.416 -2.97951 -0.341317 0
M  V30 1835 H 171.969 -1.55667 -0.14057 0
M  V30 1836 H 172.704 -1.85977 -2.65675 0
M  V30 1837 H 172.489 -3.44839 -1.86625 0
M  V30 1838 H 173.979 -3.10332 -2.79435 0
M  V30 1839 N 174.416 0.165178 -1.56732 0
M  V30 1840 C 175.326 1.22423 -2.00125 0
M  V30 1841 C 176.342 1.48084 -0.913619 0
M  V30 1842 O 177.518 1.60112 -1.22172 0
M  V30 1843 C 174.583 2.54197 -2.35764 0
M  V30 1844 C 173.644 2.36343 -3.58386 0
M  V30 1845 C 172.877 3.61834 -3.92316 0
M  V30 1846 O 173.1 4.67267 -3.27135 0
M  V30 1847 O 172.034 3.55579 -4.85641 0
M  V30 1848 H 175.86 0.885886 -2.90492 0
M  V30 1849 H 173.445 0.372518 -1.44681 0
M  V30 1850 H 175.327 3.3192 -2.59629 0
M  V30 1851 H 174.002 2.87598 -1.48557 0
M  V30 1852 H 172.909 1.56632 -3.39731 0
M  V30 1853 H 174.242 2.07865 -4.46154 0
M  V30 1854 N 175.894 1.51508 0.433938 0
M  V30 1855 C 176.841 1.73068 1.52696 0
M  V30 1856 C 177.811 0.572441 1.55924 0
M  V30 1857 O 178.996 0.807253 1.72882 0
M  V30 1858 C 176.136 1.86474 2.90381 0
M  V30 1859 C 175.249 3.14037 2.96656 0
M  V30 1860 C 174.384 3.18019 4.25485 0
M  V30 1861 C 173.423 4.39882 4.2564 0
M  V30 1862 N 172.56 4.41394 5.45999 0
M  V30 1863 H 177.4 2.66366 1.33615 0
M  V30 1864 H 174.937 1.32008 0.649018 0
M  V30 1865 H 176.895 1.92229 3.70275 0
M  V30 1866 H 175.525 0.965809 3.08013 0
M  V30 1867 H 174.577 3.17575 2.09404 0
M  V30 1868 H 175.889 4.0394 2.92633 0
M  V30 1869 H 175.043 3.22708 5.13755 0
M  V30 1870 H 173.782 2.2601 4.3217 0
M  V30 1871 H 172.787 4.35366 3.35763 0
M  V30 1872 H 174.012 5.33159 4.20617 0
M  V30 1873 H 171.958 3.52258 5.53399 0
M  V30 1874 H 171.875 5.25111 5.4387 0
M  V30 1875 H 173.143 4.50281 6.36292 0
M  V30 1876 N 177.372 -0.689602 1.41712 0
M  V30 1877 C 178.32 -1.82475 1.44242 0
M  V30 1878 C 179.314 -1.66354 0.319774 0
M  V30 1879 O 180.52 -1.73143 0.492089 0
M  V30 1880 H 176.895 -0.601416 0.451445 0
M  V30 1881 H 178.866 -1.77458 2.39899 0
M  V30 1882 C 177.615 -3.20535 1.3473 0
M  V30 1883 H 176.938 -3.33559 2.20405 0
M  V30 1884 H 178.378 -4.00023 1.40562 0
M  V30 1885 C 176.837 -3.36846 0.0603281 0
M  V30 1886 O 177.367 -3.91656 -0.892663 0
M  V30 1887 N 175.573 -2.90595 -0.0177039 0
M  V30 1888 H 175.12 -2.46178 0.758572 0
M  V30 1889 H 175.078 -3.01886 -0.878201 0
M  V30 1890 N 178.85 -1.27639 -0.924453 0
M  V30 1891 C 180.096 -1.15345 -1.67532 0
M  V30 1892 C 180.451 0.297096 -1.90092 0
M  V30 1893 O 179.744 1.21374 -1.48253 0
M  V30 1894 C 179.938 -1.87407 -3.04325 0
M  V30 1895 C 179.767 -3.3932 -2.95114 0
M  V30 1896 C 178.537 -4.08644 -2.97218 0
M  V30 1897 C 180.735 -4.35242 -2.73987 0
M  V30 1898 N 178.717 -5.47102 -2.78482 0
M  V30 1899 C 180.088 -5.6099 -2.63988 0
M  V30 1900 C 182.143 -4.25294 -2.589 0
M  V30 1901 C 180.846 -6.77924 -2.40442 0
M  V30 1902 C 182.872 -5.41952 -2.36731 0
M  V30 1903 C 182.234 -6.66658 -2.27478 0
M  V30 1904 H 178.333 -0.47696 -0.619704 0
M  V30 1905 H 180.917 -1.6115 -1.09265 0
M  V30 1906 H 179.088 -1.44053 -3.60699 0
M  V30 1907 H 180.82 -1.6759 -3.68369 0
M  V30 1908 H 177.575 -3.60136 -3.07569 0
M  V30 1909 H 177.999 -6.19852 -2.72236 0
M  V30 1910 H 182.641 -3.29598 -2.64811 0
M  V30 1911 H 180.359 -7.73699 -2.3327 0
M  V30 1912 H 183.945 -5.36137 -2.25938 0
M  V30 1913 H 182.825 -7.55405 -2.10555 0
M  V30 1914 N 180.328 1.1314 -1.09713 0
M  V30 1915 C 181.575 1.84484 -0.834987 0
M  V30 1916 C 181.903 1.83689 0.639418 0
M  V30 1917 O 181.158 1.2724 1.4869 0
M  V30 1918 C 181.457 3.32167 -1.3191 0
M  V30 1919 C 181.123 3.53139 -2.80363 0
M  V30 1920 C 179.785 3.58571 -3.20905 0
M  V30 1921 C 182.137 3.60866 -3.76065 0
M  V30 1922 C 179.465 3.69267 -4.55916 0
M  V30 1923 C 181.817 3.73089 -5.10869 0
M  V30 1924 C 180.481 3.76775 -5.50996 0
M  V30 1925 H 179.751 0.675073 -0.305544 0
M  V30 1926 H 182.398 1.33554 -1.37243 0
M  V30 1927 H 180.703 3.85469 -0.701517 0
M  V30 1928 H 182.4 3.85821 -1.09284 0
M  V30 1929 H 178.99 3.49569 -2.47991 0
M  V30 1930 H 183.174 3.55946 -3.45855 0
M  V30 1931 H 178.43 3.70388 -4.86438 0
M  V30 1932 H 182.604 3.78011 -5.84877 0
M  V30 1933 H 180.231 3.84815 -6.55608 0
M  V30 1934 N 181.806 0.884767 1.30421 0
M  V30 1935 C 183.052 0.503851 1.96441 0
M  V30 1936 C 183.385 -0.944518 1.69684 0
M  V30 1937 O 182.66 -1.66737 1.00145 0
M  V30 1938 C 182.943 0.779085 3.51571 0
M  V30 1939 C 182.796 2.27807 3.87846 0
M  V30 1940 C 184.115 0.255452 4.39358 0
M  V30 1941 H 181.234 0.184533 0.713524 0
M  V30 1942 H 183.876 1.10872 1.54297 0
M  V30 1943 H 182.026 0.264274 3.876 0
M  V30 1944 H 183.698 2.86127 3.61841 0
M  V30 1945 H 181.941 2.74479 3.35922 0
M  V30 1946 H 182.612 2.42125 4.96064 0
M  V30 1947 H 185.088 0.696079 4.10236 0
M  V30 1948 H 183.964 0.477361 5.4682 0
M  V30 1949 H 184.225 -0.843293 4.33983 0
M  V30 1950 N 183.284 -1.43765 0.645699 0
M  V30 1951 C 184.532 -2.01499 0.155731 0
M  V30 1952 C 184.853 -1.51151 -1.232 0
M  V30 1953 O 184.123 -0.721044 -1.82148 0
M  V30 1954 H 182.703 -0.745003 0.0545817 0
M  V30 1955 H 185.365 -1.76075 0.835677 0
M  V30 1956 H 184.461 -3.1181 0.134577 0
M  V30 1957 N 184.763 -0.387143 -1.52771 0
M  V30 1958 C 185.693 0.440551 -2.29306 0
M  V30 1959 C 186.674 1.06535 -1.32606 0
M  V30 1960 O 187.859 1.07853 -1.61497 0
M  V30 1961 C 184.989 1.56919 -3.09829 0
M  V30 1962 C 183.943 1.07054 -4.14395 0
M  V30 1963 C 183.269 2.29109 -4.83129 0
M  V30 1964 C 184.569 0.140015 -5.22112 0
M  V30 1965 H 186.263 -0.198026 -2.98744 0
M  V30 1966 H 183.809 -0.09668 -1.43675 0
M  V30 1967 H 185.762 2.15503 -3.62128 0
M  V30 1968 H 184.486 2.23532 -2.3812 0
M  V30 1969 H 183.145 0.507247 -3.63074 0
M  V30 1970 H 182.793 2.94227 -4.0797 0
M  V30 1971 H 182.493 1.96406 -5.53804 0
M  V30 1972 H 184.017 2.88339 -5.38231 0
M  V30 1973 H 185.431 0.633978 -5.69784 0
M  V30 1974 H 183.828 -0.0971485 -6.00021 0
M  V30 1975 H 184.898 -0.811711 -4.78058 0
M  V30 1976 N 186.241 1.57166 -0.116904 0
M  V30 1977 C 187.188 2.15202 0.83408 0
M  V30 1978 C 188.158 1.07644 1.26499 0
M  V30 1979 O 189.343 1.35541 1.34288 0
M  V30 1980 C 186.483 2.75405 2.07957 0
M  V30 1981 C 185.596 3.97264 1.69721 0
M  V30 1982 C 184.731 4.45561 2.89221 0
M  V30 1983 C 183.77 5.59956 2.47215 0
M  V30 1984 N 182.907 6.03006 3.59622 0
M  V30 1985 H 187.747 2.96141 0.332335 0
M  V30 1986 H 185.284 1.46309 0.152349 0
M  V30 1987 H 187.242 3.08439 2.80929 0
M  V30 1988 H 185.872 1.97159 2.55594 0
M  V30 1989 H 184.924 3.70404 0.866316 0
M  V30 1990 H 186.236 4.80226 1.34849 0
M  V30 1991 H 185.39 4.80493 3.7042 0
M  V30 1992 H 184.129 3.61544 3.27318 0
M  V30 1993 H 183.134 5.2463 1.64448 0
M  V30 1994 H 184.359 6.45738 2.10238 0
M  V30 1995 H 182.305 5.21931 3.97396 0
M  V30 1996 H 182.222 6.80819 3.28667 0
M  V30 1997 H 183.49 6.42576 4.41267 0
M  V30 1998 N 187.719 -0.156864 1.56817 0
M  V30 1999 C 188.666 -1.19394 1.97519 0
M  V30 2000 C 189.636 -1.4322 0.841265 0
M  V30 2001 O 190.821 -1.55719 1.10255 0
M  V30 2002 C 187.961 -2.52483 2.35258 0
M  V30 2003 C 187.074 -2.35914 3.61896 0
M  V30 2004 C 186.209 -3.61969 3.88782 0
M  V30 2005 C 185.248 -3.40395 5.08722 0
M  V30 2006 N 184.385 -4.58556 5.31668 0
M  V30 2007 H 189.225 -0.839845 2.85921 0
M  V30 2008 H 186.762 -0.403264 1.41464 0
M  V30 2009 H 188.72 -3.30071 2.55165 0
M  V30 2010 H 187.35 -2.85859 1.49949 0
M  V30 2011 H 186.402 -1.49429 3.49821 0
M  V30 2012 H 187.714 -2.15926 4.49641 0
M  V30 2013 H 186.868 -4.47989 4.09135 0
M  V30 2014 H 185.607 -3.84951 2.9944 0
M  V30 2015 H 184.612 -2.52763 4.88253 0
M  V30 2016 H 185.837 -3.18822 5.99608 0
M  V30 2017 H 183.783 -4.81729 4.45279 0
M  V30 2018 H 183.7 -4.41535 6.13664 0
M  V30 2019 H 184.968 -5.45817 5.5651 0
M  V30 2020 N 189.197 -1.51736 -0.425897 0
M  V30 2021 C 190.145 -1.74464 -1.53834 0
M  V30 2022 C 191.139 -0.611241 -1.57988 0
M  V30 2023 O 192.345 -0.792899 -1.61596 0
M  V30 2024 H 188.72 -0.551437 -0.511293 0
M  V30 2025 H 190.691 -2.67694 -1.31843 0
M  V30 2026 C 189.44 -1.8972 -2.91379 0
M  V30 2027 H 188.763 -2.76344 -2.88919 0
M  V30 2028 H 190.203 -2.09629 -3.68553 0
M  V30 2029 C 188.662 -0.65992 -3.30374 0
M  V30 2030 O 189.192 0.180083 -4.01296 0
M  V30 2031 N 187.398 -0.500677 -2.86254 0
M  V30 2032 H 186.945 -1.18532 -2.28709 0
M  V30 2033 H 186.903 0.325903 -3.12706 0
M  V30 2034 N 190.675 0.682077 -1.42076 0
M  V30 2035 C 191.923 1.4393 -1.41876 0
M  V30 2036 C 192.244 1.94971 -0.0335599 0
M  V30 2037 O 191.514 1.72591 0.926773 0
M  V30 2038 H 190.094 0.534085 -0.522267 0
M  V30 2039 H 192.756 0.806427 -1.77434 0
M  V30 2040 H 191.852 2.29588 -2.11414 0
M  V30 2041 N 192.153 1.28127 0.917671 0
M  V30 2042 C 193.378 1.18007 1.70555 0
M  V30 2043 C 193.803 -0.258257 1.86319 0
M  V30 2044 O 193.161 -1.1869 1.37049 0
M  V30 2045 C 193.209 1.87948 3.07746 0
M  V30 2046 O 192.313 1.18427 3.9503 0
M  V30 2047 H 191.654 0.409867 0.522403 0
M  V30 2048 H 194.184 1.69379 1.1477 0
M  V30 2049 H 194.194 1.95701 3.58001 0
M  V30 2050 H 192.869 2.92573 2.95591 0
M  V30 2051 H 191.446 1.18811 3.53466 0
M  V30 2052 N 193.631 -1.12557 1.10312 0
M  V30 2053 C 194.871 -1.8568 0.854543 0
M  V30 2054 C 195.235 -1.82091 -0.608843 0
M  V30 2055 O 196.436 -2.50544 -0.973717 0
M  V30 2056 C 194.707 -3.2942 1.38626 0
M  V30 2057 S 196.266 -4.19931 1.27293 0
M  V30 2058 H 193.084 -0.640427 0.308827 0
M  V30 2059 H 195.686 -1.35599 1.40831 0
M  V30 2060 H 194.39 -3.2959 2.44537 0
M  V30 2061 H 193.921 -3.84566 0.82902 0
M  V30 2062 H 195.936 -4.95668 0.229776 0
M  V30 2063 N 195.109 -0.891671 -1.2995 0
M  V30 2064 C 196.056 -0.361736 -2.27948 0
M  V30 2065 C 197.026 0.551761 -1.56668 0
M  V30 2066 O 198.211 0.478736 -1.84696 0
M  V30 2067 C 195.351 0.411825 -3.42634 0
M  V30 2068 C 194.464 -0.531651 -4.28716 0
M  V30 2069 C 193.599 0.258167 -5.30572 0
M  V30 2070 C 192.638 -0.680349 -6.08307 0
M  V30 2071 N 191.775 0.0745613 -7.0206 0
M  V30 2072 H 196.615 -1.20254 -2.72659 0
M  V30 2073 H 194.152 -0.604352 -1.34112 0
M  V30 2074 H 196.11 0.876304 -4.07893 0
M  V30 2075 H 194.74 1.21715 -2.98974 0
M  V30 2076 H 193.792 -1.11463 -3.63703 0
M  V30 2077 H 195.104 -1.25038 -4.82874 0
M  V30 2078 H 194.258 0.784204 -6.0161 0
M  V30 2079 H 192.997 1.01008 -4.77126 0
M  V30 2080 H 192.002 -1.21796 -5.3614 0
M  V30 2081 H 193.227 -1.43145 -6.63842 0
M  V30 2082 H 191.173 0.808883 -6.50994 0
M  V30 2083 H 191.09 -0.584409 -7.53738 0
M  V30 2084 H 192.358 0.581123 -7.77331 0
M  V30 2085 N 196.587 1.43421 -0.653314 0
M  V30 2086 C 198.003 1.56341 -0.320886 0
M  V30 2087 C 198.203 1.63696 1.17499 0
M  V30 2088 O 197.259 1.59208 1.95982 0
M  V30 2089 C 198.572 2.82424 -1.03233 0
M  V30 2090 C 200.12 2.96168 -1.01259 0
M  V30 2091 C 200.595 4.25084 -1.70492 0
M  V30 2092 N 202.086 4.31948 -1.67257 0
M  V30 2093 C 202.821 5.30466 -2.17701 0
M  V30 2094 N 202.317 6.35261 -2.76434 0
M  V30 2095 N 204.11 5.2212 -2.082 0
M  V30 2096 H 196.261 1.3689 -1.62403 0
M  V30 2097 H 198.524 0.657455 -0.682977 0
M  V30 2098 H 198.23 2.83053 -2.08744 0
M  V30 2099 H 198.104 3.72653 -0.583948 0
M  V30 2100 H 200.491 2.9508 0.0341235 0
M  V30 2101 H 200.572 2.07229 -1.49966 0
M  V30 2102 H 200.216 4.26932 -2.7512 0
M  V30 2103 H 200.146 5.1292 -1.19251 0
M  V30 2104 H 202.637 3.56838 -1.24398 0
M  V30 2105 H 202.95 7.06754 -3.12601 0
M  V30 2106 H 201.295 6.35884 -2.80495 0
M  V30 2107 H 204.486 4.39166 -1.62021 0
M  V30 2108 H 204.659 5.98739 -2.47822 0
M  V30 2109 N 198.065 0.39524 1.52563 0
M  V30 2110 C 199.313 -0.184678 2.01254 0
M  V30 2111 C 199.634 -1.46822 1.28329 0
M  V30 2112 O 198.904 -1.91666 0.405094 0
M  V30 2113 H 197.484 -0.0712355 0.743596 0
M  V30 2114 H 200.146 0.528293 1.87603 0
M  V30 2115 H 199.242 -0.390681 3.09645 0
M  V30 2116 N 199.544 -1.57102 0.125237 0
M  V30 2117 C 200.955 -1.82384 -0.399142 0
M  V30 2118 C 201.306 -1.04276 -1.66195 0
M  V30 2119 O 200.431 -0.281269 -2.14564 0
M  V30 2120 C 201.026 -3.30821 -0.730932 0
M  V30 2121 C 199.585 -3.56762 -1.19992 0
M  V30 2122 C 198.732 -2.7649 -0.211792 0
M  V30 2123 H 201.683 -1.54786 0.350277 0
M  V30 2124 H 201.704 -3.4579 -1.58775 0
M  V30 2125 H 201.216 -3.87643 0.188345 0
M  V30 2126 H 199.317 -3.05305 -2.13588 0
M  V30 2127 H 199.43 -4.65317 -1.14093 0
M  V30 2128 H 197.794 -2.4489 -0.700085 0
M  V30 2129 H 198.577 -3.36073 0.700691 0
M  V30 2130 N 201.022 0.148545 -1.56898 0
M  V30 2131 C 202.438 0.501131 -1.51528 0
M  V30 2132 C 202.638 1.83458 -0.833399 0
M  V30 2133 O 201.694 2.49259 -0.40328 0
M  V30 2134 C 203.007 0.512864 -2.96294 0
M  V30 2135 C 204.555 0.598487 -3.07225 0
M  V30 2136 C 205.03 0.640897 -4.53494 0
M  V30 2137 N 206.521 0.703163 -4.57832 0
M  V30 2138 C 207.256 0.756935 -5.68382 0
M  V30 2139 N 206.752 0.770147 -6.88506 0
M  V30 2140 N 208.545 0.797698 -5.56411 0
M  V30 2141 H 200.696 -0.725532 -1.99624 0
M  V30 2142 H 202.959 -0.264358 -0.910395 0
M  V30 2143 H 202.665 -0.398691 -3.49433 0
M  V30 2144 H 202.539 1.35133 -3.52163 0
M  V30 2145 H 204.926 1.50046 -2.54106 0
M  V30 2146 H 205.007 -0.267093 -2.54402 0
M  V30 2147 H 204.651 -0.256915 -5.0725 0
M  V30 2148 H 204.581 1.52295 -5.04097 0
M  V30 2149 H 207.072 0.700314 -3.71354 0
M  V30 2150 H 207.385 0.812983 -7.68512 0
M  V30 2151 H 205.73 0.738049 -6.9107 0
M  V30 2152 H 208.921 0.784535 -4.61479 0
M  V30 2153 H 209.094 0.83614 -6.42583 0
M  V30 2154 N 202.5 1.5196 0.417844 0
M  V30 2155 C 203.728 1.69426 1.18753 0
M  V30 2156 C 204.143 0.399955 1.84515 0
M  V30 2157 O 203.5 -0.623288 1.71527 0
M  V30 2158 C 203.551 2.82375 2.25714 0
M  V30 2159 O 203.272 4.06793 1.62638 0
M  V30 2160 C 204.773 3.11277 3.15628 0
M  V30 2161 H 201.993 0.568031 0.357186 0
M  V30 2162 H 204.537 1.98475 0.49273 0
M  V30 2163 H 202.692 2.5587 2.90877 0
M  V30 2164 H 203.106 4.69667 2.3348 0
M  V30 2165 H 204.58 3.93843 3.86771 0
M  V30 2166 H 205.057 2.24473 3.77503 0
M  V30 2167 H 205.663 3.39515 2.56144 0
M  V30 2168 N 203.978 -0.674533 1.42435 0
M  V30 2169 C 204.928 -1.7807 1.4239 0
M  V30 2170 C 205.912 -1.58169 0.295202 0
M  V30 2171 O 207.104 -1.68643 0.537449 0
M  V30 2172 C 204.233 -3.16532 1.32901 0
M  V30 2173 C 203.319 -3.42055 2.50717 0
M  V30 2174 N 203.71 -3.38162 3.76139 0
M  V30 2175 C 202.008 -3.72692 2.44983 0
M  V30 2176 C 202.709 -3.63177 4.54398 0
M  V30 2177 N 201.685 -3.83954 3.84812 0
M  V30 2178 H 205.487 -1.73454 2.37257 0
M  V30 2179 H 203.001 -0.875381 1.36788 0
M  V30 2180 H 204.998 -3.958 1.30951 0
M  V30 2181 H 203.658 -3.22345 0.390363 0
M  V30 2182 H 204.669 -3.18057 4.0873 0
M  V30 2183 H 201.346 -3.85749 1.59699 0
M  V30 2184 H 202.736 -3.66125 5.63384 0
M  V30 2185 N 205.456 -1.28612 -0.910864 0
M  V30 2186 C 206.686 -1.1862 -1.69153 0
M  V30 2187 C 207.094 0.257324 -1.87442 0
M  V30 2188 O 206.437 1.18543 -1.40332 0
M  V30 2189 C 206.499 -1.81606 -3.10257 0
M  V30 2190 C 206.163 -3.30864 -3.15243 0
M  V30 2191 C 207.16 -4.27256 -2.96223 0
M  V30 2192 C 204.845 -3.71871 -3.37664 0
M  V30 2193 C 206.839 -5.62631 -2.99541 0
M  V30 2194 C 204.526 -5.07371 -3.40614 0
M  V30 2195 C 205.524 -6.02561 -3.21573 0
M  V30 2196 O 205.212 -7.35589 -3.2429 0
M  V30 2197 H 204.944 -0.412633 -0.535453 0
M  V30 2198 H 207.498 -1.70306 -1.14827 0
M  V30 2199 H 205.728 -1.24418 -3.66138 0
M  V30 2200 H 207.417 -1.66092 -3.70362 0
M  V30 2201 H 208.183 -3.9691 -2.78725 0
M  V30 2202 H 204.062 -2.98241 -3.5153 0
M  V30 2203 H 207.606 -6.36907 -2.84597 0
M  V30 2204 H 203.503 -5.37366 -3.57642 0
M  V30 2205 H 204.271 -7.44252 -3.40633 0
M  V30 2206 N 206.934 1.1197 -1.10907 0
M  V30 2207 C 208.182 1.83225 -0.852819 0
M  V30 2208 C 208.503 1.84769 0.623341 0
M  V30 2209 O 207.773 1.3143 1.45269 0
M  V30 2210 H 206.353 0.67849 -0.312507 0
M  V30 2211 H 209.015 1.3556 -1.40033 0
M  V30 2212 H 208.111 2.87265 -1.22005 0
M  V30 2213 N 208.412 0.89855 1.29475 0
M  V30 2214 C 209.344 0.332726 2.26772 0
M  V30 2215 C 210.357 -0.520323 1.54261 0
M  V30 2216 O 211.546 -0.337668 1.75277 0
M  V30 2217 C 208.646 -0.544334 3.345 0
M  V30 2218 C 207.819 0.282728 4.36485 0
M  V30 2219 C 206.878 -0.526982 5.23555 0
M  V30 2220 O 205.904 0.0551165 5.69173 0
M  V30 2221 N 207.106 -1.83331 5.5079 0
M  V30 2222 H 209.871 1.16897 2.75962 0
M  V30 2223 H 207.432 0.762919 1.42798 0
M  V30 2224 H 209.424 -1.09239 3.89678 0
M  V30 2225 H 207.994 -1.28127 2.85136 0
M  V30 2226 H 207.214 1.01221 3.80983 0
M  V30 2227 H 208.502 0.84918 5.01664 0
M  V30 2228 H 207.9 -2.32898 5.15534 0
M  V30 2229 H 206.457 -2.32852 6.08788 0
M  V30 2230 N 209.89 -1.43072 0.660911 0
M  V30 2231 C 210.837 -2.30785 -0.0259884 0
M  V30 2232 C 211.807 -1.45184 -0.806888 0
M  V30 2233 O 212.992 -1.74041 -0.781943 0
M  V30 2234 C 210.132 -3.30861 -0.981067 0
M  V30 2235 C 209.245 -4.31558 -0.195458 0
M  V30 2236 C 208.38 -5.18712 -1.14503 0
M  V30 2237 C 207.419 -6.11097 -0.350299 0
M  V30 2238 N 206.556 -6.90849 -1.25186 0
M  V30 2239 H 211.396 -2.88975 0.727846 0
M  V30 2240 H 208.933 -1.42353 0.370682 0
M  V30 2241 H 210.891 -3.87399 -1.54849 0
M  V30 2242 H 209.521 -2.74304 -1.70169 0
M  V30 2243 H 208.573 -3.77252 0.488374 0
M  V30 2244 H 209.885 -4.9701 0.422176 0
M  V30 2245 H 209.039 -5.79914 -1.78284 0
M  V30 2246 H 207.778 -4.53404 -1.79656 0
M  V30 2247 H 206.783 -5.48976 0.300808 0
M  V30 2248 H 208.008 -6.7845 0.296941 0
M  V30 2249 H 205.954 -6.28182 -1.89005 0
M  V30 2250 H 205.871 -7.52854 -0.688971 0
M  V30 2251 H 207.139 -7.5655 -1.87757 0
M  V30 2252 N 211.368 -0.403325 -1.52352 0
M  V30 2253 C 212.331 0.413051 -2.25447 0
M  V30 2254 C 213.331 0.978513 -1.276 0
M  V30 2255 O 214.521 0.858305 -1.51587 0
M  V30 2256 C 211.653 1.58087 -3.02029 0
M  V30 2257 H 212.846 -0.227094 -2.99039 0
M  V30 2258 H 210.399 -0.155722 -1.55522 0
M  V30 2259 H 211.134 2.25804 -2.32772 0
M  V30 2260 H 210.919 1.18195 -3.73861 0
M  V30 2261 H 212.409 2.1585 -3.57489 0
M  V30 2262 N 212.846 1.57033 -0.133567 0
M  V30 2263 C 214.095 1.94861 0.520768 0
M  V30 2264 C 214.408 1.02012 1.66892 0
M  V30 2265 O 215.614 1.29365 2.38699 0
M  V30 2266 C 214.07 3.46362 0.977809 0
M  V30 2267 C 213.678 4.47773 -0.142674 0
M  V30 2268 C 215.422 3.93083 1.60269 0
M  V30 2269 C 213.329 5.90468 0.331883 0
M  V30 2270 H 212.259 0.727453 0.198315 0
M  V30 2271 H 214.91 1.82227 -0.215759 0
M  V30 2272 H 213.292 3.54282 1.7692 0
M  V30 2273 H 214.466 4.51536 -0.919317 0
M  V30 2274 H 212.781 4.10891 -0.675124 0
M  V30 2275 H 215.378 4.97121 1.96914 0
M  V30 2276 H 215.721 3.33876 2.48662 0
M  V30 2277 H 216.254 3.88025 0.876453 0
M  V30 2278 H 212.993 6.53463 -0.516341 0
M  V30 2279 H 212.513 5.90094 1.07469 0
M  V30 2280 H 214.192 6.42179 0.788332 0
M  V30 2281 N 214.325 -0.140222 1.56975 0
M  V30 2282 C 215.255 -1.17456 2.01808 0
M  V30 2283 C 216.236 -1.44415 0.898794 0
M  V30 2284 O 217.421 -1.5522 1.16707 0
M  V30 2285 C 214.551 -2.50607 2.40444 0
M  V30 2286 C 213.505 -2.38155 3.55621 0
M  V30 2287 C 212.831 -3.76078 3.80091 0
M  V30 2288 C 214.131 -1.85991 4.88062 0
M  V30 2289 H 215.825 -0.801743 2.88466 0
M  V30 2290 H 213.371 -0.38422 1.38779 0
M  V30 2291 H 215.324 -3.23197 2.7041 0
M  V30 2292 H 214.048 -2.89737 1.50732 0
M  V30 2293 H 212.707 -1.68016 3.25832 0
M  V30 2294 H 212.355 -4.12656 2.87618 0
M  V30 2295 H 212.055 -3.68606 4.57606 0
M  V30 2296 H 213.579 -4.50206 4.12488 0
M  V30 2297 H 214.993 -2.4838 5.16701 0
M  V30 2298 H 213.39 -1.89393 5.6943 0
M  V30 2299 H 214.46 -0.816023 4.77984 0
M  V30 2300 N 215.803 -1.52179 -0.40978 0
M  V30 2301 C 217.05 -1.66206 -1.15679 0
M  V30 2302 C 217.378 -0.391674 -1.90516 0
M  V30 2303 O 216.633 0.62533 -1.8544 0
M  V30 2304 C 216.932 -2.83428 -2.17723 0
M  V30 2305 C 216.598 -4.21672 -1.59699 0
M  V30 2306 C 215.26 -4.59274 -1.43599 0
M  V30 2307 C 217.612 -5.07825 -1.17317 0
M  V30 2308 C 214.94 -5.80709 -0.836328 0
M  V30 2309 C 217.292 -6.29864 -0.587691 0
M  V30 2310 C 215.956 -6.66216 -0.413818 0
M  V30 2311 H 215.226 -0.608192 -0.423301 0
M  V30 2312 H 217.873 -1.86279 -0.444097 0
M  V30 2313 H 216.178 -2.57687 -2.95135 0
M  V30 2314 H 217.875 -2.91477 -2.75394 0
M  V30 2315 H 214.465 -3.9204 -1.73213 0
M  V30 2316 H 218.649 -4.79359 -1.28565 0
M  V30 2317 H 213.905 -6.07498 -0.689626 0
M  V30 2318 H 218.079 -6.95948 -0.250894 0
M  V30 2319 H 215.706 -7.60182 0.0529471 0
M  V30 2320 N 217.281 0.66697 -1.42791 0
M  V30 2321 C 218.211 1.79218 -1.49677 0
M  V30 2322 C 219.192 1.66405 -0.352623 0
M  V30 2323 O 220.377 1.85708 -0.567993 0
M  V30 2324 C 217.507 3.17565 -1.40605 0
M  V30 2325 C 216.461 3.45124 -2.53127 0
M  V30 2326 C 215.787 4.83127 -2.29112 0
M  V30 2327 C 217.087 3.41236 -3.95418 0
M  V30 2328 H 218.781 1.73713 -2.43853 0
M  V30 2329 H 216.327 0.83432 -1.17367 0
M  V30 2330 H 218.28 3.96022 -1.44029 0
M  V30 2331 H 217.004 3.23767 -0.429271 0
M  V30 2332 H 215.663 2.69031 -2.49034 0
M  V30 2333 H 215.311 4.85988 -1.29709 0
M  V30 2334 H 215.011 5.02528 -3.04531 0
M  V30 2335 H 216.535 5.63859 -2.34297 0
M  V30 2336 H 217.949 4.09651 -4.01073 0
M  V30 2337 H 216.346 3.72173 -4.70752 0
M  V30 2338 H 217.416 2.39665 -4.21532 0
M  V30 2339 N 218.759 1.29093 0.90403 0
M  V30 2340 C 220.17 1.15186 1.46932 0
M  V30 2341 C 220.521 -0.254587 1.94541 0
M  V30 2342 O 219.646 -1.14972 1.83332 0
M  V30 2343 C 220.241 2.08492 2.67051 0
M  V30 2344 C 218.8 1.98621 3.19729 0
M  V30 2345 C 217.947 1.9967 1.92425 0
M  V30 2346 H 220.898 1.41641 0.715789 0
M  V30 2347 H 220.919 1.65461 3.42641 0
M  V30 2348 H 220.431 3.10847 2.3237 0
M  V30 2349 H 218.532 0.993389 3.59114 0
M  V30 2350 H 218.645 2.86068 3.8432 0
M  V30 2351 H 217.009 1.44208 2.09943 0
M  V30 2352 H 217.792 3.03721 1.60026 0
M  V30 2353 N 220.237 -1.11381 1.11499 0
M  V30 2354 C 221.167 -2.19509 0.796125 0
M  V30 2355 C 222.148 -1.68458 -0.235796 0
M  V30 2356 O 223.333 -1.93947 -0.0991344 0
M  V30 2357 C 220.463 -3.46475 0.239205 0
M  V30 2358 C 219.417 -4.10744 1.20307 0
M  V30 2359 C 218.743 -5.32293 0.50683 0
M  V30 2360 C 220.043 -4.55597 2.55399 0
M  V30 2361 H 221.737 -2.46439 1.70024 0
M  V30 2362 H 219.283 -1.18446 0.818935 0
M  V30 2363 H 221.236 -4.214 0.00392006 0
M  V30 2364 H 219.96 -3.19006 -0.700206 0
M  V30 2365 H 218.619 -3.37813 1.42399 0
M  V30 2366 H 218.267 -5.01095 -0.437408 0
M  V30 2367 H 217.967 -5.76243 1.1497 0
M  V30 2368 H 219.491 -6.09956 0.280351 0
M  V30 2369 H 220.905 -5.21841 2.37391 0
M  V30 2370 H 219.302 -5.10363 3.15673 0
M  V30 2371 H 220.372 -3.69013 3.14575 0
M  V30 2372 N 221.715 -0.905404 -1.28997 0
M  V30 2373 C 223.126 -0.581953 -1.77398 0
M  V30 2374 C 223.477 0.902552 -1.74208 0
M  V30 2375 O 222.602 1.70584 -1.33154 0
M  V30 2376 C 223.197 -1.04961 -3.22131 0
M  V30 2377 C 221.756 -0.777229 -3.68288 0
M  V30 2378 C 220.903 -1.22109 -2.48967 0
M  V30 2379 H 223.854 -1.08754 -1.15578 0
M  V30 2380 H 223.875 -0.387387 -3.78523 0
M  V30 2381 H 223.387 -2.13008 -3.24421 0
M  V30 2382 H 221.488 0.290383 -3.71467 0
M  V30 2383 H 221.601 -1.37911 -4.58822 0
M  V30 2384 H 219.965 -0.639971 -2.46529 0
M  V30 2385 H 220.748 -2.30972 -2.53982 0
M  V30 2386 N 223.193 1.4272 -0.668489 0
M  V30 2387 C 224.439 2.01923 -0.188419 0
M  V30 2388 C 224.772 1.52704 1.19979 0
M  V30 2389 O 224.047 0.726566 1.8042 0
M  V30 2390 C 224.33 3.59451 -0.216085 0
M  V30 2391 C 224.183 4.18864 -1.6393 0
M  V30 2392 C 225.502 4.37903 0.439179 0
M  V30 2393 H 222.621 0.733674 -0.0699412 0
M  V30 2394 H 225.263 1.69822 -0.852076 0
M  V30 2395 H 223.413 3.86929 0.349012 0
M  V30 2396 H 225.085 4.02362 -2.25616 0
M  V30 2397 H 223.328 3.74933 -2.18193 0
M  V30 2398 H 223.999 5.27987 -1.61039 0
M  V30 2399 H 226.475 4.16079 -0.0417878 0
M  V30 2400 H 225.351 5.47519 0.389157 0
M  V30 2401 H 225.612 4.15303 1.51577 0
M  V30 2402 N 224.671 0.411399 1.52136 0
M  V30 2403 C 225.896 -0.165538 2.06738 0
M  V30 2404 C 226.321 -1.379 1.27926 0
M  V30 2405 O 225.679 -1.78628 0.310114 0
M  V30 2406 C 225.727 -0.492124 3.57226 0
M  V30 2407 O 224.831 -1.58276 3.80818 0
M  V30 2408 H 224.172 -0.0132132 0.663869 0
M  V30 2409 H 226.702 0.585253 1.96051 0
M  V30 2410 H 226.712 -0.750104 4.01045 0
M  V30 2411 H 225.387 0.394922 4.14021 0
M  V30 2412 H 223.964 -1.31677 3.48877 0
M  V30 2413 N 226.149 -1.5696 0.141893 0
M  V30 2414 C 227.374 -2.00754 -0.520838 0
M  V30 2415 C 227.799 -1.0213 -1.57959 0
M  V30 2416 O 227.157 0.00371324 -1.813 0
M  V30 2417 C 227.205 -3.43318 -1.10294 0
M  V30 2418 O 226.309 -3.47679 -2.21795 0
M  V30 2419 H 225.65 -0.651564 -0.127908 0
M  V30 2420 H 228.18 -2.03221 0.23712 0
M  V30 2421 H 228.19 -3.82012 -1.43287 0
M  V30 2422 H 226.865 -4.14608 -0.327574 0
M  V30 2423 H 225.442 -3.20824 -1.9007 0
M  V30 2424 N 227.627 0.131896 -1.57047 0
M  V30 2425 C 228.904 0.871495 -1.75112 0
M  V30 2426 C 229.284 1.9866 -0.713949 0
M  V30 2427 O 228.632 2.26965 0.264447 0
M  V30 2428 C 228.842 1.40007 -3.19686 0
M  V30 2429 C 230.19 1.85752 -3.81813 0
M  V30 2430 O 231.214 1.49715 -3.23209 0
M  V30 2431 O 230.073 2.5226 -4.84796 0
M  V30 2432 H 227.167 0.412919 -0.716538 0
M  V30 2433 H 229.713 0.116641 -1.69299 0
M  V30 2434 H 228.485 0.599404 -3.86682 0
M  V30 2435 H 228.108 2.218 -3.29986 0
M  V30 2436 O 229.144 1.59117 0.276399 0
M  V30 2437 H 229.835 1.70359 0.921826 0
M  V30 END ATOM
M  V30 BEGIN BOND
M  V30 END BOND
M  V30 END CTAB
M  END
$$$$
