drugbank_target|P63316 Troponin C, slow skeletal and cardiac muscles (DB00831; DB00922; DB01023; DB01244; DB01373; DB01375; DB03944; DB04513)
 OpenBabel12092119453D

  0  0  0     0  0            999 V3000
M  V30 BEGIN CTAB
M  V30 COUNTS 2494 2507 0 0 0
M  V30 BEGIN ATOM
M  V30 1 H -0.908 1.98254 -0.117106 0
M  V30 2 N 0 1.576 0 0
M  V30 3 C 0.933 2.03868 1.02534 0
M  V30 4 C 1.911 0.928543 1.3348 0
M  V30 5 O 3.095 1.19667 1.45644 0
M  V30 6 C 0.222 2.43627 2.35294 0
M  V30 7 C -0.732 3.65373 2.2001 0
M  V30 8 S 0.101 5.13292 1.52614 0
M  V30 9 C 1.257 5.56322 2.86805 0
M  V30 10 H 1.49 2.90518 0.631377 0
M  V30 11 H -0.977 1.52953 0.210867 0
M  V30 12 H 0.981 2.67203 3.11629 0
M  V30 13 H -0.358 1.57376 2.7183 0
M  V30 14 H -1.165 3.90944 3.18086 0
M  V30 15 H -1.563 3.418 1.51819 0
M  V30 16 H 0.729 5.58782 3.83104 0
M  V30 17 H 1.672 6.56266 2.65933 0
M  V30 18 H 2.08 4.83886 2.90714 0
M  V30 19 N 1.4781 -0.272755 1.55222 0
M  V30 20 C 2.7551 -1.02562 1.66555 0
M  V30 21 C 3.1351 -2.04282 0.532189 0
M  V30 22 O 2.4831 -2.23662 -0.467717 0
M  V30 23 C 2.6931 -1.6822 3.05782 0
M  V30 24 C 4.0411 -2.19373 3.63539 0
M  V30 25 O 5.0651 -1.78206 3.08417 0
M  V30 26 O 3.9241 -2.94883 4.60115 0
M  V30 27 H 1.0181 -0.475755 0.676451 0
M  V30 28 H 3.5641 -0.268593 1.67561 0
M  V30 29 H 2.3361 -0.945112 3.79715 0
M  V30 30 H 1.9591 -2.50609 3.08676 0
M  V30 31 N 2.9562 -1.48159 -0.537278 0
M  V30 32 C 4.2332 -1.46291 -1.29839 0
M  V30 33 C 4.6132 -0.170613 -2.10409 0
M  V30 34 O 3.9612 0.847746 -2.12192 0
M  V30 35 C 4.1712 -2.72055 -2.18603 0
M  V30 36 C 5.5192 -3.20087 -2.7898 0
M  V30 37 O 6.5432 -2.72921 -2.28894 0
M  V30 38 O 5.4022 -4.02138 -3.70064 0
M  V30 39 H 2.4962 -0.583906 -0.585647 0
M  V30 40 H 5.0422 -1.60384 -0.554534 0
M  V30 41 H 3.8142 -3.57628 -1.58801 0
M  V30 42 H 3.4372 -2.60646 -3.00249 0
M  V30 43 N 4.4343 0.785586 -1.36625 0
M  V30 44 C 5.6833 1.53883 -1.30396 0
M  V30 45 C 5.9963 1.95271 0.113452 0
M  V30 46 O 7.2023 2.69858 0.298142 0
M  V30 47 C 5.6583 2.77808 -2.28802 0
M  V30 48 C 5.2663 2.43574 -3.75999 0
M  V30 49 C 7.0103 3.55783 -2.31558 0
M  V30 50 C 4.9173 3.63919 -4.66173 0
M  V30 51 H 3.8473 0.577678 -0.484566 0
M  V30 52 H 6.4983 0.861705 -1.62009 0
M  V30 53 H 4.8803 3.47339 -1.90188 0
M  V30 54 H 6.0543 1.81916 -4.23371 0
M  V30 55 H 4.3693 1.78803 -3.76056 0
M  V30 56 H 6.9663 4.45205 -2.96137 0
M  V30 57 H 7.3093 3.94644 -1.3252 0
M  V30 58 H 7.8423 2.93235 -2.68809 0
M  V30 59 H 4.5813 3.3015 -5.66287 0
M  V30 60 H 4.1013 4.2473 -4.23515 0
M  V30 61 H 5.7803 4.30901 -4.82632 0
M  V30 62 N 5.9124 1.20967 1.01018 0
M  V30 63 C 7.1424 1.04803 1.78044 0
M  V30 64 C 7.5504 -0.405462 1.84804 0
M  V30 65 O 6.8934 -1.2932 1.30468 0
M  V30 66 C 6.9554 1.56377 3.23707 0
M  V30 67 C 6.6194 3.04767 3.40538 0
M  V30 68 C 7.6164 4.02366 3.29239 0
M  V30 69 C 5.3014 3.43862 3.66147 0
M  V30 70 C 7.2954 5.37049 3.43304 0
M  V30 71 C 4.9824 4.78699 3.79855 0
M  V30 72 C 5.9804 5.75101 3.68439 0
M  V30 73 O 5.6684 7.07493 3.81719 0
M  V30 74 H 5.4004 0.368778 0.56655 0
M  V30 75 H 7.9544 1.60642 1.27997 0
M  V30 76 H 6.1844 0.949297 3.74867 0
M  V30 77 H 7.8734 1.36136 3.8239 0
M  V30 78 H 8.6394 3.73506 3.09384 0
M  V30 79 H 4.5184 2.69364 3.74118 0
M  V30 80 H 8.0624 6.12277 3.34309 0
M  V30 81 H 3.9594 5.07247 3.99213 0
M  V30 82 H 4.7274 7.1483 3.98697 0
M  V30 83 N 7.3905 -1.2043 1.01659 0
M  V30 84 C 8.3375 -2.23215 0.586822 0
M  V30 85 C 9.3075 -1.61382 -0.393085 0
M  V30 86 O 10.4925 -1.88544 -0.292525 0
M  V30 87 C 7.6325 -3.45032 -0.0687464 0
M  V30 88 C 6.7455 -4.21296 0.955724 0
M  V30 89 C 5.8805 -5.30507 0.271208 0
M  V30 90 C 4.9195 -5.98515 1.28244 0
M  V30 91 N 4.0565 -6.99316 0.62459 0
M  V30 92 H 8.8965 -2.59336 1.46796 0
M  V30 93 H 6.4335 -1.27431 0.734836 0
M  V30 94 H 8.3915 -4.1459 -0.465965 0
M  V30 95 H 7.0215 -3.09604 -0.913529 0
M  V30 96 H 6.0735 -3.50803 1.4711 0
M  V30 97 H 7.3855 -4.6803 1.72479 0
M  V30 98 H 6.5395 -6.06428 -0.18151 0
M  V30 99 H 5.2785 -4.8481 -0.530163 0
M  V30 100 H 4.2835 -5.21355 1.74554 0
M  V30 101 H 5.5085 -6.46298 2.08509 0
M  V30 102 H 3.4545 -6.55812 -0.156914 0
M  V30 103 H 3.3715 -7.44178 1.33172 0
M  V30 104 H 4.6395 -7.79255 0.195462 0
M  V30 105 N 8.8686 -0.792821 -1.36206 0
M  V30 106 C 9.8316 -0.199459 -2.2833 0
M  V30 107 C 10.8316 0.605189 -1.48977 0
M  V30 108 O 12.0216 0.425685 -1.68919 0
M  V30 109 C 9.1536 0.723523 -3.33134 0
M  V30 110 H 10.3466 -1.01181 -2.82316 0
M  V30 111 H 7.8996 -0.562485 -1.45828 0
M  V30 112 H 8.6346 1.56008 -2.84309 0
M  V30 113 H 8.4196 0.148436 -3.91819 0
M  V30 114 H 9.9096 1.13344 -4.01924 0
M  V30 115 N 10.3467 1.47872 -0.545128 0
M  V30 116 C 11.3097 2.28337 0.198717 0
M  V30 117 C 12.3097 1.36255 0.853888 0
M  V30 118 O 13.4997 1.59003 0.711606 0
M  V30 119 C 10.6317 3.15585 1.28915 0
M  V30 120 H 11.8247 2.95567 -0.507941 0
M  V30 121 H 9.3777 1.53362 -0.301616 0
M  V30 122 H 10.1127 2.53019 2.02859 0
M  V30 123 H 9.8977 3.83337 0.824309 0
M  V30 124 H 11.3877 3.76243 1.81194 0
M  V30 125 N 11.8248 0.280983 1.55075 0
M  V30 126 C 13.0708 -0.33461 2.00021 0
M  V30 127 C 13.4038 -1.55063 1.16915 0
M  V30 128 O 12.6788 -1.93006 0.240646 0
M  V30 129 C 12.9618 -0.711007 3.53011 0
M  V30 130 C 12.8148 0.512766 4.46868 0
M  V30 131 C 14.1338 -1.54522 4.12081 0
M  V30 132 H 11.2528 -0.120147 0.727141 0
M  V30 133 H 13.8948 0.389097 1.85973 0
M  V30 134 H 12.0448 -1.32761 3.65112 0
M  V30 135 H 13.7168 1.15131 4.46702 0
M  V30 136 H 11.9598 1.14975 4.18286 0
M  V30 137 H 12.6308 0.205556 5.51617 0
M  V30 138 H 15.1068 -1.02442 4.03293 0
M  V30 139 H 13.9828 -1.77739 5.19327 0
M  V30 140 H 14.2438 -2.52813 3.62682 0
M  V30 141 N 13.3029 -1.57598 0.00835791 0
M  V30 142 C 14.2129 -2.12385 -0.996487 0
M  V30 143 C 15.2289 -1.07108 -1.37127 0
M  V30 144 O 16.4049 -1.39055 -1.4569 0
M  V30 145 C 13.4699 -2.62314 -2.26699 0
M  V30 146 C 12.5309 -3.82225 -1.95456 0
M  V30 147 C 11.7639 -4.29763 -3.16449 0
M  V30 148 O 11.9869 -3.76584 -4.28416 0
M  V30 149 O 10.9209 -5.21832 -2.99958 0
M  V30 150 H 14.7469 -2.98479 -0.560725 0
M  V30 151 H 12.3319 -1.47903 -0.210987 0
M  V30 152 H 14.2139 -2.94589 -3.01322 0
M  V30 153 H 12.8889 -1.79313 -2.69497 0
M  V30 154 H 11.7959 -3.54909 -1.18282 0
M  V30 155 H 13.1289 -4.66324 -1.57489 0
M  V30 156 N 14.781 0.264519 -1.55364 0
M  V30 157 C 15.713 1.34965 -1.85248 0
M  V30 158 C 16.726 1.45136 -0.737525 0
M  V30 159 O 17.915 1.46801 -1.01547 0
M  V30 160 C 15.015 2.73008 -2.00797 0
M  V30 161 C 14.188 2.85324 -3.31525 0
M  V30 162 C 13.247 4.04097 -3.37034 0
M  V30 163 O 12.273 3.94455 -4.10358 0
M  V30 164 N 13.475 5.16458 -2.65049 0
M  V30 165 H 16.24 1.09672 -2.78913 0
M  V30 166 H 13.801 0.454635 -1.55386 0
M  V30 167 H 15.793 3.50772 -2.01844 0
M  V30 168 H 14.363 2.91087 -1.1396 0
M  V30 169 H 13.583 1.94377 -3.42945 0
M  V30 170 H 14.871 2.9049 -4.17724 0
M  V30 171 H 14.269 5.27181 -2.05175 0
M  V30 172 H 12.826 5.92422 -2.71809 0
M  V30 173 N 16.2591 1.48442 0.529413 0
M  V30 174 C 17.1891 1.65902 1.64313 0
M  V30 175 C 18.1701 0.507897 1.6234 0
M  V30 176 O 19.3551 0.740503 1.79528 0
M  V30 177 C 16.4851 1.69911 3.02898 0
M  V30 178 C 15.4391 2.8453 3.19729 0
M  V30 179 C 14.7651 2.73629 4.59381 0
M  V30 180 C 16.0651 4.25821 3.02447 0
M  V30 181 H 17.7591 2.5914 1.49955 0
M  V30 182 H 15.3051 1.24709 0.719982 0
M  V30 183 H 17.2581 1.80715 3.80684 0
M  V30 184 H 15.9821 0.732524 3.18279 0
M  V30 185 H 14.6411 2.73283 2.44361 0
M  V30 186 H 14.2891 1.74938 4.71599 0
M  V30 187 H 13.9891 3.50541 4.71588 0
M  V30 188 H 15.5131 2.86401 5.39265 0
M  V30 189 H 16.9271 4.37898 3.70024 0
M  V30 190 H 15.3241 5.03735 3.26146 0
M  V30 191 H 16.3941 4.42244 1.98867 0
M  V30 192 N 17.7372 -0.778329 1.37039 0
M  V30 193 C 18.9652 -1.56734 1.35063 0
M  V30 194 C 19.3802 -1.88686 -0.0655597 0
M  V30 195 O 18.7372 -1.5096 -1.02554 0
M  V30 196 C 18.7882 -2.88163 2.18276 0
M  V30 197 O 18.5092 -2.57583 3.54376 0
M  V30 198 C 20.0102 -3.82422 2.24206 0
M  V30 199 H 17.2302 -0.485778 0.462883 0
M  V30 200 H 19.7742 -0.965185 1.8029 0
M  V30 201 H 17.9292 -3.44818 1.76576 0
M  V30 202 H 18.3432 -3.41699 3.97922 0
M  V30 203 H 19.8172 -4.71667 2.86765 0
M  V30 204 H 20.2942 -4.21078 1.24861 0
M  V30 205 H 20.9002 -3.31697 2.6619 0
M  V30 206 N 19.2153 -1.21501 -1.00376 0
M  V30 207 C 20.1253 -0.991447 -2.12621 0
M  V30 208 C 21.1413 0.0568446 -1.73907 0
M  V30 209 O 22.3173 -0.13348 -2.00957 0
M  V30 210 C 19.3823 -0.560312 -3.42142 0
M  V30 211 C 18.4433 -1.68096 -3.95022 0
M  V30 212 C 17.6763 -1.2703 -5.18362 0
M  V30 213 O 17.8993 -0.144438 -5.70217 0
M  V30 214 O 16.8333 -2.08269 -5.64719 0
M  V30 215 H 20.6593 -1.93158 -2.34358 0
M  V30 216 H 18.2443 -0.999999 -1.10997 0
M  V30 217 H 20.1263 -0.329724 -4.20108 0
M  V30 218 H 18.8013 0.351089 -3.2179 0
M  V30 219 H 17.7083 -1.96597 -3.18278 0
M  V30 220 H 19.0413 -2.56983 -4.19786 0
M  V30 221 N 20.6934 1.19889 -1.02296 0
M  V30 222 C 21.6034 2.26571 -0.608508 0
M  V30 223 C 22.6194 1.70299 0.356964 0
M  V30 224 O 23.7954 2.00235 0.216326 0
M  V30 225 C 20.8604 3.46677 0.0402814 0
M  V30 226 C 19.9214 4.18153 -0.97194 0
M  V30 227 C 19.1544 5.32525 -0.354016 0
M  V30 228 O 19.3774 5.64112 0.844604 0
M  V30 229 O 18.3114 5.92242 -1.07391 0
M  V30 230 H 22.1374 2.64251 -1.49684 0
M  V30 231 H 19.7224 1.26629 -0.792809 0
M  V30 232 H 21.6044 4.19475 0.402324 0
M  V30 233 H 20.2794 3.10858 0.902707 0
M  V30 234 H 19.1864 3.47499 -1.38546 0
M  V30 235 H 20.5194 4.57927 -1.80454 0
M  V30 236 N 22.1715 0.800033 1.35784 0
M  V30 237 C 23.1035 0.163596 2.28615 0
M  V30 238 C 24.1165 -0.633317 1.49976 0
M  V30 239 O 25.3055 -0.466754 1.72289 0
M  V30 240 C 22.4055 -0.790958 3.29541 0
M  V30 241 C 21.5785 -0.0418255 4.3738 0
M  V30 242 C 20.6375 -0.91389 5.18203 0
M  V30 243 O 19.6635 -0.367234 5.68014 0
M  V30 244 N 20.8655 -2.23682 5.35674 0
M  V30 245 H 23.6305 0.96105 2.83873 0
M  V30 246 H 21.1915 0.654894 1.48063 0
M  V30 247 H 23.1835 -1.37844 3.80501 0
M  V30 248 H 21.7535 -1.48925 2.74846 0
M  V30 249 H 20.9735 0.726813 3.87442 0
M  V30 250 H 22.2615 0.474719 5.06581 0
M  V30 251 H 21.6595 -2.70497 4.96838 0
M  V30 252 H 20.2165 -2.77369 5.89839 0
M  V30 253 N 23.6496 -1.47581 0.552962 0
M  V30 254 C 24.5966 -2.29957 -0.197108 0
M  V30 255 C 25.5666 -1.38799 -0.912359 0
M  V30 256 O 26.7516 -1.67761 -0.908888 0
M  V30 257 C 23.8916 -3.22672 -1.22379 0
M  V30 258 C 23.0046 -4.28919 -0.515038 0
M  V30 259 C 22.1396 -5.0879 -1.52664 0
M  V30 260 C 21.1786 -6.06815 -0.802631 0
M  V30 261 N 20.3156 -6.7966 -1.76086 0
M  V30 262 H 25.1556 -2.93578 0.511486 0
M  V30 263 H 22.6926 -1.4471 0.264067 0
M  V30 264 H 24.6506 -3.74845 -1.83159 0
M  V30 265 H 23.2806 -2.60925 -1.90047 0
M  V30 266 H 22.3326 -3.79835 0.207192 0
M  V30 267 H 23.6446 -4.98773 0.0523425 0
M  V30 268 H 22.7986 -5.65091 -2.20809 0
M  V30 269 H 21.5376 -4.38828 -2.12794 0
M  V30 270 H 20.5426 -5.49695 -0.107238 0
M  V30 271 H 21.7676 -6.78784 -0.207135 0
M  V30 272 H 19.7136 -6.12432 -2.35081 0
M  V30 273 H 19.6306 -7.45669 -1.24552 0
M  V30 274 H 20.8986 -7.40538 -2.43359 0
M  V30 275 N 25.1277 -0.289203 -1.54924 0
M  V30 276 C 26.0757 0.607966 -2.24514 0
M  V30 277 C 27.0697 1.14655 -1.24702 0
M  V30 278 O 28.2757 1.09856 -1.4259 0
M  V30 279 H 24.6507 0.21464 -0.720718 0
M  V30 280 H 26.6217 -0.00164182 -2.984 0
M  V30 281 C 25.3707 1.77406 -2.99036 0
M  V30 282 H 24.6937 1.36884 -3.75637 0
M  V30 283 H 26.1337 2.37814 -3.51028 0
M  V30 284 C 24.5927 2.67107 -2.05318 0
M  V30 285 O 25.1227 3.6787 -1.61353 0
M  V30 286 N 23.3287 2.34582 -1.71521 0
M  V30 287 H 22.8757 1.52688 -2.07471 0
M  V30 288 H 22.8337 2.94867 -1.0909 0
M  V30 289 N 26.6058 1.57591 -0.0167156 0
M  V30 290 C 27.5158 2.1291 0.98521 0
M  V30 291 C 28.5318 1.07834 1.36557 0
M  V30 292 O 29.7078 1.39826 1.44951 0
M  V30 293 C 26.7728 2.63512 2.25305 0
M  V30 294 C 25.8338 3.83256 1.93426 0
M  V30 295 C 25.0668 4.31435 3.14165 0
M  V30 296 O 25.2898 3.78851 4.26413 0
M  V30 297 O 24.2238 5.23416 2.97186 0
M  V30 298 H 28.0498 2.98772 0.544888 0
M  V30 299 H 25.6348 1.48012 0.203141 0
M  V30 300 H 27.5168 2.96183 2.99756 0
M  V30 301 H 26.1918 1.8074 2.68542 0
M  V30 302 H 25.0988 3.55531 1.16398 0
M  V30 303 H 26.4318 4.67153 1.55013 0
M  V30 304 N 28.0839 -0.256276 1.55502 0
M  V30 305 C 29.3309 -0.985619 1.76895 0
M  V30 306 C 29.6589 -1.85671 0.579355 0
M  V30 307 O 28.9139 -1.90744 -0.437651 0
M  V30 308 C 29.2129 -1.88432 3.03691 0
M  V30 309 C 28.8789 -1.16936 4.35473 0
M  V30 310 C 27.5409 -0.97173 4.71286 0
M  V30 311 C 29.8929 -0.661889 5.1698 0
M  V30 312 C 27.2209 -0.254179 5.86149 0
M  V30 313 C 29.5729 0.042149 6.32586 0
M  V30 314 C 28.2369 0.25134 6.67027 0
M  V30 315 H 27.5069 -0.360663 0.647304 0
M  V30 316 H 30.1539 -0.256483 1.89775 0
M  V30 317 H 28.4589 -2.68021 2.85783 0
M  V30 318 H 30.1559 -2.45015 3.1744 0
M  V30 319 H 26.7459 -1.33332 4.07333 0
M  V30 320 H 30.9299 -0.802145 4.89775 0
M  V30 321 H 26.1859 -0.0815408 6.11346 0
M  V30 322 H 30.3599 0.443049 6.94989 0
M  V30 323 H 27.9869 0.809314 7.5588 0
M  V30 324 N 29.562 -1.4872 -0.521534 0
M  V30 325 C 30.509 -1.63871 -1.62527 0
M  V30 326 C 31.479 -0.480559 -1.58996 0
M  V30 327 O 32.664 -0.705085 -1.77294 0
M  V30 328 C 29.804 -1.69227 -3.00759 0
M  V30 329 C 28.917 -2.96207 -3.14461 0
M  V30 330 C 28.052 -2.92671 -4.43303 0
M  V30 331 C 27.091 -4.14318 -4.50563 0
M  V30 332 N 26.228 -4.0881 -5.70805 0
M  V30 333 H 31.068 -2.58123 -1.48918 0
M  V30 334 H 28.605 -1.28 -0.724878 0
M  V30 335 H 30.563 -1.70314 -3.80853 0
M  V30 336 H 29.193 -0.784586 -3.1312 0
M  V30 337 H 28.245 -3.04826 -2.27564 0
M  V30 338 H 29.557 -3.86192 -3.15686 0
M  V30 339 H 28.711 -2.92206 -5.31696 0
M  V30 340 H 27.45 -2.00429 -4.44612 0
M  V30 341 H 26.455 -4.15049 -3.60575 0
M  V30 342 H 27.68 -5.07729 -4.50986 0
M  V30 343 H 25.626 -3.19394 -5.72995 0
M  V30 344 H 25.543 -4.92509 -5.7356 0
M  V30 345 H 26.811 -4.12418 -6.61462 0
M  V30 346 N 31.0401 0.771051 -1.3745 0
M  V30 347 C 32.0031 1.86598 -1.33093 0
M  V30 348 C 33.0031 1.59076 -0.234845 0
M  V30 349 O 34.1931 1.67145 -0.490732 0
M  V30 350 C 31.3251 3.23747 -1.06773 0
M  V30 351 H 32.5181 1.91873 -2.30488 0
M  V30 352 H 30.0711 0.970876 -1.2249 0
M  V30 353 H 30.8061 3.24148 -0.099129 0
M  V30 354 H 30.5911 3.45115 -1.86112 0
M  V30 355 H 32.0811 4.03824 -1.06377 0
M  V30 356 N 32.5182 1.22032 0.997298 0
M  V30 357 C 33.4812 0.987909 2.06816 0
M  V30 358 C 34.4812 -0.0440084 1.6074 0
M  V30 359 O 35.6712 0.194053 1.73116 0
M  V30 360 C 32.8032 0.49132 3.37341 0
M  V30 361 H 33.9962 1.93803 2.28868 0
M  V30 362 H 31.5492 1.03838 1.16822 0
M  V30 363 H 32.2842 -0.463364 3.20973 0
M  V30 364 H 32.0692 1.23575 3.72118 0
M  V30 365 H 33.5592 0.348824 4.16141 0
M  V30 366 N 33.9963 -1.19345 1.0293 0
M  V30 367 C 35.2433 -1.89038 0.726008 0
M  V30 368 C 35.5713 -1.79649 -0.745427 0
M  V30 369 O 34.8263 -1.18354 -1.55855 0
M  V30 370 C 35.1253 -3.39292 1.12319 0
M  V30 371 C 34.7913 -3.68885 2.59297 0
M  V30 372 C 33.4533 -3.76671 2.99453 0
M  V30 373 C 35.8053 -3.82178 3.54386 0
M  V30 374 C 33.1333 -3.9522 4.33611 0
M  V30 375 C 35.4853 -4.0224 4.88248 0
M  V30 376 C 34.1493 -4.08259 5.28092 0
M  V30 377 H 33.4193 -0.691739 0.265665 0
M  V30 378 H 36.0663 -1.41328 1.29223 0
M  V30 379 H 34.3713 -3.88903 0.475584 0
M  V30 380 H 36.0683 -3.91536 0.866037 0
M  V30 381 H 32.6583 -3.63433 2.27189 0
M  V30 382 H 36.8423 -3.75505 3.24514 0
M  V30 383 H 32.0983 -3.98119 4.64016 0
M  V30 384 H 36.2723 -4.11468 5.61843 0
M  V30 385 H 33.8993 -4.22384 6.32057 0
M  V30 386 N 35.4744 -0.807222 -1.35358 0
M  V30 387 C 36.7514 -0.311126 -1.9311 0
M  V30 388 C 37.1314 1.19937 -1.73719 0
M  V30 389 O 36.4794 1.99918 -1.10657 0
M  V30 390 C 36.6894 -0.723226 -3.41424 0
M  V30 391 C 38.0374 -0.713078 -4.18569 0
M  V30 392 O 39.0614 -0.664811 -3.49941 0
M  V30 393 O 37.9204 -0.772022 -5.41019 0
M  V30 394 H 35.0144 -0.081526 -0.822972 0
M  V30 395 H 37.5604 -0.890962 -1.4443 0
M  V30 396 H 36.3324 -1.76426 -3.4927 0
M  V30 397 H 35.9554 -0.118232 -3.97424 0
M  V30 398 N 36.9525 1.47285 -0.560781 0
M  V30 399 C 38.2015 2.01668 -0.035895 0
M  V30 400 C 38.5145 1.44021 1.32353 0
M  V30 401 O 39.7205 1.90088 1.93853 0
M  V30 402 C 38.1765 3.59897 -0.0136659 0
M  V30 403 C 37.7845 4.26536 -1.37006 0
M  V30 404 C 39.5285 4.22017 0.458425 0
M  V30 405 C 37.4355 5.76782 -1.30675 0
M  V30 406 H 36.3655 0.753938 -0.00964879 0
M  V30 407 H 39.0165 1.69243 -0.709166 0
M  V30 408 H 37.3985 3.89301 0.725325 0
M  V30 409 H 38.5725 4.0877 -2.12705 0
M  V30 410 H 36.8875 3.76419 -1.78038 0
M  V30 411 H 39.4845 5.32124 0.524247 0
M  V30 412 H 39.8275 3.89437 1.4712 0
M  V30 413 H 40.3605 3.97159 -0.225818 0
M  V30 414 H 37.0995 6.13988 -2.29564 0
M  V30 415 H 36.6195 5.96875 -0.591622 0
M  V30 416 H 38.2985 6.39063 -1.01033 0
M  V30 417 N 38.4306 0.297415 1.54768 0
M  V30 418 C 39.6776 -0.312913 2.00068 0
M  V30 419 C 40.0056 -1.54171 1.18582 0
M  V30 420 O 39.2606 -1.94108 0.249133 0
M  V30 421 C 39.5596 -0.717561 3.50123 0
M  V30 422 C 39.2256 0.409095 4.4904 0
M  V30 423 C 37.8876 0.718399 4.75807 0
M  V30 424 C 40.2396 1.16717 5.07963 0
M  V30 425 C 37.5676 1.78896 5.5876 0
M  V30 426 C 39.9196 2.22762 5.92081 0
M  V30 427 C 38.5836 2.54303 6.1716 0
M  V30 428 H 37.8536 -0.114503 0.7321 0
M  V30 429 H 40.5006 0.415767 1.86932 0
M  V30 430 H 38.8056 -1.52627 3.60849 0
M  V30 431 H 40.5026 -1.20091 3.82595 0
M  V30 432 H 37.0926 0.157918 4.28309 0
M  V30 433 H 41.2766 0.941466 4.87289 0
M  V30 434 H 36.5326 2.0381 5.7643 0
M  V30 435 H 40.7066 2.81962 6.36765 0
M  V30 436 H 38.3336 3.3739 6.81229 0
M  V30 437 N 39.9087 -1.5758 0.0250728 0
M  V30 438 C 41.1547 -1.91917 -0.655413 0
M  V30 439 C 41.4877 -0.901433 -1.72011 0
M  V30 440 O 40.7627 0.0764069 -1.9435 0
M  V30 441 C 41.0457 -3.36751 -1.27558 0
M  V30 442 C 40.8987 -4.49258 -0.220719 0
M  V30 443 C 42.2177 -3.81469 -2.19475 0
M  V30 444 H 39.3367 -0.697925 -0.23679 0
M  V30 445 H 41.9787 -1.89825 0.0815036 0
M  V30 446 H 40.1287 -3.38664 -1.90365 0
M  V30 447 H 41.8007 -4.59478 0.409601 0
M  V30 448 H 40.0437 -4.31415 0.454264 0
M  V30 449 H 40.7147 -5.47618 -0.694175 0
M  V30 450 H 43.1907 -3.81266 -1.66659 0
M  V30 451 H 42.0667 -4.83512 -2.59822 0
M  V30 452 H 42.3277 -3.16744 -3.08424 0
M  V30 453 N 41.3868 0.248026 -1.55636 0
M  V30 454 C 42.3168 1.31079 -1.93237 0
M  V30 455 C 43.2978 1.50264 -0.797174 0
M  V30 456 O 44.4828 1.62891 -1.05737 0
M  V30 457 C 41.6128 2.66575 -2.22609 0
M  V30 458 C 40.5668 2.62087 -3.3837 0
M  V30 459 C 39.8928 4.01369 -3.53281 0
M  V30 460 C 41.1928 2.19171 -4.7409 0
M  V30 461 H 42.8868 0.998556 -2.82257 0
M  V30 462 H 40.4328 0.47891 -1.35803 0
M  V30 463 H 42.3858 3.41057 -2.47503 0
M  V30 464 H 41.1098 2.99432 -1.30414 0
M  V30 465 H 39.7688 1.90063 -3.13483 0
M  V30 466 H 39.4168 4.31489 -2.58508 0
M  V30 467 H 39.1168 3.99254 -4.31127 0
M  V30 468 H 40.6408 4.77552 -3.80495 0
M  V30 469 H 42.0548 2.83384 -4.98363 0
M  V30 470 H 40.4518 2.2817 -5.5503 0
M  V30 471 H 41.5218 1.14336 -4.71227 0
M  V30 472 N 42.8649 1.48995 0.513639 0
M  V30 473 C 44.1129 1.57531 1.26604 0
M  V30 474 C 44.4339 0.258236 1.93283 0
M  V30 475 O 43.7039 -0.721502 1.8213 0
M  V30 476 H 42.2839 0.580387 0.470276 0
M  V30 477 H 44.9459 1.85552 0.596373 0
M  V30 478 H 44.0419 2.36486 2.03669 0
M  V30 479 N 44.343 -0.763751 1.37857 0
M  V30 480 C 45.306 -1.85889 1.34081 0
M  V30 481 C 46.306 -1.58949 0.243277 0
M  V30 482 O 47.496 -1.66882 0.499589 0
M  V30 483 C 44.628 -3.23176 1.08489 0
M  V30 484 H 45.821 -1.90648 2.31502 0
M  V30 485 H 43.374 -0.964367 1.23003 0
M  V30 486 H 44.109 -3.24091 0.116318 0
M  V30 487 H 43.894 -3.44124 1.8794 0
M  V30 488 H 45.384 -4.03254 1.08517 0
M  V30 489 N 45.8211 -1.22559 -0.990812 0
M  V30 490 C 46.7311 -1.01394 -2.11557 0
M  V30 491 C 47.7471 0.0383962 -1.73958 0
M  V30 492 O 48.9231 -0.154787 -2.00804 0
M  V30 493 C 45.9881 -0.596569 -3.41529 0
M  V30 494 C 45.0491 -1.72276 -3.93217 0
M  V30 495 C 44.2821 -1.32521 -5.16985 0
M  V30 496 O 44.5051 -0.204909 -5.70032 0
M  V30 497 O 43.4391 -2.14247 -5.62478 0
M  V30 498 H 47.2651 -1.95633 -2.32296 0
M  V30 499 H 44.8501 -1.01172 -1.0993 0
M  V30 500 H 46.7321 -0.374263 -4.19735 0
M  V30 501 H 45.4071 0.316939 -3.22145 0
M  V30 502 H 44.3141 -1.99961 -3.16174 0
M  V30 503 H 45.6471 -2.61421 -4.17037 0
M  V30 504 N 47.2992 1.18797 -1.03562 0
M  V30 505 C 48.5762 1.84469 -0.650434 0
M  V30 506 C 48.9562 1.92319 0.870433 0
M  V30 507 O 48.3042 1.44528 1.76986 0
M  V30 508 C 48.5142 3.2306 -1.32036 0
M  V30 509 C 49.8622 3.9915 -1.44792 0
M  V30 510 O 50.8862 3.32481 -1.27806 0
M  V30 511 O 49.7452 5.18587 -1.72423 0
M  V30 512 H 46.8392 0.795251 -0.226946 0
M  V30 513 H 49.3852 1.26231 -1.13419 0
M  V30 514 H 48.1572 3.1222 -2.3587 0
M  V30 515 H 47.7802 3.88949 -0.8249 0
M  V30 516 N 48.7773 0.814389 1.34928 0
M  V30 517 C 50.0253 0.397636 1.9815 0
M  V30 518 C 50.3463 -1.04069 1.64908 0
M  V30 519 O 49.6163 -1.72121 0.93548 0
M  V30 520 H 48.1963 0.144043 0.732981 0
M  V30 521 H 50.8583 1.04195 1.6471 0
M  V30 522 H 49.9543 0.509688 3.0791 0
M  V30 523 N 50.2554 -1.46986 0.568584 0
M  V30 524 C 51.4954 -2.04336 0.0512999 0
M  V30 525 C 51.8594 -1.43214 -1.27881 0
M  V30 526 O 53.0604 -1.91679 -1.88448 0
M  V30 527 C 51.3314 -3.57389 -0.0282328 0
M  V30 528 S 52.8904 -4.36056 -0.489991 0
M  V30 529 H 49.7084 -0.71034 0.0306349 0
M  V30 530 H 52.3104 -1.80212 0.757891 0
M  V30 531 H 51.0144 -3.99395 0.944011 0
M  V30 532 H 50.5454 -3.86028 -0.75803 0
M  V30 533 H 52.5604 -4.6441 -1.74752 0
M  V30 534 N 51.7335 -0.305618 -1.54608 0
M  V30 535 C 52.9825 0.303098 -1.9941 0
M  V30 536 C 53.2955 1.54648 -1.19764 0
M  V30 537 O 54.5015 2.23007 -1.54855 0
M  V30 538 C 52.9575 0.590588 -3.55021 0
M  V30 539 C 52.5655 -0.634719 -4.43481 0
M  V30 540 C 54.3095 1.16025 -4.08336 0
M  V30 541 C 52.2165 -0.320126 -5.90533 0
M  V30 542 H 51.1465 0.117031 -0.744862 0
M  V30 543 H 53.7975 -0.415045 -1.78745 0
M  V30 544 H 52.1795 1.36845 -3.71604 0
M  V30 545 H 53.3535 -1.41079 -4.38672 0
M  V30 546 H 51.6685 -1.12333 -4.00962 0
M  V30 547 H 54.2655 1.40994 -5.15776 0
M  V30 548 H 54.6085 2.10397 -3.5922 0
M  V30 549 H 55.1415 0.443985 -3.95315 0
M  V30 550 H 51.8805 -1.23254 -6.43808 0
M  V30 551 H 51.4005 0.418579 -5.98338 0
M  V30 552 H 53.0795 0.0766241 -6.46955 0
M  V30 553 N 53.2116 1.57565 -0.0334293 0
M  V30 554 C 54.4366 1.96689 0.657895 0
M  V30 555 C 54.8616 0.910057 1.64619 0
M  V30 556 O 54.2196 -0.128598 1.80843 0
M  V30 557 C 54.2676 3.34905 1.33683 0
M  V30 558 O 53.3716 3.31574 2.45219 0
M  V30 559 H 52.7126 0.641205 0.172489 0
M  V30 560 H 55.2426 2.04372 -0.0965621 0
M  V30 561 H 55.2526 3.71234 1.69262 0
M  V30 562 H 53.9276 4.11366 0.612411 0
M  V30 563 H 52.5046 3.06968 2.11719 0
M  V30 564 N 54.6897 -0.239769 1.55765 0
M  V30 565 C 55.9177 -0.98417 1.81994 0
M  V30 566 C 56.3327 -1.7867 0.610124 0
M  V30 567 O 55.6897 -1.77571 -0.421271 0
M  V30 568 C 55.7407 -1.91635 3.06526 0
M  V30 569 O 55.4617 -1.14629 4.22838 0
M  V30 570 C 56.9627 -2.77616 3.45607 0
M  V30 571 H 54.1827 -0.28928 0.605441 0
M  V30 572 H 56.7267 -0.260499 2.02834 0
M  V30 573 H 54.8817 -2.5942 2.87715 0
M  V30 574 H 55.2957 -1.77745 4.93464 0
M  V30 575 H 56.7697 -3.38759 4.35828 0
M  V30 576 H 57.2467 -3.4909 2.6652 0
M  V30 577 H 57.8527 -2.15271 3.66795 0
M  V30 578 N 56.1678 -1.49265 -0.50573 0
M  V30 579 C 57.1148 -1.65585 -1.6078 0
M  V30 580 C 58.0848 -0.497396 -1.58478 0
M  V30 581 O 59.2698 -0.72385 -1.76536 0
M  V30 582 C 56.4098 -1.72408 -2.98948 0
M  V30 583 C 55.5228 -2.99525 -3.11301 0
M  V30 584 C 54.6578 -2.97356 -4.40174 0
M  V30 585 C 53.6968 -4.19074 -4.46143 0
M  V30 586 N 52.8338 -4.14841 -5.66437 0
M  V30 587 H 57.6738 -2.59688 -1.46172 0
M  V30 588 H 55.2108 -1.28761 -0.711261 0
M  V30 589 H 57.1688 -1.74344 -3.79025 0
M  V30 590 H 55.7988 -0.817753 -3.1227 0
M  V30 591 H 54.8508 -3.07222 -2.24318 0
M  V30 592 H 56.1628 -3.89518 -3.11572 0
M  V30 593 H 55.3168 -2.97829 -5.28567 0
M  V30 594 H 54.0558 -2.05133 -4.42461 0
M  V30 595 H 53.0608 -4.1885 -3.56153 0
M  V30 596 H 54.2858 -5.12483 -4.45575 0
M  V30 597 H 52.2318 -3.25453 -5.69575 0
M  V30 598 H 52.1488 -4.98564 -5.68304 0
M  V30 599 H 53.4168 -4.1941 -6.57051 0
M  V30 600 N 57.6459 0.756429 -1.3826 0
M  V30 601 C 58.5559 1.9009 -1.37488 0
M  V30 602 C 59.5719 1.71855 -0.272366 0
M  V30 603 O 60.7479 1.94827 -0.510318 0
M  V30 604 C 57.8129 3.25421 -1.19592 0
M  V30 605 C 56.8739 3.56202 -2.39622 0
M  V30 606 C 56.1069 4.85075 -2.2257 0
M  V30 607 O 56.3299 5.57246 -1.21793 0
M  V30 608 O 55.2639 5.15269 -3.11098 0
M  V30 609 H 59.0899 1.93695 -2.33914 0
M  V30 610 H 56.6749 0.901313 -1.1915 0
M  V30 611 H 58.5569 4.06337 -1.11661 0
M  V30 612 H 57.2319 3.22634 -0.262486 0
M  V30 613 H 56.1389 2.75458 -2.53128 0
M  V30 614 H 57.4719 3.63747 -3.31586 0
M  V30 615 N 59.124 1.23083 0.984299 0
M  V30 616 C 60.054 1.03292 2.09411 0
M  V30 617 C 61.035 -0.048923 1.7003 0
M  V30 618 O 62.22 0.114967 1.93859 0
M  V30 619 C 59.35 0.619155 3.41736 0
M  V30 620 C 58.304 1.64791 3.95004 0
M  V30 621 C 57.63 1.0897 5.23478 0
M  V30 622 C 58.93 3.03999 4.24714 0
M  V30 623 H 60.624 1.96119 2.26225 0
M  V30 624 H 58.17 0.944344 1.08711 0
M  V30 625 H 60.123 0.467777 4.18796 0
M  V30 626 H 58.847 -0.344786 3.24775 0
M  V30 627 H 57.506 1.78721 3.20085 0
M  V30 628 H 57.154 0.11686 5.02864 0
M  V30 629 H 56.854 1.77704 5.60085 0
M  V30 630 H 58.378 0.950093 6.03163 0
M  V30 631 H 59.792 2.93393 4.92538 0
M  V30 632 H 58.189 3.69936 4.72512 0
M  V30 633 H 59.259 3.53285 3.32142 0
M  V30 634 N 60.6021 -1.18246 1.0419 0
M  V30 635 C 61.8501 -1.87886 0.744543 0
M  V30 636 C 62.1711 -1.8082 -0.730006 0
M  V30 637 O 61.4411 -1.22736 -1.52685 0
M  V30 638 H 60.0211 -0.695556 0.272417 0
M  V30 639 H 62.6831 -1.43494 1.31892 0
M  V30 640 H 61.7791 -2.9389 1.05049 0
M  V30 641 N 62.0802 -0.821533 -1.34494 0
M  V30 642 C 63.0272 -0.240397 -2.29545 0
M  V30 643 C 63.9972 0.634031 -1.53523 0
M  V30 644 O 65.1822 0.575966 -1.81899 0
M  V30 645 C 62.3222 0.592869 -3.39969 0
M  V30 646 C 61.4352 -0.30365 -4.30932 0
M  V30 647 C 60.5702 0.539049 -5.28458 0
M  V30 648 C 59.6092 -0.356942 -6.11058 0
M  V30 649 N 58.7462 0.446603 -7.00678 0
M  V30 650 H 63.5862 -1.05632 -2.7865 0
M  V30 651 H 61.1232 -0.532413 -1.37127 0
M  V30 652 H 63.0812 1.09129 -4.02675 0
M  V30 653 H 61.7112 1.37392 -2.92102 0
M  V30 654 H 60.7632 -0.920276 -3.691 0
M  V30 655 H 62.0752 -0.992661 -4.88823 0
M  V30 656 H 61.2292 1.102 -5.96608 0
M  V30 657 H 59.9682 1.26157 -4.71101 0
M  V30 658 H 58.9732 -0.932047 -5.41842 0
M  V30 659 H 60.1982 -1.07755 -6.70497 0
M  V30 660 H 58.1442 1.15282 -6.45791 0
M  V30 661 H 58.0612 -0.184048 -7.55776 0
M  V30 662 H 59.3292 0.992352 -7.73158 0
M  V30 663 N 63.5583 1.46682 -0.576371 0
M  V30 664 C 64.8043 2.02712 -0.0596221 0
M  V30 665 C 65.1373 1.44765 1.29448 0
M  V30 666 O 64.4123 0.610355 1.84675 0
M  V30 667 C 64.6953 3.60098 0.0129503 0
M  V30 668 C 64.5483 4.28441 -1.3696 0
M  V30 669 C 65.8673 4.34224 0.71678 0
M  V30 670 H 62.9863 0.736637 -0.0231407 0
M  V30 671 H 65.6283 1.74898 -0.742351 0
M  V30 672 H 63.7783 3.83926 0.594378 0
M  V30 673 H 65.4503 4.15896 -1.9957 0
M  V30 674 H 63.6933 3.8805 -1.93907 0
M  V30 675 H 64.3643 5.3716 -1.27135 0
M  V30 676 H 66.8403 4.15503 0.222908 0
M  V30 677 H 65.7163 5.43936 0.73657 0
M  V30 678 H 65.9773 4.04823 1.77682 0
M  V30 679 N 65.0364 0.313813 1.54444 0
M  V30 680 C 65.9694 -0.598866 2.20202 0
M  V30 681 C 66.9474 -1.12318 1.17573 0
M  V30 682 O 68.1314 -1.18899 1.46271 0
M  V30 683 C 65.2584 -1.82071 2.85601 0
M  V30 684 C 64.3044 -1.42851 4.01865 0
M  V30 685 S 65.1374 -0.473512 5.33402 0
M  V30 686 C 66.2934 -1.70286 6.0229 0
M  V30 687 H 66.5264 -0.0402532 2.97273 0
M  V30 688 H 64.0594 0.0979165 1.54089 0
M  V30 689 H 66.0174 -2.52184 3.23904 0
M  V30 690 H 64.6784 -2.3505 2.08351 0
M  V30 691 H 63.8714 -2.33871 4.46453 0
M  V30 692 H 63.4734 -0.807198 3.65185 0
M  V30 693 H 65.7654 -2.64168 6.23876 0
M  V30 694 H 66.7084 -1.29932 6.96077 0
M  V30 695 H 67.1164 -1.88541 5.32083 0
M  V30 696 N 66.5145 -1.57545 0.0417849 0
M  V30 697 C 67.9305 -1.56467 -0.314704 0
M  V30 698 C 68.1305 -1.04859 -1.72066 0
M  V30 699 O 67.1865 -0.700983 -2.42575 0
M  V30 700 C 68.4995 -3.00317 -0.15174 0
M  V30 701 C 70.0475 -3.12201 -0.223553 0
M  V30 702 C 70.5225 -4.57913 -0.0892295 0
M  V30 703 N 72.0135 -4.6297 -0.145808 0
M  V30 704 C 72.7485 -5.73362 -0.0658459 0
M  V30 705 N 72.2445 -6.92769 0.0659282 0
M  V30 706 N 74.0375 -5.6197 -0.12075 0
M  V30 707 H 66.1885 -1.89416 0.961014 0
M  V30 708 H 68.4515 -0.871862 0.372237 0
M  V30 709 H 68.1575 -3.42073 0.817254 0
M  V30 710 H 68.0315 -3.65892 -0.916692 0
M  V30 711 H 70.4185 -2.70349 -1.18301 0
M  V30 712 H 70.4995 -2.49323 0.571994 0
M  V30 713 H 70.1435 -5.00448 0.866867 0
M  V30 714 H 70.0735 -5.18786 -0.903802 0
M  V30 715 H 72.5645 -3.7709 -0.247286 0
M  V30 716 H 72.8775 -7.72707 0.119905 0
M  V30 717 H 71.2225 -6.94927 0.100885 0
M  V30 718 H 74.4135 -4.67572 -0.222187 0
M  V30 719 H 74.5865 -6.47977 -0.0549735 0
M  V30 720 N 67.9926 0.231505 -1.5589 0
M  V30 721 C 68.9256 1.31369 -1.86595 0
M  V30 722 C 69.9036 1.45671 -0.722397 0
M  V30 723 O 71.0876 1.61642 -0.969743 0
M  V30 724 C 68.2146 2.68529 -2.06421 0
M  V30 725 C 67.2606 2.71295 -3.29092 0
M  V30 726 S 68.0936 2.26358 -4.85306 0
M  V30 727 C 69.2496 3.65414 -5.08157 0
M  V30 728 H 69.4826 1.05128 -2.78092 0
M  V30 729 H 67.0156 0.433259 -1.48197 0
M  V30 730 H 68.9736 3.47499 -2.18528 0
M  V30 731 H 67.6346 2.91999 -1.15738 0
M  V30 732 H 66.8276 3.72063 -3.39978 0
M  V30 733 H 66.4296 2.0038 -3.15791 0
M  V30 734 H 68.7216 4.6103 -4.96445 0
M  V30 735 H 69.6646 3.5945 -6.10083 0
M  V30 736 H 70.0726 3.5864 -4.35933 0
M  V30 737 N 69.4707 1.49531 0.497807 0
M  V30 738 C 70.4007 1.6935 1.60757 0
M  V30 739 C 71.3817 0.542218 1.61227 0
M  V30 740 O 72.5667 0.778417 1.77917 0
M  V30 741 C 69.6967 1.76298 2.99226 0
M  V30 742 C 68.6507 2.91248 3.13622 0
M  V30 743 C 67.9767 2.83312 4.53474 0
M  V30 744 C 69.2767 4.3214 2.93346 0
M  V30 745 H 70.9707 2.62263 1.44425 0
M  V30 746 H 68.5167 1.26208 0.693367 0
M  V30 747 H 70.4697 1.88749 3.76765 0
M  V30 748 H 69.1937 0.799871 3.16654 0
M  V30 749 H 67.8527 2.78404 2.38509 0
M  V30 750 H 67.5007 1.84902 4.67782 0
M  V30 751 H 67.2007 3.60465 4.64046 0
M  V30 752 H 68.7247 2.97775 5.33069 0
M  V30 753 H 70.1387 4.45649 3.60652 0
M  V30 754 H 68.5357 5.1054 3.15387 0
M  V30 755 H 69.6057 4.46363 1.89441 0
M  V30 756 N 70.9488 -0.749086 1.3866 0
M  V30 757 C 72.1968 -1.50535 1.34847 0
M  V30 758 C 72.5178 -1.94909 -0.0595016 0
M  V30 759 O 71.7878 -1.67973 -1.00806 0
M  V30 760 H 70.3678 -0.558395 0.49619 0
M  V30 761 H 73.0298 -0.890165 1.73384 0
M  V30 762 H 72.1258 -2.39413 2.00219 0
M  V30 763 N 72.4269 -1.23603 -0.977757 0
M  V30 764 C 73.3589 -0.977369 -2.07317 0
M  V30 765 C 74.3719 0.0495845 -1.62724 0
M  V30 766 O 75.5609 -0.186261 -1.77526 0
M  V30 767 C 72.6609 -0.451216 -3.35883 0
M  V30 768 C 71.8339 -1.53896 -4.09432 0
M  V30 769 C 70.8929 -1.01721 -5.16274 0
M  V30 770 O 69.9189 -1.70676 -5.43009 0
M  V30 771 N 71.1209 0.153594 -5.80297 0
M  V30 772 H 73.8859 -1.92047 -2.30082 0
M  V30 773 H 71.4469 -1.14497 -1.14465 0
M  V30 774 H 73.4389 -0.0871574 -4.04606 0
M  V30 775 H 72.0089 0.397368 -3.10064 0
M  V30 776 H 71.2289 -2.07566 -3.35127 0
M  V30 777 H 72.5169 -2.27037 -4.55337 0
M  V30 778 H 71.9149 0.730323 -5.60966 0
M  V30 779 H 70.4719 0.458892 -6.50183 0
M  V30 780 N 73.905 1.17692 -1.04816 0
M  V30 781 C 74.853 2.23632 -0.63966 0
M  V30 782 C 75.847 1.6601 0.337219 0
M  V30 783 O 77.053 1.78844 0.203693 0
M  V30 784 H 73.428 0.727949 -0.188665 0
M  V30 785 H 75.399 2.55387 -1.54337 0
M  V30 786 C 74.148 3.4769 -0.0264051 0
M  V30 787 H 73.471 3.92331 -0.769164 0
M  V30 788 H 74.911 4.23418 0.222098 0
M  V30 789 C 73.37 3.13807 1.22584 0
M  V30 790 O 73.9 3.28236 2.31569 0
M  V30 791 N 72.106 2.68065 1.12202 0
M  V30 792 H 71.653 2.56525 0.235133 0
M  V30 793 H 71.611 2.45767 1.96076 0
M  V30 794 N 75.3831 0.828654 1.34056 0
M  V30 795 C 76.7941 0.477534 1.8049 0
M  V30 796 C 77.1451 -1.00258 1.6865 0
M  V30 797 O 76.2701 -1.78057 1.22982 0
M  V30 798 C 76.8651 0.860018 3.27703 0
M  V30 799 C 75.4241 0.561185 3.72193 0
M  V30 800 C 74.5711 1.07385 2.55663 0
M  V30 801 H 77.5221 1.0183 1.21722 0
M  V30 802 H 77.5431 0.166038 3.80138 0
M  V30 803 H 77.0551 1.93731 3.36288 0
M  V30 804 H 75.1561 -0.506465 3.69142 0
M  V30 805 H 75.2691 1.10926 4.66082 0
M  V30 806 H 73.6331 0.495149 2.49841 0
M  V30 807 H 74.4161 2.15771 2.67016 0
M  V30 808 N 76.8612 -1.46375 0.584142 0
M  V30 809 C 78.0892 -2.06761 0.0759296 0
M  V30 810 C 78.5042 -1.43266 -1.22965 0
M  V30 811 O 77.8612 -0.538458 -1.74376 0
M  V30 812 C 77.9122 -3.61375 -0.0950384 0
M  V30 813 O 77.6332 -4.22495 1.15887 0
M  V30 814 C 79.1342 -4.38693 -0.637434 0
M  V30 815 H 76.3542 -0.668479 0.0581075 0
M  V30 816 H 78.8982 -1.8798 0.805218 0
M  V30 817 H 77.0532 -3.79578 -0.774554 0
M  V30 818 H 77.4672 -5.15385 0.973598 0
M  V30 819 H 78.9412 -5.47464 -0.706237 0
M  V30 820 H 79.4182 -4.06836 -1.65472 0
M  V30 821 H 80.0242 -4.25299 0.00725967 0
M  V30 822 N 78.3393 -0.321999 -1.54275 0
M  V30 823 C 79.7503 0.166384 -1.85957 0
M  V30 824 C 80.1013 1.51747 -1.24367 0
M  V30 825 O 79.2263 2.09317 -0.549124 0
M  V30 826 C 79.8213 0.308681 -3.37391 0
M  V30 827 C 78.3803 0.741286 -3.69028 0
M  V30 828 C 77.5273 -0.137937 -2.76957 0
M  V30 829 H 80.4783 -0.542335 -1.49146 0
M  V30 830 H 80.4993 1.13984 -3.63026 0
M  V30 831 H 80.0113 -0.674809 -3.82188 0
M  V30 832 H 78.1123 1.73458 -3.29762 0
M  V30 833 H 78.2253 0.546118 -4.75977 0
M  V30 834 H 76.5893 0.386251 -2.51754 0
M  V30 835 H 77.3723 -1.11816 -3.2458 0
M  V30 836 N 79.8174 1.5752 -0.0501392 0
M  V30 837 C 80.7274 2.14952 0.939827 0
M  V30 838 C 81.7434 1.10706 1.34239 0
M  V30 839 O 82.9194 1.42869 1.41952 0
M  V30 840 C 79.9844 2.68232 2.19665 0
M  V30 841 C 79.0454 3.87272 1.85253 0
M  V30 842 C 78.2784 4.38002 3.04943 0
M  V30 843 O 78.5014 3.87811 4.18281 0
M  V30 844 O 77.4354 5.29602 2.86017 0
M  V30 845 H 81.2614 2.9986 0.481392 0
M  V30 846 H 78.8464 1.4841 0.171699 0
M  V30 847 H 80.7284 3.02475 2.93406 0
M  V30 848 H 79.4034 1.86395 2.64648 0
M  V30 849 H 78.3104 3.5792 1.0883 0
M  V30 850 H 79.6434 4.70336 1.4507 0
M  V30 851 N 81.2955 -0.223234 1.56011 0
M  V30 852 C 82.2055 -1.29766 1.95443 0
M  V30 853 C 83.2215 -1.51373 0.858028 0
M  V30 854 O 84.3975 -1.64536 1.16146 0
M  V30 855 C 81.4625 -2.62772 2.26167 0
M  V30 856 C 80.5235 -2.49482 3.49367 0
M  V30 857 C 79.7565 -3.76145 3.78616 0
M  V30 858 O 79.9795 -4.79087 3.09568 0
M  V30 859 O 78.9135 -3.73358 4.72109 0
M  V30 860 H 82.7395 -0.99309 2.87004 0
M  V30 861 H 80.3245 -0.425958 1.43199 0
M  V30 862 H 82.2065 -3.41327 2.47131 0
M  V30 863 H 80.8815 -2.92913 1.37781 0
M  V30 864 H 79.7885 -1.69133 3.33684 0
M  V30 865 H 81.1215 -2.2428 4.38131 0
M  V30 866 N 82.7736 -1.49793 -0.48987 0
M  V30 867 C 83.7036 -1.70201 -1.59856 0
M  V30 868 C 84.6846 -0.55076 -1.60937 0
M  V30 869 O 85.8696 -0.787841 -1.77501 0
M  V30 870 C 82.9996 -1.77882 -2.98287 0
M  V30 871 C 81.9536 -2.92907 -3.12073 0
M  V30 872 C 81.2796 -2.85712 -4.51965 0
M  V30 873 C 82.5796 -4.3369 -2.91051 0
M  V30 874 H 84.2736 -2.63025 -1.43032 0
M  V30 875 H 81.8196 -1.26574 -0.686664 0
M  V30 876 H 83.7726 -1.90744 -3.75759 0
M  V30 877 H 82.4966 -0.816653 -3.16225 0
M  V30 878 H 81.1556 -2.79665 -2.37029 0
M  V30 879 H 80.8036 -1.8738 -4.66795 0
M  V30 880 H 80.5036 -3.62921 -4.62128 0
M  V30 881 H 82.0276 -3.00598 -5.31482 0
M  V30 882 H 83.4416 -4.47555 -3.58284 0
M  V30 883 H 81.8386 -5.12205 -3.12675 0
M  V30 884 H 82.9086 -4.47362 -1.87071 0
M  V30 885 N 84.2517 0.741722 -1.39055 0
M  V30 886 C 85.1837 1.8657 -1.33133 0
M  V30 887 C 86.1967 1.61001 -0.241329 0
M  V30 888 O 87.3857 1.7136 -0.499784 0
M  V30 889 C 84.4857 3.22457 -1.04283 0
M  V30 890 C 83.6587 3.75435 -2.24427 0
M  V30 891 C 82.7177 4.89867 -1.92138 0
M  V30 892 O 81.7437 5.03879 -2.64754 0
M  V30 893 N 82.9457 5.73738 -0.88347 0
M  V30 894 H 85.7107 1.92156 -2.29991 0
M  V30 895 H 83.2717 0.922172 -1.3307 0
M  V30 896 H 85.2637 3.9657 -0.807128 0
M  V30 897 H 83.8337 3.12181 -0.161807 0
M  V30 898 H 83.0537 2.92751 -2.6399 0
M  V30 899 H 84.3417 4.07563 -3.04581 0
M  V30 900 H 83.7397 5.64999 -0.281517 0
M  V30 901 H 82.2967 6.47947 -0.707662 0
M  V30 902 N 85.7298 1.2412 0.971189 0
M  V30 903 C 86.6398 1.04747 2.09917 0
M  V30 904 C 87.6558 -0.0107162 1.73997 0
M  V30 905 O 88.8318 0.186714 2.00533 0
M  V30 906 C 85.8968 0.650828 3.40537 0
M  V30 907 C 84.9578 1.7851 3.90426 0
M  V30 908 C 84.1908 1.40729 5.14812 0
M  V30 909 O 84.4138 0.29557 5.69634 0
M  V30 910 O 83.3478 2.23168 5.58999 0
M  V30 911 H 87.1738 1.99304 2.29154 0
M  V30 912 H 84.7588 1.02908 1.08307 0
M  V30 913 H 86.6408 0.440992 4.19086 0
M  V30 914 H 85.3158 -0.265649 3.22608 0
M  V30 915 H 84.2228 2.04966 3.12953 0
M  V30 916 H 85.5558 2.68023 4.12825 0
M  V30 917 N 87.2079 -1.17134 1.05439 0
M  V30 918 C 88.1409 -2.2012 0.601855 0
M  V30 919 C 89.1189 -1.58314 -0.370854 0
M  V30 920 O 90.3029 -1.8638 -0.281882 0
M  V30 921 C 87.4299 -3.38491 -0.118868 0
M  V30 922 C 86.4759 -4.18752 0.809242 0
M  V30 923 S 87.3089 -4.83602 2.29977 0
M  V30 924 C 88.4649 -6.0536 1.59029 0
M  V30 925 H 88.6979 -2.58165 1.47438 0
M  V30 926 H 86.2309 -1.27788 0.866573 0
M  V30 927 H 88.1889 -4.07084 -0.528495 0
M  V30 928 H 86.8499 -2.98829 -0.967465 0
M  V30 929 H 86.0429 -5.03373 0.251379 0
M  V30 930 H 85.6449 -3.5561 1.15835 0
M  V30 931 H 87.9369 -6.71615 0.891017 0
M  V30 932 H 88.8799 -6.65679 2.41407 0
M  V30 933 H 89.2879 -5.54138 1.07663 0
M  V30 934 N 88.686 -0.835752 -1.33615 0
M  V30 935 C 89.935 -0.426289 -1.97144 0
M  V30 936 C 90.248 1.01912 -1.66953 0
M  V30 937 O 91.454 1.53311 -2.24072 0
M  V30 938 C 89.91 -0.711321 -3.52801 0
M  V30 939 C 89.518 -2.1712 -3.91871 0
M  V30 940 C 91.262 -0.368654 -4.22896 0
M  V30 941 C 89.169 -2.40044 -5.40493 0
M  V30 942 H 88.099 -0.15567 -0.737755 0
M  V30 943 H 90.75 -1.0239 -1.52278 0
M  V30 944 H 89.132 -0.0433766 -3.95976 0
M  V30 945 H 90.306 -2.87936 -3.59763 0
M  V30 946 H 88.621 -2.47654 -3.34749 0
M  V30 947 H 91.218 -0.517601 -5.32189 0
M  V30 948 H 91.561 0.688078 -4.10574 0
M  V30 949 H 92.094 -0.991702 -3.8524 0
M  V30 950 H 88.833 -3.44271 -5.57815 0
M  V30 951 H 88.353 -1.73785 -5.74072 0
M  V30 952 H 90.032 -2.23042 -6.0734 0
M  V30 953 N 90.1641 1.46063 -0.591896 0
M  V30 954 C 91.4411 1.95595 -0.0137119 0
M  V30 955 C 91.8211 1.5345 1.4497 0
M  V30 956 O 91.1691 0.789543 2.14426 0
M  V30 957 C 91.3791 3.48453 -0.195373 0
M  V30 958 C 92.7271 4.24546 -0.0679765 0
M  V30 959 O 93.7511 3.55982 -0.124681 0
M  V30 960 O 92.6101 5.46467 0.0600579 0
M  V30 961 H 89.7041 0.825795 0.0446279 0
M  V30 962 H 92.2501 1.56303 -0.660859 0
M  V30 963 H 91.0221 3.72045 -1.21235 0
M  V30 964 H 90.6451 3.94597 0.487775 0
M  V30 965 N 91.6422 0.330177 1.54103 0
M  V30 966 C 92.5522 -0.541534 2.28264 0
M  V30 967 C 93.5682 -1.12351 1.32866 0
M  V30 968 O 94.7442 -1.14206 1.65888 0
M  V30 969 C 91.8092 -1.68322 3.03098 0
M  V30 970 C 90.8702 -1.13238 4.14096 0
M  V30 971 C 90.1032 -2.21966 4.85352 0
M  V30 972 O 90.3262 -3.42437 4.56172 0
M  V30 973 O 89.2602 -1.87013 5.7211 0
M  V30 974 H 93.0862 0.060938 3.03639 0
M  V30 975 H 90.6712 0.09565 1.49093 0
M  V30 976 H 92.5532 -2.34777 3.49939 0
M  V30 977 H 91.2282 -2.27176 2.30593 0
M  V30 978 H 90.1352 -0.432736 3.71589 0
M  V30 979 H 91.4682 -0.588898 4.88664 0
M  V30 980 N 93.1203 -1.57491 0.0584922 0
M  V30 981 C 94.3663 -1.93264 -0.614558 0
M  V30 982 C 94.6993 -0.937717 -1.7006 0
M  V30 983 O 93.9743 0.0351652 -1.94468 0
M  V30 984 C 94.2573 -3.3938 -1.20386 0
M  V30 985 C 94.1103 -4.49625 -0.125375 0
M  V30 986 C 95.4293 -3.86039 -2.11334 0
M  V30 987 H 92.5483 -0.702791 -0.221933 0
M  V30 988 H 95.1903 -1.8961 0.12175 0
M  V30 989 H 93.3403 -3.42626 -1.83139 0
M  V30 990 H 95.0123 -4.58506 0.506971 0
M  V30 991 H 93.2553 -4.30354 0.545672 0
M  V30 992 H 93.9263 -5.48967 -0.577861 0
M  V30 993 H 96.4023 -3.84716 -1.58534 0
M  V30 994 H 95.2783 -4.88914 -2.49507 0
M  V30 995 H 95.5393 -3.23215 -3.01636 0
M  V30 996 N 94.5984 0.214957 -1.56127 0
M  V30 997 C 95.8754 0.963093 -1.70247 0
M  V30 998 C 96.2554 2.02166 -0.60764 0
M  V30 999 O 95.6034 2.25244 0.384385 0
M  V30 1000 C 95.8134 1.56756 -3.11815 0
M  V30 1001 C 97.1614 2.0573 -3.7143 0
M  V30 1002 O 98.1854 1.66637 -3.14818 0
M  V30 1003 O 97.0444 2.77603 -4.70743 0
M  V30 1004 H 94.1384 0.450321 -0.693643 0
M  V30 1005 H 96.6844 0.206219 -1.68442 0
M  V30 1006 H 95.4564 0.803533 -3.82961 0
M  V30 1007 H 95.0794 2.3898 -3.17765 0
M  V30 1008 N 96.0765 1.50051 0.48192 0
M  V30 1009 C 96.9865 1.7089 1.60728 0
M  V30 1010 C 98.0025 0.591788 1.63627 0
M  V30 1011 O 99.1785 0.868817 1.81696 0
M  V30 1012 C 96.2435 1.78855 2.97005 0
M  V30 1013 C 95.3045 3.02537 3.04581 0
M  V30 1014 C 94.5375 3.10112 4.34357 0
M  V30 1015 O 94.7605 2.24765 5.24249 0
M  V30 1016 O 93.6945 4.02747 4.47301 0
M  V30 1017 H 97.5205 2.66264 1.46072 0
M  V30 1018 H 95.1055 1.34018 0.660264 0
M  V30 1019 H 96.9875 1.86336 3.77964 0
M  V30 1020 H 95.6625 0.866628 3.11883 0
M  V30 1021 H 94.5695 3.00563 2.22739 0
M  V30 1022 H 95.9025 3.94272 2.94636 0
M  V30 1023 N 97.5546 -0.734337 1.39446 0
M  V30 1024 C 98.8316 -1.48579 1.27215 0
M  V30 1025 C 99.2116 -2.1077 -0.117968 0
M  V30 1026 O 98.5596 -1.98646 -1.12924 0
M  V30 1027 C 98.7696 -2.53667 2.39696 0
M  V30 1028 C 100.118 -3.20031 2.79044 0
M  V30 1029 O 101.142 -2.6398 2.39151 0
M  V30 1030 O 100.001 -4.21455 3.47905 0
M  V30 1031 H 97.0946 -0.659816 0.49857 0
M  V30 1032 H 99.6406 -0.768106 1.51322 0
M  V30 1033 H 98.4126 -2.06096 3.32626 0
M  V30 1034 H 98.0356 -3.32994 2.17258 0
M  V30 1035 N 99.0327 -1.24633 -0.964593 0
M  V30 1036 C 100.281 -1.08573 -1.70459 0
M  V30 1037 C 100.602 0.375655 -1.91347 0
M  V30 1038 O 99.8717 1.26779 -1.49345 0
M  V30 1039 H 98.4517 -0.398784 -0.631649 0
M  V30 1040 H 101.114 -1.56601 -1.16026 0
M  V30 1041 H 100.21 -1.58623 -2.68785 0
M  V30 1042 N 100.511 1.16574 -1.06058 0
M  V30 1043 C 101.736 1.91493 -0.796562 0
M  V30 1044 C 102.161 1.76773 0.642868 0
M  V30 1045 O 101.519 1.09142 1.44768 0
M  V30 1046 C 101.567 3.40293 -1.19303 0
M  V30 1047 O 100.671 4.11074 -0.330394 0
M  V30 1048 H 100.012 0.596678 -0.291326 0
M  V30 1049 H 102.542 1.47708 -1.41575 0
M  V30 1050 H 102.552 3.91057 -1.16356 0
M  V30 1051 H 101.227 3.50326 -2.24153 0
M  V30 1052 H 99.8038 3.70513 -0.421225 0
M  V30 1053 N 101.989 0.842826 1.3317 0
M  V30 1054 C 103.237 0.439577 1.97262 0
M  V30 1055 C 103.558 -1.00548 1.67078 0
M  V30 1056 O 102.828 -1.70098 0.971779 0
M  V30 1057 H 101.408 0.159558 0.72976 0
M  V30 1058 H 104.07 1.07665 1.62463 0
M  V30 1059 H 103.166 0.574886 3.0676 0
M  V30 1060 N 103.467 -1.45747 0.599634 0
M  V30 1061 C 104.695 -2.06668 0.0978551 0
M  V30 1062 C 105.11 -1.44562 -1.21439 0
M  V30 1063 O 104.467 -0.556923 -1.73795 0
M  V30 1064 C 104.518 -3.61456 -0.0567044 0
M  V30 1065 O 104.239 -4.21242 1.20361 0
M  V30 1066 C 105.74 -4.39345 -0.590869 0
M  V30 1067 H 102.96 -0.667825 0.0651943 0
M  V30 1068 H 105.504 -1.87115 0.82511 0
M  V30 1069 H 103.659 -3.80378 -0.734251 0
M  V30 1070 H 104.073 -5.14323 1.02821 0
M  V30 1071 H 105.547 -5.48182 -0.648131 0
M  V30 1072 H 106.024 -4.08568 -1.61147 0
M  V30 1073 H 106.63 -4.25268 0.0523679 0
M  V30 1074 N 104.945 -0.338344 -1.53925 0
M  V30 1075 C 106.191 0.260143 -2.01125 0
M  V30 1076 C 106.524 1.50617 -1.22589 0
M  V30 1077 O 105.799 1.91979 -0.312113 0
M  V30 1078 C 106.082 0.579499 -3.55407 0
M  V30 1079 C 105.935 -0.678264 -4.44657 0
M  V30 1080 C 107.254 1.39122 -4.17532 0
M  V30 1081 H 104.373 0.0930772 -0.731099 0
M  V30 1082 H 107.015 -0.457852 -1.84401 0
M  V30 1083 H 105.165 1.19118 -3.69788 0
M  V30 1084 H 106.837 -1.31631 -4.42121 0
M  V30 1085 H 105.08 -1.3042 -4.13731 0
M  V30 1086 H 105.751 -0.410143 -5.50474 0
M  V30 1087 H 108.227 0.874035 -4.06817 0
M  V30 1088 H 107.103 1.58342 -5.25565 0
M  V30 1089 H 107.364 2.39178 -3.71815 0
M  V30 1090 N 106.423 1.57458 -0.0668435 0
M  V30 1091 C 107.7 1.8469 0.644132 0
M  V30 1092 C 108.08 0.958343 1.88093 0
M  V30 1093 O 107.428 0.0233579 2.28488 0
M  V30 1094 C 107.638 3.34767 0.986509 0
M  V30 1095 C 108.986 4.02159 1.36212 0
M  V30 1096 O 110.01 3.39484 1.07839 0
M  V30 1097 O 108.869 5.12694 1.89227 0
M  V30 1098 H 105.963 0.762816 0.319437 0
M  V30 1099 H 108.509 1.6942 -0.0973986 0
M  V30 1100 H 107.281 3.91151 0.107883 0
M  V30 1101 H 106.904 3.55281 1.78497 0
M  V30 1102 N 107.901 -0.206675 1.56239 0
M  V30 1103 C 109.148 -0.928842 1.79941 0
M  V30 1104 C 109.476 -1.83734 0.638131 0
M  V30 1105 O 108.731 -1.92039 -0.376746 0
M  V30 1106 C 109.03 -1.78675 3.09532 0
M  V30 1107 C 108.696 -1.03022 4.38973 0
M  V30 1108 C 107.358 -0.821302 4.74139 0
M  V30 1109 C 109.71 -0.497081 5.18824 0
M  V30 1110 C 107.038 -0.0675719 5.86661 0
M  V30 1111 C 109.39 0.24338 6.32132 0
M  V30 1112 C 108.054 0.463422 6.65889 0
M  V30 1113 H 107.324 -0.339887 0.658451 0
M  V30 1114 H 109.971 -0.195977 1.90495 0
M  V30 1115 H 108.276 -2.58794 2.94165 0
M  V30 1116 H 109.973 -2.34792 3.25075 0
M  V30 1117 H 106.563 -1.20306 4.11369 0
M  V30 1118 H 110.747 -0.645921 4.92079 0
M  V30 1119 H 106.003 0.112995 6.11296 0
M  V30 1120 H 110.177 0.66393 6.93228 0
M  V30 1121 H 107.804 1.04938 7.52922 0
M  V30 1122 N 109.379 -1.50304 -0.473955 0
M  V30 1123 C 110.656 -1.51667 -1.23518 0
M  V30 1124 C 111.036 -0.259701 -2.09496 0
M  V30 1125 O 110.384 0.756986 -2.15597 0
M  V30 1126 C 110.594 -2.81082 -2.06868 0
M  V30 1127 C 111.942 -3.31631 -2.65153 0
M  V30 1128 O 112.966 -2.82384 -2.17113 0
M  V30 1129 O 111.825 -4.17471 -3.52675 0
M  V30 1130 H 108.919 -0.60822 -0.560355 0
M  V30 1131 H 111.465 -1.62592 -0.486011 0
M  V30 1132 H 110.237 -3.64041 -1.4349 0
M  V30 1133 H 109.86 -2.73146 -2.88924 0
M  V30 1134 N 110.857 0.726932 -1.39834 0
M  V30 1135 C 111.767 1.87131 -1.41489 0
M  V30 1136 C 112.783 1.71239 -0.308757 0
M  V30 1137 O 113.959 1.93701 -0.551529 0
M  V30 1138 C 111.024 3.22811 -1.26468 0
M  V30 1139 C 110.085 3.51039 -2.47124 0
M  V30 1140 C 109.318 4.80245 -2.3281 0
M  V30 1141 O 109.541 5.54537 -1.33585 0
M  V30 1142 O 108.475 5.08554 -3.21957 0
M  V30 1143 H 112.301 1.8869 -2.3797 0
M  V30 1144 H 109.886 0.875837 -1.21035 0
M  V30 1145 H 111.768 4.03877 -1.20255 0
M  V30 1146 H 110.443 3.22005 -0.330862 0
M  V30 1147 H 109.35 2.70027 -2.58914 0
M  V30 1148 H 110.683 3.56632 -3.39227 0
M  V30 1149 N 112.336 1.25143 0.95797 0
M  V30 1150 C 113.583 1.09692 1.70217 0
M  V30 1151 C 113.911 -0.362654 1.91089 0
M  V30 1152 O 113.166 -1.28386 1.47701 0
M  V30 1153 C 113.465 1.79272 3.09187 0
M  V30 1154 C 113.131 3.29196 3.08125 0
M  V30 1155 C 111.793 3.70096 3.07543 0
M  V30 1156 C 114.145 4.24995 3.0171 0
M  V30 1157 C 111.473 5.05213 2.9829 0
M  V30 1158 C 113.825 5.60132 2.93999 0
M  V30 1159 C 112.489 6.00365 2.9175 0
M  V30 1160 H 111.759 0.401393 0.622868 0
M  V30 1161 H 114.406 1.55372 1.11945 0
M  V30 1162 H 112.711 1.26014 3.70982 0
M  V30 1163 H 114.408 1.64773 3.65583 0
M  V30 1164 H 110.998 2.96651 3.09348 0
M  V30 1165 H 115.182 3.9439 3.01281 0
M  V30 1166 H 110.438 5.35569 2.94916 0
M  V30 1167 H 114.612 6.3406 2.87996 0
M  V30 1168 H 112.239 7.05023 2.84336 0
M  V30 1169 N 113.814 -1.1601 1.06675 0
M  V30 1170 C 114.744 -2.22688 0.702307 0
M  V30 1171 C 115.725 -1.67306 -0.307032 0
M  V30 1172 O 116.91 -1.93352 -0.181305 0
M  V30 1173 C 114.04 -3.47178 0.092038 0
M  V30 1174 C 112.994 -4.15477 1.02777 0
M  V30 1175 C 112.32 -5.33963 0.28061 0
M  V30 1176 C 113.62 -4.66019 2.35846 0
M  V30 1177 H 115.314 -2.53429 1.59419 0
M  V30 1178 H 112.86 -1.21813 0.767961 0
M  V30 1179 H 114.813 -4.21037 -0.174814 0
M  V30 1180 H 113.537 -3.15749 -0.834877 0
M  V30 1181 H 112.196 -3.43549 1.27944 0
M  V30 1182 H 111.844 -4.98788 -0.649545 0
M  V30 1183 H 111.544 -5.806 0.904258 0
M  V30 1184 H 113.068 -6.10596 0.021396 0
M  V30 1185 H 114.482 -5.3144 2.15045 0
M  V30 1186 H 112.879 -5.23293 2.93743 0
M  V30 1187 H 113.949 -3.82023 2.98641 0
M  V30 1188 N 115.292 -0.849877 -1.32721 0
M  V30 1189 C 116.538 -0.451591 -1.97708 0
M  V30 1190 C 116.871 0.989175 -1.6712 0
M  V30 1191 O 116.146 1.69334 -0.956891 0
M  V30 1192 C 116.429 -0.685598 -3.53513 0
M  V30 1193 C 116.282 -2.17444 -3.93749 0
M  V30 1194 C 117.601 -0.138874 -4.39881 0
M  V30 1195 H 114.72 -0.16555 -0.718166 0
M  V30 1196 H 117.362 -1.06742 -1.57182 0
M  V30 1197 H 115.512 -0.161416 -3.88165 0
M  V30 1198 H 117.184 -2.76433 -3.693 0
M  V30 1199 H 115.427 -2.65476 -3.43081 0
M  V30 1200 H 116.098 -2.28888 -5.02309 0
M  V30 1201 H 118.574 -0.587068 -4.11938 0
M  V30 1202 H 117.45 -0.332213 -5.47894 0
M  V30 1203 H 117.711 0.95806 -4.31594 0
M  V30 1204 N 116.77 1.45427 -0.607355 0
M  V30 1205 C 117.703 2.27635 0.160482 0
M  V30 1206 C 118.681 1.37122 0.873857 0
M  V30 1207 O 119.865 1.66551 0.882775 0
M  V30 1208 C 116.992 3.15486 1.23231 0
M  V30 1209 C 116.038 4.21939 0.622097 0
M  V30 1210 S 116.871 5.32459 -0.569852 0
M  V30 1211 C 118.027 6.23879 0.502577 0
M  V30 1212 H 118.26 2.9241 -0.536983 0
M  V30 1213 H 115.793 1.49265 -0.394868 0
M  V30 1214 H 117.751 3.66659 1.84585 0
M  V30 1215 H 116.412 2.49977 1.90185 0
M  V30 1216 H 115.605 4.8333 1.42856 0
M  V30 1217 H 115.207 3.73906 0.0837063 0
M  V30 1218 H 117.499 6.63261 1.38171 0
M  V30 1219 H 118.442 7.0806 -0.0751759 0
M  V30 1220 H 118.85 5.58545 0.8178 0
M  V30 1221 N 118.248 0.346503 1.53744 0
M  V30 1222 C 119.181 -0.552023 2.21423 0
M  V30 1223 C 120.159 -1.09798 1.19929 0
M  V30 1224 O 121.343 -1.1577 1.4876 0
M  V30 1225 C 118.47 -1.75972 2.89398 0
M  V30 1226 C 117.516 -1.34295 4.04805 0
M  V30 1227 S 118.349 -0.360263 5.34287 0
M  V30 1228 C 119.505 -1.57473 6.05767 0
M  V30 1229 H 119.738 0.0228119 2.97291 0
M  V30 1230 H 117.271 0.130579 1.53847 0
M  V30 1231 H 119.229 -2.45256 3.2918 0
M  V30 1232 H 117.89 -2.30578 2.1329 0
M  V30 1233 H 117.083 -2.24349 4.51313 0
M  V30 1234 H 116.685 -0.729555 3.66815 0
M  V30 1235 H 118.977 -2.50875 6.29339 0
M  V30 1236 H 119.92 -1.15138 6.98676 0
M  V30 1237 H 120.328 -1.77212 5.35963 0
M  V30 1238 N 119.726 -1.57421 0.075193 0
M  V30 1239 C 120.972 -1.93905 -0.594025 0
M  V30 1240 C 121.305 -0.955701 -1.69056 0
M  V30 1241 O 120.58 0.0145373 -1.94495 0
M  V30 1242 C 120.863 -3.40638 -1.1678 0
M  V30 1243 C 120.716 -4.49733 -0.0776792 0
M  V30 1244 C 122.035 -3.88259 -2.07228 0
M  V30 1245 H 119.154 -0.705105 -0.214466 0
M  V30 1246 H 121.796 -1.8947 0.141854 0
M  V30 1247 H 119.946 -3.44549 -1.79494 0
M  V30 1248 H 121.618 -4.57942 0.555573 0
M  V30 1249 H 119.861 -4.29751 0.591286 0
M  V30 1250 H 120.532 -5.49549 -0.519603 0
M  V30 1251 H 123.008 -3.86376 -1.54445 0
M  V30 1252 H 121.884 -4.91533 -2.44308 0
M  V30 1253 H 122.145 -3.26396 -2.98191 0
M  V30 1254 N 121.204 0.198386 -1.56346 0
M  V30 1255 C 122.62 0.549085 -1.49857 0
M  V30 1256 C 122.82 1.86016 -0.774611 0
M  V30 1257 O 121.876 2.50416 -0.323776 0
M  V30 1258 C 123.189 0.606868 -2.94512 0
M  V30 1259 C 124.737 0.695925 -3.05165 0
M  V30 1260 C 125.212 0.784848 -4.51225 0
M  V30 1261 N 126.703 0.848463 -4.55363 0
M  V30 1262 C 127.438 0.937378 -5.65686 0
M  V30 1263 N 126.934 0.9888 -6.85707 0
M  V30 1264 N 128.727 0.974312 -5.53592 0
M  V30 1265 H 120.878 -0.661655 -2.01831 0
M  V30 1266 H 123.141 -0.235261 -0.918344 0
M  V30 1267 H 122.847 -0.28732 -3.50524 0
M  V30 1268 H 122.721 1.46268 -3.47686 0
M  V30 1269 H 125.108 1.58055 -2.49204 0
M  V30 1270 H 125.189 -0.186022 -2.55123 0
M  V30 1271 H 124.833 -0.0954072 -5.0781 0
M  V30 1272 H 124.763 1.68255 -4.98997 0
M  V30 1273 H 127.254 0.818103 -3.68938 0
M  V30 1274 H 127.567 1.05707 -7.65536 0
M  V30 1275 H 125.912 0.957534 -6.88372 0
M  V30 1276 H 129.103 0.930954 -4.58749 0
M  V30 1277 H 129.276 1.04015 -6.39597 0
M  V30 1278 N 122.682 1.50554 0.465978 0
M  V30 1279 C 123.922 1.63439 1.22747 0
M  V30 1280 C 124.286 0.329822 1.89146 0
M  V30 1281 O 125.487 0.334161 2.66715 0
M  V30 1282 C 123.758 2.78542 2.2394 0
M  V30 1283 S 125.317 3.11591 3.0896 0
M  V30 1284 H 122.135 0.576113 0.416672 0
M  V30 1285 H 124.737 1.88357 0.523641 0
M  V30 1286 H 123.441 3.71805 1.7375 0
M  V30 1287 H 122.972 2.55726 2.98944 0
M  V30 1288 H 124.987 2.55811 4.25176 0
M  V30 1289 N 124.16 -0.719506 1.40217 0
M  V30 1290 C 125.093 -1.84298 1.34571 0
M  V30 1291 C 126.071 -1.61149 0.216741 0
M  V30 1292 O 127.255 -1.84212 0.399756 0
M  V30 1293 C 124.382 -3.20568 1.09335 0
M  V30 1294 C 123.428 -3.62551 2.24631 0
M  V30 1295 S 124.261 -3.7012 3.87004 0
M  V30 1296 C 125.417 -5.09154 3.64024 0
M  V30 1297 H 125.65 -1.88807 2.2965 0
M  V30 1298 H 123.183 -0.885901 1.26456 0
M  V30 1299 H 125.141 -3.99246 0.954602 0
M  V30 1300 H 123.802 -3.13696 0.159164 0
M  V30 1301 H 122.995 -4.61483 2.02606 0
M  V30 1302 H 122.597 -2.91119 2.34789 0
M  V30 1303 H 124.889 -5.95955 3.22248 0
M  V30 1304 H 125.832 -5.36213 4.62473 0
M  V30 1305 H 126.24 -4.79562 2.97793 0
M  V30 1306 N 125.638 -1.25649 -0.95132 0
M  V30 1307 C 126.585 -1.06323 -2.04851 0
M  V30 1308 C 127.555 0.0286491 -1.66075 0
M  V30 1309 O 128.74 -0.12917 -1.90362 0
M  V30 1310 C 125.88 -0.691529 -3.381 0
M  V30 1311 C 124.993 -1.85861 -3.89974 0
M  V30 1312 C 124.128 -1.43096 -5.11563 0
M  V30 1313 C 123.167 -2.56696 -5.55674 0
M  V30 1314 N 122.304 -2.14684 -6.68472 0
M  V30 1315 H 127.144 -2.00222 -2.20715 0
M  V30 1316 H 124.681 -0.997027 -1.08156 0
M  V30 1317 H 126.639 -0.456963 -4.1469 0
M  V30 1318 H 125.269 0.210474 -3.22113 0
M  V30 1319 H 124.321 -2.20639 -3.09875 0
M  V30 1320 H 125.633 -2.71161 -4.18657 0
M  V30 1321 H 124.787 -1.15624 -5.9558 0
M  V30 1322 H 123.526 -0.548722 -4.84603 0
M  V30 1323 H 122.531 -2.84909 -4.7022 0
M  V30 1324 H 123.756 -3.45503 -5.8464 0
M  V30 1325 H 121.702 -1.28881 -6.43215 0
M  V30 1326 H 121.619 -2.9353 -6.96689 0
M  V30 1327 H 122.887 -1.90397 -7.5589 0
M  V30 1328 N 127.117 1.15442 -1.07289 0
M  V30 1329 C 128.394 1.82306 -0.708792 0
M  V30 1330 C 128.774 1.94991 0.808807 0
M  V30 1331 O 128.122 1.50085 1.72298 0
M  V30 1332 C 128.332 3.18695 -1.42247 0
M  V30 1333 C 129.68 3.94341 -1.57417 0
M  V30 1334 O 130.704 3.28247 -1.38319 0
M  V30 1335 O 129.563 5.12839 -1.88834 0
M  V30 1336 H 126.657 0.787628 -0.252132 0
M  V30 1337 H 129.203 1.22559 -1.17377 0
M  V30 1338 H 127.975 3.04557 -2.45684 0
M  V30 1339 H 127.598 3.86128 -0.948223 0
M  V30 1340 N 128.595 0.856903 1.32268 0
M  V30 1341 C 129.872 0.382583 1.91822 0
M  V30 1342 C 130.252 -1.13407 1.78051 0
M  V30 1343 O 129.6 -1.95673 1.18001 0
M  V30 1344 C 129.81 0.849446 3.38505 0
M  V30 1345 C 131.158 0.867936 4.15634 0
M  V30 1346 O 132.182 0.794232 3.47232 0
M  V30 1347 O 131.041 0.972286 5.37781 0
M  V30 1348 H 128.135 0.112014 0.819379 0
M  V30 1349 H 130.681 0.943952 1.41024 0
M  V30 1350 H 129.453 1.89267 3.42482 0
M  V30 1351 H 129.076 0.265652 3.96712 0
M  V30 1352 N 130.073 -1.45103 0.615059 0
M  V30 1353 C 131.298 -2.07064 0.117988 0
M  V30 1354 C 131.723 -1.4554 -1.19163 0
M  V30 1355 O 131.081 -0.550855 -1.72729 0
M  V30 1356 C 131.129 -3.606 -0.000288387 0
M  V30 1357 O 130.233 -3.98847 -1.04856 0
M  V30 1358 H 129.574 -0.659467 0.0774581 0
M  V30 1359 H 132.104 -1.86236 0.847186 0
M  V30 1360 H 132.114 -4.07529 -0.196091 0
M  V30 1361 H 130.789 -4.04765 0.955932 0
M  V30 1362 H 129.366 -3.63577 -0.828619 0
M  V30 1363 N 131.551 -0.354651 -1.53558 0
M  V30 1364 C 132.498 0.496968 -2.25386 0
M  V30 1365 C 133.468 1.0865 -1.25636 0
M  V30 1366 O 134.653 1.12104 -1.54394 0
M  V30 1367 C 131.793 1.63637 -3.03837 0
M  V30 1368 C 130.906 1.07307 -4.18461 0
M  V30 1369 C 130.041 2.18068 -4.84376 0
M  V30 1370 C 129.08 1.59147 -5.91049 0
M  V30 1371 N 128.217 2.63695 -6.50699 0
M  V30 1372 H 133.057 -0.122075 -2.9775 0
M  V30 1373 H 130.594 -0.0720154 -1.46924 0
M  V30 1374 H 132.552 2.30734 -3.47589 0
M  V30 1375 H 131.182 2.22623 -2.33749 0
M  V30 1376 H 130.234 0.292708 -3.79272 0
M  V30 1377 H 131.546 0.602193 -4.95152 0
M  V30 1378 H 130.7 2.93007 -5.31255 0
M  V30 1379 H 129.439 2.68504 -4.07133 0
M  V30 1380 H 128.444 0.827175 -5.43542 0
M  V30 1381 H 129.669 1.09549 -6.70206 0
M  V30 1382 H 127.615 3.13365 -5.76315 0
M  V30 1383 H 127.532 2.21263 -7.22896 0
M  V30 1384 H 128.8 3.3837 -7.02229 0
M  V30 1385 N 133.029 1.57378 -0.0835403 0
M  V30 1386 C 134.277 1.93547 0.581718 0
M  V30 1387 C 134.598 0.96524 1.69435 0
M  V30 1388 O 133.868 0.0153369 1.95894 0
M  V30 1389 H 132.448 0.714521 0.217874 0
M  V30 1390 H 135.11 1.94366 -0.144158 0
M  V30 1391 H 134.206 2.95665 0.999423 0
M  V30 1392 N 134.507 -0.190092 1.56449 0
M  V30 1393 C 135.454 -1.23557 1.94942 0
M  V30 1394 C 136.424 -1.44972 0.810696 0
M  V30 1395 O 137.609 -1.58023 1.06927 0
M  V30 1396 C 134.749 -2.57416 2.2985 0
M  V30 1397 C 133.862 -2.43537 3.5681 0
M  V30 1398 C 132.997 -3.70134 3.81017 0
M  V30 1399 C 132.036 -3.51109 5.01387 0
M  V30 1400 N 131.173 -4.6973 5.21822 0
M  V30 1401 H 136.013 -0.900304 2.84075 0
M  V30 1402 H 133.55 -0.43318 1.40577 0
M  V30 1403 H 135.508 -3.35409 2.48106 0
M  V30 1404 H 134.138 -2.88975 1.43852 0
M  V30 1405 H 133.19 -1.56816 3.46573 0
M  V30 1406 H 134.502 -2.25415 4.4496 0
M  V30 1407 H 133.656 -4.56566 3.9954 0
M  V30 1408 H 132.395 -3.91215 2.91207 0
M  V30 1409 H 131.4 -2.63063 4.82782 0
M  V30 1410 H 132.625 -3.31468 5.9271 0
M  V30 1411 H 130.571 -4.91065 4.34961 0
M  V30 1412 H 130.488 -4.54452 6.0416 0
M  V30 1413 H 131.756 -5.57499 5.44808 0
M  V30 1414 N 135.985 -1.50799 -0.457987 0
M  V30 1415 C 137.21 -1.66496 -1.23668 0
M  V30 1416 C 137.635 -0.353288 -1.84752 0
M  V30 1417 O 136.993 0.684346 -1.67888 0
M  V30 1418 C 137.041 -2.76763 -2.3116 0
M  V30 1419 O 136.145 -2.38928 -3.36136 0
M  V30 1420 H 135.486 -0.555828 -0.363252 0
M  V30 1421 H 138.016 -1.9725 -0.543474 0
M  V30 1422 H 138.026 -3.00232 -2.76269 0
M  V30 1423 H 136.701 -3.71954 -1.86073 0
M  V30 1424 H 135.278 -2.25953 -2.96647 0
M  V30 1425 N 137.463 0.71206 -1.40597 0
M  V30 1426 C 138.373 1.8562 -1.43466 0
M  V30 1427 C 139.389 1.70902 -0.326902 0
M  V30 1428 O 140.565 1.93105 -0.572043 0
M  V30 1429 C 137.63 3.21451 -1.29884 0
M  V30 1430 C 136.691 3.48398 -2.50833 0
M  V30 1431 C 135.924 4.77749 -2.3789 0
M  V30 1432 O 136.147 5.53089 -1.39459 0
M  V30 1433 O 135.081 5.05111 -3.27333 0
M  V30 1434 H 138.907 1.86155 -2.39958 0
M  V30 1435 H 136.492 0.86295 -1.21957 0
M  V30 1436 H 138.374 4.02579 -1.24531 0
M  V30 1437 H 137.049 3.21636 -0.364997 0
M  V30 1438 H 135.956 2.67265 -2.61763 0
M  V30 1439 H 137.289 3.53014 -3.4299 0
M  V30 1440 N 138.941 1.26152 0.944643 0
M  V30 1441 C 139.851 1.09176 2.07648 0
M  V30 1442 C 140.867 0.0261935 1.7398 0
M  V30 1443 O 142.043 0.229208 2.00091 0
M  V30 1444 C 139.108 0.722915 3.39079 0
M  V30 1445 C 138.169 1.86752 3.86552 0
M  V30 1446 C 137.402 1.51617 5.11711 0
M  V30 1447 O 137.625 0.416331 5.68879 0
M  V30 1448 O 136.559 2.34975 5.54139 0
M  V30 1449 H 140.385 2.0412 2.24875 0
M  V30 1450 H 137.97 1.05182 1.061 0
M  V30 1451 H 139.852 0.529787 4.18056 0
M  V30 1452 H 138.527 -0.197159 3.23099 0
M  V30 1453 H 137.434 2.11558 3.08535 0
M  V30 1454 H 138.767 2.76719 4.07047 0
M  V30 1455 N 140.419 -1.14872 1.07899 0
M  V30 1456 C 141.329 -2.2341 0.715915 0
M  V30 1457 C 142.345 -1.71808 -0.275306 0
M  V30 1458 O 143.521 -2.01039 -0.120545 0
M  V30 1459 C 140.586 -3.46474 0.125168 0
M  V30 1460 C 139.647 -4.13039 1.17034 0
M  V30 1461 C 138.88 -5.30229 0.607688 0
M  V30 1462 O 139.103 -5.675 -0.574497 0
M  V30 1463 O 138.037 -5.86444 1.35526 0
M  V30 1464 H 141.863 -2.56808 1.62121 0
M  V30 1465 H 139.448 -1.22702 0.852322 0
M  V30 1466 H 141.33 -4.20917 -0.201729 0
M  V30 1467 H 140.005 -3.14811 -0.753364 0
M  V30 1468 H 138.912 -3.40493 1.54968 0
M  V30 1469 H 140.245 -4.48796 2.02097 0
M  V30 1470 N 141.898 -0.863906 -1.31812 0
M  V30 1471 C 142.828 -0.330843 -2.31144 0
M  V30 1472 C 143.809 0.575005 -1.60087 0
M  V30 1473 O 144.994 0.493304 -1.8783 0
M  V30 1474 C 142.124 0.47374 -3.44054 0
M  V30 1475 C 141.078 -0.338481 -4.26659 0
M  V30 1476 C 140.404 0.591412 -5.31419 0
M  V30 1477 C 141.704 -1.56926 -4.98168 0
M  V30 1478 H 143.398 -1.16086 -2.75979 0
M  V30 1479 H 140.944 -0.559657 -1.32679 0
M  V30 1480 H 142.897 0.857143 -4.12591 0
M  V30 1481 H 141.621 1.33721 -2.9797 0
M  V30 1482 H 140.28 -0.703754 -3.59782 0
M  V30 1483 H 139.928 1.45199 -4.81587 0
M  V30 1484 H 139.628 0.0519022 -5.87577 0
M  V30 1485 H 141.152 0.97179 -6.02817 0
M  V30 1486 H 142.566 -1.25764 -5.59336 0
M  V30 1487 H 140.963 -2.04739 -5.64094 0
M  V30 1488 H 142.033 -2.32544 -4.25501 0
M  V30 1489 N 143.376 1.44774 -0.622745 0
M  V30 1490 C 144.601 2.06999 -0.128968 0
M  V30 1491 C 145.026 1.4617 1.1839 0
M  V30 1492 O 144.384 0.560007 1.72434 0
M  V30 1493 C 144.432 3.60595 -0.0188351 0
M  V30 1494 O 143.536 3.99398 1.02739 0
M  V30 1495 H 142.877 0.659047 -0.0809544 0
M  V30 1496 H 145.407 1.85784 -0.85705 0
M  V30 1497 H 145.417 4.07627 0.174476 0
M  V30 1498 H 144.092 4.04252 -0.977384 0
M  V30 1499 H 142.669 3.64011 0.809326 0
M  V30 1500 N 144.854 0.36279 1.53368 0
M  V30 1501 C 146.131 -0.284021 1.93527 0
M  V30 1502 C 146.511 -1.66628 1.29608 0
M  V30 1503 O 145.859 -2.23942 0.45413 0
M  V30 1504 C 146.069 -0.337028 3.47369 0
M  V30 1505 C 147.417 -0.578708 4.20638 0
M  V30 1506 O 148.441 -0.418352 3.53735 0
M  V30 1507 O 147.3 -0.89074 5.39192 0
M  V30 1508 H 144.394 -0.169743 0.809393 0
M  V30 1509 H 146.94 0.41537 1.64538 0
M  V30 1510 H 145.712 0.632217 3.86159 0
M  V30 1511 H 145.335 -1.08243 3.82582 0
M  V30 1512 N 146.332 -1.57332 0.0918853 0
M  V30 1513 C 147.262 -2.16872 -0.865371 0
M  V30 1514 C 148.243 -1.10118 -1.29646 0
M  V30 1515 O 149.428 -1.38242 -1.36392 0
M  V30 1516 C 146.558 -2.74649 -2.12569 0
M  V30 1517 C 145.512 -3.86747 -1.83333 0
M  V30 1518 C 144.838 -4.31212 -3.16166 0
M  V30 1519 C 146.138 -5.10089 -1.1228 0
M  V30 1520 H 147.832 -2.97114 -0.369307 0
M  V30 1521 H 145.378 -1.42918 -0.176194 0
M  V30 1522 H 147.331 -3.14952 -2.7997 0
M  V30 1523 H 146.055 -1.91657 -2.64452 0
M  V30 1524 H 144.714 -3.46978 -1.18331 0
M  V30 1525 H 144.362 -3.45115 -3.6593 0
M  V30 1526 H 144.062 -5.06788 -2.97388 0
M  V30 1527 H 145.586 -4.74146 -3.84731 0
M  V30 1528 H 147 -5.47582 -1.69785 0
M  V30 1529 H 145.397 -5.91073 -1.03693 0
M  V30 1530 H 146.467 -4.84786 -0.105041 0
M  V30 1531 N 147.81 0.181792 -1.56548 0
M  V30 1532 C 149.057 0.900097 -1.81396 0
M  V30 1533 C 149.385 1.82695 -0.667281 0
M  V30 1534 O 148.64 1.92614 0.346146 0
M  V30 1535 C 148.939 1.73728 -3.12335 0
M  V30 1536 C 148.605 0.960255 -4.40556 0
M  V30 1537 C 147.267 0.745766 -4.75386 0
M  V30 1538 C 149.619 0.414477 -5.19549 0
M  V30 1539 C 146.947 -0.0257694 -5.86694 0
M  V30 1540 C 149.299 -0.343916 -6.31664 0
M  V30 1541 C 147.963 -0.569301 -6.65068 0
M  V30 1542 H 147.233 0.329369 -0.663775 0
M  V30 1543 H 149.88 0.165647 -1.90782 0
M  V30 1544 H 148.185 2.54081 -2.98245 0
M  V30 1545 H 149.882 2.29591 -3.28769 0
M  V30 1546 H 146.472 1.13746 -4.13231 0
M  V30 1547 H 150.656 0.567554 -4.93044 0
M  V30 1548 H 145.912 -0.210233 -6.11038 0
M  V30 1549 H 150.086 -0.774133 -6.92084 0
M  V30 1550 H 147.713 -1.16903 -7.51158 0
M  V30 1551 N 149.288 1.51039 0.449983 0
M  V30 1552 C 150.704 1.38934 0.785462 0
M  V30 1553 C 150.904 0.461817 1.96136 0
M  V30 1554 O 149.96 -0.0877389 2.52348 0
M  V30 1555 C 151.273 2.80724 1.0777 0
M  V30 1556 C 152.821 2.89787 1.1829 0
M  V30 1557 C 153.296 4.32457 1.50815 0
M  V30 1558 N 154.787 4.35505 1.57764 0
M  V30 1559 C 155.522 5.42914 1.84477 0
M  V30 1560 N 155.018 6.60502 2.09068 0
M  V30 1561 N 156.811 5.3038 1.86155 0
M  V30 1562 H 148.962 2.09904 -0.324647 0
M  V30 1563 H 151.225 0.944378 -0.0827957 0
M  V30 1564 H 150.931 3.50531 0.286498 0
M  V30 1565 H 150.805 3.19273 2.00859 0
M  V30 1566 H 153.192 2.20186 1.96474 0
M  V30 1567 H 153.273 2.54752 0.231314 0
M  V30 1568 H 152.917 5.02603 0.731622 0
M  V30 1569 H 152.847 4.64995 2.47158 0
M  V30 1570 H 155.338 3.50724 1.40715 0
M  V30 1571 H 155.651 7.38158 2.28785 0
M  V30 1572 H 153.996 6.63639 2.06416 0
M  V30 1573 H 157.187 4.37505 1.66454 0
M  V30 1574 H 157.36 6.1417 2.06637 0
M  V30 1575 N 150.766 -0.704594 1.40972 0
M  V30 1576 C 151.699 -1.82861 1.36518 0
M  V30 1577 C 152.677 -1.6091 0.23382 0
M  V30 1578 O 153.861 -1.83778 0.419271 0
M  V30 1579 C 150.988 -3.1939 1.12729 0
M  V30 1580 C 150.034 -3.60148 2.28463 0
M  V30 1581 S 150.867 -3.65994 3.90907 0
M  V30 1582 C 152.023 -5.05264 3.69403 0
M  V30 1583 H 152.256 -1.86361 2.3164 0
M  V30 1584 H 149.789 -0.872439 1.27389 0
M  V30 1585 H 151.747 -3.98211 0.996893 0
M  V30 1586 H 150.408 -3.1351 0.192427 0
M  V30 1587 H 149.601 -4.59309 2.07489 0
M  V30 1588 H 149.203 -2.88612 2.37863 0
M  V30 1589 H 151.495 -5.92504 3.28551 0
M  V30 1590 H 152.438 -5.31278 4.68134 0
M  V30 1591 H 152.846 -4.76377 3.02862 0
M  V30 1592 N 152.244 -1.26651 -0.937939 0
M  V30 1593 C 153.491 -1.12387 -1.6845 0
M  V30 1594 C 153.819 0.332208 -1.91642 0
M  V30 1595 O 153.074 1.2602 -1.49725 0
M  V30 1596 C 153.373 -1.84168 -3.06295 0
M  V30 1597 C 153.039 -3.34056 -3.02849 0
M  V30 1598 C 151.701 -3.74942 -3.01616 0
M  V30 1599 C 154.053 -4.29741 -2.9491 0
M  V30 1600 C 151.381 -5.09894 -2.90215 0
M  V30 1601 C 153.733 -5.64738 -2.8505 0
M  V30 1602 C 152.397 -6.0493 -2.82162 0
M  V30 1603 H 151.667 -0.411252 -0.616403 0
M  V30 1604 H 154.314 -1.57134 -1.09459 0
M  V30 1605 H 152.619 -1.319 -3.6893 0
M  V30 1606 H 154.316 -1.70569 -3.62915 0
M  V30 1607 H 150.906 -3.01534 -3.0459 0
M  V30 1608 H 155.09 -3.99133 -2.94969 0
M  V30 1609 H 150.346 -5.40194 -2.86358 0
M  V30 1610 H 154.52 -6.38561 -2.77872 0
M  V30 1611 H 152.147 -7.09457 -2.73084 0
M  V30 1612 N 153.722 1.14298 -1.08507 0
M  V30 1613 C 154.999 1.81544 -0.728088 0
M  V30 1614 C 155.379 1.95838 0.78808 0
M  V30 1615 O 154.727 1.51904 1.70697 0
M  V30 1616 C 154.937 3.17169 -1.45619 0
M  V30 1617 C 156.285 3.9265 -1.61591 0
M  V30 1618 O 157.309 3.26762 -1.41793 0
M  V30 1619 O 156.168 5.10807 -1.94263 0
M  V30 1620 H 153.262 0.78491 -0.260471 0
M  V30 1621 H 155.808 1.21307 -1.18671 0
M  V30 1622 H 154.58 3.01934 -2.489 0
M  V30 1623 H 154.203 3.851 -0.989124 0
M  V30 1624 N 155.201 0.870884 1.31352 0
M  V30 1625 C 156.148 0.325425 2.28494 0
M  V30 1626 C 157.118 -0.576615 1.5577 0
M  V30 1627 O 158.303 -0.508059 1.83911 0
M  V30 1628 C 155.443 -0.466283 3.41935 0
M  V30 1629 C 154.556 0.463378 4.29508 0
M  V30 1630 C 153.691 -0.342544 5.30094 0
M  V30 1631 C 152.73 0.583486 6.09313 0
M  V30 1632 N 151.867 -0.186244 7.01853 0
M  V30 1633 H 156.707 1.15901 2.74538 0
M  V30 1634 H 154.244 0.58294 1.35056 0
M  V30 1635 H 156.202 -0.941085 4.06447 0
M  V30 1636 H 154.832 -1.26456 2.97 0
M  V30 1637 H 153.884 1.05663 3.65431 0
M  V30 1638 H 155.196 1.1734 4.84802 0
M  V30 1639 H 154.35 -0.879816 6.00287 0
M  V30 1640 H 153.089 -1.08585 4.75458 0
M  V30 1641 H 152.094 1.13251 5.3801 0
M  V30 1642 H 153.319 1.32566 6.66035 0
M  V30 1643 H 151.265 -0.912348 6.49625 0
M  V30 1644 H 151.182 0.464422 7.54572 0
M  V30 1645 H 152.45 -0.704716 7.76308 0
M  V30 1646 N 156.679 -1.44442 0.630414 0
M  V30 1647 C 157.627 -2.32437 -0.0871428 0
M  V30 1648 C 158.621 -1.47304 -0.836525 0
M  V30 1649 O 159.827 -1.63653 -0.749506 0
M  V30 1650 H 156.202 -0.750533 -0.0469495 0
M  V30 1651 H 158.173 -2.90709 0.673096 0
M  V30 1652 C 156.922 -3.31288 -1.05563 0
M  V30 1653 H 156.245 -3.96805 -0.488426 0
M  V30 1654 H 157.685 -3.9554 -1.52721 0
M  V30 1655 C 156.144 -2.6016 -2.14052 0
M  V30 1656 O 156.674 -2.39997 -3.22124 0
M  V30 1657 N 154.88 -2.19911 -1.89967 0
M  V30 1658 H 154.427 -2.36509 -1.02085 0
M  V30 1659 H 154.385 -1.72646 -2.62756 0
M  V30 1660 N 158.157 -0.370918 -1.53173 0
M  V30 1661 C 159.12 0.460778 -2.24521 0
M  V30 1662 C 160.12 1.00536 -1.25496 0
M  V30 1663 O 161.31 0.890266 -1.49733 0
M  V30 1664 C 158.442 1.64457 -2.98608 0
M  V30 1665 H 159.635 -0.163613 -2.99453 0
M  V30 1666 H 157.188 -0.122699 -1.55818 0
M  V30 1667 H 157.923 2.30691 -2.2793 0
M  V30 1668 H 157.708 1.26099 -3.7127 0
M  V30 1669 H 159.198 2.23384 -3.5283 0
M  V30 1670 N 159.635 1.57281 -0.100228 0
M  V30 1671 C 160.912 1.86014 0.604812 0
M  V30 1672 C 161.292 0.998025 1.86018 0
M  V30 1673 O 160.64 0.0718184 2.28387 0
M  V30 1674 C 160.85 3.36784 0.915278 0
M  V30 1675 C 162.198 4.04957 1.27651 0
M  V30 1676 O 163.222 3.41695 1.00613 0
M  V30 1677 O 162.081 5.16593 1.7831 0
M  V30 1678 H 159.175 0.76942 0.303185 0
M  V30 1679 H 161.721 1.69176 -0.133313 0
M  V30 1680 H 160.493 3.91292 0.0248896 0
M  V30 1681 H 160.116 3.58987 1.70921 0
M  V30 1682 N 161.113 -0.173488 1.56642 0
M  V30 1683 C 162.361 -0.888706 1.81512 0
M  V30 1684 C 162.682 -1.82875 0.676872 0
M  V30 1685 O 161.952 -1.93536 -0.303414 0
M  V30 1686 H 160.532 -0.331164 0.669582 0
M  V30 1687 H 163.194 -0.173823 1.94123 0
M  V30 1688 H 162.29 -1.46691 2.75478 0
M  V30 1689 N 162.591 -1.51276 -0.441967 0
M  V30 1690 C 163.821 -1.67273 -1.21257 0
M  V30 1691 C 164.229 -0.367624 -1.85594 0
M  V30 1692 O 163.572 0.663349 -1.71305 0
M  V30 1693 C 163.634 -2.72807 -2.34129 0
M  V30 1694 C 163.298 -4.1554 -1.90198 0
M  V30 1695 C 164.295 -5.00471 -1.40801 0
M  V30 1696 C 161.98 -4.61616 -1.9803 0
M  V30 1697 C 163.974 -6.29536 -0.998174 0
M  V30 1698 C 161.661 -5.90679 -1.56658 0
M  V30 1699 C 162.659 -6.74466 -1.07633 0
M  V30 1700 O 162.347 -8.01116 -0.668459 0
M  V30 1701 H 162.079 -0.564614 -0.371734 0
M  V30 1702 H 164.633 -1.9843 -0.530521 0
M  V30 1703 H 162.863 -2.36954 -3.05597 0
M  V30 1704 H 164.552 -2.77729 -2.96009 0
M  V30 1705 H 165.318 -4.66079 -1.34148 0
M  V30 1706 H 161.197 -3.96526 -2.35135 0
M  V30 1707 H 164.741 -6.94885 -0.61482 0
M  V30 1708 H 160.638 -6.24586 -1.62979 0
M  V30 1709 H 161.406 -8.14633 -0.794722 0
M  V30 1710 N 164.069 0.697108 -1.41344 0
M  V30 1711 C 165.318 1.45279 -1.39918 0
M  V30 1712 C 165.631 1.95597 -0.0109624 0
M  V30 1713 O 166.837 2.71208 0.125919 0
M  V30 1714 C 165.293 2.62695 -2.46007 0
M  V30 1715 C 164.901 2.19169 -3.90729 0
M  V30 1716 C 166.645 3.40336 -2.53715 0
M  V30 1717 C 164.552 3.33535 -4.88373 0
M  V30 1718 H 163.482 0.545692 -0.520323 0
M  V30 1719 H 166.133 0.756929 -1.67161 0
M  V30 1720 H 164.515 3.34541 -2.11892 0
M  V30 1721 H 165.689 1.54623 -4.34083 0
M  V30 1722 H 164.004 1.54525 -3.86666 0
M  V30 1723 H 166.601 4.2547 -3.2385 0
M  V30 1724 H 166.944 3.85418 -1.5735 0
M  V30 1725 H 167.477 2.75546 -2.86913 0
M  V30 1726 H 164.216 2.93468 -5.86137 0
M  V30 1727 H 163.736 3.96936 -4.49668 0
M  V30 1728 H 165.415 3.99335 -5.09059 0
M  V30 1729 N 165.547 1.27147 0.931209 0
M  V30 1730 C 166.824 1.0401 1.65654 0
M  V30 1731 C 167.204 -0.426297 2.06751 0
M  V30 1732 O 166.552 -1.40879 1.79904 0
M  V30 1733 C 166.762 1.99834 2.86125 0
M  V30 1734 C 168.11 2.29007 3.57549 0
M  V30 1735 O 169.134 1.97779 2.96246 0
M  V30 1736 O 167.993 2.82222 4.67989 0
M  V30 1737 H 165.087 0.396239 0.725895 0
M  V30 1738 H 167.633 1.38397 0.982056 0
M  V30 1739 H 166.405 2.98744 2.52721 0
M  V30 1740 H 166.028 1.65987 3.61295 0
M  V30 1741 N 167.025 -1.13721 1.09112 0
M  V30 1742 C 167.955 -2.21148 0.749385 0
M  V30 1743 C 168.936 -1.6792 -0.271475 0
M  V30 1744 O 170.121 -1.93693 -0.140251 0
M  V30 1745 C 167.251 -3.46905 0.165659 0
M  V30 1746 C 166.205 -4.13203 1.11567 0
M  V30 1747 C 165.531 -5.33248 0.393809 0
M  V30 1748 C 166.831 -4.60912 2.45678 0
M  V30 1749 H 168.525 -2.4999 1.64758 0
M  V30 1750 H 166.071 -1.20156 0.793626 0
M  V30 1751 H 168.024 -4.21313 -0.085466 0
M  V30 1752 H 166.748 -3.17449 -0.767714 0
M  V30 1753 H 165.407 -3.40758 1.35202 0
M  V30 1754 H 165.055 -5.00054 -0.543599 0
M  V30 1755 H 164.755 -5.78552 1.02721 0
M  V30 1756 H 166.279 -6.10413 0.150908 0
M  V30 1757 H 167.693 -5.26759 2.26269 0
M  V30 1758 H 166.09 -5.16944 3.04776 0
M  V30 1759 H 167.16 -3.75603 3.06677 0
M  V30 1760 N 168.503 -0.877838 -1.30888 0
M  V30 1761 C 169.78 -0.413052 -1.91189 0
M  V30 1762 C 170.16 1.1056 -1.79832 0
M  V30 1763 O 169.508 1.93771 -1.21099 0
M  V30 1764 C 169.718 -0.903191 -3.3711 0
M  V30 1765 C 171.066 -0.93395 -4.14201 0
M  V30 1766 O 172.09 -0.849373 -3.45925 0
M  V30 1767 O 170.949 -1.05772 -5.36167 0
M  V30 1768 H 168.043 -0.125035 -0.817493 0
M  V30 1769 H 170.589 -0.966269 -1.39504 0
M  V30 1770 H 169.361 -1.94692 -3.39427 0
M  V30 1771 H 168.984 -0.328732 -3.96239 0
M  V30 1772 N 169.982 1.44106 -0.638065 0
M  V30 1773 C 170.892 2.34513 0.0637334 0
M  V30 1774 C 171.908 1.53018 0.828346 0
M  V30 1775 O 173.084 1.85723 0.779036 0
M  V30 1776 C 170.149 3.31095 1.02844 0
M  V30 1777 C 169.21 4.28497 0.26244 0
M  V30 1778 C 168.443 5.20465 1.1812 0
M  V30 1779 O 168.666 5.16514 2.42011 0
M  V30 1780 O 167.6 5.98251 0.661774 0
M  V30 1781 H 171.426 2.95989 -0.68003 0
M  V30 1782 H 169.011 1.43994 -0.398252 0
M  V30 1783 H 170.893 3.90526 1.58327 0
M  V30 1784 H 169.568 2.72144 1.7527 0
M  V30 1785 H 168.475 3.72592 -0.335602 0
M  V30 1786 H 169.808 4.90388 -0.421936 0
M  V30 1787 N 171.46 0.379036 1.52974 0
M  V30 1788 C 172.39 -0.452706 2.29069 0
M  V30 1789 C 173.371 -1.07237 1.32039 0
M  V30 1790 O 174.556 -1.08708 1.60923 0
M  V30 1791 C 171.686 -1.5856 3.08992 0
M  V30 1792 C 170.64 -1.0925 4.13822 0
M  V30 1793 C 169.966 -2.31668 4.81907 0
M  V30 1794 C 171.266 -0.167702 5.22031 0
M  V30 1795 H 172.96 0.182181 2.98845 0
M  V30 1796 H 170.506 0.0890592 1.43724 0
M  V30 1797 H 172.459 -2.1742 3.6098 0
M  V30 1798 H 171.183 -2.24792 2.36931 0
M  V30 1799 H 169.842 -0.526494 3.628 0
M  V30 1800 H 169.49 -2.96386 4.06404 0
M  V30 1801 H 169.19 -1.9934 5.52754 0
M  V30 1802 H 170.714 -2.91189 5.36695 0
M  V30 1803 H 172.128 -0.664186 5.6944 0
M  V30 1804 H 170.525 0.0653265 6.00064 0
M  V30 1805 H 171.595 0.786347 4.78482 0
M  V30 1806 N 172.938 -1.57226 0.108567 0
M  V30 1807 C 173.885 -2.14756 -0.845481 0
M  V30 1808 C 174.855 -1.06971 -1.27068 0
M  V30 1809 O 176.04 -1.34827 -1.35005 0
M  V30 1810 C 173.18 -2.74298 -2.09415 0
M  V30 1811 C 172.293 -3.96358 -1.71826 0
M  V30 1812 C 171.428 -4.44021 -2.9158 0
M  V30 1813 C 170.467 -5.58637 -2.50181 0
M  V30 1814 N 169.604 -6.01091 -3.62814 0
M  V30 1815 H 174.444 -2.95961 -0.348035 0
M  V30 1816 H 171.981 -1.46226 -0.160106 0
M  V30 1817 H 173.939 -3.06945 -2.82561 0
M  V30 1818 H 172.569 -1.95801 -2.56636 0
M  V30 1819 H 171.621 -3.69939 -0.885947 0
M  V30 1820 H 172.933 -4.79504 -1.37394 0
M  V30 1821 H 172.087 -4.78522 -3.72963 0
M  V30 1822 H 170.826 -3.59803 -3.29231 0
M  V30 1823 H 169.831 -5.23751 -1.67228 0
M  V30 1824 H 171.056 -6.44613 -2.13659 0
M  V30 1825 H 169.002 -5.19817 -4.00158 0
M  V30 1826 H 168.919 -6.79066 -3.32273 0
M  V30 1827 H 170.187 -6.40227 -4.44668 0
M  V30 1828 N 174.416 0.165178 -1.56732 0
M  V30 1829 C 175.665 0.879143 -1.81532 0
M  V30 1830 C 175.978 1.83144 -0.686842 0
M  V30 1831 O 177.184 2.58823 -0.819944 0
M  V30 1832 C 175.64 1.61388 -3.21686 0
M  V30 1833 C 175.248 0.704904 -4.4242 0
M  V30 1834 C 176.992 2.3157 -3.55774 0
M  V30 1835 C 174.899 1.44022 -5.73595 0
M  V30 1836 H 173.829 0.332033 -0.676957 0
M  V30 1837 H 176.48 0.132008 -1.83025 0
M  V30 1838 H 174.862 2.40599 -3.14529 0
M  V30 1839 H 176.036 -0.0506815 -4.60772 0
M  V30 1840 H 174.351 0.112419 -4.16248 0
M  V30 1841 H 176.948 2.8719 -4.51028 0
M  V30 1842 H 177.291 3.07201 -2.8095 0
M  V30 1843 H 177.824 1.59297 -3.64513 0
M  V30 1844 H 174.563 0.72612 -6.51466 0
M  V30 1845 H 174.083 2.16898 -5.5921 0
M  V30 1846 H 175.762 1.98606 -6.15764 0
M  V30 1847 N 175.894 1.51508 0.433938 0
M  V30 1848 C 176.827 1.67756 1.54704 0
M  V30 1849 C 177.805 0.525127 1.53887 0
M  V30 1850 O 178.989 0.749393 1.72963 0
M  V30 1851 C 176.116 1.69424 2.9328 0
M  V30 1852 C 175.162 2.90673 3.12108 0
M  V30 1853 S 175.995 4.51431 2.88046 0
M  V30 1854 C 177.151 4.55849 4.28897 0
M  V30 1855 H 177.384 2.61904 1.40689 0
M  V30 1856 H 174.917 1.41235 0.62386 0
M  V30 1857 H 176.875 1.7107 3.73156 0
M  V30 1858 H 175.536 0.764464 3.04655 0
M  V30 1859 H 174.729 2.88251 4.13434 0
M  V30 1860 H 174.331 2.86786 2.40062 0
M  V30 1861 H 176.623 4.31699 5.22152 0
M  V30 1862 H 177.566 5.57676 4.36351 0
M  V30 1863 H 177.974 3.85137 4.12711 0
M  V30 1864 N 177.372 -0.689602 1.41712 0
M  V30 1865 C 178.302 -1.81577 1.46806 0
M  V30 1866 C 179.283 -1.66945 0.326105 0
M  V30 1867 O 180.468 -1.86588 0.538377 0
M  V30 1868 C 177.598 -3.19762 1.35535 0
M  V30 1869 C 176.552 -3.49107 2.47605 0
M  V30 1870 C 175.878 -4.86711 2.21397 0
M  V30 1871 C 177.178 -3.47483 3.89939 0
M  V30 1872 H 178.872 -1.7757 2.41058 0
M  V30 1873 H 176.418 -0.852887 1.16025 0
M  V30 1874 H 178.371 -3.98263 1.3771 0
M  V30 1875 H 177.095 -3.24409 0.377708 0
M  V30 1876 H 175.754 -2.72959 2.44722 0
M  V30 1877 H 175.402 -4.8799 1.21961 0
M  V30 1878 H 175.102 -5.0731 2.96497 0
M  V30 1879 H 176.626 -5.67515 2.25297 0
M  V30 1880 H 178.04 -4.1598 3.94505 0
M  V30 1881 H 176.437 -3.79615 4.64771 0
M  V30 1882 H 177.507 -2.46341 4.17665 0
M  V30 1883 N 178.85 -1.27639 -0.924453 0
M  V30 1884 C 179.782 -1.06442 -2.02985 0
M  V30 1885 C 180.795 -0.0194771 -1.62788 0
M  V30 1886 O 181.984 -0.261388 -1.76576 0
M  V30 1887 C 179.084 -0.59327 -3.33667 0
M  V30 1888 C 178.257 -1.71123 -4.02537 0
M  V30 1889 C 177.316 -1.23527 -5.11495 0
M  V30 1890 O 176.342 -1.93553 -5.35281 0
M  V30 1891 N 177.544 -0.0926678 -5.80426 0
M  V30 1892 H 180.309 -2.01633 -2.2173 0
M  V30 1893 H 177.87 -1.19248 -1.09505 0
M  V30 1894 H 179.862 -0.258686 -4.03872 0
M  V30 1895 H 178.432 0.265502 -3.1147 0
M  V30 1896 H 177.652 -2.21593 -3.26022 0
M  V30 1897 H 178.94 -2.46145 -4.45298 0
M  V30 1898 H 178.338 0.491741 -5.63559 0
M  V30 1899 H 176.895 0.182714 -6.51544 0
M  V30 1900 N 180.328 1.1314 -1.09713 0
M  V30 1901 C 181.291 2.16831 -0.742751 0
M  V30 1902 C 182.291 1.59159 0.229129 0
M  V30 1903 O 183.481 1.74199 0.00693237 0
M  V30 1904 C 180.613 3.40756 -0.0989168 0
M  V30 1905 H 181.806 2.49695 -1.66109 0
M  V30 1906 H 179.359 1.2802 -0.896699 0
M  V30 1907 H 180.094 3.13485 0.830514 0
M  V30 1908 H 179.879 3.83888 -0.798265 0
M  V30 1909 H 181.369 4.17386 0.133524 0
M  V30 1910 N 181.806 0.884767 1.30421 0
M  V30 1911 C 183.034 0.518044 2.0031 0
M  V30 1912 C 183.449 -0.893408 1.66324 0
M  V30 1913 O 182.806 -1.5875 0.900262 0
M  V30 1914 C 182.857 0.682997 3.54989 0
M  V30 1915 O 182.578 2.03888 3.87764 0
M  V30 1916 C 184.079 0.31924 4.42149 0
M  V30 1917 H 181.299 0.200265 0.640418 0
M  V30 1918 H 183.843 1.19001 1.6631 0
M  V30 1919 H 181.998 0.0584052 3.87356 0
M  V30 1920 H 182.412 2.05735 4.82466 0
M  V30 1921 H 183.886 0.485555 5.4986 0
M  V30 1922 H 184.363 -0.742717 4.32875 0
M  V30 1923 H 184.969 0.920147 4.15227 0
M  V30 1924 N 183.284 -1.43765 0.645699 0
M  V30 1925 C 184.532 -2.01499 0.155731 0
M  V30 1926 C 184.853 -1.51151 -1.232 0
M  V30 1927 O 184.123 -0.721044 -1.82148 0
M  V30 1928 H 182.703 -0.745003 0.0545817 0
M  V30 1929 H 185.365 -1.76075 0.835677 0
M  V30 1930 H 184.461 -3.1181 0.134577 0
M  V30 1931 N 184.763 -0.387143 -1.52771 0
M  V30 1932 C 185.673 0.456442 -2.30117 0
M  V30 1933 C 186.689 1.07342 -1.36944 0
M  V30 1934 O 187.865 1.07971 -1.70013 0
M  V30 1935 C 184.93 1.56957 -3.09136 0
M  V30 1936 C 183.991 0.977916 -4.18014 0
M  V30 1937 C 183.224 2.038 -4.93256 0
M  V30 1938 O 183.447 3.25271 -4.68567 0
M  V30 1939 O 182.381 1.6565 -5.78657 0
M  V30 1940 H 186.207 -0.17359 -3.03203 0
M  V30 1941 H 183.792 -0.150919 -1.48636 0
M  V30 1942 H 185.674 2.21628 -3.58412 0
M  V30 1943 H 184.349 2.18461 -2.38865 0
M  V30 1944 H 183.256 0.294525 -3.72939 0
M  V30 1945 H 184.589 0.407128 -4.90513 0
M  V30 1946 N 186.241 1.57166 -0.116904 0
M  V30 1947 C 187.469 1.99473 0.549383 0
M  V30 1948 C 187.884 0.996541 1.60357 0
M  V30 1949 O 187.241 -0.0108731 1.82497 0
M  V30 1950 C 187.292 3.41788 1.17741 0
M  V30 1951 O 187.013 4.37788 0.165362 0
M  V30 1952 C 188.514 3.99216 1.92722 0
M  V30 1953 H 185.734 0.655009 0.145616 0
M  V30 1954 H 188.278 2.03494 -0.202625 0
M  V30 1955 H 186.433 3.38713 1.88021 0
M  V30 1956 H 186.847 5.20806 0.621403 0
M  V30 1957 H 188.321 5.00882 2.31995 0
M  V30 1958 H 188.798 3.3824 2.80161 0
M  V30 1959 H 189.404 4.0583 1.27209 0
M  V30 1960 N 187.719 -0.156864 1.56817 0
M  V30 1961 C 188.968 -0.869504 1.81996 0
M  V30 1962 C 189.281 -1.82777 0.696545 0
M  V30 1963 O 190.487 -2.58384 0.833658 0
M  V30 1964 C 188.943 -1.59679 3.22538 0
M  V30 1965 C 188.551 -0.681431 4.42787 0
M  V30 1966 C 190.295 -2.2968 3.56997 0
M  V30 1967 C 188.202 -1.40978 5.74351 0
M  V30 1968 H 187.132 -0.328438 0.678708 0
M  V30 1969 H 189.783 -0.1223 1.83092 0
M  V30 1970 H 188.165 -2.38927 3.158 0
M  V30 1971 H 189.339 0.0751166 4.60739 0
M  V30 1972 H 187.654 -0.0903431 4.16302 0
M  V30 1973 H 190.251 -2.84794 4.52544 0
M  V30 1974 H 190.594 -3.05707 2.82576 0
M  V30 1975 H 191.127 -1.57361 3.65352 0
M  V30 1976 H 187.866 -0.691561 6.51842 0
M  V30 1977 H 187.386 -2.13929 5.60352 0
M  V30 1978 H 189.065 -1.95337 6.16808 0
M  V30 1979 N 189.197 -1.51736 -0.425897 0
M  V30 1980 C 190.425 -1.68794 -1.1965 0
M  V30 1981 C 190.84 -0.390164 -1.84725 0
M  V30 1982 O 190.197 0.632376 -1.71194 0
M  V30 1983 C 190.248 -2.81174 -2.27208 0
M  V30 1984 O 189.969 -4.05925 -1.64793 0
M  V30 1985 C 191.47 -3.09599 -3.17275 0
M  V30 1986 H 188.69 -0.566128 -0.360194 0
M  V30 1987 H 191.234 -1.98211 -0.503249 0
M  V30 1988 H 189.389 -2.54324 -2.9223 0
M  V30 1989 H 189.803 -4.68423 -2.35967 0
M  V30 1990 H 191.277 -3.91786 -3.88854 0
M  V30 1991 H 191.754 -2.22468 -3.78688 0
M  V30 1992 H 192.36 -3.38151 -2.57941 0
M  V30 1993 N 190.675 0.682077 -1.42076 0
M  V30 1994 C 191.585 1.82535 -1.47371 0
M  V30 1995 C 192.601 1.7017 -0.363079 0
M  V30 1996 O 193.777 1.91848 -0.612875 0
M  V30 1997 C 190.842 3.18624 -1.36674 0
M  V30 1998 C 189.903 3.42999 -2.58167 0
M  V30 1999 C 189.136 4.72595 -2.4797 0
M  V30 2000 O 189.359 5.50006 -1.5116 0
M  V30 2001 O 188.293 4.98054 -3.37974 0
M  V30 2002 H 192.119 1.81023 -2.43853 0
M  V30 2003 H 189.704 0.836887 -1.2376 0
M  V30 2004 H 191.586 3.99847 -1.33043 0
M  V30 2005 H 190.261 3.20789 -0.433138 0
M  V30 2006 H 189.168 2.61653 -2.67373 0
M  V30 2007 H 190.501 3.45659 -3.50401 0
M  V30 2008 N 192.153 1.28127 0.917671 0
M  V30 2009 C 193.43 1.05761 1.64542 0
M  V30 2010 C 193.81 -0.404344 2.07191 0
M  V30 2011 O 193.158 -1.38963 1.81388 0
M  V30 2012 C 193.368 2.02857 2.83989 0
M  V30 2013 C 194.716 2.32786 3.551 0
M  V30 2014 O 195.74 2.0091 2.94132 0
M  V30 2015 O 194.599 2.87169 4.64969 0
M  V30 2016 H 191.693 0.403916 0.721652 0
M  V30 2017 H 194.239 1.39431 0.967322 0
M  V30 2018 H 193.011 3.01407 2.49538 0
M  V30 2019 H 192.634 1.69809 3.59514 0
M  V30 2020 N 193.631 -1.12557 1.10312 0
M  V30 2021 C 194.908 -1.80363 0.756878 0
M  V30 2022 C 195.288 -1.97067 -0.756824 0
M  V30 2023 O 194.636 -1.54601 -1.68259 0
M  V30 2024 C 194.846 -3.14812 1.50647 0
M  V30 2025 C 196.194 -3.90029 1.67817 0
M  V30 2026 O 197.218 -3.24464 1.46974 0
M  V30 2027 O 196.077 -5.07652 2.02365 0
M  V30 2028 H 193.171 -0.780667 0.272926 0
M  V30 2029 H 195.717 -1.19404 1.20586 0
M  V30 2030 H 194.489 -2.97936 2.53672 0
M  V30 2031 H 194.112 -3.83478 1.05026 0
M  V30 2032 N 195.109 -0.891671 -1.2995 0
M  V30 2033 C 196.358 -0.509521 -1.95158 0
M  V30 2034 C 196.671 0.947388 -1.71125 0
M  V30 2035 O 197.877 1.43669 -2.30372 0
M  V30 2036 C 196.333 -0.860315 -3.49466 0
M  V30 2037 C 195.941 -2.33545 -3.8231 0
M  V30 2038 C 197.685 -0.547687 -4.20952 0
M  V30 2039 C 195.592 -2.62752 -5.29826 0
M  V30 2040 H 194.522 -0.18682 -0.730489 0
M  V30 2041 H 197.173 -1.08756 -1.47798 0
M  V30 2042 H 195.555 -0.211285 -3.95436 0
M  V30 2043 H 196.729 -3.02936 -3.47227 0
M  V30 2044 H 195.044 -2.61629 -3.23944 0
M  V30 2045 H 197.641 -0.742854 -5.29515 0
M  V30 2046 H 197.984 0.51332 -4.13123 0
M  V30 2047 H 198.517 -1.1542 -3.80688 0
M  V30 2048 H 195.256 -3.6762 -5.42712 0
M  V30 2049 H 194.776 -1.97977 -5.66185 0
M  V30 2050 H 196.455 -2.48601 -5.97333 0
M  V30 2051 N 196.587 1.43421 -0.653314 0
M  V30 2052 C 197.497 2.34568 0.0388565 0
M  V30 2053 C 198.513 1.53888 0.81207 0
M  V30 2054 O 199.689 1.86539 0.759294 0
M  V30 2055 C 196.754 3.32167 0.993269 0
M  V30 2056 C 195.815 4.28751 0.216977 0
M  V30 2057 C 195.048 5.21688 1.12593 0
M  V30 2058 O 195.271 5.19052 2.36519 0
M  V30 2059 O 194.205 5.98919 0.598284 0
M  V30 2060 H 198.031 2.95251 -0.711386 0
M  V30 2061 H 195.616 1.43564 -0.413502 0
M  V30 2062 H 197.498 3.92183 1.54176 0
M  V30 2063 H 196.173 2.73987 1.72374 0
M  V30 2064 H 195.08 3.72215 -0.375101 0
M  V30 2065 H 196.413 4.89913 -0.473924 0
M  V30 2066 N 198.065 0.39524 1.52563 0
M  V30 2067 C 198.975 -0.444232 2.30356 0
M  V30 2068 C 199.991 -1.06615 1.37511 0
M  V30 2069 O 201.167 -1.07067 1.70583 0
M  V30 2070 C 198.232 -1.55315 3.09964 0
M  V30 2071 C 197.293 -0.955734 4.18526 0
M  V30 2072 C 196.526 -2.01181 4.9433 0
M  V30 2073 O 196.749 -3.22781 4.70285 0
M  V30 2074 O 195.683 -1.62579 5.79527 0
M  V30 2075 H 199.509 0.189667 3.03107 0
M  V30 2076 H 197.094 0.1588 1.48554 0
M  V30 2077 H 198.976 -2.19724 3.59582 0
M  V30 2078 H 197.651 -2.17191 2.4002 0
M  V30 2079 H 196.558 -0.274743 3.7309 0
M  V30 2080 H 197.891 -0.381109 4.90722 0
M  V30 2081 N 199.544 -1.57102 0.125237 0
M  V30 2082 C 200.474 -2.18659 -0.819174 0
M  V30 2083 C 201.455 -1.12843 -1.27281 0
M  V30 2084 O 202.64 -1.41104 -1.33429 0
M  V30 2085 C 199.77 -2.79096 -2.06695 0
M  V30 2086 C 198.724 -3.90548 -1.75088 0
M  V30 2087 C 198.05 -4.37821 -3.06948 0
M  V30 2088 C 199.35 -5.12356 -1.01435 0
M  V30 2089 H 201.044 -2.9783 -0.306202 0
M  V30 2090 H 198.59 -1.4326 -0.145839 0
M  V30 2091 H 200.543 -3.2082 -2.73226 0
M  V30 2092 H 199.267 -1.97223 -2.60328 0
M  V30 2093 H 197.926 -3.49409 -1.10944 0
M  V30 2094 H 197.574 -3.52799 -3.58527 0
M  V30 2095 H 197.274 -5.12982 -2.86571 0
M  V30 2096 H 198.798 -4.822 -3.74587 0
M  V30 2097 H 200.212 -5.5106 -1.58132 0
M  V30 2098 H 198.609 -5.9314 -0.911319 0
M  V30 2099 H 199.679 -4.849 -0.00218681 0
M  V30 2100 N 201.022 0.148545 -1.56898 0
M  V30 2101 C 201.955 1.21293 -1.93296 0
M  V30 2102 C 202.933 1.41637 -0.798599 0
M  V30 2103 O 204.117 1.56275 -1.05406 0
M  V30 2104 C 201.244 2.5721 -2.20365 0
M  V30 2105 C 200.29 2.53469 -3.4301 0
M  V30 2106 S 201.123 2.00315 -4.96623 0
M  V30 2107 C 202.279 3.37964 -5.26812 0
M  V30 2108 H 202.512 0.902393 -2.83274 0
M  V30 2109 H 200.045 0.354094 -1.50285 0
M  V30 2110 H 202.003 3.35427 -2.36641 0
M  V30 2111 H 200.664 2.85454 -1.31054 0
M  V30 2112 H 199.857 3.53518 -3.59223 0
M  V30 2113 H 199.459 1.83359 -3.25968 0
M  V30 2114 H 201.751 4.34066 -5.20185 0
M  V30 2115 H 202.694 3.26606 -6.28279 0
M  V30 2116 H 203.102 3.35028 -4.54331 0
M  V30 2117 N 202.5 1.5196 0.417844 0
M  V30 2118 C 203.447 1.74678 1.50852 0
M  V30 2119 C 204.417 0.588947 1.55308 0
M  V30 2120 O 205.602 0.825544 1.72016 0
M  V30 2121 C 202.742 1.89544 2.88387 0
M  V30 2122 C 201.855 3.17166 2.93309 0
M  V30 2123 C 200.99 3.22513 4.22088 0
M  V30 2124 C 200.029 4.44372 4.20951 0
M  V30 2125 N 199.166 4.47161 5.41287 0
M  V30 2126 H 204.006 2.67768 1.30783 0
M  V30 2127 H 201.543 1.32689 0.63498 0
M  V30 2128 H 203.501 1.96146 3.68216 0
M  V30 2129 H 202.131 0.998424 3.06971 0
M  V30 2130 H 201.183 3.19778 2.06024 0
M  V30 2131 H 202.495 4.07021 2.88332 0
M  V30 2132 H 201.649 3.28139 5.10303 0
M  V30 2133 H 200.388 2.30581 4.29748 0
M  V30 2134 H 199.393 4.38902 3.31127 0
M  V30 2135 H 200.618 5.3759 4.14938 0
M  V30 2136 H 198.564 3.58108 5.49632 0
M  V30 2137 H 198.481 5.3085 5.3827 0
M  V30 2138 H 199.749 4.57005 6.3148 0
M  V30 2139 N 203.978 -0.674533 1.42435 0
M  V30 2140 C 205.255 -1.4305 1.33402 0
M  V30 2141 C 205.635 -2.11081 -0.0284674 0
M  V30 2142 O 204.983 -2.03257 -1.04397 0
M  V30 2143 C 205.193 -2.43272 2.50239 0
M  V30 2144 C 206.541 -3.07907 2.92367 0
M  V30 2145 O 207.565 -2.53599 2.50132 0
M  V30 2146 O 206.424 -4.0632 3.65467 0
M  V30 2147 H 203.518 -0.638076 0.526106 0
M  V30 2148 H 206.064 -0.703235 1.54443 0
M  V30 2149 H 204.836 -1.91803 3.41068 0
M  V30 2150 H 204.459 -3.23479 2.31186 0
M  V30 2151 N 205.456 -1.28612 -0.910864 0
M  V30 2152 C 206.704 -1.15705 -1.65701 0
M  V30 2153 C 207.025 0.29416 -1.92769 0
M  V30 2154 O 206.295 1.20331 -1.54588 0
M  V30 2155 H 204.875 -0.425216 -0.614167 0
M  V30 2156 H 207.537 -1.61381 -1.0928 0
M  V30 2157 H 206.633 -1.6988 -2.61815 0
M  V30 2158 N 206.934 1.1197 -1.10907 0
M  V30 2159 C 208.211 1.79959 -0.766432 0
M  V30 2160 C 208.591 1.97466 0.746363 0
M  V30 2161 O 207.939 1.55491 1.67436 0
M  V30 2162 C 208.149 3.14009 -1.52314 0
M  V30 2163 C 209.497 3.89134 -1.69883 0
M  V30 2164 O 210.521 3.2368 -1.48692 0
M  V30 2165 O 209.38 5.06572 -2.05054 0
M  V30 2166 H 206.474 0.779208 -0.277062 0
M  V30 2167 H 209.02 1.18762 -1.21217 0
M  V30 2168 H 207.792 2.96587 -2.55249 0
M  V30 2169 H 207.415 3.82915 -1.07059 0
M  V30 2170 N 208.412 0.89855 1.29475 0
M  V30 2171 C 209.359 0.373819 2.27753 0
M  V30 2172 C 210.329 -0.543444 1.56958 0
M  V30 2173 O 211.514 -0.468934 1.84948 0
M  V30 2174 C 208.654 -0.393648 3.42848 0
M  V30 2175 C 207.767 0.554379 4.28428 0
M  V30 2176 C 206.902 -0.230026 5.30702 0
M  V30 2177 C 205.941 0.712599 6.07938 0
M  V30 2178 N 205.078 -0.0373283 7.0209 0
M  V30 2179 H 209.918 1.21699 2.72017 0
M  V30 2180 H 207.455 0.611456 1.33789 0
M  V30 2181 H 209.413 -0.85466 4.08352 0
M  V30 2182 H 208.043 -1.20128 2.99615 0
M  V30 2183 H 207.095 1.13391 3.63107 0
M  V30 2184 H 208.407 1.27597 4.82204 0
M  V30 2185 H 207.561 -0.752288 6.02018 0
M  V30 2186 H 206.3 -0.984758 4.77654 0
M  V30 2187 H 205.305 1.24637 5.35486 0
M  V30 2188 H 206.53 1.46664 6.63074 0
M  V30 2189 H 204.476 -0.774348 6.51414 0
M  V30 2190 H 204.393 0.624374 7.53417 0
M  V30 2191 H 205.661 -0.539891 7.77628 0
M  V30 2192 N 209.89 -1.43072 0.660911 0
M  V30 2193 C 210.838 -2.32569 -0.0378199 0
M  V30 2194 C 211.832 -1.49046 -0.805092 0
M  V30 2195 O 213.038 -1.65206 -0.714624 0
M  V30 2196 H 209.413 -0.75136 -0.031019 0
M  V30 2197 H 211.384 -2.89216 0.734609 0
M  V30 2198 C 210.133 -3.33453 -0.985124 0
M  V30 2199 H 209.456 -3.97752 -0.404147 0
M  V30 2200 H 210.896 -3.98691 -1.44297 0
M  V30 2201 C 209.355 -2.64642 -2.08486 0
M  V30 2202 O 209.885 -2.46776 -3.16961 0
M  V30 2203 N 208.091 -2.23891 -1.8526 0
M  V30 2204 H 207.638 -2.38621 -0.970449 0
M  V30 2205 H 207.596 -1.78181 -2.59034 0
M  V30 2206 N 211.368 -0.403325 -1.52352 0
M  V30 2207 C 212.316 0.439752 -2.28405 0
M  V30 2208 C 213.31 1.05089 -1.32863 0
M  V30 2209 O 214.516 0.989759 -1.50345 0
M  V30 2210 H 210.891 0.160587 -0.734653 0
M  V30 2211 H 212.862 -0.222983 -2.97566 0
M  V30 2212 C 211.611 1.54736 -3.11371 0
M  V30 2213 H 210.934 1.08643 -3.84755 0
M  V30 2214 H 212.374 2.1112 -3.67701 0
M  V30 2215 C 210.833 2.51141 -2.24566 0
M  V30 2216 O 211.363 3.54887 -1.88196 0
M  V30 2217 N 209.569 2.21213 -1.8845 0
M  V30 2218 H 209.116 1.36878 -2.18225 0
M  V30 2219 H 209.074 2.85963 -1.30662 0
M  V30 2220 N 212.846 1.57033 -0.133567 0
M  V30 2221 C 214.123 1.87256 0.56522 0
M  V30 2222 C 214.503 1.03726 1.83859 0
M  V30 2223 O 213.851 0.120247 2.28183 0
M  V30 2224 C 214.061 3.3865 0.843636 0
M  V30 2225 C 215.409 4.07574 1.19032 0
M  V30 2226 O 216.433 3.43752 0.933429 0
M  V30 2227 O 215.292 5.20259 1.67312 0
M  V30 2228 H 212.386 0.775678 0.286796 0
M  V30 2229 H 214.932 1.68855 -0.169168 0
M  V30 2230 H 213.704 3.91257 -0.0581149 0
M  V30 2231 H 213.327 3.62532 1.63268 0
M  V30 2232 N 214.325 -0.140222 1.56975 0
M  V30 2233 C 215.573 -0.850005 1.83356 0
M  V30 2234 C 215.894 -1.81399 0.71551 0
M  V30 2235 O 215.164 -1.94136 -0.262294 0
M  V30 2236 H 213.744 -0.316886 0.676456 0
M  V30 2237 H 216.406 -0.132608 1.94448 0
M  V30 2238 H 215.502 -1.40814 2.78528 0
M  V30 2239 N 215.803 -1.52179 -0.40978 0
M  V30 2240 C 217.219 -1.40968 -0.74835 0
M  V30 2241 C 217.419 -0.513657 -1.94843 0
M  V30 2242 O 216.475 0.0208026 -2.52491 0
M  V30 2243 C 217.788 -2.83483 -1.0029 0
M  V30 2244 C 219.336 -2.92821 -1.10565 0
M  V30 2245 C 219.811 -4.36303 -1.39296 0
M  V30 2246 N 221.302 -4.39535 -1.46162 0
M  V30 2247 C 222.037 -5.47614 -1.70018 0
M  V30 2248 N 221.533 -6.65812 -1.91483 0
M  V30 2249 N 223.326 -5.35129 -1.72027 0
M  V30 2250 H 215.477 -2.0897 0.380186 0
M  V30 2251 H 217.74 -0.94185 0.107805 0
M  V30 2252 H 217.446 -3.51168 -0.193461 0
M  V30 2253 H 217.32 -3.24487 -1.92323 0
M  V30 2254 H 219.707 -2.25318 -1.90568 0
M  V30 2255 H 219.788 -2.55276 -0.16369 0
M  V30 2256 H 219.432 -5.04366 -0.598109 0
M  V30 2257 H 219.362 -4.71385 -2.34743 0
M  V30 2258 H 221.853 -3.54332 -1.31367 0
M  V30 2259 H 222.166 -7.43964 -2.09134 0
M  V30 2260 H 220.511 -6.68879 -1.88749 0
M  V30 2261 H 223.702 -4.41764 -1.54796 0
M  V30 2262 H 223.875 -6.19433 -1.9028 0
M  V30 2263 N 217.281 0.66697 -1.42791 0
M  V30 2264 C 218.53 1.42278 -1.42968 0
M  V30 2265 C 218.843 1.9553 -0.0524489 0
M  V30 2266 O 220.049 2.71414 0.068363 0
M  V30 2267 C 218.505 2.57418 -2.51524 0
M  V30 2268 C 218.113 2.10832 -3.9529 0
M  V30 2269 C 219.857 3.34878 -2.60877 0
M  V30 2270 C 217.764 3.23101 -4.95338 0
M  V30 2271 H 216.694 0.534533 -0.531781 0
M  V30 2272 H 219.345 0.721302 -1.68729 0
M  V30 2273 H 217.727 3.29971 -2.18941 0
M  V30 2274 H 218.901 1.4538 -4.37266 0
M  V30 2275 H 217.216 1.46289 -3.89857 0
M  V30 2276 H 219.813 4.18505 -3.32802 0
M  V30 2277 H 220.156 3.81993 -1.6549 0
M  V30 2278 H 220.689 2.69398 -2.92693 0
M  V30 2279 H 217.428 2.80969 -5.9223 0
M  V30 2280 H 216.948 3.87309 -4.57987 0
M  V30 2281 H 218.627 3.88447 -5.17415 0
M  V30 2282 N 218.759 1.29093 0.90403 0
M  V30 2283 C 220.036 1.075 1.63411 0
M  V30 2284 C 220.416 -0.382346 2.07609 0
M  V30 2285 O 219.764 -1.37031 1.82851 0
M  V30 2286 C 219.974 2.05858 2.81822 0
M  V30 2287 C 221.322 2.36539 3.52611 0
M  V30 2288 O 222.346 2.04019 2.91984 0
M  V30 2289 O 221.205 2.92085 4.61897 0
M  V30 2290 H 218.299 0.411547 0.717327 0
M  V30 2291 H 220.845 1.40449 0.952479 0
M  V30 2292 H 219.617 3.04037 2.46327 0
M  V30 2293 H 219.24 1.73613 3.57693 0
M  V30 2294 N 220.237 -1.11381 1.11499 0
M  V30 2295 C 221.467 -1.86663 0.885464 0
M  V30 2296 C 221.875 -1.80464 -0.568281 0
M  V30 2297 O 221.218 -1.18445 -1.40415 0
M  V30 2298 C 221.28 -3.36337 1.26956 0
M  V30 2299 C 220.944 -3.66304 2.73259 0
M  V30 2300 C 221.941 -3.63733 3.71476 0
M  V30 2301 C 219.626 -3.9529 3.09921 0
M  V30 2302 C 221.62 -3.89725 5.04374 0
M  V30 2303 C 219.307 -4.20941 4.43004 0
M  V30 2304 C 220.305 -4.18147 5.40039 0
M  V30 2305 O 219.993 -4.43153 6.70724 0
M  V30 2306 H 219.725 -0.597114 0.316908 0
M  V30 2307 H 222.279 -1.41782 1.48617 0
M  V30 2308 H 220.509 -3.81826 0.611999 0
M  V30 2309 H 222.198 -3.92986 1.01573 0
M  V30 2310 H 222.964 -3.41389 3.44498 0
M  V30 2311 H 218.843 -3.966 2.35009 0
M  V30 2312 H 222.387 -3.8746 5.80104 0
M  V30 2313 H 218.284 -4.42761 4.69716 0
M  V30 2314 H 219.052 -4.60717 6.76522 0
M  V30 2315 N 221.715 -0.905404 -1.28997 0
M  V30 2316 C 222.992 -0.453513 -1.9027 0
M  V30 2317 C 223.372 1.06721 -1.82137 0
M  V30 2318 O 222.72 1.91159 -1.25182 0
M  V30 2319 C 222.93 -0.974494 -3.35119 0
M  V30 2320 C 224.278 -1.0216 -4.12127 0
M  V30 2321 O 225.302 -0.922557 -3.44046 0
M  V30 2322 O 224.161 -1.17121 -5.33802 0
M  V30 2323 H 221.255 -0.142347 -0.814657 0
M  V30 2324 H 223.801 -0.995642 -1.37423 0
M  V30 2325 H 222.573 -2.01848 -3.35221 0
M  V30 2326 H 222.196 -0.412706 -3.95452 0
M  V30 2327 N 223.193 1.4272 -0.668489 0
M  V30 2328 C 224.103 2.34596 0.0139753 0
M  V30 2329 C 225.119 1.5474 0.795703 0
M  V30 2330 O 226.295 1.87334 0.739466 0
M  V30 2331 C 223.36 3.33202 0.957982 0
M  V30 2332 C 222.421 4.28957 0.17149 0
M  V30 2333 C 221.654 5.22853 1.07053 0
M  V30 2334 O 221.877 5.21531 2.31001 0
M  V30 2335 O 220.811 5.9952 0.534727 0
M  V30 2336 H 224.637 2.9448 -0.742661 0
M  V30 2337 H 222.222 1.43117 -0.428705 0
M  V30 2338 H 224.104 3.93796 1.50008 0
M  V30 2339 H 222.779 2.758 1.69458 0
M  V30 2340 H 221.686 3.71796 -0.414558 0
M  V30 2341 H 223.019 4.89383 -0.52586 0
M  V30 2342 N 224.671 0.411399 1.52136 0
M  V30 2343 C 225.918 -0.163645 2.01838 0
M  V30 2344 C 226.246 -1.4495 1.29691 0
M  V30 2345 O 225.501 -1.91725 0.392431 0
M  V30 2346 C 225.8 -0.455872 3.54481 0
M  V30 2347 C 225.466 0.741055 4.44769 0
M  V30 2348 C 224.128 1.06936 4.69167 0
M  V30 2349 C 226.48 1.54075 4.97906 0
M  V30 2350 C 223.808 2.19851 5.43951 0
M  V30 2351 C 226.16 2.66067 5.73926 0
M  V30 2352 C 224.824 2.99381 5.96596 0
M  V30 2353 H 224.094 -0.0598821 0.738576 0
M  V30 2354 H 226.741 0.553283 1.83333 0
M  V30 2355 H 225.046 -1.2544 3.71177 0
M  V30 2356 H 226.743 -0.913802 3.90449 0
M  V30 2357 H 223.333 0.475192 4.25958 0
M  V30 2358 H 227.517 1.30033 4.78963 0
M  V30 2359 H 222.773 2.46006 5.59724 0
M  V30 2360 H 226.947 3.28419 6.14096 0
M  V30 2361 H 224.574 3.86992 6.54325 0
M  V30 2362 N 226.149 -1.5696 0.141893 0
M  V30 2363 C 227.079 -2.19516 -0.795936 0
M  V30 2364 C 228.06 -1.14187 -1.26077 0
M  V30 2365 O 229.245 -1.42511 -1.31925 0
M  V30 2366 C 226.375 -2.81272 -2.03723 0
M  V30 2367 C 225.329 -3.92384 -1.70936 0
M  V30 2368 C 224.655 -4.41052 -3.02287 0
M  V30 2369 C 225.955 -5.13403 -0.959954 0
M  V30 2370 H 227.649 -2.98138 -0.274596 0
M  V30 2371 H 225.195 -1.43406 -0.130636 0
M  V30 2372 H 227.148 -3.237 -2.69808 0
M  V30 2373 H 225.872 -1.99973 -2.58221 0
M  V30 2374 H 224.531 -3.50566 -1.07232 0
M  V30 2375 H 224.179 -3.56582 -3.54765 0
M  V30 2376 H 223.879 -5.15993 -2.81114 0
M  V30 2377 H 225.403 -4.86146 -3.69451 0
M  V30 2378 H 226.817 -5.52706 -1.52279 0
M  V30 2379 H 225.214 -5.94073 -0.848357 0
M  V30 2380 H 226.284 -4.84875 0.0492434 0
M  V30 2381 N 227.627 0.131896 -1.57047 0
M  V30 2382 C 228.537 1.1815 -2.02676 0
M  V30 2383 C 229.553 1.46113 -0.944824 0
M  V30 2384 O 230.729 1.57485 -1.25541 0
M  V30 2385 C 227.794 2.49139 -2.41103 0
M  V30 2386 C 226.855 2.28688 -3.63318 0
M  V30 2387 C 226.088 3.53431 -3.99903 0
M  V30 2388 O 226.311 4.60223 -3.36973 0
M  V30 2389 O 225.245 3.45198 -4.93074 0
M  V30 2390 H 229.071 0.824069 -2.92306 0
M  V30 2391 H 226.656 0.341745 -1.45439 0
M  V30 2392 H 228.538 3.26338 -2.66611 0
M  V30 2393 H 227.213 2.84382 -1.54624 0
M  V30 2394 H 226.12 1.4939 -3.42977 0
M  V30 2395 H 227.453 1.98355 -4.50462 0
M  V30 2396 N 229.106 1.52395 0.401703 0
M  V30 2397 C 230.353 1.66817 1.14796 0
M  V30 2398 C 230.681 0.401772 1.90305 0
M  V30 2399 O 229.936 -0.615487 1.85769 0
M  V30 2400 C 230.235 2.84578 2.16217 0
M  V30 2401 C 229.901 4.22513 1.5746 0
M  V30 2402 C 228.563 4.60029 1.41161 0
M  V30 2403 C 230.915 5.0844 1.14622 0
M  V30 2404 C 228.243 5.81144 0.80552 0
M  V30 2405 C 230.595 6.30167 0.55428 0
M  V30 2406 C 229.259 6.66426 0.378482 0
M  V30 2407 H 228.529 0.610428 0.420069 0
M  V30 2408 H 231.176 1.86512 0.434212 0
M  V30 2409 H 229.481 2.59248 2.93764 0
M  V30 2410 H 231.178 2.92933 2.73845 0
M  V30 2411 H 227.768 3.92953 1.71132 0
M  V30 2412 H 231.952 4.80034 1.26021 0
M  V30 2413 H 227.208 6.07855 0.657399 0
M  V30 2414 H 231.382 6.96071 0.213983 0
M  V30 2415 H 229.009 7.60143 -0.0932606 0
M  V30 2416 N 230.584 -0.659388 1.43143 0
M  V30 2417 C 231.517 -1.78425 1.42267 0
M  V30 2418 C 232.495 -1.60085 0.284894 0
M  V30 2419 O 233.679 -1.82351 0.477527 0
M  V30 2420 C 230.806 -3.15642 1.22833 0
M  V30 2421 C 229.852 -3.52698 2.39806 0
M  V30 2422 S 230.685 -3.53372 4.02353 0
M  V30 2423 C 231.841 -4.93256 3.85291 0
M  V30 2424 H 232.074 -1.78897 2.37452 0
M  V30 2425 H 229.607 -0.831469 1.301 0
M  V30 2426 H 231.565 -3.94838 1.12308 0
M  V30 2427 H 230.226 -3.12739 0.29207 0
M  V30 2428 H 229.419 -4.52475 2.21996 0
M  V30 2429 H 229.021 -2.80899 2.46925 0
M  V30 2430 H 231.313 -5.81751 3.47235 0
M  V30 2431 H 232.256 -5.16115 4.84799 0
M  V30 2432 H 232.664 -4.665 3.17865 0
M  V30 2433 N 232.062 -1.29571 -0.897171 0
M  V30 2434 C 233.009 -1.14916 -2.00158 0
M  V30 2435 C 233.979 -0.0418149 -1.66047 0
M  V30 2436 O 235.164 -0.209793 -1.89643 0
M  V30 2437 C 232.304 -0.834307 -3.34863 0
M  V30 2438 C 231.417 -2.02234 -3.8174 0
M  V30 2439 C 230.552 -1.64664 -5.05034 0
M  V30 2440 C 229.591 -2.80033 -5.44286 0
M  V30 2441 N 228.728 -2.42843 -6.58765 0
M  V30 2442 H 233.568 -2.09403 -2.12025 0
M  V30 2443 H 231.105 -1.042 -1.0383 0
M  V30 2444 H 233.063 -0.632436 -4.12379 0
M  V30 2445 H 231.693 0.0736656 -3.22716 0
M  V30 2446 H 230.745 -2.33583 -3.00238 0
M  V30 2447 H 232.057 -2.88673 -4.06779 0
M  V30 2448 H 231.211 -1.4078 -5.9014 0
M  V30 2449 H 229.95 -0.753766 -4.8184 0
M  V30 2450 H 228.955 -3.04596 -4.57713 0
M  V30 2451 H 230.18 -3.69989 -5.6946 0
M  V30 2452 H 228.126 -1.56046 -6.3717 0
M  V30 2453 H 228.043 -3.22815 -6.83613 0
M  V30 2454 H 229.311 -2.22285 -7.47134 0
M  V30 2455 N 233.54 1.10788 -1.12088 0
M  V30 2456 C 234.788 1.8231 -0.872205 0
M  V30 2457 C 235.109 1.85419 0.603709 0
M  V30 2458 O 234.379 1.32963 1.43867 0
M  V30 2459 H 232.959 0.675137 -0.319686 0
M  V30 2460 H 235.621 1.34068 -1.41463 0
M  V30 2461 H 234.717 2.85955 -1.25045 0
M  V30 2462 N 235.018 0.912232 1.28515 0
M  V30 2463 C 236.264 0.545405 1.95328 0
M  V30 2464 C 236.597 -0.908313 1.71649 0
M  V30 2465 O 235.872 -1.64575 1.03659 0
M  V30 2466 C 236.155 0.853483 3.4984 0
M  V30 2467 C 236.008 2.35982 3.82926 0
M  V30 2468 C 237.327 0.348589 4.38717 0
M  V30 2469 H 234.446 0.199626 0.709449 0
M  V30 2470 H 237.088 1.1412 1.5191 0
M  V30 2471 H 235.238 0.34643 3.86952 0
M  V30 2472 H 236.91 2.93738 3.55691 0
M  V30 2473 H 235.153 2.81543 3.30024 0
M  V30 2474 H 235.824 2.52593 4.90816 0
M  V30 2475 H 238.3 0.78294 4.08668 0
M  V30 2476 H 237.176 0.593242 5.45685 0
M  V30 2477 H 237.437 -0.751049 4.35674 0
M  V30 2478 N 236.496 -1.42363 0.676048 0
M  V30 2479 C 237.406 -2.346 -0.00153389 0
M  V30 2480 C 238.422 -1.5516 -0.787485 0
M  V30 2481 O 239.598 -1.87723 -0.729521 0
M  V30 2482 C 236.663 -3.33705 -0.940298 0
M  V30 2483 C 235.724 -4.29042 -0.148739 0
M  V30 2484 C 234.957 -5.23413 -1.04279 0
M  V30 2485 O 235.18 -5.22749 -2.28232 0
M  V30 2486 O 234.114 -5.99795 -0.502925 0
M  V30 2487 H 237.94 -2.94082 0.758268 0
M  V30 2488 H 235.525 -1.42888 0.436289 0
M  V30 2489 H 237.407 -3.94586 -1.47917 0
M  V30 2490 H 236.082 -2.76695 -1.67993 0
M  V30 2491 H 234.989 -3.71571 0.43427 0
M  V30 2492 H 236.322 -4.89097 0.551805 0
M  V30 2493 O 238.013 -0.561574 -1.51422 0
M  V30 2494 H 238.704 -0.0603133 -1.93606 0
M  V30 END ATOM
M  V30 BEGIN BOND
M  V30 END BOND
M  V30 END CTAB
M  END
$$$$
