drugbank_target|P29317 Ephrin type-A receptor 2 (DB01254; DB04395; DB08896; DB12010)
 OpenBabel12092119413D

  0  0  0     0  0            999 V3000
M  V30 BEGIN CTAB
M  V30 COUNTS 15078 15260 0 0 0
M  V30 BEGIN ATOM
M  V30 1 H -0.908 1.98254 -0.117106 0
M  V30 2 N 0 1.576 0 0
M  V30 3 C 0.933 2.03868 1.02534 0
M  V30 4 C 1.911 0.928543 1.3348 0
M  V30 5 O 3.095 1.19667 1.45644 0
M  V30 6 C 0.222 2.43627 2.35294 0
M  V30 7 C -0.732 3.65373 2.2001 0
M  V30 8 S 0.101 5.13292 1.52614 0
M  V30 9 C 1.257 5.56322 2.86805 0
M  V30 10 H 1.49 2.90518 0.631377 0
M  V30 11 H -0.977 1.52953 0.210867 0
M  V30 12 H 0.981 2.67203 3.11629 0
M  V30 13 H -0.358 1.57376 2.7183 0
M  V30 14 H -1.165 3.90944 3.18086 0
M  V30 15 H -1.563 3.418 1.51819 0
M  V30 16 H 0.729 5.58782 3.83104 0
M  V30 17 H 1.672 6.56266 2.65933 0
M  V30 18 H 2.08 4.83886 2.90714 0
M  V30 19 N 1.4781 -0.272755 1.55222 0
M  V30 20 C 2.3881 -1.35918 1.91216 0
M  V30 21 C 3.4041 -1.54026 0.809436 0
M  V30 22 O 4.5801 -1.68148 1.10852 0
M  V30 23 C 1.6451 -2.69834 2.17693 0
M  V30 24 C 0.7061 -2.6047 3.41253 0
M  V30 25 C -0.0609 -3.88 3.66458 0
M  V30 26 O 0.1621 -4.88693 2.94169 0
M  V30 27 O -0.9039 -3.88189 4.59992 0
M  V30 28 H 2.9221 -1.0839 2.83699 0
M  V30 29 H 0.5071 -0.471301 1.41771 0
M  V30 30 H 2.3891 -3.49017 2.36147 0
M  V30 31 H 1.0641 -2.97148 1.28392 0
M  V30 32 H -0.0289 -1.79663 3.28134 0
M  V30 33 H 1.3041 -2.38106 4.30774 0
M  V30 34 N 2.9562 -1.48159 -0.537278 0
M  V30 35 C 3.8862 -1.65029 -1.6519 0
M  V30 36 C 4.8672 -0.499281 -1.62607 0
M  V30 37 O 6.0522 -0.730972 -1.79918 0
M  V30 38 C 3.1822 -1.68303 -3.03795 0
M  V30 39 C 2.1362 -2.8283 -3.21234 0
M  V30 40 C 1.4622 -2.71189 -4.60826 0
M  V30 41 C 2.7622 -4.24211 -3.04701 0
M  V30 42 H 4.4562 -2.58341 -1.51328 0
M  V30 43 H 2.0022 -1.24325 -0.726585 0
M  V30 44 H 3.9552 -1.78693 -3.81637 0
M  V30 45 H 2.6792 -0.715635 -3.18663 0
M  V30 46 H 1.3382 -2.71983 -2.45807 0
M  V30 47 H 0.9862 -1.72435 -4.7252 0
M  V30 48 H 0.6862 -3.48035 -4.7344 0
M  V30 49 H 2.2102 -2.83537 -5.40777 0
M  V30 50 H 3.6242 -4.3593 -3.72341 0
M  V30 51 H 2.0212 -5.01998 -3.28813 0
M  V30 52 H 3.0912 -4.41184 -2.01209 0
M  V30 53 N 4.4343 0.785586 -1.36625 0
M  V30 54 C 5.3663 1.90711 -1.2713 0
M  V30 55 C 6.3793 1.61688 -0.189986 0
M  V30 56 O 7.5683 1.72864 -0.445014 0
M  V30 57 C 4.6683 3.25611 -0.939713 0
M  V30 58 C 3.8413 3.82385 -2.12369 0
M  V30 59 C 2.9003 4.95732 -1.76456 0
M  V30 60 O 1.9263 5.12047 -2.48589 0
M  V30 61 N 3.1283 5.76258 -0.700492 0
M  V30 62 H 5.8933 1.99376 -2.23762 0
M  V30 63 H 3.4543 0.964041 -1.30069 0
M  V30 64 H 5.4463 3.98937 -0.680554 0
M  V30 65 H 4.0163 3.12538 -0.0624074 0
M  V30 66 H 3.2363 3.01001 -2.54543 0
M  V30 67 H 4.5243 4.17047 -2.9146 0
M  V30 68 H 3.9223 5.65609 -0.101624 0
M  V30 69 H 2.4793 6.4987 -0.501165 0
M  V30 70 N 5.9124 1.20967 1.01018 0
M  V30 71 C 6.8754 0.965918 2.07853 0
M  V30 72 C 7.8754 -0.0610545 1.60684 0
M  V30 73 O 9.0654 0.175681 1.73312 0
M  V30 74 C 6.1974 0.455513 3.37843 0
M  V30 75 H 7.3904 1.91365 2.3091 0
M  V30 76 H 4.9434 1.02594 1.17916 0
M  V30 77 H 5.6784 -0.497381 3.20463 0
M  V30 78 H 5.4634 1.19622 3.73407 0
M  V30 79 H 6.9534 0.304667 4.16487 0
M  V30 80 N 7.3905 -1.2043 1.01659 0
M  V30 81 C 8.3535 -2.21433 0.591616 0
M  V30 82 C 9.3535 -1.57203 -0.338226 0
M  V30 83 O 10.5435 -1.73737 -0.126918 0
M  V30 84 C 7.6755 -3.40628 -0.136058 0
M  V30 85 H 8.8685 -2.60545 1.48514 0
M  V30 86 H 6.4215 -1.33893 0.806379 0
M  V30 87 H 7.1565 -3.07019 -1.04449 0
M  V30 88 H 6.9415 -3.88475 0.531917 0
M  V30 89 H 8.4315 -4.15475 -0.420735 0
M  V30 90 N 8.8686 -0.792821 -1.36206 0
M  V30 91 C 10.2846 -0.474903 -1.52371 0
M  V30 92 C 10.4846 1.00622 -1.74578 0
M  V30 93 O 9.5406 1.79162 -1.77924 0
M  V30 94 C 10.8536 -1.3083 -2.70747 0
M  V30 95 C 12.4016 -1.30234 -2.84619 0
M  V30 96 C 12.8766 -2.11956 -4.06004 0
M  V30 97 N 14.3676 -2.09419 -4.13156 0
M  V30 98 C 15.1026 -2.69419 -5.06163 0
M  V30 99 N 14.5986 -3.3829 -6.04592 0
M  V30 100 N 16.3916 -2.59134 -4.98804 0
M  V30 101 H 8.5426 -1.75222 -1.20046 0
M  V30 102 H 10.8056 -0.745024 -0.586211 0
M  V30 103 H 10.5116 -2.35881 -2.6087 0
M  V30 104 H 10.3856 -0.95196 -3.6499 0
M  V30 105 H 12.7726 -0.259748 -2.93955 0
M  V30 106 H 12.8536 -1.69847 -1.91274 0
M  V30 107 H 12.4976 -3.16248 -3.97429 0
M  V30 108 H 12.4276 -1.69711 -4.98503 0
M  V30 109 H 14.9186 -1.59297 -3.42685 0
M  V30 110 H 15.2316 -3.81394 -6.7213 0
M  V30 111 H 13.5766 -3.42393 -6.04807 0
M  V30 112 H 16.7676 -2.04927 -4.20859 0
M  V30 113 H 16.9406 -3.06185 -5.711 0
M  V30 114 N 10.3467 1.47872 -0.545128 0
M  V30 115 C 11.3097 2.28337 0.198717 0
M  V30 116 C 12.3097 1.36255 0.853888 0
M  V30 117 O 13.4997 1.59003 0.711606 0
M  V30 118 C 10.6317 3.15585 1.28915 0
M  V30 119 H 11.8247 2.95567 -0.507941 0
M  V30 120 H 9.3777 1.53362 -0.301616 0
M  V30 121 H 10.1127 2.53019 2.02859 0
M  V30 122 H 9.8977 3.83337 0.824309 0
M  V30 123 H 11.3877 3.76243 1.81194 0
M  V30 124 N 11.8248 0.280983 1.55075 0
M  V30 125 C 13.0648 -0.335234 2.01632 0
M  V30 126 C 13.4288 -1.5261 1.16508 0
M  V30 127 O 14.6298 -2.21235 1.52672 0
M  V30 128 C 12.9008 -0.702172 3.50434 0
M  V30 129 S 14.4598 -1.30409 4.18974 0
M  V30 130 H 11.2778 -0.103967 0.703358 0
M  V30 131 H 13.8798 0.404187 1.91276 0
M  V30 132 H 12.5838 0.17333 4.10034 0
M  V30 133 H 12.1148 -1.4729 3.64786 0
M  V30 134 H 14.1298 -2.59253 4.23087 0
M  V30 135 N 13.3029 -1.57598 0.00835791 0
M  V30 136 C 14.5499 -1.90928 -0.674732 0
M  V30 137 C 14.8779 -0.88277 -1.73313 0
M  V30 138 O 14.1329 0.111294 -1.95383 0
M  V30 139 C 14.4319 -3.3101 -1.34787 0
M  V30 140 C 14.0979 -4.48922 -0.421861 0
M  V30 141 C 12.7599 -4.8091 -0.166927 0
M  V30 142 C 15.1119 -5.20755 0.215211 0
M  V30 143 C 12.4399 -5.821 0.733232 0
M  V30 144 C 14.7919 -6.22905 1.1033 0
M  V30 145 C 13.4559 -6.53346 1.36733 0
M  V30 146 H 12.7259 -0.698656 -0.246902 0
M  V30 147 H 15.3729 -1.91387 0.0656779 0
M  V30 148 H 13.6779 -3.26714 -2.16253 0
M  V30 149 H 15.3749 -3.54061 -1.8826 0
M  V30 150 H 11.9649 -4.23934 -0.630729 0
M  V30 151 H 16.1489 -4.9629 0.0312829 0
M  V30 152 H 11.4049 -6.04042 0.945712 0
M  V30 153 H 15.5789 -6.77694 1.60325 0
M  V30 154 H 13.2059 -7.31573 2.06652 0
M  V30 155 N 14.781 0.264519 -1.55364 0
M  V30 156 C 15.744 1.31046 -1.88042 0
M  V30 157 C 16.744 1.41943 -0.755569 0
M  V30 158 O 17.934 1.40947 -1.02369 0
M  V30 159 C 15.066 2.69067 -2.09323 0
M  V30 160 H 16.259 1.03297 -2.81549 0
M  V30 161 H 13.812 0.502989 -1.47986 0
M  V30 162 H 14.547 3.01982 -1.18226 0
M  V30 163 H 14.332 2.62542 -2.91229 0
M  V30 164 H 15.822 3.44623 -2.35848 0
M  V30 165 N 16.2591 1.48442 0.529413 0
M  V30 166 C 17.1891 1.65902 1.64313 0
M  V30 167 C 18.1701 0.507897 1.6234 0
M  V30 168 O 19.3551 0.740503 1.79528 0
M  V30 169 C 16.4851 1.69911 3.02898 0
M  V30 170 C 15.4391 2.8453 3.19729 0
M  V30 171 C 14.7651 2.73629 4.59381 0
M  V30 172 C 16.0651 4.25821 3.02447 0
M  V30 173 H 17.7591 2.5914 1.49955 0
M  V30 174 H 15.3051 1.24709 0.719982 0
M  V30 175 H 17.2581 1.80715 3.80684 0
M  V30 176 H 15.9821 0.732524 3.18279 0
M  V30 177 H 14.6411 2.73283 2.44361 0
M  V30 178 H 14.2891 1.74938 4.71599 0
M  V30 179 H 13.9891 3.50541 4.71588 0
M  V30 180 H 15.5131 2.86401 5.39265 0
M  V30 181 H 16.9271 4.37898 3.70024 0
M  V30 182 H 15.3241 5.03735 3.26146 0
M  V30 183 H 16.3941 4.42244 1.98867 0
M  V30 184 N 17.7372 -0.778329 1.37039 0
M  V30 185 C 18.6672 -1.90546 1.34962 0
M  V30 186 C 19.6482 -1.68681 0.219274 0
M  V30 187 O 20.8332 -1.89634 0.418624 0
M  V30 188 C 17.9632 -3.27734 1.14925 0
M  V30 189 C 16.9172 -3.64147 2.24902 0
M  V30 190 C 16.2432 -4.99806 1.89996 0
M  V30 191 C 17.5432 -3.71579 3.67051 0
M  V30 192 H 19.2372 -1.92541 2.29277 0
M  V30 193 H 16.7832 -0.924948 1.10366 0
M  V30 194 H 18.7362 -4.06215 1.12104 0
M  V30 195 H 17.4602 -3.26154 0.170631 0
M  V30 196 H 16.1192 -2.8797 2.26868 0
M  V30 197 H 15.7672 -4.94759 0.906796 0
M  V30 198 H 15.4672 -5.25139 2.63634 0
M  V30 199 H 16.9912 -5.80694 1.88749 0
M  V30 200 H 18.4052 -4.40227 3.67251 0
M  V30 201 H 16.8022 -4.08405 4.39688 0
M  V30 202 H 17.8722 -2.72404 4.01154 0
M  V30 203 N 19.2153 -1.21501 -1.00376 0
M  V30 204 C 20.4613 -1.04457 -1.74529 0
M  V30 205 C 20.8163 0.417386 -1.87818 0
M  V30 206 O 20.1093 1.30556 -1.40234 0
M  V30 207 C 20.3033 -1.67673 -3.15627 0
M  V30 208 C 20.1323 -3.19865 -3.16096 0
M  V30 209 C 18.9023 -3.88915 -3.22604 0
M  V30 210 C 21.1003 -4.16936 -3.01112 0
M  V30 211 N 19.0823 -5.28284 -3.12712 0
M  V30 212 C 20.4533 -5.43066 -2.99131 0
M  V30 213 C 22.5083 -4.07968 -2.85423 0
M  V30 214 C 21.2113 -6.6126 -2.83068 0
M  V30 215 C 23.2373 -5.258 -2.70718 0
M  V30 216 C 22.5993 -6.50842 -2.69414 0
M  V30 217 H 18.6983 -0.436584 -0.648782 0
M  V30 218 H 21.2823 -1.53875 -1.19293 0
M  V30 219 H 19.4533 -1.20822 -3.6913 0
M  V30 220 H 21.1853 -1.43824 -3.78281 0
M  V30 221 H 17.9403 -3.39847 -3.2985 0
M  V30 222 H 18.3643 -6.01284 -3.11105 0
M  V30 223 H 23.0063 -3.1209 -2.85236 0
M  V30 224 H 20.7243 -7.57298 -2.82002 0
M  V30 225 H 24.3103 -5.20683 -2.59577 0
M  V30 226 H 23.1903 -7.40485 -2.5817 0
M  V30 227 N 20.6934 1.19889 -1.02296 0
M  V30 228 C 21.9414 1.89046 -0.714558 0
M  V30 229 C 22.2624 1.79636 0.758681 0
M  V30 230 O 21.5324 1.20292 1.54618 0
M  V30 231 H 20.1124 0.699802 -0.261317 0
M  V30 232 H 22.7744 1.45574 -1.29592 0
M  V30 233 H 21.8704 2.95524 -1.0036 0
M  V30 234 N 22.1715 0.800033 1.35784 0
M  V30 235 C 23.4115 0.382891 2.00782 0
M  V30 236 C 23.7755 -1.02891 1.62103 0
M  V30 237 O 24.9765 -1.54771 2.19771 0
M  V30 238 C 23.2475 0.553299 3.53091 0
M  V30 239 S 24.8065 0.225608 4.3822 0
M  V30 240 H 21.6245 0.145737 0.695904 0
M  V30 241 H 24.2265 1.04085 1.65489 0
M  V30 242 H 22.9305 1.58091 3.78729 0
M  V30 243 H 22.4615 -0.120214 3.93216 0
M  V30 244 H 24.4765 -0.969074 4.86645 0
M  V30 245 N 23.6496 -1.47581 0.552962 0
M  V30 246 C 24.6126 -2.28439 -0.186605 0
M  V30 247 C 25.6126 -1.36706 -0.84665 0
M  V30 248 O 26.8026 -1.59378 -0.703164 0
M  V30 249 C 23.9346 -3.16264 -1.2724 0
M  V30 250 H 25.1276 -2.95294 0.523609 0
M  V30 251 H 22.6806 -1.532 0.309745 0
M  V30 252 H 23.4156 -2.54091 -2.01514 0
M  V30 253 H 23.2006 -3.83769 -0.803968 0
M  V30 254 H 24.6906 -3.77198 -1.79196 0
M  V30 255 N 25.1277 -0.289203 -1.54924 0
M  V30 256 C 26.0577 0.58549 -2.2604 0
M  V30 257 C 27.0387 1.14753 -1.25562 0
M  V30 258 O 28.2237 1.17906 -1.54311 0
M  V30 259 C 25.3537 1.76305 -2.99222 0
M  V30 260 C 24.3077 1.33191 -4.06748 0
M  V30 261 C 23.6337 2.5937 -4.6758 0
M  V30 262 C 24.9337 0.471775 -5.20165 0
M  V30 263 H 26.6277 -0.00763532 -2.99399 0
M  V30 264 H 24.1737 -0.00511229 -1.43999 0
M  V30 265 H 26.1267 2.38097 -3.47689 0
M  V30 266 H 24.8507 2.38223 -2.23422 0
M  V30 267 H 23.5097 0.737121 -3.59113 0
M  V30 268 H 23.1577 3.19576 -3.88433 0
M  V30 269 H 22.8577 2.31228 -5.40192 0
M  V30 270 H 24.3817 3.21985 -5.18804 0
M  V30 271 H 25.7957 0.995056 -5.64599 0
M  V30 272 H 24.1927 0.284639 -5.99425 0
M  V30 273 H 25.2627 -0.506041 -4.82252 0
M  V30 274 N 26.6058 1.57591 -0.0167156 0
M  V30 275 C 27.5688 2.08393 0.954204 0
M  V30 276 C 28.5688 0.996531 1.26198 0
M  V30 277 O 29.7588 1.25858 1.20438 0
M  V30 278 C 26.8908 2.5394 2.27436 0
M  V30 279 H 28.0838 2.95455 0.514451 0
M  V30 280 H 25.6368 1.54582 0.231089 0
M  V30 281 H 26.3718 1.70171 2.76066 0
M  V30 282 H 26.1568 3.33371 2.06412 0
M  V30 283 H 27.6468 2.93512 2.97053 0
M  V30 284 N 28.0839 -0.256276 1.55502 0
M  V30 285 C 29.0469 -1.30047 1.88734 0
M  V30 286 C 30.0469 -1.4154 0.763086 0
M  V30 287 O 31.2369 -1.40403 1.03115 0
M  V30 288 C 28.3689 -2.67953 2.10747 0
M  V30 289 H 29.5619 -1.01802 2.82093 0
M  V30 290 H 27.1149 -0.495134 1.4825 0
M  V30 291 H 27.8499 -3.01351 1.19825 0
M  V30 292 H 27.6349 -2.60993 2.92617 0
M  V30 293 H 29.1249 -3.43368 2.37673 0
M  V30 294 N 29.562 -1.4872 -0.521534 0
M  V30 295 C 30.525 -1.63379 -1.60748 0
M  V30 296 C 31.525 -0.50661 -1.52611 0
M  V30 297 O 32.715 -0.772601 -1.5613 0
M  V30 298 C 29.847 -1.61192 -3.00383 0
M  V30 299 H 31.04 -2.60217 -1.49087 0
M  V30 300 H 28.593 -1.37444 -0.744235 0
M  V30 301 H 29.328 -0.65863 -3.17541 0
M  V30 302 H 29.113 -2.43032 -3.07698 0
M  V30 303 H 30.603 -1.7466 -3.7932 0
M  V30 304 N 31.0401 0.771051 -1.3745 0
M  V30 305 C 32.0031 1.86598 -1.33093 0
M  V30 306 C 33.0031 1.59076 -0.234845 0
M  V30 307 O 34.1931 1.67145 -0.490732 0
M  V30 308 C 31.3251 3.23747 -1.06773 0
M  V30 309 H 32.5181 1.91873 -2.30488 0
M  V30 310 H 30.0711 0.970876 -1.2249 0
M  V30 311 H 30.8061 3.24148 -0.099129 0
M  V30 312 H 30.5911 3.45115 -1.86112 0
M  V30 313 H 32.0811 4.03824 -1.06377 0
M  V30 314 N 32.5182 1.22032 0.997298 0
M  V30 315 C 33.4812 0.987909 2.06816 0
M  V30 316 C 34.4812 -0.0440084 1.6074 0
M  V30 317 O 35.6712 0.194053 1.73116 0
M  V30 318 C 32.8032 0.49132 3.37341 0
M  V30 319 H 33.9962 1.93803 2.28868 0
M  V30 320 H 31.5492 1.03838 1.16822 0
M  V30 321 H 32.2842 -0.463364 3.20973 0
M  V30 322 H 32.0692 1.23575 3.72118 0
M  V30 323 H 33.5592 0.348824 4.16141 0
M  V30 324 N 33.9963 -1.19345 1.0293 0
M  V30 325 C 34.9593 -2.20793 0.615069 0
M  V30 326 C 35.9593 -1.57553 -0.321533 0
M  V30 327 O 37.1493 -1.73862 -0.108483 0
M  V30 328 C 34.2813 -3.40754 -0.0999222 0
M  V30 329 H 35.4743 -2.58955 1.51269 0
M  V30 330 H 33.0273 -1.3303 0.820534 0
M  V30 331 H 33.7623 -3.0811 -1.01187 0
M  V30 332 H 33.5473 -3.87889 0.57309 0
M  V30 333 H 35.0373 -4.15898 -0.376645 0
M  V30 334 N 35.4744 -0.807222 -1.35358 0
M  V30 335 C 36.4064 -0.175717 -2.28525 0
M  V30 336 C 37.4194 0.625354 -1.5031 0
M  V30 337 O 38.6084 0.457611 -1.72535 0
M  V30 338 C 35.7084 0.773471 -3.29956 0
M  V30 339 C 34.8814 0.0186296 -4.37396 0
M  V30 340 C 33.9404 0.886395 -5.18681 0
M  V30 341 O 32.9664 0.337106 -5.68201 0
M  V30 342 N 34.1684 2.20839 -5.36852 0
M  V30 343 H 36.9334 -0.976091 -2.83359 0
M  V30 344 H 34.4944 -0.662737 -1.47714 0
M  V30 345 H 36.4864 1.35824 -3.81227 0
M  V30 346 H 35.0564 1.47465 -2.75632 0
M  V30 347 H 34.2764 -0.747349 -3.87051 0
M  V30 348 H 35.5644 -0.501577 -5.06322 0
M  V30 349 H 34.9624 2.67858 -4.98265 0
M  V30 350 H 33.5194 2.74237 -5.91301 0
M  V30 351 N 36.9525 1.47285 -0.560781 0
M  V30 352 C 38.2005 2.02064 -0.0379868 0
M  V30 353 C 38.5215 1.43711 1.31803 0
M  V30 354 O 37.7915 0.61362 1.86042 0
M  V30 355 H 36.3715 0.746918 -0.0110531 0
M  V30 356 H 39.0335 1.80648 -0.731598 0
M  V30 357 H 38.1295 3.12064 0.0474463 0
M  V30 358 N 38.4306 0.297415 1.54768 0
M  V30 359 C 39.3776 -0.580276 2.23386 0
M  V30 360 C 40.3476 -1.13238 1.21517 0
M  V30 361 O 41.5326 -1.17757 1.50126 0
M  V30 362 C 38.6726 -1.74801 2.97555 0
M  V30 363 C 37.7856 -1.22764 4.1419 0
M  V30 364 C 36.9206 -2.35895 4.75949 0
M  V30 365 C 35.9596 -1.80974 5.84735 0
M  V30 366 N 35.0966 -2.87664 6.40464 0
M  V30 367 H 39.9366 0.0114833 2.97998 0
M  V30 368 H 37.4736 0.0174361 1.4709 0
M  V30 369 H 39.4316 -2.43475 3.38786 0
M  V30 370 H 38.0616 -2.31145 2.25326 0
M  V30 371 H 37.1136 -0.433271 3.77924 0
M  V30 372 H 38.4256 -0.785551 4.92575 0
M  V30 373 H 37.5796 -3.12523 5.20014 0
M  V30 374 H 36.3186 -2.83429 3.96887 0
M  V30 375 H 35.3236 -1.02834 5.40097 0
M  V30 376 H 36.5486 -1.34348 6.65678 0
M  V30 377 H 34.4946 -3.34538 5.64287 0
M  V30 378 H 34.4116 -2.4794 7.14186 0
M  V30 379 H 35.6796 -3.642 6.89187 0
M  V30 380 N 39.9087 -1.5758 0.0250728 0
M  V30 381 C 40.8187 -2.1343 -0.973905 0
M  V30 382 C 41.8347 -1.08556 -1.35984 0
M  V30 383 O 43.0107 -1.40592 -1.44207 0
M  V30 384 C 40.0757 -2.64703 -2.23904 0
M  V30 385 C 39.1367 -3.84276 -1.91391 0
M  V30 386 C 38.3697 -4.33095 -3.11873 0
M  V30 387 O 38.5927 -3.81107 -4.24398 0
M  V30 388 O 37.5267 -5.24984 -2.94406 0
M  V30 389 H 41.3527 -2.99057 -0.529036 0
M  V30 390 H 38.9377 -1.48118 -0.195288 0
M  V30 391 H 40.8197 -2.97769 -2.98181 0
M  V30 392 H 39.4947 -1.82161 -2.6758 0
M  V30 393 H 38.4017 -3.56143 -1.14511 0
M  V30 394 H 39.7347 -4.67968 -1.52534 0
M  V30 395 N 41.3868 0.248026 -1.55636 0
M  V30 396 C 42.6328 0.97767 -1.77678 0
M  V30 397 C 42.9658 1.85016 -0.590135 0
M  V30 398 O 42.2408 1.90095 0.411611 0
M  V30 399 C 42.5238 1.83914 -3.09593 0
M  V30 400 C 42.3768 0.99491 -4.38659 0
M  V30 401 C 43.6958 2.82183 -3.37729 0
M  V30 402 H 40.8148 0.354005 -0.646413 0
M  V30 403 H 43.4568 0.248253 -1.88371 0
M  V30 404 H 41.6068 2.46104 -3.00608 0
M  V30 405 H 43.2788 0.391789 -4.59633 0
M  V30 406 H 41.5218 0.299231 -4.32767 0
M  V30 407 H 42.1928 1.63145 -5.2734 0
M  V30 408 H 44.6688 2.30129 -3.4667 0
M  V30 409 H 43.5448 3.39582 -4.31249 0
M  V30 410 H 43.8058 3.58588 -2.58586 0
M  V30 411 N 42.8649 1.48995 0.513639 0
M  V30 412 C 44.1109 1.58076 1.27042 0
M  V30 413 C 44.4439 0.261026 1.92438 0
M  V30 414 O 43.7189 -0.734393 1.80103 0
M  V30 415 C 44.0019 2.73091 2.34719 0
M  V30 416 C 43.8549 4.14821 1.73907 0
M  V30 417 C 45.1739 2.83796 3.36375 0
M  V30 418 H 42.2929 0.575391 0.460536 0
M  V30 419 H 44.9349 1.81232 0.570516 0
M  V30 420 H 43.0849 2.53479 2.94416 0
M  V30 421 H 44.7569 4.45917 1.18135 0
M  V30 422 H 42.9999 4.21058 1.0437 0
M  V30 423 H 43.6709 4.91147 2.51949 0
M  V30 424 H 46.1469 3.01611 2.86653 0
M  V30 425 H 45.0229 3.65971 4.09093 0
M  V30 426 H 45.2839 1.92624 3.9793 0
M  V30 427 N 44.343 -0.763751 1.37857 0
M  V30 428 C 45.273 -1.89103 1.36975 0
M  V30 429 C 46.254 -1.68439 0.237152 0
M  V30 430 O 47.439 -1.8918 0.438713 0
M  V30 431 C 44.569 -3.26496 1.18395 0
M  V30 432 C 43.523 -3.61741 2.28751 0
M  V30 433 C 42.849 -4.97762 1.95286 0
M  V30 434 C 44.149 -3.67665 3.70972 0
M  V30 435 H 45.843 -1.90099 2.31307 0
M  V30 436 H 43.389 -0.91319 1.11341 0
M  V30 437 H 45.342 -4.05003 1.16406 0
M  V30 438 H 44.066 -3.25955 0.205215 0
M  V30 439 H 42.725 -2.85547 2.29909 0
M  V30 440 H 42.373 -4.93769 0.959221 0
M  V30 441 H 42.073 -5.22313 2.69189 0
M  V30 442 H 43.597 -5.7866 1.94898 0
M  V30 443 H 45.011 -4.36307 3.719 0
M  V30 444 H 43.408 -4.03718 4.43995 0
M  V30 445 H 44.478 -2.68134 4.0402 0
M  V30 446 N 45.8211 -1.22559 -0.990812 0
M  V30 447 C 46.7511 -1.0218 -2.09956 0
M  V30 448 C 47.7321 0.0579394 -1.70001 0
M  V30 449 O 48.9171 -0.104684 -1.93918 0
M  V30 450 C 46.0471 -0.601023 -3.4206 0
M  V30 451 C 45.0011 -1.62694 -3.95872 0
M  V30 452 C 44.3271 -1.06193 -5.24049 0
M  V30 453 C 45.6271 -3.01743 -4.2632 0
M  V30 454 H 47.3211 -1.94916 -2.27262 0
M  V30 455 H 44.8671 -0.938566 -1.09211 0
M  V30 456 H 46.8201 -0.445561 -4.19038 0
M  V30 457 H 45.5441 0.362005 -3.24588 0
M  V30 458 H 44.2031 -1.77021 -3.21028 0
M  V30 459 H 43.8511 -0.0901903 -5.02919 0
M  V30 460 H 43.5511 -1.74732 -5.61019 0
M  V30 461 H 45.0751 -0.918092 -6.03658 0
M  V30 462 H 46.4891 -2.90777 -4.94087 0
M  V30 463 H 44.8861 -3.67425 -4.74467 0
M  V30 464 H 45.9561 -3.51518 -3.34011 0
M  V30 465 N 47.2992 1.18797 -1.03562 0
M  V30 466 C 48.5762 1.84469 -0.650434 0
M  V30 467 C 48.9562 1.92319 0.870433 0
M  V30 468 O 48.3042 1.44528 1.76986 0
M  V30 469 C 48.5142 3.2306 -1.32036 0
M  V30 470 C 49.8622 3.9915 -1.44792 0
M  V30 471 O 50.8862 3.32481 -1.27806 0
M  V30 472 O 49.7452 5.18587 -1.72423 0
M  V30 473 H 46.8392 0.795251 -0.226946 0
M  V30 474 H 49.3852 1.26231 -1.13419 0
M  V30 475 H 48.1572 3.1222 -2.3587 0
M  V30 476 H 47.7802 3.88949 -0.8249 0
M  V30 477 N 48.7773 0.814389 1.34928 0
M  V30 478 C 50.0243 0.398423 1.98542 0
M  V30 479 C 50.3523 -1.03638 1.64589 0
M  V30 480 O 49.6073 -1.73509 0.90516 0
M  V30 481 C 49.9063 0.537781 3.53331 0
M  V30 482 C 49.5723 1.93704 4.07172 0
M  V30 483 C 48.2343 2.31984 4.21589 0
M  V30 484 C 50.5863 2.85213 4.36237 0
M  V30 485 C 47.9143 3.61125 4.62391 0
M  V30 486 C 50.2663 4.13809 4.78482 0
M  V30 487 C 48.9303 4.52077 4.91104 0
M  V30 488 H 48.2003 0.145793 0.726516 0
M  V30 489 H 50.8473 1.03669 1.61012 0
M  V30 490 H 49.1523 -0.183906 3.91368 0
M  V30 491 H 50.8493 0.196588 4.00518 0
M  V30 492 H 47.4393 1.62966 3.96409 0
M  V30 493 H 51.6233 2.56885 4.24645 0
M  V30 494 H 46.8793 3.90612 4.70353 0
M  V30 495 H 51.0533 4.84811 4.99932 0
M  V30 496 H 48.6803 5.52196 5.22478 0
M  V30 497 N 50.2554 -1.46986 0.568584 0
M  V30 498 C 51.2184 -2.28624 -0.162366 0
M  V30 499 C 52.2184 -1.37596 -0.832103 0
M  V30 500 O 53.4084 -1.60115 -0.68622 0
M  V30 501 C 50.5404 -3.17596 -1.23878 0
M  V30 502 H 51.7334 -2.94722 0.554899 0
M  V30 503 H 49.2864 -1.52863 0.325976 0
M  V30 504 H 50.0214 -2.56214 -1.98808 0
M  V30 505 H 49.8064 -3.846 -0.763219 0
M  V30 506 H 51.2964 -3.79078 -1.75185 0
M  V30 507 N 51.7335 -0.305618 -1.54608 0
M  V30 508 C 52.6965 0.555591 -2.22364 0
M  V30 509 C 53.6965 1.05768 -1.21119 0
M  V30 510 O 54.8865 0.952972 -1.45822 0
M  V30 511 C 52.0185 1.76974 -2.91364 0
M  V30 512 H 53.2115 -0.0364572 -2.99878 0
M  V30 513 H 50.7645 -0.0565007 -1.56198 0
M  V30 514 H 51.4995 2.40151 -2.17941 0
M  V30 515 H 51.2845 1.41732 -3.65588 0
M  V30 516 H 52.7745 2.38148 -3.43038 0
M  V30 517 N 53.2116 1.57565 -0.0334293 0
M  V30 518 C 54.1746 2.09393 0.932048 0
M  V30 519 C 55.1746 1.00986 1.25134 0
M  V30 520 O 56.3646 1.27129 1.19096 0
M  V30 521 C 53.4966 2.56338 2.2473 0
M  V30 522 H 54.6896 2.95984 0.483085 0
M  V30 523 H 52.2426 1.54819 0.21468 0
M  V30 524 H 52.9776 1.7309 2.74245 0
M  V30 525 H 52.7626 3.35542 2.02865 0
M  V30 526 H 54.2526 2.96646 2.93923 0
M  V30 527 N 54.6897 -0.239769 1.55765 0
M  V30 528 C 55.9377 -0.964892 1.77579 0
M  V30 529 C 56.2587 -1.85582 0.598699 0
M  V30 530 O 55.5287 -1.92075 -0.385226 0
M  V30 531 H 54.1087 -0.359265 0.654933 0
M  V30 532 H 56.7707 -0.256001 1.93211 0
M  V30 533 H 55.8667 -1.58243 2.69009 0
M  V30 534 N 56.1678 -1.49265 -0.50573 0
M  V30 535 C 57.4158 -1.582 -1.25766 0
M  V30 536 C 57.7368 -0.268482 -1.93143 0
M  V30 537 O 57.0068 0.711833 -1.8251 0
M  V30 538 H 55.5868 -0.582873 -0.467191 0
M  V30 539 H 58.2488 -1.85865 -0.586525 0
M  V30 540 H 57.3448 -2.37563 -2.02412 0
M  V30 541 N 57.6459 0.756429 -1.3826 0
M  V30 542 C 58.5559 1.9009 -1.37488 0
M  V30 543 C 59.5719 1.71855 -0.272366 0
M  V30 544 O 60.7479 1.94827 -0.510318 0
M  V30 545 C 57.8129 3.25421 -1.19592 0
M  V30 546 C 56.8739 3.56202 -2.39622 0
M  V30 547 C 56.1069 4.85075 -2.2257 0
M  V30 548 O 56.3299 5.57246 -1.21793 0
M  V30 549 O 55.2639 5.15269 -3.11098 0
M  V30 550 H 59.0899 1.93695 -2.33914 0
M  V30 551 H 56.6749 0.901313 -1.1915 0
M  V30 552 H 58.5569 4.06337 -1.11661 0
M  V30 553 H 57.2319 3.22634 -0.262486 0
M  V30 554 H 56.1389 2.75458 -2.53128 0
M  V30 555 H 57.4719 3.63747 -3.31586 0
M  V30 556 N 59.124 1.23083 0.984299 0
M  V30 557 C 60.054 1.03292 2.09411 0
M  V30 558 C 61.035 -0.048923 1.7003 0
M  V30 559 O 62.22 0.114967 1.93859 0
M  V30 560 C 59.35 0.619155 3.41736 0
M  V30 561 C 58.304 1.64791 3.95004 0
M  V30 562 C 57.63 1.0897 5.23478 0
M  V30 563 C 58.93 3.03999 4.24714 0
M  V30 564 H 60.624 1.96119 2.26225 0
M  V30 565 H 58.17 0.944344 1.08711 0
M  V30 566 H 60.123 0.467777 4.18796 0
M  V30 567 H 58.847 -0.344786 3.24775 0
M  V30 568 H 57.506 1.78721 3.20085 0
M  V30 569 H 57.154 0.11686 5.02864 0
M  V30 570 H 56.854 1.77704 5.60085 0
M  V30 571 H 58.378 0.950093 6.03163 0
M  V30 572 H 59.792 2.93393 4.92538 0
M  V30 573 H 58.189 3.69936 4.72512 0
M  V30 574 H 59.259 3.53285 3.32142 0
M  V30 575 N 60.6021 -1.18246 1.0419 0
M  V30 576 C 61.8501 -1.87886 0.744543 0
M  V30 577 C 62.1711 -1.8082 -0.730006 0
M  V30 578 O 61.4411 -1.22736 -1.52685 0
M  V30 579 H 60.0211 -0.695556 0.272417 0
M  V30 580 H 62.6831 -1.43494 1.31892 0
M  V30 581 H 61.7791 -2.9389 1.05049 0
M  V30 582 N 62.0802 -0.821533 -1.34494 0
M  V30 583 C 63.3262 -0.418729 -1.99043 0
M  V30 584 C 63.6812 1.00672 -1.6396 0
M  V30 585 O 62.9742 1.69132 -0.900271 0
M  V30 586 C 63.1682 -0.556512 -3.53041 0
M  V30 587 C 62.9972 -1.9938 -4.03085 0
M  V30 588 C 61.7672 -2.62539 -4.31742 0
M  V30 589 C 63.9652 -2.96035 -4.20556 0
M  V30 590 N 61.9472 -3.97523 -4.67813 0
M  V30 591 C 63.3182 -4.15924 -4.59791 0
M  V30 592 C 65.3732 -2.9267 -4.02801 0
M  V30 593 C 64.0762 -5.32899 -4.83126 0
M  V30 594 C 66.1022 -4.08861 -4.27302 0
M  V30 595 C 65.4642 -5.275 -4.66822 0
M  V30 596 H 61.5632 -0.201299 -0.755647 0
M  V30 597 H 64.1472 -1.06594 -1.62929 0
M  V30 598 H 62.3182 0.0607924 -3.88352 0
M  V30 599 H 64.0502 -0.126842 -4.04501 0
M  V30 600 H 60.8052 -2.13789 -4.22601 0
M  V30 601 H 61.2292 -4.67061 -4.90085 0
M  V30 602 H 65.8712 -2.02088 -3.71376 0
M  V30 603 H 63.5892 -6.24041 -5.13418 0
M  V30 604 H 67.1752 -4.07654 -4.15101 0
M  V30 605 H 66.0552 -6.15913 -4.85408 0
M  V30 606 N 63.5583 1.46682 -0.576371 0
M  V30 607 C 64.4883 2.33028 0.148397 0
M  V30 608 C 65.4693 1.44961 0.889956 0
M  V30 609 O 66.6543 1.73789 0.866662 0
M  V30 610 C 63.7843 3.27117 1.1667 0
M  V30 611 C 62.7383 4.24575 0.540386 0
M  V30 612 C 62.0643 5.08126 1.6647 0
M  V30 613 C 63.3643 5.19722 -0.518331 0
M  V30 614 H 65.0583 2.93875 -0.572509 0
M  V30 615 H 62.6043 1.41315 -0.276768 0
M  V30 616 H 64.5573 3.86374 1.68204 0
M  V30 617 H 63.2813 2.64364 1.9178 0
M  V30 618 H 61.9403 3.66571 0.0461769 0
M  V30 619 H 61.5883 4.41762 2.40531 0
M  V30 620 H 61.2883 5.74122 1.25131 0
M  V30 621 H 62.8123 5.70246 2.18293 0
M  V30 622 H 64.2263 5.73232 -0.0883058 0
M  V30 623 H 62.6233 5.94026 -0.851679 0
M  V30 624 H 63.6933 4.64037 -1.40703 0
M  V30 625 N 65.0364 0.313813 1.54444 0
M  V30 626 C 66.2644 -0.293918 2.04802 0
M  V30 627 C 66.6794 -1.46537 1.19047 0
M  V30 628 O 66.0364 -1.81182 0.218939 0
M  V30 629 C 66.0874 -0.737806 3.53891 0
M  V30 630 O 65.8084 0.387038 4.36387 0
M  V30 631 C 67.3094 -1.40936 4.203 0
M  V30 632 H 64.5294 -0.0620057 0.668129 0
M  V30 633 H 67.0734 0.457169 1.99324 0
M  V30 634 H 65.2284 -1.43889 3.59687 0
M  V30 635 H 65.6424 0.0391274 5.24485 0
M  V30 636 H 67.1164 -1.67099 5.26101 0
M  V30 637 H 67.5934 -2.35355 3.70816 0
M  V30 638 H 68.1994 -0.751117 4.18615 0
M  V30 639 N 66.5145 -1.57545 0.0417849 0
M  V30 640 C 67.4645 -2.07483 -0.945247 0
M  V30 641 C 68.4485 -0.977983 -1.27767 0
M  V30 642 O 69.6405 -1.24142 -1.26166 0
M  V30 643 C 66.7695 -2.61576 -2.22335 0
M  V30 644 C 65.8555 -3.78213 -1.91874 0
M  V30 645 N 66.2465 -4.88344 -1.31733 0
M  V30 646 C 64.5445 -3.8694 -2.21796 0
M  V30 647 C 65.2455 -5.69462 -1.1869 0
M  V30 648 N 64.2215 -5.16771 -1.68666 0
M  V30 649 H 68.0235 -2.90029 -0.475441 0
M  V30 650 H 65.5375 -1.61581 -0.162911 0
M  V30 651 H 67.5345 -2.95651 -2.93932 0
M  V30 652 H 66.1945 -1.80465 -2.69931 0
M  V30 653 H 67.2055 -5.08335 -0.990729 0
M  V30 654 H 63.8825 -3.16757 -2.71977 0
M  V30 655 H 65.2725 -6.68023 -0.720793 0
M  V30 656 N 67.9926 0.231505 -1.5589 0
M  V30 657 C 69.4036 0.799327 -1.68724 0
M  V30 658 C 69.7546 1.85398 -0.642022 0
M  V30 659 O 68.8796 2.1539 0.208784 0
M  V30 660 C 69.4746 1.45664 -3.05888 0
M  V30 661 C 68.0336 1.97197 -3.20609 0
M  V30 662 C 67.1806 0.828552 -2.64632 0
M  V30 663 H 70.1316 0.00702616 -1.58698 0
M  V30 664 H 70.1526 2.32517 -3.01191 0
M  V30 665 H 69.6646 0.688808 -3.81939 0
M  V30 666 H 67.7656 2.76813 -2.4941 0
M  V30 667 H 67.8786 2.15878 -4.27707 0
M  V30 668 H 66.2426 1.23321 -2.22854 0
M  V30 669 H 67.0256 0.0735544 -3.43221 0
M  V30 670 N 69.4707 1.49531 0.497807 0
M  V30 671 C 70.7007 1.62657 1.27382 0
M  V30 672 C 71.1087 0.298488 1.86831 0
M  V30 673 O 70.4517 -0.72647 1.68725 0
M  V30 674 C 70.5137 2.6393 2.44093 0
M  V30 675 C 70.1777 4.08195 2.05489 0
M  V30 676 C 71.1747 4.949 1.59279 0
M  V30 677 C 68.8597 4.53948 2.15026 0
M  V30 678 C 70.8537 6.25397 1.23113 0
M  V30 679 C 68.5407 5.84458 1.78473 0
M  V30 680 C 69.5387 6.70006 1.32591 0
M  V30 681 O 69.2267 7.98083 0.965327 0
M  V30 682 H 68.9587 0.550429 0.392434 0
M  V30 683 H 71.5127 1.96325 0.603801 0
M  V30 684 H 69.7427 2.25449 3.14181 0
M  V30 685 H 71.4317 2.66552 3.06113 0
M  V30 686 H 72.1977 4.60779 1.51354 0
M  V30 687 H 68.0767 3.87525 2.4969 0
M  V30 688 H 71.6207 6.92125 0.872299 0
M  V30 689 H 67.5177 6.18107 1.86048 0
M  V30 690 H 68.2857 8.11122 1.09652 0
M  V30 691 N 70.9488 -0.749086 1.3866 0
M  V30 692 C 72.1968 -1.50535 1.34847 0
M  V30 693 C 72.5178 -1.94909 -0.0595016 0
M  V30 694 O 71.7878 -1.67973 -1.00806 0
M  V30 695 H 70.3678 -0.558395 0.49619 0
M  V30 696 H 73.0298 -0.890165 1.73384 0
M  V30 697 H 72.1258 -2.39413 2.00219 0
M  V30 698 N 72.4269 -1.23603 -0.977757 0
M  V30 699 C 73.3739 -1.01954 -2.07061 0
M  V30 700 C 74.3439 0.0638697 -1.65977 0
M  V30 701 O 75.5289 -0.0887624 -1.90593 0
M  V30 702 C 72.6689 -0.619658 -3.39491 0
M  V30 703 C 71.7819 -1.77547 -3.93829 0
M  V30 704 C 70.9169 -1.32212 -5.14484 0
M  V30 705 C 69.9559 -2.44852 -5.60994 0
M  V30 706 N 69.0929 -2.00456 -6.72876 0
M  V30 707 H 73.9329 -1.95495 -2.24913 0
M  V30 708 H 71.4699 -0.973861 -1.10247 0
M  V30 709 H 73.4279 -0.368898 -4.15566 0
M  V30 710 H 72.0579 0.278752 -3.21594 0
M  V30 711 H 71.1099 -2.14016 -3.14486 0
M  V30 712 H 72.4219 -2.62219 -4.24314 0
M  V30 713 H 71.5759 -1.02965 -5.97899 0
M  V30 714 H 70.3149 -0.445808 -4.85658 0
M  V30 715 H 69.3199 -2.74871 -4.76157 0
M  V30 716 H 70.5449 -3.33024 -5.91837 0
M  V30 717 H 68.4909 -1.15208 -6.45804 0
M  V30 718 H 68.4079 -2.78687 -7.02759 0
M  V30 719 H 69.6759 -1.7432 -7.59758 0
M  V30 720 N 73.905 1.17692 -1.04816 0
M  V30 721 C 75.153 1.87488 -0.754497 0
M  V30 722 C 75.474 1.81205 0.720407 0
M  V30 723 O 74.744 1.23544 1.52032 0
M  V30 724 H 73.324 0.694101 -0.276102 0
M  V30 725 H 75.986 1.42793 -1.32651 0
M  V30 726 H 75.082 2.93328 -1.06606 0
M  V30 727 N 75.3831 0.828654 1.34056 0
M  V30 728 C 76.6291 0.429279 1.98818 0
M  V30 729 C 76.9841 -0.998011 1.64492 0
M  V30 730 O 76.2771 -1.68652 0.909228 0
M  V30 731 C 76.4711 0.575226 3.52741 0
M  V30 732 C 76.3001 2.01515 4.02022 0
M  V30 733 C 75.0701 2.64825 4.30344 0
M  V30 734 C 77.2681 2.98261 4.18981 0
M  V30 735 N 75.2501 3.99998 4.65698 0
M  V30 736 C 76.6211 4.18356 4.57578 0
M  V30 737 C 78.6761 2.94802 4.01243 0
M  V30 738 C 77.3791 5.35454 4.80293 0
M  V30 739 C 79.4051 4.11121 4.25128 0
M  V30 740 C 78.7671 5.29969 4.64018 0
M  V30 741 H 74.8661 0.205304 0.754569 0
M  V30 742 H 77.4501 1.07457 1.62361 0
M  V30 743 H 75.6211 -0.0401962 3.88379 0
M  V30 744 H 77.3531 0.148292 4.04428 0
M  V30 745 H 74.1081 2.16027 4.21461 0
M  V30 746 H 74.5321 4.69653 4.87601 0
M  V30 747 H 79.1741 2.04054 3.70299 0
M  V30 748 H 76.8921 6.26755 5.10102 0
M  V30 749 H 80.4781 4.0985 4.12934 0
M  V30 750 H 79.3581 6.18479 4.82134 0
M  V30 751 N 76.8612 -1.46375 0.584142 0
M  V30 752 C 78.1382 -1.956 0.0033388 0
M  V30 753 C 78.5182 -1.52679 -1.45782 0
M  V30 754 O 77.8662 -0.77816 -2.14842 0
M  V30 755 C 78.0762 -3.48551 0.176891 0
M  V30 756 C 79.4242 -4.24576 0.0454609 0
M  V30 757 O 80.4482 -3.56043 0.105801 0
M  V30 758 O 79.3072 -5.46427 -0.0890376 0
M  V30 759 H 76.4012 -0.825547 -0.0490066 0
M  V30 760 H 78.9472 -1.56652 0.65256 0
M  V30 761 H 77.7192 -3.72683 1.1926 0
M  V30 762 H 77.3422 -3.94332 -0.508695 0
M  V30 763 N 78.3393 -0.321999 -1.54275 0
M  V30 764 C 79.2693 0.537411 -2.27231 0
M  V30 765 C 80.2503 1.12064 -1.27968 0
M  V30 766 O 81.4353 1.14606 -1.56777 0
M  V30 767 C 78.5653 1.69919 -3.02894 0
M  V30 768 C 77.5193 1.24534 -4.09482 0
M  V30 769 C 76.8453 2.49394 -4.72977 0
M  V30 770 C 78.1453 0.361335 -5.21049 0
M  V30 771 H 79.8393 -0.0711406 -2.99315 0
M  V30 772 H 77.3853 -0.0356555 -1.43956 0
M  V30 773 H 79.3383 2.30668 -3.52662 0
M  V30 774 H 78.0623 2.33431 -2.28424 0
M  V30 775 H 76.7213 0.660782 -3.60596 0
M  V30 776 H 76.3693 3.11265 -3.95124 0
M  V30 777 H 76.0693 2.19718 -5.44975 0
M  V30 778 H 77.5933 3.10908 -5.25517 0
M  V30 779 H 79.0073 0.875072 -5.66582 0
M  V30 780 H 77.4043 0.157428 -5.99893 0
M  V30 781 H 78.4743 -0.60822 -4.8107 0
M  V30 782 N 79.8174 1.5752 -0.0501392 0
M  V30 783 C 80.7504 2.07026 0.959962 0
M  V30 784 C 81.7284 0.970539 1.30458 0
M  V30 785 O 82.9124 1.2424 1.41763 0
M  V30 786 C 80.0394 2.5099 2.27424 0
M  V30 787 C 79.0854 3.72188 2.08275 0
M  V30 788 S 79.9184 5.17888 1.36207 0
M  V30 789 C 81.0744 5.65165 2.6896 0
M  V30 790 H 81.3074 2.9238 0.538631 0
M  V30 791 H 78.8404 1.53547 0.162099 0
M  V30 792 H 80.7984 2.76982 3.02971 0
M  V30 793 H 79.4594 1.65944 2.66686 0
M  V30 794 H 78.6524 4.00866 3.05487 0
M  V30 795 H 78.2544 3.46457 1.40868 0
M  V30 796 H 80.5464 5.70687 3.65133 0
M  V30 797 H 81.4894 6.64394 2.4492 0
M  V30 798 H 81.8974 4.9289 2.75172 0
M  V30 799 N 81.2955 -0.223234 1.56011 0
M  V30 800 C 82.2275 -1.30006 1.88762 0
M  V30 801 C 83.2405 -1.43129 0.775746 0
M  V30 802 O 84.4295 -1.44057 1.05403 0
M  V30 803 C 81.5295 -2.67589 2.07965 0
M  V30 804 C 80.7025 -2.76434 3.38973 0
M  V30 805 C 79.7615 -3.95019 3.47629 0
M  V30 806 O 78.7875 -3.83436 4.20672 0
M  V30 807 N 79.9895 -5.09249 2.78649 0
M  V30 808 H 82.7545 -1.02238 2.81722 0
M  V30 809 H 80.3155 -0.413278 1.56536 0
M  V30 810 H 82.3075 -3.45297 2.11073 0
M  V30 811 H 80.8775 -2.87964 1.21638 0
M  V30 812 H 80.0975 -1.85216 3.47978 0
M  V30 813 H 81.3855 -2.79313 4.25278 0
M  V30 814 H 80.7835 -5.21556 2.19081 0
M  V30 815 H 79.3405 -5.85007 2.8742 0
M  V30 816 N 82.7736 -1.49793 -0.48987 0
M  V30 817 C 83.7216 -1.67783 -1.61095 0
M  V30 818 C 84.7156 -0.543683 -1.60438 0
M  V30 819 O 85.9216 -0.723647 -1.64813 0
M  V30 820 H 82.2966 -0.529255 -0.534222 0
M  V30 821 H 84.2676 -2.61861 -1.43078 0
M  V30 822 C 83.0166 -1.77191 -2.99164 0
M  V30 823 H 82.3396 -2.63841 -3.0038 0
M  V30 824 H 83.7796 -1.93809 -3.77113 0
M  V30 825 C 82.2386 -0.519203 -3.32875 0
M  V30 826 O 82.7686 0.350124 -4.00171 0
M  V30 827 N 80.9746 -0.378816 -2.8812 0
M  V30 828 H 80.5216 -1.08725 -2.33531 0
M  V30 829 H 80.4796 0.458239 -3.11043 0
M  V30 830 N 84.2517 0.741722 -1.39055 0
M  V30 831 C 85.5007 1.49656 -1.35225 0
M  V30 832 C 85.8137 1.95533 0.0512708 0
M  V30 833 O 87.0197 2.7067 0.212138 0
M  V30 834 C 85.4757 2.70389 -2.37525 0
M  V30 835 C 85.0837 2.31489 -3.83558 0
M  V30 836 C 86.8277 3.48236 -2.42759 0
M  V30 837 C 84.7347 3.48903 -4.77515 0
M  V30 838 H 83.6647 0.56197 -0.502699 0
M  V30 839 H 86.3157 0.809727 -1.64668 0
M  V30 840 H 84.6977 3.41113 -2.01142 0
M  V30 841 H 85.8717 1.68354 -4.28945 0
M  V30 842 H 84.1867 1.66749 -3.81554 0
M  V30 843 H 86.7837 4.35558 -3.1015 0
M  V30 844 H 87.1267 3.90229 -1.45008 0
M  V30 845 H 87.6597 2.84535 -2.78002 0
M  V30 846 H 84.3987 3.11966 -5.76504 0
M  V30 847 H 83.9187 4.11041 -4.36813 0
M  V30 848 H 85.5977 4.15328 -4.96096 0
M  V30 849 N 85.7298 1.2412 0.971189 0
M  V30 850 C 86.6628 0.97373 2.06382 0
M  V30 851 C 87.6408 -0.0912662 1.62344 0
M  V30 852 O 88.8248 0.0449365 1.88446 0
M  V30 853 C 85.9518 0.468746 3.35441 0
M  V30 854 C 84.9978 1.52176 3.98428 0
M  V30 855 S 85.8308 3.10203 4.36503 0
M  V30 856 C 86.9868 2.61398 5.68702 0
M  V30 857 H 87.2198 1.89893 2.28753 0
M  V30 858 H 84.7528 1.07466 1.10862 0
M  V30 859 H 86.7108 0.184012 4.10087 0
M  V30 860 H 85.3718 -0.435688 3.11064 0
M  V30 861 H 84.5648 1.11876 4.91426 0
M  V30 862 H 84.1668 1.75632 3.30196 0
M  V30 863 H 86.4588 2.03992 6.4606 0
M  V30 864 H 87.4018 3.52972 6.13854 0
M  V30 865 H 87.8098 2.01941 5.27143 0
M  V30 866 N 87.2079 -1.17134 1.05439 0
M  V30 867 C 88.1559 -2.23289 0.651511 0
M  V30 868 C 89.1499 -1.66186 -0.328411 0
M  V30 869 O 90.3559 -1.78949 -0.194206 0
M  V30 870 H 86.7309 -0.726938 0.192523 0
M  V30 871 H 88.7019 -2.54565 1.55689 0
M  V30 872 C 87.4509 -3.47671 0.0448436 0
M  V30 873 H 86.7739 -3.91918 0.78996 0
M  V30 874 H 88.2139 -4.2353 -0.19964 0
M  V30 875 C 86.6729 -3.14453 -1.20918 0
M  V30 876 O 87.2029 -3.29459 -2.29825 0
M  V30 877 N 85.4089 -2.68657 -1.10779 0
M  V30 878 H 84.9559 -2.56646 -0.221526 0
M  V30 879 H 84.9139 -2.46804 -1.9477 0
M  V30 880 N 88.686 -0.835752 -1.33615 0
M  V30 881 C 89.963 -0.352017 -1.92406 0
M  V30 882 C 90.343 1.16225 -1.76224 0
M  V30 883 O 89.691 1.97526 -1.14873 0
M  V30 884 C 89.901 -0.795485 -3.39813 0
M  V30 885 C 91.249 -0.801703 -4.16963 0
M  V30 886 O 92.273 -0.738889 -3.48452 0
M  V30 887 O 91.132 -0.886607 -5.3926 0
M  V30 888 H 88.226 -0.0989641 -0.821057 0
M  V30 889 H 90.772 -0.921397 -1.42507 0
M  V30 890 H 89.544 -1.83795 -3.45449 0
M  V30 891 H 89.167 -0.202505 -3.97084 0
M  V30 892 N 90.1641 1.46063 -0.591896 0
M  V30 893 C 91.0971 2.27452 0.184617 0
M  V30 894 C 92.0751 1.36188 0.888351 0
M  V30 895 O 93.2591 1.65606 0.90039 0
M  V30 896 C 90.3861 3.14162 1.26571 0
M  V30 897 C 89.4321 4.21255 0.666814 0
M  V30 898 S 90.2651 5.33034 -0.513345 0
M  V30 899 C 91.4211 6.23311 0.56872 0
M  V30 900 H 91.6541 2.92963 -0.505939 0
M  V30 901 H 89.1871 1.49676 -0.379014 0
M  V30 902 H 91.1451 3.6468 1.88463 0
M  V30 903 H 89.8061 2.47946 1.92826 0
M  V30 904 H 88.9991 4.81788 1.47974 0
M  V30 905 H 88.6011 3.73797 0.123359 0
M  V30 906 H 90.8931 6.61758 1.45198 0
M  V30 907 H 91.8361 7.081 -7.23824e-05 0
M  V30 908 H 92.2441 5.57646 0.876996 0
M  V30 909 N 91.6422 0.330177 1.54103 0
M  V30 910 C 93.0532 -0.15652 1.86043 0
M  V30 911 C 93.4042 -1.51086 1.2517 0
M  V30 912 O 92.5292 -2.09023 0.560217 0
M  V30 913 C 93.1242 -0.290784 3.3755 0
M  V30 914 C 91.6832 -0.721705 3.69416 0
M  V30 915 C 90.8302 0.152622 2.7688 0
M  V30 916 H 93.7812 0.550237 1.48856 0
M  V30 917 H 93.8022 -1.12058 3.63625 0
M  V30 918 H 93.3142 0.695068 3.81825 0
M  V30 919 H 91.4152 -1.71706 3.30678 0
M  V30 920 H 91.5282 -0.520869 4.7626 0
M  V30 921 H 89.8922 -0.372894 2.51956 0
M  V30 922 H 90.6752 1.13536 3.23982 0
M  V30 923 N 93.1203 -1.57491 0.0584922 0
M  V30 924 C 94.3693 -1.92155 -0.613146 0
M  V30 925 C 94.6823 -0.939334 -1.71569 0
M  V30 926 O 95.8883 -1.17829 -2.44599 0
M  V30 927 C 94.3443 -3.41303 -1.14195 0
M  V30 928 C 93.9523 -4.47944 -0.0711265 0
M  V30 929 C 95.6963 -3.84988 -1.78841 0
M  V30 930 C 93.6033 -5.88212 -0.613225 0
M  V30 931 H 92.5333 -0.717162 -0.232796 0
M  V30 932 H 95.1843 -1.83049 0.12857 0
M  V30 933 H 93.5663 -3.45437 -1.93621 0
M  V30 934 H 94.7403 -4.55408 0.702836 0
M  V30 935 H 93.0553 -4.13644 0.478313 0
M  V30 936 H 95.6523 -4.87159 -2.20408 0
M  V30 937 H 95.9953 -3.21632 -2.64308 0
M  V30 938 H 96.5283 -3.83401 -1.06059 0
M  V30 939 H 93.2673 -6.55183 0.203978 0
M  V30 940 H 92.7873 -5.84294 -1.35501 0
M  V30 941 H 94.4663 -6.37687 -1.09383 0
M  V30 942 N 94.5984 0.214957 -1.56127 0
M  V30 943 C 95.8284 0.953707 -1.8327 0
M  V30 944 C 96.2364 1.78181 -0.636262 0
M  V30 945 O 95.5794 1.79191 0.404516 0
M  V30 946 C 95.6414 1.91516 -3.0424 0
M  V30 947 C 95.3054 1.27094 -4.38972 0
M  V30 948 C 96.3024 0.657575 -5.15725 0
M  V30 949 C 93.9874 1.28073 -4.85698 0
M  V30 950 C 95.9814 0.0625968 -6.37369 0
M  V30 951 C 93.6684 0.681914 -6.07283 0
M  V30 952 C 94.6664 0.0739046 -6.8296 0
M  V30 953 O 94.3544 -0.515582 -8.02245 0
M  V30 954 H 94.0864 0.284764 -0.613095 0
M  V30 955 H 96.6404 0.233283 -2.04071 0
M  V30 956 H 94.8704 2.67475 -2.79274 0
M  V30 957 H 96.5594 2.52001 -3.18198 0
M  V30 958 H 97.3254 0.642288 -4.80728 0
M  V30 959 H 93.2044 1.74337 -4.26764 0
M  V30 960 H 96.7484 -0.412593 -6.96379 0
M  V30 961 H 92.6454 0.694636 -6.41752 0
M  V30 962 H 93.4134 -0.410544 -8.1747 0
M  V30 963 N 96.0765 1.50051 0.48192 0
M  V30 964 C 97.0095 1.62749 1.59963 0
M  V30 965 C 97.9875 0.475903 1.5548 0
M  V30 966 O 99.1715 0.693986 1.7526 0
M  V30 967 C 96.2985 1.60008 2.98522 0
M  V30 968 C 95.3445 2.80596 3.21198 0
M  V30 969 S 96.1775 4.42038 3.02262 0
M  V30 970 C 97.3335 4.41973 4.43182 0
M  V30 971 H 97.5665 2.57296 1.4895 0
M  V30 972 H 95.0995 1.39179 0.668477 0
M  V30 973 H 97.0575 1.59112 3.78409 0
M  V30 974 H 95.7185 0.667153 3.06933 0
M  V30 975 H 94.9115 2.74952 4.22395 0
M  V30 976 H 94.5135 2.79003 2.49065 0
M  V30 977 H 96.8055 4.14868 5.35622 0
M  V30 978 H 97.7485 5.43512 4.53873 0
M  V30 979 H 98.1565 3.71812 4.24755 0
M  V30 980 N 97.5546 -0.734337 1.39446 0
M  V30 981 C 98.7846 -1.52137 1.39778 0
M  V30 982 C 99.1926 -1.89198 -0.00929312 0
M  V30 983 O 98.5356 -1.54666 -0.991168 0
M  V30 984 C 98.5976 -2.83762 2.20724 0
M  V30 985 C 98.2616 -2.69131 3.69347 0
M  V30 986 C 99.2586 -2.37635 4.62413 0
M  V30 987 C 96.9436 -2.85982 4.1294 0
M  V30 988 C 98.9376 -2.23172 5.97054 0
M  V30 989 C 96.6246 -2.71137 5.47657 0
M  V30 990 C 97.6226 -2.39777 6.39528 0
M  V30 991 O 97.3106 -2.25026 7.71763 0
M  V30 992 H 97.0426 -0.476717 0.479288 0
M  V30 993 H 99.5966 -0.915012 1.83893 0
M  V30 994 H 97.8266 -3.4666 1.71359 0
M  V30 995 H 99.5156 -3.45383 2.13226 0
M  V30 996 H 100.282 -2.24267 4.30034 0
M  V30 997 H 96.1606 -3.09383 3.41765 0
M  V30 998 H 99.7046 -1.98617 6.68728 0
M  V30 999 H 95.6016 -2.84083 5.79626 0
M  V30 1000 H 96.3696 -2.40091 7.82495 0
M  V30 1001 N 99.0327 -1.24633 -0.964593 0
M  V30 1002 C 100.258 -1.11596 -1.74818 0
M  V30 1003 C 100.683 0.32723 -1.85232 0
M  V30 1004 O 100.041 1.23695 -1.32549 0
M  V30 1005 C 100.089 -1.76397 -3.1451 0
M  V30 1006 O 99.1927 -1.03685 -3.99153 0
M  V30 1007 H 98.5337 -0.390196 -0.537255 0
M  V30 1008 H 101.064 -1.65002 -1.20977 0
M  V30 1009 H 101.074 -1.8228 -3.65018 0
M  V30 1010 H 99.7487 -2.81401 -3.06246 0
M  V30 1011 H 98.3257 -1.05611 -3.57632 0
M  V30 1012 N 100.511 1.16574 -1.06058 0
M  V30 1013 C 101.757 1.87324 -0.777022 0
M  V30 1014 C 102.09 1.81351 0.694645 0
M  V30 1015 O 101.365 1.22753 1.50871 0
M  V30 1016 C 101.648 3.36991 -1.26922 0
M  V30 1017 C 101.501 3.51667 -2.80447 0
M  V30 1018 C 102.82 4.3131 -0.87521 0
M  V30 1019 H 99.9388 0.680191 -0.28374 0
M  V30 1020 H 102.581 1.37036 -1.3161 0
M  V30 1021 H 100.731 3.79949 -0.81063 0
M  V30 1022 H 102.403 3.17664 -3.34495 0
M  V30 1023 H 100.646 2.93656 -3.19294 0
M  V30 1024 H 101.317 4.56766 -3.0995 0
M  V30 1025 H 103.793 3.9624 -1.27014 0
M  V30 1026 H 102.669 5.34545 -1.2471 0
M  V30 1027 H 102.93 4.41552 0.220071 0
M  V30 1028 N 101.989 0.842826 1.3317 0
M  V30 1029 C 103.229 0.446574 1.99462 0
M  V30 1030 C 103.593 -0.976818 1.65295 0
M  V30 1031 O 104.794 -1.477 2.24584 0
M  V30 1032 C 103.065 0.665353 3.51152 0
M  V30 1033 S 104.624 0.364911 4.3728 0
M  V30 1034 H 101.442 0.167803 0.690915 0
M  V30 1035 H 104.044 1.09297 1.62094 0
M  V30 1036 H 102.748 1.7006 3.73507 0
M  V30 1037 H 102.279 0.00494568 3.934 0
M  V30 1038 H 104.294 -0.813761 4.89482 0
M  V30 1039 N 103.467 -1.45747 0.599634 0
M  V30 1040 C 104.415 -2.322 -0.136426 0
M  V30 1041 C 105.409 -1.45497 -0.867583 0
M  V30 1042 O 106.615 -1.62027 -0.78405 0
M  V30 1043 H 102.99 -0.749368 -0.0628588 0
M  V30 1044 H 104.961 -2.92072 0.611281 0
M  V30 1045 C 103.71 -3.28974 -1.12567 0
M  V30 1046 H 103.033 -3.9568 -0.572484 0
M  V30 1047 H 104.473 -3.92212 -1.61077 0
M  V30 1048 C 102.932 -2.55561 -2.19523 0
M  V30 1049 O 103.462 -2.33111 -3.27143 0
M  V30 1050 N 101.668 -2.15832 -1.94589 0
M  V30 1051 H 101.215 -2.3429 -1.07078 0
M  V30 1052 H 101.173 -1.67034 -2.66359 0
M  V30 1053 N 104.945 -0.338344 -1.53925 0
M  V30 1054 C 106.191 0.260143 -2.01125 0
M  V30 1055 C 106.524 1.50617 -1.22589 0
M  V30 1056 O 105.799 1.91979 -0.312113 0
M  V30 1057 C 106.082 0.579499 -3.55407 0
M  V30 1058 C 105.935 -0.678264 -4.44657 0
M  V30 1059 C 107.254 1.39122 -4.17532 0
M  V30 1060 H 104.373 0.0930772 -0.731099 0
M  V30 1061 H 107.015 -0.457852 -1.84401 0
M  V30 1062 H 105.165 1.19118 -3.69788 0
M  V30 1063 H 106.837 -1.31631 -4.42121 0
M  V30 1064 H 105.08 -1.3042 -4.13731 0
M  V30 1065 H 105.751 -0.410143 -5.50474 0
M  V30 1066 H 108.227 0.874035 -4.06817 0
M  V30 1067 H 107.103 1.58342 -5.25565 0
M  V30 1068 H 107.364 2.39178 -3.71815 0
M  V30 1069 N 106.423 1.57458 -0.0668435 0
M  V30 1070 C 107.356 2.08033 0.93795 0
M  V30 1071 C 108.334 0.984321 1.29421 0
M  V30 1072 O 109.518 1.25736 1.40437 0
M  V30 1073 C 106.645 2.53388 2.24749 0
M  V30 1074 C 105.691 3.74376 2.04315 0
M  V30 1075 S 106.524 5.19303 1.30706 0
M  V30 1076 C 107.68 5.67986 2.62951 0
M  V30 1077 H 107.913 2.92935 0.50759 0
M  V30 1078 H 105.446 1.5371 0.145804 0
M  V30 1079 H 107.404 2.8018 3.00016 0
M  V30 1080 H 106.065 1.68763 2.64911 0
M  V30 1081 H 105.258 4.04083 3.01218 0
M  V30 1082 H 104.86 3.47931 1.37186 0
M  V30 1083 H 107.152 5.74528 3.5906 0
M  V30 1084 H 108.095 6.66955 2.3786 0
M  V30 1085 H 108.503 4.95781 2.69929 0
M  V30 1086 N 107.901 -0.206675 1.56239 0
M  V30 1087 C 109.126 -0.949474 1.8439 0
M  V30 1088 C 109.551 -1.76549 0.649016 0
M  V30 1089 O 108.909 -1.76782 -0.402231 0
M  V30 1090 C 108.957 -1.83078 3.10668 0
M  V30 1091 O 108.061 -2.9281 2.90407 0
M  V30 1092 H 107.402 -0.268033 0.607499 0
M  V30 1093 H 109.932 -0.215488 2.03462 0
M  V30 1094 H 109.942 -2.2377 3.41161 0
M  V30 1095 H 108.617 -1.23112 3.97261 0
M  V30 1096 H 107.194 -2.55956 2.71184 0
M  V30 1097 N 109.379 -1.50304 -0.473955 0
M  V30 1098 C 110.627 -1.60832 -1.22382 0
M  V30 1099 C 110.948 -0.30939 -1.9253 0
M  V30 1100 O 110.218 0.67296 -1.83978 0
M  V30 1101 H 108.798 -0.592652 -0.454723 0
M  V30 1102 H 111.46 -1.87068 -0.546968 0
M  V30 1103 H 110.556 -2.41803 -1.97327 0
M  V30 1104 N 110.857 0.726932 -1.39834 0
M  V30 1105 C 112.134 1.47902 -1.28001 0
M  V30 1106 C 112.514 2.1083 0.106789 0
M  V30 1107 O 111.862 1.99242 1.11869 0
M  V30 1108 C 112.072 2.52392 -2.41038 0
M  V30 1109 C 113.42 3.18546 -2.80737 0
M  V30 1110 O 114.444 2.62708 -2.40547 0
M  V30 1111 O 113.303 4.19604 -3.50135 0
M  V30 1112 H 110.397 0.657163 -0.502062 0
M  V30 1113 H 112.943 0.760071 -1.51727 0
M  V30 1114 H 111.715 2.04329 -3.33715 0
M  V30 1115 H 111.338 3.31837 -2.19021 0
M  V30 1116 N 112.336 1.25143 0.95797 0
M  V30 1117 C 113.268 1.01023 2.05735 0
M  V30 1118 C 114.281 -0.0236902 1.62783 0
M  V30 1119 O 115.47 0.21448 1.77207 0
M  V30 1120 C 112.57 0.504595 3.35122 0
M  V30 1121 C 111.743 1.6039 4.06932 0
M  V30 1122 C 110.802 1.09922 5.14591 0
M  V30 1123 O 109.828 1.79293 5.40225 0
M  V30 1124 N 111.03 -0.0612545 5.80468 0
M  V30 1125 H 113.795 1.95683 2.26998 0
M  V30 1126 H 111.356 1.16303 1.12629 0
M  V30 1127 H 113.348 0.151516 4.04416 0
M  V30 1128 H 111.918 -0.347989 3.10657 0
M  V30 1129 H 111.138 2.12872 3.31782 0
M  V30 1130 H 112.426 2.34252 4.51667 0
M  V30 1131 H 111.824 -0.640985 5.62057 0
M  V30 1132 H 110.381 -0.355395 6.5083 0
M  V30 1133 N 113.814 -1.1601 1.06675 0
M  V30 1134 C 115.091 -1.82679 0.699114 0
M  V30 1135 C 115.471 -1.94559 -0.819137 0
M  V30 1136 O 114.819 -1.49169 -1.73092 0
M  V30 1137 C 115.029 -3.19445 1.40555 0
M  V30 1138 C 116.377 -3.95171 1.55323 0
M  V30 1139 O 117.401 -3.28976 1.36577 0
M  V30 1140 O 116.26 -5.13833 1.86112 0
M  V30 1141 H 113.354 -0.788954 0.247951 0
M  V30 1142 H 115.9 -1.23179 1.16726 0
M  V30 1143 H 114.672 -3.05856 2.44065 0
M  V30 1144 H 114.295 -3.86625 0.927733 0
M  V30 1145 N 115.292 -0.849877 -1.32721 0
M  V30 1146 C 116.24 -0.279745 -2.30912 0
M  V30 1147 C 117.234 0.594278 -1.58634 0
M  V30 1148 O 118.44 0.482613 -1.73409 0
M  V30 1149 H 114.815 -0.0717521 -0.748569 0
M  V30 1150 H 116.786 -1.12222 -2.76494 0
M  V30 1151 C 115.535 0.521108 -3.43773 0
M  V30 1152 H 114.858 -0.142141 -3.99547 0
M  V30 1153 H 116.298 0.885693 -4.14646 0
M  V30 1154 C 114.757 1.70442 -2.90605 0
M  V30 1155 O 115.287 2.8034 -2.87702 0
M  V30 1156 N 113.493 1.52991 -2.47067 0
M  V30 1157 H 113.04 0.635914 -2.49628 0
M  V30 1158 H 112.998 2.32311 -2.11847 0
M  V30 1159 N 116.77 1.45427 -0.607355 0
M  V30 1160 C 118.016 2.03097 -0.111035 0
M  V30 1161 C 118.371 1.46735 1.24445 0
M  V30 1162 O 117.664 0.632478 1.8086 0
M  V30 1163 C 117.858 3.57398 -0.0129263 0
M  V30 1164 C 117.687 4.28726 -1.35735 0
M  V30 1165 C 116.457 4.66659 -1.93798 0
M  V30 1166 C 118.655 4.60699 -2.28607 0
M  V30 1167 N 116.637 5.22845 -3.21723 0
M  V30 1168 C 118.008 5.17716 -3.41131 0
M  V30 1169 C 120.063 4.42638 -2.27982 0
M  V30 1170 C 118.766 5.58576 -4.53194 0
M  V30 1171 C 120.792 4.84531 -3.39093 0
M  V30 1172 C 120.154 5.4164 -4.50339 0
M  V30 1173 H 116.253 0.777476 -0.083994 0
M  V30 1174 H 118.837 1.77249 -0.805655 0
M  V30 1175 H 117.008 3.82907 0.650914 0
M  V30 1176 H 118.74 4.01722 0.490033 0
M  V30 1177 H 115.495 4.50207 -1.47007 0
M  V30 1178 H 115.919 5.55438 -3.87063 0
M  V30 1179 H 120.561 3.97798 -1.43235 0
M  V30 1180 H 118.279 6.02382 -5.38667 0
M  V30 1181 H 121.865 4.72289 -3.39757 0
M  V30 1182 H 120.745 5.73461 -5.34895 0
M  V30 1183 N 118.248 0.346503 1.53744 0
M  V30 1184 C 119.178 -0.501193 2.28058 0
M  V30 1185 C 120.159 -1.10014 1.29734 0
M  V30 1186 O 121.344 -1.12097 1.58581 0
M  V30 1187 C 118.474 -1.65078 3.05559 0
M  V30 1188 C 117.428 -1.18003 4.11411 0
M  V30 1189 C 116.754 -2.41837 4.76884 0
M  V30 1190 C 118.054 -0.278394 5.21558 0
M  V30 1191 H 119.748 0.11875 2.99164 0
M  V30 1192 H 117.294 0.0585531 1.43881 0
M  V30 1193 H 119.247 -2.25028 3.56287 0
M  V30 1194 H 117.971 -2.29767 2.32109 0
M  V30 1195 H 116.63 -0.603331 3.61601 0
M  V30 1196 H 116.278 -3.0494 4.00026 0
M  V30 1197 H 115.978 -2.1102 5.48402 0
M  V30 1198 H 117.502 -3.02508 5.30397 0
M  V30 1199 H 118.916 -0.784823 5.67903 0
M  V30 1200 H 117.313 -0.0619707 6.00068 0
M  V30 1201 H 118.383 0.684677 4.80042 0
M  V30 1202 N 119.726 -1.57421 0.075193 0
M  V30 1203 C 121.142 -1.57099 -0.281444 0
M  V30 1204 C 121.342 -1.08486 -1.69803 0
M  V30 1205 O 120.398 -0.752279 -2.41033 0
M  V30 1206 C 121.711 -3.00571 -0.0880041 0
M  V30 1207 C 123.259 -3.12605 -0.157281 0
M  V30 1208 C 123.734 -4.57999 0.0079207 0
M  V30 1209 N 125.225 -4.63176 -0.0475725 0
M  V30 1210 C 125.96 -5.73373 0.0557876 0
M  V30 1211 N 125.456 -6.92473 0.21286 0
M  V30 1212 N 127.249 -5.621 -0.00152098 0
M  V30 1213 H 119.4 -1.87335 1.00098 0
M  V30 1214 H 121.663 -0.86377 0.390646 0
M  V30 1215 H 121.369 -3.40262 0.889629 0
M  V30 1216 H 121.243 -3.67754 -0.838875 0
M  V30 1217 H 123.63 -2.72798 -1.1254 0
M  V30 1218 H 123.711 -2.48053 0.62475 0
M  V30 1219 H 123.355 -4.98496 0.972824 0
M  V30 1220 H 123.285 -5.20586 -0.793556 0
M  V30 1221 H 125.776 -3.7753 -0.167244 0
M  V30 1222 H 126.089 -7.72279 0.283781 0
M  V30 1223 H 124.434 -6.94556 0.248267 0
M  V30 1224 H 127.625 -4.67938 -0.122958 0
M  V30 1225 H 127.798 -6.47948 0.0824844 0
M  V30 1226 N 121.204 0.198386 -1.56346 0
M  V30 1227 C 122.432 0.935572 -1.84539 0
M  V30 1228 C 122.847 1.76989 -0.657281 0
M  V30 1229 O 122.204 1.78626 0.374043 0
M  V30 1230 C 122.255 1.8344 -3.11499 0
M  V30 1231 O 121.976 1.03377 -4.25728 0
M  V30 1232 C 123.477 2.68355 -3.52846 0
M  V30 1233 H 120.697 0.273126 -0.612897 0
M  V30 1234 H 123.241 0.20663 -2.03453 0
M  V30 1235 H 121.396 2.51701 -2.94492 0
M  V30 1236 H 121.81 1.64599 -4.98003 0
M  V30 1237 H 123.284 3.27085 -4.44657 0
M  V30 1238 H 123.761 3.41901 -2.75681 0
M  V30 1239 H 124.367 2.05471 -3.72373 0
M  V30 1240 N 122.682 1.50554 0.465978 0
M  V30 1241 C 123.63 1.70324 1.58406 0
M  V30 1242 C 124.624 0.569139 1.59553 0
M  V30 1243 O 125.83 0.749776 1.63641 0
M  V30 1244 H 122.205 0.537688 0.525734 0
M  V30 1245 H 124.176 2.64104 1.38894 0
M  V30 1246 C 122.925 1.81928 2.96307 0
M  V30 1247 H 122.248 2.68586 2.96144 0
M  V30 1248 H 123.688 1.99784 3.73982 0
M  V30 1249 C 122.147 0.572095 3.32007 0
M  V30 1250 O 122.677 -0.286416 4.00678 0
M  V30 1251 N 120.883 0.424606 2.87481 0
M  V30 1252 H 120.43 1.12427 2.31771 0
M  V30 1253 H 120.388 -0.408697 3.11732 0
M  V30 1254 N 124.16 -0.719506 1.40217 0
M  V30 1255 C 125.406 -1.48034 1.39491 0
M  V30 1256 C 125.761 -1.92399 -0.00443536 0
M  V30 1257 O 125.054 -1.64993 -0.974061 0
M  V30 1258 C 125.248 -2.72271 2.31524 0
M  V30 1259 C 125.077 -2.40055 3.80268 0
M  V30 1260 C 123.847 -2.31588 4.49105 0
M  V30 1261 C 126.045 -2.04581 4.71859 0
M  V30 1262 N 124.027 -1.92006 5.83101 0
M  V30 1263 C 125.398 -1.75568 5.94623 0
M  V30 1264 C 127.453 -1.91183 4.59732 0
M  V30 1265 C 126.156 -1.34505 7.06612 0
M  V30 1266 C 128.182 -1.51524 5.71659 0
M  V30 1267 C 127.544 -1.23406 6.93506 0
M  V30 1268 H 123.643 -0.539927 0.565688 0
M  V30 1269 H 126.227 -0.834764 1.75897 0
M  V30 1270 H 124.398 -3.34584 1.97251 0
M  V30 1271 H 126.13 -3.38584 2.21682 0
M  V30 1272 H 122.885 -2.49199 4.02737 0
M  V30 1273 H 123.309 -1.74764 6.54054 0
M  V30 1274 H 127.951 -2.11584 3.66049 0
M  V30 1275 H 125.669 -1.12846 8.00182 0
M  V30 1276 H 129.255 -1.41741 5.6427 0
M  V30 1277 H 128.135 -0.931788 7.78645 0
M  V30 1278 N 125.638 -1.25649 -0.95132 0
M  V30 1279 C 126.884 -1.10757 -1.69884 0
M  V30 1280 C 127.217 0.350061 -1.91019 0
M  V30 1281 O 126.492 1.25783 -1.48354 0
M  V30 1282 C 126.775 -1.86606 -3.07978 0
M  V30 1283 C 126.628 -3.40217 -2.94232 0
M  V30 1284 C 127.947 -1.65182 -4.07925 0
M  V30 1285 H 125.066 -0.40374 -0.616574 0
M  V30 1286 H 127.708 -1.54521 -1.10558 0
M  V30 1287 H 125.858 -1.49409 -3.58621 0
M  V30 1288 H 127.53 -3.87108 -2.50889 0
M  V30 1289 H 125.773 -3.67759 -2.30078 0
M  V30 1290 H 126.444 -3.88505 -3.92133 0
M  V30 1291 H 128.92 -1.9757 -3.66204 0
M  V30 1292 H 127.796 -2.20683 -5.02583 0
M  V30 1293 H 128.057 -0.593933 -4.38092 0
M  V30 1294 N 127.117 1.15442 -1.07289 0
M  V30 1295 C 128.347 1.89821 -0.815576 0
M  V30 1296 C 128.755 1.7823 0.634867 0
M  V30 1297 O 128.098 1.13152 1.44715 0
M  V30 1298 C 128.16 3.40817 -1.14385 0
M  V30 1299 C 127.824 3.76193 -2.59476 0
M  V30 1300 C 128.821 3.77269 -3.57721 0
M  V30 1301 C 126.506 4.0652 -2.95037 0
M  V30 1302 C 128.5 4.08176 -4.89562 0
M  V30 1303 C 126.187 4.37092 -4.27076 0
M  V30 1304 C 127.185 4.37902 -5.24148 0
M  V30 1305 O 126.873 4.67741 -6.53815 0
M  V30 1306 H 126.605 0.608465 -0.294528 0
M  V30 1307 H 129.159 1.472 -1.43252 0
M  V30 1308 H 127.389 3.83835 -0.469865 0
M  V30 1309 H 129.078 3.96485 -0.869179 0
M  V30 1310 H 129.844 3.5394 -3.3159 0
M  V30 1311 H 125.723 4.05049 -2.20128 0
M  V30 1312 H 129.267 4.08723 -5.65324 0
M  V30 1313 H 125.164 4.59889 -4.5296 0
M  V30 1314 H 125.932 4.85509 -6.58957 0
M  V30 1315 N 128.595 0.856903 1.32268 0
M  V30 1316 C 130.011 0.547061 1.49931 0
M  V30 1317 C 130.211 -0.921781 1.7918 0
M  V30 1318 O 129.267 -1.70469 1.8627 0
M  V30 1319 C 130.58 1.43599 2.64196 0
M  V30 1320 C 132.128 1.43665 2.78081 0
M  V30 1321 C 132.603 2.31085 3.95428 0
M  V30 1322 N 134.094 2.28893 4.02694 0
M  V30 1323 C 134.829 2.93262 4.92732 0
M  V30 1324 N 134.325 3.66751 5.87763 0
M  V30 1325 N 136.118 2.82638 4.85873 0
M  V30 1326 H 128.269 1.8075 1.11549 0
M  V30 1327 H 130.532 0.772144 0.549997 0
M  V30 1328 H 130.238 2.48058 2.49319 0
M  V30 1329 H 130.112 1.12502 3.60032 0
M  V30 1330 H 132.499 0.399701 2.92381 0
M  V30 1331 H 132.58 1.7878 1.82952 0
M  V30 1332 H 132.224 3.34849 3.81888 0
M  V30 1333 H 132.154 1.93302 4.89839 0
M  V30 1334 H 134.645 1.75466 3.34694 0
M  V30 1335 H 134.958 4.13027 6.53168 0
M  V30 1336 H 133.303 3.70859 5.87783 0
M  V30 1337 H 136.494 2.24774 4.10602 0
M  V30 1338 H 136.667 3.33084 5.55841 0
M  V30 1339 N 130.073 -1.45103 0.615059 0
M  V30 1340 C 131.321 -2.01784 0.112955 0
M  V30 1341 C 131.642 -1.48504 -1.26378 0
M  V30 1342 O 130.912 -0.682245 -1.83636 0
M  V30 1343 H 129.492 -0.745993 0.0387668 0
M  V30 1344 H 132.154 -1.77808 0.798141 0
M  V30 1345 H 131.25 -3.12025 0.0684069 0
M  V30 1346 N 131.551 -0.354651 -1.53558 0
M  V30 1347 C 132.461 0.50515 -2.29097 0
M  V30 1348 C 133.477 1.10223 -1.34636 0
M  V30 1349 O 134.653 1.11553 -1.67684 0
M  V30 1350 C 131.718 1.63479 -3.05738 0
M  V30 1351 C 130.779 1.06636 -4.15845 0
M  V30 1352 C 130.012 2.14217 -4.88822 0
M  V30 1353 O 130.235 3.35137 -4.61562 0
M  V30 1354 O 129.169 1.77887 -5.75013 0
M  V30 1355 H 132.995 -0.109237 -3.03503 0
M  V30 1356 H 130.58 -0.119357 -1.48922 0
M  V30 1357 H 132.462 2.2918 -3.5363 0
M  V30 1358 H 131.137 2.23478 -2.34178 0
M  V30 1359 H 130.044 0.373565 -3.7223 0
M  V30 1360 H 131.377 0.511081 -4.89539 0
M  V30 1361 N 133.029 1.57378 -0.0835403 0
M  V30 1362 C 133.992 2.12252 0.864959 0
M  V30 1363 C 134.992 1.04916 1.21858 0
M  V30 1364 O 136.182 1.30853 1.14991 0
M  V30 1365 C 133.314 2.63358 2.16461 0
M  V30 1366 H 134.507 2.97371 0.388676 0
M  V30 1367 H 132.06 1.55423 0.165317 0
M  V30 1368 H 132.795 1.81727 2.686 0
M  V30 1369 H 132.58 3.41826 1.92087 0
M  V30 1370 H 134.07 3.05847 2.84337 0
M  V30 1371 N 134.507 -0.190092 1.56449 0
M  V30 1372 C 135.417 -1.25591 1.98152 0
M  V30 1373 C 136.433 -1.49519 0.889944 0
M  V30 1374 O 137.609 -1.62036 1.19609 0
M  V30 1375 C 134.674 -2.57916 2.3169 0
M  V30 1376 C 133.735 -2.42015 3.5458 0
M  V30 1377 C 132.968 -3.6803 3.8651 0
M  V30 1378 O 133.191 -4.72413 3.1966 0
M  V30 1379 O 132.125 -3.6326 4.79923 0
M  V30 1380 H 135.951 -0.931988 2.89046 0
M  V30 1381 H 133.536 -0.395488 1.4407 0
M  V30 1382 H 135.418 -3.36008 2.54316 0
M  V30 1383 H 134.093 -2.89925 1.43963 0
M  V30 1384 H 133 -1.62017 3.37196 0
M  V30 1385 H 134.333 -2.14937 4.4279 0
M  V30 1386 N 135.985 -1.50799 -0.457987 0
M  V30 1387 C 137.401 -1.38515 -0.792819 0
M  V30 1388 C 137.601 -0.451409 -1.96379 0
M  V30 1389 O 136.657 0.10112 -2.52297 0
M  V30 1390 C 137.97 -2.80149 -1.09258 0
M  V30 1391 C 139.518 -2.89156 -1.19825 0
M  V30 1392 C 139.993 -4.31651 -1.53106 0
M  V30 1393 N 141.484 -4.34662 -1.60072 0
M  V30 1394 C 142.219 -5.41928 -1.87354 0
M  V30 1395 N 141.715 -6.59384 -2.12568 0
M  V30 1396 N 143.508 -5.29385 -1.88965 0
M  V30 1397 H 135.659 -2.10073 0.313511 0
M  V30 1398 H 137.922 -0.944803 0.0777862 0
M  V30 1399 H 137.628 -3.50374 -0.305084 0
M  V30 1400 H 137.502 -3.18204 -2.02549 0
M  V30 1401 H 139.889 -2.19141 -1.97639 0
M  V30 1402 H 139.97 -2.54626 -0.244821 0
M  V30 1403 H 139.614 -5.02208 -0.758266 0
M  V30 1404 H 139.544 -4.63678 -2.49621 0
M  V30 1405 H 142.035 -3.49973 -1.42573 0
M  V30 1406 H 142.348 -7.36934 -2.32696 0
M  V30 1407 H 140.693 -6.62535 -2.09933 0
M  V30 1408 H 143.884 -4.36616 -1.68772 0
M  V30 1409 H 144.057 -6.13066 -2.09891 0
M  V30 1410 N 137.463 0.71206 -1.40597 0
M  V30 1411 C 138.712 1.46754 -1.38369 0
M  V30 1412 C 139.025 1.95598 0.0097839 0
M  V30 1413 O 140.231 2.71059 0.154677 0
M  V30 1414 C 138.687 2.65289 -2.43207 0
M  V30 1415 C 138.295 2.23301 -3.88382 0
M  V30 1416 C 140.039 3.43008 -2.50091 0
M  V30 1417 C 137.946 3.38696 -4.84808 0
M  V30 1418 H 136.876 0.55118 -0.514506 0
M  V30 1419 H 139.527 0.774616 -1.66349 0
M  V30 1420 H 137.909 3.36769 -2.08332 0
M  V30 1421 H 139.083 1.59218 -4.32419 0
M  V30 1422 H 137.398 1.58618 -3.85006 0
M  V30 1423 H 139.995 4.28881 -3.1932 0
M  V30 1424 H 140.338 3.87065 -1.53253 0
M  V30 1425 H 140.871 2.78574 -2.83974 0
M  V30 1426 H 137.61 2.99668 -5.82992 0
M  V30 1427 H 137.13 4.01683 -4.45433 0
M  V30 1428 H 138.809 4.04712 -5.04794 0
M  V30 1429 N 138.941 1.26152 0.944643 0
M  V30 1430 C 140.188 1.11492 1.69044 0
M  V30 1431 C 140.516 -0.342366 1.91463 0
M  V30 1432 O 139.771 -1.26812 1.49054 0
M  V30 1433 C 140.07 1.82541 3.07268 0
M  V30 1434 C 139.736 3.32445 3.04616 0
M  V30 1435 C 138.398 3.73337 3.036 0
M  V30 1436 C 140.75 4.28171 2.97185 0
M  V30 1437 C 138.078 5.08348 2.92915 0
M  V30 1438 C 140.43 5.63218 2.88041 0
M  V30 1439 C 139.094 6.03426 2.85366 0
M  V30 1440 H 138.364 0.407977 0.618576 0
M  V30 1441 H 141.011 1.56551 1.10291 0
M  V30 1442 H 139.316 1.29941 3.69625 0
M  V30 1443 H 141.013 1.68642 3.63815 0
M  V30 1444 H 137.603 2.99915 3.06185 0
M  V30 1445 H 141.787 3.97563 2.97081 0
M  V30 1446 H 137.043 5.38667 2.89219 0
M  V30 1447 H 141.217 6.37078 2.81254 0
M  V30 1448 H 138.844 7.07999 2.76842 0
M  V30 1449 N 140.419 -1.14872 1.07899 0
M  V30 1450 C 141.668 -1.85135 0.800499 0
M  V30 1451 C 141.981 -1.83547 -0.676014 0
M  V30 1452 O 143.187 -2.49548 -1.06948 0
M  V30 1453 C 141.643 -3.3231 1.38197 0
M  V30 1454 C 141.251 -3.42329 2.8899 0
M  V30 1455 C 142.995 -4.0772 1.18174 0
M  V30 1456 C 140.902 -4.83684 3.403 0
M  V30 1457 H 139.832 -0.693563 0.29578 0
M  V30 1458 H 142.483 -1.29532 1.29976 0
M  V30 1459 H 140.865 -3.87618 0.810431 0
M  V30 1460 H 142.039 -2.97097 3.52236 0
M  V30 1461 H 140.354 -2.80369 3.07867 0
M  V30 1462 H 142.951 -5.12049 1.5398 0
M  V30 1463 H 143.294 -4.16124 0.12117 0
M  V30 1464 H 143.827 -3.58696 1.71994 0
M  V30 1465 H 140.566 -4.80465 4.45907 0
M  V30 1466 H 140.086 -5.29474 2.81811 0
M  V30 1467 H 141.765 -5.52558 3.36584 0
M  V30 1468 N 141.898 -0.863906 -1.31812 0
M  V30 1469 C 142.808 -0.318461 -2.32428 0
M  V30 1470 C 143.824 0.568496 -1.64451 0
M  V30 1471 O 145 0.46666 -1.95919 0
M  V30 1472 C 142.065 0.476355 -3.43412 0
M  V30 1473 C 141.126 -0.43784 -4.27061 0
M  V30 1474 C 140.359 0.319138 -5.32745 0
M  V30 1475 O 140.582 1.54799 -5.48993 0
M  V30 1476 O 139.516 -0.319861 -6.01049 0
M  V30 1477 H 143.342 -1.15229 -2.80991 0
M  V30 1478 H 140.927 -0.627103 -1.35602 0
M  V30 1479 H 142.809 0.927156 -4.11074 0
M  V30 1480 H 141.484 1.28683 -2.97022 0
M  V30 1481 H 140.391 -0.937013 -3.62175 0
M  V30 1482 H 141.724 -1.21375 -4.77 0
M  V30 1483 N 143.376 1.44774 -0.622745 0
M  V30 1484 C 144.306 2.33382 0.0741861 0
M  V30 1485 C 145.287 1.47719 0.843387 0
M  V30 1486 O 146.472 1.76458 0.810934 0
M  V30 1487 C 143.602 3.30663 1.06204 0
M  V30 1488 C 142.556 4.26079 0.405037 0
M  V30 1489 C 141.882 5.13165 1.5022 0
M  V30 1490 C 143.182 5.1781 -0.683414 0
M  V30 1491 H 144.876 2.91905 -0.665713 0
M  V30 1492 H 142.422 1.40363 -0.321587 0
M  V30 1493 H 144.375 3.9153 1.55827 0
M  V30 1494 H 143.099 2.70331 1.83272 0
M  V30 1495 H 141.758 3.66532 -0.0704683 0
M  V30 1496 H 141.406 4.49191 2.26355 0
M  V30 1497 H 141.106 5.77812 1.06803 0
M  V30 1498 H 142.63 5.76902 2.00041 0
M  V30 1499 H 144.044 5.72661 -0.270631 0
M  V30 1500 H 142.441 5.91015 -1.04023 0
M  V30 1501 H 143.511 4.59326 -1.55395 0
M  V30 1502 N 144.854 0.36279 1.53368 0
M  V30 1503 C 145.801 -0.485008 2.25646 0
M  V30 1504 C 146.771 -1.07982 1.2621 0
M  V30 1505 O 147.956 -1.11284 1.54986 0
M  V30 1506 C 145.096 -1.62023 3.04701 0
M  V30 1507 C 144.209 -1.05086 4.19024 0
M  V30 1508 C 143.344 -2.15496 4.85525 0
M  V30 1509 C 142.383 -1.5601 5.91884 0
M  V30 1510 N 141.52 -2.60241 6.52088 0
M  V30 1511 H 146.36 0.137864 2.97681 0
M  V30 1512 H 143.897 0.0798061 1.46883 0
M  V30 1513 H 145.855 -2.28887 3.48807 0
M  V30 1514 H 144.485 -2.2138 2.34927 0
M  V30 1515 H 143.537 -0.27259 3.79422 0
M  V30 1516 H 144.849 -0.575926 4.95464 0
M  V30 1517 H 144.003 -2.90186 5.32801 0
M  V30 1518 H 142.742 -2.66341 4.08551 0
M  V30 1519 H 141.747 -0.798338 5.43973 0
M  V30 1520 H 142.972 -1.05994 6.70777 0
M  V30 1521 H 140.918 -3.10304 5.77968 0
M  V30 1522 H 140.835 -2.17426 7.24059 0
M  V30 1523 H 142.103 -3.34641 7.04014 0
M  V30 1524 N 146.332 -1.57332 0.0918853 0
M  V30 1525 C 147.579 -1.94236 -0.572577 0
M  V30 1526 C 147.907 -0.973398 -1.6839 0
M  V30 1527 O 147.162 0.00756912 -1.95699 0
M  V30 1528 C 147.461 -3.37689 -1.17051 0
M  V30 1529 C 147.127 -4.50527 -0.183304 0
M  V30 1530 C 145.789 -4.81119 0.0882276 0
M  V30 1531 C 148.141 -5.18883 0.49095 0
M  V30 1532 C 145.469 -5.77395 1.04076 0
M  V30 1533 C 147.821 -6.1618 1.43193 0
M  V30 1534 C 146.485 -6.45179 1.71173 0
M  V30 1535 H 145.755 -0.710762 -0.209521 0
M  V30 1536 H 148.402 -1.9077 0.167036 0
M  V30 1537 H 146.707 -3.37718 -1.9863 0
M  V30 1538 H 148.404 -3.63543 -1.69227 0
M  V30 1539 H 144.994 -4.26681 -0.405124 0
M  V30 1540 H 149.178 -4.95427 0.294312 0
M  V30 1541 H 144.434 -5.98179 1.26457 0
M  V30 1542 H 148.608 -6.68243 1.96023 0
M  V30 1543 H 146.235 -7.1959 2.4514 0
M  V30 1544 N 147.81 0.181792 -1.56548 0
M  V30 1545 C 149.038 0.915947 -1.85521 0
M  V30 1546 C 149.453 1.76282 -0.676016 0
M  V30 1547 O 148.81 1.79012 0.355077 0
M  V30 1548 C 148.861 1.80126 -3.13427 0
M  V30 1549 O 148.582 0.988562 -4.26801 0
M  V30 1550 C 150.083 2.64597 -3.55673 0
M  V30 1551 H 147.303 0.26661 -0.61576 0
M  V30 1552 H 149.847 0.185039 -2.03661 0
M  V30 1553 H 148.002 2.48563 -2.97145 0
M  V30 1554 H 148.416 1.59308 -4.99721 0
M  V30 1555 H 149.89 3.2235 -4.48101 0
M  V30 1556 H 150.367 3.38958 -2.79292 0
M  V30 1557 H 150.973 2.0151 -3.74532 0
M  V30 1558 N 149.288 1.51039 0.449983 0
M  V30 1559 C 150.534 1.63322 1.20223 0
M  V30 1560 C 150.867 0.34241 1.91158 0
M  V30 1561 O 150.142 -0.657344 1.83055 0
M  V30 1562 C 150.425 2.82801 2.22925 0
M  V30 1563 C 150.278 4.21823 1.56157 0
M  V30 1564 C 151.597 2.97807 3.24035 0
M  V30 1565 H 148.716 0.594407 0.435718 0
M  V30 1566 H 151.358 1.83489 0.493136 0
M  V30 1567 H 149.508 2.65738 2.834 0
M  V30 1568 H 151.18 4.50526 0.991162 0
M  V30 1569 H 149.423 4.25105 0.864172 0
M  V30 1570 H 150.094 5.01391 2.30891 0
M  V30 1571 H 152.57 3.13497 2.73603 0
M  V30 1572 H 151.446 3.82992 3.93202 0
M  V30 1573 H 151.707 2.09328 3.89402 0
M  V30 1574 N 150.766 -0.704594 1.40972 0
M  V30 1575 C 152.182 -1.01406 1.23244 0
M  V30 1576 C 152.382 -2.01169 0.115399 0
M  V30 1577 O 151.438 -2.47021 -0.523147 0
M  V30 1578 C 152.751 -1.54728 2.57836 0
M  V30 1579 C 154.299 -1.66658 2.64942 0
M  V30 1580 C 154.774 -2.23383 3.9983 0
M  V30 1581 N 156.265 -2.30756 4.01629 0
M  V30 1582 C 157 -2.75655 5.02794 0
M  V30 1583 N 156.496 -3.20225 6.14352 0
M  V30 1584 N 158.289 -2.75138 4.90159 0
M  V30 1585 H 150.44 -0.0435285 2.12355 0
M  V30 1586 H 152.703 -0.0818951 0.944456 0
M  V30 1587 H 152.409 -0.888832 3.40283 0
M  V30 1588 H 152.283 -2.53084 2.79693 0
M  V30 1589 H 154.67 -2.31617 1.8286 0
M  V30 1590 H 154.751 -0.668717 2.46904 0
M  V30 1591 H 154.395 -1.59043 4.82357 0
M  V30 1592 H 154.325 -3.23904 4.15203 0
M  V30 1593 H 156.816 -1.99291 3.21079 0
M  V30 1594 H 157.129 -3.53084 6.87424 0
M  V30 1595 H 155.474 -3.18156 6.17901 0
M  V30 1596 H 158.665 -2.39661 4.02095 0
M  V30 1597 H 158.838 -3.09812 5.6914 0
M  V30 1598 N 152.244 -1.26651 -0.937939 0
M  V30 1599 C 153.521 -1.0313 -1.66204 0
M  V30 1600 C 153.901 0.437256 -2.06522 0
M  V30 1601 O 153.249 1.41831 -1.79154 0
M  V30 1602 C 153.459 -1.98314 -2.87181 0
M  V30 1603 C 154.807 -2.27107 -3.58758 0
M  V30 1604 O 155.831 -1.96205 -2.97291 0
M  V30 1605 O 154.69 -2.79736 -4.69479 0
M  V30 1606 H 151.784 -0.392384 -0.727986 0
M  V30 1607 H 154.33 -1.37874 -0.989382 0
M  V30 1608 H 153.102 -2.97399 -2.54302 0
M  V30 1609 H 152.725 -1.64068 -3.6217 0
M  V30 1610 N 153.722 1.14298 -1.08507 0
M  V30 1611 C 154.962 1.87016 -0.824894 0
M  V30 1612 C 155.326 1.81099 0.637735 0
M  V30 1613 O 156.527 2.48963 1.01345 0
M  V30 1614 C 154.798 3.31584 -1.33368 0
M  V30 1615 S 156.357 4.21903 -1.20596 0
M  V30 1616 H 153.175 0.645259 -0.2986 0
M  V30 1617 H 155.777 1.37822 -1.38656 0
M  V30 1618 H 154.481 3.33439 -2.39262 0
M  V30 1619 H 154.012 3.85836 -0.767734 0
M  V30 1620 H 156.027 4.95971 -0.150891 0
M  V30 1621 N 155.201 0.870884 1.31352 0
M  V30 1622 C 156.149 0.316445 2.30437 0
M  V30 1623 C 157.143 -0.568965 1.59559 0
M  V30 1624 O 158.349 -0.454964 1.74155 0
M  V30 1625 H 154.724 0.0836521 0.747333 0
M  V30 1626 H 156.695 1.16606 2.74673 0
M  V30 1627 C 155.444 -0.46635 3.44558 0
M  V30 1628 H 154.767 0.205687 3.99271 0
M  V30 1629 H 156.207 -0.819614 4.16003 0
M  V30 1630 C 154.666 -1.65797 2.9328 0
M  V30 1631 O 155.196 -2.75728 2.92125 0
M  V30 1632 N 153.402 -1.49041 2.4947 0
M  V30 1633 H 152.949 -0.59612 2.50608 0
M  V30 1634 H 152.907 -2.28911 2.15516 0
M  V30 1635 N 156.679 -1.44442 0.630414 0
M  V30 1636 C 157.904 -2.06927 0.139944 0
M  V30 1637 C 158.329 -1.46795 -1.17613 0
M  V30 1638 O 157.687 -0.569144 -1.72135 0
M  V30 1639 C 157.735 -3.6058 0.0379581 0
M  V30 1640 O 156.839 -3.99937 -1.0062 0
M  V30 1641 H 156.18 -0.658608 0.0844483 0
M  V30 1642 H 158.71 -1.85327 0.866891 0
M  V30 1643 H 158.72 -4.07714 -0.152856 0
M  V30 1644 H 157.395 -4.03728 0.998809 0
M  V30 1645 H 155.972 -3.64436 -0.79001 0
M  V30 1646 N 158.157 -0.370918 -1.53173 0
M  V30 1647 C 159.404 0.217102 -2.01333 0
M  V30 1648 C 159.732 1.48338 -1.25802 0
M  V30 1649 O 158.987 1.92698 -0.34146 0
M  V30 1650 C 159.286 0.549696 -3.53147 0
M  V30 1651 C 158.952 -0.622872 -4.46577 0
M  V30 1652 C 157.614 -0.944595 -4.71838 0
M  V30 1653 C 159.966 -1.40819 -5.01816 0
M  V30 1654 C 157.294 -2.05351 -5.49589 0
M  V30 1655 C 159.646 -2.50757 -5.80778 0
M  V30 1656 C 158.31 -2.83458 -6.04324 0
M  V30 1657 H 157.58 0.0794431 -0.736729 0
M  V30 1658 H 160.227 -0.504481 -1.84736 0
M  V30 1659 H 158.532 1.35237 -3.6772 0
M  V30 1660 H 160.229 1.017 -3.87889 0
M  V30 1661 H 156.819 -0.36209 -4.27068 0
M  V30 1662 H 161.003 -1.17289 -4.82242 0
M  V30 1663 H 156.259 -2.3108 -5.6605 0
M  V30 1664 H 160.433 -3.12022 -6.22588 0
M  V30 1665 H 158.06 -3.69508 -6.64355 0
M  V30 1666 N 159.635 1.57281 -0.100228 0
M  V30 1667 C 161.046 1.81725 0.428107 0
M  V30 1668 C 161.397 1.01619 1.67833 0
M  V30 1669 O 160.522 0.247098 2.14985 0
M  V30 1670 C 161.117 3.29617 0.78347 0
M  V30 1671 C 159.676 3.54808 1.25653 0
M  V30 1672 C 158.823 2.76118 0.255752 0
M  V30 1673 H 161.774 1.55324 -0.325608 0
M  V30 1674 H 161.795 3.4322 1.64256 0
M  V30 1675 H 161.307 3.87893 -0.12665 0
M  V30 1676 H 159.408 3.01868 2.18418 0
M  V30 1677 H 159.521 4.63443 1.21482 0
M  V30 1678 H 157.885 2.43745 0.738956 0
M  V30 1679 H 158.668 3.37145 -0.647136 0
M  V30 1680 N 161.113 -0.173488 1.56642 0
M  V30 1681 C 162.361 -0.888706 1.81512 0
M  V30 1682 C 162.682 -1.82875 0.676872 0
M  V30 1683 O 161.952 -1.93536 -0.303414 0
M  V30 1684 H 160.532 -0.331164 0.669582 0
M  V30 1685 H 163.194 -0.173823 1.94123 0
M  V30 1686 H 162.29 -1.46691 2.75478 0
M  V30 1687 N 162.591 -1.51276 -0.441967 0
M  V30 1688 C 163.839 -1.63392 -1.18943 0
M  V30 1689 C 164.16 -0.350159 -1.9183 0
M  V30 1690 O 163.43 0.633784 -1.85364 0
M  V30 1691 H 162.01 -0.602164 -0.442049 0
M  V30 1692 H 164.672 -1.88186 -0.507165 0
M  V30 1693 H 163.768 -2.45934 -1.92154 0
M  V30 1694 N 164.069 0.697108 -1.41344 0
M  V30 1695 C 165.032 1.79281 -1.42797 0
M  V30 1696 C 166.032 1.57607 -0.318837 0
M  V30 1697 O 167.222 1.64309 -0.578642 0
M  V30 1698 C 164.354 3.17632 -1.23785 0
M  V30 1699 H 165.547 1.79385 -2.40335 0
M  V30 1700 H 163.1 0.904582 -1.27464 0
M  V30 1701 H 163.835 3.23167 -0.270814 0
M  V30 1702 H 163.62 3.34765 -2.04144 0
M  V30 1703 H 165.11 3.97617 -1.27633 0
M  V30 1704 N 165.547 1.27147 0.931209 0
M  V30 1705 C 166.772 1.16191 1.71797 0
M  V30 1706 C 167.197 -0.278004 1.86034 0
M  V30 1707 O 166.555 -1.20137 1.35782 0
M  V30 1708 C 166.603 1.84673 3.09723 0
M  V30 1709 O 165.707 1.14231 3.96264 0
M  V30 1710 H 165.048 0.404303 0.526721 0
M  V30 1711 H 167.578 1.68152 1.1656 0
M  V30 1712 H 167.588 1.91893 3.60057 0
M  V30 1713 H 166.263 2.89421 2.98677 0
M  V30 1714 H 164.84 1.15056 3.54706 0
M  V30 1715 N 167.025 -1.13721 1.09112 0
M  V30 1716 C 168.25 -1.89314 0.847053 0
M  V30 1717 C 168.675 -1.78416 -0.595774 0
M  V30 1718 O 168.033 -1.12942 -1.41823 0
M  V30 1719 C 168.081 -3.3701 1.28284 0
M  V30 1720 O 167.185 -4.10054 0.439267 0
M  V30 1721 H 166.526 -0.588745 0.307044 0
M  V30 1722 H 169.056 -1.43902 1.45442 0
M  V30 1723 H 169.066 -3.87834 1.26683 0
M  V30 1724 H 167.741 -3.4426 2.33363 0
M  V30 1725 H 166.318 -3.69266 0.519312 0
M  V30 1726 N 168.503 -0.877838 -1.30888 0
M  V30 1727 C 169.743 -0.499301 -1.98208 0
M  V30 1728 C 170.107 0.932649 -1.67826 0
M  V30 1729 O 171.308 1.41694 -2.28421 0
M  V30 1730 C 169.579 -0.758221 -3.49265 0
M  V30 1731 S 171.138 -0.480719 -4.36159 0
M  V30 1732 H 167.956 -0.186062 -0.686223 0
M  V30 1733 H 170.558 -1.13556 -1.59139 0
M  V30 1734 H 169.262 -1.79903 -3.68867 0
M  V30 1735 H 168.793 -0.109247 -3.93248 0
M  V30 1736 H 170.808 0.683698 -4.91467 0
M  V30 1737 N 169.982 1.44106 -0.638065 0
M  V30 1738 C 170.929 2.30715 0.062701 0
M  V30 1739 C 171.899 1.43882 0.829883 0
M  V30 1740 O 173.084 1.72775 0.809532 0
M  V30 1741 C 170.224 3.29258 1.03358 0
M  V30 1742 C 169.337 4.31192 0.26409 0
M  V30 1743 C 168.472 5.16825 1.22741 0
M  V30 1744 C 167.511 6.10462 0.447475 0
M  V30 1745 N 166.648 6.8877 1.36161 0
M  V30 1746 H 171.488 2.90096 -0.681781 0
M  V30 1747 H 169.025 1.42925 -0.347988 0
M  V30 1748 H 170.983 3.84886 1.60992 0
M  V30 1749 H 169.613 2.71562 1.74511 0
M  V30 1750 H 168.665 3.77981 -0.428295 0
M  V30 1751 H 169.977 4.97619 -0.343052 0
M  V30 1752 H 169.131 5.77004 1.87487 0
M  V30 1753 H 167.87 4.50488 1.86847 0
M  V30 1754 H 166.875 5.49386 -0.213433 0
M  V30 1755 H 168.1 6.78837 -0.188968 0
M  V30 1756 H 166.046 6.25096 1.98975 0
M  V30 1757 H 165.963 7.51663 0.808656 0
M  V30 1758 H 167.231 7.53467 1.99769 0
M  V30 1759 N 171.46 0.379036 1.52974 0
M  V30 1760 C 172.37 -0.468639 2.29872 0
M  V30 1761 C 173.386 -1.08067 1.36373 0
M  V30 1762 O 174.562 -1.08871 1.69438 0
M  V30 1763 C 171.627 -1.58594 3.083 0
M  V30 1764 C 170.688 -1.00007 4.17489 0
M  V30 1765 C 169.921 -2.06413 4.92168 0
M  V30 1766 O 170.144 -3.27751 4.66835 0
M  V30 1767 O 169.078 -1.68717 5.7777 0
M  V30 1768 H 172.904 0.157508 3.03291 0
M  V30 1769 H 170.489 0.143035 1.48714 0
M  V30 1770 H 172.371 -2.23525 3.57232 0
M  V30 1771 H 171.046 -2.19724 2.37703 0
M  V30 1772 H 169.953 -0.314299 3.72777 0
M  V30 1773 H 171.286 -0.433135 4.90291 0
M  V30 1774 N 172.938 -1.57226 0.108567 0
M  V30 1775 C 174.166 -1.99179 -0.559954 0
M  V30 1776 C 174.581 -0.988022 -1.60884 0
M  V30 1777 O 173.938 0.0205512 -1.82488 0
M  V30 1778 C 173.989 -3.41159 -1.19552 0
M  V30 1779 O 173.71 -4.37694 -0.188577 0
M  V30 1780 C 175.211 -3.98188 -1.94837 0
M  V30 1781 H 172.431 -0.654228 -0.149088 0
M  V30 1782 H 174.975 -2.03598 0.19183 0
M  V30 1783 H 173.13 -3.37711 -1.89815 0
M  V30 1784 H 173.544 -5.20469 -0.649014 0
M  V30 1785 H 175.018 -4.99644 -2.34648 0
M  V30 1786 H 175.495 -3.3675 -2.81951 0
M  V30 1787 H 176.101 -4.0515 -1.2936 0
M  V30 1788 N 174.416 0.165178 -1.56732 0
M  V30 1789 C 175.663 0.880807 -1.8234 0
M  V30 1790 C 175.991 1.81977 -0.686621 0
M  V30 1791 O 175.246 1.92971 0.325697 0
M  V30 1792 C 175.545 1.70405 -3.1416 0
M  V30 1793 C 175.211 0.913475 -4.4155 0
M  V30 1794 C 173.873 0.695303 -4.7615 0
M  V30 1795 C 176.225 0.359349 -5.1996 0
M  V30 1796 C 173.553 -0.0879947 -5.86634 0
M  V30 1797 C 175.905 -0.410893 -6.31264 0
M  V30 1798 C 174.569 -0.639808 -6.64427 0
M  V30 1799 H 173.839 0.32231 -0.667231 0
M  V30 1800 H 176.486 0.145402 -1.90947 0
M  V30 1801 H 174.791 2.50903 -3.00923 0
M  V30 1802 H 176.488 2.26091 -3.31186 0
M  V30 1803 H 173.078 1.09357 -4.14414 0
M  V30 1804 H 177.262 0.515228 -4.93618 0
M  V30 1805 H 172.518 -0.27503 -6.10781 0
M  V30 1806 H 176.692 -0.847494 -6.91224 0
M  V30 1807 H 174.319 -1.24864 -7.49875 0
M  V30 1808 N 175.894 1.51508 0.433938 0
M  V30 1809 C 176.842 1.73646 1.54757 0
M  V30 1810 C 177.836 0.602854 1.5831 0
M  V30 1811 O 179.042 0.784318 1.62014 0
M  V30 1812 H 175.417 0.548718 0.51421 0
M  V30 1813 H 177.388 2.66991 1.33261 0
M  V30 1814 C 176.137 1.88172 2.92381 0
M  V30 1815 H 175.46 2.74808 2.90381 0
M  V30 1816 H 176.9 2.07672 3.6966 0
M  V30 1817 C 175.359 0.64239 3.30719 0
M  V30 1818 O 175.889 -0.201362 4.01195 0
M  V30 1819 N 174.095 0.485489 2.86516 0
M  V30 1820 H 173.642 1.17318 2.29334 0
M  V30 1821 H 173.6 -0.342482 3.12529 0
M  V30 1822 N 177.372 -0.689602 1.41712 0
M  V30 1823 C 178.302 -1.81577 1.46806 0
M  V30 1824 C 179.283 -1.66945 0.326105 0
M  V30 1825 O 180.468 -1.86588 0.538377 0
M  V30 1826 C 177.598 -3.19762 1.35535 0
M  V30 1827 C 176.552 -3.49107 2.47605 0
M  V30 1828 C 175.878 -4.86711 2.21397 0
M  V30 1829 C 177.178 -3.47483 3.89939 0
M  V30 1830 H 178.872 -1.7757 2.41058 0
M  V30 1831 H 176.418 -0.852887 1.16025 0
M  V30 1832 H 178.371 -3.98263 1.3771 0
M  V30 1833 H 177.095 -3.24409 0.377708 0
M  V30 1834 H 175.754 -2.72959 2.44722 0
M  V30 1835 H 175.402 -4.8799 1.21961 0
M  V30 1836 H 175.102 -5.0731 2.96497 0
M  V30 1837 H 176.626 -5.67515 2.25297 0
M  V30 1838 H 178.04 -4.1598 3.94505 0
M  V30 1839 H 176.437 -3.79615 4.64771 0
M  V30 1840 H 177.507 -2.46341 4.17665 0
M  V30 1841 N 178.85 -1.27639 -0.924453 0
M  V30 1842 C 180.08 -1.16819 -1.70402 0
M  V30 1843 C 180.488 0.277191 -1.87158 0
M  V30 1844 O 179.831 1.20025 -1.39067 0
M  V30 1845 C 179.893 -1.78305 -3.12166 0
M  V30 1846 C 179.557 -3.27502 -3.18734 0
M  V30 1847 C 180.554 -4.2409 -3.00738 0
M  V30 1848 C 178.239 -3.68269 -3.4159 0
M  V30 1849 C 180.233 -5.59422 -3.05492 0
M  V30 1850 C 177.92 -5.0373 -3.45977 0
M  V30 1851 C 178.918 -5.99116 -3.27946 0
M  V30 1852 O 178.606 -7.32108 -3.32074 0
M  V30 1853 H 178.338 -0.406931 -0.539799 0
M  V30 1854 H 180.892 -1.69078 -1.16626 0
M  V30 1855 H 179.122 -1.20528 -3.67437 0
M  V30 1856 H 180.811 -1.62154 -3.72103 0
M  V30 1857 H 181.577 -3.93931 -2.82919 0
M  V30 1858 H 177.456 -2.94496 -3.54673 0
M  V30 1859 H 181 -6.33852 -2.91337 0
M  V30 1860 H 176.897 -5.33543 -3.63321 0
M  V30 1861 H 177.665 -7.40598 -3.48507 0
M  V30 1862 N 180.328 1.1314 -1.09713 0
M  V30 1863 C 181.558 1.88048 -0.855656 0
M  V30 1864 C 181.966 1.79537 0.596919 0
M  V30 1865 O 181.309 1.16196 1.42282 0
M  V30 1866 C 181.371 3.38314 -1.21589 0
M  V30 1867 C 181.035 3.70605 -2.67397 0
M  V30 1868 C 182.032 3.69596 -3.65643 0
M  V30 1869 C 179.717 4.0017 -3.03593 0
M  V30 1870 C 181.711 3.977 -4.9811 0
M  V30 1871 C 179.398 4.27935 -4.36251 0
M  V30 1872 C 180.396 4.26685 -5.33318 0
M  V30 1873 O 180.084 4.53767 -6.63589 0
M  V30 1874 H 179.816 0.60208 -0.307368 0
M  V30 1875 H 182.37 1.44128 -1.46343 0
M  V30 1876 H 180.6 3.82752 -0.551177 0
M  V30 1877 H 182.289 3.94552 -0.953083 0
M  V30 1878 H 183.055 3.46826 -3.39023 0
M  V30 1879 H 178.934 4.00289 -2.2867 0
M  V30 1880 H 182.478 3.9664 -5.73866 0
M  V30 1881 H 178.375 4.50178 -4.62613 0
M  V30 1882 H 179.143 4.71422 -6.69107 0
M  V30 1883 N 181.806 0.884767 1.30421 0
M  V30 1884 C 182.769 0.356277 2.26414 0
M  V30 1885 C 183.769 -0.501124 1.52792 0
M  V30 1886 O 184.959 -0.30831 1.7145 0
M  V30 1887 C 182.091 -0.492316 3.37326 0
M  V30 1888 H 183.284 1.20389 2.74675 0
M  V30 1889 H 180.837 0.661607 1.41607 0
M  V30 1890 H 181.572 -1.36052 2.94381 0
M  V30 1891 H 181.357 0.121832 3.91911 0
M  V30 1892 H 182.847 -0.853871 4.08777 0
M  V30 1893 N 183.284 -1.43765 0.645699 0
M  V30 1894 C 184.194 -2.34544 -0.0512957 0
M  V30 1895 C 185.21 -1.53455 -0.82022 0
M  V30 1896 O 186.386 -1.86133 -0.769176 0
M  V30 1897 C 183.451 -3.31636 -1.01087 0
M  V30 1898 C 182.512 -4.2863 -0.239712 0
M  V30 1899 C 181.745 -5.21084 -1.15358 0
M  V30 1900 O 181.968 -5.1779 -2.39269 0
M  V30 1901 O 180.902 -5.98593 -0.630038 0
M  V30 1902 H 184.728 -2.95624 0.695718 0
M  V30 1903 H 182.313 -1.43781 0.405882 0
M  V30 1904 H 184.195 -3.9136 -1.56254 0
M  V30 1905 H 182.87 -2.73069 -1.73824 0
M  V30 1906 H 181.777 -3.72408 0.355356 0
M  V30 1907 H 183.11 -4.90157 0.447936 0
M  V30 1908 N 184.763 -0.387143 -1.52771 0
M  V30 1909 C 185.988 0.198407 -2.06449 0
M  V30 1910 C 186.413 1.39918 -1.25716 0
M  V30 1911 O 185.771 1.79099 -0.281657 0
M  V30 1912 C 185.819 0.548893 -3.56398 0
M  V30 1913 O 184.923 1.64315 -3.78252 0
M  V30 1914 H 184.264 0.0237731 -0.663574 0
M  V30 1915 H 186.794 -0.553989 -1.96957 0
M  V30 1916 H 186.804 0.813812 -3.99801 0
M  V30 1917 H 185.479 -0.329005 -4.14597 0
M  V30 1918 H 184.056 1.37211 -3.46738 0
M  V30 1919 N 186.241 1.57166 -0.116904 0
M  V30 1920 C 187.518 1.86645 0.585049 0
M  V30 1921 C 187.898 1.0177 1.84949 0
M  V30 1922 O 187.246 0.0960379 2.28298 0
M  V30 1923 C 187.456 3.37736 0.879507 0
M  V30 1924 C 188.804 4.06289 1.23348 0
M  V30 1925 O 189.828 3.42743 0.969836 0
M  V30 1926 O 188.687 5.18455 1.7282 0
M  V30 1927 H 185.781 0.772593 0.295007 0
M  V30 1928 H 188.327 1.69025 -0.151249 0
M  V30 1929 H 187.099 3.91296 -0.0166136 0
M  V30 1930 H 186.722 3.6078 1.67103 0
M  V30 1931 N 187.719 -0.156864 1.56817 0
M  V30 1932 C 188.649 -1.19589 2.00551 0
M  V30 1933 C 189.63 -1.4536 0.883426 0
M  V30 1934 O 190.815 -1.56449 1.15054 0
M  V30 1935 C 187.945 -2.53143 2.37773 0
M  V30 1936 C 186.899 -2.41913 3.53075 0
M  V30 1937 C 186.225 -3.80088 3.76081 0
M  V30 1938 C 187.525 -1.91157 4.86062 0
M  V30 1939 H 189.219 -0.832293 2.87599 0
M  V30 1940 H 186.765 -0.398918 1.38364 0
M  V30 1941 H 188.718 -3.26047 2.66967 0
M  V30 1942 H 187.442 -2.91319 1.4765 0
M  V30 1943 H 186.101 -1.71462 3.24031 0
M  V30 1944 H 185.749 -4.15683 2.83225 0
M  V30 1945 H 185.449 -3.73439 4.53671 0
M  V30 1946 H 186.973 -4.54556 4.0769 0
M  V30 1947 H 188.387 -2.53846 5.14038 0
M  V30 1948 H 186.784 -1.95422 5.67389 0
M  V30 1949 H 187.854 -0.866673 4.77092 0
M  V30 1950 N 189.197 -1.51736 -0.425897 0
M  V30 1951 C 190.474 -1.55519 -1.1863 0
M  V30 1952 C 190.854 -0.326219 -2.08564 0
M  V30 1953 O 190.202 0.688012 -2.17896 0
M  V30 1954 C 190.412 -2.87521 -1.9782 0
M  V30 1955 C 191.76 -3.39899 -2.54468 0
M  V30 1956 O 192.784 -2.89148 -2.08019 0
M  V30 1957 O 191.643 -4.2848 -3.39215 0
M  V30 1958 H 188.737 -0.625739 -0.540721 0
M  V30 1959 H 191.283 -1.64055 -0.434038 0
M  V30 1960 H 190.055 -3.68422 -1.31836 0
M  V30 1961 H 189.678 -2.822 -2.80088 0
M  V30 1962 N 190.675 0.682077 -1.42076 0
M  V30 1963 C 191.905 1.46844 -1.45329 0
M  V30 1964 C 192.313 1.89102 -0.0609328 0
M  V30 1965 O 191.656 1.58238 0.933082 0
M  V30 1966 C 191.718 2.75375 -2.31104 0
M  V30 1967 C 191.382 2.55238 -3.79081 0
M  V30 1968 C 192.379 2.20309 -4.70914 0
M  V30 1969 C 190.064 2.70459 -4.2327 0
M  V30 1970 C 192.058 2.00859 -6.04925 0
M  V30 1971 C 189.745 2.50624 -5.57343 0
M  V30 1972 C 190.743 2.15876 -6.47986 0
M  V30 1973 O 190.431 1.96227 -7.79583 0
M  V30 1974 H 190.163 0.4586 -0.496651 0
M  V30 1975 H 192.717 0.846131 -1.87162 0
M  V30 1976 H 190.947 3.40061 -1.84107 0
M  V30 1977 H 192.636 3.37231 -2.25898 0
M  V30 1978 H 193.402 2.08153 -4.38061 0
M  V30 1979 H 189.281 2.96485 -3.53012 0
M  V30 1980 H 192.825 1.7366 -6.75639 0
M  V30 1981 H 188.722 2.62375 -5.89771 0
M  V30 1982 H 189.49 2.10883 -7.90867 0
M  V30 1983 N 192.153 1.28127 0.917671 0
M  V30 1984 C 193.401 1.14825 1.66312 0
M  V30 1985 C 193.722 -0.304379 1.9261 0
M  V30 1986 O 192.992 -1.21149 1.53947 0
M  V30 1987 H 191.572 0.421953 0.616413 0
M  V30 1988 H 194.234 1.608 1.10134 0
M  V30 1989 H 193.33 1.68489 2.62712 0
M  V30 1990 N 193.631 -1.12557 1.10312 0
M  V30 1991 C 194.859 -1.87864 0.866873 0
M  V30 1992 C 195.274 -1.79588 -0.582557 0
M  V30 1993 O 194.631 -1.16887 -1.40156 0
M  V30 1994 C 194.682 -3.37125 1.30496 0
M  V30 1995 O 194.403 -3.45201 2.69755 0
M  V30 1996 C 195.904 -4.29373 1.10243 0
M  V30 1997 H 193.124 -0.594452 0.311236 0
M  V30 1998 H 195.668 -1.42429 1.46745 0
M  V30 1999 H 193.823 -3.80109 0.748081 0
M  V30 2000 H 194.237 -4.38056 2.88457 0
M  V30 2001 H 195.711 -5.32394 1.45811 0
M  V30 2002 H 196.188 -4.39181 0.0409492 0
M  V30 2003 H 196.794 -3.92169 1.64571 0
M  V30 2004 N 195.109 -0.891671 -1.2995 0
M  V30 2005 C 196.057 -0.353066 -2.29905 0
M  V30 2006 C 197.051 0.543509 -1.60444 0
M  V30 2007 O 198.257 0.4272 -1.74857 0
M  V30 2008 H 194.632 -0.095531 -0.745907 0
M  V30 2009 H 196.603 -1.20961 -2.72784 0
M  V30 2010 C 195.352 0.411475 -3.45257 0
M  V30 2011 H 194.675 -0.269182 -3.98893 0
M  V30 2012 H 196.115 0.753328 -4.17254 0
M  V30 2013 C 194.574 1.6111 -2.9588 0
M  V30 2014 O 195.104 2.71045 -2.96475 0
M  V30 2015 N 193.31 1.45054 -2.51809 0
M  V30 2016 H 192.857 0.556175 -2.51524 0
M  V30 2017 H 192.815 2.25453 -2.1913 0
M  V30 2018 N 196.587 1.43421 -0.653314 0
M  V30 2019 C 197.834 2.01812 -0.166745 0
M  V30 2020 C 198.162 1.51535 1.21931 0
M  V30 2021 O 197.417 0.698975 1.82792 0
M  V30 2022 C 197.716 3.57176 -0.126623 0
M  V30 2023 C 197.382 4.26798 -1.45444 0
M  V30 2024 C 196.044 4.45534 -1.81805 0
M  V30 2025 C 198.396 4.66225 -2.32989 0
M  V30 2026 C 195.724 5.00961 -3.05377 0
M  V30 2027 C 198.076 5.23021 -3.55853 0
M  V30 2028 C 196.74 5.39973 -3.9241 0
M  V30 2029 H 196.01 0.738484 -0.0610162 0
M  V30 2030 H 198.657 1.71896 -0.84404 0
M  V30 2031 H 196.962 3.86634 0.634123 0
M  V30 2032 H 198.659 4.00112 0.266723 0
M  V30 2033 H 195.249 4.12561 -1.16153 0
M  V30 2034 H 199.433 4.51443 -2.06187 0
M  V30 2035 H 194.689 5.12271 -3.3375 0
M  V30 2036 H 198.863 5.52518 -4.23907 0
M  V30 2037 H 196.49 5.82687 -4.88242 0
M  V30 2038 N 198.065 0.39524 1.52563 0
M  V30 2039 C 198.997 -0.472201 2.24283 0
M  V30 2040 C 200.01 -1.02178 1.26742 0
M  V30 2041 O 201.199 -0.923097 1.52778 0
M  V30 2042 C 198.299 -1.66775 2.95024 0
M  V30 2043 C 197.472 -1.2445 4.19322 0
M  V30 2044 C 196.531 -2.30539 4.7301 0
M  V30 2045 O 195.557 -1.91702 5.35947 0
M  V30 2046 N 196.759 -3.6253 4.53379 0
M  V30 2047 H 199.524 0.142282 2.99362 0
M  V30 2048 H 197.085 0.2219 1.60372 0
M  V30 2049 H 199.077 -2.37283 3.27839 0
M  V30 2050 H 197.647 -2.18845 2.23217 0
M  V30 2051 H 196.867 -0.368069 3.92478 0
M  V30 2052 H 198.155 -0.938457 5.0007 0
M  V30 2053 H 197.553 -3.96841 4.03154 0
M  V30 2054 H 196.11 -4.29055 4.90668 0
M  V30 2055 N 199.544 -1.57102 0.125237 0
M  V30 2056 C 200.491 -2.15641 -0.822655 0
M  V30 2057 C 201.461 -1.08313 -1.25927 0
M  V30 2058 O 202.646 -1.36251 -1.33567 0
M  V30 2059 C 199.786 -2.76504 -2.06494 0
M  V30 2060 C 198.899 -3.98158 -1.67612 0
M  V30 2061 C 198.034 -4.47088 -2.86854 0
M  V30 2062 C 197.073 -5.6126 -2.44242 0
M  V30 2063 N 196.21 -6.04905 -3.56419 0
M  V30 2064 H 201.05 -2.96313 -0.316625 0
M  V30 2065 H 198.587 -1.46388 -0.144588 0
M  V30 2066 H 200.545 -3.09925 -2.79289 0
M  V30 2067 H 199.175 -1.98512 -2.54545 0
M  V30 2068 H 198.227 -3.70858 -0.846661 0
M  V30 2069 H 199.539 -4.80934 -1.32301 0
M  V30 2070 H 198.693 -4.82451 -3.67867 0
M  V30 2071 H 197.432 -3.63275 -3.25396 0
M  V30 2072 H 196.437 -5.25495 -1.61663 0
M  V30 2073 H 197.662 -6.46843 -2.0681 0
M  V30 2074 H 195.608 -5.24032 -3.94623 0
M  V30 2075 H 195.525 -6.82552 -3.25051 0
M  V30 2076 H 196.793 -6.44907 -4.37853 0
M  V30 2077 N 201.022 0.148545 -1.56898 0
M  V30 2078 C 202.438 0.501131 -1.51528 0
M  V30 2079 C 202.638 1.83458 -0.833399 0
M  V30 2080 O 201.694 2.49259 -0.40328 0
M  V30 2081 C 203.007 0.512864 -2.96294 0
M  V30 2082 C 204.555 0.598487 -3.07225 0
M  V30 2083 C 205.03 0.640897 -4.53494 0
M  V30 2084 N 206.521 0.703163 -4.57832 0
M  V30 2085 C 207.256 0.756935 -5.68382 0
M  V30 2086 N 206.752 0.770147 -6.88506 0
M  V30 2087 N 208.545 0.797698 -5.56411 0
M  V30 2088 H 200.696 -0.725532 -1.99624 0
M  V30 2089 H 202.959 -0.264358 -0.910395 0
M  V30 2090 H 202.665 -0.398691 -3.49433 0
M  V30 2091 H 202.539 1.35133 -3.52163 0
M  V30 2092 H 204.926 1.50046 -2.54106 0
M  V30 2093 H 205.007 -0.267093 -2.54402 0
M  V30 2094 H 204.651 -0.256915 -5.0725 0
M  V30 2095 H 204.581 1.52295 -5.04097 0
M  V30 2096 H 207.072 0.700314 -3.71354 0
M  V30 2097 H 207.385 0.812983 -7.68512 0
M  V30 2098 H 205.73 0.738049 -6.9107 0
M  V30 2099 H 208.921 0.784535 -4.61479 0
M  V30 2100 H 209.094 0.83614 -6.42583 0
M  V30 2101 N 202.5 1.5196 0.417844 0
M  V30 2102 C 203.43 1.77634 1.51554 0
M  V30 2103 C 204.411 0.626918 1.58126 0
M  V30 2104 O 205.596 0.871632 1.7354 0
M  V30 2105 C 202.726 1.91911 2.8946 0
M  V30 2106 C 201.68 3.07463 2.97743 0
M  V30 2107 C 201.006 3.06951 4.37819 0
M  V30 2108 C 202.306 4.47082 2.70027 0
M  V30 2109 H 204 2.6955 1.3032 0
M  V30 2110 H 201.546 1.29706 0.625492 0
M  V30 2111 H 203.499 2.08455 3.6623 0
M  V30 2112 H 202.223 0.966598 3.11969 0
M  V30 2113 H 200.882 2.90656 2.23416 0
M  V30 2114 H 200.53 2.09438 4.57323 0
M  V30 2115 H 200.23 3.84556 4.44286 0
M  V30 2116 H 201.754 3.25613 5.16535 0
M  V30 2117 H 203.168 4.6414 3.36522 0
M  V30 2118 H 201.565 5.2654 2.87881 0
M  V30 2119 H 202.635 4.55777 1.65514 0
M  V30 2120 N 203.978 -0.674533 1.42435 0
M  V30 2121 C 205.225 -1.43459 1.42919 0
M  V30 2122 C 205.553 -1.94446 0.0457312 0
M  V30 2123 O 204.808 -1.7132 -0.94593 0
M  V30 2124 C 205.107 -2.64767 2.40069 0
M  V30 2125 C 204.773 -2.3232 3.86443 0
M  V30 2126 C 203.435 -2.23182 4.26314 0
M  V30 2127 C 205.787 -2.05977 4.78773 0
M  V30 2128 C 203.115 -1.85827 5.56494 0
M  V30 2129 C 205.467 -1.70125 6.09295 0
M  V30 2130 C 204.131 -1.59498 6.48164 0
M  V30 2131 H 203.401 -0.524952 0.522978 0
M  V30 2132 H 206.048 -0.769097 1.75377 0
M  V30 2133 H 204.353 -3.36349 2.00939 0
M  V30 2134 H 206.05 -3.22949 2.37707 0
M  V30 2135 H 202.64 -2.40334 3.54877 0
M  V30 2136 H 206.824 -2.11969 4.48757 0
M  V30 2137 H 202.08 -1.76168 5.8547 0
M  V30 2138 H 206.254 -1.48767 6.80324 0
M  V30 2139 H 203.881 -1.30322 7.48946 0
M  V30 2140 N 205.456 -1.28612 -0.910864 0
M  V30 2141 C 206.684 -1.18792 -1.69399 0
M  V30 2142 C 207.099 0.253039 -1.87097 0
M  V30 2143 O 206.456 1.17071 -1.40003 0
M  V30 2144 C 206.507 -1.88511 -3.08457 0
M  V30 2145 O 206.228 -3.26979 -2.91576 0
M  V30 2146 C 207.729 -1.85029 -4.02839 0
M  V30 2147 H 204.949 -0.412233 -0.529438 0
M  V30 2148 H 207.493 -1.69788 -1.13984 0
M  V30 2149 H 205.648 -1.41379 -3.60681 0
M  V30 2150 H 206.062 -3.61936 -3.79608 0
M  V30 2151 H 207.536 -2.38395 -4.97867 0
M  V30 2152 H 208.013 -0.823303 -4.31414 0
M  V30 2153 H 208.619 -2.31853 -3.56545 0
M  V30 2154 N 206.934 1.1197 -1.10907 0
M  V30 2155 C 207.881 2.17846 -0.762345 0
M  V30 2156 C 208.851 1.63995 0.263599 0
M  V30 2157 O 210.036 1.90273 0.141773 0
M  V30 2158 C 207.176 3.44487 -0.205651 0
M  V30 2159 C 206.289 4.12369 -1.28748 0
M  V30 2160 C 205.424 5.26674 -0.691919 0
M  V30 2161 C 204.463 5.86431 -1.75399 0
M  V30 2162 N 203.6 6.92142 -1.17833 0
M  V30 2163 H 208.44 2.46851 -1.6694 0
M  V30 2164 H 205.977 1.21188 -0.833776 0
M  V30 2165 H 207.935 4.16981 0.135037 0
M  V30 2166 H 206.565 3.15884 0.664613 0
M  V30 2167 H 205.617 3.38003 -1.74522 0
M  V30 2168 H 206.929 4.52844 -2.09125 0
M  V30 2169 H 206.083 6.05953 -0.300963 0
M  V30 2170 H 204.822 4.8749 0.143232 0
M  V30 2171 H 203.827 5.05835 -2.15432 0
M  V30 2172 H 205.052 6.27685 -2.59208 0
M  V30 2173 H 202.998 6.54985 -0.364725 0
M  V30 2174 H 202.915 7.31242 -1.91887 0
M  V30 2175 H 204.183 7.75237 -0.81408 0
M  V30 2176 N 208.412 0.89855 1.29475 0
M  V30 2177 C 209.661 0.519863 1.94885 0
M  V30 2178 C 209.974 -0.9383 1.71625 0
M  V30 2179 O 211.18 -1.42445 2.31131 0
M  V30 2180 C 209.636 0.878836 3.49005 0
M  V30 2181 C 209.244 2.35569 3.81066 0
M  V30 2182 C 210.988 0.570004 4.20656 0
M  V30 2183 C 208.895 2.65558 5.28425 0
M  V30 2184 H 207.825 0.190692 0.729488 0
M  V30 2185 H 210.476 1.09539 1.47219 0
M  V30 2186 H 208.858 0.232253 3.95318 0
M  V30 2187 H 210.032 3.04773 3.45616 0
M  V30 2188 H 208.347 2.63343 3.22552 0
M  V30 2189 H 210.944 0.770925 5.29113 0
M  V30 2190 H 211.287 -0.491404 4.1339 0
M  V30 2191 H 211.82 1.17438 3.8007 0
M  V30 2192 H 208.559 3.70493 5.40754 0
M  V30 2193 H 208.079 2.00977 5.65127 0
M  V30 2194 H 209.758 2.51765 5.96006 0
M  V30 2195 N 209.89 -1.43072 0.660911 0
M  V30 2196 C 211.167 -1.95307 0.107017 0
M  V30 2197 C 211.547 -1.60192 -1.37484 0
M  V30 2198 O 210.895 -0.890949 -2.10415 0
M  V30 2199 C 211.105 -3.47124 0.361402 0
M  V30 2200 C 212.453 -4.23738 0.270455 0
M  V30 2201 O 213.477 -3.54981 0.294382 0
M  V30 2202 O 212.336 -5.46131 0.200737 0
M  V30 2203 H 209.43 -0.826984 -0.00517729 0
M  V30 2204 H 211.976 -1.52972 0.734681 0
M  V30 2205 H 210.748 -3.65837 1.38848 0
M  V30 2206 H 210.371 -3.96475 -0.298953 0
M  V30 2207 N 211.368 -0.403325 -1.52352 0
M  V30 2208 C 212.596 0.174012 -2.06167 0
M  V30 2209 C 213.011 1.39347 -1.27388 0
M  V30 2210 O 212.368 1.79597 -0.324201 0
M  V30 2211 C 212.419 0.530223 -3.5759 0
M  V30 2212 O 212.14 -0.640806 -4.33388 0
M  V30 2213 C 213.641 1.16192 -4.27802 0
M  V30 2214 H 210.861 0.0229464 -0.670608 0
M  V30 2215 H 213.405 -0.572604 -1.9632 0
M  V30 2216 H 211.56 1.22673 -3.67464 0
M  V30 2217 H 211.974 -0.344851 -5.23365 0
M  V30 2218 H 213.448 1.36141 -5.34948 0
M  V30 2219 H 213.925 2.13335 -3.83907 0
M  V30 2220 H 214.531 0.505775 -4.22282 0
M  V30 2221 N 212.846 1.57033 -0.133567 0
M  V30 2222 C 214.095 1.94861 0.520768 0
M  V30 2223 C 214.408 1.02012 1.66892 0
M  V30 2224 O 215.614 1.29365 2.38699 0
M  V30 2225 C 214.07 3.46362 0.977809 0
M  V30 2226 C 213.678 4.47773 -0.142674 0
M  V30 2227 C 215.422 3.93083 1.60269 0
M  V30 2228 C 213.329 5.90468 0.331883 0
M  V30 2229 H 212.259 0.727453 0.198315 0
M  V30 2230 H 214.91 1.82227 -0.215759 0
M  V30 2231 H 213.292 3.54282 1.7692 0
M  V30 2232 H 214.466 4.51536 -0.919317 0
M  V30 2233 H 212.781 4.10891 -0.675124 0
M  V30 2234 H 215.378 4.97121 1.96914 0
M  V30 2235 H 215.721 3.33876 2.48662 0
M  V30 2236 H 216.254 3.88025 0.876453 0
M  V30 2237 H 212.993 6.53463 -0.516341 0
M  V30 2238 H 212.513 5.90094 1.07469 0
M  V30 2239 H 214.192 6.42179 0.788332 0
M  V30 2240 N 214.325 -0.140222 1.56975 0
M  V30 2241 C 215.288 -1.15689 1.97861 0
M  V30 2242 C 216.288 -1.3549 0.865974 0
M  V30 2243 O 217.478 -1.32367 1.13246 0
M  V30 2244 C 214.61 -2.51582 2.30042 0
M  V30 2245 H 215.803 -0.805971 2.88867 0
M  V30 2246 H 213.356 -0.383801 1.51515 0
M  V30 2247 H 214.091 -2.91632 1.41849 0
M  V30 2248 H 213.876 -2.38569 3.11171 0
M  V30 2249 H 215.366 -3.24792 2.62488 0
M  V30 2250 N 215.803 -1.52179 -0.40978 0
M  V30 2251 C 217.214 -1.58377 -0.988615 0
M  V30 2252 C 217.565 -0.423879 -1.91566 0
M  V30 2253 O 216.69 0.455844 -2.11544 0
M  V30 2254 C 217.285 -2.87044 -1.79976 0
M  V30 2255 C 215.844 -2.95722 -2.32863 0
M  V30 2256 C 214.991 -2.53309 -1.12828 0
M  V30 2257 H 217.942 -1.57558 -0.190039 0
M  V30 2258 H 217.963 -2.7236 -2.65707 0
M  V30 2259 H 217.475 -3.71444 -1.12478 0
M  V30 2260 H 215.576 -2.15814 -3.03735 0
M  V30 2261 H 215.689 -3.99951 -2.63773 0
M  V30 2262 H 214.053 -2.07142 -1.48204 0
M  V30 2263 H 214.836 -3.40082 -0.46897 0
M  V30 2264 N 217.281 0.66697 -1.42791 0
M  V30 2265 C 218.558 1.4234 -1.34159 0
M  V30 2266 C 218.938 2.11093 0.0172729 0
M  V30 2267 O 218.286 2.03808 1.03318 0
M  V30 2268 C 218.496 2.41942 -2.51526 0
M  V30 2269 C 219.844 3.06353 -2.93995 0
M  V30 2270 O 220.868 2.52269 -2.51473 0
M  V30 2271 O 219.727 4.04376 -3.67617 0
M  V30 2272 H 216.821 0.635277 -0.529483 0
M  V30 2273 H 219.367 0.695034 -1.54814 0
M  V30 2274 H 218.139 1.89991 -3.42081 0
M  V30 2275 H 217.762 3.22249 -2.32898 0
M  V30 2276 N 218.759 1.29093 0.90403 0
M  V30 2277 C 219.669 1.15727 2.0407 0
M  V30 2278 C 220.685 0.0815308 1.73809 0
M  V30 2279 O 221.861 0.292749 1.99261 0
M  V30 2280 C 218.926 0.830424 3.36608 0
M  V30 2281 C 217.987 1.98955 3.80415 0
M  V30 2282 C 217.22 1.6782 5.06628 0
M  V30 2283 O 217.443 0.597105 5.67266 0
M  V30 2284 O 216.377 2.52486 5.46383 0
M  V30 2285 H 220.203 2.11171 2.18267 0
M  V30 2286 H 217.788 1.08504 1.027 0
M  V30 2287 H 219.67 0.662521 4.16159 0
M  V30 2288 H 218.345 -0.0942678 3.23563 0
M  V30 2289 H 217.252 2.21267 3.01648 0
M  V30 2290 H 218.585 2.89529 3.98037 0
M  V30 2291 N 220.237 -1.11381 1.11499 0
M  V30 2292 C 221.486 -1.82494 0.858993 0
M  V30 2293 C 221.799 -1.85605 -0.617278 0
M  V30 2294 O 223.005 -2.52824 -0.989552 0
M  V30 2295 C 221.461 -3.27745 1.48699 0
M  V30 2296 C 221.069 -3.32961 2.99735 0
M  V30 2297 C 222.813 -4.03754 1.31085 0
M  V30 2298 C 220.72 -4.72612 3.55516 0
M  V30 2299 H 219.65 -0.683802 0.317696 0
M  V30 2300 H 222.301 -1.25331 1.34031 0
M  V30 2301 H 220.683 -3.84844 0.933339 0
M  V30 2302 H 221.857 -2.85741 3.61509 0
M  V30 2303 H 220.172 -2.70433 3.16631 0
M  V30 2304 H 222.769 -5.06891 1.70192 0
M  V30 2305 H 223.112 -4.15527 0.253496 0
M  V30 2306 H 223.645 -3.53043 1.83318 0
M  V30 2307 H 220.384 -4.66036 4.60967 0
M  V30 2308 H 219.904 -5.2024 2.98513 0
M  V30 2309 H 221.583 -5.4157 3.53992 0
M  V30 2310 N 221.715 -0.905404 -1.28997 0
M  V30 2311 C 222.943 -0.549846 -1.9946 0
M  V30 2312 C 223.358 0.866834 -1.67724 0
M  V30 2313 O 222.715 1.57298 -0.925404 0
M  V30 2314 C 222.766 -0.739387 -3.53858 0
M  V30 2315 O 222.487 -2.10031 -3.84472 0
M  V30 2316 C 223.988 -0.389541 -4.41585 0
M  V30 2317 H 221.208 -0.210429 -0.637151 0
M  V30 2318 H 223.752 -1.21632 -1.64396 0
M  V30 2319 H 221.907 -0.120023 -3.87214 0
M  V30 2320 H 222.321 -2.13385 -4.79132 0
M  V30 2321 H 223.795 -0.572972 -5.49018 0
M  V30 2322 H 224.272 0.673756 -4.34001 0
M  V30 2323 H 224.878 -0.986089 -4.1371 0
M  V30 2324 N 223.193 1.4272 -0.668489 0
M  V30 2325 C 224.439 2.01923 -0.188419 0
M  V30 2326 C 224.772 1.52704 1.19979 0
M  V30 2327 O 224.047 0.726566 1.8042 0
M  V30 2328 C 224.33 3.59451 -0.216085 0
M  V30 2329 C 224.183 4.18864 -1.6393 0
M  V30 2330 C 225.502 4.37903 0.439179 0
M  V30 2331 H 222.621 0.733674 -0.0699412 0
M  V30 2332 H 225.263 1.69822 -0.852076 0
M  V30 2333 H 223.413 3.86929 0.349012 0
M  V30 2334 H 225.085 4.02362 -2.25616 0
M  V30 2335 H 223.328 3.74933 -2.18193 0
M  V30 2336 H 223.999 5.27987 -1.61039 0
M  V30 2337 H 226.475 4.16079 -0.0417878 0
M  V30 2338 H 225.351 5.47519 0.389157 0
M  V30 2339 H 225.612 4.15303 1.51577 0
M  V30 2340 N 224.671 0.411399 1.52136 0
M  V30 2341 C 225.896 -0.165538 2.06738 0
M  V30 2342 C 226.321 -1.379 1.27926 0
M  V30 2343 O 225.679 -1.78628 0.310114 0
M  V30 2344 C 225.727 -0.492124 3.57226 0
M  V30 2345 O 224.831 -1.58276 3.80818 0
M  V30 2346 H 224.172 -0.0132132 0.663869 0
M  V30 2347 H 226.702 0.585253 1.96051 0
M  V30 2348 H 226.712 -0.750104 4.01045 0
M  V30 2349 H 225.387 0.394922 4.14021 0
M  V30 2350 H 223.964 -1.31677 3.48877 0
M  V30 2351 N 226.149 -1.5696 0.141893 0
M  V30 2352 C 227.374 -2.00754 -0.520838 0
M  V30 2353 C 227.799 -1.0213 -1.57959 0
M  V30 2354 O 227.157 0.00371324 -1.813 0
M  V30 2355 C 227.205 -3.43318 -1.10294 0
M  V30 2356 O 226.309 -3.47679 -2.21795 0
M  V30 2357 H 225.65 -0.651564 -0.127908 0
M  V30 2358 H 228.18 -2.03221 0.23712 0
M  V30 2359 H 228.19 -3.82012 -1.43287 0
M  V30 2360 H 226.865 -4.14608 -0.327574 0
M  V30 2361 H 225.442 -3.20824 -1.9007 0
M  V30 2362 N 227.627 0.131896 -1.57047 0
M  V30 2363 C 228.904 0.871495 -1.75112 0
M  V30 2364 C 229.284 1.9866 -0.713949 0
M  V30 2365 O 228.632 2.26965 0.264447 0
M  V30 2366 C 228.842 1.40007 -3.19686 0
M  V30 2367 C 230.19 1.85752 -3.81813 0
M  V30 2368 O 231.214 1.49715 -3.23209 0
M  V30 2369 O 230.073 2.5226 -4.84796 0
M  V30 2370 H 227.167 0.412919 -0.716538 0
M  V30 2371 H 229.713 0.116641 -1.69299 0
M  V30 2372 H 228.485 0.599404 -3.86682 0
M  V30 2373 H 228.108 2.218 -3.29986 0
M  V30 2374 N 229.106 1.52395 0.401703 0
M  V30 2375 C 230.353 1.66817 1.14796 0
M  V30 2376 C 230.681 0.401772 1.90305 0
M  V30 2377 O 229.936 -0.615487 1.85769 0
M  V30 2378 C 230.235 2.84578 2.16217 0
M  V30 2379 C 229.901 4.22513 1.5746 0
M  V30 2380 C 228.563 4.60029 1.41161 0
M  V30 2381 C 230.915 5.0844 1.14622 0
M  V30 2382 C 228.243 5.81144 0.80552 0
M  V30 2383 C 230.595 6.30167 0.55428 0
M  V30 2384 C 229.259 6.66426 0.378482 0
M  V30 2385 H 228.529 0.610428 0.420069 0
M  V30 2386 H 231.176 1.86512 0.434212 0
M  V30 2387 H 229.481 2.59248 2.93764 0
M  V30 2388 H 231.178 2.92933 2.73845 0
M  V30 2389 H 227.768 3.92953 1.71132 0
M  V30 2390 H 231.952 4.80034 1.26021 0
M  V30 2391 H 227.208 6.07855 0.657399 0
M  V30 2392 H 231.382 6.96071 0.213983 0
M  V30 2393 H 229.009 7.60143 -0.0932606 0
M  V30 2394 N 230.584 -0.659388 1.43143 0
M  V30 2395 C 231.494 -1.80167 1.50256 0
M  V30 2396 C 232.51 -1.69571 0.390106 0
M  V30 2397 O 233.686 -1.90849 0.643319 0
M  V30 2398 C 230.751 -3.16409 1.41725 0
M  V30 2399 C 229.812 -3.38848 2.63591 0
M  V30 2400 C 229.045 -4.68591 2.55458 0
M  V30 2401 O 229.268 -5.47532 1.59891 0
M  V30 2402 O 228.202 -4.92614 3.45854 0
M  V30 2403 H 232.028 -1.77121 2.46702 0
M  V30 2404 H 229.613 -0.817092 1.25076 0
M  V30 2405 H 231.495 -3.9768 1.39387 0
M  V30 2406 H 230.17 -3.20059 0.484118 0
M  V30 2407 H 229.077 -2.57366 2.71502 0
M  V30 2408 H 230.41 -3.4004 3.55856 0
M  V30 2409 N 232.062 -1.29571 -0.897171 0
M  V30 2410 C 233.025 -1.14913 -1.98312 0
M  V30 2411 C 234.025 -0.0838629 -1.60581 0
M  V30 2412 O 235.215 -0.331006 -1.71026 0
M  V30 2413 C 232.347 -0.757835 -3.3237 0
M  V30 2414 H 233.54 -2.11377 -2.12743 0
M  V30 2415 H 231.093 -1.12793 -1.08201 0
M  V30 2416 H 231.828 0.206837 -3.2364 0
M  V30 2417 H 231.613 -1.52755 -3.61121 0
M  V30 2418 H 233.103 -0.678408 -4.12053 0
M  V30 2419 N 233.54 1.10788 -1.12088 0
M  V30 2420 C 234.956 1.34691 -0.856186 0
M  V30 2421 C 235.156 1.94791 0.515615 0
M  V30 2422 O 234.212 2.18524 1.26505 0
M  V30 2423 C 235.525 2.27208 -1.9697 0
M  V30 2424 C 237.073 2.40755 -2.00016 0
M  V30 2425 C 237.548 3.36598 -3.1059 0
M  V30 2426 N 239.039 3.44164 -3.10008 0
M  V30 2427 C 239.774 4.18284 -3.92206 0
M  V30 2428 N 239.27 4.95322 -4.84384 0
M  V30 2429 N 241.063 4.13865 -3.80357 0
M  V30 2430 H 233.214 0.70144 -2.00483 0
M  V30 2431 H 235.477 0.371405 -0.872217 0
M  V30 2432 H 235.183 1.90251 -2.958 0
M  V30 2433 H 235.057 3.27485 -1.87172 0
M  V30 2434 H 237.444 2.76982 -1.01808 0
M  V30 2435 H 237.525 1.40305 -2.13888 0
M  V30 2436 H 237.169 3.01096 -4.09028 0
M  V30 2437 H 237.099 4.36918 -2.93956 0
M  V30 2438 H 239.59 2.8922 -2.43228 0
M  V30 2439 H 239.903 5.49267 -5.43623 0
M  V30 2440 H 238.248 4.94459 -4.884 0
M  V30 2441 H 241.439 3.52773 -3.07683 0
M  V30 2442 H 241.612 4.71372 -4.44649 0
M  V30 2443 N 235.018 0.912232 1.28515 0
M  V30 2444 C 235.968 0.370649 2.24967 0
M  V30 2445 C 236.952 -0.516375 1.52389 0
M  V30 2446 O 238.144 -0.356345 1.73376 0
M  V30 2447 C 235.273 -0.389526 3.41083 0
M  V30 2448 C 234.359 0.51313 4.20984 0
M  V30 2449 N 234.75 1.62604 4.78951 0
M  V30 2450 C 233.048 0.313235 4.44899 0
M  V30 2451 C 233.749 2.18619 5.39055 0
M  V30 2452 N 232.725 1.47765 5.23132 0
M  V30 2453 H 236.527 1.22061 2.67354 0
M  V30 2454 H 234.041 0.764712 1.43269 0
M  V30 2455 H 236.038 -0.794353 4.09262 0
M  V30 2456 H 234.698 -1.2366 3.0023 0
M  V30 2457 H 235.709 2.00864 4.77362 0
M  V30 2458 H 232.386 -0.494452 4.14562 0
M  V30 2459 H 233.776 3.12228 5.94948 0
M  V30 2460 N 236.496 -1.42363 0.676048 0
M  V30 2461 C 237.742 -2.0182 0.199125 0
M  V30 2462 C 238.075 -1.53339 -1.19168 0
M  V30 2463 O 237.35 -0.736124 -1.80032 0
M  V30 2464 C 237.633 -3.59331 0.235144 0
M  V30 2465 C 237.486 -4.17989 1.66149 0
M  V30 2466 C 238.805 -4.3813 -0.41595 0
M  V30 2467 H 235.924 -0.733293 0.0738311 0
M  V30 2468 H 238.566 -1.69368 0.86107 0
M  V30 2469 H 236.716 -3.87109 -0.328487 0
M  V30 2470 H 238.388 -4.0116 2.27747 0
M  V30 2471 H 236.631 -3.7377 2.20178 0
M  V30 2472 H 237.302 -5.27126 1.63837 0
M  V30 2473 H 239.778 -4.16051 0.0638529 0
M  V30 2474 H 238.654 -5.47717 -0.360115 0
M  V30 2475 H 238.915 -4.16101 -1.49373 0
M  V30 2476 N 237.974 -0.419461 -1.51915 0
M  V30 2477 C 238.921 0.400927 -2.27291 0
M  V30 2478 C 239.891 1.03224 -1.30131 0
M  V30 2479 O 241.076 1.05455 -1.59009 0
M  V30 2480 C 238.216 1.50603 -3.10504 0
M  V30 2481 C 237.329 0.89462 -4.22635 0
M  V30 2482 C 236.464 1.97328 -4.93189 0
M  V30 2483 C 235.503 1.33935 -5.97267 0
M  V30 2484 N 234.64 2.3586 -6.61298 0
M  V30 2485 H 239.48 -0.248251 -2.96964 0
M  V30 2486 H 237.017 -0.134266 -1.46486 0
M  V30 2487 H 238.975 2.15783 -3.57062 0
M  V30 2488 H 237.605 2.12509 -2.42981 0
M  V30 2489 H 236.657 0.131583 -3.80172 0
M  V30 2490 H 237.969 0.391641 -4.9726 0
M  V30 2491 H 237.123 2.70211 -5.43204 0
M  V30 2492 H 235.862 2.50994 -4.18155 0
M  V30 2493 H 234.867 0.595896 -5.46561 0
M  V30 2494 H 236.092 0.810252 -6.74249 0
M  V30 2495 H 234.038 2.88639 -5.89087 0
M  V30 2496 H 233.955 1.90403 -7.3163 0
M  V30 2497 H 235.223 3.08282 -7.15949 0
M  V30 2498 N 239.452 1.56882 -0.150215 0
M  V30 2499 C 240.382 2.19935 0.784284 0
M  V30 2500 C 241.363 1.14854 1.25469 0
M  V30 2501 O 242.548 1.43209 1.31168 0
M  V30 2502 C 239.678 2.82349 2.02229 0
M  V30 2503 C 238.632 3.93285 1.68853 0
M  V30 2504 C 237.958 4.42649 2.99944 0
M  V30 2505 C 239.258 5.13904 0.932714 0
M  V30 2506 H 240.952 2.9828 0.258781 0
M  V30 2507 H 238.498 1.43473 0.123029 0
M  V30 2508 H 240.451 3.25126 2.68088 0
M  V30 2509 H 239.175 2.0134 2.57157 0
M  V30 2510 H 237.834 3.5113 1.05371 0
M  V30 2511 H 237.482 3.58458 3.52869 0
M  V30 2512 H 237.182 5.17476 2.78374 0
M  V30 2513 H 238.706 4.88099 3.66868 0
M  V30 2514 H 240.12 5.53506 1.49345 0
M  V30 2515 H 238.517 5.94515 0.81684 0
M  V30 2516 H 239.587 4.84842 -0.0749568 0
M  V30 2517 N 240.93 -0.123565 1.57115 0
M  V30 2518 C 241.878 -1.17082 2.00984 0
M  V30 2519 C 242.872 -1.43136 0.906009 0
M  V30 2520 O 244.078 -1.43152 1.09121 0
M  V30 2521 H 240.453 -0.394653 0.64012 0
M  V30 2522 H 242.424 -0.774292 2.88179 0
M  V30 2523 C 241.173 -2.49057 2.42623 0
M  V30 2524 H 240.496 -2.29846 3.27125 0
M  V30 2525 H 241.936 -3.20906 2.7712 0
M  V30 2526 C 240.395 -3.11305 1.28805 0
M  V30 2527 O 240.925 -3.97171 0.60153 0
M  V30 2528 N 239.131 -2.71111 1.04628 0
M  V30 2529 H 238.678 -2.01382 1.60634 0
M  V30 2530 H 238.636 -3.1309 0.286685 0
M  V30 2531 N 242.408 -1.52605 -0.393616 0
M  V30 2532 C 243.654 -1.67672 -1.14079 0
M  V30 2533 C 243.987 -0.413121 -1.89755 0
M  V30 2534 O 243.262 0.588952 -1.85369 0
M  V30 2535 C 243.545 -2.9088 -2.12276 0
M  V30 2536 C 243.398 -4.27329 -1.40394 0
M  V30 2537 C 244.717 -3.09628 -3.12759 0
M  V30 2538 H 241.836 -0.610168 -0.413356 0
M  V30 2539 H 244.478 -1.85193 -0.424696 0
M  V30 2540 H 242.628 -2.76073 -2.73342 0
M  V30 2541 H 244.3 -4.53894 -0.82327 0
M  V30 2542 H 242.543 -4.2802 -0.705801 0
M  V30 2543 H 243.214 -5.09615 -2.12123 0
M  V30 2544 H 245.69 -3.23436 -2.61779 0
M  V30 2545 H 244.566 -3.97322 -3.78717 0
M  V30 2546 H 244.827 -2.23637 -3.81365 0
M  V30 2547 N 243.887 0.651787 -1.4349 0
M  V30 2548 C 244.797 1.79368 -1.5121 0
M  V30 2549 C 245.813 1.69361 -0.399093 0
M  V30 2550 O 246.989 1.90505 -0.653431 0
M  V30 2551 C 244.054 3.15653 -1.43401 0
M  V30 2552 C 243.115 3.37446 -2.65384 0
M  V30 2553 C 242.348 4.67229 -2.57939 0
M  V30 2554 O 242.571 5.46676 -1.62792 0
M  V30 2555 O 241.505 4.90773 -3.48462 0
M  V30 2556 H 245.331 1.7581 -2.47638 0
M  V30 2557 H 242.916 0.810447 -1.25507 0
M  V30 2558 H 244.798 3.96935 -1.41494 0
M  V30 2559 H 243.473 3.19798 -0.501085 0
M  V30 2560 H 242.38 2.55923 -2.72863 0
M  V30 2561 H 243.713 3.38148 -3.57654 0
M  V30 2562 N 245.365 1.30045 0.890287 0
M  V30 2563 C 246.275 1.17885 2.02831 0
M  V30 2564 C 247.291 0.0999609 1.73713 0
M  V30 2565 O 248.467 0.313867 1.98939 0
M  V30 2566 C 245.532 0.866079 3.35708 0
M  V30 2567 C 244.593 2.02979 3.78283 0
M  V30 2568 C 243.826 1.73184 5.0482 0
M  V30 2569 O 244.049 0.657237 5.66601 0
M  V30 2570 O 242.983 2.58267 5.43674 0
M  V30 2571 H 246.809 2.13474 2.16015 0
M  V30 2572 H 244.394 1.09587 1.01543 0
M  V30 2573 H 246.276 0.706623 4.15433 0
M  V30 2574 H 244.951 -0.0599443 3.23644 0
M  V30 2575 H 243.858 2.24454 2.99285 0
M  V30 2576 H 245.191 2.93734 3.94944 0
M  V30 2577 N 246.843 -1.10192 1.12674 0
M  V30 2578 C 248.259 -1.34235 0.863317 0
M  V30 2579 C 248.459 -1.95062 -0.505277 0
M  V30 2580 O 247.515 -2.19192 -1.25345 0
M  V30 2581 C 248.828 -2.2616 1.98172 0
M  V30 2582 C 250.376 -2.3969 2.0129 0
M  V30 2583 C 250.851 -3.34946 3.1237 0
M  V30 2584 N 252.342 -3.42515 3.11829 0
M  V30 2585 C 253.077 -4.16199 3.94419 0
M  V30 2586 N 252.573 -4.92747 4.87004 0
M  V30 2587 N 254.366 -4.11843 3.82547 0
M  V30 2588 H 246.517 -0.690798 2.00853 0
M  V30 2589 H 248.78 -0.366774 0.874174 0
M  V30 2590 H 248.486 -1.8868 2.96804 0
M  V30 2591 H 248.36 -3.26488 1.88906 0
M  V30 2592 H 250.747 -2.76438 1.03276 0
M  V30 2593 H 250.828 -1.39169 2.14629 0
M  V30 2594 H 250.472 -2.98923 4.10619 0
M  V30 2595 H 250.402 -4.35353 2.96269 0
M  V30 2596 H 252.893 -2.87926 2.44759 0
M  V30 2597 H 253.206 -5.46376 5.46528 0
M  V30 2598 H 251.551 -4.91862 4.91016 0
M  V30 2599 H 254.742 -3.51136 3.0955 0
M  V30 2600 H 254.915 -4.69007 4.47142 0
M  V30 2601 N 248.321 -0.919034 -1.28029 0
M  V30 2602 C 249.546 -0.570357 -1.99403 0
M  V30 2603 C 249.971 0.842486 -1.68178 0
M  V30 2604 O 249.329 1.56391 -0.917141 0
M  V30 2605 C 249.377 -0.792541 -3.51783 0
M  V30 2606 O 248.481 0.145988 -4.12142 0
M  V30 2607 H 247.822 -0.220555 -0.6263 0
M  V30 2608 H 250.352 -1.23592 -1.63053 0
M  V30 2609 H 250.362 -0.704708 -4.01868 0
M  V30 2610 H 249.037 -1.82247 -3.73844 0
M  V30 2611 H 247.614 0.00897528 -3.72899 0
M  V30 2612 N 249.799 1.42003 -0.683588 0
M  V30 2613 C 251.045 2.01712 -0.209825 0
M  V30 2614 C 251.378 1.53968 1.18353 0
M  V30 2615 O 250.653 0.745661 1.79639 0
M  V30 2616 C 250.936 3.59202 -0.254197 0
M  V30 2617 C 250.789 4.17102 -1.68363 0
M  V30 2618 C 252.108 4.38344 0.392709 0
M  V30 2619 H 249.227 0.732891 -0.0777189 0
M  V30 2620 H 251.869 1.68909 -0.87004 0
M  V30 2621 H 250.019 3.87278 0.307954 0
M  V30 2622 H 251.691 3.99946 -2.29871 0
M  V30 2623 H 249.934 3.72597 -2.22157 0
M  V30 2624 H 250.605 5.26249 -1.6663 0
M  V30 2625 H 253.081 4.16011 -0.0859162 0
M  V30 2626 H 251.957 5.47901 0.331063 0
M  V30 2627 H 252.218 4.16887 1.47164 0
M  V30 2628 N 251.277 0.427512 1.51691 0
M  V30 2629 C 252.525 -0.141948 2.01601 0
M  V30 2630 C 252.846 -1.44067 1.31414 0
M  V30 2631 O 252.116 -1.90763 0.445658 0
M  V30 2632 H 250.696 -0.0554468 0.744939 0
M  V30 2633 H 253.358 0.567968 1.86441 0
M  V30 2634 H 252.454 -0.324913 3.10404 0
M  V30 2635 N 252.755 -1.56801 0.158532 0
M  V30 2636 C 254.166 -1.83189 -0.360366 0
M  V30 2637 C 254.517 -1.07778 -1.63946 0
M  V30 2638 O 253.642 -0.326718 -2.13919 0
M  V30 2639 C 254.237 -3.32297 -0.660595 0
M  V30 2640 C 252.796 -3.59227 -1.12398 0
M  V30 2641 C 251.943 -2.76877 -0.153097 0
M  V30 2642 H 254.894 -1.54008 0.383031 0
M  V30 2643 H 254.915 -3.4908 -1.51405 0
M  V30 2644 H 254.427 -3.87156 0.270527 0
M  V30 2645 H 252.528 -3.09766 -2.07064 0
M  V30 2646 H 252.641 -4.67632 -1.04197 0
M  V30 2647 H 251.005 -2.46319 -0.647983 0
M  V30 2648 H 251.788 -3.34511 0.77182 0
M  V30 2649 N 254.233 0.115231 -1.57178 0
M  V30 2650 C 255.163 1.1423 -2.03651 0
M  V30 2651 C 256.144 1.42967 -0.921655 0
M  V30 2652 O 257.329 1.53343 -1.19162 0
M  V30 2653 C 254.459 2.4675 -2.44401 0
M  V30 2654 C 253.413 2.32467 -3.59365 0
M  V30 2655 C 252.739 3.69984 -3.86026 0
M  V30 2656 C 254.039 1.78203 -4.90959 0
M  V30 2657 H 255.733 0.755749 -2.89705 0
M  V30 2658 H 253.279 0.362093 -1.39373 0
M  V30 2659 H 255.232 3.18854 -2.75517 0
M  V30 2660 H 253.956 2.87302 -1.55322 0
M  V30 2661 H 252.615 1.62811 -3.28463 0
M  V30 2662 H 252.263 4.08028 -2.94147 0
M  V30 2663 H 251.963 3.61279 -4.63412 0
M  V30 2664 H 253.487 4.43587 -4.19599 0
M  V30 2665 H 254.901 2.40128 -5.20587 0
M  V30 2666 H 253.298 1.8031 -5.72371 0
M  V30 2667 H 254.368 0.739876 -4.79222 0
M  V30 2668 N 255.711 1.52812 0.385517 0
M  V30 2669 C 256.939 1.71907 1.15133 0
M  V30 2670 C 257.354 0.439004 1.83625 0
M  V30 2671 O 256.711 -0.586765 1.7281 0
M  V30 2672 C 256.762 2.87099 2.19673 0
M  V30 2673 O 256.483 4.10151 1.53973 0
M  V30 2674 C 257.984 3.17902 3.08955 0
M  V30 2675 H 255.204 0.575479 0.345057 0
M  V30 2676 H 257.748 1.99476 0.45052 0
M  V30 2677 H 255.903 2.61982 2.85384 0
M  V30 2678 H 256.317 4.74514 2.23465 0
M  V30 2679 H 257.791 4.01959 3.7833 0
M  V30 2680 H 258.268 2.3243 3.72657 0
M  V30 2681 H 258.874 3.44871 2.48885 0
M  V30 2682 N 257.189 -0.644168 1.43834 0
M  V30 2683 C 258.605 -0.960875 1.27434 0
M  V30 2684 C 258.805 -2.00499 0.200618 0
M  V30 2685 O 257.861 -2.49018 -0.417906 0
M  V30 2686 C 259.174 -1.43653 2.64167 0
M  V30 2687 C 260.722 -1.55271 2.71772 0
M  V30 2688 C 261.197 -2.06224 4.08944 0
M  V30 2689 N 262.688 -2.13513 4.11055 0
M  V30 2690 C 263.423 -2.54081 5.14033 0
M  V30 2691 N 262.919 -2.9388 6.27381 0
M  V30 2692 N 264.712 -2.54101 5.01387 0
M  V30 2693 H 256.863 0.0465779 2.12349 0
M  V30 2694 H 259.126 -0.0417638 0.94708 0
M  V30 2695 H 258.832 -0.743706 3.43747 0
M  V30 2696 H 258.706 -2.40993 2.90176 0
M  V30 2697 H 261.093 -2.23653 1.92519 0
M  V30 2698 H 261.174 -0.563395 2.49519 0
M  V30 2699 H 260.818 -1.38441 4.88668 0
M  V30 2700 H 260.748 -3.06003 4.28567 0
M  V30 2701 H 263.239 -1.85493 3.29242 0
M  V30 2702 H 263.552 -3.2361 7.01781 0
M  V30 2703 H 261.897 -2.91663 6.30839 0
M  V30 2704 H 265.088 -2.22391 4.11898 0
M  V30 2705 H 265.261 -2.85394 5.81768 0
M  V30 2706 N 258.668 -1.30515 -0.883378 0
M  V30 2707 C 259.615 -1.17032 -1.98927 0
M  V30 2708 C 260.585 -0.0594241 -1.65994 0
M  V30 2709 O 261.77 -0.229895 -1.8941 0
M  V30 2710 C 258.91 -0.869777 -3.33959 0
M  V30 2711 C 258.023 -2.06271 -3.79574 0
M  V30 2712 C 257.158 -1.70011 -5.03259 0
M  V30 2713 C 256.197 -2.8579 -5.41286 0
M  V30 2714 N 255.334 -2.49816 -6.56153 0
M  V30 2715 H 260.174 -2.1164 -2.09792 0
M  V30 2716 H 257.711 -1.05296 -1.02719 0
M  V30 2717 H 259.669 -0.676138 -4.11685 0
M  V30 2718 H 258.299 0.0394332 -3.22776 0
M  V30 2719 H 257.351 -2.36755 -2.97744 0
M  V30 2720 H 258.663 -2.92971 -4.03694 0
M  V30 2721 H 257.817 -1.47032 -5.88614 0
M  V30 2722 H 256.556 -0.804829 -4.81013 0
M  V30 2723 H 255.561 -3.09434 -4.54456 0
M  V30 2724 H 256.786 -3.76008 -5.65504 0
M  V30 2725 H 254.732 -1.62795 -6.35479 0
M  V30 2726 H 254.649 -3.30048 -6.8015 0
M  V30 2727 H 255.917 -2.30197 -7.44735 0
M  V30 2728 N 260.146 1.09593 -1.13257 0
M  V30 2729 C 261.394 1.81375 -0.891492 0
M  V30 2730 C 261.715 1.86049 0.584009 0
M  V30 2731 O 260.985 1.34481 1.42449 0
M  V30 2732 H 259.565 0.671708 -0.326828 0
M  V30 2733 H 262.227 1.3256 -1.42877 0
M  V30 2734 H 261.323 2.84612 -1.28071 0
M  V30 2735 N 261.624 0.925811 1.2754 0
M  V30 2736 C 262.871 0.565255 1.94451 0
M  V30 2737 C 263.199 -0.89316 1.7278 0
M  V30 2738 O 262.454 -1.65213 1.04895 0
M  V30 2739 C 262.753 0.835296 3.47502 0
M  V30 2740 C 262.419 2.27515 3.89291 0
M  V30 2741 C 261.081 2.66879 4.00411 0
M  V30 2742 C 263.433 3.21158 4.10496 0
M  V30 2743 C 260.761 3.99014 4.30122 0
M  V30 2744 C 263.113 4.52871 4.4169 0
M  V30 2745 C 261.777 4.92072 4.51023 0
M  V30 2746 H 261.047 0.206841 0.711546 0
M  V30 2747 H 263.694 1.16942 1.51647 0
M  V30 2748 H 261.999 0.148442 3.91519 0
M  V30 2749 H 263.696 0.535322 3.97411 0
M  V30 2750 H 260.286 1.95976 3.81171 0
M  V30 2751 H 264.47 2.9195 4.01346 0
M  V30 2752 H 259.726 4.2907 4.35556 0
M  V30 2753 H 263.9 5.25436 4.57045 0
M  V30 2754 H 261.527 5.9449 4.738 0
M  V30 2755 N 263.102 -1.41638 0.69111 0
M  V30 2756 C 264.332 -2.0533 0.228758 0
M  V30 2757 C 264.74 -1.52089 -1.12541 0
M  V30 2758 O 264.083 -0.662145 -1.71351 0
M  V30 2759 C 264.145 -3.59349 0.10407 0
M  V30 2760 C 263.809 -4.35362 1.38956 0
M  V30 2761 C 264.806 -4.64942 2.32648 0
M  V30 2762 C 262.491 -4.74714 1.64169 0
M  V30 2763 C 264.485 -5.32828 3.49818 0
M  V30 2764 C 262.172 -5.42338 2.81625 0
M  V30 2765 C 263.17 -5.71322 3.74273 0
M  V30 2766 O 262.858 -6.37554 4.89673 0
M  V30 2767 H 262.59 -0.667796 0.104997 0
M  V30 2768 H 265.144 -1.82477 0.942938 0
M  V30 2769 H 263.374 -3.80924 -0.665839 0
M  V30 2770 H 265.063 -4.04633 -0.320519 0
M  V30 2771 H 265.829 -4.35025 2.14425 0
M  V30 2772 H 261.708 -4.51538 0.929202 0
M  V30 2773 H 265.252 -5.55368 4.22152 0
M  V30 2774 H 261.149 -5.71673 2.99768 0
M  V30 2775 H 261.917 -6.56049 4.8943 0
M  V30 2776 N 264.58 -0.43555 -1.51462 0
M  V30 2777 C 265.51 0.367376 -2.30592 0
M  V30 2778 C 266.491 1.02263 -1.35928 0
M  V30 2779 O 267.676 1.02661 -1.64847 0
M  V30 2780 C 264.806 1.46983 -3.14664 0
M  V30 2781 C 263.76 0.938161 -4.17591 0
M  V30 2782 C 263.086 2.13622 -4.90173 0
M  V30 2783 C 264.386 -0.0261621 -5.22293 0
M  V30 2784 H 266.08 -0.292969 -2.97963 0
M  V30 2785 H 263.626 -0.14234 -1.43295 0
M  V30 2786 H 265.579 2.03873 -3.688 0
M  V30 2787 H 264.303 2.15843 -2.4511 0
M  V30 2788 H 262.962 0.391481 -3.64504 0
M  V30 2789 H 262.61 2.81098 -4.17124 0
M  V30 2790 H 262.31 1.78688 -5.59772 0
M  V30 2791 H 263.834 2.7107 -5.47132 0
M  V30 2792 H 265.248 0.452384 -5.71512 0
M  V30 2793 H 263.645 -0.287992 -5.99409 0
M  V30 2794 H 264.715 -0.963391 -4.75233 0
M  V30 2795 N 266.058 1.56714 -0.166846 0
M  V30 2796 C 267.021 2.16539 0.751232 0
M  V30 2797 C 268.021 1.11228 1.16125 0
M  V30 2798 O 269.211 1.36765 1.07894 0
M  V30 2799 C 266.343 2.74462 2.02196 0
M  V30 2800 H 267.536 2.99013 0.230499 0
M  V30 2801 H 265.089 1.56081 0.0826982 0
M  V30 2802 H 265.824 1.95709 2.58589 0
M  V30 2803 H 265.609 3.51527 1.73698 0
M  V30 2804 H 267.099 3.20489 2.67725 0
M  V30 2805 N 267.536 -0.106894 1.57237 0
M  V30 2806 C 268.783 -0.812526 1.85484 0
M  V30 2807 C 269.111 -1.79304 0.753687 0
M  V30 2808 O 268.366 -1.94047 -0.253853 0
M  V30 2809 C 268.665 -1.58628 3.20268 0
M  V30 2810 C 268.331 -0.748967 4.44636 0
M  V30 2811 C 266.993 -0.518104 4.78403 0
M  V30 2812 C 269.345 -0.166122 5.20935 0
M  V30 2813 C 266.673 0.305659 5.85903 0
M  V30 2814 C 269.025 0.644899 6.29304 0
M  V30 2815 C 267.689 0.885965 6.61594 0
M  V30 2816 H 266.959 -0.297324 0.678734 0
M  V30 2817 H 269.606 -0.0744332 1.91355 0
M  V30 2818 H 267.911 -2.39562 3.10028 0
M  V30 2819 H 269.608 -2.13643 3.39349 0
M  V30 2820 H 266.198 -0.939006 4.18187 0
M  V30 2821 H 270.382 -0.33167 4.95191 0
M  V30 2822 H 265.638 0.501528 6.0934 0
M  V30 2823 H 269.812 1.10345 6.87602 0
M  V30 2824 H 267.439 1.52609 7.44725 0
M  V30 2825 N 269.014 -1.53014 -0.377408 0
M  V30 2826 C 269.946 -1.74884 -1.48149 0
M  V30 2827 C 270.959 -0.629433 -1.5014 0
M  V30 2828 O 272.148 -0.905416 -1.53833 0
M  V30 2829 C 269.248 -1.80299 -2.86959 0
M  V30 2830 C 268.421 -3.09776 -3.08801 0
M  V30 2831 C 267.48 -3.06586 -4.27658 0
M  V30 2832 O 266.506 -3.80419 -4.23403 0
M  V30 2833 N 267.708 -2.26578 -5.34455 0
M  V30 2834 H 270.473 -2.70147 -1.29771 0
M  V30 2835 H 268.034 -1.51646 -0.56703 0
M  V30 2836 H 270.026 -1.75657 -3.64591 0
M  V30 2837 H 268.596 -0.92372 -2.98641 0
M  V30 2838 H 267.816 -3.27815 -2.18931 0
M  V30 2839 H 269.104 -3.95366 -3.20255 0
M  V30 2840 H 268.502 -1.66081 -5.40771 0
M  V30 2841 H 267.059 -2.27766 -6.10709 0
M  V30 2842 N 270.492 0.636531 -1.44174 0
M  V30 2843 C 271.769 1.39463 -1.37148 0
M  V30 2844 C 272.149 2.11082 -0.027507 0
M  V30 2845 O 271.497 2.05954 0.989716 0
M  V30 2846 C 271.707 2.36552 -2.56601 0
M  V30 2847 C 273.055 3.00048 -3.00427 0
M  V30 2848 O 274.079 2.46878 -2.56767 0
M  V30 2849 O 272.938 3.96488 -3.76111 0
M  V30 2850 H 270.032 0.623903 -0.542839 0
M  V30 2851 H 272.578 0.662039 -1.56253 0
M  V30 2852 H 271.35 1.82692 -3.46034 0
M  V30 2853 H 270.973 3.17236 -2.39681 0
M  V30 2854 N 271.97 1.30982 0.876444 0
M  V30 2855 C 273.219 1.19658 1.62373 0
M  V30 2856 C 273.532 -0.245636 1.94052 0
M  V30 2857 O 274.738 -0.48049 2.67214 0
M  V30 2858 C 273.194 2.09433 2.92687 0
M  V30 2859 C 272.802 3.58613 2.68516 0
M  V30 2860 C 274.546 2.06893 3.70669 0
M  V30 2861 C 272.453 4.40416 3.94699 0
M  V30 2862 H 271.383 0.444268 0.609214 0
M  V30 2863 H 274.034 1.55791 0.969605 0
M  V30 2864 H 272.416 1.66191 3.59439 0
M  V30 2865 H 273.59 4.10058 2.10212 0
M  V30 2866 H 271.905 3.63063 2.03898 0
M  V30 2867 H 274.502 2.65258 4.64265 0
M  V30 2868 H 274.845 1.05448 4.02724 0
M  V30 2869 H 275.378 2.48301 3.10792 0
M  V30 2870 H 272.117 5.42591 3.67798 0
M  V30 2871 H 271.637 3.93731 4.52477 0
M  V30 2872 H 273.316 4.52294 4.62644 0
M  V30 2873 N 273.449 -1.08991 1.13837 0
M  V30 2874 C 274.697 -1.80899 0.901098 0
M  V30 2875 C 275.018 -1.86356 -0.574134 0
M  V30 2876 O 274.288 -1.35235 -1.41733 0
M  V30 2877 H 272.868 -0.669966 0.330386 0
M  V30 2878 H 275.53 -1.318 1.43578 0
M  V30 2879 H 274.626 -2.83929 1.29578 0
M  V30 2880 N 274.927 -0.932562 -1.27047 0
M  V30 2881 C 275.89 -0.440064 -2.24936 0
M  V30 2882 C 276.89 0.444071 -1.54547 0
M  V30 2883 O 278.08 0.244465 -1.72476 0
M  V30 2884 C 275.212 0.36678 -3.38921 0
M  V30 2885 H 276.405 -1.305 -2.70018 0
M  V30 2886 H 273.958 -0.713707 -1.39054 0
M  V30 2887 H 274.693 1.25033 -2.99228 0
M  V30 2888 H 274.478 -0.267204 -3.91188 0
M  V30 2889 H 275.968 0.701567 -4.11665 0
M  V30 2890 N 276.405 1.4127 -0.698611 0
M  V30 2891 C 277.645 2.03044 -0.235062 0
M  V30 2892 C 278.009 1.54146 1.14468 0
M  V30 2893 O 279.21 2.07867 1.70425 0
M  V30 2894 C 277.481 3.56192 -0.293651 0
M  V30 2895 S 279.04 4.38696 0.0954053 0
M  V30 2896 H 275.858 0.704697 -0.0944648 0
M  V30 2897 H 278.46 1.72656 -0.917064 0
M  V30 2898 H 277.164 3.89274 -1.29977 0
M  V30 2899 H 276.695 3.91285 0.407397 0
M  V30 2900 H 278.71 4.78257 1.3223 0
M  V30 2901 N 277.883 0.443576 1.51229 0
M  V30 2902 C 279.129 -0.120975 2.02439 0
M  V30 2903 C 279.462 -1.41815 1.32674 0
M  V30 2904 O 278.737 -1.89373 0.443622 0
M  V30 2905 C 279.02 -0.333291 3.58554 0
M  V30 2906 C 278.873 0.982968 4.38928 0
M  V30 2907 C 280.192 -1.10028 4.26124 0
M  V30 2908 H 277.311 -0.0424923 0.735774 0
M  V30 2909 H 279.953 0.583794 1.80809 0
M  V30 2910 H 278.103 -0.933614 3.77115 0
M  V30 2911 H 279.775 1.61775 4.32003 0
M  V30 2912 H 278.018 1.58611 4.03763 0
M  V30 2913 H 278.689 0.788379 5.46341 0
M  V30 2914 H 281.165 -0.591711 4.11871 0
M  V30 2915 H 280.041 -1.21761 5.35225 0
M  V30 2916 H 280.302 -2.12996 3.87408 0
M  V30 2917 N 279.361 -1.56624 0.175154 0
M  V30 2918 C 280.324 -2.16934 -0.739738 0
M  V30 2919 C 281.324 -1.11842 -1.15533 0
M  V30 2920 O 282.514 -1.37335 -1.07167 0
M  V30 2921 C 279.646 -2.75531 -2.00738 0
M  V30 2922 H 280.839 -2.99131 -0.214639 0
M  V30 2923 H 278.392 -1.56123 -0.0744197 0
M  V30 2924 H 279.127 -1.97078 -2.57548 0
M  V30 2925 H 278.912 -3.52444 -1.71831 0
M  V30 2926 H 280.402 -3.21904 -2.66021 0
M  V30 2927 N 280.839 0.0985539 -1.57292 0
M  V30 2928 C 281.769 1.12064 -2.04851 0
M  V30 2929 C 282.75 1.41981 -0.936767 0
M  V30 2930 O 283.935 1.52071 -1.20781 0
M  V30 2931 C 281.065 2.44144 -2.47004 0
M  V30 2932 C 280.019 2.28643 -3.6181 0
M  V30 2933 C 279.345 3.65869 -3.89929 0
M  V30 2934 C 280.645 1.72986 -4.92822 0
M  V30 2935 H 282.339 0.724979 -2.9049 0
M  V30 2936 H 279.885 0.34729 -1.39749 0
M  V30 2937 H 281.838 3.15914 -2.78884 0
M  V30 2938 H 280.562 2.85639 -1.5836 0
M  V30 2939 H 279.221 1.59318 -3.30172 0
M  V30 2940 H 278.869 4.04885 -2.98458 0
M  V30 2941 H 278.569 3.56344 -4.67218 0
M  V30 2942 H 280.093 4.39112 -4.2428 0
M  V30 2943 H 281.507 2.34593 -5.23105 0
M  V30 2944 H 279.904 1.74229 -5.74251 0
M  V30 2945 H 280.974 0.689007 -4.7998 0
M  V30 2946 N 282.317 1.53212 0.369288 0
M  V30 2947 C 283.247 1.82365 1.45826 0
M  V30 2948 C 284.228 0.676907 1.56051 0
M  V30 2949 O 285.413 0.926401 1.70679 0
M  V30 2950 C 282.543 2.01023 2.83208 0
M  V30 2951 C 281.497 3.1678 2.8781 0
M  V30 2952 C 280.823 3.20724 4.27832 0
M  V30 2953 C 282.123 4.55447 2.55667 0
M  V30 2954 H 283.817 2.73559 1.21678 0
M  V30 2955 H 281.363 1.3163 0.583911 0
M  V30 2956 H 283.316 2.20001 3.59413 0
M  V30 2957 H 282.04 1.06536 3.08736 0
M  V30 2958 H 280.699 2.97616 2.14056 0
M  V30 2959 H 280.347 2.23882 4.50429 0
M  V30 2960 H 280.047 3.98496 4.31827 0
M  V30 2961 H 281.571 3.41881 5.05915 0
M  V30 2962 H 282.985 4.74611 3.21586 0
M  V30 2963 H 281.382 5.35432 2.70984 0
M  V30 2964 H 282.452 4.60812 1.5093 0
M  V30 2965 N 283.795 -0.628877 1.44509 0
M  V30 2966 C 285.02 -1.42048 1.5112 0
M  V30 2967 C 285.445 -1.87594 0.137818 0
M  V30 2968 O 284.803 -1.58873 -0.873437 0
M  V30 2969 C 284.851 -2.61541 2.48251 0
M  V30 2970 O 283.955 -3.61453 1.98559 0
M  V30 2971 H 283.296 -0.424942 0.510216 0
M  V30 2972 H 285.826 -0.767374 1.89664 0
M  V30 2973 H 285.836 -3.09057 2.66361 0
M  V30 2974 H 284.511 -2.27736 3.48007 0
M  V30 2975 H 283.088 -3.20731 1.90227 0
M  V30 2976 N 285.273 -1.31445 -0.869486 0
M  V30 2977 C 286.519 -1.21337 -1.62496 0
M  V30 2978 C 286.852 0.227872 -1.92858 0
M  V30 2979 O 286.127 1.16094 -1.56053 0
M  V30 2980 C 286.41 -2.05814 -2.95487 0
M  V30 2981 C 286.263 -3.5824 -2.72 0
M  V30 2982 C 287.582 -1.9079 -3.96594 0
M  V30 2983 H 284.701 -0.442135 -0.589649 0
M  V30 2984 H 287.343 -1.6124 -1.00507 0
M  V30 2985 H 285.493 -1.71913 -3.48394 0
M  V30 2986 H 287.165 -4.0228 -2.25762 0
M  V30 2987 H 285.408 -3.81647 -2.06224 0
M  V30 2988 H 286.079 -4.12657 -3.66631 0
M  V30 2989 H 288.555 -2.20459 -3.52898 0
M  V30 2990 H 287.431 -2.52199 -4.87531 0
M  V30 2991 H 287.692 -0.871341 -4.33428 0
M  V30 2992 N 286.751 1.08385 -1.14413 0
M  V30 2993 C 288.167 1.32844 -0.884563 0
M  V30 2994 C 288.367 1.95841 0.474181 0
M  V30 2995 O 287.423 2.21158 1.21842 0
M  V30 2996 C 288.736 2.22978 -2.01745 0
M  V30 2997 C 290.284 2.36458 -2.05077 0
M  V30 2998 C 290.759 3.29934 -3.1766 0
M  V30 2999 N 292.25 3.37511 -3.17239 0
M  V30 3000 C 292.985 4.09871 -4.0099 0
M  V30 3001 N 292.481 4.84936 -4.94781 0
M  V30 3002 N 294.274 4.05704 -3.89051 0
M  V30 3003 H 286.425 0.658756 -2.01926 0
M  V30 3004 H 288.688 0.352821 -0.879899 0
M  V30 3005 H 288.394 1.83934 -2.99769 0
M  V30 3006 H 288.268 3.23441 -1.94077 0
M  V30 3007 H 290.655 2.7476 -1.0766 0
M  V30 3008 H 290.736 1.35736 -2.16816 0
M  V30 3009 H 290.38 2.92352 -4.15322 0
M  V30 3010 H 290.31 4.30584 -3.03158 0
M  V30 3011 H 292.801 2.83996 -2.49308 0
M  V30 3012 H 293.114 5.37612 -5.55151 0
M  V30 3013 H 291.459 4.83988 -4.98779 0
M  V30 3014 H 294.65 3.46167 -3.15097 0
M  V30 3015 H 294.823 4.61834 -4.54547 0
M  V30 3016 N 288.23 0.939286 1.26551 0
M  V30 3017 C 289.476 0.586715 1.94128 0
M  V30 3018 C 289.809 -0.8717 1.73537 0
M  V30 3019 O 289.084 -1.62339 1.07127 0
M  V30 3020 C 289.367 0.927497 3.4795 0
M  V30 3021 C 289.22 2.44052 3.77834 0
M  V30 3022 C 290.539 0.441569 4.37879 0
M  V30 3023 H 287.658 0.21463 0.705055 0
M  V30 3024 H 290.3 1.17316 1.49455 0
M  V30 3025 H 288.45 0.428431 3.8613 0
M  V30 3026 H 290.122 3.01216 3.4938 0
M  V30 3027 H 288.365 2.8848 3.23978 0
M  V30 3028 H 289.036 2.62947 4.85348 0
M  V30 3029 H 291.512 0.869448 4.06915 0
M  V30 3030 H 290.388 0.708856 5.44304 0
M  V30 3031 H 290.649 -0.658467 4.37169 0
M  V30 3032 N 289.708 -1.40897 0.706093 0
M  V30 3033 C 290.938 -2.05075 0.250523 0
M  V30 3034 C 291.346 -1.53275 -1.10921 0
M  V30 3035 O 290.689 -0.680281 -1.7064 0
M  V30 3036 C 290.751 -3.59219 0.142178 0
M  V30 3037 C 290.415 -4.33864 1.43566 0
M  V30 3038 C 291.412 -4.62448 2.37566 0
M  V30 3039 C 289.097 -4.72946 1.69195 0
M  V30 3040 C 291.091 -5.29088 3.5545 0
M  V30 3041 C 288.778 -5.3932 2.87362 0
M  V30 3042 C 289.776 -5.6732 3.80312 0
M  V30 3043 O 289.464 -6.32325 4.96408 0
M  V30 3044 H 289.196 -0.666645 0.112074 0
M  V30 3045 H 291.75 -1.81467 0.962239 0
M  V30 3046 H 289.98 -3.81609 -0.6254 0
M  V30 3047 H 291.669 -4.0495 -0.277584 0
M  V30 3048 H 292.435 -4.32727 2.19027 0
M  V30 3049 H 288.314 -4.50527 0.977042 0
M  V30 3050 H 291.858 -5.50859 4.28018 0
M  V30 3051 H 287.755 -5.68461 3.05814 0
M  V30 3052 H 288.523 -6.50821 4.9636 0
M  V30 3053 N 291.186 -0.45159 -1.50991 0
M  V30 3054 C 292.416 0.108177 -2.06317 0
M  V30 3055 C 292.824 1.35774 -1.31765 0
M  V30 3056 O 292.167 1.79838 -0.374694 0
M  V30 3057 C 292.229 0.481659 -3.56259 0
M  V30 3058 C 291.893 -0.663114 -4.52163 0
M  V30 3059 C 292.89 -1.53947 -4.96585 0
M  V30 3060 C 290.575 -0.8479 -4.95092 0
M  V30 3061 C 292.569 -2.58518 -5.82621 0
M  V30 3062 C 290.256 -1.89686 -5.80915 0
M  V30 3063 C 291.254 -2.76388 -6.24579 0
M  V30 3064 O 290.942 -3.79482 -7.08695 0
M  V30 3065 H 290.674 0.00499183 -0.675982 0
M  V30 3066 H 293.228 -0.633659 -1.95381 0
M  V30 3067 H 291.458 1.27641 -3.65027 0
M  V30 3068 H 293.147 0.974233 -3.94035 0
M  V30 3069 H 293.913 -1.4083 -4.64103 0
M  V30 3070 H 289.792 -0.18258 -4.60638 0
M  V30 3071 H 293.336 -3.26224 -6.16623 0
M  V30 3072 H 289.233 -2.02817 -6.12809 0
M  V30 3073 H 290.001 -3.76234 -7.26905 0
M  V30 3074 N 292.664 1.56529 -0.183458 0
M  V30 3075 C 293.611 2.18546 0.742055 0
M  V30 3076 C 294.581 1.12912 1.2182 0
M  V30 3077 O 295.766 1.41115 1.28418 0
M  V30 3078 C 292.906 2.83977 1.96089 0
M  V30 3079 C 292.019 4.04105 1.52719 0
M  V30 3080 C 291.154 4.57427 2.70063 0
M  V30 3081 C 290.193 5.69938 2.23243 0
M  V30 3082 N 289.33 6.17717 3.33722 0
M  V30 3083 H 294.17 2.97284 0.206432 0
M  V30 3084 H 291.707 1.46823 0.0901571 0
M  V30 3085 H 293.665 3.20077 2.67594 0
M  V30 3086 H 292.295 2.07822 2.47002 0
M  V30 3087 H 291.347 3.73745 0.708436 0
M  V30 3088 H 292.659 4.85513 1.1436 0
M  V30 3089 H 291.813 4.95772 3.49708 0
M  V30 3090 H 290.552 3.75101 3.11689 0
M  V30 3091 H 289.557 5.31133 1.42048 0
M  V30 3092 H 290.782 6.54073 1.82661 0
M  V30 3093 H 288.728 5.38317 3.74902 0
M  V30 3094 H 288.645 6.94146 2.99495 0
M  V30 3095 H 289.913 6.60713 4.13616 0
M  V30 3096 N 294.142 -0.090211 1.57342 0
M  V30 3097 C 295.089 -1.10909 2.02405 0
M  V30 3098 C 296.059 -1.39523 0.901252 0
M  V30 3099 O 297.244 -1.50903 1.1676 0
M  V30 3100 C 294.384 -2.42277 2.45755 0
M  V30 3101 C 293.497 -2.20352 3.71576 0
M  V30 3102 C 292.632 -3.45154 4.03785 0
M  V30 3103 C 291.671 -3.18512 5.22701 0
M  V30 3104 N 290.808 -4.35593 5.50639 0
M  V30 3105 H 295.648 -0.71782 2.89225 0
M  V30 3106 H 293.185 -0.342901 1.43048 0
M  V30 3107 H 295.143 -3.18951 2.68935 0
M  V30 3108 H 293.773 -2.79242 1.61938 0
M  V30 3109 H 292.825 -1.34458 3.55844 0
M  V30 3110 H 294.137 -1.96661 4.58395 0
M  V30 3111 H 293.291 -4.30233 4.27767 0
M  V30 3112 H 292.03 -3.71904 3.15498 0
M  V30 3113 H 291.035 -2.31827 4.98534 0
M  V30 3114 H 292.26 -2.93103 6.12591 0
M  V30 3115 H 290.206 -4.6241 4.6531 0
M  V30 3116 H 290.123 -4.1511 6.31838 0
M  V30 3117 H 291.391 -5.21723 5.7916 0
M  V30 3118 N 295.62 -1.53406 -0.361157 0
M  V30 3119 C 296.86 -1.71507 -1.11197 0
M  V30 3120 C 297.224 -0.459337 -1.86425 0
M  V30 3121 O 298.425 -0.517102 -2.63779 0
M  V30 3122 C 296.696 -2.93307 -2.0422 0
M  V30 3123 S 298.255 -3.32135 -2.86761 0
M  V30 3124 H 295.073 -0.603448 -0.375995 0
M  V30 3125 H 297.675 -1.91516 -0.392642 0
M  V30 3126 H 296.379 -3.82891 -1.47724 0
M  V30 3127 H 295.91 -2.75712 -2.80618 0
M  V30 3128 H 297.925 -2.84493 -4.06544 0
M  V30 3129 N 297.098 0.621204 -1.44841 0
M  V30 3130 C 298.509 1.20298 -1.42777 0
M  V30 3131 C 298.86 1.95639 -0.148259 0
M  V30 3132 O 297.985 2.02955 0.750892 0
M  V30 3133 C 298.58 2.1882 -2.58657 0
M  V30 3134 C 297.139 2.72403 -2.59756 0
M  V30 3135 C 296.286 1.4757 -2.34773 0
M  V30 3136 H 299.237 0.411297 -1.53278 0
M  V30 3137 H 299.258 3.01607 -2.31977 0
M  V30 3138 H 298.77 1.63957 -3.51766 0
M  V30 3139 H 296.871 3.31242 -1.70615 0
M  V30 3140 H 296.984 3.17765 -3.58556 0
M  V30 3141 H 295.348 1.76051 -1.8406 0
M  V30 3142 H 296.131 0.945954 -3.3001 0
M  V30 3143 N 298.576 1.31904 0.862503 0
M  V30 3144 C 299.486 1.22161 2.00285 0
M  V30 3145 C 300.502 0.136785 1.73462 0
M  V30 3146 O 301.678 0.355994 1.98229 0
M  V30 3147 C 298.743 0.937093 3.33796 0
M  V30 3148 C 297.804 2.10957 3.73893 0
M  V30 3149 C 297.037 1.83853 5.01033 0
M  V30 3150 O 297.26 0.777274 5.65079 0
M  V30 3151 O 296.194 2.69741 5.38074 0
M  V30 3152 H 300.02 2.18008 2.11439 0
M  V30 3153 H 297.605 1.11716 0.991957 0
M  V30 3154 H 299.487 0.794583 4.13841 0
M  V30 3155 H 298.162 0.00871894 3.23699 0
M  V30 3156 H 297.069 2.30752 2.94456 0
M  V30 3157 H 298.402 3.02046 3.88625 0
M  V30 3158 N 300.054 -1.07777 1.14986 0
M  V30 3159 C 300.984 -2.16865 0.865557 0
M  V30 3160 C 301.965 -1.69123 -0.182083 0
M  V30 3161 O 303.15 -1.94164 -0.0373815 0
M  V30 3162 C 300.28 -3.45539 0.349313 0
M  V30 3163 C 299.234 -4.06708 1.33313 0
M  V30 3164 C 298.56 -5.30411 0.675918 0
M  V30 3165 C 299.86 -4.47241 2.69764 0
M  V30 3166 H 301.554 -2.40905 1.77778 0
M  V30 3167 H 299.1 -1.15781 0.856203 0
M  V30 3168 H 301.053 -4.21174 0.137983 0
M  V30 3169 H 299.777 -3.21072 -0.598362 0
M  V30 3170 H 298.436 -3.33112 1.53075 0
M  V30 3171 H 298.084 -5.02232 -0.277767 0
M  V30 3172 H 297.784 -5.72293 1.33244 0
M  V30 3173 H 299.308 -6.08755 0.474262 0
M  V30 3174 H 300.722 -5.14025 2.53873 0
M  V30 3175 H 299.119 -5.00062 3.3175 0
M  V30 3176 H 300.189 -3.58818 3.26156 0
M  V30 3177 N 301.532 -0.945985 -1.26051 0
M  V30 3178 C 302.462 -0.477172 -2.28572 0
M  V30 3179 C 303.443 0.472032 -1.63419 0
M  V30 3180 O 304.628 0.372853 -1.90587 0
M  V30 3181 C 301.758 0.253975 -3.4637 0
M  V30 3182 C 300.712 -0.609135 -4.23643 0
M  V30 3183 C 300.038 0.252252 -5.34105 0
M  V30 3184 C 301.338 -1.8829 -4.8718 0
M  V30 3185 H 303.032 -1.33402 -2.68038 0
M  V30 3186 H 300.578 -0.642904 -1.28852 0
M  V30 3187 H 302.531 0.593016 -4.17207 0
M  V30 3188 H 301.255 1.145 -3.05871 0
M  V30 3189 H 299.914 -0.931138 -3.54578 0
M  V30 3190 H 299.562 1.14278 -4.89846 0
M  V30 3191 H 299.262 -0.32188 -5.86718 0
M  V30 3192 H 300.786 0.586454 -6.07777 0
M  V30 3193 H 302.2 -1.61081 -5.50205 0
M  V30 3194 H 300.597 -2.40199 -5.49931 0
M  V30 3195 H 301.667 -2.59134 -4.09851 0
M  V30 3196 N 303.011 1.40521 -0.713556 0
M  V30 3197 C 303.943 2.29191 -0.0203126 0
M  V30 3198 C 304.956 1.45723 0.725864 0
M  V30 3199 O 306.145 1.69033 0.573581 0
M  V30 3200 C 303.245 3.2395 0.995486 0
M  V30 3201 C 302.418 4.36262 0.315256 0
M  V30 3202 C 301.477 5.11474 1.23616 0
M  V30 3203 O 300.503 5.64606 0.721719 0
M  V30 3204 N 301.705 5.20638 2.56743 0
M  V30 3205 H 304.47 2.89327 -0.781652 0
M  V30 3206 H 302.031 1.51869 -0.561022 0
M  V30 3207 H 304.023 3.71137 1.61368 0
M  V30 3208 H 302.593 2.64995 1.6582 0
M  V30 3209 H 301.813 3.91228 -0.483106 0
M  V30 3210 H 303.101 5.08558 -0.157004 0
M  V30 3211 H 302.499 4.7895 3.01037 0
M  V30 3212 H 301.056 5.71339 3.13712 0
M  V30 3213 N 304.489 0.459591 1.5075 0
M  V30 3214 C 305.737 -0.0991532 2.01857 0
M  V30 3215 C 306.058 -1.41247 1.34441 0
M  V30 3216 O 305.328 -1.89775 0.486022 0
M  V30 3217 H 303.908 -0.039633 0.745948 0
M  V30 3218 H 306.57 0.607387 1.85194 0
M  V30 3219 H 305.666 -0.258998 3.11023 0
M  V30 3220 N 305.967 -1.56429 0.191757 0
M  V30 3221 C 306.897 -2.21937 -0.725696 0
M  V30 3222 C 307.878 -1.1814 -1.2238 0
M  V30 3223 O 309.063 -1.46636 -1.27325 0
M  V30 3224 C 306.193 -2.87611 -1.94672 0
M  V30 3225 C 305.147 -3.97623 -1.58366 0
M  V30 3226 C 304.473 -4.50446 -2.88102 0
M  V30 3227 C 305.773 -5.16197 -0.796133 0
M  V30 3228 H 307.467 -2.98861 -0.179606 0
M  V30 3229 H 305.013 -1.43749 -0.0849464 0
M  V30 3230 H 306.966 -3.3212 -2.59373 0
M  V30 3231 H 305.69 -2.08087 -2.51728 0
M  V30 3232 H 304.349 -3.53801 -0.960247 0
M  V30 3233 H 303.997 -3.67688 -3.43241 0
M  V30 3234 H 303.697 -5.24675 -2.64556 0
M  V30 3235 H 305.221 -4.97654 -3.53798 0
M  V30 3236 H 306.635 -5.57271 -1.34618 0
M  V30 3237 H 305.032 -5.96471 -0.658928 0
M  V30 3238 H 306.102 -4.84473 0.203478 0
M  V30 3239 N 307.445 0.0818655 -1.57387 0
M  V30 3240 C 308.408 1.08265 -2.02018 0
M  V30 3241 C 309.408 1.32183 -0.915664 0
M  V30 3242 O 310.598 1.28073 -1.18081 0
M  V30 3243 C 307.73 2.42871 -2.39221 0
M  V30 3244 H 308.923 0.698204 -2.91659 0
M  V30 3245 H 306.476 0.327303 -1.52835 0
M  V30 3246 H 307.211 2.86167 -1.52575 0
M  V30 3247 H 306.996 2.26855 -3.19811 0
M  V30 3248 H 308.486 3.14826 -2.74362 0
M  V30 3249 N 308.923 1.53595 0.353017 0
M  V30 3250 C 309.873 1.77299 1.43349 0
M  V30 3251 C 310.857 0.627884 1.48143 0
M  V30 3252 O 312.049 0.88697 1.53173 0
M  V30 3253 C 309.178 1.97757 2.80619 0
M  V30 3254 C 308.264 3.18305 2.80254 0
M  V30 3255 N 308.655 4.39967 2.49526 0
M  V30 3256 C 306.953 3.19283 3.11407 0
M  V30 3257 C 307.654 5.21772 2.57156 0
M  V30 3258 N 306.63 4.58269 2.92388 0
M  V30 3259 H 310.432 2.68963 1.18474 0
M  V30 3260 H 307.946 1.52391 0.561306 0
M  V30 3261 H 309.943 2.1287 3.58458 0
M  V30 3262 H 308.603 1.07329 3.06448 0
M  V30 3263 H 309.614 4.67482 2.22893 0
M  V30 3264 H 306.291 2.3879 3.4247 0
M  V30 3265 H 307.681 6.2885 2.36638 0
M  V30 3266 N 310.401 -0.613514 1.45168 0
M  V30 3267 C 311.648 -1.37268 1.48875 0
M  V30 3268 C 311.976 -1.94077 0.128161 0
M  V30 3269 O 311.231 -1.75178 -0.872416 0
M  V30 3270 C 311.53 -2.54347 2.51083 0
M  V30 3271 C 311.196 -2.1572 3.95949 0
M  V30 3272 C 309.858 -2.04899 4.35396 0
M  V30 3273 C 312.21 -1.85485 4.87078 0
M  V30 3274 C 309.538 -1.62057 5.63875 0
M  V30 3275 C 311.89 -1.4413 6.15962 0
M  V30 3276 C 310.554 -1.31863 6.54346 0
M  V30 3277 H 309.824 -0.502299 0.544773 0
M  V30 3278 H 312.471 -0.694021 1.78481 0
M  V30 3279 H 310.776 -3.27524 2.15024 0
M  V30 3280 H 312.473 -3.12577 2.51191 0
M  V30 3281 H 309.063 -2.25066 3.64751 0
M  V30 3282 H 313.247 -1.92745 4.57343 0
M  V30 3283 H 308.503 -1.51177 5.92415 0
M  V30 3284 H 312.677 -1.19778 6.86022 0
M  V30 3285 H 310.304 -0.984392 7.538 0
M  V30 3286 N 311.879 -1.3236 -0.855495 0
M  V30 3287 C 313.29 -1.2056 -1.42556 0
M  V30 3288 C 313.641 0.182209 -1.95352 0
M  V30 3289 O 312.766 1.08088 -1.87472 0
M  V30 3290 C 313.361 -2.1826 -2.59129 0
M  V30 3291 C 311.92 -2.10351 -3.12137 0
M  V30 3292 C 311.067 -2.06674 -1.84882 0
M  V30 3293 H 314.018 -1.442 -0.662727 0
M  V30 3294 H 314.039 -1.78064 -3.36264 0
M  V30 3295 H 313.551 -3.19257 -2.20673 0
M  V30 3296 H 311.652 -1.12599 -3.55179 0
M  V30 3297 H 311.765 -3.00135 -3.73438 0
M  V30 3298 H 310.129 -1.51901 -2.04446 0
M  V30 3299 H 310.912 -3.09451 -1.48643 0
M  V30 3300 N 313.357 1.07166 -1.15556 0
M  V30 3301 C 314.267 2.17947 -0.868116 0
M  V30 3302 C 315.283 1.73297 0.156297 0
M  V30 3303 O 316.459 2.01392 -0.0182327 0
M  V30 3304 C 313.524 3.44789 -0.36355 0
M  V30 3305 C 312.585 4.03996 -1.45209 0
M  V30 3306 C 311.818 5.24783 -0.971508 0
M  V30 3307 O 312.041 5.70109 0.182194 0
M  V30 3308 O 310.975 5.75715 -1.75603 0
M  V30 3309 H 314.801 2.4503 -1.79427 0
M  V30 3310 H 312.386 1.16539 -0.934824 0
M  V30 3311 H 314.268 4.21307 -0.0887113 0
M  V30 3312 H 312.943 3.19253 0.534708 0
M  V30 3313 H 311.85 3.29009 -1.78056 0
M  V30 3314 H 313.183 4.33808 -2.32533 0
M  V30 3315 N 314.835 0.952656 1.25548 0
M  V30 3316 C 316.063 0.623496 1.97282 0
M  V30 3317 C 316.478 -0.803987 1.70826 0
M  V30 3318 O 315.835 -1.53755 0.983147 0
M  V30 3319 C 315.886 0.870209 3.5087 0
M  V30 3320 O 315.607 2.24156 3.76412 0
M  V30 3321 C 317.108 0.553164 4.39835 0
M  V30 3322 H 314.328 0.233931 0.628902 0
M  V30 3323 H 316.872 1.27649 1.59768 0
M  V30 3324 H 315.027 0.263652 3.86502 0
M  V30 3325 H 315.441 2.31021 4.70882 0
M  V30 3326 H 316.915 0.776342 5.46513 0
M  V30 3327 H 317.392 -0.512215 4.36203 0
M  V30 3328 H 317.998 1.13896 4.09766 0
M  V30 3329 N 316.313 -1.40141 0.720998 0
M  V30 3330 C 317.562 -2.0002 0.259804 0
M  V30 3331 C 317.875 -1.57839 -1.15526 0
M  V30 3332 O 319.081 -2.10455 -1.71525 0
M  V30 3333 C 317.537 -3.57516 0.413566 0
M  V30 3334 C 317.145 -4.08667 1.83562 0
M  V30 3335 C 318.889 -4.24498 0.0134387 0
M  V30 3336 C 316.796 -5.58686 1.93968 0
M  V30 3337 H 315.726 -0.748195 0.0933806 0
M  V30 3338 H 318.377 -1.60313 0.892866 0
M  V30 3339 H 316.759 -3.9495 -0.288169 0
M  V30 3340 H 317.933 -3.82598 2.56817 0
M  V30 3341 H 316.248 -3.543 2.1877 0
M  V30 3342 H 318.845 -5.34654 0.0703954 0
M  V30 3343 H 319.188 -4.03375 -1.02927 0
M  V30 3344 H 319.721 -3.92188 0.665815 0
M  V30 3345 H 316.46 -5.8467 2.96379 0
M  V30 3346 H 315.98 -5.86602 1.25131 0
M  V30 3347 H 317.659 -6.23875 1.71431 0
M  V30 3348 N 317.792 -0.46758 -1.50504 0
M  V30 3349 C 318.755 0.317059 -2.26996 0
M  V30 3350 C 319.755 0.923513 -1.31635 0
M  V30 3351 O 320.945 0.793239 -1.55091 0
M  V30 3352 C 318.077 1.45134 -3.08462 0
M  V30 3353 H 319.27 -0.353723 -2.97807 0
M  V30 3354 H 316.823 -0.221545 -1.54722 0
M  V30 3355 H 317.558 2.15728 -2.4214 0
M  V30 3356 H 317.343 1.02232 -3.78538 0
M  V30 3357 H 318.833 2.00493 -3.66323 0
M  V30 3358 N 319.27 1.56325 -0.20005 0
M  V30 3359 C 320.518 1.97329 0.436547 0
M  V30 3360 C 320.839 1.08826 1.61808 0
M  V30 3361 O 320.109 0.160604 1.95241 0
M  V30 3362 H 318.689 0.728714 0.164272 0
M  V30 3363 H 321.351 1.92761 -0.287937 0
M  V30 3364 H 320.447 3.02264 0.777353 0
M  V30 3365 N 320.748 -0.0735177 1.57428 0
M  V30 3366 C 321.973 -0.789787 1.91774 0
M  V30 3367 C 322.398 -1.70413 0.796306 0
M  V30 3368 O 321.756 -1.79555 -0.250961 0
M  V30 3369 C 321.804 -1.5609 3.25067 0
M  V30 3370 O 320.908 -2.67144 3.14178 0
M  V30 3371 H 320.249 -0.215582 0.628029 0
M  V30 3372 H 322.779 -0.0422781 2.04556 0
M  V30 3373 H 322.789 -1.94052 3.58898 0
M  V30 3374 H 321.464 -0.890015 4.06265 0
M  V30 3375 H 320.041 -2.32052 2.91901 0
M  V30 3376 N 322.226 -1.5378 -0.344866 0
M  V30 3377 C 323.503 -1.61589 -1.10219 0
M  V30 3378 C 323.883 -0.436316 -2.06542 0
M  V30 3379 O 323.231 0.571543 -2.21237 0
M  V30 3380 C 323.441 -2.97602 -1.82301 0
M  V30 3381 C 324.789 -3.5291 -2.36093 0
M  V30 3382 O 325.813 -2.99768 -1.924 0
M  V30 3383 O 324.672 -4.45859 -3.16026 0
M  V30 3384 H 321.766 -0.653522 -0.506792 0
M  V30 3385 H 324.312 -1.66126 -0.346465 0
M  V30 3386 H 323.084 -3.74893 -1.12121 0
M  V30 3387 H 322.707 -2.9665 -2.64735 0
M  V30 3388 N 323.704 0.605807 -1.45491 0
M  V30 3389 C 324.667 1.69836 -1.5391 0
M  V30 3390 C 325.667 1.55261 -0.418424 0
M  V30 3391 O 326.857 1.60296 -0.681965 0
M  V30 3392 C 323.989 3.09117 -1.43734 0
M  V30 3393 H 325.182 1.63738 -2.51257 0
M  V30 3394 H 322.735 0.821689 -1.32959 0
M  V30 3395 H 323.47 3.20791 -0.475788 0
M  V30 3396 H 323.255 3.21104 -2.25021 0
M  V30 3397 H 324.745 3.88696 -1.52661 0
M  V30 3398 N 325.182 1.32811 0.848464 0
M  V30 3399 C 326.593 1.21315 1.41914 0
M  V30 3400 C 326.944 -0.171847 1.95446 0
M  V30 3401 O 326.069 -1.07093 1.88043 0
M  V30 3402 C 326.664 2.19631 2.57968 0
M  V30 3403 C 325.223 2.12003 3.11017 0
M  V30 3404 C 324.37 2.07651 1.83783 0
M  V30 3405 H 327.321 1.44549 0.655071 0
M  V30 3406 H 327.342 1.79845 3.35315 0
M  V30 3407 H 326.854 3.20423 2.18976 0
M  V30 3408 H 324.955 1.14481 3.54577 0
M  V30 3409 H 325.068 3.02111 3.71841 0
M  V30 3410 H 323.432 1.52983 2.03638 0
M  V30 3411 H 324.215 3.10235 1.47 0
M  V30 3412 N 326.66 -1.06551 1.16123 0
M  V30 3413 C 327.885 -1.83544 0.965735 0
M  V30 3414 C 328.31 -1.81843 -0.481102 0
M  V30 3415 O 327.668 -1.21732 -1.34354 0
M  V30 3416 C 327.716 -3.28169 1.49457 0
M  V30 3417 O 326.82 -4.0643 0.699157 0
M  V30 3418 H 326.161 -0.568026 0.343864 0
M  V30 3419 H 328.691 -1.34362 1.54299 0
M  V30 3420 H 328.701 -3.78992 1.51092 0
M  V30 3421 H 327.376 -3.28722 2.54784 0
M  V30 3422 H 325.953 -3.65216 0.7531 0
M  V30 3423 N 328.138 -0.959301 -1.25041 0
M  V30 3424 C 329.068 -0.501388 -2.28053 0
M  V30 3425 C 330.049 0.454673 -1.63911 0
M  V30 3426 O 331.234 0.352618 -1.90972 0
M  V30 3427 C 328.364 0.217224 -3.4662 0
M  V30 3428 C 327.318 -0.654034 -4.22973 0
M  V30 3429 C 326.644 0.195589 -5.34342 0
M  V30 3430 C 327.944 -1.93447 -4.85155 0
M  V30 3431 H 329.638 -1.36238 -2.66608 0
M  V30 3432 H 327.184 -0.656534 -1.28163 0
M  V30 3433 H 329.137 0.548732 -4.17812 0
M  V30 3434 H 327.861 1.1125 -3.07068 0
M  V30 3435 H 326.52 -0.968693 -3.5357 0
M  V30 3436 H 326.168 1.09076 -4.91031 0
M  V30 3437 H 325.868 -0.384091 -5.86343 0
M  V30 3438 H 327.392 0.521958 -6.08365 0
M  V30 3439 H 328.806 -1.66908 -5.48466 0
M  V30 3440 H 327.203 -2.46018 -5.47353 0
M  V30 3441 H 328.273 -2.63466 -4.07079 0
M  V30 3442 N 329.616 1.39756 -0.72842 0
M  V30 3443 C 330.579 2.29012 -0.0927297 0
M  V30 3444 C 331.579 1.45992 0.674025 0
M  V30 3445 O 332.769 1.66749 0.50402 0
M  V30 3446 C 329.901 3.29396 0.878137 0
M  V30 3447 H 331.094 2.86729 -0.879011 0
M  V30 3448 H 328.647 1.48293 -0.493847 0
M  V30 3449 H 329.382 2.76722 1.69101 0
M  V30 3450 H 329.167 3.907 0.331051 0
M  V30 3451 H 330.657 3.96199 1.3197 0
M  V30 3452 N 331.094 0.475555 1.50254 0
M  V30 3453 C 332.322 -0.0754493 2.06762 0
M  V30 3454 C 332.737 -1.33111 1.33891 0
M  V30 3455 O 332.094 -1.77846 0.40952 0
M  V30 3456 C 332.145 -0.359008 3.59713 0
M  V30 3457 O 331.866 0.846851 4.29837 0
M  V30 3458 C 333.367 -0.956484 4.32858 0
M  V30 3459 H 330.587 0.00907525 0.670939 0
M  V30 3460 H 333.131 0.665618 1.93364 0
M  V30 3461 H 331.286 -1.05001 3.72899 0
M  V30 3462 H 331.7 0.594162 5.21124 0
M  V30 3463 H 333.174 -1.10463 5.40834 0
M  V30 3464 H 333.651 -1.94775 3.93649 0
M  V30 3465 H 334.257 -0.303723 4.24214 0
M  V30 3466 N 332.573 -1.56217 0.208337 0
M  V30 3467 C 333.819 -1.98242 -0.427552 0
M  V30 3468 C 334.152 -1.09554 -1.60348 0
M  V30 3469 O 333.427 -0.15035 -1.93918 0
M  V30 3470 C 333.71 -3.4931 -0.874907 0
M  V30 3471 C 333.563 -4.48773 0.303751 0
M  V30 3472 C 334.882 -4.04424 -1.73577 0
M  V30 3473 H 332.001 -0.720744 -0.153936 0
M  V30 3474 H 334.643 -1.87586 0.30192 0
M  V30 3475 H 332.793 -3.58522 -1.49648 0
M  V30 3476 H 334.465 -4.51586 0.941682 0
M  V30 3477 H 332.708 -4.23194 0.953375 0
M  V30 3478 H 333.379 -5.51976 -0.0519883 0
M  V30 3479 H 335.855 -3.98075 -1.21143 0
M  V30 3480 H 334.731 -5.1047 -2.01771 0
M  V30 3481 H 334.992 -3.50494 -2.69456 0
M  V30 3482 N 334.051 0.0651679 -1.57465 0
M  V30 3483 C 335.014 1.06117 -2.03155 0
M  V30 3484 C 336.014 1.31204 -0.929632 0
M  V30 3485 O 337.204 1.26813 -1.19432 0
M  V30 3486 C 334.336 2.4032 -2.41783 0
M  V30 3487 H 335.529 0.667231 -2.92383 0
M  V30 3488 H 333.082 0.311075 -1.53173 0
M  V30 3489 H 333.817 2.84532 -1.55601 0
M  V30 3490 H 333.602 2.23451 -3.22199 0
M  V30 3491 H 335.092 3.11898 -2.77685 0
M  V30 3492 N 335.529 1.53961 0.336706 0
M  V30 3493 C 336.777 1.71197 1.07405 0
M  V30 3494 C 337.098 0.481475 1.88962 0
M  V30 3495 O 336.368 -0.504585 1.8929 0
M  V30 3496 H 334.948 0.631185 0.399517 0
M  V30 3497 H 337.61 1.91232 0.376323 0
M  V30 3498 H 336.706 2.58587 1.74755 0
M  V30 3499 N 337.007 -0.598083 1.45811 0
M  V30 3500 C 338.235 -1.38322 1.53866 0
M  V30 3501 C 338.65 -1.87992 0.174479 0
M  V30 3502 O 338.007 -1.62756 -0.825627 0
M  V30 3503 C 338.058 -2.58125 2.53089 0
M  V30 3504 O 337.779 -2.10516 3.84206 0
M  V30 3505 C 339.28 -3.50869 2.70935 0
M  V30 3506 H 336.5 -0.423093 0.520801 0
M  V30 3507 H 339.044 -0.728527 1.91083 0
M  V30 3508 H 337.199 -3.19615 2.18917 0
M  V30 3509 H 337.613 -2.88425 4.38077 0
M  V30 3510 H 339.087 -4.31451 3.44317 0
M  V30 3511 H 339.564 -4.01822 1.77301 0
M  V30 3512 H 340.17 -2.95225 3.06141 0
M  V30 3513 N 338.485 -1.33259 -0.841409 0
M  V30 3514 C 339.725 -1.25902 -1.61022 0
M  V30 3515 C 340.089 0.173325 -1.91216 0
M  V30 3516 O 341.29 0.370824 -2.6623 0
M  V30 3517 C 339.561 -2.10735 -2.88662 0
M  V30 3518 S 341.12 -2.20541 -3.79351 0
M  V30 3519 H 337.938 -0.447958 -0.552137 0
M  V30 3520 H 340.54 -1.68263 -0.995382 0
M  V30 3521 H 339.244 -3.1384 -2.64448 0
M  V30 3522 H 338.775 -1.69201 -3.55154 0
M  V30 3523 H 340.79 -1.36462 -4.77067 0
M  V30 3524 N 339.963 1.05934 -1.16686 0
M  V30 3525 C 341.209 1.79065 -0.95203 0
M  V30 3526 C 341.542 1.87147 0.518629 0
M  V30 3527 O 340.817 1.36574 1.38484 0
M  V30 3528 C 341.1 3.23359 -1.58464 0
M  V30 3529 C 340.953 3.23336 -3.12689 0
M  V30 3530 C 342.272 4.21004 -1.28232 0
M  V30 3531 H 339.391 0.65005 -0.34728 0
M  V30 3532 H 342.033 1.23868 -1.44072 0
M  V30 3533 H 340.183 3.70493 -1.16908 0
M  V30 3534 H 341.855 2.84336 -3.6325 0
M  V30 3535 H 340.098 2.61886 -3.4583 0
M  V30 3536 H 340.769 4.25144 -3.52075 0
M  V30 3537 H 343.245 3.8233 -1.64203 0
M  V30 3538 H 342.121 5.20225 -1.75092 0
M  V30 3539 H 342.382 4.41639 -0.201791 0
M  V30 3540 N 341.441 0.965919 1.2453 0
M  V30 3541 C 342.718 0.543777 1.87889 0
M  V30 3542 C 343.098 -0.97909 1.87021 0
M  V30 3543 O 342.446 -1.84969 1.3416 0
M  V30 3544 C 342.656 1.13327 3.30088 0
M  V30 3545 C 344.004 1.21707 4.06783 0
M  V30 3546 O 345.028 1.08566 3.39252 0
M  V30 3547 O 343.887 1.42456 5.27606 0
M  V30 3548 H 340.981 0.181054 0.806938 0
M  V30 3549 H 343.527 1.06007 1.32516 0
M  V30 3550 H 342.299 2.17612 3.25209 0
M  V30 3551 H 341.922 0.600911 3.93033 0
M  V30 3552 N 342.919 -1.39368 0.735821 0
M  V30 3553 C 343.869 -2.27885 0.0724287 0
M  V30 3554 C 344.853 -1.44301 -0.711756 0
M  V30 3555 O 346.045 -1.67206 -0.58063 0
M  V30 3556 C 343.174 -3.33029 -0.833454 0
M  V30 3557 C 342.26 -4.24078 -0.0433749 0
M  V30 3558 N 342.651 -4.96138 0.983903 0
M  V30 3559 C 340.949 -4.45164 -0.272905 0
M  V30 3560 C 341.65 -5.63069 1.4604 0
M  V30 3561 N 340.626 -5.37991 0.778857 0
M  V30 3562 H 344.428 -2.81052 0.859467 0
M  V30 3563 H 341.942 -1.5206 0.570227 0
M  V30 3564 H 343.939 -3.95311 -1.32419 0
M  V30 3565 H 342.599 -2.81421 -1.61964 0
M  V30 3566 H 343.61 -4.9958 1.36528 0
M  V30 3567 H 340.287 -4.04497 -1.03383 0
M  V30 3568 H 341.677 -6.30755 2.31511 0
M  V30 3569 N 344.397 -0.483516 -1.5 0
M  V30 3570 C 345.36 0.292965 -2.2732 0
M  V30 3571 C 346.36 0.909499 -1.32608 0
M  V30 3572 O 347.55 0.776745 -1.55924 0
M  V30 3573 C 344.682 1.41854 -3.09984 0
M  V30 3574 H 345.875 -0.385289 -2.97415 0
M  V30 3575 H 343.428 -0.237942 -1.54478 0
M  V30 3576 H 344.163 2.13148 -2.44414 0
M  V30 3577 H 343.948 0.982114 -3.79601 0
M  V30 3578 H 345.438 1.96597 -3.68429 0
M  V30 3579 N 345.875 1.56104 -0.216619 0
M  V30 3580 C 347.121 1.98466 0.417033 0
M  V30 3581 C 347.454 1.10403 1.59765 0
M  V30 3582 O 346.729 0.160632 1.93836 0
M  V30 3583 C 347.012 3.49769 0.85637 0
M  V30 3584 C 346.865 4.48606 -0.327546 0
M  V30 3585 C 348.184 4.05339 1.7143 0
M  V30 3586 H 345.303 0.721551 0.150112 0
M  V30 3587 H 347.945 1.87423 -0.311864 0
M  V30 3588 H 346.095 3.5931 1.47745 0
M  V30 3589 H 347.767 4.5108 -0.965618 0
M  V30 3590 H 346.01 4.22682 -0.975805 0
M  V30 3591 H 346.681 5.51995 0.0227149 0
M  V30 3592 H 349.157 3.98712 1.19031 0
M  V30 3593 H 348.033 5.11533 1.99061 0
M  V30 3594 H 348.294 3.51918 2.67593 0
M  V30 3595 N 347.353 -0.0568162 1.57498 0
M  V30 3596 C 348.599 -0.75422 1.88253 0
M  V30 3597 C 348.932 -1.76461 0.810865 0
M  V30 3598 O 348.207 -1.93691 -0.177259 0
M  V30 3599 C 348.49 -1.44878 3.2967 0
M  V30 3600 C 348.343 -0.453789 4.47505 0
M  V30 3601 C 349.662 -2.38994 3.69554 0
M  V30 3602 H 346.781 -0.272724 0.684683 0
M  V30 3603 H 349.423 -0.0172113 1.89992 0
M  V30 3604 H 347.573 -2.077 3.28318 0
M  V30 3605 H 349.245 0.170371 4.60985 0
M  V30 3606 H 347.488 0.229552 4.33192 0
M  V30 3607 H 348.159 -0.977699 5.43273 0
M  V30 3608 H 350.635 -1.86239 3.72095 0
M  V30 3609 H 349.511 -2.84587 4.69363 0
M  V30 3610 H 349.772 -3.24461 3.00296 0
M  V30 3611 N 348.832 -1.54138 -0.328536 0
M  V30 3612 C 350.243 -1.63395 -0.903272 0
M  V30 3613 C 350.594 -0.524828 -1.8905 0
M  V30 3614 O 349.719 0.343068 -2.13663 0
M  V30 3615 C 350.314 -2.9618 -1.64507 0
M  V30 3616 C 348.873 -3.0765 -2.1686 0
M  V30 3617 C 348.02 -2.58933 -0.992416 0
M  V30 3618 H 350.971 -1.58344 -0.106253 0
M  V30 3619 H 350.992 -2.86061 -2.50897 0
M  V30 3620 H 350.504 -3.76884 -0.926302 0
M  V30 3621 H 348.605 -2.31611 -2.91868 0
M  V30 3622 H 348.718 -4.1337 -2.42202 0
M  V30 3623 H 347.082 -2.14706 -1.37016 0
M  V30 3624 H 347.865 -3.42089 -0.288041 0
M  V30 3625 N 350.31 0.590341 -1.46126 0
M  V30 3626 C 351.721 1.17243 -1.45296 0
M  V30 3627 C 352.072 1.95281 -0.189723 0
M  V30 3628 O 351.197 2.04502 0.707674 0
M  V30 3629 C 351.792 2.13284 -2.6324 0
M  V30 3630 C 350.351 2.66832 -2.65476 0
M  V30 3631 C 349.498 1.42557 -2.3785 0
M  V30 3632 H 352.449 0.378692 -1.54116 0
M  V30 3633 H 352.47 2.96619 -2.38323 0
M  V30 3634 H 351.982 1.56459 -3.55165 0
M  V30 3635 H 350.083 3.27548 -1.77603 0
M  V30 3636 H 350.196 3.10088 -3.65215 0
M  V30 3637 H 348.56 1.72107 -1.87753 0
M  V30 3638 H 349.343 0.875741 -3.31942 0
M  V30 3639 N 351.788 1.33704 0.83433 0
M  V30 3640 C 353.036 1.25169 1.58673 0
M  V30 3641 C 353.357 -0.18127 1.94156 0
M  V30 3642 O 352.627 -1.11113 1.6134 0
M  V30 3643 H 351.207 0.4603 0.58833 0
M  V30 3644 H 353.869 1.67478 0.996847 0
M  V30 3645 H 352.965 1.84856 2.51465 0
M  V30 3646 N 353.266 -1.05314 1.17247 0
M  V30 3647 C 354.514 -1.77941 0.958194 0
M  V30 3648 C 354.835 -1.88089 -0.514556 0
M  V30 3649 O 354.105 -1.39676 -1.37359 0
M  V30 3650 H 352.685 -0.659116 0.351533 0
M  V30 3651 H 355.347 -1.27166 1.47699 0
M  V30 3652 H 354.443 -2.79663 1.38546 0
M  V30 3653 N 354.744 -0.972509 -1.24016 0
M  V30 3654 C 355.654 -0.5143 -2.28893 0
M  V30 3655 C 356.67 0.427078 -1.68677 0
M  V30 3656 O 357.846 0.298939 -1.99169 0
M  V30 3657 C 354.911 0.183598 -3.46214 0
M  V30 3658 C 353.972 -0.798202 -4.21814 0
M  V30 3659 C 353.205 -0.133514 -5.33533 0
M  V30 3660 O 353.428 1.07714 -5.60137 0
M  V30 3661 O 352.362 -0.828103 -5.96176 0
M  V30 3662 H 356.188 -1.38629 -2.70214 0
M  V30 3663 H 353.773 -0.739769 -1.29799 0
M  V30 3664 H 355.655 0.575433 -4.17453 0
M  V30 3665 H 354.33 1.03048 -3.0686 0
M  V30 3666 H 353.237 -1.24059 -3.52931 0
M  V30 3667 H 354.57 -1.61364 -4.64997 0
M  V30 3668 N 356.222 1.38976 -0.743202 0
M  V30 3669 C 357.132 2.3434 -0.110399 0
M  V30 3670 C 358.148 1.58741 0.712559 0
M  V30 3671 O 359.324 1.9099 0.639125 0
M  V30 3672 C 356.389 3.37812 0.780012 0
M  V30 3673 C 355.45 4.29263 -0.0561319 0
M  V30 3674 C 354.683 5.27793 0.791875 0
M  V30 3675 O 354.906 5.33043 2.03031 0
M  V30 3676 O 353.84 6.01512 0.216183 0
M  V30 3677 H 357.666 2.90129 -0.897714 0
M  V30 3678 H 355.251 1.40643 -0.503966 0
M  V30 3679 H 357.133 4.01194 1.28923 0
M  V30 3680 H 355.808 2.84395 1.546 0
M  V30 3681 H 354.715 3.69076 -0.611056 0
M  V30 3682 H 356.048 4.85907 -0.784531 0
M  V30 3683 N 357.7 0.491464 1.49741 0
M  V30 3684 C 359.111 0.0413169 1.86654 0
M  V30 3685 C 359.462 -1.36985 1.40462 0
M  V30 3686 O 358.587 -2.01917 0.778354 0
M  V30 3687 C 359.182 0.0682023 3.38731 0
M  V30 3688 C 357.741 -0.32656 3.74981 0
M  V30 3689 C 356.888 0.444888 2.73708 0
M  V30 3690 H 359.839 0.704733 1.42194 0
M  V30 3691 H 359.86 -0.729322 3.73445 0
M  V30 3692 H 359.372 1.09539 3.72321 0
M  V30 3693 H 357.473 -1.35734 3.46997 0
M  V30 3694 H 357.586 -0.013741 4.79098 0
M  V30 3695 H 355.95 -0.104062 2.54487 0
M  V30 3696 H 356.733 1.47197 3.10142 0
M  V30 3697 N 359.178 -1.55987 0.224894 0
M  V30 3698 C 360.594 -1.59066 -0.130426 0
M  V30 3699 C 360.794 -1.24176 -1.5869 0
M  V30 3700 O 359.85 -0.978592 -2.32766 0
M  V30 3701 C 361.163 -3.00042 0.198883 0
M  V30 3702 C 362.711 -3.1268 0.141391 0
M  V30 3703 C 363.186 -4.55839 0.444422 0
M  V30 3704 N 364.677 -4.6152 0.394115 0
M  V30 3705 C 365.412 -5.70231 0.602038 0
M  V30 3706 N 364.908 -6.87291 0.871914 0
M  V30 3707 N 366.701 -5.59555 0.534245 0
M  V30 3708 H 358.852 -1.76941 1.17497 0
M  V30 3709 H 361.115 -0.822604 0.471197 0
M  V30 3710 H 360.821 -3.30234 1.2099 0
M  V30 3711 H 360.695 -3.74075 -0.484535 0
M  V30 3712 H 363.082 -2.82283 -0.860265 0
M  V30 3713 H 363.163 -2.40969 0.858335 0
M  V30 3714 H 362.807 -4.86954 1.44353 0
M  V30 3715 H 362.737 -5.2578 -0.293752 0
M  V30 3716 H 365.228 -3.77405 0.193356 0
M  V30 3717 H 365.541 -7.66058 1.01858 0
M  V30 3718 H 363.886 -6.89028 0.909145 0
M  V30 3719 H 367.077 -4.6698 0.323612 0
M  V30 3720 H 367.25 -6.44211 0.699693 0
M  V30 3721 N 360.656 0.0484629 -1.57525 0
M  V30 3722 C 361.589 1.08755 -2.00618 0
M  V30 3723 C 362.567 1.36272 -0.887058 0
M  V30 3724 O 363.751 1.49255 -1.15131 0
M  V30 3725 C 360.878 2.42675 -2.36277 0
M  V30 3726 C 359.924 2.31142 -3.58435 0
M  V30 3727 S 360.757 1.68326 -5.08357 0
M  V30 3728 C 361.913 3.03776 -5.47239 0
M  V30 3729 H 362.146 0.720415 -2.88439 0
M  V30 3730 H 359.679 0.257801 -1.52233 0
M  V30 3731 H 361.637 3.19699 -2.57494 0
M  V30 3732 H 360.298 2.76541 -1.48942 0
M  V30 3733 H 359.491 3.29957 -3.80978 0
M  V30 3734 H 359.093 1.62258 -3.36969 0
M  V30 3735 H 361.385 4.00106 -5.46737 0
M  V30 3736 H 362.328 2.85988 -6.47778 0
M  V30 3737 H 362.736 3.05456 -4.74718 0
M  V30 3738 N 362.134 1.5431 0.320358 0
M  V30 3739 C 363.084 1.803 1.39556 0
M  V30 3740 C 364.068 0.659166 1.46778 0
M  V30 3741 O 365.26 0.91926 1.51257 0
M  V30 3742 C 362.389 2.03665 2.76361 0
M  V30 3743 C 361.475 3.24178 2.73439 0
M  V30 3744 N 361.866 4.4516 2.40137 0
M  V30 3745 C 360.164 3.25816 3.04565 0
M  V30 3746 C 360.865 5.27109 2.4603 0
M  V30 3747 N 359.841 4.64368 2.82601 0
M  V30 3748 H 363.643 2.71416 1.12742 0
M  V30 3749 H 361.157 1.53548 0.528856 0
M  V30 3750 H 363.154 2.20425 3.53862 0
M  V30 3751 H 361.814 1.13805 3.04103 0
M  V30 3752 H 362.825 4.72104 2.12927 0
M  V30 3753 H 359.502 2.46001 3.37328 0
M  V30 3754 H 360.892 6.33728 2.23246 0
M  V30 3755 N 363.613 -0.582584 1.46437 0
M  V30 3756 C 364.853 -1.35184 1.53312 0
M  V30 3757 C 365.217 -1.9115 0.180508 0
M  V30 3758 O 366.418 -2.68514 0.124017 0
M  V30 3759 C 364.689 -2.45089 2.60127 0
M  V30 3760 S 366.248 -3.32439 2.86408 0
M  V30 3761 H 363.066 -0.460559 0.54167 0
M  V30 3762 H 365.668 -0.669709 1.83671 0
M  V30 3763 H 364.372 -2.02366 3.57038 0
M  V30 3764 H 363.903 -3.18074 2.315 0
M  V30 3765 H 365.918 -4.43924 2.21688 0
M  V30 3766 N 365.091 -1.34144 -0.827227 0
M  V30 3767 C 366.054 -1.25264 -1.91942 0
M  V30 3768 C 367.054 -0.168866 -1.59911 0
M  V30 3769 O 368.244 -0.421198 -1.69031 0
M  V30 3770 C 365.376 -0.932952 -3.27885 0
M  V30 3771 H 366.569 -2.22357 -2.0124 0
M  V30 3772 H 364.122 -1.1837 -1.0207 0
M  V30 3773 H 364.857 0.0349917 -3.24281 0
M  V30 3774 H 364.642 -1.71682 -3.52516 0
M  V30 3775 H 366.132 -0.895874 -4.07877 0
M  V30 3776 N 366.569 1.04691 -1.17803 0
M  V30 3777 C 367.815 1.78045 -0.970969 0
M  V30 3778 C 368.148 1.87686 0.498751 0
M  V30 3779 O 367.423 1.38035 1.37027 0
M  V30 3780 C 367.706 3.2166 -1.61884 0
M  V30 3781 C 367.559 3.20001 -3.161 0
M  V30 3782 C 368.878 4.1962 -1.3269 0
M  V30 3783 H 365.997 0.64633 -0.354155 0
M  V30 3784 H 368.639 1.22333 -1.45378 0
M  V30 3785 H 366.789 3.69232 -1.20831 0
M  V30 3786 H 368.461 2.80467 -3.66246 0
M  V30 3787 H 366.704 2.58203 -3.48588 0
M  V30 3788 H 367.375 4.21386 -3.56564 0
M  V30 3789 H 369.851 3.80567 -1.68249 0
M  V30 3790 H 368.727 5.18339 -1.80599 0
M  V30 3791 H 368.988 4.414 -0.248622 0
M  V30 3792 N 368.047 0.979072 1.23499 0
M  V30 3793 C 369.324 0.563674 1.87302 0
M  V30 3794 C 369.704 -0.959199 1.88049 0
M  V30 3795 O 369.052 -1.83535 1.36114 0
M  V30 3796 C 369.262 1.16822 3.28867 0
M  V30 3797 C 370.61 1.26014 4.0547 0
M  V30 3798 O 371.634 1.12158 3.38082 0
M  V30 3799 O 370.493 1.48044 5.26066 0
M  V30 3800 H 367.587 0.189602 0.804972 0
M  V30 3801 H 370.133 1.07407 1.31384 0
M  V30 3802 H 368.905 2.21049 3.22883 0
M  V30 3803 H 368.528 0.642564 3.92373 0
M  V30 3804 N 369.525 -1.3858 0.750561 0
M  V30 3805 C 370.773 -1.99789 0.30477 0
M  V30 3806 C 371.094 -1.59874 -1.11649 0
M  V30 3807 O 370.364 -0.85417 -1.76297 0
M  V30 3808 H 368.944 -0.738902 0.109694 0
M  V30 3809 H 371.606 -1.69391 0.963983 0
M  V30 3810 H 370.702 -3.09952 0.365499 0
M  V30 3811 N 371.003 -0.499398 -1.49478 0
M  V30 3812 C 371.913 0.284489 -2.32869 0
M  V30 3813 C 372.929 0.968885 -1.44529 0
M  V30 3814 O 374.105 0.95062 -1.77553 0
M  V30 3815 C 371.17 1.33594 -3.19928 0
M  V30 3816 C 370.231 0.665149 -4.24116 0
M  V30 3817 C 369.464 1.6665 -5.07014 0
M  V30 3818 O 369.687 2.89618 -4.91404 0
M  V30 3819 O 368.621 1.22271 -5.8935 0
M  V30 3820 H 372.447 -0.39802 -3.01081 0
M  V30 3821 H 370.032 -0.260758 -1.47107 0
M  V30 3822 H 371.914 1.94431 -3.73864 0
M  V30 3823 H 370.589 2.0014 -2.54412 0
M  V30 3824 H 369.496 0.0170769 -3.74096 0
M  V30 3825 H 370.829 0.0421555 -4.92182 0
M  V30 3826 N 372.481 1.55866 -0.233164 0
M  V30 3827 C 373.727 1.99643 0.389148 0
M  V30 3828 C 374.082 1.11836 1.56558 0
M  V30 3829 O 373.375 0.170848 1.90837 0
M  V30 3830 C 373.569 3.46856 0.861724 0
M  V30 3831 C 373.398 4.48904 -0.267376 0
M  V30 3832 C 372.168 4.99888 -0.737577 0
M  V30 3833 C 374.366 5.02624 -1.08966 0
M  V30 3834 N 372.348 5.8566 -1.84052 0
M  V30 3835 C 373.719 5.85434 -2.04125 0
M  V30 3836 C 375.774 4.84959 -1.12779 0
M  V30 3837 C 374.477 6.52466 -3.02789 0
M  V30 3838 C 376.503 5.52759 -2.10266 0
M  V30 3839 C 375.865 6.35346 -3.04162 0
M  V30 3840 H 371.964 0.774402 0.108742 0
M  V30 3841 H 374.548 1.91572 -0.347596 0
M  V30 3842 H 372.719 3.55352 1.5678 0
M  V30 3843 H 374.451 3.77531 1.45783 0
M  V30 3844 H 371.206 4.7249 -0.324122 0
M  V30 3845 H 371.63 6.33246 -2.39434 0
M  V30 3846 H 376.272 4.20751 -0.415749 0
M  V30 3847 H 373.99 7.15849 -3.74948 0
M  V30 3848 H 377.576 5.41051 -2.13905 0
M  V30 3849 H 376.456 6.86883 -3.78366 0
M  V30 3850 N 373.959 -0.0401083 1.57549 0
M  V30 3851 C 374.889 -1.04384 2.08869 0
M  V30 3852 C 375.87 -1.38407 0.988817 0
M  V30 3853 O 377.055 -1.47483 1.26342 0
M  V30 3854 C 374.185 -2.34808 2.55895 0
M  V30 3855 C 373.139 -2.15057 3.70047 0
M  V30 3856 C 372.465 -3.51145 4.03239 0
M  V30 3857 C 373.765 -1.54576 4.98902 0
M  V30 3858 H 375.459 -0.616666 2.92981 0
M  V30 3859 H 373.005 -0.295184 1.40942 0
M  V30 3860 H 374.958 -3.05346 2.90417 0
M  V30 3861 H 373.682 -2.79565 1.68853 0
M  V30 3862 H 372.341 -1.46954 3.35857 0
M  V30 3863 H 371.989 -3.93529 3.13279 0
M  V30 3864 H 371.689 -3.38758 4.80122 0
M  V30 3865 H 373.213 -4.23062 4.40285 0
M  V30 3866 H 374.627 -2.15017 5.31451 0
M  V30 3867 H 373.024 -1.52796 5.80322 0
M  V30 3868 H 374.094 -0.51039 4.82206 0
M  V30 3869 N 375.437 -1.54477 -0.31217 0
M  V30 3870 C 376.683 -1.73483 -1.0503 0
M  V30 3871 C 377.016 -0.513125 -1.87298 0
M  V30 3872 O 376.291 0.489864 -1.8823 0
M  V30 3873 C 376.574 -3.01723 -1.96558 0
M  V30 3874 C 376.427 -4.3417 -1.17545 0
M  V30 3875 C 377.746 -3.25772 -2.95907 0
M  V30 3876 H 374.865 -0.631222 -0.380432 0
M  V30 3877 H 377.507 -1.87184 -0.325932 0
M  V30 3878 H 375.657 -2.90174 -2.58324 0
M  V30 3879 H 377.329 -4.5762 -0.581513 0
M  V30 3880 H 375.572 -4.31159 -0.477925 0
M  V30 3881 H 376.243 -5.20143 -1.84811 0
M  V30 3882 H 378.719 -3.36857 -2.44267 0
M  V30 3883 H 377.595 -4.16838 -3.57123 0
M  V30 3884 H 377.856 -2.43537 -3.68974 0
M  V30 3885 N 376.915 0.57481 -1.46744 0
M  V30 3886 C 378.326 1.15695 -1.46532 0
M  V30 3887 C 378.677 1.95068 -0.210425 0
M  V30 3888 O 377.802 2.05241 0.685944 0
M  V30 3889 C 378.397 2.1048 -2.65487 0
M  V30 3890 C 376.956 2.64002 -2.68291 0
M  V30 3891 C 376.103 1.40026 -2.39349 0
M  V30 3892 H 379.054 0.362325 -1.54509 0
M  V30 3893 H 379.075 2.94074 -2.41455 0
M  V30 3894 H 378.587 1.52683 -3.56805 0
M  V30 3895 H 376.688 3.25646 -1.81067 0
M  V30 3896 H 376.801 3.06197 -3.68483 0
M  V30 3897 H 375.165 1.70106 -1.89568 0
M  V30 3898 H 375.948 0.840485 -3.32852 0
M  V30 3899 N 378.394 1.34581 0.820102 0
M  V30 3900 C 379.643 1.26437 1.57151 0
M  V30 3901 C 379.956 -0.163111 1.94919 0
M  V30 3902 O 381.162 -0.366722 2.69012 0
M  V30 3903 C 379.618 2.21658 2.83541 0
M  V30 3904 C 379.226 3.69679 2.53065 0
M  V30 3905 C 380.97 2.22428 3.61561 0
M  V30 3906 C 378.877 4.56761 3.75664 0
M  V30 3907 H 377.807 0.469707 0.589823 0
M  V30 3908 H 380.458 1.59763 0.902656 0
M  V30 3909 H 378.84 1.81287 3.52067 0
M  V30 3910 H 380.014 4.18605 1.92631 0
M  V30 3911 H 378.329 3.71384 1.88316 0
M  V30 3912 H 380.926 2.8471 4.52597 0
M  V30 3913 H 381.269 1.22434 3.97889 0
M  V30 3914 H 381.802 2.61259 2.99981 0
M  V30 3915 H 378.541 5.57702 3.44454 0
M  V30 3916 H 378.061 4.12568 4.35371 0
M  V30 3917 H 379.74 4.71509 4.43044 0
M  V30 3918 N 379.872 -1.04064 1.18357 0
M  V30 3919 C 381.12 -1.76915 0.977013 0
M  V30 3920 C 381.441 -1.88624 -0.494577 0
M  V30 3921 O 380.711 -1.41125 -1.3587 0
M  V30 3922 H 379.291 -0.65535 0.358504 0
M  V30 3923 H 381.953 -1.25592 1.49039 0
M  V30 3924 H 381.049 -2.78178 1.41504 0
M  V30 3925 N 381.35 -0.985608 -1.22978 0
M  V30 3926 C 382.282 -0.488154 -2.23941 0
M  V30 3927 C 383.295 0.41282 -1.57479 0
M  V30 3928 O 384.484 0.216121 -1.77187 0
M  V30 3929 C 381.584 0.312611 -3.37455 0
M  V30 3930 C 380.757 -0.582741 -4.33501 0
M  V30 3931 C 379.816 0.165064 -5.25941 0
M  V30 3932 O 378.842 -0.447077 -5.67442 0
M  V30 3933 N 380.044 1.44953 -5.62111 0
M  V30 3934 H 382.809 -1.3563 -2.67254 0
M  V30 3935 H 380.37 -0.859477 -1.37203 0
M  V30 3936 H 382.362 0.821357 -3.96277 0
M  V30 3937 H 380.932 1.0818 -2.93285 0
M  V30 3938 H 380.152 -1.27225 -3.73105 0
M  V30 3939 H 381.44 -1.19275 -4.94622 0
M  V30 3940 H 380.838 1.9683 -5.30353 0
M  V30 3941 H 379.395 1.90361 -6.23383 0
M  V30 3942 N 382.828 1.3818 -0.7579 0
M  V30 3943 C 384.068 2.01864 -0.320968 0
M  V30 3944 C 384.432 1.58863 1.07827 0
M  V30 3945 O 385.633 2.14908 1.61456 0
M  V30 3946 C 383.904 3.54626 -0.44446 0
M  V30 3947 S 385.463 4.38706 -0.0907467 0
M  V30 3948 H 382.281 0.700056 -0.124268 0
M  V30 3949 H 384.883 1.68611 -0.989468 0
M  V30 3950 H 383.587 3.83411 -1.4637 0
M  V30 3951 H 383.118 3.92661 0.241073 0
M  V30 3952 H 385.133 4.83435 1.11826 0
M  V30 3953 N 384.306 0.507319 1.49211 0
M  V30 3954 C 385.236 -0.256939 2.32082 0
M  V30 3955 C 386.217 -0.956609 1.40652 0
M  V30 3956 O 387.402 -0.946788 1.69557 0
M  V30 3957 C 384.532 -1.31802 3.21318 0
M  V30 3958 C 383.486 -0.737855 4.21592 0
M  V30 3959 C 382.812 -1.89992 4.99807 0
M  V30 3960 C 384.112 0.275325 5.21574 0
M  V30 3961 H 385.806 0.434798 2.96226 0
M  V30 3962 H 383.352 0.210546 1.42452 0
M  V30 3963 H 385.305 -1.86045 3.78107 0
M  V30 3964 H 384.029 -2.03903 2.5513 0
M  V30 3965 H 382.688 -0.217126 3.65956 0
M  V30 3966 H 382.336 -2.60877 4.30061 0
M  V30 3967 H 382.036 -1.51777 5.6766 0
M  V30 3968 H 383.56 -2.44657 5.59442 0
M  V30 3969 H 384.974 -0.179193 5.7302 0
M  V30 3970 H 383.371 0.573649 5.97352 0
M  V30 3971 H 384.441 1.18903 4.70096 0
M  V30 3972 N 385.784 -1.5574 0.241426 0
M  V30 3973 C 387.024 -2.00714 -0.38644 0
M  V30 3974 C 387.388 -1.12586 -1.55526 0
M  V30 3975 O 388.589 -1.46992 -2.25048 0
M  V30 3976 C 386.86 -3.48534 -0.791128 0
M  V30 3977 S 388.419 -4.15519 -1.41029 0
M  V30 3978 H 385.237 -0.700484 -0.121834 0
M  V30 3979 H 387.839 -1.92243 0.355377 0
M  V30 3980 H 386.543 -4.10342 0.0689225 0
M  V30 3981 H 386.074 -3.6092 -1.56526 0
M  V30 3982 H 388.089 -4.16352 -2.69936 0
M  V30 3983 N 387.262 0.0317525 -1.57568 0
M  V30 3984 C 388.194 1.06073 -2.03178 0
M  V30 3985 C 389.207 1.32627 -0.944132 0
M  V30 3986 O 390.396 1.30162 -1.22148 0
M  V30 3987 C 387.496 2.40297 -2.38978 0
M  V30 3988 C 386.669 2.33137 -3.70089 0
M  V30 3989 C 385.728 3.49787 -3.9311 0
M  V30 3990 O 384.754 3.29403 -4.64201 0
M  V30 3991 N 385.956 4.71562 -3.38541 0
M  V30 3992 H 388.721 0.672006 -2.92069 0
M  V30 3993 H 386.282 0.219745 -1.60402 0
M  V30 3994 H 388.274 3.1705 -2.51518 0
M  V30 3995 H 386.844 2.71024 -1.55771 0
M  V30 3996 H 386.064 1.415 -3.67928 0
M  V30 3997 H 387.352 2.25493 -4.56104 0
M  V30 3998 H 386.75 4.91024 -2.80912 0
M  V30 3999 H 385.307 5.45689 -3.56464 0
M  V30 4000 N 388.74 1.54641 0.303973 0
M  V30 4001 C 389.703 1.84646 1.35789 0
M  V30 4002 C 390.703 0.7192 1.4382 0
M  V30 4003 O 391.893 0.987491 1.43507 0
M  V30 4004 C 389.025 2.02407 2.74307 0
M  V30 4005 H 390.218 2.78829 1.10429 0
M  V30 4006 H 387.771 1.46658 0.540487 0
M  V30 4007 H 388.506 1.10502 3.04893 0
M  V30 4008 H 388.291 2.84453 2.69868 0
M  V30 4009 H 389.781 2.27002 3.50514 0
M  V30 4010 N 390.218 -0.567019 1.47046 0
M  V30 4011 C 391.466 -1.322 1.52864 0
M  V30 4012 C 391.787 -1.94088 0.188388 0
M  V30 4013 O 391.057 -1.7941 -0.786693 0
M  V30 4014 H 389.637 -0.490894 0.563056 0
M  V30 4015 H 392.299 -0.662879 1.83281 0
M  V30 4016 H 391.395 -2.12062 2.2899 0
M  V30 4017 N 391.696 -1.35014 -0.812953 0
M  V30 4018 C 392.926 -1.30841 -1.59888 0
M  V30 4019 C 393.334 0.117576 -1.88834 0
M  V30 4020 O 392.677 1.07807 -1.48739 0
M  V30 4021 C 392.739 -2.0412 -2.95931 0
M  V30 4022 C 392.403 -3.53336 -2.89832 0
M  V30 4023 C 393.4 -4.48052 -2.63714 0
M  V30 4024 C 391.085 -3.95894 -3.0915 0
M  V30 4025 C 393.079 -5.833 -2.56982 0
M  V30 4026 C 390.766 -5.31239 -3.0204 0
M  V30 4027 C 391.764 -6.24754 -2.75991 0
M  V30 4028 O 391.452 -7.57617 -2.68833 0
M  V30 4029 H 391.184 -0.451215 -0.50337 0
M  V30 4030 H 393.738 -1.78354 -1.01877 0
M  V30 4031 H 391.968 -1.51235 -3.559 0
M  V30 4032 H 393.657 -1.93107 -3.57022 0
M  V30 4033 H 394.423 -4.16492 -2.48515 0
M  V30 4034 H 390.302 -3.23495 -3.28438 0
M  V30 4035 H 393.846 -6.56263 -2.36569 0
M  V30 4036 H 389.743 -5.62415 -3.16796 0
M  V30 4037 H 390.511 -7.67469 -2.84487 0
M  V30 4038 N 393.175 1.03435 -1.18907 0
M  V30 4039 C 394.085 2.15075 -0.937015 0
M  V30 4040 C 395.101 1.73706 0.101085 0
M  V30 4041 O 396.277 2.01232 -0.0822948 0
M  V30 4042 C 393.342 3.43458 -0.473057 0
M  V30 4043 C 392.403 3.99172 -1.57989 0
M  V30 4044 C 391.636 5.21427 -1.13797 0
M  V30 4045 O 391.859 5.704 0.000725941 0
M  V30 4046 O 390.793 5.69837 -1.9383 0
M  V30 4047 H 394.619 2.39198 -1.87131 0
M  V30 4048 H 392.204 1.13506 -0.971427 0
M  V30 4049 H 394.086 4.20811 -0.222702 0
M  V30 4050 H 392.761 3.20793 0.432869 0
M  V30 4051 H 391.668 3.23178 -1.88433 0
M  V30 4052 H 393.001 4.2619 -2.46217 0
M  V30 4053 N 394.653 0.992116 1.22453 0
M  V30 4054 C 395.6 0.541731 2.24352 0
M  V30 4055 C 396.57 -0.425519 1.60557 0
M  V30 4056 O 397.755 -0.330453 1.87917 0
M  V30 4057 C 394.895 -0.138248 3.44823 0
M  V30 4058 C 394.008 0.870649 4.23136 0
M  V30 4059 C 393.143 0.164269 5.30946 0
M  V30 4060 C 392.182 1.16159 6.00977 0
M  V30 4061 N 391.319 0.483568 7.00433 0
M  V30 4062 H 396.159 1.41541 2.62241 0
M  V30 4063 H 393.696 0.709013 1.28885 0
M  V30 4064 H 395.654 -0.5494 4.13567 0
M  V30 4065 H 394.284 -0.975721 3.077 0
M  V30 4066 H 393.336 1.40013 3.53696 0
M  V30 4067 H 394.648 1.63014 4.7141 0
M  V30 4068 H 393.802 -0.303653 6.0594 0
M  V30 4069 H 392.541 -0.627733 4.83643 0
M  V30 4070 H 391.546 1.64015 5.24766 0
M  V30 4071 H 392.771 1.95445 6.50368 0
M  V30 4072 H 390.717 -0.289012 6.55363 0
M  V30 4073 H 390.634 1.18152 7.4671 0
M  V30 4074 H 391.902 0.0384219 7.79491 0
M  V30 4075 N 396.131 -1.37776 0.765217 0
M  V30 4076 C 397.377 -2.00145 0.327072 0
M  V30 4077 C 397.71 -1.60607 -1.09175 0
M  V30 4078 O 396.985 -0.849127 -1.74986 0
M  V30 4079 C 397.268 -3.57109 0.46319 0
M  V30 4080 C 397.121 -4.06576 1.92395 0
M  V30 4081 C 398.44 -4.39888 -0.136473 0
M  V30 4082 H 395.559 -0.727113 0.120316 0
M  V30 4083 H 398.201 -1.63549 0.967039 0
M  V30 4084 H 396.351 -3.88414 -0.0816358 0
M  V30 4085 H 398.023 -3.85864 2.52798 0
M  V30 4086 H 396.266 -3.59011 2.43503 0
M  V30 4087 H 396.937 -5.15639 1.97028 0
M  V30 4088 H 399.413 -4.14803 0.328317 0
M  V30 4089 H 398.289 -5.48899 -0.0110582 0
M  V30 4090 H 398.55 -4.24758 -1.22608 0
M  V30 4091 N 397.609 -0.515225 -1.4894 0
M  V30 4092 C 398.519 0.259774 -2.33157 0
M  V30 4093 C 399.535 0.953501 -1.45548 0
M  V30 4094 O 400.711 0.931735 -1.78552 0
M  V30 4095 C 397.776 1.30193 -3.21326 0
M  V30 4096 C 396.837 0.620129 -4.24797 0
M  V30 4097 C 396.07 1.61263 -5.08753 0
M  V30 4098 O 396.293 2.84389 -4.94448 0
M  V30 4099 O 395.227 1.16013 -5.90614 0
M  V30 4100 H 399.053 -0.429932 -3.00641 0
M  V30 4101 H 396.638 -0.276346 -1.46822 0
M  V30 4102 H 398.52 1.90455 -3.75905 0
M  V30 4103 H 397.195 1.97431 -2.56521 0
M  V30 4104 H 396.102 -0.0226019 -3.74093 0
M  V30 4105 H 397.435 -0.0100493 -4.92199 0
M  V30 4106 N 399.087 1.5561 -0.249682 0
M  V30 4107 C 400.364 1.90932 0.424761 0
M  V30 4108 C 400.744 1.17078 1.75658 0
M  V30 4109 O 400.092 0.289176 2.26663 0
M  V30 4110 C 400.302 3.43975 0.590109 0
M  V30 4111 C 401.65 4.15281 0.884714 0
M  V30 4112 O 402.674 3.49729 0.67587 0
M  V30 4113 O 401.533 5.31236 1.28259 0
M  V30 4114 H 398.627 0.794815 0.228468 0
M  V30 4115 H 401.173 1.67135 -0.293954 0
M  V30 4116 H 399.945 3.89748 -0.34818 0
M  V30 4117 H 399.568 3.73644 1.35926 0
M  V30 4118 N 400.565 -0.0233959 1.57583 0
M  V30 4119 C 401.528 -1.00693 2.05897 0
M  V30 4120 C 402.528 -1.28693 0.964092 0
M  V30 4121 O 403.718 -1.23602 1.22753 0
M  V30 4122 C 400.85 -2.33825 2.4807 0
M  V30 4123 H 402.043 -0.589476 2.9405 0
M  V30 4124 H 399.596 -0.270354 1.53944 0
M  V30 4125 H 400.331 -2.80307 1.6309 0
M  V30 4126 H 400.116 -2.1483 3.2801 0
M  V30 4127 H 401.606 -3.04426 2.85857 0
M  V30 4128 N 402.043 -1.548 -0.295768 0
M  V30 4129 C 403.283 -1.76069 -1.03823 0
M  V30 4130 C 403.647 -0.537992 -1.84309 0
M  V30 4131 O 404.848 -0.628514 -2.61349 0
M  V30 4132 C 403.119 -3.01705 -1.91596 0
M  V30 4133 S 404.678 -3.43998 -2.72416 0
M  V30 4134 H 401.496 -0.618852 -0.350062 0
M  V30 4135 H 404.098 -1.93009 -0.31106 0
M  V30 4136 H 402.802 -3.88812 -1.31351 0
M  V30 4137 H 402.333 -2.87366 -2.68671 0
M  V30 4138 H 404.348 -3.0148 -3.94112 0
M  V30 4139 N 403.521 0.559213 -1.47345 0
M  V30 4140 C 404.453 1.68161 -1.55738 0
M  V30 4141 C 405.466 1.56636 -0.443744 0
M  V30 4142 O 406.655 1.6363 -0.713258 0
M  V30 4143 C 403.755 3.06611 -1.4437 0
M  V30 4144 C 402.928 3.4391 -2.70268 0
M  V30 4145 C 401.987 4.61515 -2.52765 0
M  V30 4146 O 401.013 4.66197 -3.26572 0
M  V30 4147 N 402.215 5.57883 -1.6046 0
M  V30 4148 H 404.98 1.61408 -2.52522 0
M  V30 4149 H 402.541 0.7458 -1.43699 0
M  V30 4150 H 404.533 3.83117 -1.30398 0
M  V30 4151 H 403.103 3.07602 -0.556766 0
M  V30 4152 H 402.323 2.56873 -2.99015 0
M  V30 4153 H 403.611 3.65605 -3.53851 0
M  V30 4154 H 403.009 5.56855 -0.996422 0
M  V30 4155 H 401.566 6.33723 -1.52441 0
M  V30 4156 N 404.999 1.35443 0.805782 0
M  V30 4157 C 405.962 1.28301 1.89925 0
M  V30 4158 C 406.962 0.194285 1.59622 0
M  V30 4159 O 408.152 0.448036 1.6834 0
M  V30 4160 C 405.284 0.984997 3.2636 0
M  V30 4161 H 406.477 2.2553 1.97677 0
M  V30 4162 H 404.03 1.19979 1.00173 0
M  V30 4163 H 404.765 0.016603 3.24296 0
M  V30 4164 H 404.55 1.77269 3.4974 0
M  V30 4165 H 406.04 0.960651 4.064 0
M  V30 4166 N 406.477 -1.02803 1.19454 0
M  V30 4167 C 407.717 -1.77769 1.00883 0
M  V30 4168 C 408.081 -1.86596 -0.45233 0
M  V30 4169 O 409.282 -2.57895 -0.757877 0
M  V30 4170 C 407.553 -3.16486 1.66046 0
M  V30 4171 S 409.112 -4.07632 1.62424 0
M  V30 4172 H 405.93 -0.611949 0.361993 0
M  V30 4173 H 408.532 -1.23175 1.51816 0
M  V30 4174 H 407.236 -3.0768 2.7159 0
M  V30 4175 H 406.767 -3.76156 1.15196 0
M  V30 4176 H 408.782 -4.91937 0.64903 0
M  V30 4177 N 407.956 -0.998596 -1.21925 0
M  V30 4178 C 409.181 -0.696015 -1.95372 0
M  V30 4179 C 409.606 0.733826 -1.73195 0
M  V30 4180 O 408.964 1.50242 -1.01474 0
M  V30 4181 C 409.012 -1.01466 -3.4603 0
M  V30 4182 O 408.116 -0.116415 -4.12236 0
M  V30 4183 H 407.457 -0.259938 -0.611006 0
M  V30 4184 H 409.987 -1.33711 -1.54863 0
M  V30 4185 H 409.997 -0.958855 -3.96573 0
M  V30 4186 H 408.672 -2.05653 -3.61497 0
M  V30 4187 H 407.249 -0.228193 -3.72201 0
M  V30 4188 N 409.434 1.37368 -0.772513 0
M  V30 4189 C 410.845 1.8231 -0.402493 0
M  V30 4190 C 411.196 1.6436 1.07146 0
M  V30 4191 O 410.321 1.15514 1.82991 0
M  V30 4192 C 410.916 3.30979 -0.723776 0
M  V30 4193 C 409.475 3.74195 -0.406802 0
M  V30 4194 C 408.622 2.59885 -0.967218 0
M  V30 4195 H 411.573 1.25829 -0.967099 0
M  V30 4196 H 411.594 3.80499 -0.00870832 0
M  V30 4197 H 411.106 3.44011 -1.7966 0
M  V30 4198 H 409.207 3.66732 0.658673 0
M  V30 4199 H 409.32 4.7027 -0.915588 0
M  V30 4200 H 407.684 2.51674 -0.391416 0
M  V30 4201 H 408.467 2.7571 -2.04546 0
M  V30 4202 N 410.912 0.523116 1.48665 0
M  V30 4203 C 412.16 -0.0134497 2.02096 0
M  V30 4204 C 412.481 -1.35418 1.40311 0
M  V30 4205 O 411.751 -1.87543 0.566074 0
M  V30 4206 H 410.331 -0.00795915 0.746958 0
M  V30 4207 H 412.993 0.685388 1.82451 0
M  V30 4208 H 412.089 -0.126849 3.11842 0
M  V30 4209 N 412.39 -1.55475 0.257931 0
M  V30 4210 C 413.637 -1.99207 -0.363728 0
M  V30 4211 C 413.965 -1.1462 -1.57139 0
M  V30 4212 O 413.22 -0.199653 -1.94679 0
M  V30 4213 C 413.519 -3.48183 -0.806433 0
M  V30 4214 C 413.185 -4.49936 0.294684 0
M  V30 4215 C 411.847 -4.77481 0.597076 0
M  V30 4216 C 414.199 -5.10769 1.03751 0
M  V30 4217 C 411.527 -5.63132 1.64618 0
M  V30 4218 C 413.879 -5.97558 2.07622 0
M  V30 4219 C 412.543 -6.23432 2.38514 0
M  V30 4220 H 411.813 -0.728949 -0.133097 0
M  V30 4221 H 414.46 -1.8793 0.368059 0
M  V30 4222 H 412.765 -3.56848 -1.61761 0
M  V30 4223 H 414.462 -3.79415 -1.29789 0
M  V30 4224 H 411.052 -4.28572 0.0488649 0
M  V30 4225 H 415.236 -4.89527 0.817149 0
M  V30 4226 H 410.492 -5.8143 1.89074 0
M  V30 4227 H 414.666 -6.43735 2.65666 0
M  V30 4228 H 412.293 -6.89594 3.19943 0
M  V30 4229 N 413.868 0.0150385 -1.57593 0
M  V30 4230 C 415.115 0.703001 -1.89906 0
M  V30 4231 C 415.443 1.74604 -0.856944 0
M  V30 4232 O 414.698 1.95197 0.140287 0
M  V30 4233 C 414.997 1.39686 -3.28972 0
M  V30 4234 C 414.663 0.488457 -4.48246 0
M  V30 4235 C 413.325 0.2383 -4.8061 0
M  V30 4236 C 415.677 -0.137881 -5.21018 0
M  V30 4237 C 413.005 -0.646738 -5.83125 0
M  V30 4238 C 415.357 -1.0107 -6.24474 0
M  V30 4239 C 414.021 -1.27019 -6.55303 0
M  V30 4240 H 413.291 0.257246 -0.694914 0
M  V30 4241 H 415.938 -0.037259 -1.91464 0
M  V30 4242 H 414.243 2.21079 -3.23468 0
M  V30 4243 H 415.94 1.93495 -3.51227 0
M  V30 4244 H 412.53 0.693593 -4.22951 0
M  V30 4245 H 416.714 0.0423953 -4.96282 0
M  V30 4246 H 411.97 -0.855937 -6.05379 0
M  V30 4247 H 416.144 -1.50247 -6.79999 0
M  V30 4248 H 413.771 -1.95769 -7.3456 0
M  V30 4249 N 415.346 1.54954 0.287554 0
M  V30 4250 C 416.293 1.86834 1.35505 0
M  V30 4251 C 417.263 0.718452 1.49758 0
M  V30 4252 O 418.448 0.968358 1.644 0
M  V30 4253 C 415.588 2.13303 2.71286 0
M  V30 4254 C 414.701 3.40883 2.65373 0
M  V30 4255 C 413.836 3.57125 3.93236 0
M  V30 4256 C 412.875 4.78449 3.81776 0
M  V30 4257 N 412.012 4.91426 5.01443 0
M  V30 4258 H 416.852 2.77889 1.07619 0
M  V30 4259 H 414.389 1.37593 0.520241 0
M  V30 4260 H 416.347 2.26646 3.50267 0
M  V30 4261 H 414.977 1.25499 2.97405 0
M  V30 4262 H 414.029 3.36088 1.78182 0
M  V30 4263 H 415.341 4.29993 2.52799 0
M  V30 4264 H 414.495 3.70207 4.80658 0
M  V30 4265 H 413.234 2.66173 4.0866 0
M  V30 4266 H 412.239 4.65386 2.92738 0
M  V30 4267 H 413.464 5.70822 3.67884 0
M  V30 4268 H 411.41 4.03401 5.17304 0
M  V30 4269 H 411.327 5.74559 4.91343 0
M  V30 4270 H 412.595 5.08879 5.90477 0
M  V30 4271 N 416.824 -0.551391 1.4764 0
M  V30 4272 C 418.071 -1.3083 1.54563 0
M  V30 4273 C 418.399 -1.93359 0.210361 0
M  V30 4274 O 417.654 -1.78721 -0.797332 0
M  V30 4275 C 417.953 -2.43469 2.61644 0
M  V30 4276 C 417.619 -1.98732 4.04742 0
M  V30 4277 C 416.281 -1.86248 4.43695 0
M  V30 4278 C 418.633 -1.64659 4.94507 0
M  V30 4279 C 415.961 -1.37995 5.70241 0
M  V30 4280 C 418.313 -1.17875 6.21521 0
M  V30 4281 C 416.977 -1.03992 6.5935 0
M  V30 4282 H 416.247 -0.478741 0.565587 0
M  V30 4283 H 418.894 -0.617697 1.81264 0
M  V30 4284 H 417.199 -3.18109 2.28722 0
M  V30 4285 H 418.896 -3.01642 2.64222 0
M  V30 4286 H 415.486 -2.09393 3.73968 0
M  V30 4287 H 419.67 -1.73174 4.65107 0
M  V30 4288 H 414.926 -1.25915 5.98294 0
M  V30 4289 H 419.1 -0.905739 6.90485 0
M  V30 4290 H 416.727 -0.663794 7.57296 0
M  V30 4291 N 418.302 -1.35869 -0.798587 0
M  V30 4292 C 419.212 -1.31578 -1.94228 0
M  V30 4293 C 420.228 -0.21939 -1.72611 0
M  V30 4294 O 421.404 -0.450167 -1.96305 0
M  V30 4295 C 418.469 -1.09528 -3.28944 0
M  V30 4296 C 417.53 -2.28556 -3.63402 0
M  V30 4297 C 416.763 -2.07549 -4.9169 0
M  V30 4298 O 416.986 -1.046 -5.60727 0
M  V30 4299 O 415.92 -2.95106 -5.24591 0
M  V30 4300 H 419.746 -2.27847 -2.00796 0
M  V30 4301 H 417.331 -1.16322 -0.937526 0
M  V30 4302 H 419.213 -0.991127 -4.09579 0
M  V30 4303 H 417.888 -0.16315 -3.23289 0
M  V30 4304 H 416.795 -2.44538 -2.83112 0
M  V30 4305 H 418.128 -3.20244 -3.73771 0
M  V30 4306 N 419.78 1.02168 -1.19998 0
M  V30 4307 C 420.743 2.08765 -0.94604 0
M  V30 4308 C 421.743 1.60618 0.0763846 0
M  V30 4309 O 422.933 1.73472 -0.159135 0
M  V30 4310 C 420.065 3.38262 -0.423255 0
M  V30 4311 H 421.258 2.32726 -1.89153 0
M  V30 4312 H 418.811 1.1889 -1.01464 0
M  V30 4313 H 419.546 3.19974 0.527938 0
M  V30 4314 H 419.331 3.74532 -1.16053 0
M  V30 4315 H 420.821 4.16759 -0.264911 0
M  V30 4316 N 421.258 1.00505 1.21394 0
M  V30 4317 C 422.483 0.706367 1.95001 0
M  V30 4318 C 422.908 -0.72463 1.73582 0
M  V30 4319 O 422.266 -1.49702 1.0227 0
M  V30 4320 C 422.314 1.03299 3.45487 0
M  V30 4321 O 421.418 0.138275 4.12168 0
M  V30 4322 H 420.759 0.263175 0.609619 0
M  V30 4323 H 423.289 1.34531 1.54151 0
M  V30 4324 H 423.299 0.979872 3.96059 0
M  V30 4325 H 421.974 2.07567 3.60401 0
M  V30 4326 H 420.551 0.247928 3.72075 0
M  V30 4327 N 422.737 -1.36956 0.779787 0
M  V30 4328 C 423.647 -2.33965 0.172491 0
M  V30 4329 C 424.663 -1.60574 -0.670222 0
M  V30 4330 O 425.839 -1.92617 -0.588263 0
M  V30 4331 C 422.904 -3.39761 -0.690173 0
M  V30 4332 C 421.965 -4.28964 0.169924 0
M  V30 4333 C 421.198 -5.29707 -0.651662 0
M  V30 4334 O 421.421 -5.38238 -1.88827 0
M  V30 4335 O 420.355 -6.01873 -0.0566264 0
M  V30 4336 H 424.181 -2.87647 0.974321 0
M  V30 4337 H 421.766 -1.39258 0.541078 0
M  V30 4338 H 423.648 -4.04471 -1.1824 0
M  V30 4339 H 422.323 -2.88394 -1.47006 0
M  V30 4340 H 421.23 -3.67326 0.708696 0
M  V30 4341 H 422.563 -4.83656 0.913085 0
M  V30 4342 N 424.215 -0.530993 -1.48385 0
M  V30 4343 C 425.44 0.000729535 -2.074 0
M  V30 4344 C 425.865 1.27298 -1.3848 0
M  V30 4345 O 425.223 1.75599 -0.451081 0
M  V30 4346 C 425.271 0.206697 -3.60007 0
M  V30 4347 O 424.375 1.27514 -3.92191 0
M  V30 4348 H 423.716 -0.039583 -0.662819 0
M  V30 4349 H 426.246 -0.739194 -1.9078 0
M  V30 4350 H 426.256 0.42904 -4.05738 0
M  V30 4351 H 424.931 -0.722675 -4.09573 0
M  V30 4352 H 423.508 1.03537 -3.58238 0
M  V30 4353 N 425.693 1.55336 -0.266172 0
M  V30 4354 C 427.104 1.85236 0.233315 0
M  V30 4355 C 427.455 1.18816 1.56132 0
M  V30 4356 O 426.58 0.473307 2.11161 0
M  V30 4357 C 427.175 3.36059 0.430113 0
M  V30 4358 C 425.734 3.66116 0.873842 0
M  V30 4359 C 424.881 2.77274 -0.0380016 0
M  V30 4360 H 427.832 1.51004 -0.488214 0
M  V30 4361 H 427.853 3.58681 1.26998 0
M  V30 4362 H 427.365 3.84373 -0.536588 0
M  V30 4363 H 425.466 3.23295 1.85233 0
M  V30 4364 H 425.579 4.73699 0.717358 0
M  V30 4365 H 423.943 2.50198 0.476759 0
M  V30 4366 H 424.726 3.284 -1.00042 0
M  V30 4367 N 427.171 -0.0066808 1.57599 0
M  V30 4368 C 428.411 -0.697501 1.92131 0
M  V30 4369 C 428.775 -1.71306 0.867071 0
M  V30 4370 O 429.976 -2.45377 1.09743 0
M  V30 4371 C 428.247 -1.32978 3.3174 0
M  V30 4372 S 429.806 -2.04665 3.88146 0
M  V30 4373 H 426.624 -0.230555 0.672581 0
M  V30 4374 H 429.226 0.0484026 1.9544 0
M  V30 4375 H 427.93 -0.57772 4.06313 0
M  V30 4376 H 427.461 -2.11376 3.31789 0
M  V30 4377 H 429.476 -3.32097 3.68682 0
M  V30 4378 N 428.649 -1.55105 -0.279332 0
M  V30 4379 C 429.579 -1.90557 -1.34945 0
M  V30 4380 C 430.56 -0.766738 -1.51839 0
M  V30 4381 O 431.745 -1.02434 -1.64988 0
M  V30 4382 C 428.875 -2.17193 -2.71006 0
M  V30 4383 C 427.829 -3.33021 -2.68851 0
M  V30 4384 C 427.155 -3.45123 -4.08405 0
M  V30 4385 C 428.455 -4.69578 -2.28678 0
M  V30 4386 H 430.149 -2.80188 -1.05522 0
M  V30 4387 H 427.695 -1.34811 -0.506173 0
M  V30 4388 H 429.648 -2.40581 -3.45975 0
M  V30 4389 H 428.372 -1.24355 -3.01999 0
M  V30 4390 H 427.031 -3.0959 -1.9634 0
M  V30 4391 H 426.679 -2.49762 -4.3661 0
M  V30 4392 H 426.379 -4.22995 -4.07859 0
M  V30 4393 H 427.903 -3.70796 -4.85121 0
M  V30 4394 H 429.317 -4.92553 -2.93368 0
M  V30 4395 H 427.714 -5.5032 -2.39306 0
M  V30 4396 H 428.784 -4.68828 -1.23807 0
M  V30 4397 N 430.127 0.543554 -1.4793 0
M  V30 4398 C 431.037 1.67657 -1.64098 0
M  V30 4399 C 432.053 1.65934 -0.523622 0
M  V30 4400 O 433.229 1.85133 -0.792943 0
M  V30 4401 C 430.294 3.04146 -1.66421 0
M  V30 4402 C 429.355 3.16831 -2.89684 0
M  V30 4403 C 428.588 4.46809 -2.91886 0
M  V30 4404 O 428.811 5.33095 -2.02895 0
M  V30 4405 O 427.745 4.63573 -3.83906 0
M  V30 4406 H 431.571 1.56957 -2.59997 0
M  V30 4407 H 429.156 0.715116 -1.31173 0
M  V30 4408 H 431.038 3.85346 -1.70548 0
M  V30 4409 H 429.713 3.152 -0.736923 0
M  V30 4410 H 428.62 2.34977 -2.91095 0
M  V30 4411 H 429.953 3.10687 -3.81752 0
M  V30 4412 N 431.605 1.3629 0.791371 0
M  V30 4413 C 432.845 1.31792 1.56238 0
M  V30 4414 C 433.209 -0.102237 1.91728 0
M  V30 4415 O 434.41 -0.271759 2.67423 0
M  V30 4416 C 432.681 2.21303 2.80642 0
M  V30 4417 S 434.24 2.34468 3.70904 0
M  V30 4418 H 431.058 0.468141 0.535131 0
M  V30 4419 H 433.66 1.71841 0.932246 0
M  V30 4420 H 432.364 3.23439 2.52617 0
M  V30 4421 H 431.895 1.82266 3.4863 0
M  V30 4422 H 433.91 1.54074 4.71673 0
M  V30 4423 N 433.083 -1.0153 1.20538 0
M  V30 4424 C 434.494 -1.56598 1.01657 0
M  V30 4425 C 434.845 -1.91505 -0.426668 0
M  V30 4426 O 433.97 -1.72375 -1.30827 0
M  V30 4427 C 434.565 -2.84542 1.83905 0
M  V30 4428 C 433.124 -3.36133 1.69386 0
M  V30 4429 C 432.271 -2.09427 1.81757 0
M  V30 4430 H 435.222 -0.838974 1.34711 0
M  V30 4431 H 435.243 -3.56004 1.34319 0
M  V30 4432 H 434.755 -2.59105 2.8894 0
M  V30 4433 H 432.856 -3.66528 0.669933 0
M  V30 4434 H 432.969 -4.08248 2.50739 0
M  V30 4435 H 431.333 -2.21941 1.24957 0
M  V30 4436 H 432.116 -1.86414 2.88279 0
M  V30 4437 N 434.561 -1.01147 -1.20859 0
M  V30 4438 C 435.471 -0.58686 -2.27141 0
M  V30 4439 C 436.487 0.373198 -1.69951 0
M  V30 4440 O 437.663 0.235423 -2.00019 0
M  V30 4441 C 434.728 0.0733602 -3.46622 0
M  V30 4442 C 433.789 -0.931995 -4.19061 0
M  V30 4443 C 433.022 -0.303186 -5.32838 0
M  V30 4444 O 433.245 0.898395 -5.63281 0
M  V30 4445 O 432.179 -1.01735 -5.9324 0
M  V30 4446 H 436.005 -1.47155 -2.65667 0
M  V30 4447 H 433.59 -0.780689 -1.2738 0
M  V30 4448 H 435.472 0.442333 -4.19072 0
M  V30 4449 H 434.147 0.932329 -3.09983 0
M  V30 4450 H 433.054 -1.35224 -3.48805 0
M  V30 4451 H 434.387 -1.76076 -4.59628 0
M  V30 4452 N 436.039 1.36541 -0.78704 0
M  V30 4453 C 436.989 2.27459 -0.156957 0
M  V30 4454 C 437.973 1.46843 0.657709 0
M  V30 4455 O 439.165 1.69245 0.518173 0
M  V30 4456 C 436.294 3.35893 0.709278 0
M  V30 4457 C 435.38 4.23947 -0.114049 0
M  V30 4458 N 435.771 4.92145 -1.16736 0
M  V30 4459 C 434.069 4.4587 0.107497 0
M  V30 4460 C 434.77 5.57261 -1.66837 0
M  V30 4461 N 433.746 5.3473 -0.977992 0
M  V30 4462 H 437.548 2.77669 -0.963185 0
M  V30 4463 H 435.062 1.49839 -0.62627 0
M  V30 4464 H 437.059 3.99953 1.17656 0
M  V30 4465 H 435.719 2.87238 1.51408 0
M  V30 4466 H 436.73 4.94169 -1.54976 0
M  V30 4467 H 433.407 4.08056 0.882994 0
M  V30 4468 H 434.797 6.21728 -2.54762 0
M  V30 4469 N 437.518 0.538854 1.48102 0
M  V30 4470 C 438.746 0.0123136 2.06896 0
M  V30 4471 C 439.161 -1.27312 1.39417 0
M  V30 4472 O 438.518 -1.75949 0.484582 0
M  V30 4473 C 438.569 -0.206118 3.60912 0
M  V30 4474 O 438.29 1.0284 4.25859 0
M  V30 4475 C 439.791 -0.772033 4.36526 0
M  V30 4476 H 437.011 0.0375239 0.66995 0
M  V30 4477 H 439.555 0.747032 1.90367 0
M  V30 4478 H 437.71 -0.89091 3.77017 0
M  V30 4479 H 438.124 0.814654 5.18135 0
M  V30 4480 H 439.598 -0.874251 5.45033 0
M  V30 4481 H 440.075 -1.77904 4.01555 0
M  V30 4482 H 440.681 -0.123526 4.25121 0
M  V30 4483 N 438.996 -1.55193 0.274407 0
M  V30 4484 C 439.926 -2.25471 -0.607032 0
M  V30 4485 C 440.907 -1.24461 -1.15946 0
M  V30 4486 O 442.092 -1.53179 -1.19373 0
M  V30 4487 C 439.222 -2.97526 -1.79153 0
M  V30 4488 C 438.176 -4.05459 -1.37067 0
M  V30 4489 C 437.502 -4.65084 -2.6382 0
M  V30 4490 C 438.802 -5.19691 -0.521389 0
M  V30 4491 H 440.496 -2.99393 -0.0209343 0
M  V30 4492 H 438.042 -1.43997 -0.00862866 0
M  V30 4493 H 439.995 -3.45402 -2.41404 0
M  V30 4494 H 438.719 -2.21138 -2.40344 0
M  V30 4495 H 437.378 -3.58393 -0.771355 0
M  V30 4496 H 437.026 -3.85365 -3.23268 0
M  V30 4497 H 436.726 -5.37961 -2.36372 0
M  V30 4498 H 438.25 -5.15708 -3.26921 0
M  V30 4499 H 439.664 -5.63623 -1.04889 0
M  V30 4500 H 438.061 -5.99126 -0.341825 0
M  V30 4501 H 439.131 -4.82713 0.46 0
M  V30 4502 N 440.474 -0.00167713 -1.576 0
M  V30 4503 C 441.885 0.54091 -1.78693 0
M  V30 4504 C 442.236 1.7386 -0.909247 0
M  V30 4505 O 441.361 2.16109 -0.112176 0
M  V30 4506 C 441.956 0.98806 -3.24072 0
M  V30 4507 C 440.515 1.47594 -3.46256 0
M  V30 4508 C 439.662 0.42792 -2.73978 0
M  V30 4509 H 442.613 -0.22784 -1.57056 0
M  V30 4510 H 442.634 1.85398 -3.32277 0
M  V30 4511 H 442.146 0.116164 -3.87926 0
M  V30 4512 H 440.247 2.36868 -2.87618 0
M  V30 4513 H 440.36 1.50225 -4.54939 0
M  V30 4514 H 438.724 0.889934 -2.38647 0
M  V30 4515 H 439.507 -0.435038 -3.40532 0
M  V30 4516 N 441.952 1.55251 0.271103 0
M  V30 4517 C 443.177 1.80306 1.02491 0
M  V30 4518 C 443.602 0.575457 1.79081 0
M  V30 4519 O 442.96 -0.474987 1.74967 0
M  V30 4520 C 443.008 3.02832 1.95768 0
M  V30 4521 O 442.112 2.78051 3.04568 0
M  V30 4522 H 441.453 0.595896 0.292923 0
M  V30 4523 H 443.983 2.02397 0.299436 0
M  V30 4524 H 443.993 3.31616 2.37686 0
M  V30 4525 H 442.668 3.9183 1.39434 0
M  V30 4526 H 441.245 2.60369 2.66951 0
M  V30 4527 N 443.43 -0.535701 1.48216 0
M  V30 4528 C 444.841 -1.11769 1.49548 0
M  V30 4529 C 445.192 -1.94442 0.26207 0
M  V30 4530 O 444.317 -2.06987 -0.631287 0
M  V30 4531 C 444.912 -2.03367 2.70975 0
M  V30 4532 C 443.471 -2.56795 2.75196 0
M  V30 4533 C 442.618 -1.33631 2.42977 0
M  V30 4534 H 445.569 -0.321232 1.55415 0
M  V30 4535 H 445.59 -2.87569 2.49167 0
M  V30 4536 H 445.102 -1.43169 3.60727 0
M  V30 4537 H 443.203 -3.20731 1.89638 0
M  V30 4538 H 443.316 -2.9632 3.76472 0
M  V30 4539 H 441.68 -1.6502 1.94012 0
M  V30 4540 H 442.463 -0.75194 3.34964 0
M  V30 4541 N 444.908 -1.36708 -0.784132 0
M  V30 4542 C 445.818 -1.3363 -1.92822 0
M  V30 4543 C 446.834 -0.237686 -1.72369 0
M  V30 4544 O 448.01 -0.470962 -1.95816 0
M  V30 4545 C 445.075 -1.13011 -3.27764 0
M  V30 4546 C 444.136 -2.32397 -3.60957 0
M  V30 4547 C 443.369 -2.12752 -4.89461 0
M  V30 4548 O 443.592 -1.10541 -5.59586 0
M  V30 4549 O 442.526 -3.00653 -5.21432 0
M  V30 4550 H 446.352 -2.29964 -1.98369 0
M  V30 4551 H 443.937 -1.1731 -0.925136 0
M  V30 4552 H 445.819 -1.03451 -4.08504 0
M  V30 4553 H 444.494 -0.19743 -3.23097 0
M  V30 4554 H 443.401 -2.47527 -2.80502 0
M  V30 4555 H 444.734 -3.2419 -3.70354 0
M  V30 4556 N 446.386 1.0089 -1.21074 0
M  V30 4557 C 447.634 1.74262 -1.02358 0
M  V30 4558 C 447.955 1.89869 0.444393 0
M  V30 4559 O 447.225 1.44677 1.32081 0
M  V30 4560 H 445.805 0.645615 -0.375754 0
M  V30 4561 H 448.467 1.21596 -1.52317 0
M  V30 4562 H 447.563 2.74328 -1.4883 0
M  V30 4563 N 447.864 1.01787 1.20321 0
M  V30 4564 C 448.827 0.593972 2.2137 0
M  V30 4565 C 449.827 -0.336553 1.57239 0
M  V30 4566 O 451.017 -0.125069 1.7375 0
M  V30 4567 C 448.149 -0.132433 3.40643 0
M  V30 4568 H 449.342 1.48791 2.60387 0
M  V30 4569 H 446.895 0.807803 1.33807 0
M  V30 4570 H 447.63 -1.04123 3.0713 0
M  V30 4571 H 447.415 0.53605 3.88418 0
M  V30 4572 H 448.905 -0.416314 4.1552 0
M  V30 4573 N 449.342 -1.36122 0.79427 0
M  V30 4574 C 450.57 -2.03362 0.380989 0
M  V30 4575 C 450.985 -1.59881 -1.00416 0
M  V30 4576 O 450.342 -0.790515 -1.6449 0
M  V30 4577 C 450.393 -3.58804 0.440649 0
M  V30 4578 O 450.114 -4.007 1.77118 0
M  V30 4579 C 451.615 -4.43296 0.0186117 0
M  V30 4580 H 448.835 -0.652526 0.156367 0
M  V30 4581 H 451.379 -1.73998 1.07447 0
M  V30 4582 H 449.534 -3.8686 -0.204458 0
M  V30 4583 H 449.948 -4.95309 1.72538 0
M  V30 4584 H 451.422 -5.51887 0.111488 0
M  V30 4585 H 451.899 -4.2684 -1.03461 0
M  V30 4586 H 452.505 -4.20512 0.636395 0
M  V30 4587 N 450.82 -0.546701 -1.47814 0
M  V30 4588 C 452.045 -0.021268 -2.07389 0
M  V30 4589 C 452.47 1.25822 -1.39822 0
M  V30 4590 O 451.828 1.75111 -0.46968 0
M  V30 4591 C 451.876 0.168502 -3.60206 0
M  V30 4592 O 450.98 1.23347 -3.93522 0
M  V30 4593 H 450.321 -0.0466108 -0.662362 0
M  V30 4594 H 452.851 -0.759387 -1.89985 0
M  V30 4595 H 452.861 0.385982 -4.0617 0
M  V30 4596 H 451.536 -0.766075 -4.08784 0
M  V30 4597 H 450.113 0.997319 -3.59316 0
M  V30 4598 N 452.299 1.55045 -0.282633 0
M  V30 4599 C 453.539 2.01668 0.333088 0
M  V30 4600 C 453.903 1.1667 1.52486 0
M  V30 4601 O 455.104 1.52907 2.21072 0
M  V30 4602 C 453.375 3.50509 0.698442 0
M  V30 4603 S 454.934 4.19112 1.29963 0
M  V30 4604 H 451.752 0.703468 0.103219 0
M  V30 4605 H 454.354 1.91233 -0.406222 0
M  V30 4606 H 453.058 4.10015 -0.177693 0
M  V30 4607 H 452.589 3.64943 1.46902 0
M  V30 4608 H 454.604 4.23362 2.58803 0
M  V30 4609 N 453.777 0.010035 1.57597 0
M  V30 4610 C 454.687 -0.994226 2.12491 0
M  V30 4611 C 455.703 -1.37013 1.07254 0
M  V30 4612 O 456.879 -1.45542 1.3921 0
M  V30 4613 C 453.944 -2.2642 2.62555 0
M  V30 4614 C 453.005 -1.95049 3.82432 0
M  V30 4615 C 452.238 -3.15991 4.30099 0
M  V30 4616 O 452.461 -4.28015 3.7704 0
M  V30 4617 O 451.395 -2.99403 5.22151 0
M  V30 4618 H 455.221 -0.557549 2.98538 0
M  V30 4619 H 452.806 -0.209413 1.47925 0
M  V30 4620 H 454.688 -3.01009 2.9491 0
M  V30 4621 H 453.363 -2.69306 1.796 0
M  V30 4622 H 452.27 -1.17904 3.55034 0
M  V30 4623 H 453.603 -1.56992 4.66491 0
M  V30 4624 N 455.255 -1.55392 -0.262866 0
M  V30 4625 C 456.495 -1.78231 -1.00064 0
M  V30 4626 C 456.859 -0.576966 -1.83126 0
M  V30 4627 O 458.06 -0.683809 -2.59957 0
M  V30 4628 C 456.331 -3.05701 -1.85153 0
M  V30 4629 S 457.89 -3.49699 -2.65058 0
M  V30 4630 H 454.708 -0.626138 -0.336856 0
M  V30 4631 H 457.31 -1.93626 -0.27005 0
M  V30 4632 H 456.014 -3.91511 -1.23074 0
M  V30 4633 H 455.545 -2.93 -2.62515 0
M  V30 4634 H 457.56 -3.09772 -3.87629 0
M  V30 4635 N 456.733 0.527833 -1.48498 0
M  V30 4636 C 457.643 1.65907 -1.65867 0
M  V30 4637 C 458.659 1.6537 -0.541192 0
M  V30 4638 O 459.835 1.84282 -0.812534 0
M  V30 4639 C 456.9 3.02364 -1.69637 0
M  V30 4640 C 455.961 3.1374 -2.93028 0
M  V30 4641 C 455.194 4.43688 -2.96609 0
M  V30 4642 O 455.417 5.30913 -2.08538 0
M  V30 4643 O 454.351 4.59475 -3.88802 0
M  V30 4644 H 458.177 1.5419 -2.61647 0
M  V30 4645 H 455.762 0.701163 -1.31924 0
M  V30 4646 H 457.644 3.83515 -1.74625 0
M  V30 4647 H 456.319 3.14401 -0.770312 0
M  V30 4648 H 455.226 2.31877 -2.93571 0
M  V30 4649 H 456.559 3.06621 -3.85026 0
M  V30 4650 N 458.211 1.37122 0.776871 0
M  V30 4651 C 459.121 1.34651 1.9211 0
M  V30 4652 C 460.137 0.246824 1.7224 0
M  V30 4653 O 461.313 0.48134 1.95563 0
M  V30 4654 C 458.378 1.14748 3.2716 0
M  V30 4655 C 457.439 2.34308 3.5972 0
M  V30 4656 C 456.672 2.15345 4.88326 0
M  V30 4657 O 456.895 1.13507 5.58992 0
M  V30 4658 O 455.829 3.03414 5.1983 0
M  V30 4659 H 459.655 2.31013 1.97146 0
M  V30 4660 H 457.24 1.17799 0.918901 0
M  V30 4661 H 459.122 1.05616 4.0795 0
M  V30 4662 H 457.797 0.214562 3.22988 0
M  V30 4663 H 456.704 2.49011 2.79185 0
M  V30 4664 H 458.037 3.26149 3.68629 0
M  V30 4665 N 459.689 -1.00246 1.21608 0
M  V30 4666 C 460.937 -1.73717 1.0328 0
M  V30 4667 C 461.258 -1.90102 -0.434318 0
M  V30 4668 O 460.528 -1.45376 -1.31311 0
M  V30 4669 H 459.108 -0.643613 0.379172 0
M  V30 4670 H 461.77 -1.20787 1.52959 0
M  V30 4671 H 460.866 -2.73535 1.50283 0
M  V30 4672 N 461.167 -1.02423 -1.1978 0
M  V30 4673 C 462.414 -0.717988 -1.89344 0
M  V30 4674 C 462.742 0.753036 -1.79331 0
M  V30 4675 O 461.997 1.56355 -1.17692 0
M  V30 4676 C 462.296 -1.1088 -3.39765 0
M  V30 4677 C 461.962 -2.57731 -3.6998 0
M  V30 4678 C 460.624 -2.97854 -3.77937 0
M  V30 4679 C 462.976 -3.52763 -3.83677 0
M  V30 4680 C 460.304 -4.31931 -3.97054 0
M  V30 4681 C 462.656 -4.86538 -4.04306 0
M  V30 4682 C 461.32 -5.26356 -4.10494 0
M  V30 4683 H 460.59 -0.26273 -0.692859 0
M  V30 4684 H 463.237 -1.28623 -1.41875 0
M  V30 4685 H 461.542 -0.459094 -3.89101 0
M  V30 4686 H 463.239 -0.849432 -3.919 0
M  V30 4687 H 459.829 -2.25646 -3.64393 0
M  V30 4688 H 464.013 -3.2292 -3.76877 0
M  V30 4689 H 459.269 -4.62324 -4.00083 0
M  V30 4690 H 463.443 -5.60093 -4.13846 0
M  V30 4691 H 461.07 -6.3026 -4.2506 0
M  V30 4692 N 462.645 1.35699 -0.801477 0
M  V30 4693 C 463.892 1.98913 -0.379459 0
M  V30 4694 C 464.22 1.63592 1.05204 0
M  V30 4695 O 463.475 0.888563 1.74365 0
M  V30 4696 C 463.774 3.53828 -0.504041 0
M  V30 4697 C 463.44 4.09002 -1.8981 0
M  V30 4698 C 462.102 4.23783 -2.27951 0
M  V30 4699 C 464.454 4.38939 -2.81038 0
M  V30 4700 C 461.782 4.65816 -3.56696 0
M  V30 4701 C 464.134 4.82409 -4.09224 0
M  V30 4702 C 462.798 4.95395 -4.4737 0
M  V30 4703 H 462.068 0.727874 -0.138854 0
M  V30 4704 H 464.715 1.61994 -1.02128 0
M  V30 4705 H 463.02 3.91175 0.221242 0
M  V30 4706 H 464.717 4.00687 -0.158361 0
M  V30 4707 H 461.307 3.97946 -1.59176 0
M  V30 4708 H 465.491 4.27077 -2.52821 0
M  V30 4709 H 460.747 4.74059 -3.86106 0
M  V30 4710 H 464.921 5.04535 -4.80018 0
M  V30 4711 H 462.548 5.27724 -5.47185 0
M  V30 4712 N 464.123 0.554532 1.47522 0
M  V30 4713 C 465.539 0.214107 1.58157 0
M  V30 4714 C 465.739 -1.28331 1.55349 0
M  V30 4715 O 464.795 -2.06329 1.45549 0
M  V30 4716 C 466.108 0.838391 2.88776 0
M  V30 4717 C 467.656 0.809374 3.02354 0
M  V30 4718 C 468.131 1.41268 4.35669 0
M  V30 4719 N 469.622 1.37574 4.42298 0
M  V30 4720 C 470.357 1.8122 5.4401 0
M  V30 4721 N 469.853 2.3271 6.52547 0
M  V30 4722 N 471.646 1.72307 5.35039 0
M  V30 4723 H 463.797 1.52744 1.4759 0
M  V30 4724 H 466.06 0.636812 0.702264 0
M  V30 4725 H 465.766 1.89065 2.96559 0
M  V30 4726 H 465.64 0.329847 3.75755 0
M  V30 4727 H 468.027 -0.234187 2.94169 0
M  V30 4728 H 468.108 1.35565 2.16924 0
M  V30 4729 H 467.752 2.45529 4.4461 0
M  V30 4730 H 467.682 0.841871 5.19827 0
M  V30 4731 H 470.173 0.999081 3.64454 0
M  V30 4732 H 470.486 2.63944 7.26329 0
M  V30 4733 H 468.831 2.36719 6.53444 0
M  V30 4734 H 472.022 1.3186 4.49144 0
M  V30 4735 H 472.195 2.06641 6.14169 0
M  V30 4736 N 465.601 -1.54893 0.290851 0
M  V30 4737 C 466.564 -2.21824 -0.576784 0
M  V30 4738 C 467.564 -1.20104 -1.06919 0
M  V30 4739 O 468.754 -1.44906 -0.966843 0
M  V30 4740 C 465.886 -2.89662 -1.79747 0
M  V30 4741 H 467.079 -2.99899 0.00784051 0
M  V30 4742 H 464.632 -1.56245 0.0415934 0
M  V30 4743 H 465.367 -2.15639 -2.42219 0
M  V30 4744 H 465.152 -3.64219 -1.45214 0
M  V30 4745 H 466.642 -3.4075 -2.4141 0
M  V30 4746 N 467.08 -0.0183926 -1.57589 0
M  V30 4747 C 468.491 0.521927 -1.79256 0
M  V30 4748 C 468.842 1.72885 -0.927636 0
M  V30 4749 O 467.967 2.15978 -0.135091 0
M  V30 4750 C 468.562 0.953632 -3.25102 0
M  V30 4751 C 467.121 1.43913 -3.47801 0
M  V30 4752 C 466.268 0.398837 -2.74417 0
M  V30 4753 H 469.219 -0.244485 -1.56805 0
M  V30 4754 H 469.24 1.81863 -3.34224 0
M  V30 4755 H 468.752 0.0750123 -3.88028 0
M  V30 4756 H 466.853 2.33804 -2.90115 0
M  V30 4757 H 466.966 1.45391 -4.56507 0
M  V30 4758 H 465.33 0.864572 -2.39577 0
M  V30 4759 H 466.113 -0.471132 -3.40052 0
M  V30 4760 N 468.558 1.5553 0.254621 0
M  V30 4761 C 469.49 1.86104 1.33783 0
M  V30 4762 C 470.503 0.746752 1.44663 0
M  V30 4763 O 471.692 1.0248 1.46151 0
M  V30 4764 C 468.792 2.02532 2.71724 0
M  V30 4765 C 467.965 3.33335 2.83208 0
M  V30 4766 C 467.024 3.396 4.01943 0
M  V30 4767 O 466.05 4.12862 3.91834 0
M  V30 4768 N 467.252 2.68332 5.1476 0
M  V30 4769 H 470.017 2.79605 1.07893 0
M  V30 4770 H 467.578 1.55672 0.444732 0
M  V30 4771 H 469.57 2.04074 3.4948 0
M  V30 4772 H 468.14 1.15811 2.90356 0
M  V30 4773 H 467.36 3.44176 1.92189 0
M  V30 4774 H 468.648 4.19565 2.87824 0
M  V30 4775 H 468.046 2.08528 5.25864 0
M  V30 4776 H 466.603 2.75575 5.90679 0
M  V30 4777 N 470.036 -0.519951 1.48776 0
M  V30 4778 C 471.313 -1.28123 1.47797 0
M  V30 4779 C 471.693 -2.10196 0.195157 0
M  V30 4780 O 471.041 -2.13167 -0.822925 0
M  V30 4781 C 471.251 -2.15413 2.74587 0
M  V30 4782 C 472.599 -2.75225 3.23321 0
M  V30 4783 O 473.623 -2.25694 2.75574 0
M  V30 4784 O 472.482 -3.65346 4.06429 0
M  V30 4785 H 469.576 -0.578793 0.590701 0
M  V30 4786 H 472.122 -0.535779 1.6102 0
M  V30 4787 H 470.894 -1.54617 3.59457 0
M  V30 4788 H 470.517 -2.97186 2.64132 0
M  V30 4789 N 471.514 -1.37532 -0.769588 0
M  V30 4790 C 472.925 -1.29382 -1.346 0
M  V30 4791 C 473.276 0.0576039 -1.96115 0
M  V30 4792 O 472.401 0.95947 -1.93967 0
M  V30 4793 C 472.996 -2.34298 -2.44724 0
M  V30 4794 C 471.555 -2.29776 -2.98128 0
M  V30 4795 C 470.702 -2.18013 -1.71364 0
M  V30 4796 H 473.653 -1.48123 -0.56968 0
M  V30 4797 H 473.674 -1.99089 -3.24259 0
M  V30 4798 H 473.186 -3.32645 -1.99922 0
M  V30 4799 H 471.287 -1.34959 -3.47299 0
M  V30 4800 H 471.4 -3.23276 -3.53595 0
M  V30 4801 H 469.764 -1.64595 -1.94372 0
M  V30 4802 H 470.547 -3.18278 -1.28662 0
M  V30 4803 N 472.992 0.995999 -1.22138 0
M  V30 4804 C 473.955 2.06711 -0.990109 0
M  V30 4805 C 474.955 1.60744 0.0422978 0
M  V30 4806 O 476.145 1.73095 -0.195895 0
M  V30 4807 C 473.277 3.37288 -0.49491 0
M  V30 4808 H 474.47 2.28661 -1.94047 0
M  V30 4809 H 472.023 1.16711 -1.03963 0
M  V30 4810 H 472.758 3.21022 0.459948 0
M  V30 4811 H 472.543 3.71986 -1.23971 0
M  V30 4812 H 474.033 4.16103 -0.353253 0
M  V30 4813 N 474.47 1.03057 1.19235 0
M  V30 4814 C 475.695 0.74757 1.93458 0
M  V30 4815 C 476.12 -0.687648 1.7508 0
M  V30 4816 O 475.478 -1.47499 1.05422 0
M  V30 4817 C 475.526 1.10604 3.43219 0
M  V30 4818 O 474.63 0.225671 4.11782 0
M  V30 4819 H 473.971 0.276047 0.603899 0
M  V30 4820 H 476.501 1.3777 1.51263 0
M  V30 4821 H 476.511 1.06366 3.93891 0
M  V30 4822 H 475.186 2.15165 3.55917 0
M  V30 4823 H 473.763 0.326795 3.71465 0
M  V30 4824 N 475.948 -1.35272 0.808662 0
M  V30 4825 C 476.881 -2.27595 0.165994 0
M  V30 4826 C 477.859 -1.48189 -0.669241 0
M  V30 4827 O 479.043 -1.77444 -0.636073 0
M  V30 4828 C 476.17 -3.29843 -0.769505 0
M  V30 4829 C 475.216 -4.26498 -0.0136267 0
M  V30 4830 S 476.049 -5.18878 1.32384 0
M  V30 4831 C 477.205 -6.24666 0.392838 0
M  V30 4832 H 477.438 -2.81755 0.948756 0
M  V30 4833 H 474.971 -1.42103 0.603828 0
M  V30 4834 H 476.929 -3.89247 -1.30374 0
M  V30 4835 H 475.59 -2.74558 -1.52567 0
M  V30 4836 H 474.783 -4.98769 -0.724227 0
M  V30 4837 H 474.385 -3.71274 0.450713 0
M  V30 4838 H 476.677 -6.7619 -0.4211 0
M  V30 4839 H 477.62 -6.99741 1.0848 0
M  V30 4840 H 478.028 -5.64499 -0.0123908 0
M  V30 4841 N 477.426 -0.562348 -1.47226 0
M  V30 4842 C 478.837 -0.130325 -1.86245 0
M  V30 4843 C 479.188 1.30128 -1.46838 0
M  V30 4844 O 478.313 1.97974 -0.873805 0
M  V30 4845 C 478.908 -0.229738 -3.3802 0
M  V30 4846 C 477.467 0.14728 -3.76112 0
M  V30 4847 C 476.614 -0.574971 -2.71274 0
M  V30 4848 H 479.565 -0.771773 -1.3867 0
M  V30 4849 H 479.586 0.550316 -3.76499 0
M  V30 4850 H 479.098 -1.27178 -3.66671 0
M  V30 4851 H 477.199 1.19023 -3.53078 0
M  V30 4852 H 477.312 -0.214858 -4.78618 0
M  V30 4853 H 475.676 -0.0174756 -2.54694 0
M  V30 4854 H 476.459 -1.61827 -3.02766 0
M  V30 4855 N 478.904 1.54736 -0.299062 0
M  V30 4856 C 480.144 2.0201 0.31168 0
M  V30 4857 C 480.508 1.18281 1.5124 0
M  V30 4858 O 481.709 1.55243 2.19438 0
M  V30 4859 C 479.98 3.5123 0.661227 0
M  V30 4860 S 481.539 4.20467 1.2551 0
M  V30 4861 H 478.357 0.704523 0.0957517 0
M  V30 4862 H 480.959 1.90791 -0.426482 0
M  V30 4863 H 479.663 4.09804 -0.221171 0
M  V30 4864 H 479.194 3.66481 1.43023 0
M  V30 4865 H 481.209 4.26083 2.54298 0
M  V30 4866 N 480.382 0.0267497 1.57577 0
M  V30 4867 C 481.61 -0.662661 1.96001 0
M  V30 4868 C 482.025 -1.65799 0.903117 0
M  V30 4869 O 481.382 -1.82135 -0.115317 0
M  V30 4870 C 481.433 -1.37112 3.34488 0
M  V30 4871 O 481.154 -0.415683 4.36123 0
M  V30 4872 C 482.655 -2.15257 3.8753 0
M  V30 4873 H 479.875 -0.18287 0.6456 0
M  V30 4874 H 482.419 0.0858116 2.0432 0
M  V30 4875 H 480.574 -2.07101 3.27395 0
M  V30 4876 H 480.988 -0.918496 5.16395 0
M  V30 4877 H 482.462 -2.60285 4.86781 0
M  V30 4878 H 482.939 -2.99063 3.21649 0
M  V30 4879 H 483.545 -1.50231 3.97883 0
M  V30 4880 N 481.861 -1.55662 -0.24637 0
M  V30 4881 C 483.277 -1.48098 -0.594907 0
M  V30 4882 C 483.477 -0.717044 -1.8831 0
M  V30 4883 O 482.533 -0.246618 -2.51293 0
M  V30 4884 C 483.846 -2.92507 -0.697146 0
M  V30 4885 C 485.394 -3.02881 -0.789436 0
M  V30 4886 C 485.869 -4.48598 -0.923232 0
M  V30 4887 N 487.36 -4.52538 -0.988088 0
M  V30 4888 C 488.095 -5.62536 -1.11089 0
M  V30 4889 N 487.591 -6.82342 -1.19919 0
M  V30 4890 N 489.384 -5.50334 -1.14408 0
M  V30 4891 H 481.535 -2.0377 0.599278 0
M  V30 4892 H 483.798 -0.925145 0.20691 0
M  V30 4893 H 483.504 -3.51242 0.179396 0
M  V30 4894 H 483.378 -3.43024 -1.5689 0
M  V30 4895 H 485.765 -2.44226 -1.65643 0
M  V30 4896 H 485.846 -2.55574 0.107482 0
M  V30 4897 H 485.49 -5.07864 -0.0607927 0
M  V30 4898 H 485.42 -4.93587 -1.8352 0
M  V30 4899 H 487.911 -3.66248 -0.931167 0
M  V30 4900 H 488.224 -7.61924 -1.29197 0
M  V30 4901 H 486.569 -6.85102 -1.16876 0
M  V30 4902 H 489.76 -4.5567 -1.07158 0
M  V30 4903 H 489.933 -6.36096 -1.23634 0
M  V30 4904 N 483.339 0.512053 -1.4905 0
M  V30 4905 C 484.75 1.09376 -1.51307 0
M  V30 4906 C 485.101 1.94 -0.292971 0
M  V30 4907 O 484.226 2.07965 0.598277 0
M  V30 4908 C 484.821 1.99031 -2.74176 0
M  V30 4909 C 483.38 2.52385 -2.79247 0
M  V30 4910 C 482.527 1.29749 -2.45073 0
M  V30 4911 H 485.478 0.296467 -1.55906 0
M  V30 4912 H 485.499 2.83569 -2.53711 0
M  V30 4913 H 485.011 1.37412 -3.62959 0
M  V30 4914 H 483.112 3.17673 -1.94716 0
M  V30 4915 H 483.225 2.90293 -3.81139 0
M  V30 4916 H 481.589 1.61912 -1.96612 0
M  V30 4917 H 482.372 0.698555 -3.36118 0
M  V30 4918 N 484.817 1.37938 0.762283 0
M  V30 4919 C 486.228 1.30094 1.33912 0
M  V30 4920 C 486.579 -0.0472026 1.96143 0
M  V30 4921 O 485.704 -0.94917 1.94473 0
M  V30 4922 C 486.299 2.35592 2.43478 0
M  V30 4923 C 484.858 2.31353 2.96905 0
M  V30 4924 C 484.005 2.18919 1.70205 0
M  V30 4925 H 486.956 1.48423 0.561816 0
M  V30 4926 H 486.977 2.00806 3.23199 0
M  V30 4927 H 486.489 3.33701 1.98155 0
M  V30 4928 H 484.59 1.36799 3.46579 0
M  V30 4929 H 484.703 3.25147 3.51875 0
M  V30 4930 H 483.067 1.65624 1.93496 0
M  V30 4931 H 483.85 3.18956 1.26973 0
M  V30 4932 N 486.295 -0.989507 1.22664 0
M  V30 4933 C 487.52 -1.77031 1.08051 0
M  V30 4934 C 487.945 -1.84535 -0.364483 0
M  V30 4935 O 487.303 -1.3003 -1.2634 0
M  V30 4936 C 487.351 -3.18 1.70024 0
M  V30 4937 O 486.455 -4.01161 0.956216 0
M  V30 4938 H 485.796 -0.545008 0.379292 0
M  V30 4939 H 488.326 -1.24277 1.62531 0
M  V30 4940 H 488.336 -3.68616 1.74888 0
M  V30 4941 H 487.011 -3.11853 2.75174 0
M  V30 4942 H 485.588 -3.59687 0.98384 0
M  V30 4943 N 487.773 -1.03688 -1.18687 0
M  V30 4944 C 488.736 -0.629115 -2.20397 0
M  V30 4945 C 489.736 0.311495 -1.57754 0
M  V30 4946 O 490.926 0.0974107 -1.73927 0
M  V30 4947 C 488.058 0.0782231 -3.4081 0
M  V30 4948 H 489.251 -1.52915 -2.57987 0
M  V30 4949 H 486.804 -0.828988 -1.32505 0
M  V30 4950 H 487.539 0.992233 -3.08748 0
M  V30 4951 H 487.324 -0.597776 -3.87517 0
M  V30 4952 H 488.814 0.350156 -4.16129 0
M  V30 4953 N 489.251 1.34841 -0.815825 0
M  V30 4954 C 490.662 1.80937 -0.46029 0
M  V30 4955 C 491.013 1.67685 1.01863 0
M  V30 4956 O 490.138 1.21277 1.79223 0
M  V30 4957 C 490.733 3.28509 -0.828708 0
M  V30 4958 C 489.292 3.72712 -0.525644 0
M  V30 4959 C 488.439 2.56676 -1.04941 0
M  V30 4960 H 491.39 1.22688 -1.00664 0
M  V30 4961 H 491.411 3.80279 -0.129757 0
M  V30 4962 H 490.923 3.38122 -1.90513 0
M  V30 4963 H 489.024 3.68642 0.541666 0
M  V30 4964 H 489.137 4.67119 -1.06474 0
M  V30 4965 H 487.501 2.50302 -0.471286 0
M  V30 4966 H 488.284 2.69063 -2.13214 0
M  V30 4967 N 490.729 0.570148 1.46925 0
M  V30 4968 C 491.679 -0.190921 2.27199 0
M  V30 4969 C 492.663 -0.873457 1.35128 0
M  V30 4970 O 493.855 -0.769627 1.59392 0
M  V30 4971 C 490.984 -1.21204 3.21192 0
M  V30 4972 C 490.07 -0.532261 4.20747 0
M  V30 4973 N 490.461 0.405038 5.04176 0
M  V30 4974 C 488.759 -0.784582 4.39045 0
M  V30 4975 C 489.46 0.801149 5.76157 0
M  V30 4976 N 488.436 0.153082 5.43384 0
M  V30 4977 H 492.238 0.529535 2.8909 0
M  V30 4978 H 489.752 0.391019 1.57622 0
M  V30 4979 H 491.749 -1.77135 3.77398 0
M  V30 4980 H 490.409 -1.93345 2.6086 0
M  V30 4981 H 491.42 0.779903 5.11994 0
M  V30 4982 H 488.097 -1.49352 3.89872 0
M  V30 4983 H 489.487 1.57208 6.5325 0
M  V30 4984 N 492.207 -1.54576 0.307264 0
M  V30 4985 C 493.437 -2.04378 -0.302158 0
M  V30 4986 C 493.845 -1.18381 -1.47589 0
M  V30 4987 O 493.188 -0.20352 -1.82569 0
M  V30 4988 C 493.25 -3.50133 -0.815305 0
M  V30 4989 C 492.914 -4.56401 0.233977 0
M  V30 4990 C 493.911 -5.08884 1.06456 0
M  V30 4991 C 491.596 -5.0088 0.377478 0
M  V30 4992 C 493.59 -6.04394 2.02452 0
M  V30 4993 C 491.277 -5.96208 1.34088 0
M  V30 4994 C 492.275 -6.47849 2.16288 0
M  V30 4995 O 491.963 -7.41308 3.10994 0
M  V30 4996 H 491.695 -0.672502 -0.0686839 0
M  V30 4997 H 494.249 -2.00484 0.446682 0
M  V30 4998 H 492.479 -3.51371 -1.61478 0
M  V30 4999 H 494.168 -3.83098 -1.34129 0
M  V30 5000 H 494.934 -4.75311 0.964596 0
M  V30 5001 H 490.813 -4.60309 -0.252405 0
M  V30 5002 H 494.357 -6.44626 2.66652 0
M  V30 5003 H 490.254 -6.29198 1.44154 0
M  V30 5004 H 491.022 -7.5913 3.06045 0
M  V30 5005 N 493.685 -0.035106 -1.57561 0
M  V30 5006 C 494.615 0.942993 -2.13612 0
M  V30 5007 C 495.596 1.33531 -1.05373 0
M  V30 5008 O 496.781 1.41287 -1.33235 0
M  V30 5009 C 493.911 2.22332 -2.66807 0
M  V30 5010 C 492.865 1.97156 -3.79886 0
M  V30 5011 C 492.191 3.31506 -4.19533 0
M  V30 5012 C 493.491 1.30596 -5.05709 0
M  V30 5013 H 495.185 0.476179 -2.95589 0
M  V30 5014 H 492.731 0.227602 -1.4219 0
M  V30 5015 H 494.684 2.91142 -3.04654 0
M  V30 5016 H 493.408 2.7119 -1.81999 0
M  V30 5017 H 492.067 1.30763 -3.42486 0
M  V30 5018 H 491.715 3.78134 -3.31698 0
M  V30 5019 H 491.415 3.15465 -4.95738 0
M  V30 5020 H 492.939 4.01574 -4.59968 0
M  V30 5021 H 494.353 1.89416 -5.41105 0
M  V30 5022 H 492.75 1.24934 -5.86951 0
M  V30 5023 H 493.82 0.279742 -4.84092 0
M  V30 5024 N 495.163 1.55791 0.238111 0
M  V30 5025 C 496.391 1.82098 0.982233 0
M  V30 5026 C 496.806 0.612025 1.78605 0
M  V30 5027 O 496.163 -0.419381 1.77616 0
M  V30 5028 C 496.214 3.0673 1.91309 0
M  V30 5029 O 495.935 4.2296 1.14179 0
M  V30 5030 C 497.436 3.45903 2.77248 0
M  V30 5031 H 494.656 0.605748 0.288635 0
M  V30 5032 H 497.2 2.02862 0.258341 0
M  V30 5033 H 495.355 2.87991 2.59114 0
M  V30 5034 H 495.769 4.93653 1.7722 0
M  V30 5035 H 497.243 4.36189 3.38295 0
M  V30 5036 H 497.72 2.66891 3.48806 0
M  V30 5037 H 498.326 3.67024 2.14881 0
M  V30 5038 N 496.642 -0.504142 1.49319 0
M  V30 5039 C 497.605 -1.5883 1.65244 0
M  V30 5040 C 498.605 -1.52009 0.524386 0
M  V30 5041 O 499.795 -1.55218 0.79077 0
M  V30 5042 C 496.927 -2.98481 1.64687 0
M  V30 5043 H 498.12 -1.4604 2.61939 0
M  V30 5044 H 495.673 -0.728144 1.38303 0
M  V30 5045 H 496.408 -3.16751 0.695644 0
M  V30 5046 H 496.193 -3.0484 2.46607 0
M  V30 5047 H 497.683 -3.77256 1.79075 0
M  V30 5048 N 498.12 -1.38341 -0.754957 0
M  V30 5049 C 499.366 -1.34672 -1.51628 0
M  V30 5050 C 499.699 0.0636036 -1.94096 0
M  V30 5051 O 498.974 1.0245 -1.6533 0
M  V30 5052 C 499.257 -2.30116 -2.76981 0
M  V30 5053 C 499.11 -3.80003 -2.4066 0
M  V30 5054 C 500.429 -2.23715 -3.78998 0
M  V30 5055 H 497.548 -0.490517 -0.550056 0
M  V30 5056 H 500.19 -1.69178 -0.864807 0
M  V30 5057 H 498.34 -2.00821 -3.3257 0
M  V30 5058 H 500.012 -4.19966 -1.90856 0
M  V30 5059 H 498.255 -3.97751 -1.73137 0
M  V30 5060 H 498.926 -4.42244 -3.30339 0
M  V30 5061 H 501.402 -2.49574 -3.32945 0
M  V30 5062 H 500.278 -2.9261 -4.64403 0
M  V30 5063 H 500.539 -1.23554 -4.24484 0
M  V30 5064 N 499.598 0.982988 -1.23187 0
M  V30 5065 C 500.846 1.72052 -1.06031 0
M  V30 5066 C 501.167 1.90769 0.404019 0
M  V30 5067 O 500.437 1.47446 1.28982 0
M  V30 5068 H 499.017 0.637499 -0.389363 0
M  V30 5069 H 501.679 1.18338 -1.54862 0
M  V30 5070 H 500.775 2.7111 -1.54615 0
M  V30 5071 N 501.076 1.04316 1.18135 0
M  V30 5072 C 502.009 0.580823 2.20685 0
M  V30 5073 C 502.987 -0.385943 1.57953 0
M  V30 5074 O 504.171 -0.299654 1.86103 0
M  V30 5075 C 501.298 -0.151162 3.38363 0
M  V30 5076 C 500.344 0.769247 4.19505 0
M  V30 5077 S 501.177 2.25352 4.85774 0
M  V30 5078 C 502.333 1.53246 6.0685 0
M  V30 5079 H 502.566 1.44968 2.5956 0
M  V30 5080 H 500.099 0.85434 1.28609 0
M  V30 5081 H 502.057 -0.567315 4.06561 0
M  V30 5082 H 500.718 -0.995936 2.97892 0
M  V30 5083 H 499.911 0.203335 5.0359 0
M  V30 5084 H 499.513 1.12436 3.56699 0
M  V30 5085 H 501.805 0.82689 6.72435 0
M  V30 5086 H 502.748 2.35044 6.67952 0
M  V30 5087 H 503.156 1.0237 5.5514 0
M  V30 5088 N 502.554 -1.34406 0.822964 0
M  V30 5089 C 503.802 -1.97892 0.410245 0
M  V30 5090 C 504.123 -1.65567 -1.03017 0
M  V30 5091 O 503.393 -0.94642 -1.71522 0
M  V30 5092 H 501.973 -0.732049 0.148707 0
M  V30 5093 H 504.635 -1.64043 1.05242 0
M  V30 5094 H 503.731 -3.07579 0.529284 0
M  V30 5095 N 504.032 -0.577932 -1.46621 0
M  V30 5096 C 504.995 0.147805 -2.28723 0
M  V30 5097 C 505.995 0.823325 -1.38123 0
M  V30 5098 O 507.185 0.676011 -1.60548 0
M  V30 5099 C 504.317 1.21853 -3.18378 0
M  V30 5100 H 505.51 -0.573654 -2.94362 0
M  V30 5101 H 503.063 -0.335703 -1.52652 0
M  V30 5102 H 503.798 1.97173 -2.57475 0
M  V30 5103 H 503.583 0.738714 -3.85078 0
M  V30 5104 H 505.073 1.72768 -3.80186 0
M  V30 5105 N 505.51 1.54411 -0.315457 0
M  V30 5106 C 506.457 2.24048 0.554166 0
M  V30 5107 C 507.427 1.2283 1.11812 0
M  V30 5108 O 508.612 1.51491 1.15997 0
M  V30 5109 C 505.752 2.99574 1.71316 0
M  V30 5110 C 504.865 4.15594 1.17922 0
M  V30 5111 C 504 4.78669 2.30324 0
M  V30 5112 C 503.039 5.86807 1.74137 0
M  V30 5113 N 502.176 6.43777 2.8017 0
M  V30 5114 H 507.016 2.97964 -0.0462602 0
M  V30 5115 H 504.553 1.47059 -0.0346009 0
M  V30 5116 H 506.511 3.41604 2.39505 0
M  V30 5117 H 505.141 2.28008 2.285 0
M  V30 5118 H 504.193 3.78404 0.389136 0
M  V30 5119 H 505.505 4.93459 0.728012 0
M  V30 5120 H 504.659 5.23626 3.06433 0
M  V30 5121 H 503.398 4.00168 2.78778 0
M  V30 5122 H 502.403 5.41261 0.965236 0
M  V30 5123 H 503.628 6.67201 1.2657 0
M  V30 5124 H 501.574 5.68153 3.2793 0
M  V30 5125 H 501.491 7.17031 2.39588 0
M  V30 5126 H 502.759 6.9339 3.56132 0
M  V30 5127 N 506.988 0.0434614 1.5754 0
M  V30 5128 C 508.234 -0.632971 1.92669 0
M  V30 5129 C 508.567 -1.70947 0.921446 0
M  V30 5130 O 507.842 -1.94426 -0.0537202 0
M  V30 5131 C 508.125 -1.23619 3.38216 0
M  V30 5132 C 507.978 -0.168274 4.49485 0
M  V30 5133 C 509.297 -2.15008 3.84005 0
M  V30 5134 H 506.416 -0.228629 0.700641 0
M  V30 5135 H 509.058 0.103651 1.89717 0
M  V30 5136 H 507.208 -1.864 3.40863 0
M  V30 5137 H 508.88 0.463196 4.58969 0
M  V30 5138 H 507.123 0.504581 4.30855 0
M  V30 5139 H 507.794 -0.630218 5.48391 0
M  V30 5140 H 510.27 -1.62198 3.83185 0
M  V30 5141 H 509.146 -2.54161 4.86511 0
M  V30 5142 H 509.407 -3.04707 3.20322 0
M  V30 5143 N 508.466 -1.55915 -0.229846 0
M  V30 5144 C 509.376 -1.94891 -1.30593 0
M  V30 5145 C 510.392 -0.851604 -1.51736 0
M  V30 5146 O 511.568 -1.15447 -1.65027 0
M  V30 5147 C 508.633 -2.25052 -2.63728 0
M  V30 5148 C 507.694 -3.48306 -2.5096 0
M  V30 5149 C 506.927 -3.77019 -3.77747 0
M  V30 5150 O 507.15 -3.07534 -4.80395 0
M  V30 5151 O 506.084 -4.70523 -3.75356 0
M  V30 5152 H 509.91 -2.86581 -1.00525 0
M  V30 5153 H 507.495 -1.43017 -0.432025 0
M  V30 5154 H 509.377 -2.45682 -3.42372 0
M  V30 5155 H 508.052 -1.36538 -2.93495 0
M  V30 5156 H 506.959 -3.32964 -1.70546 0
M  V30 5157 H 508.292 -4.37177 -2.26136 0
M  V30 5158 N 509.944 0.496216 -1.49584 0
M  V30 5159 C 510.874 1.60576 -1.69521 0
M  V30 5160 C 511.855 1.61169 -0.543933 0
M  V30 5161 O 513.04 1.77834 -0.78031 0
M  V30 5162 C 510.17 2.99038 -1.76616 0
M  V30 5163 C 509.124 3.13312 -2.91581 0
M  V30 5164 C 508.45 4.53172 -2.83794 0
M  V30 5165 C 509.75 2.92886 -4.32452 0
M  V30 5166 H 511.444 1.44146 -2.62416 0
M  V30 5167 H 508.99 0.692024 -1.26282 0
M  V30 5168 H 510.943 3.76564 -1.8915 0
M  V30 5169 H 509.667 3.16568 -0.80324 0
M  V30 5170 H 508.326 2.38213 -2.78658 0
M  V30 5171 H 507.974 4.67585 -1.854 0
M  V30 5172 H 507.674 4.63662 -3.60958 0
M  V30 5173 H 509.198 5.32752 -2.98342 0
M  V30 5174 H 510.612 3.60178 -4.46032 0
M  V30 5175 H 509.009 3.14844 -5.10875 0
M  V30 5176 H 510.079 1.88966 -4.46565 0
M  V30 5177 N 511.423 1.38739 0.74761 0
M  V30 5178 C 512.839 1.20067 1.05148 0
M  V30 5179 C 513.039 0.0534835 2.01429 0
M  V30 5180 O 512.095 -0.59886 2.45296 0
M  V30 5181 C 513.408 2.52957 1.62584 0
M  V30 5182 C 514.956 2.59692 1.74726 0
M  V30 5183 C 515.431 3.92772 2.35573 0
M  V30 5184 N 516.922 3.94343 2.42997 0
M  V30 5185 C 517.657 4.9408 2.90985 0
M  V30 5186 N 517.153 6.04214 3.38965 0
M  V30 5187 N 518.946 4.81466 2.9008 0
M  V30 5188 H 511.097 2.12121 0.108808 0
M  V30 5189 H 513.36 0.941491 0.110899 0
M  V30 5190 H 513.066 3.37389 0.993051 0
M  V30 5191 H 512.94 2.71779 2.61565 0
M  V30 5192 H 515.327 1.75651 2.3713 0
M  V30 5193 H 515.408 2.44731 0.744326 0
M  V30 5194 H 515.052 4.77238 1.738 0
M  V30 5195 H 514.982 4.05046 3.36519 0
M  V30 5196 H 517.473 3.14799 2.0907 0
M  V30 5197 H 517.786 6.76241 3.74056 0
M  V30 5198 H 516.131 6.07825 3.37007 0
M  V30 5199 H 519.322 3.94535 2.51912 0
M  V30 5200 H 519.495 5.59344 3.27166 0
M  V30 5201 N 512.901 -0.976442 1.23707 0
M  V30 5202 C 514.147 -1.72158 1.08319 0
M  V30 5203 C 514.502 -1.88701 -0.375445 0
M  V30 5204 O 513.795 -1.43107 -1.274 0
M  V30 5205 C 513.989 -3.11814 1.74662 0
M  V30 5206 C 513.818 -3.08892 3.26827 0
M  V30 5207 C 512.588 -3.13861 3.96004 0
M  V30 5208 C 514.786 -2.9175 4.2354 0
M  V30 5209 N 512.768 -3.00867 5.35119 0
M  V30 5210 C 514.139 -2.8696 5.49595 0
M  V30 5211 C 516.194 -2.76265 4.14225 0
M  V30 5212 C 514.897 -2.68268 6.67401 0
M  V30 5213 C 516.923 -2.58938 5.317 0
M  V30 5214 C 516.285 -2.54849 6.56682 0
M  V30 5215 H 512.384 -0.638896 0.450927 0
M  V30 5216 H 514.968 -1.15835 1.56494 0
M  V30 5217 H 513.139 -3.66347 1.29014 0
M  V30 5218 H 514.871 -3.74984 1.52215 0
M  V30 5219 H 511.626 -3.22198 3.4711 0
M  V30 5220 H 512.05 -2.97634 6.08065 0
M  V30 5221 H 516.692 -2.78213 3.18366 0
M  V30 5222 H 514.41 -2.65063 7.63392 0
M  V30 5223 H 517.996 -2.47914 5.26336 0
M  V30 5224 H 516.876 -2.41611 7.46052 0
M  V30 5225 N 514.379 -1.04941 -1.1758 0
M  V30 5226 C 515.607 -0.778294 -1.91703 0
M  V30 5227 C 516.022 0.665697 -1.76675 0
M  V30 5228 O 515.379 1.45456 -1.10222 0
M  V30 5229 C 515.43 -1.14628 -3.42845 0
M  V30 5230 O 515.151 -2.53359 -3.57409 0
M  V30 5231 C 516.652 -0.900931 -4.34049 0
M  V30 5232 H 513.872 -0.283167 -0.608323 0
M  V30 5233 H 516.416 -1.39942 -1.49119 0
M  V30 5234 H 514.571 -0.569953 -3.83184 0
M  V30 5235 H 514.985 -2.67709 -4.51035 0
M  V30 5236 H 516.459 -1.20817 -5.38616 0
M  V30 5237 H 516.936 0.163966 -4.38894 0
M  V30 5238 H 517.542 -1.46097 -3.99419 0
M  V30 5239 N 515.857 1.33968 -0.830081 0
M  V30 5240 C 517.268 1.80439 -0.479455 0
M  V30 5241 C 517.619 1.68756 1.00079 0
M  V30 5242 O 516.744 1.23171 1.77927 0
M  V30 5243 C 517.339 3.27611 -0.863505 0
M  V30 5244 C 515.898 3.72133 -0.565145 0
M  V30 5245 C 515.045 2.55549 -1.07657 0
M  V30 5246 H 517.996 1.21614 -1.0196 0
M  V30 5247 H 518.017 3.8012 -0.170083 0
M  V30 5248 H 517.529 3.36082 -1.94089 0
M  V30 5249 H 515.63 3.69196 0.502536 0
M  V30 5250 H 515.743 4.65963 -1.11422 0
M  V30 5251 H 514.107 2.49788 -0.497807 0
M  V30 5252 H 514.89 2.66786 -2.16055 0
M  V30 5253 N 517.335 0.585699 1.46312 0
M  V30 5254 C 518.746 0.159938 1.86014 0
M  V30 5255 C 519.097 -1.27775 1.48889 0
M  V30 5256 O 518.222 -1.96559 0.90519 0
M  V30 5257 C 518.817 0.283485 3.37612 0
M  V30 5258 C 517.376 -0.0874256 3.76298 0
M  V30 5259 C 516.523 0.618055 2.70325 0
M  V30 5260 H 519.474 0.793737 1.37425 0
M  V30 5261 H 519.495 -0.490348 3.77327 0
M  V30 5262 H 519.007 1.32995 3.64601 0
M  V30 5263 H 517.108 -1.13391 3.54927 0
M  V30 5264 H 517.221 0.290975 4.78216 0
M  V30 5265 H 515.585 0.057993 2.54634 0
M  V30 5266 H 516.368 1.66623 3.00153 0
M  V30 5267 N 518.813 -1.54241 0.323641 0
M  V30 5268 C 519.745 -2.21836 -0.576311 0
M  V30 5269 C 520.758 -1.21837 -1.07979 0
M  V30 5270 O 521.947 -1.48306 -0.99336 0
M  V30 5271 C 519.047 -2.86923 -1.80356 0
M  V30 5272 C 518.22 -4.1306 -1.43875 0
M  V30 5273 C 517.279 -4.6174 -2.52353 0
M  V30 5274 O 516.305 -5.26421 -2.16494 0
M  V30 5275 N 517.507 -4.35974 -3.83284 0
M  V30 5276 H 520.272 -2.997 0.00247987 0
M  V30 5277 H 517.833 -1.61233 0.146848 0
M  V30 5278 H 519.825 -3.16414 -2.52318 0
M  V30 5279 H 518.395 -2.12765 -2.29019 0
M  V30 5280 H 517.615 -3.90334 -0.550752 0
M  V30 5281 H 518.903 -4.95148 -1.17071 0
M  V30 5282 H 518.301 -3.84203 -4.15216 0
M  V30 5283 H 516.858 -4.70119 -4.51477 0
M  V30 5284 N 520.291 -0.0518155 -1.57515 0
M  V30 5285 C 521.568 0.661727 -1.84067 0
M  V30 5286 C 521.948 1.88999 -0.940351 0
M  V30 5287 O 521.296 2.285 -0.00155404 0
M  V30 5288 C 521.506 1.01841 -3.3381 0
M  V30 5289 C 522.854 1.40043 -4.00841 0
M  V30 5290 O 523.878 1.11073 -3.38439 0
M  V30 5291 O 522.737 1.94111 -5.10865 0
M  V30 5292 H 519.831 0.326702 -0.759733 0
M  V30 5293 H 522.377 -0.0812277 -1.69505 0
M  V30 5294 H 521.149 0.145202 -3.91031 0
M  V30 5295 H 520.772 1.81879 -3.53562 0
M  V30 5296 N 521.769 1.56035 0.221574 0
M  V30 5297 C 522.994 1.83476 0.967026 0
M  V30 5298 C 523.419 0.632139 1.7716 0
M  V30 5299 O 522.777 -0.419082 1.7639 0
M  V30 5300 C 522.825 3.08907 1.86034 0
M  V30 5301 O 521.929 2.876 2.95567 0
M  V30 5302 H 521.27 0.604913 0.273817 0
M  V30 5303 H 523.8 2.03247 0.234893 0
M  V30 5304 H 523.81 3.3901 2.27016 0
M  V30 5305 H 522.485 3.96068 1.26898 0
M  V30 5306 H 521.062 2.6873 2.58532 0
M  V30 5307 N 523.247 -0.488276 1.49845 0
M  V30 5308 C 524.495 -1.23911 1.59657 0
M  V30 5309 C 524.816 -1.92816 0.291005 0
M  V30 5310 O 524.086 -1.83328 -0.690485 0
M  V30 5311 H 522.666 -0.460357 0.588286 0
M  V30 5312 H 525.328 -0.564794 1.86537 0
M  V30 5313 H 524.424 -1.99625 2.39909 0
M  V30 5314 N 524.725 -1.39134 -0.740242 0
M  V30 5315 C 525.973 -1.35803 -1.49673 0
M  V30 5316 C 526.294 0.0470897 -1.94943 0
M  V30 5317 O 525.564 0.997347 -1.68611 0
M  V30 5318 H 524.144 -0.499736 -0.555224 0
M  V30 5319 H 526.806 -1.73947 -0.879107 0
M  V30 5320 H 525.902 -2.0174 -2.38133 0
M  V30 5321 N 526.204 0.969867 -1.24223 0
M  V30 5322 C 527.62 1.23809 -1.00716 0
M  V30 5323 C 527.82 1.99469 0.285358 0
M  V30 5324 O 526.876 2.31764 1.00207 0
M  V30 5325 C 528.189 2.02734 -2.2208 0
M  V30 5326 C 529.737 2.15834 -2.26681 0
M  V30 5327 C 530.212 2.98154 -3.47661 0
M  V30 5328 N 531.703 3.05737 -3.47964 0
M  V30 5329 C 532.438 3.69785 -4.38231 0
M  V30 5330 N 531.934 4.35569 -5.3875 0
M  V30 5331 N 533.727 3.66775 -4.25949 0
M  V30 5332 H 525.878 0.463294 -2.07286 0
M  V30 5333 H 528.141 0.267348 -0.909521 0
M  V30 5334 H 527.847 1.54524 -3.15935 0
M  V30 5335 H 527.721 3.0347 -2.24021 0
M  V30 5336 H 530.108 2.63248 -1.33359 0
M  V30 5337 H 530.189 1.14453 -2.28767 0
M  V30 5338 H 529.833 2.51435 -4.41297 0
M  V30 5339 H 529.763 3.99729 -3.42818 0
M  V30 5340 H 532.254 2.58941 -2.75242 0
M  V30 5341 H 532.567 4.82251 -6.03866 0
M  V30 5342 H 530.912 4.34244 -5.42639 0
M  V30 5343 H 534.103 3.14558 -3.46657 0
M  V30 5344 H 534.276 4.16407 -4.96497 0
M  V30 5345 N 527.682 1.05563 1.17022 0
M  V30 5346 C 528.592 0.670758 2.24807 0
M  V30 5347 C 529.608 -0.309865 1.71219 0
M  V30 5348 O 530.784 -0.161025 2.00755 0
M  V30 5349 C 527.849 0.055337 3.46656 0
M  V30 5350 C 526.91 1.08688 4.15314 0
M  V30 5351 C 526.143 0.500736 5.31346 0
M  V30 5352 O 526.366 -0.688718 5.66227 0
M  V30 5353 O 525.3 1.23683 5.89055 0
M  V30 5354 H 529.126 1.56914 2.60023 0
M  V30 5355 H 526.711 0.827428 1.24395 0
M  V30 5356 H 528.593 -0.286492 4.20425 0
M  V30 5357 H 527.268 -0.816638 3.13229 0
M  V30 5358 H 526.175 1.48077 3.43546 0
M  V30 5359 H 527.508 1.93014 4.52777 0
M  V30 5360 N 529.16 -1.33526 0.837174 0
M  V30 5361 C 530.437 -1.92369 0.354065 0
M  V30 5362 C 530.817 -1.76348 -1.16038 0
M  V30 5363 O 530.165 -1.15083 -1.97403 0
M  V30 5364 C 530.375 -3.39728 0.799101 0
M  V30 5365 C 531.723 -4.16877 0.806139 0
M  V30 5366 O 532.747 -3.48373 0.742597 0
M  V30 5367 O 531.606 -5.39166 0.892345 0
M  V30 5368 H 528.7 -0.820952 0.0998378 0
M  V30 5369 H 531.246 -1.42409 0.922913 0
M  V30 5370 H 530.018 -3.45254 1.84162 0
M  V30 5371 H 529.641 -3.97062 0.206731 0
M  V30 5372 N 530.638 -0.59345 -1.46 0
M  V30 5373 C 531.887 -0.0808084 -2.01538 0
M  V30 5374 C 532.2 1.29112 -1.46934 0
M  V30 5375 O 533.406 1.8957 -1.94359 0
M  V30 5376 C 531.862 -0.0938311 -3.59778 0
M  V30 5377 C 531.47 -1.46474 -4.23379 0
M  V30 5378 C 533.214 0.364306 -4.22934 0
M  V30 5379 C 531.121 -1.4349 -5.73729 0
M  V30 5380 H 530.051 -0.0264407 -0.753536 0
M  V30 5381 H 532.702 -0.746689 -1.67621 0
M  V30 5382 H 531.084 0.638427 -3.9082 0
M  V30 5383 H 532.258 -2.21758 -4.03931 0
M  V30 5384 H 530.573 -1.86379 -3.7236 0
M  V30 5385 H 533.17 0.405584 -5.3316 0
M  V30 5386 H 533.513 1.38409 -3.92618 0
M  V30 5387 H 534.046 -0.31423 -3.96557 0
M  V30 5388 H 530.785 -2.43184 -6.08722 0
M  V30 5389 H 530.305 -0.724431 -5.95409 0
M  V30 5390 H 531.984 -1.15243 -6.36654 0
M  V30 5391 N 532.116 1.54067 -0.331816 0
M  V30 5392 C 533.362 2.01012 0.268667 0
M  V30 5393 C 533.695 1.2195 1.51136 0
M  V30 5394 O 532.97 0.303972 1.9211 0
M  V30 5395 C 533.253 3.55158 0.59456 0
M  V30 5396 C 533.106 4.4494 -0.659409 0
M  V30 5397 C 534.425 4.16939 1.4089 0
M  V30 5398 H 531.544 0.730698 0.0961756 0
M  V30 5399 H 534.186 1.84593 -0.450031 0
M  V30 5400 H 532.336 3.6928 1.20685 0
M  V30 5401 H 534.008 4.42675 -1.29756 0
M  V30 5402 H 532.251 4.1428 -1.28665 0
M  V30 5403 H 532.922 5.50643 -0.386804 0
M  V30 5404 H 535.398 4.06443 0.891272 0
M  V30 5405 H 534.274 5.24889 1.60569 0
M  V30 5406 H 534.535 3.70798 2.40752 0
M  V30 5407 N 533.594 0.0601682 1.57485 0
M  V30 5408 C 534.824 -0.620037 1.97076 0
M  V30 5409 C 535.232 -1.64381 0.936784 0
M  V30 5410 O 534.575 -1.83497 -0.0863377 0
M  V30 5411 C 534.637 -1.35617 3.32939 0
M  V30 5412 C 534.301 -0.487208 4.54396 0
M  V30 5413 C 535.298 0.250428 5.19297 0
M  V30 5414 C 532.983 -0.415494 5.00579 0
M  V30 5415 C 534.977 1.04812 6.28723 0
M  V30 5416 C 532.664 0.385879 6.0988 0
M  V30 5417 C 533.662 1.11637 6.73815 0
M  V30 5418 O 533.35 1.90454 7.81014 0
M  V30 5419 H 533.082 -0.173664 0.653312 0
M  V30 5420 H 535.636 0.1256 2.05016 0
M  V30 5421 H 533.866 -2.14763 3.2158 0
M  V30 5422 H 535.555 -1.92749 3.57215 0
M  V30 5423 H 536.321 0.204546 4.84568 0
M  V30 5424 H 532.2 -0.973679 4.506 0
M  V30 5425 H 535.744 1.6188 6.78558 0
M  V30 5426 H 531.641 0.433366 6.44044 0
M  V30 5427 H 532.409 1.82762 7.97835 0
M  V30 5428 N 535.072 -1.5615 -0.213296 0
M  V30 5429 C 536.297 -1.83986 -0.957282 0
M  V30 5430 C 536.722 -0.641526 -1.76822 0
M  V30 5431 O 536.08 0.409722 -1.7661 0
M  V30 5432 C 536.128 -3.09889 -1.84393 0
M  V30 5433 O 535.232 -2.89163 -2.94038 0
M  V30 5434 H 534.573 -0.606357 -0.270605 0
M  V30 5435 H 537.103 -2.03369 -0.224111 0
M  V30 5436 H 537.113 -3.40209 -2.25215 0
M  V30 5437 H 535.788 -3.96735 -1.24795 0
M  V30 5438 H 534.365 -2.70097 -2.57103 0
M  V30 5439 N 536.55 0.480323 -1.50102 0
M  V30 5440 C 537.796 1.23489 -1.60867 0
M  V30 5441 C 538.129 1.91809 -0.303827 0
M  V30 5442 O 537.404 1.81694 0.694092 0
M  V30 5443 C 537.687 2.28578 -2.78252 0
M  V30 5444 C 537.54 1.64624 -4.18592 0
M  V30 5445 C 538.859 3.2997 -2.91218 0
M  V30 5446 H 535.978 0.447605 -0.585507 0
M  V30 5447 H 538.62 0.530005 -1.82458 0
M  V30 5448 H 536.77 2.88697 -2.59974 0
M  V30 5449 H 538.442 1.08173 -4.48438 0
M  V30 5450 H 536.685 0.949645 -4.23278 0
M  V30 5451 H 537.356 2.40946 -4.96638 0
M  V30 5452 H 539.832 2.79864 -3.07921 0
M  V30 5453 H 538.708 4.00839 -3.74993 0
M  V30 5454 H 538.969 3.93541 -2.0144 0
M  V30 5455 N 538.028 1.39524 0.732853 0
M  V30 5456 C 539.256 1.40143 1.52209 0
M  V30 5457 C 539.671 -0.00348836 1.888 0
M  V30 5458 O 539.028 -0.975357 1.5425 0
M  V30 5459 C 539.079 2.27632 2.8083 0
M  V30 5460 O 538.8 3.62654 2.45792 0
M  V30 5461 C 540.301 2.36658 3.74844 0
M  V30 5462 H 537.521 0.478604 0.470297 0
M  V30 5463 H 540.065 1.83366 0.905388 0
M  V30 5464 H 538.22 1.87818 3.38826 0
M  V30 5465 H 538.634 4.08941 3.28431 0
M  V30 5466 H 540.108 3.02118 4.61984 0
M  V30 5467 H 540.585 1.38638 4.16745 0
M  V30 5468 H 541.191 2.76951 3.22766 0
M  V30 5469 N 539.506 -0.963266 1.24736 0
M  V30 5470 C 540.746 -1.72172 1.10165 0
M  V30 5471 C 541.11 -1.88731 -0.352784 0
M  V30 5472 O 542.311 -2.61549 -0.620107 0
M  V30 5473 C 540.582 -3.0724 1.82589 0
M  V30 5474 S 542.141 -3.98449 1.83803 0
M  V30 5475 H 538.959 -0.591901 0.393922 0
M  V30 5476 H 541.561 -1.14955 1.58132 0
M  V30 5477 H 540.265 -2.92851 2.87518 0
M  V30 5478 H 539.796 -3.69521 1.34973 0
M  V30 5479 H 541.811 -4.87805 0.908883 0
M  V30 5480 N 540.985 -1.06182 -1.16461 0
M  V30 5481 C 541.895 -0.682671 -2.24448 0
M  V30 5482 C 542.911 0.30078 -1.71381 0
M  V30 5483 O 544.087 0.150376 -2.00838 0
M  V30 5484 C 541.152 -0.0737202 -3.46622 0
M  V30 5485 C 540.213 -1.10889 -4.14731 0
M  V30 5486 C 539.446 -0.528908 -5.31073 0
M  V30 5487 O 539.669 0.65868 -5.66584 0
M  V30 5488 O 538.603 -1.26805 -5.88391 0
M  V30 5489 H 542.429 -1.58291 -2.59187 0
M  V30 5490 H 540.014 -0.834013 -1.23954 0
M  V30 5491 H 541.896 0.264192 -4.20571 0
M  V30 5492 H 540.571 0.800015 -3.13658 0
M  V30 5493 H 539.478 -1.49896 -3.42756 0
M  V30 5494 H 540.811 -1.95412 -4.51747 0
M  V30 5495 N 542.463 1.3308 -0.844243 0
M  V30 5496 C 543.395 2.27954 -0.238671 0
M  V30 5497 C 544.408 1.51978 0.583665 0
M  V30 5498 O 545.597 1.73731 0.409857 0
M  V30 5499 C 542.697 3.31963 0.682185 0
M  V30 5500 C 541.87 4.37281 -0.101998 0
M  V30 5501 C 540.929 5.20928 0.743022 0
M  V30 5502 O 539.955 5.68914 0.180285 0
M  V30 5503 N 541.157 5.42738 2.0595 0
M  V30 5504 H 543.922 2.8056 -1.05386 0
M  V30 5505 H 541.483 1.4583 -0.70322 0
M  V30 5506 H 543.475 3.84828 1.25259 0
M  V30 5507 H 542.045 2.79594 1.39808 0
M  V30 5508 H 541.265 3.84843 -0.853802 0
M  V30 5509 H 542.553 5.04746 -0.641015 0
M  V30 5510 H 541.951 5.05463 2.54016 0
M  V30 5511 H 540.508 5.98639 2.57827 0
M  V30 5512 N 543.941 0.601185 1.45683 0
M  V30 5513 C 545.181 0.0968037 2.04171 0
M  V30 5514 C 545.545 -1.2466 1.46027 0
M  V30 5515 O 546.746 -1.84132 1.95829 0
M  V30 5516 C 545.017 0.051384 3.57363 0
M  V30 5517 S 546.576 -0.392737 4.37039 0
M  V30 5518 H 543.394 0.0464504 0.709481 0
M  V30 5519 H 545.996 0.797846 1.78479 0
M  V30 5520 H 544.7 1.03274 3.97193 0
M  V30 5521 H 544.231 -0.671853 3.87621 0
M  V30 5522 H 546.246 -1.64364 4.68187 0
M  V30 5523 N 545.419 -1.53889 0.339982 0
M  V30 5524 C 546.665 -2.01849 -0.250694 0
M  V30 5525 C 547.02 -1.22356 -1.48482 0
M  V30 5526 O 546.313 -0.301906 -1.89206 0
M  V30 5527 C 546.507 -3.51968 -0.620735 0
M  V30 5528 C 546.336 -4.45996 0.575981 0
M  V30 5529 C 545.106 -4.93619 1.08019 0
M  V30 5530 C 547.304 -4.93923 1.43332 0
M  V30 5531 N 545.286 -5.7159 2.2396 0
M  V30 5532 C 546.657 -5.69982 2.43969 0
M  V30 5533 C 548.712 -4.76038 1.45918 0
M  V30 5534 C 547.415 -6.30057 3.47016 0
M  V30 5535 C 549.441 -5.36961 2.47845 0
M  V30 5536 C 548.803 -6.12884 3.47208 0
M  V30 5537 H 544.902 -0.780054 -0.0551368 0
M  V30 5538 H 547.486 -1.88722 0.478741 0
M  V30 5539 H 545.657 -3.65308 -1.31928 0
M  V30 5540 H 547.389 -3.86677 -1.19429 0
M  V30 5541 H 544.144 -4.69134 0.64884 0
M  V30 5542 H 544.568 -6.15247 2.82489 0
M  V30 5543 H 549.21 -4.16887 0.704608 0
M  V30 5544 H 546.928 -6.88319 4.23371 0
M  V30 5545 H 550.514 -5.2503 2.50668 0
M  V30 5546 H 549.394 -6.59187 4.24785 0
M  V30 5547 N 546.897 -0.0685191 -1.57451 0
M  V30 5548 C 548.308 0.464634 -1.80826 0
M  V30 5549 C 548.659 1.69847 -0.982169 0
M  V30 5550 O 547.784 2.15439 -0.203734 0
M  V30 5551 C 548.379 0.849721 -3.27971 0
M  V30 5552 C 546.938 1.32776 -3.52204 0
M  V30 5553 C 546.085 0.311332 -2.75547 0
M  V30 5554 H 549.036 -0.294248 -1.55948 0
M  V30 5555 H 549.057 1.71138 -3.39841 0
M  V30 5556 H 548.569 -0.0484736 -3.8807 0
M  V30 5557 H 546.67 2.24456 -2.97406 0
M  V30 5558 H 546.783 1.30794 -4.60901 0
M  V30 5559 H 545.147 0.787915 -2.42206 0
M  V30 5560 H 545.93 -0.579078 -3.38381 0
M  V30 5561 N 548.375 1.56261 0.205012 0
M  V30 5562 C 549.285 1.96944 1.27476 0
M  V30 5563 C 550.301 0.875636 1.50362 0
M  V30 5564 O 551.477 1.18058 1.6317 0
M  V30 5565 C 548.542 2.29219 2.60115 0
M  V30 5566 C 547.603 3.52255 2.45387 0
M  V30 5567 C 546.836 3.8298 3.71701 0
M  V30 5568 O 547.059 3.15138 4.75441 0
M  V30 5569 O 545.993 4.76435 3.67823 0
M  V30 5570 H 549.819 2.88144 0.959527 0
M  V30 5571 H 547.404 1.43686 0.409217 0
M  V30 5572 H 549.286 2.51098 3.3842 0
M  V30 5573 H 547.961 1.4119 2.91285 0
M  V30 5574 H 546.868 3.35635 1.65227 0
M  V30 5575 H 548.201 4.40719 2.19152 0
M  V30 5576 N 549.853 -0.472356 1.50355 0
M  V30 5577 C 551.078 -1.25251 1.65309 0
M  V30 5578 C 551.503 -1.85081 0.335643 0
M  V30 5579 O 550.861 -1.67227 -0.700335 0
M  V30 5580 C 550.909 -2.3379 2.74544 0
M  V30 5581 O 550.013 -3.38401 2.35709 0
M  V30 5582 H 549.354 -0.368539 0.552336 0
M  V30 5583 H 551.884 -0.562271 1.96722 0
M  V30 5584 H 551.894 -2.79121 2.97583 0
M  V30 5585 H 550.569 -1.89614 3.70161 0
M  V30 5586 H 549.146 -2.9879 2.23112 0
M  V30 5587 N 551.331 -1.39911 -0.725443 0
M  V30 5588 C 552.579 -1.37382 -1.48224 0
M  V30 5589 C 552.9 0.0264107 -1.94982 0
M  V30 5590 O 552.17 0.979408 -1.6966 0
M  V30 5591 H 550.75 -0.505596 -0.549892 0
M  V30 5592 H 553.412 -1.7487 -0.860608 0
M  V30 5593 H 552.508 -2.04254 -2.3598 0
M  V30 5594 N 552.809 0.956637 -1.25245 0
M  V30 5595 C 553.719 2.0868 -1.0719 0
M  V30 5596 C 554.735 1.73997 -0.00959074 0
M  V30 5597 O 555.911 2.00301 -0.210104 0
M  V30 5598 C 552.976 3.39754 -0.690526 0
M  V30 5599 C 552.037 3.88316 -1.83055 0
M  V30 5600 C 551.27 5.13134 -1.46728 0
M  V30 5601 O 551.493 5.6925 -0.362029 0
M  V30 5602 O 550.427 5.56356 -2.29677 0
M  V30 5603 H 554.253 2.26813 -2.01965 0
M  V30 5604 H 551.838 1.07098 -1.04165 0
M  V30 5605 H 553.72 4.18543 -0.489871 0
M  V30 5606 H 552.395 3.22896 0.227981 0
M  V30 5607 H 551.302 3.1054 -2.08604 0
M  V30 5608 H 552.635 4.09669 -2.72822 0
M  V30 5609 N 554.287 1.06798 1.15896 0
M  V30 5610 C 555.527 0.797041 1.8822 0
M  V30 5611 C 555.891 -0.664549 1.80133 0
M  V30 5612 O 557.092 -1.0503 2.47431 0
M  V30 5613 C 555.363 1.28431 3.33527 0
M  V30 5614 S 556.922 1.14319 4.23647 0
M  V30 5615 H 553.74 0.288988 0.649621 0
M  V30 5616 H 556.342 1.36594 1.39865 0
M  V30 5617 H 555.046 2.34286 3.36954 0
M  V30 5618 H 554.577 0.710371 3.86933 0
M  V30 5619 H 556.592 0.0772467 4.9614 0
M  V30 5620 N 555.766 -1.3263 0.851289 0
M  V30 5621 C 557.014 -1.96978 0.452128 0
M  V30 5622 C 557.335 -1.67715 -0.99482 0
M  V30 5623 O 556.605 -0.98259 -1.69476 0
M  V30 5624 H 555.185 -0.72873 0.164202 0
M  V30 5625 H 557.847 -1.61774 1.08698 0
M  V30 5626 H 556.943 -3.06387 0.594407 0
M  V30 5627 N 557.244 -0.608902 -1.45362 0
M  V30 5628 C 558.655 -0.189511 -1.85736 0
M  V30 5629 C 559.006 1.2539 -1.50903 0
M  V30 5630 O 558.131 1.95094 -0.936347 0
M  V30 5631 C 558.726 -0.33716 -3.37118 0
M  V30 5632 C 557.285 0.0275487 -3.7639 0
M  V30 5633 C 556.432 -0.660983 -2.69307 0
M  V30 5634 H 559.383 -0.815499 -1.36144 0
M  V30 5635 H 559.404 0.430257 -3.7806 0
M  V30 5636 H 558.916 -1.38779 -3.62439 0
M  V30 5637 H 557.017 1.0773 -3.56686 0
M  V30 5638 H 557.13 -0.367018 -4.77692 0
M  V30 5639 H 555.494 -0.0984958 -2.54509 0
M  V30 5640 H 556.277 -1.71377 -2.97464 0
M  V30 5641 N 558.722 1.53707 -0.348139 0
M  V30 5642 C 559.962 2.02899 0.247254 0
M  V30 5643 C 560.326 1.23033 1.47401 0
M  V30 5644 O 561.527 1.62146 2.14388 0
M  V30 5645 C 559.798 3.53156 0.549151 0
M  V30 5646 S 561.357 4.24247 1.1207 0
M  V30 5647 H 558.175 0.707213 0.0732894 0
M  V30 5648 H 560.777 1.89338 -0.486965 0
M  V30 5649 H 559.481 4.08893 -0.351435 0
M  V30 5650 H 559.012 3.70845 1.31291 0
M  V30 5651 H 561.027 4.33958 2.40613 0
M  V30 5652 N 560.2 0.0768682 1.57412 0
M  V30 5653 C 561.11 -0.903207 2.16516 0
M  V30 5654 C 562.126 -1.32341 1.12968 0
M  V30 5655 O 563.302 -1.39507 1.45258 0
M  V30 5656 C 560.367 -2.1508 2.71922 0
M  V30 5657 C 559.428 -1.78653 3.90361 0
M  V30 5658 C 558.661 -2.97465 4.43114 0
M  V30 5659 O 558.884 -4.11638 3.94854 0
M  V30 5660 O 557.818 -2.76987 5.3438 0
M  V30 5661 H 561.644 -0.430427 3.00634 0
M  V30 5662 H 559.229 -0.146485 1.4868 0
M  V30 5663 H 561.111 -2.8823 3.07411 0
M  V30 5664 H 559.786 -2.61446 1.9086 0
M  V30 5665 H 558.693 -1.0274 3.59716 0
M  V30 5666 H 560.026 -1.37066 4.7273 0
M  V30 5667 N 561.678 -1.56367 -0.196722 0
M  V30 5668 C 562.641 -1.93561 -1.22746 0
M  V30 5669 C 563.641 -0.816566 -1.38524 0
M  V30 5670 O 564.831 -1.084 -1.36363 0
M  V30 5671 C 561.963 -2.20823 -2.59712 0
M  V30 5672 H 563.156 -2.85774 -0.909586 0
M  V30 5673 H 560.709 -1.50032 -0.438174 0
M  V30 5674 H 561.444 -1.31243 -2.96557 0
M  V30 5675 H 561.229 -3.02368 -2.49632 0
M  V30 5676 H 562.719 -2.50608 -3.34044 0
M  V30 5677 N 563.156 0.464375 -1.50603 0
M  V30 5678 C 564.381 1.24372 -1.65971 0
M  V30 5679 C 564.806 1.84901 -0.345453 0
M  V30 5680 O 564.164 1.67596 0.691457 0
M  V30 5681 C 564.212 2.32331 -2.7578 0
M  V30 5682 O 563.316 3.37146 -2.375 0
M  V30 5683 H 562.657 0.365604 -0.554283 0
M  V30 5684 H 565.187 0.55183 -1.97018 0
M  V30 5685 H 565.197 2.77539 -2.99059 0
M  V30 5686 H 563.872 1.87648 -3.71162 0
M  V30 5687 H 562.449 2.97602 -2.24694 0
M  V30 5688 N 564.634 1.40294 0.718013 0
M  V30 5689 C 565.88 1.38645 1.48005 0
M  V30 5690 C 566.213 -0.0121202 1.94196 0
M  V30 5691 O 565.488 -0.980309 1.67989 0
M  V30 5692 C 565.771 2.37379 2.70782 0
M  V30 5693 C 565.624 3.8625 2.30501 0
M  V30 5694 C 566.943 2.33685 3.72933 0
M  V30 5695 H 564.062 0.504928 0.536858 0
M  V30 5696 H 566.704 1.71411 0.819649 0
M  V30 5697 H 564.854 2.09568 3.27129 0
M  V30 5698 H 566.526 4.24879 1.79655 0
M  V30 5699 H 564.769 4.02202 1.6253 0
M  V30 5700 H 565.44 4.50847 3.18498 0
M  V30 5701 H 567.916 2.58314 3.2621 0
M  V30 5702 H 566.792 3.0482 4.56482 0
M  V30 5703 H 567.053 1.34765 4.21059 0
M  V30 5704 N 566.112 -0.949982 1.2575 0
M  V30 5705 C 567.528 -1.22191 1.02672 0
M  V30 5706 C 567.728 -1.99898 -0.253588 0
M  V30 5707 O 566.784 -2.33329 -0.965076 0
M  V30 5708 C 568.097 -1.99175 2.25277 0
M  V30 5709 C 569.645 -2.12201 2.30087 0
M  V30 5710 C 570.12 -2.92586 3.5236 0
M  V30 5711 N 571.611 -3.00163 3.52784 0
M  V30 5712 C 572.346 -3.62766 4.44059 0
M  V30 5713 N 571.842 -4.26943 5.45611 0
M  V30 5714 N 573.635 -3.59953 4.3173 0
M  V30 5715 H 565.786 -0.430258 2.07996 0
M  V30 5716 H 568.049 -0.252844 0.91366 0
M  V30 5717 H 567.755 -1.49479 3.18354 0
M  V30 5718 H 567.629 -2.99868 2.28821 0
M  V30 5719 H 570.016 -2.61093 1.3753 0
M  V30 5720 H 570.097 -1.10799 2.30559 0
M  V30 5721 H 569.741 -2.44383 4.45241 0
M  V30 5722 H 569.671 -3.94224 3.49134 0
M  V30 5723 H 572.162 -2.54529 2.79327 0
M  V30 5724 H 572.475 -4.72583 6.11461 0
M  V30 5725 H 570.82 -4.25557 5.49478 0
M  V30 5726 H 574.011 -3.09003 3.51617 0
M  V30 5727 H 574.184 -4.08455 5.03059 0
M  V30 5728 N 567.59 -1.07411 -1.15328 0
M  V30 5729 C 568.82 -0.817595 -1.89734 0
M  V30 5730 C 569.228 0.63297 -1.78298 0
M  V30 5731 O 568.571 1.44594 -1.13306 0
M  V30 5732 C 568.633 -1.14748 -3.40695 0
M  V30 5733 C 568.297 -2.59876 -3.75917 0
M  V30 5734 C 569.294 -3.58122 -3.76888 0
M  V30 5735 C 566.979 -2.95469 -4.06206 0
M  V30 5736 C 568.973 -4.89996 -4.07655 0
M  V30 5737 C 566.66 -4.2754 -4.36638 0
M  V30 5738 C 567.658 -5.24614 -4.37344 0
M  V30 5739 O 567.346 -6.54312 -4.67045 0
M  V30 5740 H 567.078 -0.295175 -0.608151 0
M  V30 5741 H 569.632 -1.43409 -1.47048 0
M  V30 5742 H 567.862 -0.47395 -3.83785 0
M  V30 5743 H 569.551 -0.873397 -3.96392 0
M  V30 5744 H 570.317 -3.31966 -3.53587 0
M  V30 5745 H 566.196 -2.20558 -4.04815 0
M  V30 5746 H 569.74 -5.65759 -4.08121 0
M  V30 5747 H 565.637 -4.53449 -4.59407 0
M  V30 5748 H 566.405 -6.59473 -4.84807 0
M  V30 5749 N 569.068 1.32177 -0.85831 0
M  V30 5750 C 570.293 2.01847 -0.476718 0
M  V30 5751 C 570.718 1.64065 0.920021 0
M  V30 5752 O 570.076 0.843189 1.60499 0
M  V30 5753 C 570.124 3.55097 -0.627578 0
M  V30 5754 O 569.228 4.11012 0.338086 0
M  V30 5755 H 568.569 0.635907 -0.191099 0
M  V30 5756 H 571.099 1.68641 -1.15851 0
M  V30 5757 H 571.109 4.04718 -0.516476 0
M  V30 5758 H 569.784 3.81938 -1.64609 0
M  V30 5759 H 568.361 3.72451 0.182917 0
M  V30 5760 N 570.547 0.616602 1.45037 0
M  V30 5761 C 571.457 -0.0985401 2.34393 0
M  V30 5762 C 572.473 -0.850971 1.51771 0
M  V30 5763 O 573.649 -0.806521 1.84546 0
M  V30 5764 C 570.714 -1.07748 3.29532 0
M  V30 5765 C 569.775 -0.326022 4.2806 0
M  V30 5766 C 569.008 -1.25833 5.18654 0
M  V30 5767 O 569.231 -2.49652 5.12864 0
M  V30 5768 O 568.165 -0.750512 5.97203 0
M  V30 5769 H 571.991 0.636016 2.96966 0
M  V30 5770 H 569.576 0.376832 1.44569 0
M  V30 5771 H 571.458 -1.64107 3.88133 0
M  V30 5772 H 570.133 -1.79291 2.69512 0
M  V30 5773 H 569.04 0.280253 3.73049 0
M  V30 5774 H 570.373 0.349091 4.9096 0
M  V30 5775 N 572.025 -1.5352 0.356285 0
M  V30 5776 C 573.436 -1.86282 -0.12492 0
M  V30 5777 C 573.787 -1.27717 -1.48939 0
M  V30 5778 O 572.912 -0.595614 -2.08042 0
M  V30 5779 C 573.507 -3.37995 -0.23345 0
M  V30 5780 C 572.066 -3.70588 -0.658899 0
M  V30 5781 C 571.213 -2.76581 0.199596 0
M  V30 5782 H 574.164 -1.47901 0.575423 0
M  V30 5783 H 574.185 -3.65475 -1.0587 0
M  V30 5784 H 573.697 -3.8059 0.759776 0
M  V30 5785 H 571.798 -3.33544 -1.66069 0
M  V30 5786 H 571.911 -4.77076 -0.439957 0
M  V30 5787 H 570.275 -2.52552 -0.330076 0
M  V30 5788 H 571.058 -3.22008 1.19019 0
M  V30 5789 N 573.503 -0.0852151 -1.57369 0
M  V30 5790 C 574.914 0.445428 -1.81309 0
M  V30 5791 C 575.265 1.68795 -1.00013 0
M  V30 5792 O 574.39 2.15211 -0.226573 0
M  V30 5793 C 574.985 0.814887 -3.28854 0
M  V30 5794 C 573.544 1.29032 -3.53592 0
M  V30 5795 C 572.691 0.282089 -2.75861 0
M  V30 5796 H 575.642 -0.310771 -1.55627 0
M  V30 5797 H 575.663 1.67524 -3.41637 0
M  V30 5798 H 575.175 -0.0896309 -3.87996 0
M  V30 5799 H 573.276 2.21289 -2.9977 0
M  V30 5800 H 573.389 1.25898 -4.62262 0
M  V30 5801 H 571.753 0.762182 -2.43029 0
M  V30 5802 H 572.536 -0.614936 -3.37748 0
M  V30 5803 N 574.981 1.5647 0.188427 0
M  V30 5804 C 575.931 1.91479 1.23774 0
M  V30 5805 C 576.915 0.78119 1.40664 0
M  V30 5806 O 578.107 1.04414 1.42922 0
M  V30 5807 C 575.236 2.26354 2.58106 0
M  V30 5808 C 574.322 3.46186 2.44981 0
M  V30 5809 N 574.713 4.63911 2.01546 0
M  V30 5810 C 573.011 3.50456 2.75856 0
M  V30 5811 C 573.712 5.46064 2.00472 0
M  V30 5812 N 572.688 4.86648 2.42229 0
M  V30 5813 H 576.49 2.79994 0.893339 0
M  V30 5814 H 574.004 1.57477 0.39682 0
M  V30 5815 H 576.001 2.49622 3.33908 0
M  V30 5816 H 574.661 1.39168 2.93364 0
M  V30 5817 H 575.672 4.88451 1.7215 0
M  V30 5818 H 572.349 2.73704 3.15265 0
M  V30 5819 H 573.739 6.50368 1.68734 0
M  V30 5820 N 576.459 -0.456382 1.50847 0
M  V30 5821 C 577.707 -1.20497 1.62249 0
M  V30 5822 C 578.028 -1.92156 0.331839 0
M  V30 5823 O 577.298 -1.84751 -0.651443 0
M  V30 5824 H 575.878 -0.447775 0.597918 0
M  V30 5825 H 578.54 -0.525099 1.87693 0
M  V30 5826 H 577.636 -1.94492 2.44089 0
M  V30 5827 N 577.937 -1.40673 -0.710563 0
M  V30 5828 C 578.867 -1.44095 -1.83736 0
M  V30 5829 C 579.848 -0.301286 -1.67411 0
M  V30 5830 O 581.033 -0.510618 -1.87367 0
M  V30 5831 C 578.163 -1.30773 -3.21738 0
M  V30 5832 C 577.117 -2.42395 -3.52745 0
M  V30 5833 C 576.443 -2.14147 -4.89944 0
M  V30 5834 C 577.743 -3.84738 -3.53234 0
M  V30 5835 H 579.437 -2.38396 -1.81129 0
M  V30 5836 H 576.983 -1.14746 -0.870017 0
M  V30 5837 H 578.936 -1.31783 -4.00264 0
M  V30 5838 H 577.66 -0.329507 -3.24934 0
M  V30 5839 H 576.319 -2.40643 -2.76562 0
M  V30 5840 H 575.967 -1.14703 -4.89747 0
M  V30 5841 H 575.667 -2.88934 -5.11655 0
M  V30 5842 H 577.191 -2.16848 -5.70797 0
M  V30 5843 H 578.605 -3.88286 -4.2179 0
M  V30 5844 H 577.002 -4.59085 -3.86473 0
M  V30 5845 H 578.072 -4.13962 -2.52514 0
M  V30 5846 N 579.415 0.9433 -1.26252 0
M  V30 5847 C 580.643 1.72367 -1.14443 0
M  V30 5848 C 581.058 1.86392 0.300572 0
M  V30 5849 O 580.415 1.36978 1.20596 0
M  V30 5850 C 580.466 3.13155 -1.806 0
M  V30 5851 O 580.187 2.99803 -3.19452 0
M  V30 5852 C 581.688 4.07417 -1.74717 0
M  V30 5853 H 578.908 0.539758 -0.398626 0
M  V30 5854 H 581.452 1.18268 -1.66832 0
M  V30 5855 H 579.607 3.64162 -1.32154 0
M  V30 5856 H 580.021 3.88697 -3.52158 0
M  V30 5857 H 581.495 5.03773 -2.25647 0
M  V30 5858 H 581.972 4.3337 -0.713244 0
M  V30 5859 H 582.578 3.6233 -2.22704 0
M  V30 5860 N 580.893 1.08022 1.14757 0
M  V30 5861 C 582.309 0.807072 1.3769 0
M  V30 5862 C 582.509 -0.585504 1.92806 0
M  V30 5863 O 581.565 -1.34301 2.13821 0
M  V30 5864 C 582.878 1.88651 2.34161 0
M  V30 5865 C 584.426 1.91206 2.47809 0
M  V30 5866 C 584.901 2.98253 3.47576 0
M  V30 5867 N 586.392 2.974 3.55117 0
M  V30 5868 C 587.127 3.76872 4.32152 0
M  V30 5869 N 586.623 4.66212 5.12463 0
M  V30 5870 N 588.416 3.6519 4.27309 0
M  V30 5871 H 580.567 1.97824 0.77326 0
M  V30 5872 H 582.83 0.85826 0.402608 0
M  V30 5873 H 582.536 2.88749 2.00791 0
M  V30 5874 H 582.41 1.75244 3.3402 0
M  V30 5875 H 584.797 0.917564 2.80472 0
M  V30 5876 H 584.878 2.08691 1.47925 0
M  V30 5877 H 584.522 3.97907 3.15646 0
M  V30 5878 H 584.452 2.78014 4.47231 0
M  V30 5879 H 586.943 2.32643 2.97801 0
M  V30 5880 H 587.256 5.23468 5.68508 0
M  V30 5881 H 585.601 4.70257 5.11745 0
M  V30 5882 H 588.792 2.94765 3.63636 0
M  V30 5883 H 588.965 4.27366 4.87095 0
M  V30 5884 N 582.371 -1.3172 0.865308 0
M  V30 5885 C 583.599 -2.01057 0.488251 0
M  V30 5886 C 584.014 -1.64979 -0.918 0
M  V30 5887 O 583.371 -0.876597 -1.60069 0
M  V30 5888 C 583.422 -3.55964 0.630224 0
M  V30 5889 O 583.143 -3.90749 1.98109 0
M  V30 5890 C 584.644 -4.42574 0.253567 0
M  V30 5891 H 581.864 -0.64332 0.190736 0
M  V30 5892 H 584.408 -1.68058 1.16519 0
M  V30 5893 H 582.563 -3.874 0.000895422 0
M  V30 5894 H 582.977 -4.85467 1.9855 0
M  V30 5895 H 584.451 -5.50521 0.403875 0
M  V30 5896 H 584.928 -4.31724 -0.806895 0
M  V30 5897 H 585.534 -4.16547 0.858404 0
M  V30 5898 N 583.85 -0.624285 -1.44708 0
M  V30 5899 C 585.075 -0.131171 -2.06985 0
M  V30 5900 C 585.5 1.18234 -1.46295 0
M  V30 5901 O 584.858 1.72375 -0.561842 0
M  V30 5902 C 584.906 -0.0226724 -3.60593 0
M  V30 5903 O 584.01 1.02314 -3.99507 0
M  V30 5904 H 583.351 -0.0816556 -0.65896 0
M  V30 5905 H 585.88 -0.859027 -1.85693 0
M  V30 5906 H 585.891 0.170138 -4.07645 0
M  V30 5907 H 584.566 -0.981685 -4.04148 0
M  V30 5908 H 583.143 0.805452 -3.64097 0
M  V30 5909 N 585.328 1.53329 -0.364422 0
M  V30 5910 C 586.574 2.01537 0.225969 0
M  V30 5911 C 586.907 1.25128 1.48515 0
M  V30 5912 O 586.182 0.344653 1.91422 0
M  V30 5913 C 586.465 3.56339 0.519092 0
M  V30 5914 C 586.318 4.43441 -0.753639 0
M  V30 5915 C 587.637 4.19833 1.32015 0
M  V30 5916 H 584.756 0.732573 0.0806548 0
M  V30 5917 H 587.398 1.83597 -0.489084 0
M  V30 5918 H 585.548 3.71756 1.12825 0
M  V30 5919 H 587.22 4.39823 -1.39116 0
M  V30 5920 H 585.463 4.11457 -1.37424 0
M  V30 5921 H 586.134 5.49699 -0.503517 0
M  V30 5922 H 588.61 4.08242 0.804859 0
M  V30 5923 H 587.486 5.28177 1.49399 0
M  V30 5924 H 587.747 3.75821 2.32832 0
M  V30 5925 N 586.806 0.0935595 1.57322 0
M  V30 5926 C 588.034 -0.578934 1.98635 0
M  V30 5927 C 588.449 -1.61819 0.972626 0
M  V30 5928 O 587.806 -1.82461 -0.0379638 0
M  V30 5929 C 587.857 -1.22802 3.40003 0
M  V30 5930 O 587.578 -0.230334 4.37494 0
M  V30 5931 C 589.079 -1.98627 3.96311 0
M  V30 5932 H 586.299 -0.155324 0.652775 0
M  V30 5933 H 588.843 0.172393 2.03772 0
M  V30 5934 H 586.998 -1.93029 3.35885 0
M  V30 5935 H 587.412 -0.698649 5.19826 0
M  V30 5936 H 588.886 -2.39405 4.97382 0
M  V30 5937 H 589.363 -2.85151 3.34044 0
M  V30 5938 H 589.969 -1.3322 4.03897 0
M  V30 5939 N 588.284 -1.56567 -0.180126 0
M  V30 5940 C 589.53 -1.81761 -0.899497 0
M  V30 5941 C 589.863 -0.670015 -1.82276 0
M  V30 5942 O 589.138 0.328575 -1.91705 0
M  V30 5943 C 589.421 -3.17296 -1.7028 0
M  V30 5944 C 589.274 -4.4257 -0.803255 0
M  V30 5945 C 590.593 -3.49678 -2.67233 0
M  V30 5946 H 587.712 -0.661192 -0.325567 0
M  V30 5947 H 590.354 -1.89272 -0.16612 0
M  V30 5948 H 588.504 -3.11023 -2.32802 0
M  V30 5949 H 590.176 -4.60902 -0.191585 0
M  V30 5950 H 588.419 -4.33658 -0.110796 0
M  V30 5951 H 589.09 -5.33935 -1.40064 0
M  V30 5952 H 591.566 -3.56347 -2.14839 0
M  V30 5953 H 590.442 -4.45605 -3.20511 0
M  V30 5954 H 590.703 -2.73932 -3.47007 0
M  V30 5955 N 589.762 0.448376 -1.51087 0
M  V30 5956 C 590.987 1.22605 -1.6728 0
M  V30 5957 C 591.412 1.84524 -0.365045 0
M  V30 5958 O 590.77 1.6832 0.673642 0
M  V30 5959 C 590.818 2.29393 -2.78229 0
M  V30 5960 O 589.922 3.34608 -2.41063 0
M  V30 5961 H 589.263 0.359705 -0.558129 0
M  V30 5962 H 591.793 0.530903 -1.97592 0
M  V30 5963 H 591.803 2.74352 -3.01986 0
M  V30 5964 H 590.478 1.83701 -3.73131 0
M  V30 5965 H 589.055 2.95202 -2.27838 0
M  V30 5966 N 591.24 1.41047 0.703093 0
M  V30 5967 C 592.517 1.30493 1.45708 0
M  V30 5968 C 592.897 -0.0709892 2.10981 0
M  V30 5969 O 592.245 -1.08471 2.01113 0
M  V30 5970 C 592.455 2.45287 2.48265 0
M  V30 5971 C 593.803 2.86104 3.13735 0
M  V30 5972 O 594.827 2.44971 2.58587 0
M  V30 5973 O 593.686 3.57206 4.13601 0
M  V30 5974 H 590.78 0.513144 0.648546 0
M  V30 5975 H 593.326 1.52995 0.734208 0
M  V30 5976 H 592.098 3.37135 1.98635 0
M  V30 5977 H 591.721 2.24622 3.28071 0
M  V30 5978 N 592.718 -0.936591 1.26751 0
M  V30 5979 C 593.648 -2.05315 1.11212 0
M  V30 5980 C 594.629 -1.70092 0.0160262 0
M  V30 5981 O 595.814 -1.93279 0.188894 0
M  V30 5982 C 592.944 -3.39123 0.749171 0
M  V30 5983 C 591.898 -3.88425 1.79751 0
M  V30 5984 C 591.224 -5.18936 1.28876 0
M  V30 5985 C 592.524 -4.12798 3.19992 0
M  V30 5986 H 594.218 -2.18573 2.04613 0
M  V30 5987 H 591.764 -1.05027 0.985159 0
M  V30 5988 H 593.717 -4.16704 0.627323 0
M  V30 5989 H 592.441 -3.25855 -0.220543 0
M  V30 5990 H 591.1 -3.13028 1.90811 0
M  V30 5991 H 590.748 -5.02051 0.308757 0
M  V30 5992 H 590.448 -5.52892 1.98958 0
M  V30 5993 H 591.972 -5.99096 1.17967 0
M  V30 5994 H 593.386 -4.80977 3.11983 0
M  V30 5995 H 591.783 -4.58044 3.87705 0
M  V30 5996 H 592.853 -3.18412 3.65707 0
M  V30 5997 N 594.196 -1.08629 -1.14182 0
M  V30 5998 C 595.106 -0.730126 -2.22949 0
M  V30 5999 C 596.122 0.26436 -1.7198 0
M  V30 6000 O 597.298 0.107742 -2.01112 0
M  V30 6001 C 594.363 -0.147227 -3.46387 0
M  V30 6002 C 593.424 -1.19662 -4.12286 0
M  V30 6003 C 592.657 -0.641437 -5.29831 0
M  V30 6004 O 592.88 0.538351 -5.67854 0
M  V30 6005 O 591.814 -1.39257 -5.85569 0
M  V30 6006 H 595.64 -1.63753 -2.55771 0
M  V30 6007 H 593.225 -0.860118 -1.22157 0
M  V30 6008 H 595.107 0.174923 -4.21037 0
M  V30 6009 H 593.782 0.733304 -3.15285 0
M  V30 6010 H 592.689 -1.57133 -3.395 0
M  V30 6011 H 594.022 -2.0495 -4.475 0
M  V30 6012 N 595.674 1.31259 -0.872281 0
M  V30 6013 C 597.085 1.78822 -0.536617 0
M  V30 6014 C 597.436 1.71855 0.946594 0
M  V30 6015 O 596.561 1.28769 1.73918 0
M  V30 6016 C 597.156 3.24698 -0.967294 0
M  V30 6017 C 595.715 3.70147 -0.683251 0
M  V30 6018 C 594.862 2.51994 -1.15733 0
M  V30 6019 H 597.813 1.18308 -1.05777 0
M  V30 6020 H 597.834 3.79386 -0.290929 0
M  V30 6021 H 597.346 3.29737 -2.04683 0
M  V30 6022 H 595.447 3.70607 0.384825 0
M  V30 6023 H 595.56 4.62183 -1.2619 0
M  V30 6024 H 593.924 2.48078 -0.577024 0
M  V30 6025 H 594.707 2.59778 -2.24434 0
M  V30 6026 N 597.152 0.631951 1.44375 0
M  V30 6027 C 598.102 -0.0943862 2.27805 0
M  V30 6028 C 599.086 -0.815359 1.38711 0
M  V30 6029 O 600.278 -0.701331 1.62513 0
M  V30 6030 C 597.407 -1.07472 3.26044 0
M  V30 6031 C 596.493 -0.353329 4.22626 0
M  V30 6032 N 596.884 0.618512 5.02004 0
M  V30 6033 C 595.182 -0.597662 4.41977 0
M  V30 6034 C 595.883 1.0448 5.7224 0
M  V30 6035 N 594.859 0.383413 5.42246 0
M  V30 6036 H 598.661 0.651672 2.86584 0
M  V30 6037 H 596.175 0.45752 1.55822 0
M  V30 6038 H 598.172 -1.60969 3.84571 0
M  V30 6039 H 596.832 -1.82107 2.68825 0
M  V30 6040 H 597.843 0.996356 5.08226 0
M  V30 6041 H 594.52 -1.32682 3.95856 0
M  V30 6042 H 595.91 1.84773 6.45994 0
M  V30 6043 N 598.631 -1.53133 0.372548 0
M  V30 6044 C 599.564 -2.22328 -0.514361 0
M  V30 6045 C 600.542 -1.21776 -1.07747 0
M  V30 6046 O 601.726 -1.50704 -1.13228 0
M  V30 6047 C 598.853 -2.92343 -1.71035 0
M  V30 6048 C 597.899 -4.07026 -1.27405 0
M  V30 6049 S 598.732 -5.34821 -0.269526 0
M  V30 6050 C 599.888 -6.08352 -1.47168 0
M  V30 6051 H 600.121 -2.9721 0.0732683 0
M  V30 6052 H 597.654 -1.53603 0.156673 0
M  V30 6053 H 599.612 -3.33296 -2.39634 0
M  V30 6054 H 598.273 -2.17173 -2.26925 0
M  V30 6055 H 597.466 -4.55056 -2.16656 0
M  V30 6056 H 597.068 -3.68001 -0.66719 0
M  V30 6057 H 599.36 -6.33507 -2.40157 0
M  V30 6058 H 600.303 -7.0053 -1.03263 0
M  V30 6059 H 600.711 -5.38893 -1.6809 0
M  V30 6060 N 600.109 -0.101901 -1.5727 0
M  V30 6061 C 601.057 0.872034 -2.15635 0
M  V30 6062 C 602.051 1.28742 -1.10099 0
M  V30 6063 O 603.257 1.26116 -1.28432 0
M  V30 6064 H 599.632 0.299269 -0.689886 0
M  V30 6065 H 601.603 0.355137 -2.96279 0
M  V30 6066 C 600.352 2.11886 -2.7568 0
M  V30 6067 H 599.675 1.80813 -3.56576 0
M  V30 6068 H 601.115 2.78077 -3.20077 0
M  V30 6069 C 599.574 2.89739 -1.7191 0
M  V30 6070 O 600.104 3.84522 -1.16213 0
M  V30 6071 N 598.31 2.53407 -1.42245 0
M  V30 6072 H 597.857 1.76398 -1.87727 0
M  V30 6073 H 597.815 3.05795 -0.730529 0
M  V30 6074 N 601.587 1.56661 0.17182 0
M  V30 6075 C 602.817 1.85831 0.902804 0
M  V30 6076 C 603.225 0.685157 1.76358 0
M  V30 6077 O 602.568 -0.354947 1.80238 0
M  V30 6078 C 602.63 3.09406 1.83053 0
M  V30 6079 C 602.294 4.4231 1.1494 0
M  V30 6080 C 603.291 5.17342 0.515104 0
M  V30 6081 C 600.976 4.89045 1.14631 0
M  V30 6082 C 602.97 6.37299 -0.113194 0
M  V30 6083 C 600.657 6.08933 0.514184 0
M  V30 6084 C 601.655 6.82904 -0.114463 0
M  V30 6085 O 601.343 8.00518 -0.736622 0
M  V30 6086 H 601.075 0.620715 0.267748 0
M  V30 6087 H 603.629 2.04637 0.176918 0
M  V30 6088 H 601.859 2.86544 2.59672 0
M  V30 6089 H 603.548 3.25027 2.4313 0
M  V30 6090 H 604.314 4.82317 0.509474 0
M  V30 6091 H 600.193 4.31409 1.62502 0
M  V30 6092 H 603.737 6.94976 -0.604477 0
M  V30 6093 H 599.634 6.43423 0.517395 0
M  V30 6094 H 600.402 8.16027 -0.635822 0
M  V30 6095 N 603.065 -0.440357 1.51323 0
M  V30 6096 C 604.293 -1.21255 1.67645 0
M  V30 6097 C 604.708 -1.85088 0.37252 0
M  V30 6098 O 604.065 -1.70582 -0.648683 0
M  V30 6099 C 604.116 -2.29881 2.78993 0
M  V30 6100 O 603.837 -1.68659 4.04334 0
M  V30 6101 C 605.338 -3.20214 3.06558 0
M  V30 6102 H 602.558 -0.36558 0.562666 0
M  V30 6103 H 605.102 -0.52214 1.97722 0
M  V30 6104 H 603.257 -2.94643 2.51524 0
M  V30 6105 H 603.671 -2.40426 4.6615 0
M  V30 6106 H 605.145 -3.92575 3.88058 0
M  V30 6107 H 605.622 -3.80794 2.18844 0
M  V30 6108 H 606.228 -2.61156 3.35675 0
M  V30 6109 N 604.543 -1.41418 -0.695603 0
M  V30 6110 C 605.79 -1.40774 -1.45564 0
M  V30 6111 C 606.118 -0.0168604 -1.94493 0
M  V30 6112 O 605.373 0.971259 -1.69897 0
M  V30 6113 C 605.672 -2.36112 -2.68302 0
M  V30 6114 C 605.338 -3.82952 -2.38031 0
M  V30 6115 C 604 -4.22954 -2.29486 0
M  V30 6116 C 606.352 -4.75662 -2.13061 0
M  V30 6117 C 603.68 -5.53674 -1.94067 0
M  V30 6118 C 606.032 -6.06702 -1.79151 0
M  V30 6119 C 604.696 -6.45725 -1.69102 0
M  V30 6120 H 603.966 -0.515128 -0.532658 0
M  V30 6121 H 606.613 -1.74216 -0.795047 0
M  V30 6122 H 604.918 -1.95924 -3.39295 0
M  V30 6123 H 606.615 -2.32887 -3.26442 0
M  V30 6124 H 603.205 -3.5127 -2.45576 0
M  V30 6125 H 607.389 -4.45561 -2.18608 0
M  V30 6126 H 602.645 -5.8279 -1.8484 0
M  V30 6127 H 606.819 -6.78041 -1.5885 0
M  V30 6128 H 604.446 -7.46929 -1.41426 0
M  V30 6129 N 606.021 0.929856 -1.27246 0
M  V30 6130 C 607.249 1.71144 -1.16265 0
M  V30 6131 C 607.664 1.867 0.280786 0
M  V30 6132 O 607.021 1.38249 1.19136 0
M  V30 6133 C 607.072 3.11222 -1.83911 0
M  V30 6134 O 606.793 2.96398 -3.22614 0
M  V30 6135 C 608.294 4.05541 -1.79028 0
M  V30 6136 H 605.514 0.535499 -0.404328 0
M  V30 6137 H 608.058 1.16492 -1.68077 0
M  V30 6138 H 606.213 3.6274 -1.36009 0
M  V30 6139 H 606.627 3.8494 -3.56261 0
M  V30 6140 H 608.101 5.01351 -2.30978 0
M  V30 6141 H 608.578 4.32589 -0.759168 0
M  V30 6142 H 609.184 3.59947 -2.26535 0
M  V30 6143 N 607.499 1.09233 1.13605 0
M  V30 6144 C 608.745 0.828385 1.8511 0
M  V30 6145 C 609.078 -0.64437 1.83198 0
M  V30 6146 O 608.353 -1.47428 1.26867 0
M  V30 6147 C 608.636 1.36167 3.33363 0
M  V30 6148 C 608.489 2.90038 3.438 0
M  V30 6149 C 609.808 0.993819 4.28732 0
M  V30 6150 H 606.927 0.30239 0.672108 0
M  V30 6151 H 609.569 1.35339 1.33355 0
M  V30 6152 H 607.719 0.9151 3.77569 0
M  V30 6153 H 609.391 3.43128 3.08319 0
M  V30 6154 H 607.634 3.27271 2.84739 0
M  V30 6155 H 608.305 3.22428 4.48045 0
M  V30 6156 H 610.781 1.37893 3.92587 0
M  V30 6157 H 609.657 1.39403 5.30903 0
M  V30 6158 H 609.918 -0.0982206 4.41991 0
M  V30 6159 N 608.977 -1.30795 0.87923 0
M  V30 6160 C 609.887 -2.32041 0.345565 0
M  V30 6161 C 610.903 -1.65103 -0.549265 0
M  V30 6162 O 612.079 -1.9645 -0.443763 0
M  V30 6163 C 609.144 -3.43944 -0.436245 0
M  V30 6164 C 608.205 -4.26521 0.48765 0
M  V30 6165 C 607.438 -5.33081 -0.256943 0
M  V30 6166 O 607.661 -5.50762 -1.48381 0
M  V30 6167 O 606.595 -6.00635 0.389985 0
M  V30 6168 H 610.421 -2.79627 1.18501 0
M  V30 6169 H 608.006 -1.3486 0.642885 0
M  V30 6170 H 609.888 -4.12128 -0.879119 0
M  V30 6171 H 608.563 -2.98504 -1.25208 0
M  V30 6172 H 607.47 -3.61057 0.979216 0
M  V30 6173 H 608.803 -4.75551 1.26933 0
M  V30 6174 N 610.455 -0.639598 -1.44038 0
M  V30 6175 C 611.418 0.0506628 -2.29144 0
M  V30 6176 C 612.418 0.764001 -1.41491 0
M  V30 6177 O 613.608 0.607309 -1.63271 0
M  V30 6178 C 610.74 1.0824 -3.2326 0
M  V30 6179 H 611.933 -0.697987 -2.91664 0
M  V30 6180 H 609.486 -0.400146 -1.51091 0
M  V30 6181 H 610.221 1.86075 -2.65606 0
M  V30 6182 H 610.006 0.574725 -3.87865 0
M  V30 6183 H 611.496 1.56487 -3.87171 0
M  V30 6184 N 611.933 1.52934 -0.380664 0
M  V30 6185 C 613.349 1.59571 -0.0302429 0
M  V30 6186 C 613.549 1.39509 1.45394 0
M  V30 6187 O 612.605 1.20777 2.21741 0
M  V30 6188 C 613.918 2.96519 -0.499691 0
M  V30 6189 C 615.466 3.09672 -0.455204 0
M  V30 6190 C 615.941 4.49056 -0.900703 0
M  V30 6191 N 617.432 4.55215 -0.856367 0
M  V30 6192 C 618.167 5.61282 -1.17259 0
M  V30 6193 N 617.663 6.75035 -1.55885 0
M  V30 6194 N 619.456 5.51343 -1.0944 0
M  V30 6195 H 611.607 1.64224 -1.347 0
M  V30 6196 H 613.87 0.771033 -0.551554 0
M  V30 6197 H 613.576 3.16388 -1.53595 0
M  V30 6198 H 613.45 3.77052 0.105789 0
M  V30 6199 H 615.837 2.89504 0.571949 0
M  V30 6200 H 615.918 2.31113 -1.09638 0
M  V30 6201 H 615.562 4.69964 -1.92604 0
M  V30 6202 H 615.492 5.26068 -0.236629 0
M  V30 6203 H 617.983 3.73546 -0.572013 0
M  V30 6204 H 618.296 7.51926 -1.784 0
M  V30 6205 H 616.641 6.76388 -1.59764 0
M  V30 6206 H 619.832 4.61356 -0.791713 0
M  V30 6207 H 620.005 6.33905 -1.34417 0
M  V30 6208 N 613.412 0.11024 1.57214 0
M  V30 6209 C 614.36 -0.860586 2.16094 0
M  V30 6210 C 615.354 -1.28156 1.1078 0
M  V30 6211 O 616.56 -1.25433 1.29099 0
M  V30 6212 H 612.935 -0.295606 0.691463 0
M  V30 6213 H 614.906 -0.33942 2.96463 0
M  V30 6214 C 613.655 -2.10421 2.768 0
M  V30 6215 H 612.978 -1.7892 3.5753 0
M  V30 6216 H 614.418 -2.76375 3.21547 0
M  V30 6217 C 612.877 -2.88823 1.73444 0
M  V30 6218 O 613.407 -3.839 1.18251 0
M  V30 6219 N 611.613 -2.52649 1.43586 0
M  V30 6220 H 611.16 -1.754 1.8866 0
M  V30 6221 H 611.118 -3.05403 0.746735 0
M  V30 6222 N 614.89 -1.56749 -0.16351 0
M  V30 6223 C 616.138 -1.82074 -0.87713 0
M  V30 6224 C 616.459 -0.688503 -1.82441 0
M  V30 6225 O 615.729 0.291085 -1.93725 0
M  V30 6226 H 614.309 -0.671677 -0.326893 0
M  V30 6227 H 616.971 -1.9423 -0.161459 0
M  V30 6228 H 616.067 -2.76407 -1.44934 0
M  V30 6229 N 616.368 0.432326 -1.51554 0
M  V30 6230 C 617.614 1.18309 -1.64714 0
M  V30 6231 C 617.947 1.90745 -0.364696 0
M  V30 6232 O 617.222 1.8381 0.635936 0
M  V30 6233 C 617.505 2.1961 -2.85383 0
M  V30 6234 C 617.358 1.51223 -4.23617 0
M  V30 6235 C 618.677 3.20538 -3.01569 0
M  V30 6236 H 615.796 0.428751 -0.599451 0
M  V30 6237 H 618.438 0.471689 -1.84052 0
M  V30 6238 H 616.588 2.8028 -2.69027 0
M  V30 6239 H 618.26 0.938516 -4.51652 0
M  V30 6240 H 616.503 0.814501 -4.26085 0
M  V30 6241 H 617.174 2.25024 -5.04052 0
M  V30 6242 H 619.65 2.69926 -3.16669 0
M  V30 6243 H 618.526 3.88706 -3.87555 0
M  V30 6244 H 618.787 3.86933 -2.13859 0
M  V30 6245 N 617.846 1.41785 0.688094 0
M  V30 6246 C 619.071 1.45117 1.48175 0
M  V30 6247 C 619.496 0.060129 1.88004 0
M  V30 6248 O 618.854 -0.938385 1.55126 0
M  V30 6249 C 618.902 2.37224 2.71583 0
M  V30 6250 O 618.006 1.83443 3.69354 0
M  V30 6251 H 617.347 0.492208 0.445676 0
M  V30 6252 H 619.877 1.86329 0.845145 0
M  V30 6253 H 619.887 2.53353 3.19806 0
M  V30 6254 H 618.562 3.38293 2.41931 0
M  V30 6255 H 617.139 1.76802 3.28322 0
M  V30 6256 N 619.324 -0.923095 1.27737 0
M  V30 6257 C 620.572 -1.66797 1.14119 0
M  V30 6258 C 620.893 -1.92479 -0.312541 0
M  V30 6259 O 620.163 -1.53432 -1.218 0
M  V30 6260 H 618.743 -0.618196 0.419336 0
M  V30 6261 H 621.405 -1.10815 1.60331 0
M  V30 6262 H 620.501 -2.63424 1.67374 0
M  V30 6263 N 620.802 -1.09834 -1.13024 0
M  V30 6264 C 621.732 -0.763451 -2.20666 0
M  V30 6265 C 622.713 0.260778 -1.68089 0
M  V30 6266 O 623.898 0.127915 -1.93778 0
M  V30 6267 C 621.028 -0.187744 -3.46792 0
M  V30 6268 C 619.982 -1.14196 -4.12484 0
M  V30 6269 C 619.308 -0.427755 -5.32986 0
M  V30 6270 C 620.608 -2.48607 -4.59338 0
M  V30 6271 H 622.302 -1.66347 -2.48936 0
M  V30 6272 H 619.848 -0.801261 -1.19649 0
M  V30 6273 H 621.801 0.0586375 -4.21359 0
M  V30 6274 H 620.525 0.747485 -3.17931 0
M  V30 6275 H 619.184 -1.37369 -3.3989 0
M  V30 6276 H 618.832 0.511747 -5.0039 0
M  V30 6277 H 618.532 -1.06403 -5.77886 0
M  V30 6278 H 620.056 -0.189772 -6.10305 0
M  V30 6279 H 621.47 -2.29618 -5.25308 0
M  V30 6280 H 619.867 -3.08062 -5.14993 0
M  V30 6281 H 620.937 -3.09062 -3.73642 0
M  V30 6282 N 622.28 1.30327 -0.886154 0
M  V30 6283 C 623.526 1.96388 -0.505941 0
M  V30 6284 C 623.859 1.69784 0.942712 0
M  V30 6285 O 623.134 1.00322 1.6663 0
M  V30 6286 C 623.417 3.51488 -0.782826 0
M  V30 6287 C 623.27 3.87603 -2.28219 0
M  V30 6288 C 624.589 4.39331 -0.260128 0
M  V30 6289 H 621.708 0.713327 -0.185292 0
M  V30 6290 H 624.35 1.54178 -1.11036 0
M  V30 6291 H 622.5 3.87572 -0.268399 0
M  V30 6292 H 624.172 3.61537 -2.86512 0
M  V30 6293 H 622.415 3.3563 -2.74837 0
M  V30 6294 H 623.086 4.95806 -2.42653 0
M  V30 6295 H 625.562 4.10162 -0.700444 0
M  V30 6296 H 624.438 5.46769 -0.483179 0
M  V30 6297 H 624.699 4.34072 0.838674 0
M  V30 6298 N 623.758 0.647228 1.43697 0
M  V30 6299 C 624.986 0.16575 2.06235 0
M  V30 6300 C 625.401 -1.1662 1.48476 0
M  V30 6301 O 624.758 -1.7187 0.613762 0
M  V30 6302 C 624.809 0.0621651 3.61447 0
M  V30 6303 O 624.53 1.34146 4.17057 0
M  V30 6304 C 626.031 -0.446102 4.4105 0
M  V30 6305 H 623.251 0.0871158 0.665321 0
M  V30 6306 H 625.795 0.886183 1.84301 0
M  V30 6307 H 623.95 -0.608794 3.82587 0
M  V30 6308 H 624.364 1.19675 5.10664 0
M  V30 6309 H 625.838 -0.46755 5.50016 0
M  V30 6310 H 626.315 -1.47627 4.13646 0
M  V30 6311 H 626.921 0.192159 4.24866 0
M  V30 6312 N 625.236 -1.5273 0.388769 0
M  V30 6313 C 626.461 -2.0647 -0.19621 0
M  V30 6314 C 626.886 -1.25865 -1.39784 0
M  V30 6315 O 626.244 -0.283562 -1.79069 0
M  V30 6316 C 626.292 -3.56456 -0.5451 0
M  V30 6317 O 625.396 -3.78426 -1.63912 0
M  V30 6318 H 624.737 -0.663599 -0.023067 0
M  V30 6319 H 627.267 -1.96898 0.556084 0
M  V30 6320 H 627.277 -3.99888 -0.809557 0
M  V30 6321 H 625.952 -4.14561 0.333417 0
M  V30 6322 H 624.529 -3.46884 -1.36842 0
M  V30 6323 N 626.714 -0.118576 -1.57153 0
M  V30 6324 C 628.13 0.238014 -1.57815 0
M  V30 6325 C 628.33 1.66747 -1.13127 0
M  V30 6326 O 627.386 2.38867 -0.818462 0
M  V30 6327 C 628.699 0.00508207 -3.007 0
M  V30 6328 C 630.247 0.0710139 -3.12919 0
M  V30 6329 C 630.722 -0.13422 -4.57803 0
M  V30 6330 N 632.213 -0.0801755 -4.63131 0
M  V30 6331 C 632.948 -0.213885 -5.73001 0
M  V30 6332 N 632.444 -0.403742 -6.91623 0
M  V30 6333 N 634.237 -0.15349 -5.6189 0
M  V30 6334 H 626.388 -1.05226 -1.84503 0
M  V30 6335 H 628.651 -0.414318 -0.852669 0
M  V30 6336 H 628.357 -0.983125 -3.3768 0
M  V30 6337 H 628.231 0.73714 -3.69927 0
M  V30 6338 H 630.618 1.04975 -2.75798 0
M  V30 6339 H 630.699 -0.692918 -2.46236 0
M  V30 6340 H 630.343 -1.10992 -4.95624 0
M  V30 6341 H 630.273 0.649692 -5.22577 0
M  V30 6342 H 632.764 0.0630689 -3.77847 0
M  V30 6343 H 633.077 -0.496645 -7.71202 0
M  V30 6344 H 631.422 -0.43971 -6.93608 0
M  V30 6345 H 634.613 -0.00613174 -4.681 0
M  V30 6346 H 634.786 -0.261138 -6.47474 0
M  V30 6347 N 628.193 1.56834 0.155195 0
M  V30 6348 C 629.418 1.87412 0.888337 0
M  V30 6349 C 629.843 0.70671 1.74319 0
M  V30 6350 O 629.201 -0.343892 1.78009 0
M  V30 6351 C 629.249 3.1652 1.72765 0
M  V30 6352 O 628.353 2.99877 2.83103 0
M  V30 6353 H 627.694 0.615983 0.247914 0
M  V30 6354 H 630.224 2.04061 0.148478 0
M  V30 6355 H 630.234 3.48334 2.12433 0
M  V30 6356 H 628.909 4.01094 1.09985 0
M  V30 6357 H 627.486 2.79453 2.46902 0
M  V30 6358 N 629.671 -0.424282 1.51781 0
M  V30 6359 C 630.918 -1.1726 1.65095 0
M  V30 6360 C 631.246 -1.90881 0.373477 0
M  V30 6361 O 630.501 -1.84835 -0.642997 0
M  V30 6362 C 630.8 -2.20418 2.81337 0
M  V30 6363 C 630.466 -1.63715 4.20129 0
M  V30 6364 C 629.128 -1.47975 4.57883 0
M  V30 6365 C 631.48 -1.22157 5.06682 0
M  V30 6366 C 628.808 -0.891703 5.79884 0
M  V30 6367 C 631.16 -0.647767 6.29275 0
M  V30 6368 C 629.824 -0.477371 6.65791 0
M  V30 6369 H 629.094 -0.429085 0.604125 0
M  V30 6370 H 631.741 -0.461852 1.85847 0
M  V30 6371 H 630.046 -2.97581 2.54859 0
M  V30 6372 H 631.743 -2.78163 2.88836 0
M  V30 6373 H 628.333 -1.76946 3.90369 0
M  V30 6374 H 632.517 -1.33133 4.7811 0
M  V30 6375 H 627.773 -0.747563 6.06813 0
M  V30 6376 H 631.947 -0.317291 6.95677 0
M  V30 6377 H 629.574 -0.0195936 7.60197 0
M  V30 6378 N 631.149 -1.42148 -0.680565 0
M  V30 6379 C 632.565 -1.24947 -0.992995 0
M  V30 6380 C 632.765 -0.149527 -2.00944 0
M  V30 6381 O 631.821 0.481145 -2.47873 0
M  V30 6382 C 633.134 -2.60426 -1.5033 0
M  V30 6383 C 634.682 -2.67733 -1.62137 0
M  V30 6384 C 635.157 -4.03564 -2.16565 0
M  V30 6385 N 636.648 -4.05488 -2.23905 0
M  V30 6386 C 637.383 -5.07401 -2.67081 0
M  V30 6387 N 636.879 -6.19698 -3.09751 0
M  V30 6388 N 638.672 -4.94758 -2.66778 0
M  V30 6389 H 630.823 -2.12399 -0.0074788 0
M  V30 6390 H 633.086 -0.94571 -0.0658529 0
M  V30 6391 H 632.792 -3.41743 -0.830947 0
M  V30 6392 H 632.666 -2.83949 -2.483 0
M  V30 6393 H 635.053 -1.86765 -2.2848 0
M  V30 6394 H 635.134 -2.48004 -0.626713 0
M  V30 6395 H 634.778 -4.84987 -1.50833 0
M  V30 6396 H 634.708 -4.20641 -3.1681 0
M  V30 6397 H 637.199 -3.24415 -1.93812 0
M  V30 6398 H 637.512 -6.93318 -3.41365 0
M  V30 6399 H 635.857 -6.23212 -3.07623 0
M  V30 6400 H 639.048 -4.06105 -2.32801 0
M  V30 6401 H 639.221 -5.74317 -3.00107 0
M  V30 6402 N 632.627 0.916307 -1.28225 0
M  V30 6403 C 633.855 1.69901 -1.18073 0
M  V30 6404 C 634.27 1.86988 0.260968 0
M  V30 6405 O 633.627 1.39505 1.17663 0
M  V30 6406 C 633.678 3.09254 -1.87201 0
M  V30 6407 O 633.399 2.92959 -3.2574 0
M  V30 6408 C 634.9 4.0362 -1.83319 0
M  V30 6409 H 632.12 0.531181 -0.409985 0
M  V30 6410 H 634.664 1.14703 -1.69303 0
M  V30 6411 H 632.819 3.61277 -1.39848 0
M  V30 6412 H 633.233 3.81139 -3.60324 0
M  V30 6413 H 634.707 4.98873 -2.36282 0
M  V30 6414 H 635.184 4.3176 -0.805007 0
M  V30 6415 H 635.79 3.57524 -2.3034 0
M  V30 6416 N 634.105 1.10431 1.1244 0
M  V30 6417 C 635.068 0.756542 2.16354 0
M  V30 6418 C 636.068 -0.21899 1.59302 0
M  V30 6419 O 637.258 0.00415969 1.742 0
M  V30 6420 C 634.39 0.120612 3.40687 0
M  V30 6421 H 635.583 1.67696 2.48632 0
M  V30 6422 H 633.136 0.904832 1.27446 0
M  V30 6423 H 633.871 -0.810536 3.14008 0
M  V30 6424 H 633.656 0.822693 3.83372 0
M  V30 6425 H 635.146 -0.106945 4.17463 0
M  V30 6426 N 635.583 -1.29855 0.893053 0
M  V30 6427 C 636.808 -2.00512 0.530066 0
M  V30 6428 C 637.233 -1.66446 -0.876199 0
M  V30 6429 O 636.591 -0.885446 -1.58207 0
M  V30 6430 C 636.639 -3.53308 0.721505 0
M  V30 6431 O 635.743 -4.11764 -0.228994 0
M  V30 6432 H 635.084 -0.630617 0.207891 0
M  V30 6433 H 637.614 -1.6551 1.20282 0
M  V30 6434 H 637.624 -4.03206 0.623599 0
M  V30 6435 H 636.299 -3.77439 1.74678 0
M  V30 6436 H 634.876 -3.72805 -0.0841034 0
M  V30 6437 N 637.061 -0.65484 -1.43351 0
M  V30 6438 C 638.307 -0.169142 -2.02093 0
M  V30 6439 C 638.64 1.21431 -1.51553 0
M  V30 6440 O 637.915 1.81105 -0.709317 0
M  V30 6441 C 638.198 -0.181775 -3.59641 0
M  V30 6442 C 638.051 -1.59926 -4.20409 0
M  V30 6443 C 639.37 0.480945 -4.37464 0
M  V30 6444 H 636.489 -0.0629371 -0.734308 0
M  V30 6445 H 639.131 -0.835833 -1.70628 0
M  V30 6446 H 637.281 0.385918 -3.86578 0
M  V30 6447 H 638.953 -2.21766 -4.04497 0
M  V30 6448 H 637.196 -2.14605 -3.76998 0
M  V30 6449 H 637.867 -1.55994 -5.295 0
M  V30 6450 H 640.343 -0.00208273 -4.161 0
M  V30 6451 H 639.219 0.441384 -5.47122 0
M  V30 6452 H 639.48 1.55533 -4.13838 0
M  V30 6453 N 638.539 1.52521 -0.396863 0
M  V30 6454 C 639.764 2.06571 0.185258 0
M  V30 6455 C 640.189 1.26605 1.39115 0
M  V30 6456 O 639.547 0.293055 1.78916 0
M  V30 6457 C 639.595 3.5674 0.526189 0
M  V30 6458 O 638.699 3.7929 1.61903 0
M  V30 6459 H 638.04 0.663712 0.0195474 0
M  V30 6460 H 640.57 1.966 -0.566519 0
M  V30 6461 H 640.58 4.00311 0.788338 0
M  V30 6462 H 639.255 4.14379 -0.355397 0
M  V30 6463 H 637.832 3.47605 1.35 0
M  V30 6464 N 640.017 0.126909 1.57088 0
M  V30 6465 C 641.266 -0.529024 1.94639 0
M  V30 6466 C 641.579 -1.67323 1.01304 0
M  V30 6467 O 642.785 -2.39245 1.28352 0
M  V30 6468 C 641.241 -0.992483 3.45945 0
M  V30 6469 C 640.849 0.123691 4.47829 0
M  V30 6470 C 642.593 -1.61934 3.924 0
M  V30 6471 C 640.5 -0.356911 5.90322 0
M  V30 6472 H 639.43 -0.201397 0.726605 0
M  V30 6473 H 642.081 0.208032 1.82317 0
M  V30 6474 H 640.463 -1.7842 3.53528 0
M  V30 6475 H 641.637 0.900168 4.51922 0
M  V30 6476 H 639.952 0.657699 4.11173 0
M  V30 6477 H 642.549 -1.9902 4.96281 0
M  V30 6478 H 642.892 -2.50075 3.32819 0
M  V30 6479 H 643.425 -0.892894 3.8765 0
M  V30 6480 H 640.164 0.488636 6.53676 0
M  V30 6481 H 639.684 -1.0997 5.89633 0
M  V30 6482 H 641.363 -0.815547 6.41839 0
M  V30 6483 N 641.495 -1.56914 -0.146875 0
M  V30 6484 C 642.443 -1.99224 -1.20053 0
M  V30 6485 C 643.437 -0.884661 -1.44465 0
M  V30 6486 O 644.643 -1.06984 -1.44756 0
M  V30 6487 H 641.018 -0.634191 -0.404112 0
M  V30 6488 H 642.989 -2.86998 -0.816987 0
M  V30 6489 C 641.738 -2.38899 -2.52632 0
M  V30 6490 H 641.061 -3.23677 -2.34677 0
M  V30 6491 H 642.501 -2.72326 -3.24984 0
M  V30 6492 C 640.96 -1.2417 -3.13183 0
M  V30 6493 O 641.49 -0.542503 -3.9802 0
M  V30 6494 N 639.696 -1.00592 -2.72635 0
M  V30 6495 H 639.243 -1.57627 -2.03744 0
M  V30 6496 H 639.201 -0.240174 -3.13481 0
M  V30 6497 N 642.974 0.416227 -1.52004 0
M  V30 6498 C 643.906 1.52552 -1.71058 0
M  V30 6499 C 644.919 1.51693 -0.59102 0
M  V30 6500 O 646.108 1.56087 -0.865973 0
M  V30 6501 C 643.208 2.91455 -1.72937 0
M  V30 6502 C 642.381 3.16584 -3.01816 0
M  V30 6503 C 641.44 4.35322 -2.95603 0
M  V30 6504 O 640.466 4.32947 -3.6952 0
M  V30 6505 N 641.668 5.40049 -2.12903 0
M  V30 6506 H 644.433 1.36604 -2.66757 0
M  V30 6507 H 641.994 0.60544 -1.50153 0
M  V30 6508 H 643.986 3.68944 -1.66321 0
M  V30 6509 H 642.556 3.00895 -0.847418 0
M  V30 6510 H 641.776 2.27203 -3.22137 0
M  V30 6511 H 643.064 3.30213 -3.87088 0
M  V30 6512 H 642.462 5.44823 -1.52265 0
M  V30 6513 H 641.019 6.16308 -2.1215 0
M  V30 6514 N 644.452 1.42507 0.673017 0
M  V30 6515 C 645.68 1.46473 1.46128 0
M  V30 6516 C 646.095 0.0765912 1.88645 0
M  V30 6517 O 645.452 -0.909057 1.58248 0
M  V30 6518 C 645.503 2.39339 2.70923 0
M  V30 6519 O 645.224 3.72752 2.3019 0
M  V30 6520 C 646.725 2.52343 3.64469 0
M  V30 6521 H 643.945 0.49812 0.449575 0
M  V30 6522 H 646.489 1.87041 0.826802 0
M  V30 6523 H 644.644 2.02019 3.30556 0
M  V30 6524 H 645.058 4.22503 3.10791 0
M  V30 6525 H 646.532 3.2144 4.48754 0
M  V30 6526 H 647.009 1.56189 4.1049 0
M  V30 6527 H 647.615 2.90392 3.10729 0
M  V30 6528 N 645.93 -0.909495 1.28709 0
M  V30 6529 C 646.84 -2.04558 1.14861 0
M  V30 6530 C 647.856 -1.73842 0.0741621 0
M  V30 6531 O 649.032 -1.99383 0.2843 0
M  V30 6532 C 646.097 -3.36957 0.816148 0
M  V30 6533 C 645.158 -3.81255 1.97341 0
M  V30 6534 C 644.391 -5.07335 1.65671 0
M  V30 6535 O 644.614 -5.67514 0.573053 0
M  V30 6536 O 643.548 -5.47449 2.50167 0
M  V30 6537 H 647.374 -2.19161 2.10243 0
M  V30 6538 H 644.959 -1.03159 1.08068 0
M  V30 6539 H 646.841 -4.16436 0.644873 0
M  V30 6540 H 645.516 -3.2352 -0.107983 0
M  V30 6541 H 644.423 -3.02584 2.19986 0
M  V30 6542 H 645.756 -3.99261 2.87839 0
M  V30 6543 N 647.408 -1.11026 -1.11852 0
M  V30 6544 C 648.819 -0.873203 -1.65021 0
M  V30 6545 C 649.17 0.595364 -1.86949 0
M  V30 6546 O 648.295 1.45645 -1.60051 0
M  V30 6547 C 648.89 -1.57859 -2.99777 0
M  V30 6548 C 647.449 -1.38807 -3.49871 0
M  V30 6549 C 646.596 -1.62403 -2.24768 0
M  V30 6550 H 649.547 -1.26712 -0.955503 0
M  V30 6551 H 649.568 -1.02111 -3.66543 0
M  V30 6552 H 649.08 -2.6474 -2.83786 0
M  V30 6553 H 647.181 -0.341163 -3.71035 0
M  V30 6554 H 647.294 -2.13421 -4.28938 0
M  V30 6555 H 645.658 -1.04714 -2.32179 0
M  V30 6556 H 646.441 -2.70549 -2.11324 0
M  V30 6557 N 648.886 1.2938 -0.899927 0
M  V30 6558 C 650.297 1.77644 -0.574427 0
M  V30 6559 C 650.648 1.73824 0.909928 0
M  V30 6560 O 649.773 1.32429 1.71147 0
M  V30 6561 C 650.368 3.22573 -1.03595 0
M  V30 6562 C 648.927 3.68614 -0.76161 0
M  V30 6563 C 648.074 2.49483 -1.21052 0
M  V30 6564 H 651.025 1.16038 -1.08263 0
M  V30 6565 H 651.046 3.78684 -0.371337 0
M  V30 6566 H 650.558 3.25321 -2.11631 0
M  V30 6567 H 648.659 3.7134 0.306127 0
M  V30 6568 H 648.772 4.59402 -1.35965 0
M  V30 6569 H 647.136 2.46798 -0.629515 0
M  V30 6570 H 647.919 2.54959 -2.29893 0
M  V30 6571 N 650.364 0.662433 1.43002 0
M  V30 6572 C 651.311 -0.0235324 2.30788 0
M  V30 6573 C 652.281 -0.805342 1.4527 0
M  V30 6574 O 653.466 -0.78009 1.74124 0
M  V30 6575 C 650.606 -0.977545 3.30965 0
M  V30 6576 C 649.719 -0.190865 4.31578 0
M  V30 6577 C 648.854 -1.13951 5.18834 0
M  V30 6578 C 647.893 -0.343796 6.11134 0
M  V30 6579 N 647.03 -1.2445 6.90982 0
M  V30 6580 H 651.87 0.730921 2.88897 0
M  V30 6581 H 649.407 0.372197 1.42313 0
M  V30 6582 H 651.365 -1.54437 3.87563 0
M  V30 6583 H 649.995 -1.69877 2.74484 0
M  V30 6584 H 649.047 0.492388 3.772 0
M  V30 6585 H 650.359 0.427464 4.96965 0
M  V30 6586 H 649.513 -1.77666 5.80103 0
M  V30 6587 H 648.252 -1.79174 4.53595 0
M  V30 6588 H 647.257 0.30665 5.48944 0
M  V30 6589 H 648.482 0.304161 6.78419 0
M  V30 6590 H 646.428 -1.88336 6.28383 0
M  V30 6591 H 646.345 -0.680959 7.52927 0
M  V30 6592 H 647.613 -1.86952 7.56749 0
M  V30 6593 N 651.842 -1.52309 0.404946 0
M  V30 6594 C 653.088 -2.02065 -0.172455 0
M  V30 6595 C 653.421 -1.29022 -1.45145 0
M  V30 6596 O 652.696 -0.395284 -1.90441 0
M  V30 6597 C 652.979 -3.5759 -0.424433 0
M  V30 6598 C 652.832 -4.41287 0.870945 0
M  V30 6599 C 654.151 -4.23186 -1.20837 0
M  V30 6600 H 651.27 -0.734454 -0.0612035 0
M  V30 6601 H 653.912 -1.82236 0.53759 0
M  V30 6602 H 652.062 -3.74617 -1.02929 0
M  V30 6603 H 653.734 -4.3598 1.50729 0
M  V30 6604 H 651.977 -4.07669 1.48284 0
M  V30 6605 H 652.648 -5.48171 0.649083 0
M  V30 6606 H 655.124 -4.10232 -0.696338 0
M  V30 6607 H 654 -5.31953 -1.35343 0
M  V30 6608 H 654.261 -3.81862 -2.22786 0
M  V30 6609 N 653.32 -0.135238 -1.57019 0
M  V30 6610 C 654.736 0.221262 -1.58059 0
M  V30 6611 C 654.936 1.65538 -1.14889 0
M  V30 6612 O 653.992 2.37985 -0.843751 0
M  V30 6613 C 655.305 -0.0268114 -3.00688 0
M  V30 6614 C 656.853 0.0378206 -3.12977 0
M  V30 6615 C 657.328 -0.182769 -4.57635 0
M  V30 6616 N 658.819 -0.129292 -4.6302 0
M  V30 6617 C 659.554 -0.274648 -5.72742 0
M  V30 6618 N 659.05 -0.477075 -6.91155 0
M  V30 6619 N 660.843 -0.213077 -5.61696 0
M  V30 6620 H 652.994 -1.07177 -1.83376 0
M  V30 6621 H 655.257 -0.423338 -0.848227 0
M  V30 6622 H 654.963 -1.01889 -3.36618 0
M  V30 6623 H 654.837 0.697863 -3.70688 0
M  V30 6624 H 657.224 1.02043 -2.76896 0
M  V30 6625 H 657.305 -0.718996 -2.45487 0
M  V30 6626 H 656.949 -1.16243 -4.94419 0
M  V30 6627 H 656.879 0.59423 -5.23237 0
M  V30 6628 H 659.37 0.0229896 -3.77893 0
M  V30 6629 H 659.683 -0.578413 -7.70632 0
M  V30 6630 H 658.028 -0.513252 -6.93102 0
M  V30 6631 H 661.219 -0.0557796 -4.68067 0
M  V30 6632 H 661.392 -0.329796 -6.4716 0
M  V30 6633 N 654.798 1.5699 0.138552 0
M  V30 6634 C 655.728 2.01933 1.17241 0
M  V30 6635 C 656.709 0.90033 1.44319 0
M  V30 6636 O 657.894 1.16872 1.55095 0
M  V30 6637 C 655.024 2.40711 2.50351 0
M  V30 6638 C 653.978 3.55874 2.37776 0
M  V30 6639 C 653.304 3.80491 3.75674 0
M  V30 6640 C 654.604 4.8826 1.85472 0
M  V30 6641 H 656.298 2.88551 0.798672 0
M  V30 6642 H 653.844 1.3882 0.382743 0
M  V30 6643 H 655.797 2.70754 3.22909 0
M  V30 6644 H 654.521 1.5104 2.89576 0
M  V30 6645 H 653.18 3.2601 1.67669 0
M  V30 6646 H 652.828 2.88057 4.12349 0
M  V30 6647 H 652.528 4.57998 3.68119 0
M  V30 6648 H 654.052 4.12967 4.49767 0
M  V30 6649 H 655.466 5.16965 2.4783 0
M  V30 6650 H 653.863 5.69631 1.88787 0
M  V30 6651 H 654.933 4.78071 0.810935 0
M  V30 6652 N 656.276 -0.40816 1.52223 0
M  V30 6653 C 657.186 -1.52202 1.78526 0
M  V30 6654 C 658.202 -1.60546 0.670892 0
M  V30 6655 O 659.378 -1.77242 0.956404 0
M  V30 6656 C 656.443 -2.87928 1.93128 0
M  V30 6657 C 655.504 -2.89463 3.17033 0
M  V30 6658 C 654.737 -4.18715 3.30929 0
M  V30 6659 O 654.96 -5.12662 2.50067 0
M  V30 6660 O 653.894 -4.27125 4.24084 0
M  V30 6661 H 657.72 -1.32911 2.73072 0
M  V30 6662 H 655.305 -0.594112 1.37079 0
M  V30 6663 H 657.187 -3.68426 2.04549 0
M  V30 6664 H 655.862 -3.07285 1.01772 0
M  V30 6665 H 654.769 -2.07815 3.11069 0
M  V30 6666 H 656.102 -2.75055 4.08174 0
M  V30 6667 N 657.755 -1.42862 -0.66545 0
M  V30 6668 C 659.003 -1.43546 -1.42264 0
M  V30 6669 C 659.324 -0.0563116 -1.94919 0
M  V30 6670 O 658.594 0.906568 -1.73661 0
M  V30 6671 H 657.174 -0.528464 -0.527953 0
M  V30 6672 H 659.836 -1.78363 -0.785665 0
M  V30 6673 H 658.932 -2.14079 -2.27105 0
M  V30 6674 N 659.233 0.902656 -1.29189 0
M  V30 6675 C 660.649 1.18296 -1.07137 0
M  V30 6676 C 660.849 2.00701 0.179223 0
M  V30 6677 O 659.905 2.3675 0.877812 0
M  V30 6678 C 661.218 1.90677 -2.32514 0
M  V30 6679 C 662.766 2.03515 -2.37804 0
M  V30 6680 C 663.241 2.79307 -3.62976 0
M  V30 6681 N 664.732 2.86862 -3.63681 0
M  V30 6682 C 665.467 3.46035 -4.57217 0
M  V30 6683 N 664.963 4.06399 -5.61081 0
M  V30 6684 N 666.756 3.43681 -4.44792 0
M  V30 6685 H 658.907 0.352765 -2.0945 0
M  V30 6686 H 661.17 0.21876 -0.922414 0
M  V30 6687 H 660.876 1.3756 -3.23682 0
M  V30 6688 H 660.75 2.91169 -2.39793 0
M  V30 6689 H 663.137 2.55809 -1.47125 0
M  V30 6690 H 663.218 1.02166 -2.34512 0
M  V30 6691 H 662.862 2.2769 -4.54004 0
M  V30 6692 H 662.792 3.80995 -3.63525 0
M  V30 6693 H 665.283 2.43987 -2.88581 0
M  V30 6694 H 665.596 4.49564 -6.2858 0
M  V30 6695 H 663.941 4.0487 -5.64894 0
M  V30 6696 H 667.132 2.9574 -3.62843 0
M  V30 6697 H 667.305 3.89503 -5.17872 0
M  V30 6698 N 660.711 1.11618 1.11262 0
M  V30 6699 C 661.936 0.889013 1.8738 0
M  V30 6700 C 662.361 -0.555884 1.79698 0
M  V30 6701 O 661.719 -1.39272 1.16073 0
M  V30 6702 C 661.767 1.35759 3.34069 0
M  V30 6703 O 660.871 0.530499 4.08974 0
M  V30 6704 H 660.212 0.320082 0.581759 0
M  V30 6705 H 662.742 1.48611 1.40627 0
M  V30 6706 H 662.752 1.35291 3.84916 0
M  V30 6707 H 661.427 2.40973 3.38976 0
M  V30 6708 H 660.004 0.601439 3.68018 0
M  V30 6709 N 662.189 -1.289 0.906776 0
M  V30 6710 C 663.417 -1.99401 0.551969 0
M  V30 6711 C 663.832 -1.67816 -0.865048 0
M  V30 6712 O 663.189 -0.927078 -1.57199 0
M  V30 6713 C 663.24 -3.53779 0.743152 0
M  V30 6714 O 662.961 -3.84248 2.1044 0
M  V30 6715 C 664.462 -4.41543 0.39424 0
M  V30 6716 H 661.682 -0.636926 0.211106 0
M  V30 6717 H 664.226 -1.64266 1.21807 0
M  V30 6718 H 662.381 -3.87201 0.124143 0
M  V30 6719 H 662.795 -4.78904 2.13895 0
M  V30 6720 H 664.269 -5.48957 0.578814 0
M  V30 6721 H 664.746 -4.34073 -0.669137 0
M  V30 6722 H 665.352 -4.13605 0.990491 0
M  V30 6723 N 663.667 -0.670007 -1.42649 0
M  V30 6724 C 664.895 -0.19854 -2.05945 0
M  V30 6725 C 665.31 1.14243 -1.50313 0
M  V30 6726 O 664.667 1.70872 -0.641027 0
M  V30 6727 C 664.718 -0.11966 -3.61302 0
M  V30 6728 O 664.439 -1.40764 -4.1487 0
M  V30 6729 C 665.94 0.375878 -4.41704 0
M  V30 6730 H 663.16 -0.0976894 -0.663851 0
M  V30 6731 H 665.704 -0.915392 -1.82868 0
M  V30 6732 H 663.859 0.547851 -3.83507 0
M  V30 6733 H 664.273 -1.27784 -5.08696 0
M  V30 6734 H 665.747 0.379988 -5.50691 0
M  V30 6735 H 666.224 1.41028 -4.15942 0
M  V30 6736 H 666.83 -0.259727 -4.24506 0
M  V30 6737 N 665.145 1.52092 -0.413018 0
M  V30 6738 C 666.37 2.06756 0.163338 0
M  V30 6739 C 666.795 1.28073 1.37764 0
M  V30 6740 O 666.153 0.312015 1.78595 0
M  V30 6741 C 666.201 3.57278 0.488322 0
M  V30 6742 O 665.305 3.80986 1.57871 0
M  V30 6743 H 664.646 0.663882 0.0125068 0
M  V30 6744 H 667.176 1.95988 -0.587339 0
M  V30 6745 H 667.186 4.01125 0.745836 0
M  V30 6746 H 665.861 4.13978 -0.399327 0
M  V30 6747 H 664.438 3.49017 1.31306 0
M  V30 6748 N 666.623 0.143563 1.56945 0
M  V30 6749 C 667.553 -0.7936 2.196 0
M  V30 6750 C 668.534 -1.25955 1.14321 0
M  V30 6751 O 669.719 -1.31773 1.42651 0
M  V30 6752 C 666.849 -2.03424 2.81489 0
M  V30 6753 C 665.803 -1.70519 3.92565 0
M  V30 6754 C 665.129 -3.01817 4.41373 0
M  V30 6755 C 666.429 -0.95449 5.13504 0
M  V30 6756 H 668.123 -0.271423 2.98167 0
M  V30 6757 H 665.669 -0.12911 1.4342 0
M  V30 6758 H 667.622 -2.69463 3.23987 0
M  V30 6759 H 666.346 -2.58008 2.00248 0
M  V30 6760 H 665.005 -1.06859 3.5068 0
M  V30 6761 H 664.653 -3.54386 3.56959 0
M  V30 6762 H 664.353 -2.80565 5.16292 0
M  V30 6763 H 665.877 -3.68934 4.86539 0
M  V30 6764 H 667.291 -1.5169 5.52868 0
M  V30 6765 H 665.688 -0.842035 5.94163 0
M  V30 6766 H 666.758 0.0544033 4.84869 0
M  V30 6767 N 668.101 -1.57061 -0.130224 0
M  V30 6768 C 669.326 -1.88802 -0.858409 0
M  V30 6769 C 669.751 -0.734353 -1.73173 0
M  V30 6770 O 669.109 0.315529 -1.78533 0
M  V30 6771 C 669.157 -3.19228 -1.67708 0
M  V30 6772 O 668.261 -3.04343 -2.78297 0
M  V30 6773 H 667.602 -0.619849 -0.238083 0
M  V30 6774 H 670.132 -2.04271 -0.115995 0
M  V30 6775 H 670.142 -3.51669 -2.06864 0
M  V30 6776 H 668.817 -4.02793 -1.0359 0
M  V30 6777 H 667.394 -2.83346 -2.42425 0
M  V30 6778 N 669.579 0.400081 -1.52437 0
M  V30 6779 C 670.825 1.14788 -1.67187 0
M  V30 6780 C 671.158 1.89928 -0.405074 0
M  V30 6781 O 670.433 1.85118 0.596804 0
M  V30 6782 C 670.716 2.13507 -2.89977 0
M  V30 6783 C 670.569 1.42204 -4.2673 0
M  V30 6784 C 671.888 3.14069 -3.083 0
M  V30 6785 H 669.007 0.415939 -0.608411 0
M  V30 6786 H 671.649 0.432542 -1.85011 0
M  V30 6787 H 669.799 2.7451 -2.74912 0
M  V30 6788 H 671.471 0.842503 -4.53541 0
M  V30 6789 H 669.714 0.723939 -4.27717 0
M  V30 6790 H 670.385 2.14281 -5.08712 0
M  V30 6791 H 672.861 2.63148 -3.22323 0
M  V30 6792 H 671.737 3.80398 -3.95713 0
M  V30 6793 H 671.998 3.82309 -2.22018 0
M  V30 6794 N 671.057 1.43213 0.657864 0
M  V30 6795 C 672.282 1.48227 1.45064 0
M  V30 6796 C 672.707 0.0999939 1.87834 0
M  V30 6797 O 672.065 -0.905269 1.57081 0
M  V30 6798 C 672.113 2.42931 2.6649 0
M  V30 6799 O 671.217 1.91237 3.6538 0
M  V30 6800 H 670.558 0.501551 0.435135 0
M  V30 6801 H 673.088 1.8808 0.805431 0
M  V30 6802 H 673.098 2.6008 3.1436 0
M  V30 6803 H 671.773 3.43348 2.34701 0
M  V30 6804 H 670.35 1.83726 3.24498 0
M  V30 6805 N 672.536 -0.895792 1.29666 0
M  V30 6806 C 673.782 -1.64921 1.19049 0
M  V30 6807 C 674.137 -1.90707 -0.254678 0
M  V30 6808 O 673.43 -1.5092 -1.18041 0
M  V30 6809 C 673.624 -3.00075 1.94139 0
M  V30 6810 C 673.453 -2.87482 3.4581 0
M  V30 6811 C 672.223 -2.88041 4.15163 0
M  V30 6812 C 674.421 -2.64224 4.41237 0
M  V30 6813 N 672.403 -2.66226 5.5317 0
M  V30 6814 C 673.774 -2.51427 5.66732 0
M  V30 6815 C 675.829 -2.49362 4.30956 0
M  V30 6816 C 674.532 -2.25281 6.83111 0
M  V30 6817 C 676.558 -2.246 5.47091 0
M  V30 6818 C 675.92 -2.12571 6.7156 0
M  V30 6819 H 672.019 -0.608926 0.490646 0
M  V30 6820 H 674.603 -1.05648 1.63544 0
M  V30 6821 H 672.774 -3.574 1.52052 0
M  V30 6822 H 674.506 -3.64544 1.75754 0
M  V30 6823 H 671.261 -2.99471 3.66898 0
M  V30 6824 H 671.685 -2.58361 6.25762 0
M  V30 6825 H 676.327 -2.57403 3.35415 0
M  V30 6826 H 674.045 -2.15978 7.78704 0
M  V30 6827 H 677.631 -2.13939 5.41037 0
M  V30 6828 H 676.511 -1.93676 7.59907 0
M  V30 6829 N 674.014 -1.12206 -1.10668 0
M  V30 6830 C 675.239 -0.898938 -1.86906 0
M  V30 6831 C 675.664 0.546346 -1.79991 0
M  V30 6832 O 675.022 1.38655 -1.1681 0
M  V30 6833 C 675.07 -1.37529 -3.33344 0
M  V30 6834 O 674.174 -0.55218 -4.08687 0
M  V30 6835 H 673.515 -0.323163 -0.580053 0
M  V30 6836 H 676.045 -1.49355 -1.39837 0
M  V30 6837 H 676.055 -1.3733 -3.84193 0
M  V30 6838 H 674.73 -2.42767 -3.37693 0
M  V30 6839 H 673.307 -0.620947 -3.67694 0
M  V30 6840 N 675.492 1.28418 -0.913599 0
M  V30 6841 C 676.741 1.94265 -0.542572 0
M  V30 6842 C 677.054 1.72709 0.918207 0
M  V30 6843 O 678.26 2.32778 1.39738 0
M  V30 6844 C 676.716 3.47956 -0.919507 0
M  V30 6845 C 676.324 3.78291 -2.4 0
M  V30 6846 C 678.068 4.19962 -0.619057 0
M  V30 6847 C 675.975 5.2529 -2.71707 0
M  V30 6848 H 674.905 0.727213 -0.199192 0
M  V30 6849 H 677.556 1.45931 -1.11249 0
M  V30 6850 H 675.938 3.9502 -0.278372 0
M  V30 6851 H 677.112 3.42035 -3.08786 0
M  V30 6852 H 675.427 3.19456 -2.67089 0
M  V30 6853 H 678.024 5.28178 -0.832623 0
M  V30 6854 H 678.367 4.13935 0.443126 0
M  V30 6855 H 678.9 3.78674 -1.21865 0
M  V30 6856 H 675.639 5.36394 -3.76778 0
M  V30 6857 H 675.159 5.62743 -2.07559 0
M  V30 6858 H 676.838 5.93027 -2.58703 0
M  V30 6859 N 676.97 0.677563 1.42291 0
M  V30 6860 C 678.381 0.277912 1.8462 0
M  V30 6861 C 678.732 -1.18048 1.56714 0
M  V30 6862 O 677.857 -1.90404 1.02836 0
M  V30 6863 C 678.452 0.497619 3.35126 0
M  V30 6864 C 677.011 0.152063 3.76093 0
M  V30 6865 C 676.158 0.78872 2.65847 0
M  V30 6866 H 679.109 0.879527 1.32098 0
M  V30 6867 H 679.13 -0.24939 3.79682 0
M  V30 6868 H 678.642 1.55913 3.55405 0
M  V30 6869 H 676.743 -0.905896 3.6142 0
M  V30 6870 H 676.856 0.594514 4.75397 0
M  V30 6871 H 675.22 0.219813 2.5375 0
M  V30 6872 H 676.003 1.85374 2.88949 0
M  V30 6873 N 678.448 -1.51871 0.421078 0
M  V30 6874 C 679.859 -1.86644 -0.0457991 0
M  V30 6875 C 680.21 -1.33919 -1.43388 0
M  V30 6876 O 679.335 -0.683316 -2.05328 0
M  V30 6877 C 679.93 -3.38681 -0.0898844 0
M  V30 6878 C 678.489 -3.73049 -0.501127 0
M  V30 6879 C 677.636 -2.75485 0.316723 0
M  V30 6880 H 680.587 -1.45327 0.637635 0
M  V30 6881 H 680.608 -3.69636 -0.902734 0
M  V30 6882 H 680.12 -3.77025 0.920513 0
M  V30 6883 H 678.221 -3.40288 -1.51773 0
M  V30 6884 H 678.334 -4.78512 -0.237217 0
M  V30 6885 H 676.698 -2.53725 -0.222663 0
M  V30 6886 H 677.481 -3.16671 1.32569 0
M  V30 6887 N 679.926 -0.151884 -1.56866 0
M  V30 6888 C 681.337 0.368128 -1.83035 0
M  V30 6889 C 681.688 1.64402 -1.07082 0
M  V30 6890 O 680.813 2.14056 -0.317647 0
M  V30 6891 C 681.408 0.674676 -3.32014 0
M  V30 6892 C 679.967 1.13919 -3.58747 0
M  V30 6893 C 679.114 0.164833 -2.7681 0
M  V30 6894 H 682.065 -0.376499 -1.54169 0
M  V30 6895 H 682.086 1.52883 -3.48435 0
M  V30 6896 H 681.598 -0.254113 -3.87267 0
M  V30 6897 H 679.699 2.08375 -3.08886 0
M  V30 6898 H 679.812 1.06179 -4.67186 0
M  V30 6899 H 678.176 0.658419 -2.46043 0
M  V30 6900 H 678.959 -0.757633 -3.34836 0
M  V30 6901 N 681.404 1.57128 0.121893 0
M  V30 6902 C 682.336 1.96773 1.17529 0
M  V30 6903 C 683.349 0.866668 1.37814 0
M  V30 6904 O 684.538 1.14497 1.3694 0
M  V30 6905 C 681.638 2.24832 2.53582 0
M  V30 6906 C 680.811 3.56138 2.53939 0
M  V30 6907 C 679.87 3.72443 3.71716 0
M  V30 6908 O 678.896 4.44584 3.55434 0
M  V30 6909 N 680.098 3.10993 4.90167 0
M  V30 6910 H 682.863 2.87743 0.838086 0
M  V30 6911 H 680.424 1.58881 0.311199 0
M  V30 6912 H 682.416 2.32958 3.30927 0
M  V30 6913 H 680.986 1.40002 2.79496 0
M  V30 6914 H 680.206 3.59226 1.62329 0
M  V30 6915 H 681.494 4.42448 2.51231 0
M  V30 6916 H 680.892 2.52345 5.06299 0
M  V30 6917 H 679.449 3.24644 5.65198 0
M  V30 6918 N 682.882 -0.391992 1.52647 0
M  V30 6919 C 683.814 -1.49811 1.73463 0
M  V30 6920 C 684.827 -1.50734 0.615078 0
M  V30 6921 O 686.016 -1.5469 0.890696 0
M  V30 6922 C 683.116 -2.88667 1.77552 0
M  V30 6923 C 682.289 -3.11743 3.06815 0
M  V30 6924 C 681.348 -4.30564 3.02491 0
M  V30 6925 O 680.374 -4.27014 3.76361 0
M  V30 6926 N 681.576 -5.36593 2.21468 0
M  V30 6927 H 684.341 -1.32343 2.68897 0
M  V30 6928 H 681.902 -0.581475 1.51098 0
M  V30 6929 H 683.894 -3.66251 1.7217 0
M  V30 6930 H 682.464 -2.99508 0.895181 0
M  V30 6931 H 681.684 -2.2205 3.25711 0
M  V30 6932 H 682.972 -3.24013 3.92292 0
M  V30 6933 H 682.37 -5.42332 1.60913 0
M  V30 6934 H 680.927 -6.12855 2.21928 0
M  V30 6935 N 684.36 -1.4356 -0.65026 0
M  V30 6936 C 685.585 -1.48995 -1.44275 0
M  V30 6937 C 686.01 -0.109954 -1.87778 0
M  V30 6938 O 685.368 0.896926 -1.57559 0
M  V30 6939 C 685.416 -2.44341 -2.65198 0
M  V30 6940 O 684.52 -1.93172 -3.6436 0
M  V30 6941 H 683.861 -0.503852 -0.432469 0
M  V30 6942 H 686.391 -1.88504 -0.795446 0
M  V30 6943 H 686.401 -2.61743 -3.12977 0
M  V30 6944 H 685.076 -3.44588 -2.32877 0
M  V30 6945 H 683.653 -1.85445 -3.23519 0
M  V30 6946 N 685.838 0.888903 -1.30139 0
M  V30 6947 C 687.254 1.17153 -1.08385 0
M  V30 6948 C 687.454 2.0088 0.157925 0
M  V30 6949 O 686.51 2.37668 0.852652 0
M  V30 6950 C 687.823 1.882 -2.34523 0
M  V30 6951 C 689.371 2.00981 -2.39949 0
M  V30 6952 C 689.846 2.75441 -3.65918 0
M  V30 6953 N 691.337 2.82989 -3.66704 0
M  V30 6954 C 692.072 3.41167 -4.60861 0
M  V30 6955 N 691.568 4.00425 -5.6536 0
M  V30 6956 N 693.361 3.38944 -4.48412 0
M  V30 6957 H 685.512 0.33053 -2.09812 0
M  V30 6958 H 687.775 0.208964 -0.924683 0
M  V30 6959 H 687.481 1.34119 -3.25123 0
M  V30 6960 H 687.355 2.88609 -2.42868 0
M  V30 6961 H 689.742 2.54234 -1.4983 0
M  V30 6962 H 689.823 0.996725 -2.35582 0
M  V30 6963 H 689.467 2.22861 -4.56394 0
M  V30 6964 H 689.397 3.77118 -3.67546 0
M  V30 6965 H 691.888 2.40912 -2.91153 0
M  V30 6966 H 692.201 4.42871 -6.33313 0
M  V30 6967 H 690.546 3.98856 -5.69157 0
M  V30 6968 H 693.737 2.91875 -3.6596 0
M  V30 6969 H 693.91 3.83989 -5.21974 0
M  V30 6970 N 687.317 1.12792 1.10072 0
M  V30 6971 C 688.563 0.886857 1.82381 0
M  V30 6972 C 688.896 -0.58576 1.85155 0
M  V30 6973 O 688.171 -1.43317 1.31493 0
M  V30 6974 C 688.454 1.46703 3.28862 0
M  V30 6975 C 688.307 3.00829 3.34398 0
M  V30 6976 C 689.626 1.12971 4.25353 0
M  V30 6977 H 686.745 0.32362 0.662148 0
M  V30 6978 H 689.387 1.39513 1.28982 0
M  V30 6979 H 687.537 1.03476 3.74466 0
M  V30 6980 H 689.209 3.52764 2.97247 0
M  V30 6981 H 687.452 3.36164 2.74183 0
M  V30 6982 H 688.123 3.36519 4.3756 0
M  V30 6983 H 690.599 1.50313 3.88001 0
M  V30 6984 H 689.475 1.56223 5.26199 0
M  V30 6985 H 689.736 0.0424452 4.4208 0
M  V30 6986 N 688.795 -1.27931 0.920396 0
M  V30 6987 C 690.041 -1.95329 0.5673 0
M  V30 6988 C 690.396 -1.7107 -0.880506 0
M  V30 6989 O 689.689 -1.02497 -1.61879 0
M  V30 6990 C 689.883 -3.47853 0.820558 0
M  V30 6991 C 689.712 -3.86941 2.29143 0
M  V30 6992 C 688.482 -4.10766 2.94278 0
M  V30 6993 C 690.68 -3.97091 3.26838 0
M  V30 6994 N 688.662 -4.36578 4.31594 0
M  V30 6995 C 690.033 -4.27194 4.49339 0
M  V30 6996 C 692.088 -3.79639 3.22147 0
M  V30 6997 C 690.791 -4.41662 5.67739 0
M  V30 6998 C 692.817 -3.95328 4.39852 0
M  V30 6999 C 692.179 -4.2581 5.61128 0
M  V30 7000 H 688.278 -0.73836 0.257583 0
M  V30 7001 H 690.862 -1.54447 1.1855 0
M  V30 7002 H 689.033 -3.87709 0.231571 0
M  V30 7003 H 690.765 -4.024 0.430824 0
M  V30 7004 H 687.52 -4.05318 2.44979 0
M  V30 7005 H 687.944 -4.53555 5.0261 0
M  V30 7006 H 692.586 -3.55119 2.29457 0
M  V30 7007 H 690.304 -4.65011 6.60901 0
M  V30 7008 H 693.89 -3.83253 4.37731 0
M  V30 7009 H 692.77 -4.37691 6.50689 0
M  V30 7010 N 690.273 -0.685099 -1.4193 0
M  V30 7011 C 691.22 -0.0131869 -2.30796 0
M  V30 7012 C 692.19 0.782129 -1.46533 0
M  V30 7013 O 693.375 0.75229 -1.75343 0
M  V30 7014 C 690.515 0.924768 -3.32479 0
M  V30 7015 C 689.628 0.122181 -4.31827 0
M  V30 7016 C 688.763 1.05682 -5.20581 0
M  V30 7017 C 687.802 0.246526 -6.11603 0
M  V30 7018 N 686.939 1.13442 -6.92875 0
M  V30 7019 H 691.779 -0.776789 -2.87698 0
M  V30 7020 H 689.316 -0.394791 -1.41703 0
M  V30 7021 H 691.274 1.48251 -3.89971 0
M  V30 7022 H 689.904 1.65488 -2.77152 0
M  V30 7023 H 688.956 -0.552335 -3.76369 0
M  V30 7024 H 690.268 -0.506473 -4.96222 0
M  V30 7025 H 689.422 1.68415 -5.82856 0
M  V30 7026 H 688.161 1.71935 -4.56388 0
M  V30 7027 H 687.166 -0.393944 -5.48387 0
M  V30 7028 H 688.391 -0.412053 -6.77849 0
M  V30 7029 H 686.337 1.78316 -6.313 0
M  V30 7030 H 686.254 0.561089 -7.53915 0
M  V30 7031 H 687.522 1.74889 -7.59628 0
M  V30 7032 N 691.751 1.51645 -0.429126 0
M  V30 7033 C 692.981 2.06133 0.138793 0
M  V30 7034 C 693.389 1.29735 1.37716 0
M  V30 7035 O 692.732 0.347955 1.80375 0
M  V30 7036 C 692.794 3.55504 0.534493 0
M  V30 7037 C 692.458 4.53098 -0.595917 0
M  V30 7038 C 693.455 4.98815 -1.46558 0
M  V30 7039 C 691.14 4.96296 -0.774309 0
M  V30 7040 C 693.134 5.86394 -2.4984 0
M  V30 7041 C 690.821 5.83667 -1.81042 0
M  V30 7042 C 691.819 6.28613 -2.67086 0
M  V30 7043 O 691.507 7.14251 -3.68919 0
M  V30 7044 H 691.239 0.675833 0.0150263 0
M  V30 7045 H 693.793 1.96301 -0.604584 0
M  V30 7046 H 692.023 3.63092 1.33045 0
M  V30 7047 H 693.712 3.92545 1.03262 0
M  V30 7048 H 694.478 4.66143 -1.33925 0
M  V30 7049 H 690.357 4.60859 -0.114178 0
M  V30 7050 H 693.901 6.21398 -3.17034 0
M  V30 7051 H 689.798 6.15753 -1.93698 0
M  V30 7052 H 690.566 7.3241 -3.65402 0
M  V30 7053 N 693.229 0.160201 1.56784 0
M  V30 7054 C 694.139 -0.787167 2.21 0
M  V30 7055 C 695.155 -1.26167 1.19825 0
M  V30 7056 O 696.331 -1.31611 1.52448 0
M  V30 7057 C 693.396 -2.00364 2.8294 0
M  V30 7058 C 692.457 -1.5771 3.99282 0
M  V30 7059 C 691.69 -2.73558 4.58259 0
M  V30 7060 O 691.913 -3.90129 4.16119 0
M  V30 7061 O 690.847 -2.48271 5.48311 0
M  V30 7062 H 694.673 -0.270462 3.02493 0
M  V30 7063 H 692.258 -0.0674666 1.49248 0
M  V30 7064 H 694.14 -2.71529 3.22257 0
M  V30 7065 H 692.815 -2.50961 2.04451 0
M  V30 7066 H 691.722 -0.835274 3.64656 0
M  V30 7067 H 693.055 -1.11815 4.79331 0
M  V30 7068 N 694.707 -1.5719 -0.113559 0
M  V30 7069 C 695.953 -1.85412 -0.821597 0
M  V30 7070 C 696.286 -0.746722 -1.7927 0
M  V30 7071 O 695.561 0.246971 -1.92926 0
M  V30 7072 C 695.844 -3.24233 -1.56669 0
M  V30 7073 C 695.697 -4.45578 -0.614823 0
M  V30 7074 C 697.016 -3.60697 -2.52161 0
M  V30 7075 H 694.135 -0.674406 -0.29723 0
M  V30 7076 H 696.777 -1.89807 -0.085694 0
M  V30 7077 H 694.927 -3.20617 -2.19401 0
M  V30 7078 H 696.599 -4.613 0.00407137 0
M  V30 7079 H 694.842 -4.33738 0.0732332 0
M  V30 7080 H 695.513 -5.39395 -1.17292 0
M  V30 7081 H 697.989 -3.65139 -1.99532 0
M  V30 7082 H 696.865 -4.58798 -3.01323 0
M  V30 7083 H 697.126 -2.88403 -3.35076 0
M  V30 7084 N 696.185 0.383891 -1.52853 0
M  V30 7085 C 697.413 1.1495 -1.7203 0
M  V30 7086 C 697.828 1.83578 -0.440957 0
M  V30 7087 O 697.185 1.72872 0.584925 0
M  V30 7088 C 697.236 2.19368 -2.87333 0
M  V30 7089 O 696.957 1.53536 -4.10315 0
M  V30 7090 C 698.458 3.08616 -3.18231 0
M  V30 7091 H 695.678 0.344445 -0.575846 0
M  V30 7092 H 698.222 0.448397 -1.99524 0
M  V30 7093 H 696.377 2.85105 -2.62286 0
M  V30 7094 H 696.791 2.2296 -4.74752 0
M  V30 7095 H 698.265 3.77902 -4.02361 0
M  V30 7096 H 698.742 3.72409 -2.32826 0
M  V30 7097 H 699.348 2.48518 -3.45136 0
M  V30 7098 N 697.663 1.43903 0.642637 0
M  V30 7099 C 698.893 1.49323 1.4278 0
M  V30 7100 C 699.301 0.113058 1.88862 0
M  V30 7101 O 698.644 -0.889089 1.60751 0
M  V30 7102 C 698.706 2.3861 2.68897 0
M  V30 7103 C 698.37 3.85976 2.44687 0
M  V30 7104 C 699.367 4.7681 2.07239 0
M  V30 7105 C 697.052 4.30567 2.58683 0
M  V30 7106 C 699.046 6.10234 1.841 0
M  V30 7107 C 696.733 5.64042 2.35159 0
M  V30 7108 C 697.731 6.53693 1.97925 0
M  V30 7109 O 697.419 7.84698 1.74654 0
M  V30 7110 H 697.151 0.509109 0.444729 0
M  V30 7111 H 699.705 1.89425 0.794195 0
M  V30 7112 H 697.935 1.93415 3.34855 0
M  V30 7113 H 699.624 2.35112 3.30873 0
M  V30 7114 H 700.39 4.43635 1.95993 0
M  V30 7115 H 696.269 3.61054 2.86637 0
M  V30 7116 H 699.813 6.80171 1.54962 0
M  V30 7117 H 695.71 5.96782 2.46011 0
M  V30 7118 H 696.478 7.96382 1.88993 0
M  V30 7119 N 699.141 -0.881989 1.30609 0
M  V30 7120 C 700.557 -1.16576 1.09005 0
M  V30 7121 C 700.757 -2.00961 -0.14727 0
M  V30 7122 O 699.813 -2.38117 -0.840036 0
M  V30 7123 C 701.126 -1.86954 2.35518 0
M  V30 7124 C 702.674 -1.99706 2.41011 0
M  V30 7125 C 703.149 -2.73497 3.67374 0
M  V30 7126 N 704.64 -2.8104 3.68199 0
M  V30 7127 C 705.375 -3.38718 4.62664 0
M  V30 7128 N 704.871 -3.97421 5.67475 0
M  V30 7129 N 706.664 -3.36561 4.50203 0
M  V30 7130 H 698.815 -0.319398 2.09985 0
M  V30 7131 H 701.078 -0.204058 0.925778 0
M  V30 7132 H 700.784 -1.32393 3.2583 0
M  V30 7133 H 700.658 -2.87317 2.44395 0
M  V30 7134 H 703.045 -2.53436 1.51176 0
M  V30 7135 H 703.126 -0.984218 2.36108 0
M  V30 7136 H 702.77 -2.20438 4.57569 0
M  V30 7137 H 702.7 -3.75163 3.6954 0
M  V30 7138 H 705.191 -2.39365 2.92426 0
M  V30 7139 H 705.504 -4.39507 6.35652 0
M  V30 7140 H 703.849 -3.95832 5.71264 0
M  V30 7141 H 707.04 -2.8993 3.67503 0
M  V30 7142 H 707.213 -3.81215 5.24003 0
M  V30 7143 N 700.619 -1.13374 -1.09472 0
M  V30 7144 C 701.566 -0.810682 -2.16094 0
M  V30 7145 C 702.536 0.227003 -1.64541 0
M  V30 7146 O 703.721 0.0993538 -1.90541 0
M  V30 7147 C 700.861 -0.282336 -3.43943 0
M  V30 7148 C 699.974 -1.37902 -4.09398 0
M  V30 7149 C 699.109 -0.809066 -5.25002 0
M  V30 7150 C 698.148 -1.88419 -5.82379 0
M  V30 7151 N 697.285 -1.33221 -6.89345 0
M  V30 7152 H 702.125 -1.72397 -2.43071 0
M  V30 7153 H 699.662 -0.860564 -1.19301 0
M  V30 7154 H 701.62 0.0421189 -4.17179 0
M  V30 7155 H 700.25 0.594083 -3.17286 0
M  V30 7156 H 699.302 -1.82008 -3.34032 0
M  V30 7157 H 700.614 -2.19161 -4.48074 0
M  V30 7158 H 699.768 -0.435867 -6.05132 0
M  V30 7159 H 698.507 0.0346058 -4.87688 0
M  V30 7160 H 697.512 -2.26646 -5.00911 0
M  V30 7161 H 698.737 -2.73125 -6.21755 0
M  V30 7162 H 696.683 -0.510535 -6.5401 0
M  V30 7163 H 696.6 -2.08129 -7.26786 0
M  V30 7164 H 697.868 -0.986565 -7.73232 0
M  V30 7165 N 702.098 1.27442 -0.927168 0
M  V30 7166 C 703.045 2.26863 -0.424459 0
M  V30 7167 C 704.015 1.5813 0.508346 0
M  V30 7168 O 705.2 1.85946 0.42762 0
M  V30 7169 C 702.34 3.43639 0.31718 0
M  V30 7170 C 701.453 4.27087 -0.649675 0
M  V30 7171 C 700.588 5.31082 0.111753 0
M  V30 7172 C 699.627 6.062 -0.847843 0
M  V30 7173 N 698.764 7.01999 -0.119074 0
M  V30 7174 H 703.604 2.69239 -1.27728 0
M  V30 7175 H 701.141 1.32394 -0.641106 0
M  V30 7176 H 703.099 4.10155 0.763486 0
M  V30 7177 H 701.729 3.02217 1.13424 0
M  V30 7178 H 700.781 3.60491 -1.21451 0
M  V30 7179 H 702.093 4.79242 -1.38307 0
M  V30 7180 H 701.247 6.03544 0.618 0
M  V30 7181 H 699.986 4.7973 0.878114 0
M  V30 7182 H 698.991 5.32577 -1.36534 0
M  V30 7183 H 700.216 6.59642 -1.61398 0
M  V30 7184 H 698.162 6.52977 0.629051 0
M  V30 7185 H 698.079 7.5184 -0.792046 0
M  V30 7186 H 699.347 7.78638 0.366537 0
M  V30 7187 N 703.576 0.692616 1.41565 0
M  V30 7188 C 704.824 0.221896 2.00878 0
M  V30 7189 C 705.145 -1.18164 1.5512 0
M  V30 7190 O 704.415 -1.79679 0.78054 0
M  V30 7191 H 702.995 0.0790463 0.742806 0
M  V30 7192 H 705.657 0.893115 1.73232 0
M  V30 7193 H 704.753 0.23702 3.11199 0
M  V30 7194 N 705.054 -1.51416 0.437162 0
M  V30 7195 C 706.331 -1.94682 -0.189292 0
M  V30 7196 C 706.711 -1.37581 -1.60108 0
M  V30 7197 O 706.059 -0.562815 -2.2146 0
M  V30 7198 C 706.269 -3.48599 -0.167201 0
M  V30 7199 C 707.617 -4.2296 -0.372856 0
M  V30 7200 O 708.641 -3.55354 -0.245323 0
M  V30 7201 O 707.5 -5.42895 -0.626693 0
M  V30 7202 H 704.594 -0.816708 -0.130063 0
M  V30 7203 H 707.14 -1.62316 0.495128 0
M  V30 7204 H 705.912 -3.82616 0.81981 0
M  V30 7205 H 705.535 -3.87406 -0.894537 0
M  V30 7206 N 706.532 -0.168513 -1.56696 0
M  V30 7207 C 707.757 0.486688 -2.01609 0
M  V30 7208 C 708.182 1.56203 -1.04796 0
M  V30 7209 O 707.54 1.8128 -0.0270596 0
M  V30 7210 C 707.588 1.04451 -3.45141 0
M  V30 7211 O 706.692 2.15862 -3.51393 0
M  V30 7212 H 706.033 0.116831 -0.653641 0
M  V30 7213 H 708.563 -0.271579 -2.0279 0
M  V30 7214 H 708.573 1.36782 -3.84389 0
M  V30 7215 H 707.248 0.257155 -4.15104 0
M  V30 7216 H 705.825 1.84597 -3.24004 0
M  V30 7217 N 708.01 1.57248 0.105221 0
M  V30 7218 C 708.958 2.02337 1.14728 0
M  V30 7219 C 709.952 0.922652 1.42069 0
M  V30 7220 O 711.158 1.10785 1.41869 0
M  V30 7221 H 707.533 0.644682 0.387155 0
M  V30 7222 H 709.504 2.89063 0.740607 0
M  V30 7223 C 708.253 2.45513 2.46209 0
M  V30 7224 H 707.576 3.29785 2.26013 0
M  V30 7225 H 709.016 2.80846 3.1765 0
M  V30 7226 C 707.475 1.3243 3.09781 0
M  V30 7227 O 708.005 0.647841 3.96442 0
M  V30 7228 N 706.211 1.07785 2.69872 0
M  V30 7229 H 705.758 1.62973 1.99493 0
M  V30 7230 H 705.716 0.323204 3.12734 0
M  V30 7231 N 709.488 -0.375779 1.53054 0
M  V30 7232 C 710.713 -1.14484 1.7294 0
M  V30 7233 C 711.138 -1.82572 0.452668 0
M  V30 7234 O 710.496 -1.71343 -0.592567 0
M  V30 7235 C 710.544 -2.15857 2.88857 0
M  V30 7236 O 709.648 -3.22725 2.56753 0
M  V30 7237 H 708.989 -0.332666 0.574656 0
M  V30 7238 H 711.519 -0.436025 1.999 0
M  V30 7239 H 711.529 -2.59631 3.14731 0
M  V30 7240 H 710.204 -1.65689 3.81471 0
M  V30 7241 H 708.781 -2.83996 2.41663 0
M  V30 7242 N 710.966 -1.44241 -0.634997 0
M  V30 7243 C 712.196 -1.50078 -1.41987 0
M  V30 7244 C 712.604 -0.123072 -1.88799 0
M  V30 7245 O 711.947 0.880552 -1.6122 0
M  V30 7246 C 712.009 -2.40033 -2.67628 0
M  V30 7247 C 711.673 -3.87268 -2.42637 0
M  V30 7248 C 712.67 -4.77902 -2.04708 0
M  V30 7249 C 710.355 -4.31933 -2.56396 0
M  V30 7250 C 712.349 -6.11202 -1.80862 0
M  V30 7251 C 710.036 -5.65281 -2.32164 0
M  V30 7252 C 711.034 -6.54734 -1.94455 0
M  V30 7253 O 710.722 -7.85613 -1.7049 0
M  V30 7254 H 710.454 -0.51146 -0.442023 0
M  V30 7255 H 713.008 -1.89843 -0.784138 0
M  V30 7256 H 711.238 -1.95188 -3.33824 0
M  V30 7257 H 712.927 -2.36863 -3.29622 0
M  V30 7258 H 713.693 -4.44668 -1.93638 0
M  V30 7259 H 709.572 -3.62569 -2.84719 0
M  V30 7260 H 713.116 -6.80983 -1.51353 0
M  V30 7261 H 709.013 -5.98078 -2.42843 0
M  V30 7262 H 709.781 -7.97373 -1.84767 0
M  V30 7263 N 712.444 0.87505 -1.31075 0
M  V30 7264 C 713.392 2.00317 -1.18219 0
M  V30 7265 C 714.386 1.69152 -0.0916872 0
M  V30 7266 O 715.592 1.7821 -0.253229 0
M  V30 7267 H 711.967 0.656981 -0.365895 0
M  V30 7268 H 713.938 2.08293 -2.13674 0
M  V30 7269 C 712.687 3.35821 -0.901095 0
M  V30 7270 H 712.01 3.6032 -1.73233 0
M  V30 7271 H 713.45 4.15366 -0.851295 0
M  V30 7272 C 711.909 3.34563 0.396114 0
M  V30 7273 O 712.439 3.75971 1.41452 0
M  V30 7274 N 710.645 2.87681 0.410832 0
M  V30 7275 H 710.192 2.54179 -0.418415 0
M  V30 7276 H 710.15 2.87223 1.27869 0
M  V30 7277 N 713.922 1.13953 1.08869 0
M  V30 7278 C 715.168 0.906151 1.8143 0
M  V30 7279 C 715.501 -0.566089 1.85766 0
M  V30 7280 O 714.776 -1.41915 1.33006 0
M  V30 7281 C 715.059 1.50183 3.27287 0
M  V30 7282 C 714.912 3.04359 3.31189 0
M  V30 7283 C 716.231 1.17477 4.24131 0
M  V30 7284 H 713.35 0.330624 0.658678 0
M  V30 7285 H 715.992 1.40873 1.27495 0
M  V30 7286 H 714.142 1.07442 3.73348 0
M  V30 7287 H 715.814 3.55896 2.93488 0
M  V30 7288 H 714.057 3.39053 2.70602 0
M  V30 7289 H 714.728 3.41141 4.33966 0
M  V30 7290 H 717.204 1.5442 3.86385 0
M  V30 7291 H 716.08 1.61795 5.24513 0
M  V30 7292 H 716.341 0.0893312 4.4201 0
M  V30 7293 N 715.4 -1.26948 0.933913 0
M  V30 7294 C 716.816 -1.46419 0.635103 0
M  V30 7295 C 717.016 -1.84336 -0.813785 0
M  V30 7296 O 716.072 -1.96061 -1.59111 0
M  V30 7297 C 717.385 -2.55206 1.5903 0
M  V30 7298 C 718.933 -2.69062 1.5992 0
M  V30 7299 C 719.408 -3.81013 2.54152 0
M  V30 7300 N 720.899 -3.88395 2.52395 0
M  V30 7301 C 721.634 -4.74454 3.21996 0
M  V30 7302 N 721.13 -5.64954 4.00997 0
M  V30 7303 N 722.923 -4.68237 3.10983 0
M  V30 7304 H 715.074 -1.00622 1.87053 0
M  V30 7305 H 717.337 -0.503189 0.803433 0
M  V30 7306 H 717.043 -2.34153 2.62422 0
M  V30 7307 H 716.917 -3.52719 1.33677 0
M  V30 7308 H 719.304 -2.89492 0.572569 0
M  V30 7309 H 719.385 -1.72016 1.89325 0
M  V30 7310 H 719.029 -3.61336 3.5693 0
M  V30 7311 H 718.959 -4.77499 2.22041 0
M  V30 7312 H 721.45 -3.23687 1.95025 0
M  V30 7313 H 721.763 -6.27496 4.51074 0
M  V30 7314 H 720.108 -5.6473 4.05099 0
M  V30 7315 H 723.299 -3.96535 2.48753 0
M  V30 7316 H 723.472 -5.35087 3.65494 0
M  V30 7317 N 716.879 -0.700114 -1.41195 0
M  V30 7318 C 718.295 -0.372114 -1.55201 0
M  V30 7319 C 718.495 1.12053 -1.6747 0
M  V30 7320 O 717.551 1.90642 -1.65566 0
M  V30 7321 C 718.864 -1.12462 -2.78878 0
M  V30 7322 C 720.412 -1.10941 -2.92679 0
M  V30 7323 C 720.887 -1.84376 -4.19249 0
M  V30 7324 N 722.378 -1.81368 -4.26216 0
M  V30 7325 C 723.113 -2.35024 -5.23021 0
M  V30 7326 N 722.609 -2.9717 -6.25829 0
M  V30 7327 N 724.402 -2.25254 -5.14992 0
M  V30 7328 H 716.553 -1.66816 -1.31477 0
M  V30 7329 H 718.816 -0.704223 -0.634644 0
M  V30 7330 H 718.522 -2.17937 -2.76037 0
M  V30 7331 H 718.396 -0.706152 -3.70531 0
M  V30 7332 H 720.783 -0.062911 -2.95033 0
M  V30 7333 H 720.864 -1.56698 -2.02187 0
M  V30 7334 H 720.508 -2.89008 -4.17656 0
M  V30 7335 H 720.438 -1.3605 -5.08722 0
M  V30 7336 H 722.929 -1.36062 -3.52556 0
M  V30 7337 H 723.242 -3.35668 -6.96094 0
M  V30 7338 H 721.587 -3.01249 -6.26318 0
M  V30 7339 H 724.778 -1.76372 -4.33602 0
M  V30 7340 H 724.951 -2.67373 -5.90268 0
M  V30 7341 N 718.357 1.51182 -0.445186 0
M  V30 7342 C 719.585 2.06568 0.117091 0
M  V30 7343 C 720 1.31182 1.35781 0
M  V30 7344 O 719.357 0.373605 1.78635 0
M  V30 7345 C 719.408 3.58917 0.431408 0
M  V30 7346 O 719.129 4.31456 -0.760078 0
M  V30 7347 C 720.63 4.30843 1.0435 0
M  V30 7348 H 717.85 0.670985 0.00444436 0
M  V30 7349 H 720.394 1.94666 -0.626525 0
M  V30 7350 H 718.549 3.70708 1.12493 0
M  V30 7351 H 718.963 5.22215 -0.489048 0
M  V30 7352 H 720.437 5.38499 1.21337 0
M  V30 7353 H 720.914 3.89644 2.02667 0
M  V30 7354 H 721.52 4.23516 0.38913 0
M  V30 7355 N 719.835 0.176821 1.56605 0
M  V30 7356 C 720.745 -0.763682 2.21822 0
M  V30 7357 C 721.761 -1.24889 1.21156 0
M  V30 7358 O 722.937 -1.29987 1.53836 0
M  V30 7359 C 720.002 -1.97352 2.8505 0
M  V30 7360 C 719.063 -1.53466 4.00932 0
M  V30 7361 C 718.296 -2.68682 4.61135 0
M  V30 7362 O 718.519 -3.85694 4.20234 0
M  V30 7363 O 717.453 -2.42442 5.50913 0
M  V30 7364 H 721.279 -0.238363 3.02763 0
M  V30 7365 H 718.864 -0.0516331 1.49311 0
M  V30 7366 H 720.746 -2.68096 3.25119 0
M  V30 7367 H 719.421 -2.48779 2.07101 0
M  V30 7368 H 718.328 -0.796551 3.65521 0
M  V30 7369 H 719.661 -1.06724 4.8049 0
M  V30 7370 N 721.313 -1.57302 -0.09688 0
M  V30 7371 C 722.561 -1.8563 -0.799117 0
M  V30 7372 C 722.882 -0.765263 -1.79356 0
M  V30 7373 O 722.152 0.208657 -1.94786 0
M  V30 7374 H 720.732 -0.684937 -0.298111 0
M  V30 7375 H 723.394 -1.9474 -0.0789341 0
M  V30 7376 H 722.49 -2.82305 -1.3308 0
M  V30 7377 N 722.791 0.367657 -1.53252 0
M  V30 7378 C 724.038 1.11052 -1.69333 0
M  V30 7379 C 724.366 1.89363 -0.444064 0
M  V30 7380 O 723.621 1.87094 0.573953 0
M  V30 7381 C 723.92 2.09825 -2.89324 0
M  V30 7382 C 723.586 1.4801 -4.25915 0
M  V30 7383 C 722.248 1.30879 -4.6306 0
M  V30 7384 C 724.6 1.03268 -5.10867 0
M  V30 7385 C 721.928 0.675868 -5.82794 0
M  V30 7386 C 724.28 0.41377 -6.31245 0
M  V30 7387 C 722.944 0.229939 -6.67104 0
M  V30 7388 H 722.214 0.406367 -0.619634 0
M  V30 7389 H 724.861 0.392558 -1.87433 0
M  V30 7390 H 723.166 2.87917 -2.65728 0
M  V30 7391 H 724.863 2.67252 -2.98961 0
M  V30 7392 H 721.453 1.62336 -3.96667 0
M  V30 7393 H 725.637 1.15297 -4.82722 0
M  V30 7394 H 720.893 0.521833 -6.09169 0
M  V30 7395 H 725.067 0.0588768 -6.96375 0
M  V30 7396 H 722.694 -0.262562 -7.59746 0
M  V30 7397 N 724.269 1.44576 0.627338 0
M  V30 7398 C 725.494 1.51271 1.41887 0
M  V30 7399 C 725.919 0.139814 1.8758 0
M  V30 7400 O 725.277 -0.871746 1.58966 0
M  V30 7401 C 725.325 2.48529 2.61277 0
M  V30 7402 O 724.429 1.98944 3.61241 0
M  V30 7403 H 723.77 0.510668 0.424399 0
M  V30 7404 H 726.3 1.89746 0.765356 0
M  V30 7405 H 726.31 2.66689 3.08773 0
M  V30 7406 H 724.985 3.48249 2.27366 0
M  V30 7407 H 723.562 1.90568 3.20528 0
M  V30 7408 N 725.747 -0.868086 1.31537 0
M  V30 7409 C 726.993 -1.62367 1.2151 0
M  V30 7410 C 727.326 -1.92883 -0.225819 0
M  V30 7411 O 726.601 -1.56176 -1.15927 0
M  V30 7412 C 726.884 -2.95268 2.06129 0
M  V30 7413 C 726.737 -2.71619 3.58529 0
M  V30 7414 C 728.056 -3.96391 1.91212 0
M  V30 7415 H 725.175 -0.589178 0.442762 0
M  V30 7416 H 727.817 -1.00336 1.61347 0
M  V30 7417 H 725.967 -3.4821 1.72284 0
M  V30 7418 H 727.639 -2.25334 4.0252 0
M  V30 7419 H 725.882 -2.05817 3.81866 0
M  V30 7420 H 726.553 -3.66192 4.13047 0
M  V30 7421 H 729.029 -3.52663 2.20834 0
M  V30 7422 H 727.905 -4.87263 2.52718 0
M  V30 7423 H 728.166 -4.33335 0.875953 0
M  V30 7424 N 727.225 -1.14528 -1.08264 0
M  V30 7425 C 728.453 -0.937964 -1.84418 0
M  V30 7426 C 728.868 0.51357 -1.81681 0
M  V30 7427 O 728.225 1.35591 -1.22153 0
M  V30 7428 C 728.276 -1.43272 -3.31897 0
M  V30 7429 O 727.997 -2.82738 -3.34651 0
M  V30 7430 C 729.498 -1.26555 -4.24851 0
M  V30 7431 H 726.718 -0.333704 -0.582136 0
M  V30 7432 H 729.262 -1.52076 -1.36723 0
M  V30 7433 H 727.417 -0.892653 -3.76975 0
M  V30 7434 H 727.831 -3.04971 -4.26724 0
M  V30 7435 H 729.305 -1.66031 -5.26439 0
M  V30 7436 H 729.782 -0.208589 -4.38704 0
M  V30 7437 H 730.388 -1.79423 -3.856 0
M  V30 7438 N 728.703 1.26451 -0.940633 0
M  V30 7439 C 729.633 2.28773 -0.467479 0
M  V30 7440 C 730.614 1.63218 0.478955 0
M  V30 7441 O 731.799 1.90427 0.380929 0
M  V30 7442 C 728.929 3.46259 0.268656 0
M  V30 7443 C 727.883 4.23898 -0.591171 0
M  V30 7444 C 727.209 5.33993 0.274891 0
M  V30 7445 C 728.509 4.87974 -1.86223 0
M  V30 7446 H 730.203 2.68601 -1.32265 0
M  V30 7447 H 727.749 1.29123 -0.637436 0
M  V30 7448 H 729.702 4.16951 0.610696 0
M  V30 7449 H 728.426 3.05383 1.15796 0
M  V30 7450 H 727.085 3.54969 -0.916098 0
M  V30 7451 H 726.733 4.89358 1.16353 0
M  V30 7452 H 726.433 5.86849 -0.297006 0
M  V30 7453 H 727.957 6.07523 0.612213 0
M  V30 7454 H 729.371 5.50883 -1.58747 0
M  V30 7455 H 727.768 5.50945 -2.37866 0
M  V30 7456 H 728.838 4.10945 -2.57394 0
M  V30 7457 N 730.181 0.707592 1.40822 0
M  V30 7458 C 731.458 0.171172 1.9485 0
M  V30 7459 C 731.838 -1.32143 1.64625 0
M  V30 7460 O 731.186 -2.07372 0.959647 0
M  V30 7461 C 731.396 0.475334 3.45748 0
M  V30 7462 C 732.744 0.409625 4.22619 0
M  V30 7463 O 733.768 0.410934 3.53822 0
M  V30 7464 O 732.627 0.380185 5.45176 0
M  V30 7465 H 729.721 0.022015 0.826707 0
M  V30 7466 H 732.267 0.784577 1.50474 0
M  V30 7467 H 731.039 1.50801 3.61075 0
M  V30 7468 H 730.662 -0.168439 3.97243 0
M  V30 7469 N 731.66 -1.50943 0.453197 0
M  V30 7470 C 732.937 -1.94872 -0.168633 0
M  V30 7471 C 733.317 -1.39272 -1.5864 0
M  V30 7472 O 732.665 -0.586272 -2.20851 0
M  V30 7473 C 732.875 -3.48757 -0.130217 0
M  V30 7474 C 734.223 -4.23331 -0.327975 0
M  V30 7475 O 735.247 -3.55594 -0.207619 0
M  V30 7476 O 734.106 -5.43529 -0.569077 0
M  V30 7477 H 731.2 -0.818042 -0.121394 0
M  V30 7478 H 733.746 -1.61782 0.512316 0
M  V30 7479 H 732.518 -3.81725 0.860346 0
M  V30 7480 H 732.141 -3.88333 -0.853397 0
M  V30 7481 N 733.138 -0.185124 -1.56509 0
M  V30 7482 C 734.068 0.735098 -2.21627 0
M  V30 7483 C 735.049 1.2288 -1.1762 0
M  V30 7484 O 736.234 1.27945 -1.46095 0
M  V30 7485 C 733.364 1.95889 -2.86783 0
M  V30 7486 C 732.318 1.6005 -3.96948 0
M  V30 7487 C 731.644 2.90009 -4.4922 0
M  V30 7488 C 732.944 0.818008 -5.15855 0
M  V30 7489 H 734.638 0.192274 -2.98782 0
M  V30 7490 H 732.184 0.0910393 -1.43712 0
M  V30 7491 H 734.137 2.60779 -3.31017 0
M  V30 7492 H 732.861 2.52608 -2.07018 0
M  V30 7493 H 731.52 0.975237 -3.5339 0
M  V30 7494 H 731.168 3.44797 -3.6623 0
M  V30 7495 H 730.868 2.66778 -5.23549 0
M  V30 7496 H 732.392 3.55904 -4.9615 0
M  V30 7497 H 733.806 1.36979 -5.56695 0
M  V30 7498 H 732.203 0.684207 -5.96187 0
M  V30 7499 H 733.273 -0.182939 -4.84555 0
M  V30 7500 N 734.616 1.57351 0.0885366 0
M  V30 7501 C 735.579 2.01557 1.09121 0
M  V30 7502 C 736.579 0.910052 1.3257 0
M  V30 7503 O 737.769 1.17537 1.28572 0
M  V30 7504 C 734.901 2.38189 2.43883 0
M  V30 7505 H 736.094 2.91361 0.710562 0
M  V30 7506 H 733.647 1.52694 0.333779 0
M  V30 7507 H 734.382 1.5136 2.86811 0
M  V30 7508 H 734.167 3.18846 2.28209 0
M  V30 7509 H 735.657 2.73025 3.15986 0
M  V30 7510 N 736.094 -0.359525 1.53444 0
M  V30 7511 C 737.505 -0.936009 1.61542 0
M  V30 7512 C 737.856 -1.90069 0.486633 0
M  V30 7513 O 736.981 -2.12929 -0.386047 0
M  V30 7514 C 737.576 -1.70441 2.92806 0
M  V30 7515 C 736.135 -2.23015 3.03218 0
M  V30 7516 C 735.282 -1.04438 2.56881 0
M  V30 7517 H 738.233 -0.138134 1.58098 0
M  V30 7518 H 738.254 -2.56609 2.80948 0
M  V30 7519 H 737.766 -1.00205 3.74941 0
M  V30 7520 H 735.867 -2.96475 2.25684 0
M  V30 7521 H 735.98 -2.50481 4.08407 0
M  V30 7522 H 734.344 -1.41314 2.11902 0
M  V30 7523 H 735.127 -0.356905 3.4144 0
M  V30 7524 N 737.572 -1.44907 -0.619662 0
M  V30 7525 C 738.849 -1.38766 -1.37852 0
M  V30 7526 C 739.229 -0.0521393 -2.11036 0
M  V30 7527 O 738.577 0.965613 -2.07095 0
M  V30 7528 C 738.787 -2.59344 -2.33541 0
M  V30 7529 C 740.135 -3.03909 -2.96521 0
M  V30 7530 O 741.159 -2.59631 -2.43865 0
M  V30 7531 O 740.018 -3.80713 -3.92071 0
M  V30 7532 H 737.112 -0.550083 -0.617525 0
M  V30 7533 H 739.658 -1.57015 -0.643759 0
M  V30 7534 H 738.43 -3.48142 -1.78642 0
M  V30 7535 H 738.053 -2.43367 -3.14417 0
M  V30 7536 N 739.05 0.861098 -1.31996 0
M  V30 7537 C 740.278 1.6474 -1.25173 0
M  V30 7538 C 740.693 1.87926 0.181425 0
M  V30 7539 O 740.05 1.4437 1.1164 0
M  V30 7540 C 740.101 3.01036 -2.0015 0
M  V30 7541 O 739.822 2.7888 -3.37872 0
M  V30 7542 C 741.323 3.95481 -2.00273 0
M  V30 7543 H 738.543 0.513314 -0.432146 0
M  V30 7544 H 741.087 1.07419 -1.74016 0
M  V30 7545 H 739.242 3.55021 -1.55046 0
M  V30 7546 H 739.656 3.65514 -3.76165 0
M  V30 7547 H 741.13 4.88403 -2.57229 0
M  V30 7548 H 741.607 4.27957 -0.987407 0
M  V30 7549 H 742.213 3.47433 -2.45296 0
M  V30 7550 N 740.528 1.15101 1.07655 0
M  V30 7551 C 741.756 0.947731 1.83918 0
M  V30 7552 C 742.171 -0.503927 1.81951 0
M  V30 7553 O 741.528 -1.34941 1.2287 0
M  V30 7554 C 741.579 1.4503 3.31132 0
M  V30 7555 O 741.3 2.84508 3.33146 0
M  V30 7556 C 742.801 1.28806 4.24174 0
M  V30 7557 H 740.021 0.336786 0.580358 0
M  V30 7558 H 742.565 1.52799 1.35914 0
M  V30 7559 H 740.72 0.912632 3.76497 0
M  V30 7560 H 741.134 3.0723 4.251 0
M  V30 7561 H 742.608 1.6882 5.25551 0
M  V30 7562 H 743.085 0.231851 4.38588 0
M  V30 7563 H 743.691 1.81465 3.84643 0
M  V30 7564 N 742.006 -1.2595 0.947325 0
M  V30 7565 C 743.236 -1.97258 0.614235 0
M  V30 7566 C 743.644 -1.70682 -0.816355 0
M  V30 7567 O 742.987 -0.97527 -1.55673 0
M  V30 7568 C 743.049 -3.50845 0.784081 0
M  V30 7569 C 742.713 -4.01084 2.19045 0
M  V30 7570 C 743.71 -4.12347 3.16648 0
M  V30 7571 C 741.395 -4.34936 2.51268 0
M  V30 7572 C 743.389 -4.56766 4.44572 0
M  V30 7573 C 741.076 -4.79043 3.79422 0
M  V30 7574 C 742.074 -4.89919 4.75887 0
M  V30 7575 O 741.762 -5.3305 6.01758 0
M  V30 7576 H 741.494 -0.635738 0.22981 0
M  V30 7577 H 744.048 -1.61268 1.27207 0
M  V30 7578 H 742.278 -3.86638 0.069101 0
M  V30 7579 H 743.967 -4.03363 0.453135 0
M  V30 7580 H 744.733 -3.86432 2.93079 0
M  V30 7581 H 740.612 -4.25702 1.76916 0
M  V30 7582 H 744.156 -4.6517 5.19868 0
M  V30 7583 H 740.053 -5.04402 4.02802 0
M  V30 7584 H 740.821 -5.51255 6.05029 0
M  V30 7585 N 743.484 -0.715051 -1.40445 0
M  V30 7586 C 744.414 -0.0768699 -2.33373 0
M  V30 7587 C 745.395 0.746109 -1.52863 0
M  V30 7588 O 746.58 0.695142 -1.81332 0
M  V30 7589 C 743.71 0.846014 -3.36838 0
M  V30 7590 C 742.664 0.128694 -4.27806 0
M  V30 7591 C 741.99 1.16726 -5.21804 0
M  V30 7592 C 743.29 -1.01679 -5.12307 0
M  V30 7593 H 744.984 -0.853061 -2.8699 0
M  V30 7594 H 742.53 -0.41167 -1.3799 0
M  V30 7595 H 744.483 1.30185 -4.00786 0
M  V30 7596 H 743.207 1.6541 -2.81615 0
M  V30 7597 H 741.866 -0.307314 -3.6531 0
M  V30 7598 H 741.514 1.96838 -4.62887 0
M  V30 7599 H 741.214 0.692188 -5.83509 0
M  V30 7600 H 742.738 1.62321 -5.88629 0
M  V30 7601 H 744.152 -0.640337 -5.69713 0
M  V30 7602 H 742.549 -1.4202 -5.83053 0
M  V30 7603 H 743.619 -1.84769 -4.48317 0
M  V30 7604 N 744.962 1.50701 -0.461195 0
M  V30 7605 C 746.208 2.02566 0.0973411 0
M  V30 7606 C 746.541 1.3432 1.40257 0
M  V30 7607 O 745.816 0.465692 1.88843 0
M  V30 7608 C 746.099 3.58919 0.291423 0
M  V30 7609 C 745.952 4.37751 -1.03413 0
M  V30 7610 C 747.271 4.27379 1.05048 0
M  V30 7611 H 744.39 0.73622 0.0339026 0
M  V30 7612 H 747.032 1.80115 -0.604855 0
M  V30 7613 H 745.182 3.78179 0.889539 0
M  V30 7614 H 746.854 4.30085 -1.66806 0
M  V30 7615 H 745.097 4.01885 -1.63313 0
M  V30 7616 H 745.768 5.45384 -0.852085 0
M  V30 7617 H 748.244 4.12534 0.543603 0
M  V30 7618 H 747.12 5.36609 1.15506 0
M  V30 7619 H 747.381 3.89868 2.0846 0
M  V30 7620 N 746.441 0.193421 1.56409 0
M  V30 7621 C 747.373 -0.759944 2.16235 0
M  V30 7622 C 748.386 -1.17797 1.12373 0
M  V30 7623 O 749.575 -1.11399 1.39472 0
M  V30 7624 C 746.675 -2.03735 2.70823 0
M  V30 7625 C 745.848 -1.77939 3.9957 0
M  V30 7626 C 744.907 -2.90111 4.39001 0
M  V30 7627 O 743.933 -2.59791 5.06456 0
M  V30 7628 N 745.135 -4.18426 4.02368 0
M  V30 7629 H 747.9 -0.248348 2.98669 0
M  V30 7630 H 745.461 0.0113966 1.61896 0
M  V30 7631 H 747.453 -2.77914 2.94187 0
M  V30 7632 H 746.023 -2.46022 1.92852 0
M  V30 7633 H 745.243 -0.875491 3.84355 0
M  V30 7634 H 746.531 -1.58099 4.83614 0
M  V30 7635 H 745.929 -4.45913 3.48106 0
M  V30 7636 H 744.486 -4.89237 4.30686 0
M  V30 7637 N 747.919 -1.57396 -0.0801906 0
M  V30 7638 C 749.165 -1.87113 -0.782083 0
M  V30 7639 C 749.498 -0.78458 -1.77646 0
M  V30 7640 O 748.773 0.205993 -1.93406 0
M  V30 7641 C 749.056 -3.27483 -1.49756 0
M  V30 7642 C 748.909 -4.46782 -0.520171 0
M  V30 7643 C 750.228 -3.65965 -2.44454 0
M  V30 7644 H 747.347 -0.680559 -0.282858 0
M  V30 7645 H 749.989 -1.89946 -0.0454139 0
M  V30 7646 H 748.139 -3.25199 -2.12551 0
M  V30 7647 H 749.811 -4.61187 0.101919 0
M  V30 7648 H 748.054 -4.33485 0.165219 0
M  V30 7649 H 748.725 -5.41761 -1.05824 0
M  V30 7650 H 751.201 -3.69289 -1.91742 0
M  V30 7651 H 750.077 -4.65086 -2.91524 0
M  V30 7652 H 750.338 -2.95446 -3.28883 0
M  V30 7653 N 749.397 0.351382 -1.53633 0
M  V30 7654 C 750.329 1.45159 -1.77374 0
M  V30 7655 C 751.342 1.4905 -0.654826 0
M  V30 7656 O 752.531 1.52274 -0.931396 0
M  V30 7657 C 749.631 2.83858 -1.85143 0
M  V30 7658 C 748.804 3.03498 -3.14972 0
M  V30 7659 C 747.863 4.22393 -3.138 0
M  V30 7660 O 746.889 4.16885 -3.87551 0
M  V30 7661 N 748.091 5.30533 -2.35617 0
M  V30 7662 H 750.856 1.25167 -2.72311 0
M  V30 7663 H 748.417 0.54121 -1.52586 0
M  V30 7664 H 750.409 3.61557 -1.8182 0
M  V30 7665 H 748.979 2.9703 -0.974275 0
M  V30 7666 H 748.199 2.13336 -3.31484 0
M  V30 7667 H 749.487 3.13498 -4.00745 0
M  V30 7668 H 748.885 5.37875 -1.75235 0
M  V30 7669 H 747.442 6.06756 -2.38098 0
M  V30 7670 N 750.875 1.45233 0.611969 0
M  V30 7671 C 751.838 1.53189 1.70487 0
M  V30 7672 C 752.838 0.411839 1.55437 0
M  V30 7673 O 754.028 0.675164 1.60584 0
M  V30 7674 C 751.16 1.42422 3.09723 0
M  V30 7675 H 752.353 2.5056 1.64802 0
M  V30 7676 H 749.906 1.32609 0.827318 0
M  V30 7677 H 750.641 0.462185 3.2099 0
M  V30 7678 H 750.426 2.23658 3.22055 0
M  V30 7679 H 751.916 1.51012 3.89339 0
M  V30 7680 N 752.353 -0.854086 1.3245 0
M  V30 7681 C 753.283 -1.97827 1.24044 0
M  V30 7682 C 754.264 -1.69646 0.124166 0
M  V30 7683 O 755.449 -1.91687 0.31143 0
M  V30 7684 C 752.579 -3.33673 0.963324 0
M  V30 7685 C 751.533 -3.76207 2.04089 0
M  V30 7686 C 750.859 -5.0969 1.61618 0
M  V30 7687 C 752.159 -3.91612 3.45597 0
M  V30 7688 H 753.853 -2.05118 2.18099 0
M  V30 7689 H 751.399 -0.985489 1.04996 0
M  V30 7690 H 753.352 -4.11871 0.891061 0
M  V30 7691 H 752.076 -3.26597 -0.0128649 0
M  V30 7692 H 750.735 -3.0026 2.10332 0
M  V30 7693 H 750.383 -4.99072 0.627418 0
M  V30 7694 H 750.083 -5.3912 2.33717 0
M  V30 7695 H 751.607 -5.90381 1.55829 0
M  V30 7696 H 753.021 -4.60163 3.4194 0
M  V30 7697 H 751.418 -4.3246 4.16051 0
M  V30 7698 H 752.488 -2.9451 3.85217 0
M  V30 7699 N 753.831 -1.1567 -1.07043 0
M  V30 7700 C 755.059 -0.957471 -1.83412 0
M  V30 7701 C 755.474 0.494271 -1.82215 0
M  V30 7702 O 754.831 1.34288 -1.23584 0
M  V30 7703 C 754.882 -1.46784 -3.30359 0
M  V30 7704 O 754.603 -2.86271 -3.31633 0
M  V30 7705 C 756.104 -1.31054 -4.23485 0
M  V30 7706 H 753.324 -0.33986 -0.578564 0
M  V30 7707 H 755.868 -1.53518 -1.35102 0
M  V30 7708 H 754.023 -0.932586 -3.76007 0
M  V30 7709 H 754.437 -3.0948 -4.23465 0
M  V30 7710 H 755.911 -1.71605 -5.24648 0
M  V30 7711 H 756.388 -0.255107 -4.38458 0
M  V30 7712 H 756.994 -1.83503 -3.83676 0
M  V30 7713 N 755.309 1.25446 -0.953992 0
M  V30 7714 C 756.241 2.25111 -0.431004 0
M  V30 7715 C 757.254 1.56377 0.452764 0
M  V30 7716 O 758.443 1.76579 0.261144 0
M  V30 7717 C 755.543 3.3655 0.39839 0
M  V30 7718 C 754.716 4.34843 -0.472229 0
M  V30 7719 C 753.775 5.25351 0.29886 0
M  V30 7720 O 752.801 5.68396 -0.302522 0
M  V30 7721 N 754.003 5.5824 1.59211 0
M  V30 7722 H 756.768 2.70619 -1.28785 0
M  V30 7723 H 754.329 1.39346 -0.824281 0
M  V30 7724 H 756.321 3.94059 0.921941 0
M  V30 7725 H 754.891 2.90436 1.15609 0
M  V30 7726 H 754.111 3.76222 -1.17689 0
M  V30 7727 H 755.399 4.97497 -1.06648 0
M  V30 7728 H 754.797 5.25172 2.10264 0
M  V30 7729 H 753.354 6.18336 2.06164 0
M  V30 7730 N 756.787 0.722489 1.40064 0
M  V30 7731 C 757.697 0.0755984 2.34478 0
M  V30 7732 C 758.713 -0.736046 1.57665 0
M  V30 7733 O 759.889 -0.667407 1.9002 0
M  V30 7734 C 756.954 -0.830075 3.36616 0
M  V30 7735 C 756.015 -0.00759884 4.29299 0
M  V30 7736 C 755.248 -0.870139 5.26559 0
M  V30 7737 O 755.471 -2.10921 5.2997 0
M  V30 7738 O 754.405 -0.305454 6.01124 0
M  V30 7739 H 758.231 0.854545 2.9143 0
M  V30 7740 H 755.816 0.483032 1.41376 0
M  V30 7741 H 757.698 -1.34864 3.99236 0
M  V30 7742 H 756.373 -1.58805 2.82069 0
M  V30 7743 H 755.28 0.556199 3.69942 0
M  V30 7744 H 756.613 0.712312 4.87018 0
M  V30 7745 N 758.265 -1.50454 0.469181 0
M  V30 7746 C 759.513 -2.01916 -0.0862982 0
M  V30 7747 C 759.834 -1.35337 -1.40388 0
M  V30 7748 O 759.104 -0.498096 -1.89462 0
M  V30 7749 H 757.684 -0.746185 -0.0348825 0
M  V30 7750 H 760.346 -1.84804 0.619167 0
M  V30 7751 H 759.442 -3.11182 -0.239189 0
M  V30 7752 N 759.743 -0.201713 -1.56304 0
M  V30 7753 C 760.675 0.748466 -2.16635 0
M  V30 7754 C 761.688 1.172 -1.12996 0
M  V30 7755 O 762.877 1.10658 -1.40061 0
M  V30 7756 C 759.977 2.02296 -2.719 0
M  V30 7757 C 759.15 1.75818 -4.00508 0
M  V30 7758 C 758.209 2.87779 -4.40533 0
M  V30 7759 O 757.235 2.57101 -5.07826 0
M  V30 7760 N 758.437 4.16287 -4.04581 0
M  V30 7761 H 761.202 0.232505 -2.98797 0
M  V30 7762 H 758.763 -0.0199822 -1.61888 0
M  V30 7763 H 760.755 2.7635 -2.95657 0
M  V30 7764 H 759.325 2.44996 -1.94154 0
M  V30 7765 H 758.545 0.855095 -3.84814 0
M  V30 7766 H 759.833 1.55532 -4.84445 0
M  V30 7767 H 759.231 4.44061 -3.50466 0
M  V30 7768 H 757.788 4.86946 -4.33274 0
M  V30 7769 N 761.222 1.57436 0.0718424 0
M  V30 7770 C 762.47 1.86878 0.769484 0
M  V30 7771 C 762.791 0.7937 1.78116 0
M  V30 7772 O 762.061 -0.177642 1.95093 0
M  V30 7773 H 760.641 0.689593 0.287177 0
M  V30 7774 H 763.303 1.94841 0.0479427 0
M  V30 7775 H 762.399 2.84387 1.28572 0
M  V30 7776 N 762.7 -0.34323 1.53817 0
M  V30 7777 C 763.663 -1.40444 1.8113 0
M  V30 7778 C 764.663 -1.45604 0.682366 0
M  V30 7779 O 765.853 -1.45974 0.950649 0
M  V30 7780 C 762.985 -2.79369 1.95361 0
M  V30 7781 H 764.178 -1.17489 2.75928 0
M  V30 7782 H 761.731 -0.577636 1.45234 0
M  V30 7783 H 762.466 -3.07607 1.02707 0
M  V30 7784 H 762.251 -2.7702 2.77493 0
M  V30 7785 H 763.741 -3.56178 2.18008 0
M  V30 7786 N 764.178 -1.45556 -0.604258 0
M  V30 7787 C 765.426 -1.4945 -1.36048 0
M  V30 7788 C 765.747 -0.138933 -1.94504 0
M  V30 7789 O 765.017 0.832097 -1.7735 0
M  V30 7790 H 763.597 -0.550381 -0.505064 0
M  V30 7791 H 766.259 -1.81535 -0.709308 0
M  V30 7792 H 765.355 -2.23519 -2.17821 0
M  V30 7793 N 765.656 0.84705 -1.32902 0
M  V30 7794 C 766.881 1.63925 -1.27056 0
M  V30 7795 C 767.306 1.87443 0.157136 0
M  V30 7796 O 766.664 1.43266 1.11106 0
M  V30 7797 C 766.712 2.97134 -2.04313 0
M  V30 7798 O 765.816 3.88049 -1.39614 0
M  V30 7799 H 765.157 0.499477 -0.437514 0
M  V30 7800 H 767.687 1.05443 -1.75336 0
M  V30 7801 H 767.697 3.46896 -2.14772 0
M  V30 7802 H 766.372 2.79339 -3.08128 0
M  V30 7803 H 764.949 3.46525 -1.3775 0
M  V30 7804 N 767.134 1.16236 1.06428 0
M  V30 7805 C 768.081 0.86769 2.13869 0
M  V30 7806 C 769.051 -0.183298 1.65086 0
M  V30 7807 O 770.236 -0.0488002 1.90738 0
M  V30 7808 C 767.376 0.373427 3.43074 0
M  V30 7809 C 766.489 1.48708 4.05598 0
M  V30 7810 C 765.624 0.947977 5.22673 0
M  V30 7811 C 764.663 2.03793 5.77178 0
M  V30 7812 N 763.8 1.51451 6.85571 0
M  V30 7813 H 768.64 1.78781 2.38414 0
M  V30 7814 H 766.177 0.891892 1.16977 0
M  V30 7815 H 768.135 0.0685035 4.17144 0
M  V30 7816 H 766.765 -0.509752 3.1875 0
M  V30 7817 H 765.817 1.908 3.29089 0
M  V30 7818 H 767.129 2.30964 4.42105 0
M  V30 7819 H 766.283 0.596154 6.03764 0
M  V30 7820 H 765.022 0.0947081 4.87608 0
M  V30 7821 H 764.027 2.39847 4.94726 0
M  V30 7822 H 765.252 2.89514 6.14295 0
M  V30 7823 H 763.198 0.683755 6.52427 0
M  V30 7824 H 763.115 2.27325 7.21013 0
M  V30 7825 H 764.383 1.19123 7.70344 0
M  V30 7826 N 768.612 -1.24939 0.960631 0
M  V30 7827 C 769.858 -1.93104 0.61958 0
M  V30 7828 C 770.191 -1.74991 -0.84212 0
M  V30 7829 O 769.466 -1.09867 -1.60498 0
M  V30 7830 C 769.749 -3.46326 0.986422 0
M  V30 7831 C 769.602 -3.73638 2.50429 0
M  V30 7832 C 770.921 -4.37067 0.515827 0
M  V30 7833 H 768.04 -0.701311 0.226566 0
M  V30 7834 H 770.682 -1.47442 1.19836 0
M  V30 7835 H 768.832 -3.85348 0.493907 0
M  V30 7836 H 770.504 -3.44217 3.07103 0
M  V30 7837 H 768.747 -3.19035 2.93937 0
M  V30 7838 H 769.418 -4.80815 2.71147 0
M  V30 7839 H 771.894 -4.05381 0.938389 0
M  V30 7840 H 770.77 -5.43022 0.80114 0
M  V30 7841 H 771.031 -4.38224 -0.584171 0
M  V30 7842 N 770.09 -0.729906 -1.39679 0
M  V30 7843 C 771.04 -0.0627678 -2.27914 0
M  V30 7844 C 772.024 0.717867 -1.43998 0
M  V30 7845 O 773.216 0.587713 -1.66958 0
M  V30 7846 C 770.345 0.847564 -3.32673 0
M  V30 7847 C 769.431 0.0613515 -4.24056 0
M  V30 7848 N 769.822 -0.962863 -4.96551 0
M  V30 7849 C 768.12 0.291773 -4.45045 0
M  V30 7850 C 768.821 -1.43652 -5.63683 0
M  V30 7851 N 767.797 -0.756044 -5.38317 0
M  V30 7852 H 771.599 -0.847545 -2.81414 0
M  V30 7853 H 769.113 -0.563776 -1.523 0
M  V30 7854 H 771.11 1.34094 -3.94746 0
M  V30 7855 H 769.77 1.63156 -2.80732 0
M  V30 7856 H 770.781 -1.34409 -5.00154 0
M  V30 7857 H 767.458 1.05097 -4.04056 0
M  V30 7858 H 768.848 -2.28835 -6.31731 0
M  V30 7859 N 771.568 1.50203 -0.477153 0
M  V30 7860 C 772.478 2.32421 0.319027 0
M  V30 7861 C 773.494 1.43075 0.990233 0
M  V30 7862 O 774.67 1.76123 0.976873 0
M  V30 7863 C 771.735 3.17909 1.38328 0
M  V30 7864 C 770.796 4.23082 0.728036 0
M  V30 7865 C 770.029 5.04484 1.74158 0
M  V30 7866 O 770.252 4.8705 2.96881 0
M  V30 7867 O 769.186 5.8747 1.31006 0
M  V30 7868 H 773.012 3.01638 -0.353281 0
M  V30 7869 H 770.597 1.47478 -0.238891 0
M  V30 7870 H 772.479 3.70937 1.9996 0
M  V30 7871 H 771.154 2.51413 2.03895 0
M  V30 7872 H 770.061 3.7403 0.07261 0
M  V30 7873 H 771.394 4.92065 0.115216 0
M  V30 7874 N 773.046 0.209999 1.56195 0
M  V30 7875 C 774.293 -0.424813 1.97994 0
M  V30 7876 C 774.621 -1.60589 1.09733 0
M  V30 7877 O 773.876 -1.95201 0.139693 0
M  V30 7878 C 774.175 -0.91312 3.45539 0
M  V30 7879 C 773.841 0.156187 4.50629 0
M  V30 7880 C 772.503 0.449966 4.79092 0
M  V30 7881 C 774.855 0.879959 5.13718 0
M  V30 7882 C 772.183 1.47223 5.67928 0
M  V30 7883 C 774.535 1.89148 6.0366 0
M  V30 7884 C 773.199 2.1923 6.30472 0
M  V30 7885 H 772.469 -0.15545 0.724511 0
M  V30 7886 H 775.116 0.310095 1.88973 0
M  V30 7887 H 773.421 -1.72658 3.51705 0
M  V30 7888 H 775.118 -1.41395 3.75245 0
M  V30 7889 H 771.708 -0.0829466 4.2852 0
M  V30 7890 H 775.892 0.66623 4.91808 0
M  V30 7891 H 771.148 1.71105 5.86969 0
M  V30 7892 H 775.322 2.45745 6.516 0
M  V30 7893 H 772.949 2.98587 6.99107 0
M  V30 7894 N 774.524 -1.57472 -0.0634922 0
M  V30 7895 C 775.456 -2.00999 -1.10145 0
M  V30 7896 C 776.469 -0.917219 -1.34503 0
M  V30 7897 O 777.658 -1.19501 -1.32596 0
M  V30 7898 C 774.758 -2.34089 -2.45063 0
M  V30 7899 C 773.931 -3.65317 -2.40546 0
M  V30 7900 C 772.99 -3.85982 -3.57637 0
M  V30 7901 O 772.016 -4.5747 -3.38689 0
M  V30 7902 N 773.218 -3.28971 -4.78287 0
M  V30 7903 H 775.983 -2.90656 -0.730714 0
M  V30 7904 H 773.544 -1.59926 -0.252017 0
M  V30 7905 H 775.536 -2.4508 -3.22053 0
M  V30 7906 H 774.106 -1.50279 -2.74107 0
M  V30 7907 H 773.326 -3.65003 -1.48885 0
M  V30 7908 H 774.614 -4.51468 -2.34636 0
M  V30 7909 H 774.012 -2.70962 -4.96584 0
M  V30 7910 H 772.569 -3.45398 -5.5276 0
M  V30 7911 N 776.003 0.335068 -1.53997 0
M  V30 7912 C 777.231 1.09418 -1.756 0
M  V30 7913 C 777.646 1.82083 -0.499138 0
M  V30 7914 O 777.003 1.74646 0.529631 0
M  V30 7915 C 777.054 2.10115 -2.94166 0
M  V30 7916 O 776.775 1.40404 -4.14992 0
M  V30 7917 C 778.276 2.98336 -3.27888 0
M  V30 7918 H 775.496 0.32595 -0.586513 0
M  V30 7919 H 778.04 0.384693 -2.00849 0
M  V30 7920 H 776.195 2.76616 -2.71224 0
M  V30 7921 H 776.609 2.07743 -4.81605 0
M  V30 7922 H 778.083 3.6491 -4.1418 0
M  V30 7923 H 778.56 3.64814 -2.44556 0
M  V30 7924 H 779.166 2.37412 -3.52868 0
M  V30 7925 N 777.481 1.45874 0.596531 0
M  V30 7926 C 778.411 1.5824 1.71705 0
M  V30 7927 C 779.392 0.433366 1.64487 0
M  V30 7928 O 780.577 0.657895 1.82717 0
M  V30 7929 C 777.707 1.55927 3.10329 0
M  V30 7930 C 776.661 2.69659 3.32367 0
M  V30 7931 C 775.987 2.52403 4.71377 0
M  V30 7932 C 777.287 4.11591 3.21544 0
M  V30 7933 H 778.981 2.52035 1.61613 0
M  V30 7934 H 776.527 1.21297 0.776082 0
M  V30 7935 H 778.48 1.63173 3.88526 0
M  V30 7936 H 777.204 0.586674 3.21288 0
M  V30 7937 H 775.863 2.61859 2.56564 0
M  V30 7938 H 775.511 1.53258 4.79083 0
M  V30 7939 H 775.211 3.28679 4.87077 0
M  V30 7940 H 776.735 2.6152 5.5176 0
M  V30 7941 H 778.149 4.20576 3.89601 0
M  V30 7942 H 776.546 4.88344 3.4877 0
M  V30 7943 H 777.616 4.32719 2.1882 0
M  V30 7944 N 778.959 -0.83999 1.33349 0
M  V30 7945 C 780.184 -1.63249 1.27924 0
M  V30 7946 C 780.609 -1.87523 -0.147193 0
M  V30 7947 O 779.967 -1.43853 -1.10345 0
M  V30 7948 C 780.015 -2.96046 2.05886 0
M  V30 7949 O 779.119 -3.87303 1.4167 0
M  V30 7950 H 778.46 -0.49715 0.440157 0
M  V30 7951 H 780.99 -1.04512 1.75893 0
M  V30 7952 H 781 -3.45752 2.16609 0
M  V30 7953 H 779.675 -2.77701 3.09605 0
M  V30 7954 H 778.252 -3.45789 1.39585 0
M  V30 7955 N 780.437 -1.16799 -1.0581 0
M  V30 7956 C 781.848 -0.95945 -1.60161 0
M  V30 7957 C 782.199 0.49543 -1.89842 0
M  V30 7958 O 781.324 1.36957 -1.67546 0
M  V30 7959 C 781.919 -1.73527 -2.90987 0
M  V30 7960 C 780.478 -1.57158 -3.42021 0
M  V30 7961 C 779.625 -1.74089 -2.15843 0
M  V30 7962 H 782.576 -1.31598 -0.886992 0
M  V30 7963 H 782.597 -1.21397 -3.60615 0
M  V30 7964 H 782.109 -2.79411 -2.69353 0
M  V30 7965 H 780.21 -0.537361 -3.68705 0
M  V30 7966 H 780.323 -2.35858 -4.17022 0
M  V30 7967 H 778.687 -1.16874 -2.26302 0
M  V30 7968 H 779.47 -2.81371 -1.96686 0
M  V30 7969 N 781.915 1.24427 -0.967243 0
M  V30 7970 C 782.825 2.29109 -0.504592 0
M  V30 7971 C 783.841 1.68495 0.434224 0
M  V30 7972 O 785.017 1.99041 0.307379 0
M  V30 7973 C 782.082 3.46133 0.198273 0
M  V30 7974 C 781.143 4.22149 -0.780313 0
M  V30 7975 C 780.376 5.33585 -0.110896 0
M  V30 7976 O 780.599 5.59676 1.10088 0
M  V30 7977 O 779.533 5.96522 -0.802823 0
M  V30 7978 H 783.359 2.708 -1.37482 0
M  V30 7979 H 780.944 1.30111 -0.73426 0
M  V30 7980 H 782.826 4.17205 0.593124 0
M  V30 7981 H 781.501 3.0642 1.04347 0
M  V30 7982 H 780.408 3.53454 -1.22561 0
M  V30 7983 H 781.741 4.65677 -1.59392 0
M  V30 7984 N 783.393 0.737304 1.3929 0
M  V30 7985 C 784.641 0.285691 2.00071 0
M  V30 7986 C 784.962 -1.13169 1.58801 0
M  V30 7987 O 784.232 -1.77104 0.837308 0
M  V30 7988 H 782.812 0.102638 0.739915 0
M  V30 7989 H 785.474 0.947775 1.70303 0
M  V30 7990 H 784.57 0.335906 3.10287 0
M  V30 7991 N 784.871 -1.49948 0.485112 0
M  V30 7992 C 786.096 -2.073 -0.0645059 0
M  V30 7993 C 786.521 -1.345 -1.31497 0
M  V30 7994 O 785.879 -0.39687 -1.76903 0
M  V30 7995 C 785.927 -3.59201 -0.317304 0
M  V30 7996 O 785.031 -3.88085 -1.39514 0
M  V30 7997 H 784.372 -0.663723 0.0191822 0
M  V30 7998 H 786.902 -1.92963 0.680179 0
M  V30 7999 H 786.912 -4.04227 -0.553604 0
M  V30 8000 H 785.587 -4.11602 0.596387 0
M  V30 8001 H 784.164 -3.54885 -1.14504 0
M  V30 8002 N 786.349 -0.21828 -1.56081 0
M  V30 8003 C 787.597 0.413488 -1.97825 0
M  V30 8004 C 787.918 1.60527 -1.10707 0
M  V30 8005 O 787.188 1.9504 -0.183378 0
M  V30 8006 H 785.768 0.155757 -0.730581 0
M  V30 8007 H 788.43 -0.310413 -1.92412 0
M  V30 8008 H 787.526 0.742024 -3.03151 0
M  V30 8009 N 787.827 1.57504 0.0551401 0
M  V30 8010 C 788.775 2.05884 1.08233 0
M  V30 8011 C 789.769 0.967383 1.39061 0
M  V30 8012 O 790.975 1.15242 1.38273 0
M  V30 8013 H 787.35 0.656673 0.366449 0
M  V30 8014 H 789.321 2.91273 0.648269 0
M  V30 8015 C 788.07 2.53221 2.38273 0
M  V30 8016 H 787.393 3.36809 2.15406 0
M  V30 8017 H 788.833 2.9081 3.08554 0
M  V30 8018 C 787.292 1.42218 3.05411 0
M  V30 8019 O 787.822 0.773638 3.9418 0
M  V30 8020 N 786.028 1.16316 2.66306 0
M  V30 8021 H 785.575 1.69237 1.94207 0
M  V30 8022 H 785.533 0.422534 3.11548 0
M  V30 8023 N 789.305 -0.326896 1.54172 0
M  V30 8024 C 790.235 -1.40741 1.86317 0
M  V30 8025 C 791.216 -1.54125 0.719684 0
M  V30 8026 O 792.401 -1.6806 0.973117 0
M  V30 8027 C 789.531 -2.77557 2.08757 0
M  V30 8028 C 788.485 -2.78965 3.24596 0
M  V30 8029 C 787.811 -4.18824 3.32401 0
M  V30 8030 C 789.111 -2.4301 4.62324 0
M  V30 8031 H 790.805 -1.14088 2.76811 0
M  V30 8032 H 788.351 -0.547389 1.3319 0
M  V30 8033 H 790.304 -3.53209 2.29829 0
M  V30 8034 H 789.028 -3.0568 1.15009 0
M  V30 8035 H 787.687 -2.05767 3.03406 0
M  V30 8036 H 787.335 -4.44083 2.36218 0
M  V30 8037 H 787.035 -4.20673 4.10253 0
M  V30 8038 H 788.559 -4.96294 3.55703 0
M  V30 8039 H 789.973 -3.08375 4.83299 0
M  V30 8040 H 788.37 -2.56116 5.42701 0
M  V30 8041 H 789.44 -1.38165 4.64799 0
M  V30 8042 N 790.784 -1.46188 -0.588786 0
M  V30 8043 C 791.747 -1.55882 -1.68029 0
M  V30 8044 C 792.747 -0.436515 -1.54762 0
M  V30 8045 O 793.937 -0.700626 -1.59489 0
M  V30 8046 C 791.069 -1.47332 -3.07418 0
M  V30 8047 H 792.262 -2.5315 -1.60795 0
M  V30 8048 H 789.815 -1.33908 -0.806116 0
M  V30 8049 H 790.55 -0.513193 -3.20214 0
M  V30 8050 H 790.335 -2.28753 -3.18456 0
M  V30 8051 H 791.825 -1.57187 -3.86887 0
M  V30 8052 N 792.262 0.832906 -1.33792 0
M  V30 8053 C 793.508 1.59089 -1.25772 0
M  V30 8054 C 793.841 1.93414 0.174601 0
M  V30 8055 O 793.116 1.59195 1.11746 0
M  V30 8056 C 793.399 2.89699 -2.13885 0
M  V30 8057 C 793.252 2.62017 -3.65605 0
M  V30 8058 C 794.571 3.91182 -2.01654 0
M  V30 8059 H 791.69 0.577232 -0.458227 0
M  V30 8060 H 794.332 0.960227 -1.6395 0
M  V30 8061 H 792.482 3.4352 -1.81456 0
M  V30 8062 H 794.154 2.14582 -4.08353 0
M  V30 8063 H 792.397 1.95621 -3.87189 0
M  V30 8064 H 793.068 3.55112 -4.2261 0
M  V30 8065 H 795.544 3.46684 -2.30107 0
M  V30 8066 H 794.42 4.80391 -2.65548 0
M  V30 8067 H 794.681 4.30861 -0.990536 0
M  V30 8068 N 793.74 1.17359 1.05189 0
M  V30 8069 C 794.989 0.956412 1.77583 0
M  V30 8070 C 795.302 -0.516018 1.88671 0
M  V30 8071 O 796.508 -0.851401 2.57805 0
M  V30 8072 C 794.964 1.66203 3.19225 0
M  V30 8073 C 794.572 3.17299 3.16267 0
M  V30 8074 C 796.316 1.52725 3.96075 0
M  V30 8075 C 794.223 3.8055 4.52698 0
M  V30 8076 H 793.153 0.354204 0.665624 0
M  V30 8077 H 795.804 1.40612 1.17901 0
M  V30 8078 H 794.186 1.14006 3.79234 0
M  V30 8079 H 795.36 3.76431 2.65776 0
M  V30 8080 H 793.675 3.3079 2.52917 0
M  V30 8081 H 796.272 1.97351 4.96947 0
M  V30 8082 H 796.615 0.477803 4.13549 0
M  V30 8083 H 797.148 2.02139 3.42614 0
M  V30 8084 H 793.887 4.85492 4.4043 0
M  V30 8085 H 793.407 3.26206 5.03339 0
M  V30 8086 H 795.086 3.82757 5.21638 0
M  V30 8087 N 795.218 -1.23913 0.973828 0
M  V30 8088 C 796.466 -1.91771 0.637817 0
M  V30 8089 C 796.787 -1.76434 -0.830435 0
M  V30 8090 O 796.057 -1.13965 -1.59339 0
M  V30 8091 H 794.637 -0.709761 0.232912 0
M  V30 8092 H 797.299 -1.50677 1.23622 0
M  V30 8093 H 796.395 -2.99327 0.883731 0
M  V30 8094 N 796.696 -0.74468 -1.38897 0
M  V30 8095 C 797.944 -0.296298 -1.99916 0
M  V30 8096 C 798.265 1.12325 -1.59399 0
M  V30 8097 O 797.535 1.76658 -0.846689 0
M  V30 8098 H 796.115 -0.106561 -0.73936 0
M  V30 8099 H 798.777 -0.956793 -1.69798 0
M  V30 8100 H 797.873 -0.352356 -3.10105 0
M  V30 8101 N 798.174 1.49689 -0.493057 0
M  V30 8102 C 799.42 2.02727 0.0543518 0
M  V30 8103 C 799.753 1.37264 1.37376 0
M  V30 8104 O 799.028 0.505644 1.87812 0
M  V30 8105 C 799.311 3.59456 0.215226 0
M  V30 8106 C 799.164 4.35459 -1.12675 0
M  V30 8107 C 800.483 4.29511 0.959586 0
M  V30 8108 H 797.602 0.736773 0.0182786 0
M  V30 8109 H 800.244 1.78792 -0.642924 0
M  V30 8110 H 798.394 3.79981 0.809122 0
M  V30 8111 H 800.066 4.2645 -1.75891 0
M  V30 8112 H 798.309 3.9833 -1.71801 0
M  V30 8113 H 798.98 5.43454 -0.967578 0
M  V30 8114 H 801.456 4.13594 0.455977 0
M  V30 8115 H 800.332 5.38939 1.04098 0
M  V30 8116 H 800.593 3.94202 2.00144 0
M  V30 8117 N 799.652 0.226554 1.55963 0
M  V30 8118 C 800.615 -0.668015 2.19249 0
M  V30 8119 C 801.615 -1.11794 1.1558 0
M  V30 8120 O 802.805 -1.02593 1.40784 0
M  V30 8121 C 799.937 -1.91571 2.81981 0
M  V30 8122 H 801.13 -0.116175 2.99675 0
M  V30 8123 H 798.683 -0.0230497 1.56283 0
M  V30 8124 H 799.418 -2.50929 2.05439 0
M  V30 8125 H 799.203 -1.6015 3.57903 0
M  V30 8126 H 800.693 -2.55294 3.30477 0
M  V30 8127 N 801.13 -1.57531 -0.0467866 0
M  V30 8128 C 802.376 -1.8873 -0.742218 0
M  V30 8129 C 802.709 -0.822084 -1.75941 0
M  V30 8130 O 801.984 0.164922 -1.938 0
M  V30 8131 C 802.267 -3.30586 -1.42776 0
M  V30 8132 C 802.12 -4.47785 -0.425285 0
M  V30 8133 C 803.439 -3.71068 -2.36636 0
M  V30 8134 H 800.558 -0.686406 -0.268359 0
M  V30 8135 H 803.2 -1.89999 -0.00511341 0
M  V30 8136 H 801.35 -3.29634 -2.05605 0
M  V30 8137 H 803.022 -4.60867 0.199721 0
M  V30 8138 H 801.265 -4.33037 0.25713 0
M  V30 8139 H 801.936 -5.43884 -0.943086 0
M  V30 8140 H 804.412 -3.73273 -1.83866 0
M  V30 8141 H 803.288 -4.71165 -2.81593 0
M  V30 8142 H 803.549 -3.02355 -3.22542 0
M  V30 8143 N 802.608 0.318715 -1.54344 0
M  V30 8144 C 803.856 1.054 -1.72439 0
M  V30 8145 C 804.177 1.88388 -0.503495 0
M  V30 8146 O 803.447 1.89866 0.48246 0
M  V30 8147 H 802.027 0.392124 -0.635805 0
M  V30 8148 H 804.689 0.35398 -1.91659 0
M  V30 8149 H 803.785 1.71726 -2.60608 0
M  V30 8150 N 804.086 1.46499 0.581025 0
M  V30 8151 C 805.332 1.52121 1.34116 0
M  V30 8152 C 805.665 0.173031 1.93428 0
M  V30 8153 O 804.94 -0.815729 1.76568 0
M  V30 8154 C 805.223 2.62108 2.46924 0
M  V30 8155 C 805.076 4.06462 1.92636 0
M  V30 8156 C 806.395 2.68167 3.48962 0
M  V30 8157 H 803.514 0.5538 0.486287 0
M  V30 8158 H 806.156 1.78443 0.652538 0
M  V30 8159 H 804.306 2.39794 3.05665 0
M  V30 8160 H 805.978 4.40068 1.3834 0
M  V30 8161 H 804.221 4.15862 1.23455 0
M  V30 8162 H 804.892 4.79152 2.74076 0
M  V30 8163 H 807.368 2.8823 3.00104 0
M  V30 8164 H 806.244 3.46942 4.2535 0
M  V30 8165 H 806.505 1.74284 4.06297 0
M  V30 8166 N 805.565 -0.825799 1.34232 0
M  V30 8167 C 806.811 -1.58419 1.26614 0
M  V30 8168 C 807.144 -1.93503 -0.164341 0
M  V30 8169 O 806.419 -1.59785 -1.109 0
M  V30 8170 C 806.702 -2.8856 2.15418 0
M  V30 8171 C 806.555 -2.60075 3.66989 0
M  V30 8172 C 807.874 -3.90107 2.03726 0
M  V30 8173 H 804.993 -0.574794 0.461282 0
M  V30 8174 H 807.635 -0.951519 1.64457 0
M  V30 8175 H 805.785 -3.42553 1.83275 0
M  V30 8176 H 807.457 -2.12414 4.09485 0
M  V30 8177 H 805.7 -1.93565 3.88221 0
M  V30 8178 H 806.371 -3.52866 4.24488 0
M  V30 8179 H 808.847 -3.45459 2.31942 0
M  V30 8180 H 807.723 -4.78976 2.68092 0
M  V30 8181 H 807.984 -4.30329 1.01337 0
M  V30 8182 N 807.043 -1.17915 -1.04565 0
M  V30 8183 C 807.973 -0.925033 -2.14395 0
M  V30 8184 C 808.954 0.135375 -1.6956 0
M  V30 8185 O 810.139 -0.0161774 -1.94193 0
M  V30 8186 C 807.269 -0.444469 -3.44444 0
M  V30 8187 C 806.223 -1.44478 -4.02877 0
M  V30 8188 C 805.549 -0.821933 -5.28345 0
M  V30 8189 C 806.849 -2.81995 -4.39632 0
M  V30 8190 H 808.543 -1.84354 -2.35911 0
M  V30 8191 H 806.089 -0.887806 -1.13375 0
M  V30 8192 H 808.042 -0.254078 -4.20633 0
M  V30 8193 H 806.766 0.509592 -3.226 0
M  V30 8194 H 805.425 -1.62203 -3.28764 0
M  V30 8195 H 805.073 0.139161 -5.02807 0
M  V30 8196 H 804.773 -1.48976 -5.68401 0
M  V30 8197 H 806.297 -0.641959 -6.07216 0
M  V30 8198 H 807.711 -2.67952 -5.06828 0
M  V30 8199 H 806.108 -3.45414 -4.90723 0
M  V30 8200 H 807.178 -3.35927 -3.49687 0
M  V30 8201 N 808.521 1.23394 -0.980386 0
M  V30 8202 C 809.451 2.2717 -0.540024 0
M  V30 8203 C 810.432 1.64659 0.426787 0
M  V30 8204 O 811.617 1.91543 0.320153 0
M  V30 8205 C 808.747 3.46939 0.15836 0
M  V30 8206 C 807.701 4.21802 -0.725732 0
M  V30 8207 C 807.027 5.34597 0.104866 0
M  V30 8208 C 808.327 4.81802 -2.01654 0
M  V30 8209 H 810.021 2.64257 -1.40743 0
M  V30 8210 H 807.567 1.2703 -0.678193 0
M  V30 8211 H 809.52 4.18683 0.477737 0
M  V30 8212 H 808.244 3.08912 1.06022 0
M  V30 8213 H 806.903 3.51875 -1.02857 0
M  V30 8214 H 806.551 4.92812 1.00726 0
M  V30 8215 H 806.251 5.85607 -0.483557 0
M  V30 8216 H 807.775 6.09163 0.418624 0
M  V30 8217 H 809.189 5.45554 -1.76193 0
M  V30 8218 H 807.586 5.43098 -2.55273 0
M  V30 8219 H 808.656 4.02549 -2.70338 0
M  V30 8220 N 809.999 0.752036 1.385 0
M  V30 8221 C 810.929 0.138718 2.33088 0
M  V30 8222 C 811.91 -0.705318 1.54788 0
M  V30 8223 O 813.095 -0.646821 1.83112 0
M  V30 8224 C 810.225 -0.75641 3.38963 0
M  V30 8225 C 809.179 -0.0152239 4.27997 0
M  V30 8226 C 808.505 -1.0285 5.24715 0
M  V30 8227 C 809.805 1.15226 5.09431 0
M  V30 8228 H 811.499 0.928852 2.84627 0
M  V30 8229 H 809.045 0.448111 1.3685 0
M  V30 8230 H 810.998 -1.19513 4.04097 0
M  V30 8231 H 809.722 -1.57885 2.85902 0
M  V30 8232 H 808.381 0.404061 3.64366 0
M  V30 8233 H 808.029 -1.84496 4.67943 0
M  V30 8234 H 807.729 -0.537238 5.85139 0
M  V30 8235 H 809.253 -1.46657 5.92726 0
M  V30 8236 H 810.667 0.791161 5.67815 0
M  V30 8237 H 809.064 1.57428 5.79082 0
M  V30 8238 H 810.134 1.9659 4.43261 0
M  V30 8239 N 811.477 -1.49425 0.500989 0
M  V30 8240 C 812.723 -2.02753 -0.0436 0
M  V30 8241 C 813.056 -1.37991 -1.36646 0
M  V30 8242 O 812.331 -0.515597 -1.87542 0
M  V30 8243 C 812.614 -3.59565 -0.19616 0
M  V30 8244 C 812.467 -4.34855 1.14982 0
M  V30 8245 C 813.786 -4.30014 -0.936795 0
M  V30 8246 H 810.905 -0.73686 -0.0143711 0
M  V30 8247 H 813.547 -1.78448 0.652397 0
M  V30 8248 H 811.697 -3.80405 -0.788959 0
M  V30 8249 H 813.369 -4.25512 1.7815 0
M  V30 8250 H 811.612 -3.97414 1.73911 0
M  V30 8251 H 812.283 -5.42933 0.996385 0
M  V30 8252 H 814.759 -4.1383 -0.434036 0
M  V30 8253 H 813.635 -5.39483 -1.01238 0
M  V30 8254 H 813.896 -3.95257 -1.9805 0
M  V30 8255 N 812.955 -0.234822 -1.55841 0
M  V30 8256 C 813.885 0.664217 -2.23854 0
M  V30 8257 C 814.866 1.19076 -1.2147 0
M  V30 8258 O 816.051 1.23232 -1.50091 0
M  V30 8259 C 813.181 1.86666 -2.9287 0
M  V30 8260 C 812.135 1.47341 -4.01839 0
M  V30 8261 C 811.461 2.75571 -4.58219 0
M  V30 8262 C 812.761 0.653479 -5.18196 0
M  V30 8263 H 814.455 0.0971213 -2.99242 0
M  V30 8264 H 812.001 0.0452724 -1.43929 0
M  V30 8265 H 813.954 2.50116 -3.39146 0
M  V30 8266 H 812.678 2.45894 -2.1495 0
M  V30 8267 H 811.337 0.862314 -3.56314 0
M  V30 8268 H 810.985 3.32971 -3.77014 0
M  V30 8269 H 810.685 2.49987 -5.31771 0
M  V30 8270 H 812.209 3.39939 -5.07221 0
M  V30 8271 H 813.623 1.19198 -5.60771 0
M  V30 8272 H 812.02 0.494188 -5.98062 0
M  V30 8273 H 813.09 -0.337004 -4.83728 0
M  V30 8274 N 814.433 1.57553 0.0384317 0
M  V30 8275 C 815.396 2.04927 1.02653 0
M  V30 8276 C 816.396 0.951768 1.29607 0
M  V30 8277 O 817.586 1.21568 1.24768 0
M  V30 8278 C 814.718 2.45828 2.36181 0
M  V30 8279 H 815.911 2.93474 0.617508 0
M  V30 8280 H 813.464 1.53679 0.285031 0
M  V30 8281 H 814.199 1.60408 2.8185 0
M  V30 8282 H 813.984 3.25945 2.1795 0
M  V30 8283 H 815.474 2.82939 3.0714 0
M  V30 8284 N 815.911 -0.310526 1.54511 0
M  V30 8285 C 817.159 -1.04484 1.72996 0
M  V30 8286 C 817.48 -1.88118 0.513479 0
M  V30 8287 O 816.75 -1.90119 -0.472384 0
M  V30 8288 H 815.33 -0.388747 0.637875 0
M  V30 8289 H 817.992 -0.343811 1.91844 0
M  V30 8290 H 817.088 -1.70341 2.61515 0
M  V30 8291 N 817.389 -1.46805 -0.573248 0
M  V30 8292 C 818.635 -1.5283 -1.33307 0
M  V30 8293 C 818.968 -0.183287 -1.93333 0
M  V30 8294 O 818.243 0.806354 -1.76998 0
M  V30 8295 C 818.526 -2.63414 -2.45531 0
M  V30 8296 C 818.379 -4.07478 -1.90478 0
M  V30 8297 C 819.698 -2.70014 -3.47535 0
M  V30 8298 H 816.817 -0.556371 -0.483343 0
M  V30 8299 H 819.459 -1.78787 -0.643066 0
M  V30 8300 H 817.609 -2.41412 -3.04389 0
M  V30 8301 H 819.281 -4.40795 -1.36004 0
M  V30 8302 H 817.524 -4.16511 -1.21248 0
M  V30 8303 H 818.195 -4.80598 -2.71531 0
M  V30 8304 H 820.671 -2.89817 -2.98572 0
M  V30 8305 H 819.547 -3.49192 -4.23504 0
M  V30 8306 H 819.808 -1.76436 -4.05367 0
M  V30 8307 N 818.867 0.818669 -1.34668 0
M  V30 8308 C 820.115 1.57201 -1.27013 0
M  V30 8309 C 820.436 1.94354 0.158599 0
M  V30 8310 O 819.706 1.62626 1.09223 0
M  V30 8311 H 818.286 0.582919 -0.467135 0
M  V30 8312 H 820.948 0.977234 -1.6863 0
M  V30 8313 H 820.044 2.49291 -1.87778 0
M  V30 8314 N 820.346 1.18468 1.03938 0
M  V30 8315 C 821.593 0.980833 1.77161 0
M  V30 8316 C 821.921 -0.489425 1.88242 0
M  V30 8317 O 821.176 -1.37961 1.388 0
M  V30 8318 C 821.475 1.58229 3.20466 0
M  V30 8319 C 821.141 3.07889 3.29416 0
M  V30 8320 C 819.803 3.48737 3.31566 0
M  V30 8321 C 822.155 4.03903 3.29411 0
M  V30 8322 C 819.483 4.84171 3.31355 0
M  V30 8323 C 821.835 5.39253 3.3074 0
M  V30 8324 C 820.499 5.79547 3.31182 0
M  V30 8325 H 819.769 0.358912 0.648277 0
M  V30 8326 H 822.416 1.47552 1.22069 0
M  V30 8327 H 820.721 1.00964 3.78568 0
M  V30 8328 H 822.418 1.39998 3.75768 0
M  V30 8329 H 819.008 2.75335 3.28464 0
M  V30 8330 H 823.192 3.73395 3.2694 0
M  V30 8331 H 818.448 5.14685 3.30015 0
M  V30 8332 H 822.622 6.13417 3.29686 0
M  V30 8333 H 820.249 6.84466 3.30772 0
M  V30 8334 N 821.824 -1.22873 0.986916 0
M  V30 8335 C 823.071 -1.91462 0.659424 0
M  V30 8336 C 823.399 -1.76931 -0.807825 0
M  V30 8337 O 822.654 -1.12829 -1.59901 0
M  V30 8338 C 822.953 -3.43014 1.00379 0
M  V30 8339 C 822.619 -3.77731 2.46232 0
M  V30 8340 C 821.281 -3.86918 2.86091 0
M  V30 8341 C 823.633 -3.94343 3.40798 0
M  V30 8342 C 820.961 -4.10149 4.19518 0
M  V30 8343 C 823.313 -4.19076 4.73875 0
M  V30 8344 C 821.977 -4.26486 5.13484 0
M  V30 8345 H 821.247 -0.700611 0.2413 0
M  V30 8346 H 823.894 -1.45763 1.24199 0
M  V30 8347 H 822.199 -3.90329 0.339226 0
M  V30 8348 H 823.896 -3.94327 0.728518 0
M  V30 8349 H 820.486 -3.71159 2.14334 0
M  V30 8350 H 824.67 -3.86629 3.11178 0
M  V30 8351 H 819.926 -4.1411 4.49803 0
M  V30 8352 H 824.1 -4.30873 5.47102 0
M  V30 8353 H 821.727 -4.4424 6.16891 0
M  V30 8354 N 823.302 -0.75937 -1.38099 0
M  V30 8355 C 824.551 -0.314864 -1.99227 0
M  V30 8356 C 824.864 1.1113 -1.60964 0
M  V30 8357 O 826.07 1.65657 -2.15105 0
M  V30 8358 C 824.526 -0.512001 -3.56239 0
M  V30 8359 C 824.134 -1.94762 -4.0345 0
M  V30 8360 C 825.878 -0.130497 -4.24299 0
M  V30 8361 C 823.785 -2.09301 -5.53125 0
M  V30 8362 H 822.715 -0.113978 -0.745335 0
M  V30 8363 H 825.366 -0.936736 -1.57789 0
M  V30 8364 H 823.748 0.179144 -3.95595 0
M  V30 8365 H 824.922 -2.67271 -3.75371 0
M  V30 8366 H 823.237 -2.28457 -3.48133 0
M  V30 8367 H 825.834 -0.21781 -5.34256 0
M  V30 8368 H 826.177 0.917644 -4.0606 0
M  V30 8369 H 826.71 -0.773716 -3.90203 0
M  V30 8370 H 823.449 -3.1239 -5.76275 0
M  V30 8371 H 822.969 -1.41261 -5.82928 0
M  V30 8372 H 824.648 -1.88571 -6.1891 0
M  V30 8373 N 824.78 1.49157 -0.508906 0
M  V30 8374 C 825.73 2.26215 0.284705 0
M  V30 8375 C 826.714 1.31401 0.928586 0
M  V30 8376 O 827.906 1.56073 0.834877 0
M  V30 8377 C 825.035 3.15906 1.34382 0
M  V30 8378 C 824.121 4.18186 0.705785 0
M  V30 8379 N 824.512 5.05419 -0.196214 0
M  V30 8380 C 822.81 4.35425 0.965457 0
M  V30 8381 C 823.511 5.78977 -0.562222 0
M  V30 8382 N 822.487 5.43553 0.0717389 0
M  V30 8383 H 826.289 2.91033 -0.409543 0
M  V30 8384 H 823.803 1.59104 -0.325508 0
M  V30 8385 H 825.8 3.6975 1.92589 0
M  V30 8386 H 824.46 2.52642 2.03966 0
M  V30 8387 H 825.471 5.14781 -0.567526 0
M  V30 8388 H 822.148 3.83363 1.65346 0
M  V30 8389 H 823.538 6.59192 -1.30062 0
M  V30 8390 N 826.258 0.243083 1.55714 0
M  V30 8391 C 827.674 -0.111853 1.59208 0
M  V30 8392 C 827.874 -1.5723 1.2602 0
M  V30 8393 O 826.93 -2.31608 1.00569 0
M  V30 8394 C 828.243 0.233885 2.99789 0
M  V30 8395 C 829.791 0.177873 3.12494 0
M  V30 8396 C 830.266 0.49759 4.55289 0
M  V30 8397 N 831.757 0.447949 4.61029 0
M  V30 8398 C 832.492 0.668545 5.69489 0
M  V30 8399 N 831.988 0.952064 6.86227 0
M  V30 8400 N 833.781 0.599512 5.58894 0
M  V30 8401 H 825.932 1.19554 1.75558 0
M  V30 8402 H 828.195 0.480765 0.817049 0
M  V30 8403 H 827.901 1.24835 3.28799 0
M  V30 8404 H 827.775 -0.440846 3.74615 0
M  V30 8405 H 830.162 -0.827263 2.83267 0
M  V30 8406 H 830.243 0.886399 2.39951 0
M  V30 8407 H 829.887 1.50026 4.85237 0
M  V30 8408 H 829.817 -0.232371 5.26087 0
M  V30 8409 H 832.308 0.237388 3.77154 0
M  V30 8410 H 832.621 1.10791 7.64817 0
M  V30 8411 H 830.966 0.989496 6.8792 0
M  V30 8412 H 834.157 0.378088 4.66571 0
M  V30 8413 H 834.33 0.774828 6.43351 0
M  V30 8414 N 827.736 -1.57571 -0.0300757 0
M  V30 8415 C 829.152 -1.54869 -0.385703 0
M  V30 8416 C 829.352 -0.969068 -1.76667 0
M  V30 8417 O 828.408 -0.589676 -2.45518 0
M  V30 8418 C 829.721 -2.99313 -0.288482 0
M  V30 8419 C 831.269 -3.10857 -0.365638 0
M  V30 8420 C 831.744 -4.5703 -0.297878 0
M  V30 8421 N 833.235 -4.61825 -0.356703 0
M  V30 8422 C 833.97 -5.72466 -0.327146 0
M  V30 8423 N 833.466 -6.92349 -0.249941 0
M  V30 8424 N 835.259 -5.60836 -0.376801 0
M  V30 8425 H 827.41 -1.936 0.87367 0
M  V30 8426 H 829.673 -0.887924 0.332106 0
M  V30 8427 H 829.379 -3.45443 0.66047 0
M  V30 8428 H 829.253 -3.61332 -1.08253 0
M  V30 8429 H 831.64 -2.64676 -1.30502 0
M  V30 8430 H 831.721 -2.51671 0.457744 0
M  V30 8431 H 831.365 -5.03879 0.637835 0
M  V30 8432 H 831.295 -5.14127 -1.13935 0
M  V30 8433 H 833.786 -3.75571 -0.418926 0
M  V30 8434 H 834.099 -7.7245 -0.23246 0
M  V30 8435 H 832.444 -6.94664 -0.216004 0
M  V30 8436 H 835.635 -4.66073 -0.435101 0
M  V30 8437 H 835.808 -6.47052 -0.350298 0
M  V30 8438 N 829.214 0.302327 -1.54673 0
M  V30 8439 C 830.63 0.647911 -1.45857 0
M  V30 8440 C 830.83 1.90773 -0.64869 0
M  V30 8441 O 829.886 2.52018 -0.155865 0
M  V30 8442 C 831.199 0.802144 -2.89804 0
M  V30 8443 C 832.747 0.898114 -2.99838 0
M  V30 8444 C 833.222 1.08436 -4.44978 0
M  V30 8445 N 834.713 1.15059 -4.48682 0
M  V30 8446 C 835.448 1.31296 -5.58166 0
M  V30 8447 N 834.944 1.4444 -6.77576 0
M  V30 8448 N 836.737 1.34174 -5.45851 0
M  V30 8449 H 828.888 -0.525428 -2.05798 0
M  V30 8450 H 831.151 -0.173423 -0.932002 0
M  V30 8451 H 830.857 -0.0526531 -3.51661 0
M  V30 8452 H 830.731 1.69155 -3.37145 0
M  V30 8453 H 833.118 1.7434 -2.38096 0
M  V30 8454 H 833.199 -0.0152752 -2.55795 0
M  V30 8455 H 832.843 0.243843 -5.07314 0
M  V30 8456 H 832.773 2.01195 -4.8665 0
M  V30 8457 H 835.264 1.0626 -3.62653 0
M  V30 8458 H 835.577 1.56582 -7.56771 0
M  V30 8459 H 833.922 1.41499 -6.80443 0
M  V30 8460 H 837.113 1.23516 -4.5151 0
M  V30 8461 H 837.286 1.46485 -6.31226 0
M  V30 8462 N 830.692 1.47107 0.565454 0
M  V30 8463 C 831.639 1.58974 1.6732 0
M  V30 8464 C 832.609 0.433146 1.60353 0
M  V30 8465 O 833.794 0.652141 1.79309 0
M  V30 8466 C 830.934 1.60224 3.05651 0
M  V30 8467 C 830.047 2.86741 3.23116 0
M  V30 8468 C 829.182 2.79381 4.51796 0
M  V30 8469 C 828.221 4.0076 4.62664 0
M  V30 8470 N 827.358 3.91685 5.8269 0
M  V30 8471 H 832.198 2.53588 1.56515 0
M  V30 8472 H 829.735 1.25791 0.762558 0
M  V30 8473 H 831.693 1.58933 3.85741 0
M  V30 8474 H 830.323 0.691285 3.15311 0
M  V30 8475 H 829.375 2.97936 2.36513 0
M  V30 8476 H 830.687 3.7665 3.27011 0
M  V30 8477 H 829.841 2.76293 5.40136 0
M  V30 8478 H 828.58 1.87142 4.50366 0
M  V30 8479 H 827.585 4.04162 3.72738 0
M  V30 8480 H 828.81 4.94117 4.6586 0
M  V30 8481 H 826.756 3.02243 5.82224 0
M  V30 8482 H 826.673 4.75264 5.87929 0
M  V30 8483 H 827.941 3.92599 6.73414 0
M  V30 8484 N 832.17 -0.811516 1.35101 0
M  V30 8485 C 833.118 -1.94449 1.27642 0
M  V30 8486 C 834.112 -1.68522 0.172287 0
M  V30 8487 O 835.318 -1.76799 0.337967 0
M  V30 8488 H 831.693 -0.638776 0.396824 0
M  V30 8489 H 833.664 -1.97861 2.23369 0
M  V30 8490 C 832.413 -3.31139 1.06029 0
M  V30 8491 H 831.736 -3.51644 1.90227 0
M  V30 8492 H 833.176 -4.10831 1.0485 0
M  V30 8493 C 831.635 -3.36072 -0.236039 0
M  V30 8494 O 832.165 -3.82292 -1.23353 0
M  V30 8495 N 830.371 -2.89314 -0.273107 0
M  V30 8496 H 829.918 -2.51893 0.539211 0
M  V30 8497 H 829.876 -2.92996 -1.1402 0
M  V30 8498 N 833.648 -1.19017 -1.03309 0
M  V30 8499 C 834.58 -0.881847 -2.11556 0
M  V30 8500 C 835.593 0.123711 -1.62329 0
M  V30 8501 O 836.782 -0.105141 -1.7819 0
M  V30 8502 C 833.882 -0.297634 -3.37591 0
M  V30 8503 C 833.055 -1.35072 -4.16022 0
M  V30 8504 C 832.114 -0.780812 -5.20375 0
M  V30 8505 O 831.14 -1.45745 -5.50224 0
M  V30 8506 N 832.342 0.417964 -5.78993 0
M  V30 8507 H 835.107 -1.81359 -2.38598 0
M  V30 8508 H 832.668 -1.0916 -1.19565 0
M  V30 8509 H 834.66 0.097374 -4.04583 0
M  V30 8510 H 833.23 0.538299 -3.0793 0
M  V30 8511 H 832.45 -1.92074 -3.4424 0
M  V30 8512 H 833.738 -2.06044 -4.65213 0
M  V30 8513 H 833.136 0.985281 -5.57054 0
M  V30 8514 H 831.693 0.754802 -6.47415 0
M  V30 8515 N 835.127 1.22348 -0.993418 0
M  V30 8516 C 836.543 1.43222 -0.704238 0
M  V30 8517 C 836.743 1.88009 0.724909 0
M  V30 8518 O 835.799 2.03429 1.49575 0
M  V30 8519 C 837.112 2.47328 -1.71025 0
M  V30 8520 C 838.66 2.61126 -1.72576 0
M  V30 8521 C 839.135 3.68453 -2.72041 0
M  V30 8522 N 840.626 3.75911 -2.70639 0
M  V30 8523 C 841.361 4.58551 -3.44266 0
M  V30 8524 N 840.857 5.45179 -4.27495 0
M  V30 8525 N 842.65 4.52866 -3.32969 0
M  V30 8526 H 834.801 0.915832 -1.91641 0
M  V30 8527 H 837.064 0.464283 -0.826526 0
M  V30 8528 H 836.77 2.21366 -2.73295 0
M  V30 8529 H 836.644 3.45939 -1.50353 0
M  V30 8530 H 839.031 2.86431 -0.710037 0
M  V30 8531 H 839.112 1.62787 -1.97317 0
M  V30 8532 H 838.756 3.43895 -3.73763 0
M  V30 8533 H 838.686 4.66362 -2.4457 0
M  V30 8534 H 841.177 3.14014 -2.10247 0
M  V30 8535 H 841.49 6.0526 -4.80499 0
M  V30 8536 H 839.835 5.44759 -4.31582 0
M  V30 8537 H 843.026 3.84215 -2.67389 0
M  V30 8538 H 843.199 5.17039 -3.90608 0
M  V30 8539 N 836.605 0.766683 1.37694 0
M  V30 8540 C 837.568 0.155849 2.2867 0
M  V30 8541 C 838.568 -0.633509 1.47795 0
M  V30 8542 O 839.758 -0.457844 1.68076 0
M  V30 8543 C 836.89 -0.786965 3.31692 0
M  V30 8544 H 838.083 0.957748 2.84196 0
M  V30 8545 H 835.636 0.534554 1.46875 0
M  V30 8546 H 836.371 -1.61406 2.8128 0
M  V30 8547 H 836.156 -0.223182 3.91464 0
M  V30 8548 H 837.646 -1.20994 3.99688 0
M  V30 8549 N 838.083 -1.48885 0.516809 0
M  V30 8550 C 839.499 -1.58651 0.173788 0
M  V30 8551 C 839.699 -1.52033 -1.32243 0
M  V30 8552 O 838.755 -1.40251 -2.09967 0
M  V30 8553 C 840.068 -2.90816 0.764628 0
M  V30 8554 C 841.616 -3.04316 0.732164 0
M  V30 8555 C 842.091 -4.39123 1.30135 0
M  V30 8556 N 843.582 -4.45656 1.26273 0
M  V30 8557 C 844.317 -5.48446 1.67317 0
M  V30 8558 N 843.813 -6.58258 2.16028 0
M  V30 8559 N 845.606 -5.39251 1.58635 0
M  V30 8560 H 837.757 -1.5143 1.48939 0
M  V30 8561 H 840.02 -0.718243 0.618733 0
M  V30 8562 H 839.726 -3.01275 1.81456 0
M  V30 8563 H 839.6 -3.76473 0.234113 0
M  V30 8564 H 841.987 -2.93478 -0.308975 0
M  V30 8565 H 842.068 -2.20303 1.3 0
M  V30 8566 H 841.712 -4.50714 2.34135 0
M  V30 8567 H 841.642 -5.21801 0.709305 0
M  V30 8568 H 844.133 -3.66879 0.906006 0
M  V30 8569 H 844.446 -7.32811 2.45374 0
M  V30 8570 H 842.791 -6.59257 2.20013 0
M  V30 8571 H 845.982 -4.52354 1.20387 0
M  V30 8572 H 846.155 -6.19229 1.90944 0
M  V30 8573 N 839.561 -0.251338 -1.55583 0
M  V30 8574 C 840.493 0.679167 -2.18906 0
M  V30 8575 C 841.506 1.13545 -1.16667 0
M  V30 8576 O 842.695 1.06146 -1.4351 0
M  V30 8577 C 839.795 1.93544 -2.78198 0
M  V30 8578 C 838.968 1.62987 -4.05899 0
M  V30 8579 C 838.027 2.73618 -4.49466 0
M  V30 8580 O 837.053 2.40815 -5.15749 0
M  V30 8581 N 838.255 4.03204 -4.1762 0
M  V30 8582 H 841.02 0.137328 -2.99385 0
M  V30 8583 H 838.581 -0.0714754 -1.61742 0
M  V30 8584 H 840.573 2.66804 -3.04299 0
M  V30 8585 H 839.143 2.38695 -2.0185 0
M  V30 8586 H 838.363 0.732237 -3.8734 0
M  V30 8587 H 839.651 1.40041 -4.89148 0
M  V30 8588 H 839.049 4.32686 -3.64416 0
M  V30 8589 H 837.606 4.72916 -4.48547 0
M  V30 8590 N 841.039 1.57585 0.0217189 0
M  V30 8591 C 842.264 1.94267 0.726309 0
M  V30 8592 C 842.689 0.851904 1.67703 0
M  V30 8593 O 842.047 -0.191792 1.80283 0
M  V30 8594 C 842.095 3.30023 1.45318 0
M  V30 8595 O 841.199 3.22791 2.5667 0
M  V30 8596 H 840.54 0.634777 0.194818 0
M  V30 8597 H 843.07 2.04585 -0.0249985 0
M  V30 8598 H 843.08 3.65084 1.82147 0
M  V30 8599 H 841.755 4.08972 0.755962 0
M  V30 8600 H 840.332 2.99373 2.2233 0
M  V30 8601 N 842.517 -0.29412 1.54831 0
M  V30 8602 C 843.928 -0.866651 1.65366 0
M  V30 8603 C 844.279 -1.87834 0.56681 0
M  V30 8604 O 843.404 -2.14374 -0.295389 0
M  V30 8605 C 843.999 -1.57869 2.99771 0
M  V30 8606 C 842.558 -2.09954 3.12404 0
M  V30 8607 C 841.705 -0.934492 2.6108 0
M  V30 8608 H 844.656 -0.0709551 1.58541 0
M  V30 8609 H 844.677 -2.44462 2.91579 0
M  V30 8610 H 844.189 -0.84212 3.78853 0
M  V30 8611 H 842.29 -2.86637 2.38055 0
M  V30 8612 H 842.403 -2.32934 4.18663 0
M  V30 8613 H 840.767 -1.32199 2.17705 0
M  V30 8614 H 841.55 -0.211768 3.42646 0
M  V30 8615 N 843.995 -1.47404 -0.557645 0
M  V30 8616 C 844.905 -1.62491 -1.69216 0
M  V30 8617 C 845.921 -0.507764 -1.66426 0
M  V30 8618 O 847.097 -0.775241 -1.85882 0
M  V30 8619 C 844.162 -1.63511 -3.05721 0
M  V30 8620 C 843.223 -2.86648 -3.1958 0
M  V30 8621 C 842.456 -2.87609 -4.49574 0
M  V30 8622 O 842.679 -1.97799 -5.35006 0
M  V30 8623 O 841.613 -3.79465 -4.67215 0
M  V30 8624 H 845.439 -2.58487 -1.59431 0
M  V30 8625 H 843.024 -1.30485 -0.7276 0
M  V30 8626 H 844.906 -1.66863 -3.86956 0
M  V30 8627 H 843.581 -0.706812 -3.15889 0
M  V30 8628 H 842.488 -2.8884 -2.37744 0
M  V30 8629 H 843.821 -3.7877 -3.14316 0
M  V30 8630 N 845.473 0.80434 -1.35529 0
M  V30 8631 C 846.75 1.5486 -1.1949 0
M  V30 8632 C 847.13 2.09897 0.22506 0
M  V30 8633 O 846.478 1.92643 1.22886 0
M  V30 8634 C 846.688 2.65535 -2.26478 0
M  V30 8635 C 848.036 3.33814 -2.62399 0
M  V30 8636 O 849.06 2.75807 -2.25409 0
M  V30 8637 O 847.919 4.38612 -3.26009 0
M  V30 8638 H 845.013 0.68433 -0.464351 0
M  V30 8639 H 847.559 0.844107 -1.47217 0
M  V30 8640 H 846.331 2.22754 -3.21709 0
M  V30 8641 H 845.954 3.43617 -2.00033 0
M  V30 8642 N 846.951 1.19563 1.02676 0
M  V30 8643 C 848.197 1.00105 1.76371 0
M  V30 8644 C 848.53 -0.466823 1.88506 0
M  V30 8645 O 847.805 -1.34665 1.40341 0
M  V30 8646 C 848.088 1.67321 3.18866 0
M  V30 8647 C 847.941 3.21486 3.1459 0
M  V30 8648 C 849.26 1.39794 4.17308 0
M  V30 8649 H 846.379 0.365075 0.640226 0
M  V30 8650 H 849.021 1.47433 1.19848 0
M  V30 8651 H 847.171 1.27081 3.67128 0
M  V30 8652 H 848.843 3.70953 2.7421 0
M  V30 8653 H 847.086 3.5292 2.52249 0
M  V30 8654 H 847.757 3.63665 4.15273 0
M  V30 8655 H 850.233 1.74685 3.77657 0
M  V30 8656 H 849.109 1.89371 5.15199 0
M  V30 8657 H 849.37 0.323505 4.40915 0
M  V30 8658 N 848.429 -1.21819 0.999893 0
M  V30 8659 C 849.659 -1.94475 0.697346 0
M  V30 8660 C 850.067 -1.73991 -0.743228 0
M  V30 8661 O 849.41 -1.04042 -1.51397 0
M  V30 8662 C 849.472 -3.47204 0.932181 0
M  V30 8663 C 849.136 -3.91432 2.3586 0
M  V30 8664 C 850.133 -3.98545 3.33853 0
M  V30 8665 C 847.818 -4.23888 2.69489 0
M  V30 8666 C 849.812 -4.37499 4.63545 0
M  V30 8667 C 847.499 -4.62519 3.99399 0
M  V30 8668 C 848.497 -4.69294 4.96238 0
M  V30 8669 O 848.185 -5.07048 6.23825 0
M  V30 8670 H 847.917 -0.625419 0.256567 0
M  V30 8671 H 850.471 -1.55728 1.33933 0
M  V30 8672 H 848.701 -3.85997 0.233025 0
M  V30 8673 H 850.39 -4.01078 0.623807 0
M  V30 8674 H 851.156 -3.73654 3.09205 0
M  V30 8675 H 847.035 -4.17815 1.94812 0
M  V30 8676 H 850.579 -4.42702 5.3913 0
M  V30 8677 H 846.476 -4.86864 4.23833 0
M  V30 8678 H 847.244 -5.25098 6.27865 0
M  V30 8679 N 849.908 -0.773975 -1.37286 0
M  V30 8680 C 851.155 -0.339306 -1.99637 0
M  V30 8681 C 851.483 1.08478 -1.61439 0
M  V30 8682 O 850.738 1.7612 -0.853252 0
M  V30 8683 C 851.037 -0.432651 -3.54772 0
M  V30 8684 C 850.703 -1.81531 -4.12744 0
M  V30 8685 C 849.365 -2.19366 -4.2829 0
M  V30 8686 C 851.717 -2.72137 -4.44512 0
M  V30 8687 C 849.045 -3.47239 -4.72908 0
M  V30 8688 C 851.397 -3.99421 -4.90556 0
M  V30 8689 C 850.061 -4.37298 -5.04308 0
M  V30 8690 H 849.331 -0.124161 -0.730524 0
M  V30 8691 H 851.978 -0.988432 -1.64019 0
M  V30 8692 H 850.283 0.30001 -3.9065 0
M  V30 8693 H 851.98 -0.0776 -4.00925 0
M  V30 8694 H 848.57 -1.51126 -4.01072 0
M  V30 8695 H 852.754 -2.44165 -4.32084 0
M  V30 8696 H 848.01 -3.76477 -4.81742 0
M  V30 8697 H 852.184 -4.69756 -5.14104 0
M  V30 8698 H 849.811 -5.36442 -5.38641 0
M  V30 8699 N 851.386 1.48609 -0.524698 0
M  V30 8700 C 852.611 2.07398 0.00952139 0
M  V30 8701 C 853.036 1.37939 1.27884 0
M  V30 8702 O 852.394 0.443633 1.75788 0
M  V30 8703 C 852.442 3.59916 0.221956 0
M  V30 8704 O 851.546 3.91647 1.29175 0
M  V30 8705 H 850.887 0.662981 -0.0367729 0
M  V30 8706 H 853.417 1.91092 -0.7311 0
M  V30 8707 H 853.427 4.05552 0.446236 0
M  V30 8708 H 852.102 4.09876 -0.705306 0
M  V30 8709 H 850.679 3.57796 1.05055 0
M  V30 8710 N 852.864 0.259585 1.55447 0
M  V30 8711 C 853.811 -0.634578 2.21905 0
M  V30 8712 C 854.781 -1.16168 1.18719 0
M  V30 8713 O 855.966 -1.21383 1.4721 0
M  V30 8714 C 853.106 -1.82005 2.93203 0
M  V30 8715 C 852.219 -1.32828 4.11073 0
M  V30 8716 C 851.354 -2.47431 4.70055 0
M  V30 8717 C 850.393 -1.95179 5.80148 0
M  V30 8718 N 849.53 -3.03197 6.33258 0
M  V30 8719 H 854.37 -0.0611886 2.97937 0
M  V30 8720 H 851.907 -0.0184378 1.47088 0
M  V30 8721 H 853.865 -2.51664 3.32748 0
M  V30 8722 H 852.495 -2.36571 2.19622 0
M  V30 8723 H 851.547 -0.525301 3.76756 0
M  V30 8724 H 852.859 -0.905435 4.90513 0
M  V30 8725 H 852.013 -3.25111 5.12238 0
M  V30 8726 H 850.752 -2.93023 3.89857 0
M  V30 8727 H 849.757 -1.15974 5.37429 0
M  V30 8728 H 850.982 -1.50541 6.62204 0
M  V30 8729 H 848.928 -3.48199 5.55961 0
M  V30 8730 H 848.845 -2.65282 7.07928 0
M  V30 8731 H 850.113 -3.80898 6.80101 0
M  V30 8732 N 854.342 -1.57594 -0.0133615 0
M  V30 8733 C 855.567 -1.94649 -0.715996 0
M  V30 8734 C 855.992 -0.860786 -1.67249 0
M  V30 8735 O 855.35 0.182228 -1.80382 0
M  V30 8736 C 855.398 -3.30789 -1.43566 0
M  V30 8737 O 854.502 -3.24148 -2.54955 0
M  V30 8738 H 853.843 -0.635801 -0.191449 0
M  V30 8739 H 856.373 -2.04569 0.0358478 0
M  V30 8740 H 856.383 -3.66045 -1.80208 0
M  V30 8741 H 855.058 -4.09367 -0.734263 0
M  V30 8742 H 853.635 -3.00548 -2.20739 0
M  V30 8743 N 855.82 0.285905 -1.54985 0
M  V30 8744 C 856.73 1.37534 -1.90057 0
M  V30 8745 C 857.746 1.54707 -0.796348 0
M  V30 8746 O 858.922 1.69082 -1.09423 0
M  V30 8747 C 855.987 2.7167 -2.15398 0
M  V30 8748 C 855.048 2.63354 -3.39033 0
M  V30 8749 C 854.281 3.91093 -3.63155 0
M  V30 8750 O 854.504 4.91169 -2.90015 0
M  V30 8751 O 853.438 3.92075 -4.56685 0
M  V30 8752 H 857.264 1.10791 -2.8277 0
M  V30 8753 H 854.849 0.483303 -1.41367 0
M  V30 8754 H 856.731 3.51006 -2.33179 0
M  V30 8755 H 855.406 2.98226 -1.25868 0
M  V30 8756 H 854.313 1.82438 -3.26599 0
M  V30 8757 H 855.646 2.41749 -4.2874 0
M  V30 8758 N 857.298 1.47698 0.54982 0
M  V30 8759 C 858.23 1.56806 1.67166 0
M  V30 8760 C 859.243 0.453709 1.5635 0
M  V30 8761 O 860.432 0.723663 1.63173 0
M  V30 8762 C 857.532 1.4632 3.05686 0
M  V30 8763 C 856.705 2.72452 3.42182 0
M  V30 8764 C 855.764 2.55698 4.59897 0
M  V30 8765 O 854.79 3.29534 4.64108 0
M  V30 8766 N 855.992 1.64009 5.56849 0
M  V30 8767 H 858.757 2.53545 1.59797 0
M  V30 8768 H 856.318 1.44171 0.736635 0
M  V30 8769 H 858.31 1.32835 3.82279 0
M  V30 8770 H 856.88 0.57634 3.07241 0
M  V30 8771 H 856.1 3.00644 2.54964 0
M  V30 8772 H 857.388 3.56172 3.63344 0
M  V30 8773 H 856.786 1.03186 5.5621 0
M  V30 8774 H 855.343 1.56473 6.3274 0
M  V30 8775 N 858.776 -0.797141 1.35954 0
M  V30 8776 C 859.706 -1.92387 1.32323 0
M  V30 8777 C 860.687 -1.68967 0.196007 0
M  V30 8778 O 861.872 -1.90193 0.39245 0
M  V30 8779 C 859.002 -3.29286 1.10398 0
M  V30 8780 C 857.956 -3.67212 2.19862 0
M  V30 8781 C 857.282 -5.02377 1.8309 0
M  V30 8782 C 858.582 -3.76602 3.61896 0
M  V30 8783 H 860.276 -1.95683 2.26602 0
M  V30 8784 H 857.822 -0.94007 1.09081 0
M  V30 8785 H 859.775 -4.07721 1.06495 0
M  V30 8786 H 858.499 -3.26358 0.125668 0
M  V30 8787 H 857.158 -2.91069 2.22878 0
M  V30 8788 H 856.806 -4.95961 0.838527 0
M  V30 8789 H 856.506 -5.28722 2.56372 0
M  V30 8790 H 858.03 -5.8324 1.80729 0
M  V30 8791 H 859.444 -4.45246 3.6115 0
M  V30 8792 H 857.841 -4.14425 4.34018 0
M  V30 8793 H 858.911 -2.77906 3.97361 0
M  V30 8794 N 860.254 -1.20106 -1.0204 0
M  V30 8795 C 861.201 -0.946468 -2.10501 0
M  V30 8796 C 862.171 0.121902 -1.65652 0
M  V30 8797 O 863.356 -0.0220244 -1.90787 0
M  V30 8798 C 860.496 -0.500499 -3.41451 0
M  V30 8799 C 859.609 -1.63659 -3.998 0
M  V30 8800 C 858.744 -1.14131 -5.18794 0
M  V30 8801 C 857.783 -2.25074 -5.69217 0
M  V30 8802 N 856.92 -1.76791 -6.79477 0
M  V30 8803 H 861.76 -1.87506 -2.31615 0
M  V30 8804 H 859.297 -0.934693 -1.13587 0
M  V30 8805 H 861.255 -0.223276 -4.16602 0
M  V30 8806 H 859.885 0.391099 -3.20422 0
M  V30 8807 H 858.937 -2.02882 -3.21781 0
M  V30 8808 H 860.249 -2.47213 -4.33229 0
M  V30 8809 H 859.403 -0.819826 -6.01135 0
M  V30 8810 H 858.142 -0.275615 -4.86921 0
M  V30 8811 H 857.147 -2.58043 -4.85483 0
M  V30 8812 H 858.372 -3.12114 -6.03127 0
M  V30 8813 H 856.318 -0.925428 -6.4944 0
M  V30 8814 H 856.235 -2.53928 -7.12079 0
M  V30 8815 H 857.503 -1.47631 -7.65392 0
M  V30 8816 N 861.732 1.21287 -1.00634 0
M  V30 8817 C 863.143 1.72136 -0.722914 0
M  V30 8818 C 863.494 1.8091 0.759338 0
M  V30 8819 O 862.619 1.46458 1.59308 0
M  V30 8820 C 863.214 3.12633 -1.30561 0
M  V30 8821 C 861.773 3.60833 -1.07127 0
M  V30 8822 C 860.92 2.38326 -1.4176 0
M  V30 8823 H 863.871 1.06445 -1.17708 0
M  V30 8824 H 863.892 3.74174 -0.690937 0
M  V30 8825 H 863.404 3.06215 -2.38441 0
M  V30 8826 H 861.505 3.72599 -0.00968671 0
M  V30 8827 H 861.618 4.46226 -1.74411 0
M  V30 8828 H 859.982 2.40575 -0.836412 0
M  V30 8829 H 860.765 2.34558 -2.50674 0
M  V30 8830 N 863.21 0.781244 1.36873 0
M  V30 8831 C 864.14 0.188128 2.32741 0
M  V30 8832 C 865.121 -0.672326 1.56249 0
M  V30 8833 O 866.306 -0.607835 1.84442 0
M  V30 8834 C 863.436 -0.684341 3.40491 0
M  V30 8835 C 862.39 0.0755641 4.27933 0
M  V30 8836 C 861.716 -0.916968 5.26779 0
M  V30 8837 C 863.016 1.26006 5.06873 0
M  V30 8838 H 864.71 0.989016 2.82593 0
M  V30 8839 H 862.256 0.477038 1.35869 0
M  V30 8840 H 864.209 -1.10915 4.06541 0
M  V30 8841 H 862.933 -1.51785 2.89187 0
M  V30 8842 H 861.592 0.481258 3.63427 0
M  V30 8843 H 861.24 -1.74528 4.71751 0
M  V30 8844 H 860.94 -0.413 5.86147 0
M  V30 8845 H 862.464 -1.34052 5.95703 0
M  V30 8846 H 863.878 0.911425 5.66009 0
M  V30 8847 H 862.275 1.69676 5.75613 0
M  V30 8848 H 863.345 2.05948 4.38991 0
M  V30 8849 N 864.689 -1.48329 0.532571 0
M  V30 8850 C 865.636 -2.29663 -0.228779 0
M  V30 8851 C 866.606 -1.37529 -0.931401 0
M  V30 8852 O 867.791 -1.66493 -0.931921 0
M  V30 8853 C 864.931 -3.20955 -1.26814 0
M  V30 8854 C 864.044 -4.28168 -0.574099 0
M  V30 8855 C 863.179 -5.06638 -1.59661 0
M  V30 8856 C 862.218 -6.05651 -0.88618 0
M  V30 8857 N 861.355 -6.77169 -1.85436 0
M  V30 8858 H 866.195 -2.94255 0.47098 0
M  V30 8859 H 863.732 -1.45061 0.2441 0
M  V30 8860 H 865.69 -3.72285 -1.88307 0
M  V30 8861 H 864.32 -2.58281 -1.93625 0
M  V30 8862 H 863.372 -3.80085 0.154827 0
M  V30 8863 H 864.684 -4.98797 -0.0163984 0
M  V30 8864 H 863.838 -5.61995 -2.28576 0
M  V30 8865 H 862.577 -4.35854 -2.18821 0
M  V30 8866 H 861.582 -5.49495 -0.182981 0
M  V30 8867 H 862.807 -6.78434 -0.300659 0
M  V30 8868 H 860.753 -6.09134 -2.43499 0
M  V30 8869 H 860.67 -7.43882 -1.34816 0
M  V30 8870 H 861.938 -7.37114 -2.53541 0
M  V30 8871 N 866.167 -0.267825 -1.55308 0
M  V30 8872 C 867.395 0.354587 -2.03839 0
M  V30 8873 C 867.81 1.50007 -1.14644 0
M  V30 8874 O 867.167 1.81752 -0.165055 0
M  V30 8875 C 867.218 0.84254 -3.51544 0
M  V30 8876 O 866.939 -0.257318 -4.37344 0
M  V30 8877 C 868.44 1.53351 -4.15931 0
M  V30 8878 H 865.66 0.0818131 -0.665994 0
M  V30 8879 H 868.204 -0.397795 -2.00594 0
M  V30 8880 H 866.359 1.54503 -3.55257 0
M  V30 8881 H 866.773 0.116593 -5.2437 0
M  V30 8882 H 868.247 1.82643 -5.20908 0
M  V30 8883 H 868.724 2.4626 -3.63666 0
M  V30 8884 H 869.33 0.87506 -4.162 0
M  V30 8885 N 867.645 1.57599 0.00500368 0
M  V30 8886 C 868.875 1.94344 0.700998 0
M  V30 8887 C 869.283 0.868011 1.68114 0
M  V30 8888 O 868.626 -0.16214 1.82983 0
M  V30 8889 C 868.688 3.27046 1.49268 0
M  V30 8890 C 868.352 4.51992 0.674684 0
M  V30 8891 C 869.349 5.19888 -0.0354833 0
M  V30 8892 C 867.034 4.98432 0.622129 0
M  V30 8893 C 869.028 6.3252 -0.787246 0
M  V30 8894 C 866.715 6.10954 -0.133362 0
M  V30 8895 C 867.713 6.77855 -0.836788 0
M  V30 8896 O 867.401 7.88221 -1.57996 0
M  V30 8897 H 867.133 0.645572 0.20053 0
M  V30 8898 H 869.687 2.0536 -0.040718 0
M  V30 8899 H 867.917 3.12424 2.27877 0
M  V30 8900 H 869.606 3.4894 2.07355 0
M  V30 8901 H 870.372 4.85 -0.00400159 0
M  V30 8902 H 866.251 4.46189 1.15917 0
M  V30 8903 H 869.795 6.84671 -1.33683 0
M  V30 8904 H 865.692 6.45285 -0.166682 0
M  V30 8905 H 866.46 8.0471 -1.49615 0
M  V30 8906 N 869.123 -0.277682 1.55134 0
M  V30 8907 C 870.369 -1.0114 1.7578 0
M  V30 8908 C 870.702 -1.86109 0.554719 0
M  V30 8909 O 869.977 -1.89275 -0.447813 0
M  V30 8910 C 870.26 -1.89789 3.06027 0
M  V30 8911 C 870.113 -1.07844 4.3668 0
M  V30 8912 C 871.432 -2.88577 3.32282 0
M  V30 8913 H 868.551 -0.366277 0.639539 0
M  V30 8914 H 871.193 -0.284155 1.87863 0
M  V30 8915 H 869.343 -2.51796 2.95856 0
M  V30 8916 H 871.015 -0.479432 4.58802 0
M  V30 8917 H 869.258 -0.381764 4.32117 0
M  V30 8918 H 869.929 -1.73179 5.24131 0
M  V30 8919 H 872.405 -2.36702 3.42215 0
M  V30 8920 H 871.281 -3.47749 4.2469 0
M  V30 8921 H 871.542 -3.63458 2.51696 0
M  V30 8922 N 870.601 -1.47988 -0.541979 0
M  V30 8923 C 871.878 -1.45878 -1.30303 0
M  V30 8924 C 872.258 -0.163931 -2.10463 0
M  V30 8925 O 871.606 0.854479 -2.11922 0
M  V30 8926 C 871.816 -2.71359 -2.19466 0
M  V30 8927 C 873.164 -3.19199 -2.79995 0
M  V30 8928 O 874.188 -2.72193 -2.2976 0
M  V30 8929 O 873.047 -4.00961 -3.71339 0
M  V30 8930 H 870.141 -0.582043 -0.587498 0
M  V30 8931 H 872.687 -1.60207 -0.559623 0
M  V30 8932 H 871.459 -3.57122 -1.59936 0
M  V30 8933 H 871.082 -2.59692 -3.01075 0
M  V30 8934 N 872.079 0.78992 -1.36375 0
M  V30 8935 C 873.49 1.36506 -1.2737 0
M  V30 8936 C 873.841 1.96008 0.086711 0
M  V30 8937 O 872.966 1.92521 0.988159 0
M  V30 8938 C 873.561 2.48175 -2.30639 0
M  V30 8939 C 872.12 3.01506 -2.25325 0
M  V30 8940 C 871.267 1.74581 -2.15445 0
M  V30 8941 H 874.218 0.591606 -1.47261 0
M  V30 8942 H 874.239 3.27179 -1.94253 0
M  V30 8943 H 873.751 2.04838 -3.2964 0
M  V30 8944 H 871.852 3.49265 -1.29788 0
M  V30 8945 H 871.965 3.58355 -3.17992 0
M  V30 8946 H 870.329 1.96794 -1.61692 0
M  V30 8947 H 871.112 1.33373 -3.16333 0
M  V30 8948 N 873.557 1.20646 1.01402 0
M  V30 8949 C 874.507 0.925209 2.08384 0
M  V30 8950 C 875.491 -0.115994 1.60481 0
M  V30 8951 O 876.683 0.0917276 1.76762 0
M  V30 8952 C 873.812 0.48193 3.399 0
M  V30 8953 C 872.898 1.5567 3.94497 0
M  V30 8954 N 873.289 2.77971 4.2257 0
M  V30 8955 C 871.587 1.42347 4.22674 0
M  V30 8956 C 872.288 3.47317 4.66632 0
M  V30 8957 N 871.264 2.74736 4.69064 0
M  V30 8958 H 875.066 1.85452 2.28002 0
M  V30 8959 H 872.58 1.10084 1.19395 0
M  V30 8960 H 874.577 0.261835 4.16077 0
M  V30 8961 H 873.237 -0.440725 3.21695 0
M  V30 8962 H 874.248 3.14598 4.11398 0
M  V30 8963 H 870.925 0.565417 4.13654 0
M  V30 8964 H 872.315 4.51985 4.97151 0
M  V30 8965 N 875.035 -1.20752 1.01276 0
M  V30 8966 C 876.263 -1.94006 0.718976 0
M  V30 8967 C 876.678 -1.74544 -0.719711 0
M  V30 8968 O 876.035 -1.05697 -1.48776 0
M  V30 8969 C 876.086 -3.46208 1.04031 0
M  V30 8970 O 875.807 -3.65031 2.42248 0
M  V30 8971 C 877.308 -4.36614 0.767032 0
M  V30 8972 H 874.528 -0.616743 0.264327 0
M  V30 8973 H 877.072 -1.53352 1.3529 0
M  V30 8974 H 875.227 -3.84756 0.451852 0
M  V30 8975 H 875.641 -4.59054 2.53712 0
M  V30 8976 H 877.115 -5.42076 1.04198 0
M  V30 8977 H 877.592 -4.38182 -0.298851 0
M  V30 8978 H 878.198 -4.03723 1.33746 0
M  V30 8979 N 876.513 -0.788492 -1.36457 0
M  V30 8980 C 877.743 -0.371825 -2.03227 0
M  V30 8981 C 878.151 1.01627 -1.59589 0
M  V30 8982 O 877.494 1.663 -0.780382 0
M  V30 8983 C 877.556 -0.355179 -3.57741 0
M  V30 8984 C 877.22 -1.69069 -4.24576 0
M  V30 8985 C 878.217 -2.64601 -4.47529 0
M  V30 8986 C 875.902 -1.96973 -4.62068 0
M  V30 8987 C 877.896 -3.86232 -5.07054 0
M  V30 8988 C 875.583 -3.18872 -5.2131 0
M  V30 8989 C 876.581 -4.1332 -5.43742 0
M  V30 8990 O 876.269 -5.3307 -6.0174 0
M  V30 8991 H 876.001 -0.151452 -0.658816 0
M  V30 8992 H 878.555 -1.06827 -1.75434 0
M  V30 8993 H 876.785 0.397753 -3.84649 0
M  V30 8994 H 878.474 0.0366955 -4.05883 0
M  V30 8995 H 879.24 -2.44329 -4.18961 0
M  V30 8996 H 875.119 -1.24277 -4.43933 0
M  V30 8997 H 878.663 -4.59965 -5.24478 0
M  V30 8998 H 874.56 -3.39022 -5.49304 0
M  V30 8999 H 875.328 -5.34121 -6.20207 0
M  V30 9000 N 877.991 1.48044 -0.54043 0
M  V30 9001 C 878.901 2.33565 0.220163 0
M  V30 9002 C 879.917 1.47146 0.928659 0
M  V30 9003 O 881.093 1.80107 0.901295 0
M  V30 9004 C 878.158 3.2349 1.2472 0
M  V30 9005 C 877.219 4.25789 0.547938 0
M  V30 9006 C 876.452 5.11417 1.52605 0
M  V30 9007 O 876.675 4.99204 2.75956 0
M  V30 9008 O 875.609 5.92498 1.05972 0
M  V30 9009 H 879.435 2.99868 -0.480898 0
M  V30 9010 H 877.02 1.46332 -0.301226 0
M  V30 9011 H 878.902 3.79084 1.84047 0
M  V30 9012 H 877.577 2.59835 1.93048 0
M  V30 9013 H 876.484 3.74001 -0.0860941 0
M  V30 9014 H 877.817 4.92111 -0.0935896 0
M  V30 9015 N 879.47 0.276058 1.55163 0
M  V30 9016 C 880.747 -0.392292 1.91626 0
M  V30 9017 C 881.127 -1.73646 1.20043 0
M  V30 9018 O 880.475 -2.26139 0.327606 0
M  V30 9019 C 880.685 -0.531641 3.44927 0
M  V30 9020 C 882.033 -0.8141 4.16722 0
M  V30 9021 O 883.057 -0.616413 3.50826 0
M  V30 9022 O 881.916 -1.19224 5.33337 0
M  V30 9023 H 879.01 -0.214945 0.798579 0
M  V30 9024 H 881.556 0.32228 1.66612 0
M  V30 9025 H 880.328 0.414282 3.89101 0
M  V30 9026 H 879.951 -1.29564 3.75897 0
M  V30 9027 N 880.948 -1.576 0.00335426 0
M  V30 9028 C 882.359 -1.7875 -0.539008 0
M  V30 9029 C 882.71 -0.911097 -1.73763 0
M  V30 9030 O 881.835 -0.114476 -2.16097 0
M  V30 9031 C 882.43 -3.24177 -0.984611 0
M  V30 9032 C 880.989 -3.46412 -1.47226 0
M  V30 9033 C 880.136 -2.74024 -0.425004 0
M  V30 9034 H 883.087 -1.57032 0.229511 0
M  V30 9035 H 883.108 -3.32474 -1.85044 0
M  V30 9036 H 882.62 -3.87938 -0.112035 0
M  V30 9037 H 880.721 -2.8787 -2.36562 0
M  V30 9038 H 880.834 -4.55098 -1.49741 0
M  V30 9039 H 879.198 -2.38741 -0.887394 0
M  V30 9040 H 879.981 -3.40486 0.438662 0
M  V30 9041 N 882.426 0.269451 -1.5528 0
M  V30 9042 C 883.374 1.35303 -1.89198 0
M  V30 9043 C 884.368 1.50956 -0.768671 0
M  V30 9044 O 885.574 1.52699 -0.953054 0
M  V30 9045 H 881.949 0.452591 -0.600554 0
M  V30 9046 H 883.92 1.03949 -2.79709 0
M  V30 9047 C 882.669 2.70585 -2.18356 0
M  V30 9048 H 881.992 2.59332 -3.04281 0
M  V30 9049 H 883.432 3.45335 -2.46007 0
M  V30 9050 C 881.891 3.21954 -0.992327 0
M  V30 9051 O 882.421 4.01048 -0.228769 0
M  V30 9052 N 880.627 2.79682 -0.789062 0
M  V30 9053 H 880.174 2.15475 -1.41167 0
M  V30 9054 H 880.132 3.14399 0.00634776 0
M  V30 9055 N 883.904 1.48273 0.534124 0
M  V30 9056 C 884.836 1.5857 1.65494 0
M  V30 9057 C 885.849 0.470266 1.5586 0
M  V30 9058 O 887.038 0.740928 1.62396 0
M  V30 9059 C 884.138 1.49554 3.04117 0
M  V30 9060 C 883.311 2.76066 3.39273 0
M  V30 9061 C 882.37 2.60562 4.57159 0
M  V30 9062 O 881.396 3.34438 4.60587 0
M  V30 9063 N 882.598 1.69906 5.55079 0
M  V30 9064 H 885.363 2.55226 1.57099 0
M  V30 9065 H 882.924 1.44944 0.721303 0
M  V30 9066 H 884.916 1.36882 3.80848 0
M  V30 9067 H 883.486 0.608895 3.06613 0
M  V30 9068 H 882.706 3.03332 2.51761 0
M  V30 9069 H 883.994 3.60006 3.59546 0
M  V30 9070 H 883.392 1.09079 5.55084 0
M  V30 9071 H 881.949 1.63175 6.31044 0
M  V30 9072 N 885.382 -0.782676 1.36792 0
M  V30 9073 C 886.345 -1.8772 1.31507 0
M  V30 9074 C 887.345 -1.59269 0.221349 0
M  V30 9075 O 888.535 -1.67555 0.476544 0
M  V30 9076 C 885.667 -3.24641 1.04025 0
M  V30 9077 H 886.86 -1.9382 2.28853 0
M  V30 9078 H 884.413 -0.981226 1.21662 0
M  V30 9079 H 885.148 -3.24221 0.0716439 0
M  V30 9080 H 884.933 -3.46681 1.8318 0
M  V30 9081 H 886.423 -4.04711 1.02949 0
M  V30 9082 N 886.86 -1.21182 -1.00761 0
M  V30 9083 C 888.106 -1.02898 -1.74756 0
M  V30 9084 C 888.439 0.436774 -1.89225 0
M  V30 9085 O 887.714 1.32415 -1.42466 0
M  V30 9086 C 887.997 -1.72372 -3.16164 0
M  V30 9087 C 887.85 -3.2645 -3.09435 0
M  V30 9088 C 889.169 -1.46415 -4.15031 0
M  V30 9089 H 886.288 -0.375214 -0.634337 0
M  V30 9090 H 888.93 -1.49321 -1.17487 0
M  V30 9091 H 887.08 -1.32906 -3.65059 0
M  V30 9092 H 888.752 -3.75269 -2.68274 0
M  V30 9093 H 886.995 -3.56889 -2.46603 0
M  V30 9094 H 887.666 -3.70226 -4.09435 0
M  V30 9095 H 890.142 -1.80671 -3.7483 0
M  V30 9096 H 889.018 -1.97544 -5.12121 0
M  V30 9097 H 889.279 -0.39361 -4.40344 0
M  V30 9098 N 888.338 1.20213 -1.01915 0
M  V30 9099 C 889.268 2.25336 -0.612023 0
M  V30 9100 C 890.249 1.65933 0.374186 0
M  V30 9101 O 891.434 1.92464 0.259053 0
M  V30 9102 C 888.564 3.47267 0.047904 0
M  V30 9103 C 887.518 4.1928 -0.859557 0
M  V30 9104 C 886.844 5.3466 -0.0652655 0
M  V30 9105 C 888.144 4.75143 -2.1688 0
M  V30 9106 H 889.838 2.59645 -1.49079 0
M  V30 9107 H 887.384 1.24808 -0.718263 0
M  V30 9108 H 889.337 4.19991 0.344294 0
M  V30 9109 H 888.061 3.12129 0.961404 0
M  V30 9110 H 886.72 3.48425 -1.13999 0
M  V30 9111 H 886.368 4.95767 0.849964 0
M  V30 9112 H 886.068 5.83772 -0.669618 0
M  V30 9113 H 887.592 6.10187 0.224612 0
M  V30 9114 H 889.006 5.39672 -1.9346 0
M  V30 9115 H 887.403 5.34702 -2.72422 0
M  V30 9116 H 888.473 3.93744 -2.83008 0
M  V30 9117 N 889.816 0.795718 1.36037 0
M  V30 9118 C 890.763 0.196548 2.29962 0
M  V30 9119 C 891.733 -0.663213 1.52285 0
M  V30 9120 O 892.918 -0.610574 1.80767 0
M  V30 9121 C 890.058 -0.657639 3.38776 0
M  V30 9122 C 889.171 0.221358 4.31433 0
M  V30 9123 C 888.306 -0.6398 5.27333 0
M  V30 9124 C 887.345 0.240265 6.11628 0
M  V30 9125 N 886.482 -0.580237 6.99698 0
M  V30 9126 H 891.322 1.00295 2.80615 0
M  V30 9127 H 888.859 0.506147 1.38118 0
M  V30 9128 H 890.817 -1.16793 4.00519 0
M  V30 9129 H 889.447 -1.42941 2.89426 0
M  V30 9130 H 888.499 0.84967 3.70789 0
M  V30 9131 H 889.811 0.899195 4.90628 0
M  V30 9132 H 888.965 -1.21566 5.94396 0
M  V30 9133 H 887.704 -1.35124 4.68607 0
M  V30 9134 H 886.709 0.828474 5.43522 0
M  V30 9135 H 887.934 0.949403 6.72431 0
M  V30 9136 H 885.88 -1.27585 6.43473 0
M  V30 9137 H 885.797 0.0397853 7.5599 0
M  V30 9138 H 887.065 -1.13972 7.71123 0
M  V30 9139 N 891.294 -1.47756 0.548274 0
M  V30 9140 C 892.541 -2.02489 0.0208955 0
M  V30 9141 C 892.869 -1.42356 -1.32533 0
M  V30 9142 O 892.124 -0.565448 -1.87353 0
M  V30 9143 C 892.423 -3.5716 -0.131069 0
M  V30 9144 C 892.089 -4.36169 1.14313 0
M  V30 9145 C 890.751 -4.57476 1.4923 0
M  V30 9146 C 893.103 -4.81801 1.9879 0
M  V30 9147 C 890.431 -5.21662 2.68487 0
M  V30 9148 C 892.783 -5.47303 3.17242 0
M  V30 9149 C 891.447 -5.66844 3.52483 0
M  V30 9150 H 890.717 -0.740961 0.00764621 0
M  V30 9151 H 893.364 -1.77531 0.717987 0
M  V30 9152 H 891.669 -3.8106 -0.911063 0
M  V30 9153 H 893.366 -3.9715 -0.55433 0
M  V30 9154 H 889.956 -4.19858 0.861235 0
M  V30 9155 H 894.14 -4.65126 1.73123 0
M  V30 9156 H 889.396 -5.34987 2.95971 0
M  V30 9157 H 893.57 -5.81626 3.82994 0
M  V30 9158 H 891.197 -6.16352 4.44988 0
M  V30 9159 N 892.772 -0.284283 -1.55015 0
M  V30 9160 C 894 0.332948 -2.04203 0
M  V30 9161 C 894.415 1.48783 -1.16229 0
M  V30 9162 O 893.772 1.81567 -0.184323 0
M  V30 9163 C 893.823 0.805207 -3.52418 0
M  V30 9164 O 893.544 -0.303689 -4.37046 0
M  V30 9165 C 895.045 1.48931 -4.17534 0
M  V30 9166 H 892.265 0.0747447 -0.666824 0
M  V30 9167 H 894.809 -0.419048 -2.00161 0
M  V30 9168 H 892.964 1.50727 -3.56876 0
M  V30 9169 H 893.378 0.0609703 -5.24465 0
M  V30 9170 H 894.852 1.77108 -5.22816 0
M  V30 9171 H 895.329 2.42389 -3.66257 0
M  V30 9172 H 895.935 0.830867 -4.17105 0
M  V30 9173 N 894.251 1.57596 -0.0117121 0
M  V30 9174 C 895.479 1.9536 0.681334 0
M  V30 9175 C 895.894 0.887255 1.66653 0
M  V30 9176 O 895.251 -0.132692 1.82017 0
M  V30 9177 C 895.302 3.33165 1.40298 0
M  V30 9178 O 895.023 4.35707 0.45728 0
M  V30 9179 C 896.524 3.85458 2.18946 0
M  V30 9180 H 893.744 0.643826 0.189023 0
M  V30 9181 H 896.288 2.04392 -0.066311 0
M  V30 9182 H 894.443 3.25404 2.10216 0
M  V30 9183 H 894.857 5.15495 0.96773 0
M  V30 9184 H 896.331 4.84275 2.64918 0
M  V30 9185 H 896.808 3.18781 3.02118 0
M  V30 9186 H 897.414 3.96431 1.5402 0
M  V30 9187 N 895.729 -0.261212 1.5542 0
M  V30 9188 C 896.639 -1.34493 1.92221 0
M  V30 9189 C 897.655 -1.53421 0.82086 0
M  V30 9190 O 898.831 -1.6732 1.12099 0
M  V30 9191 C 895.896 -2.68209 2.19692 0
M  V30 9192 C 894.957 -2.57927 3.43179 0
M  V30 9193 C 894.19 -3.85266 3.69331 0
M  V30 9194 O 894.413 -4.86493 2.97793 0
M  V30 9195 O 893.347 -3.8476 4.62865 0
M  V30 9196 H 897.173 -1.06278 2.84497 0
M  V30 9197 H 894.758 -0.460752 1.42118 0
M  V30 9198 H 896.64 -3.47252 2.38734 0
M  V30 9199 H 895.315 -2.96186 1.30597 0
M  V30 9200 H 894.222 -1.77219 3.2946 0
M  V30 9201 H 895.555 -2.34898 4.32532 0
M  V30 9202 N 897.207 -1.48554 -0.526253 0
M  V30 9203 C 898.456 -1.56014 -1.27837 0
M  V30 9204 C 898.769 -0.240643 -1.94114 0
M  V30 9205 O 899.975 -0.193525 -2.70809 0
M  V30 9206 C 898.431 -2.75161 -2.31979 0
M  V30 9207 C 898.039 -4.13768 -1.71755 0
M  V30 9208 C 899.783 -2.91936 -3.08178 0
M  V30 9209 C 897.69 -5.24171 -2.7386 0
M  V30 9210 H 896.62 -0.58082 -0.480795 0
M  V30 9211 H 899.271 -1.74895 -0.555335 0
M  V30 9212 H 897.653 -2.49722 -3.07335 0
M  V30 9213 H 898.827 -4.49241 -1.02563 0
M  V30 9214 H 897.142 -4.02141 -1.08036 0
M  V30 9215 H 899.739 -3.71586 -3.84484 0
M  V30 9216 H 900.082 -2.01533 -3.64267 0
M  V30 9217 H 900.615 -3.17294 -2.39937 0
M  V30 9218 H 897.354 -6.16552 -2.22586 0
M  V30 9219 H 896.874 -4.93181 -3.41368 0
M  V30 9220 H 898.553 -5.52442 -3.36774 0
M  V30 9221 N 898.685 0.775411 -1.37205 0
M  V30 9222 C 899.635 1.87867 -1.29189 0
M  V30 9223 C 900.619 1.59885 -0.180466 0
M  V30 9224 O 901.811 1.72077 -0.414536 0
M  V30 9225 C 898.94 3.25285 -1.09748 0
M  V30 9226 C 898.026 3.59231 -2.25419 0
M  V30 9227 N 898.417 3.64386 -3.50795 0
M  V30 9228 C 896.715 3.89375 -2.17492 0
M  V30 9229 C 897.416 3.94974 -4.27048 0
M  V30 9230 N 896.392 4.10684 -3.56146 0
M  V30 9231 H 900.194 1.90099 -2.24142 0
M  V30 9232 H 897.708 0.971667 -1.30125 0
M  V30 9233 H 899.705 4.04207 -1.02091 0
M  V30 9234 H 898.365 3.2432 -0.157083 0
M  V30 9235 H 899.376 3.46682 -3.8475 0
M  V30 9236 H 896.053 3.96254 -1.31489 0
M  V30 9237 H 897.443 4.05768 -5.35539 0
M  V30 9238 N 900.163 1.21714 1.00117 0
M  V30 9239 C 901.574 1.03477 1.55401 0
M  V30 9240 C 901.925 -0.40429 1.91989 0
M  V30 9241 O 901.05 -1.28807 1.7389 0
M  V30 9242 C 901.645 1.87213 2.82377 0
M  V30 9243 C 900.204 1.73297 3.34133 0
M  V30 9244 C 899.351 1.84189 2.07291 0
M  V30 9245 H 902.302 1.3568 0.823195 0
M  V30 9246 H 902.323 1.38465 3.54412 0
M  V30 9247 H 901.835 2.91944 2.55715 0
M  V30 9248 H 899.936 0.712662 3.65721 0
M  V30 9249 H 900.049 2.55486 4.05294 0
M  V30 9250 H 898.413 1.27538 2.20468 0
M  V30 9251 H 899.196 2.90435 1.83037 0
M  V30 9252 N 901.641 -1.19671 1.02551 0
M  V30 9253 C 902.866 -1.93774 0.739363 0
M  V30 9254 C 903.291 -1.74787 -0.695064 0
M  V30 9255 O 902.649 -1.04796 -1.47944 0
M  V30 9256 C 902.697 -3.43684 1.09149 0
M  V30 9257 O 901.801 -4.11874 0.208213 0
M  V30 9258 H 901.142 -0.605064 0.273484 0
M  V30 9259 H 903.672 -1.51846 1.37128 0
M  V30 9260 H 903.682 -3.94339 1.04695 0
M  V30 9261 H 902.357 -3.56826 2.13654 0
M  V30 9262 H 900.934 -3.716 0.311045 0
M  V30 9263 N 903.119 -0.802921 -1.35613 0
M  V30 9264 C 904.359 -0.387163 -2.007 0
M  V30 9265 C 904.723 1.02546 -1.62322 0
M  V30 9266 O 905.924 1.54303 -2.201 0
M  V30 9267 C 904.195 -0.560813 -3.52973 0
M  V30 9268 S 905.754 -0.234935 -4.38171 0
M  V30 9269 H 902.572 -0.147218 -0.695592 0
M  V30 9270 H 905.174 -1.04437 -1.65267 0
M  V30 9271 H 903.878 -1.58897 -3.78391 0
M  V30 9272 H 903.409 0.111845 -3.93241 0
M  V30 9273 H 905.424 0.958715 -4.8685 0
M  V30 9274 N 904.597 1.47463 -0.556102 0
M  V30 9275 C 905.843 2.02775 -0.0316806 0
M  V30 9276 C 906.176 1.42967 1.3143 0
M  V30 9277 O 905.451 0.584847 1.85499 0
M  V30 9278 C 905.734 3.60046 0.0625742 0
M  V30 9279 C 905.587 4.30288 -1.31043 0
M  V30 9280 C 906.906 4.33195 0.776553 0
M  V30 9281 H 904.025 0.736886 -0.0129869 0
M  V30 9282 H 906.667 1.75904 -0.718177 0
M  V30 9283 H 904.817 3.83071 0.647231 0
M  V30 9284 H 906.489 4.18607 -1.9382 0
M  V30 9285 H 904.732 3.90685 -1.8854 0
M  V30 9286 H 905.403 5.38861 -1.1972 0
M  V30 9287 H 907.879 4.15156 0.280147 0
M  V30 9288 H 906.755 5.42869 0.81146 0
M  V30 9289 H 907.016 4.02336 1.83244 0
M  V30 9290 N 906.075 0.2925 1.54862 0
M  V30 9291 C 907.303 -0.322113 2.04377 0
M  V30 9292 C 907.718 -1.48164 1.17016 0
M  V30 9293 O 907.075 -1.81466 0.19395 0
M  V30 9294 C 907.126 -0.786506 3.5284 0
M  V30 9295 O 906.847 0.326863 4.36879 0
M  V30 9296 C 908.348 -1.46715 4.18318 0
M  V30 9297 H 905.568 -0.0712074 0.667211 0
M  V30 9298 H 908.112 0.429657 1.99935 0
M  V30 9299 H 906.267 -1.48832 3.5767 0
M  V30 9300 H 906.681 -0.0331558 5.2449 0
M  V30 9301 H 908.155 -1.74333 5.23748 0
M  V30 9302 H 908.632 -2.40443 3.67538 0
M  V30 9303 H 909.238 -0.808735 4.1754 0
M  V30 9304 N 907.553 -1.57587 0.0200696 0
M  V30 9305 C 908.969 -1.56018 -0.336237 0
M  V30 9306 C 909.169 -1.02478 -1.73495 0
M  V30 9307 O 908.225 -0.667487 -2.43518 0
M  V30 9308 C 909.538 -3.00079 -0.193112 0
M  V30 9309 C 911.086 -3.11863 -0.266557 0
M  V30 9310 C 911.561 -4.57747 -0.152326 0
M  V30 9311 N 913.052 -4.62726 -0.209596 0
M  V30 9312 C 913.787 -5.73217 -0.144855 0
M  V30 9313 N 913.283 -6.92794 -0.0295487 0
M  V30 9314 N 915.076 -5.61751 -0.198184 0
M  V30 9315 H 907.227 -1.90722 0.93482 0
M  V30 9316 H 909.49 -0.876909 0.360186 0
M  V30 9317 H 909.196 -3.43167 0.770036 0
M  V30 9318 H 909.07 -3.64593 -0.967029 0
M  V30 9319 H 911.457 -2.68693 -1.22016 0
M  V30 9320 H 911.538 -2.50087 0.53758 0
M  V30 9321 H 911.182 -5.01595 0.797817 0
M  V30 9322 H 911.112 -5.17491 -0.97521 0
M  V30 9323 H 913.603 -3.76713 -0.299229 0
M  V30 9324 H 913.916 -7.72799 0.0134071 0
M  V30 9325 H 912.261 -6.95 0.00510737 0
M  V30 9326 H 915.452 -4.67222 -0.286603 0
M  V30 9327 H 915.625 -6.47839 -0.144266 0
M  V30 9328 N 909.032 0.252966 -1.55557 0
M  V30 9329 C 909.964 1.33585 -1.86246 0
M  V30 9330 C 910.977 1.44584 -0.748291 0
M  V30 9331 O 912.166 1.46042 -1.02635 0
M  V30 9332 C 909.266 2.71509 -2.02821 0
M  V30 9333 C 908.439 2.82853 -3.33636 0
M  V30 9334 C 907.498 4.01581 -3.40028 0
M  V30 9335 O 906.524 3.91394 -4.13278 0
M  V30 9336 N 907.726 5.14474 -2.6888 0
M  V30 9337 H 910.491 1.07596 -2.7972 0
M  V30 9338 H 908.052 0.443075 -1.55719 0
M  V30 9339 H 910.044 3.49262 -2.04445 0
M  V30 9340 H 908.614 2.90232 -1.1612 0
M  V30 9341 H 907.834 1.91823 -3.4438 0
M  V30 9342 H 909.122 2.87378 -4.19871 0
M  V30 9343 H 908.52 5.25641 -2.09087 0
M  V30 9344 H 907.077 5.90385 -2.76204 0
M  V30 9345 N 910.51 1.48831 0.518367 0
M  V30 9346 C 911.457 1.64216 1.62178 0
M  V30 9347 C 912.427 0.483942 1.58894 0
M  V30 9348 O 913.612 0.708857 1.77144 0
M  V30 9349 C 910.752 1.69867 3.00399 0
M  V30 9350 C 909.865 2.96875 3.1383 0
M  V30 9351 C 909 2.93613 4.42679 0
M  V30 9352 C 908.039 4.15276 4.4968 0
M  V30 9353 N 907.176 4.10024 5.69934 0
M  V30 9354 H 912.016 2.58439 1.48368 0
M  V30 9355 H 909.553 1.28154 0.722152 0
M  V30 9356 H 911.511 1.71124 3.8049 0
M  V30 9357 H 910.141 0.791249 3.12952 0
M  V30 9358 H 909.193 3.0531 2.26914 0
M  V30 9359 H 910.505 3.86863 3.14863 0
M  V30 9360 H 909.659 2.93337 5.31073 0
M  V30 9361 H 908.398 2.01375 4.44184 0
M  V30 9362 H 907.403 4.15816 3.59691 0
M  V30 9363 H 908.628 5.08687 4.49904 0
M  V30 9364 H 906.574 3.20613 5.72314 0
M  V30 9365 H 906.491 4.93728 5.72511 0
M  V30 9366 H 907.759 4.13824 6.60583 0
M  V30 9367 N 911.988 -0.768124 1.37614 0
M  V30 9368 C 913.234 -1.52907 1.33219 0
M  V30 9369 C 913.567 -1.94026 -0.0821218 0
M  V30 9370 O 912.842 -1.64345 -1.04023 0
M  V30 9371 C 913.125 -2.79164 2.27463 0
M  V30 9372 C 912.978 -2.44276 3.7769 0
M  V30 9373 C 914.297 -3.81115 2.20089 0
M  V30 9374 H 911.416 -0.554712 0.485246 0
M  V30 9375 H 914.058 -0.880911 1.68345 0
M  V30 9376 H 912.208 -3.34472 1.97639 0
M  V30 9377 H 913.88 -1.94855 4.18126 0
M  V30 9378 H 912.123 -1.76925 3.96081 0
M  V30 9379 H 912.794 -3.34544 4.39072 0
M  V30 9380 H 915.27 -3.35311 2.46386 0
M  V30 9381 H 914.146 -4.67174 2.88166 0
M  V30 9382 H 914.407 -4.25644 1.19498 0
M  V30 9383 N 913.466 -1.22244 -0.994698 0
M  V30 9384 C 914.715 -1.04005 -1.72817 0
M  V30 9385 C 915.028 0.425413 -1.90918 0
M  V30 9386 O 916.234 0.727429 -2.61574 0
M  V30 9387 C 914.69 -1.81244 -3.10932 0
M  V30 9388 C 914.298 -3.32028 -3.00768 0
M  V30 9389 C 916.042 -1.71448 -3.88337 0
M  V30 9390 C 913.949 -4.01716 -4.34026 0
M  V30 9391 H 912.879 -0.385559 -0.647966 0
M  V30 9392 H 915.53 -1.46077 -1.11058 0
M  V30 9393 H 913.912 -1.3197 -3.73363 0
M  V30 9394 H 915.086 -3.88682 -2.47513 0
M  V30 9395 H 913.401 -3.4248 -2.36846 0
M  V30 9396 H 915.998 -2.20836 -4.86965 0
M  V30 9397 H 916.341 -0.674568 -4.10798 0
M  V30 9398 H 916.874 -2.18256 -3.3258 0
M  V30 9399 H 913.613 -5.05952 -4.16765 0
M  V30 9400 H 913.133 -3.49849 -4.87202 0
M  V30 9401 H 914.812 -4.0721 -5.02782 0
M  V30 9402 N 914.944 1.19125 -1.03184 0
M  V30 9403 C 916.192 1.8851 -0.728587 0
M  V30 9404 C 916.513 1.80195 0.74531 0
M  V30 9405 O 915.783 1.21437 1.5372 0
M  V30 9406 H 914.363 0.69784 -0.266511 0
M  V30 9407 H 917.025 1.44607 -1.3067 0
M  V30 9408 H 916.121 2.9477 -1.02554 0
M  V30 9409 N 916.422 0.810101 1.35185 0
M  V30 9410 C 917.385 0.22852 2.28058 0
M  V30 9411 C 918.385 -0.586168 1.49735 0
M  V30 9412 O 919.575 -0.40414 1.69447 0
M  V30 9413 C 916.707 -0.681041 3.34028 0
M  V30 9414 H 917.9 1.04768 2.81005 0
M  V30 9415 H 915.453 0.58101 1.451 0
M  V30 9416 H 916.188 -1.52375 2.86273 0
M  V30 9417 H 915.973 -0.0985276 3.91976 0
M  V30 9418 H 917.463 -1.08217 4.03335 0
M  V30 9419 N 917.9 -1.47166 0.563914 0
M  V30 9420 C 919.148 -2.02056 0.0422873 0
M  V30 9421 C 919.469 -1.43992 -1.31497 0
M  V30 9422 O 918.739 -0.617578 -1.85911 0
M  V30 9423 H 917.319 -0.746893 0.0126427 0
M  V30 9424 H 919.981 -1.80492 0.735441 0
M  V30 9425 H 919.077 -3.12073 -0.0408044 0
M  V30 9426 N 919.378 -0.300708 -1.54705 0
M  V30 9427 C 920.288 0.584996 -2.27189 0
M  V30 9428 C 921.304 1.14866 -1.30697 0
M  V30 9429 O 922.48 1.17351 -1.63679 0
M  V30 9430 C 919.545 1.74076 -2.99831 0
M  V30 9431 C 918.606 1.2112 -4.1186 0
M  V30 9432 C 917.839 2.31188 -4.81028 0
M  V30 9433 O 918.062 3.5108 -4.49554 0
M  V30 9434 O 916.996 1.97897 -5.68437 0
M  V30 9435 H 920.822 -0.00298177 -3.037 0
M  V30 9436 H 918.407 -0.0671802 -1.49249 0
M  V30 9437 H 920.289 2.41413 -3.45395 0
M  V30 9438 H 918.964 2.31535 -2.26215 0
M  V30 9439 H 917.871 0.50357 -3.70695 0
M  V30 9440 H 919.204 0.682046 -4.87452 0
M  V30 9441 N 920.856 1.57574 -0.0284266 0
M  V30 9442 C 922.103 1.91772 0.650364 0
M  V30 9443 C 922.431 0.904769 1.72175 0
M  V30 9444 O 921.686 -0.0864038 1.95509 0
M  V30 9445 C 921.985 3.32699 1.3056 0
M  V30 9446 C 921.651 4.49423 0.364658 0
M  V30 9447 C 920.313 4.81084 0.105672 0
M  V30 9448 C 922.665 5.20439 -0.28151 0
M  V30 9449 C 919.993 5.81119 -0.8073 0
M  V30 9450 C 922.345 6.21449 -1.18253 0
M  V30 9451 C 921.009 6.51551 -1.45042 0
M  V30 9452 H 920.279 0.701744 0.237985 0
M  V30 9453 H 922.926 1.91288 -0.0900448 0
M  V30 9454 H 921.231 3.29441 2.12075 0
M  V30 9455 H 922.928 3.5643 1.83736 0
M  V30 9456 H 919.518 4.24703 0.576692 0
M  V30 9457 H 923.702 4.9621 -0.0944806 0
M  V30 9458 H 918.958 6.02788 -1.02256 0
M  V30 9459 H 923.132 6.75597 -1.68942 0
M  V30 9460 H 920.759 7.28882 -2.15951 0
M  V30 9461 N 922.334 -0.244713 1.55689 0
M  V30 9462 C 923.582 -0.970525 1.77272 0
M  V30 9463 C 923.903 -1.85771 0.592804 0
M  V30 9464 O 923.173 -1.91952 -0.391323 0
M  V30 9465 H 921.753 -0.361342 0.653789 0
M  V30 9466 H 924.415 -0.262134 1.93129 0
M  V30 9467 H 923.511 -1.59096 2.68505 0
M  V30 9468 N 923.813 -1.49104 -0.510467 0
M  V30 9469 C 924.723 -1.67792 -1.6396 0
M  V30 9470 C 925.739 -0.560454 -1.64727 0
M  V30 9471 O 926.915 -0.833985 -1.83321 0
M  V30 9472 C 923.98 -1.73154 -3.00364 0
M  V30 9473 C 923.041 -2.9667 -3.10299 0
M  V30 9474 C 922.274 -3.01767 -4.40196 0
M  V30 9475 O 922.497 -2.1472 -5.28443 0
M  V30 9476 O 921.431 -3.94137 -4.54906 0
M  V30 9477 H 925.257 -2.63428 -1.51126 0
M  V30 9478 H 922.842 -1.32734 -0.685719 0
M  V30 9479 H 924.724 -1.79089 -3.81451 0
M  V30 9480 H 923.399 -0.806952 -3.1348 0
M  V30 9481 H 922.306 -2.96257 -2.28435 0
M  V30 9482 H 923.639 -3.88578 -3.02106 0
M  V30 9483 N 925.291 0.760815 -1.38019 0
M  V30 9484 C 926.537 1.52198 -1.34028 0
M  V30 9485 C 926.87 1.94067 0.0718309 0
M  V30 9486 O 926.145 1.64895 1.0315 0
M  V30 9487 C 926.428 2.77954 -2.2894 0
M  V30 9488 C 926.281 2.42269 -3.7898 0
M  V30 9489 C 927.6 3.79943 -2.22107 0
M  V30 9490 H 924.719 0.552131 -0.488181 0
M  V30 9491 H 927.361 0.871971 -1.6881 0
M  V30 9492 H 925.511 3.33419 -1.9941 0
M  V30 9493 H 927.183 1.92635 -4.19153 0
M  V30 9494 H 925.426 1.74822 -3.97014 0
M  V30 9495 H 926.097 3.32211 -4.4084 0
M  V30 9496 H 928.573 3.34 -2.4816 0
M  V30 9497 H 927.449 4.6564 -2.90639 0
M  V30 9498 H 927.71 4.25004 -1.21753 0
M  V30 9499 N 926.769 1.22769 0.988202 0
M  V30 9500 C 927.999 1.07998 1.76125 0
M  V30 9501 C 928.407 -0.372062 1.85506 0
M  V30 9502 O 927.75 -1.26946 1.3278 0
M  V30 9503 C 927.812 1.6219 3.20834 0
M  V30 9504 C 927.476 3.1086 3.34986 0
M  V30 9505 C 928.473 4.08239 3.21927 0
M  V30 9506 C 926.158 3.50411 3.59886 0
M  V30 9507 C 928.152 5.43154 3.33561 0
M  V30 9508 C 925.839 4.85473 3.71159 0
M  V30 9509 C 926.837 5.81653 3.58006 0
M  V30 9510 O 926.525 7.14263 3.68895 0
M  V30 9511 H 926.257 0.378937 0.559806 0
M  V30 9512 H 928.811 1.62925 1.25078 0
M  V30 9513 H 927.041 1.01676 3.73094 0
M  V30 9514 H 928.73 1.43011 3.79872 0
M  V30 9515 H 929.496 3.79025 3.02597 0
M  V30 9516 H 925.375 2.76068 3.69198 0
M  V30 9517 H 928.919 6.18207 3.23211 0
M  V30 9518 H 924.816 5.14365 3.89998 0
M  V30 9519 H 925.584 7.21906 3.85739 0
M  V30 9520 N 928.247 -1.18576 1.03814 0
M  V30 9521 C 929.194 -2.2212 0.626988 0
M  V30 9522 C 930.164 -1.62064 -0.363912 0
M  V30 9523 O 931.349 -1.89041 -0.258469 0
M  V30 9524 C 928.489 -3.45099 -0.00650133 0
M  V30 9525 C 927.602 -4.19503 1.03156 0
M  V30 9526 C 926.737 -5.29932 0.366852 0
M  V30 9527 C 925.776 -5.96104 1.39018 0
M  V30 9528 N 924.913 -6.98076 0.750625 0
M  V30 9529 H 929.753 -2.56646 1.51449 0
M  V30 9530 H 927.29 -1.26084 0.757702 0
M  V30 9531 H 929.248 -4.15363 -0.391108 0
M  V30 9532 H 927.878 -3.11201 -0.857536 0
M  V30 9533 H 926.93 -3.48092 1.53414 0
M  V30 9534 H 928.242 -4.64843 1.80893 0
M  V30 9535 H 927.396 -6.06657 -0.0720979 0
M  V30 9536 H 926.135 -4.85687 -0.442631 0
M  V30 9537 H 925.14 -5.18122 1.8393 0
M  V30 9538 H 926.365 -6.42432 2.20132 0
M  V30 9539 H 924.311 -6.55989 -0.0385981 0
M  V30 9540 H 924.228 -7.41655 1.46574 0
M  V30 9541 H 925.496 -7.78776 0.335986 0
M  V30 9542 N 929.725 -0.817259 -1.34754 0
M  V30 9543 C 930.973 -0.401852 -1.98065 0
M  V30 9544 C 931.294 1.03718 -1.65129 0
M  V30 9545 O 930.564 1.71921 -0.939141 0
M  V30 9546 H 929.144 -0.145603 -0.732672 0
M  V30 9547 H 931.806 -1.04545 -1.64488 0
M  V30 9548 H 930.902 -0.516241 -3.07801 0
M  V30 9549 N 931.203 1.46865 -0.571711 0
M  V30 9550 C 932.136 2.27176 0.215944 0
M  V30 9551 C 933.114 1.34951 0.907035 0
M  V30 9552 O 934.298 1.64349 0.923127 0
M  V30 9553 C 931.425 3.12388 1.30888 0
M  V30 9554 C 930.471 4.20296 0.724804 0
M  V30 9555 S 931.304 5.33691 -0.439839 0
M  V30 9556 C 932.46 6.22468 0.654564 0
M  V30 9557 H 932.693 2.93633 -0.465518 0
M  V30 9558 H 930.226 1.50184 -0.358351 0
M  V30 9559 H 932.184 3.62049 1.93471 0
M  V30 9560 H 930.845 2.45265 1.96224 0
M  V30 9561 H 930.038 4.79703 1.54599 0
M  V30 9562 H 929.64 3.73591 0.174861 0
M  V30 9563 H 931.932 6.59694 1.54304 0
M  V30 9564 H 932.875 7.08033 0.0975111 0
M  V30 9565 H 933.283 5.56384 0.953762 0
M  V30 9566 N 932.681 0.308908 1.54543 0
M  V30 9567 C 933.611 -0.556657 2.26768 0
M  V30 9568 C 934.592 -1.13145 1.27013 0
M  V30 9569 O 935.777 -1.15931 1.558 0
M  V30 9570 C 932.907 -1.72481 3.01443 0
M  V30 9571 C 931.861 -1.28001 4.08411 0
M  V30 9572 C 931.187 -2.53395 4.70845 0
M  V30 9573 C 932.487 -0.405497 5.20724 0
M  V30 9574 H 934.181 0.0457618 2.99365 0
M  V30 9575 H 931.727 0.0234495 1.43981 0
M  V30 9576 H 933.68 -2.3365 3.50693 0
M  V30 9577 H 932.404 -2.35359 2.26437 0
M  V30 9578 H 931.063 -0.69133 3.60022 0
M  V30 9579 H 930.711 -3.14604 3.92471 0
M  V30 9580 H 930.411 -2.2433 5.43093 0
M  V30 9581 H 931.935 -3.15352 5.22863 0
M  V30 9582 H 933.349 -0.923076 5.6582 0
M  V30 9583 H 931.746 -0.208282 5.99738 0
M  V30 9584 H 932.816 0.567412 4.81569 0
M  V30 9585 N 934.159 -1.57557 0.0367827 0
M  V30 9586 C 935.106 -2.10679 -0.942499 0
M  V30 9587 C 936.076 -1.01068 -1.31812 0
M  V30 9588 O 937.261 -1.28533 -1.41011 0
M  V30 9589 C 934.401 -2.64467 -2.21701 0
M  V30 9590 C 933.514 -3.88114 -1.89715 0
M  V30 9591 C 932.649 -4.30268 -3.11518 0
M  V30 9592 C 931.688 -5.46652 -2.75387 0
M  V30 9593 N 930.825 -5.83927 -3.89838 0
M  V30 9594 H 935.665 -2.94066 -0.482588 0
M  V30 9595 H 933.202 -1.45344 -0.226597 0
M  V30 9596 H 935.16 -2.93745 -2.96259 0
M  V30 9597 H 933.79 -1.83898 -2.65295 0
M  V30 9598 H 932.842 -3.65516 -1.05366 0
M  V30 9599 H 934.154 -4.72743 -1.5911 0
M  V30 9600 H 933.308 -4.61023 -3.94389 0
M  V30 9601 H 932.047 -3.44421 -3.4529 0
M  V30 9602 H 931.052 -5.15583 -1.90929 0
M  V30 9603 H 932.277 -6.34204 -2.42822 0
M  V30 9604 H 930.223 -5.01035 -4.23438 0
M  V30 9605 H 930.14 -6.63214 -3.62883 0
M  V30 9606 H 931.408 -6.19291 -4.73391 0
M  V30 9607 N 935.637 0.236453 -1.55816 0
M  V30 9608 C 936.865 0.980295 -1.82203 0
M  V30 9609 C 937.28 1.7854 -0.613926 0
M  V30 9610 O 936.637 1.77661 0.417491 0
M  V30 9611 C 936.688 1.90982 -3.06933 0
M  V30 9612 O 936.409 1.13728 -4.23081 0
M  V30 9613 C 937.91 2.76879 -3.46198 0
M  V30 9614 H 935.13 0.28799 -0.606055 0
M  V30 9615 H 937.674 0.256182 -2.02889 0
M  V30 9616 H 935.829 2.58808 -2.88266 0
M  V30 9617 H 936.243 1.76694 -4.93842 0
M  V30 9618 H 937.717 3.37831 -4.36548 0
M  V30 9619 H 938.194 3.48522 -2.67262 0
M  V30 9620 H 938.8 2.1449 -3.67252 0
M  V30 9621 N 937.115 1.49373 0.502552 0
M  V30 9622 C 938.34 1.62752 1.28556 0
M  V30 9623 C 938.765 0.298285 1.8572 0
M  V30 9624 O 938.123 -0.733885 1.65782 0
M  V30 9625 C 938.171 2.69778 2.39274 0
M  V30 9626 O 937.275 2.28843 3.43081 0
M  V30 9627 H 936.616 0.544799 0.379592 0
M  V30 9628 H 939.146 1.9555 0.601792 0
M  V30 9629 H 939.156 2.91899 2.8506 0
M  V30 9630 H 937.831 3.66266 1.97033 0
M  V30 9631 H 936.408 2.17047 3.03224 0
M  V30 9632 N 938.594 -0.753485 1.38421 0
M  V30 9633 C 939.819 -1.54783 1.38047 0
M  V30 9634 C 940.244 -1.8808 -0.0276371 0
M  V30 9635 O 939.602 -1.5058 -1.00973 0
M  V30 9636 C 939.65 -2.82353 2.24297 0
M  V30 9637 O 938.754 -3.77509 1.66014 0
M  V30 9638 H 938.095 -0.468151 0.470883 0
M  V30 9639 H 940.625 -0.931144 1.82184 0
M  V30 9640 H 940.635 -3.31277 2.38159 0
M  V30 9641 H 939.31 -2.57449 3.26639 0
M  V30 9642 H 937.887 -3.36212 1.61294 0
M  V30 9643 N 940.072 -1.23292 -0.981677 0
M  V30 9644 C 941.32 -1.06214 -1.71939 0
M  V30 9645 C 941.641 0.401989 -1.90812 0
M  V30 9646 O 940.911 1.28825 -1.47584 0
M  V30 9647 H 939.491 -0.390042 -0.637084 0
M  V30 9648 H 942.153 -1.54988 -1.18173 0
M  V30 9649 H 941.249 -1.54904 -2.70945 0
M  V30 9650 N 941.55 1.18024 -1.04442 0
M  V30 9651 C 942.497 2.21785 -0.638759 0
M  V30 9652 C 943.467 1.62255 0.355312 0
M  V30 9653 O 944.652 1.89176 0.24844 0
M  V30 9654 C 941.792 3.45098 -0.0118002 0
M  V30 9655 C 940.905 4.1895 -1.05379 0
M  V30 9656 C 940.04 5.2973 -0.394951 0
M  V30 9657 C 939.079 5.95359 -1.42178 0
M  V30 9658 N 938.216 6.97668 -0.787635 0
M  V30 9659 H 943.056 2.55839 -1.52808 0
M  V30 9660 H 940.593 1.25681 -0.764378 0
M  V30 9661 H 942.551 4.15564 0.369075 0
M  V30 9662 H 941.181 3.11652 0.84102 0
M  V30 9663 H 940.233 3.47274 -1.55258 0
M  V30 9664 H 941.545 4.63877 -1.83355 0
M  V30 9665 H 940.699 6.06687 0.0399244 0
M  V30 9666 H 939.438 4.85915 0.416867 0
M  V30 9667 H 938.443 5.17139 -1.86675 0
M  V30 9668 H 939.668 6.41255 -2.23536 0
M  V30 9669 H 937.614 6.56 0.00380893 0
M  V30 9670 H 937.531 7.40867 -1.50505 0
M  V30 9671 H 938.799 7.78586 -0.377282 0
M  V30 9672 N 943.028 0.824394 1.34319 0
M  V30 9673 C 943.975 0.245282 2.29493 0
M  V30 9674 C 944.945 -0.630762 1.53657 0
M  V30 9675 O 946.13 -0.572094 1.82021 0
M  V30 9676 C 943.27 -0.585631 3.40095 0
M  V30 9677 C 942.383 0.312821 4.30866 0
M  V30 9678 C 941.518 -0.527801 5.28571 0
M  V30 9679 C 940.557 0.369946 6.10981 0
M  V30 9680 N 939.694 -0.43169 7.00772 0
M  V30 9681 H 944.534 1.06225 2.78425 0
M  V30 9682 H 942.071 0.53533 1.37013 0
M  V30 9683 H 944.029 -1.08271 4.02906 0
M  V30 9684 H 942.659 -1.3677 2.92393 0
M  V30 9685 H 941.711 0.928129 3.68904 0
M  V30 9686 H 943.023 1.00306 4.8861 0
M  V30 9687 H 942.177 -1.0893 5.96841 0
M  V30 9688 H 940.916 -1.25154 4.71368 0
M  V30 9689 H 939.921 0.943577 5.41643 0
M  V30 9690 H 941.146 1.09182 6.70266 0
M  V30 9691 H 939.092 -1.13908 6.46035 0
M  V30 9692 H 939.009 0.200133 7.55735 0
M  V30 9693 H 940.277 -0.975894 7.73367 0
M  V30 9694 N 944.506 -1.46559 0.579492 0
M  V30 9695 C 945.416 -2.34066 -0.15816 0
M  V30 9696 C 946.432 -1.49556 -0.88932 0
M  V30 9697 O 947.608 -1.82434 -0.853226 0
M  V30 9698 C 944.673 -3.26683 -1.161 0
M  V30 9699 C 943.734 -4.27092 -0.434855 0
M  V30 9700 C 942.967 -5.15283 -1.38992 0
M  V30 9701 O 943.19 -5.06345 -2.62623 0
M  V30 9702 O 942.124 -5.95099 -0.902253 0
M  V30 9703 H 945.95 -2.98488 0.560234 0
M  V30 9704 H 943.535 -1.45482 0.339918 0
M  V30 9705 H 945.417 -3.8383 -1.73932 0
M  V30 9706 H 944.092 -2.64862 -1.86091 0
M  V30 9707 H 942.999 -3.73641 0.185224 0
M  V30 9708 H 944.332 -4.9169 0.224031 0
M  V30 9709 N 945.984 -0.3171 -1.54377 0
M  V30 9710 C 947.23 0.287836 -2.00747 0
M  V30 9711 C 947.563 1.52292 -1.20502 0
M  V30 9712 O 946.838 1.92391 -0.285626 0
M  V30 9713 C 947.121 0.628423 -3.54574 0
M  V30 9714 C 946.974 -0.616922 -4.45549 0
M  V30 9715 C 948.293 1.44862 -4.15575 0
M  V30 9716 H 945.412 0.103144 -0.729747 0
M  V30 9717 H 948.054 -0.432396 -1.85014 0
M  V30 9718 H 946.204 1.24203 -3.68111 0
M  V30 9719 H 947.876 -1.25526 -4.43893 0
M  V30 9720 H 946.119 -1.24706 -4.15489 0
M  V30 9721 H 946.79 -0.334243 -5.50987 0
M  V30 9722 H 949.266 0.930015 -4.05574 0
M  V30 9723 H 948.142 1.6557 -5.23333 0
M  V30 9724 H 948.403 2.44279 -3.68484 0
M  V30 9725 N 947.462 1.57535 -0.0451378 0
M  V30 9726 C 948.873 1.80116 0.491426 0
M  V30 9727 C 949.224 0.956846 1.71286 0
M  V30 9728 O 948.349 0.17173 2.15718 0
M  V30 9729 C 948.944 3.26674 0.898315 0
M  V30 9730 C 947.503 3.50194 1.37989 0
M  V30 9731 C 946.65 2.75054 0.352202 0
M  V30 9732 H 949.601 1.56368 -0.271065 0
M  V30 9733 H 949.622 3.37263 1.76164 0
M  V30 9734 H 949.134 3.88099 0.009141 0
M  V30 9735 H 947.235 2.94041 2.28846 0
M  V30 9736 H 947.348 4.58909 1.37622 0
M  V30 9737 H 945.712 2.4101 0.823784 0
M  V30 9738 H 946.495 3.39203 -0.528782 0
M  V30 9739 N 948.94 -0.228186 1.55939 0
M  V30 9740 C 950.186 -0.954964 1.78909 0
M  V30 9741 C 950.519 -1.8425 0.613648 0
M  V30 9742 O 949.794 -1.90604 -0.38737 0
M  V30 9743 C 950.077 -1.79957 3.1191 0
M  V30 9744 C 949.93 -0.938968 4.3989 0
M  V30 9745 C 951.249 -2.77859 3.41295 0
M  V30 9746 H 948.368 -0.345745 0.650868 0
M  V30 9747 H 951.01 -0.224244 1.88672 0
M  V30 9748 H 949.16 -2.42256 3.03717 0
M  V30 9749 H 950.832 -0.333225 4.60095 0
M  V30 9750 H 949.075 -0.244096 4.33113 0
M  V30 9751 H 949.746 -1.56416 5.29375 0
M  V30 9752 H 952.222 -2.25695 3.49572 0
M  V30 9753 H 951.098 -3.34062 4.35538 0
M  V30 9754 H 951.359 -3.55266 2.63132 0
M  V30 9755 N 950.418 -1.49637 -0.494624 0
M  V30 9756 C 951.381 -1.66252 -1.57775 0
M  V30 9757 C 952.381 -0.534054 -1.51672 0
M  V30 9758 O 953.571 -0.800637 -1.54711 0
M  V30 9759 C 950.703 -1.66584 -2.97426 0
M  V30 9760 H 951.896 -2.62864 -1.4437 0
M  V30 9761 H 949.449 -1.38764 -0.719323 0
M  V30 9762 H 950.184 -0.715798 -3.16302 0
M  V30 9763 H 949.969 -2.48543 -3.03264 0
M  V30 9764 H 951.459 -1.81474 -3.76108 0
M  V30 9765 N 951.896 0.746133 -1.38819 0
M  V30 9766 C 953.145 1.50085 -1.34749 0
M  V30 9767 C 953.458 1.95516 0.0574786 0
M  V30 9768 O 954.664 2.70601 0.22073 0
M  V30 9769 C 953.12 2.71141 -2.36665 0
M  V30 9770 C 952.728 2.32706 -3.82821 0
M  V30 9771 C 954.472 3.49005 -2.41652 0
M  V30 9772 C 952.379 3.50418 -4.76405 0
M  V30 9773 H 951.309 0.563563 -0.500912 0
M  V30 9774 H 953.96 0.814951 -1.6441 0
M  V30 9775 H 952.342 3.4175 -2.00058 0
M  V30 9776 H 953.516 1.69715 -4.28408 0
M  V30 9777 H 951.831 1.67959 -3.81023 0
M  V30 9778 H 954.428 4.36541 -3.08766 0
M  V30 9779 H 954.771 3.90687 -1.43769 0
M  V30 9780 H 955.304 2.85416 -2.77097 0
M  V30 9781 H 952.043 3.13795 -5.75511 0
M  V30 9782 H 951.563 4.12426 -4.35505 0
M  V30 9783 H 953.242 4.16901 -4.94775 0
M  V30 9784 N 953.375 1.23811 0.975125 0
M  V30 9785 C 954.322 1.02394 2.06843 0
M  V30 9786 C 955.292 -0.060337 1.6599 0
M  V30 9787 O 956.477 0.0928187 1.90574 0
M  V30 9788 C 953.617 0.626882 3.39359 0
M  V30 9789 C 952.73 1.78385 3.9345 0
M  V30 9790 C 951.865 1.33307 5.14201 0
M  V30 9791 C 950.904 2.46045 5.60471 0
M  V30 9792 N 950.041 2.01888 6.72448 0
M  V30 9793 H 954.881 1.95973 2.24496 0
M  V30 9794 H 952.418 0.976206 1.10039 0
M  V30 9795 H 954.376 0.377742 4.15486 0
M  V30 9796 H 953.006 -0.271907 3.21653 0
M  V30 9797 H 952.058 2.14685 3.14029 0
M  V30 9798 H 953.37 2.63122 4.23755 0
M  V30 9799 H 952.524 1.04237 5.97678 0
M  V30 9800 H 951.263 0.456143 4.85562 0
M  V30 9801 H 950.268 2.75884 4.75571 0
M  V30 9802 H 951.493 3.34283 5.91127 0
M  V30 9803 H 949.439 1.16583 6.45558 0
M  V30 9804 H 949.356 2.80182 7.02164 0
M  V30 9805 H 950.624 1.75937 7.59386 0
M  V30 9806 N 954.853 -1.17469 1.05066 0
M  V30 9807 C 956.081 -1.9162 0.780334 0
M  V30 9808 C 956.496 -1.76745 -0.663817 0
M  V30 9809 O 955.853 -1.10377 -1.45338 0
M  V30 9810 C 955.904 -3.42723 1.14992 0
M  V30 9811 O 955.625 -3.57139 2.53739 0
M  V30 9812 C 957.126 -4.33952 0.905549 0
M  V30 9813 H 954.346 -0.608022 0.283814 0
M  V30 9814 H 956.89 -1.4897 1.401 0
M  V30 9815 H 955.045 -3.83124 0.57403 0
M  V30 9816 H 955.459 -4.5075 2.68189 0
M  V30 9817 H 956.933 -5.38487 1.21391 0
M  V30 9818 H 957.41 -4.38911 -0.159295 0
M  V30 9819 H 958.016 -3.99263 1.46522 0
M  V30 9820 N 956.331 -0.831506 -1.3388 0
M  V30 9821 C 957.261 -0.274378 -2.31882 0
M  V30 9822 C 958.242 0.613872 -1.58637 0
M  V30 9823 O 959.427 0.538961 -1.86571 0
M  V30 9824 C 956.557 0.557498 -3.42796 0
M  V30 9825 C 955.511 -0.234337 -4.27358 0
M  V30 9826 C 954.837 0.720825 -5.29819 0
M  V30 9827 C 956.137 -1.44732 -5.01847 0
M  V30 9828 H 957.831 -1.09322 -2.78728 0
M  V30 9829 H 955.377 -0.527136 -1.34005 0
M  V30 9830 H 957.33 0.957501 -4.10378 0
M  V30 9831 H 956.054 1.40947 -2.94621 0
M  V30 9832 H 954.713 -0.61581 -3.61391 0
M  V30 9833 H 954.361 1.569 -4.77903 0
M  V30 9834 H 954.061 0.195171 -5.87276 0
M  V30 9835 H 955.585 1.1185 -6.00268 0
M  V30 9836 H 956.999 -1.12087 -5.62236 0
M  V30 9837 H 955.396 -1.90923 -5.68919 0
M  V30 9838 H 956.466 -2.22099 -4.31045 0
M  V30 9839 N 957.809 1.4625 -0.587256 0
M  V30 9840 C 958.756 2.30354 0.143384 0
M  V30 9841 C 959.726 1.40891 0.879716 0
M  V30 9842 O 960.911 1.69837 0.869486 0
M  V30 9843 C 958.051 3.25441 1.14815 0
M  V30 9844 C 957.164 4.30004 0.414792 0
M  V30 9845 C 956.299 5.12214 1.40748 0
M  V30 9846 C 955.338 6.08523 0.660786 0
M  V30 9847 N 954.475 6.83585 1.60176 0
M  V30 9848 H 959.315 2.92304 -0.579866 0
M  V30 9849 H 956.852 1.44055 -0.29777 0
M  V30 9850 H 958.81 3.79018 1.7436 0
M  V30 9851 H 957.44 2.6529 1.83906 0
M  V30 9852 H 956.492 3.79248 -0.295787 0
M  V30 9853 H 957.804 4.98515 -0.168738 0
M  V30 9854 H 956.958 5.70091 2.0756 0
M  V30 9855 H 955.697 4.43675 2.02494 0
M  V30 9856 H 954.702 5.49796 -0.0210864 0
M  V30 9857 H 955.927 6.79083 0.0486551 0
M  V30 9858 H 953.873 6.17752 2.20724 0
M  V30 9859 H 953.79 7.48373 1.07115 0
M  V30 9860 H 955.058 7.46016 2.26009 0
M  V30 9861 N 959.287 0.325282 1.54207 0
M  V30 9862 C 960.25 -0.527228 2.23054 0
M  V30 9863 C 961.25 -1.04217 1.22456 0
M  V30 9864 O 962.44 -0.934325 1.47024 0
M  V30 9865 C 959.572 -1.7325 2.93594 0
M  V30 9866 H 960.765 0.0746423 2.99807 0
M  V30 9867 H 958.318 0.0763872 1.56113 0
M  V30 9868 H 959.053 -2.37356 2.20981 0
M  V30 9869 H 958.838 -1.37065 3.67363 0
M  V30 9870 H 960.328 -2.3376 3.46043 0
M  V30 9871 N 960.765 -1.57509 0.0534917 0
M  V30 9872 C 962.013 -1.92402 -0.618548 0
M  V30 9873 C 962.334 -0.93273 -1.71246 0
M  V30 9874 O 961.604 0.0220495 -1.95888 0
M  V30 9875 H 960.184 -0.710233 -0.23147 0
M  V30 9876 H 962.846 -1.94606 0.10704 0
M  V30 9877 H 961.942 -2.93704 -1.05566 0
M  V30 9878 N 962.243 0.219913 -1.56058 0
M  V30 9879 C 963.473 0.959521 -1.82967 0
M  V30 9880 C 963.881 1.78382 -0.630602 0
M  V30 9881 O 963.224 1.79062 0.410203 0
M  V30 9882 C 963.286 1.92481 -3.0363 0
M  V30 9883 C 962.95 1.28487 -4.38566 0
M  V30 9884 C 963.947 0.673946 -5.15513 0
M  V30 9885 C 961.632 1.29615 -4.85289 0
M  V30 9886 C 963.626 0.0828324 -6.37346 0
M  V30 9887 C 961.313 0.701191 -6.07064 0
M  V30 9888 C 962.311 0.0955877 -6.82933 0
M  V30 9889 O 961.999 -0.490109 -8.02405 0
M  V30 9890 H 961.731 0.286709 -0.612188 0
M  V30 9891 H 964.285 0.239761 -2.03996 0
M  V30 9892 H 962.515 2.6836 -2.78424 0
M  V30 9893 H 964.204 2.5301 -3.17397 0
M  V30 9894 H 964.97 0.657548 -4.80522 0
M  V30 9895 H 960.849 1.75691 -4.26208 0
M  V30 9896 H 964.393 -0.390482 -6.96506 0
M  V30 9897 H 960.29 0.715007 -6.41528 0
M  V30 9898 H 961.058 -0.384588 -8.17596 0
M  V30 9899 N 963.721 1.49897 0.486681 0
M  V30 9900 C 964.949 1.63837 1.26353 0
M  V30 9901 C 965.364 0.315428 1.86146 0
M  V30 9902 O 964.721 -0.700831 1.68507 0
M  V30 9903 C 964.772 2.71792 2.38351 0
M  V30 9904 O 964.493 3.98956 1.81013 0
M  V30 9905 C 965.994 2.96566 3.2949 0
M  V30 9906 H 963.214 0.551158 0.382709 0
M  V30 9907 H 965.758 1.96023 0.582694 0
M  V30 9908 H 963.913 2.42344 3.02238 0
M  V30 9909 H 964.327 4.58536 2.54647 0
M  V30 9910 H 965.801 3.75803 4.04322 0
M  V30 9911 H 966.278 2.07031 3.87343 0
M  V30 9912 H 966.884 3.27485 2.71355 0
M  V30 9913 N 965.199 -0.738761 1.39212 0
M  V30 9914 C 966.109 -1.88324 1.39897 0
M  V30 9915 C 967.125 -1.71494 0.294229 0
M  V30 9916 O 968.301 -1.94162 0.535087 0
M  V30 9917 C 965.366 -3.23871 1.23726 0
M  V30 9918 C 964.427 -3.53121 2.44139 0
M  V30 9919 C 963.66 -4.82202 2.2873 0
M  V30 9920 O 963.883 -5.55649 1.28879 0
M  V30 9921 O 962.817 -5.11265 3.17634 0
M  V30 9922 H 966.643 -1.90701 2.36362 0
M  V30 9923 H 964.228 -0.886067 1.20288 0
M  V30 9924 H 966.11 -4.04882 1.16826 0
M  V30 9925 H 964.785 -3.22274 0.303551 0
M  V30 9926 H 963.692 -2.72212 2.56615 0
M  V30 9927 H 965.025 -3.59495 3.36191 0
M  V30 9928 N 966.677 -1.24326 -0.968545 0
M  V30 9929 C 967.624 -1.0349 -2.06297 0
M  V30 9930 C 968.594 0.0515333 -1.6602 0
M  V30 9931 O 969.779 -0.102924 -1.90522 0
M  V30 9932 C 966.919 -0.64487 -3.39021 0
M  V30 9933 C 966.032 -1.80469 -3.92498 0
M  V30 9934 C 965.167 -1.36032 -5.13487 0
M  V30 9935 C 964.206 -2.49014 -5.59159 0
M  V30 9936 N 963.343 -2.05451 -6.71367 0
M  V30 9937 H 968.183 -1.97161 -2.23454 0
M  V30 9938 H 965.72 -0.982028 -1.0952 0
M  V30 9939 H 967.678 -0.399771 -4.1528 0
M  V30 9940 H 966.308 0.254845 -3.21792 0
M  V30 9941 H 965.36 -2.16348 -3.12886 0
M  V30 9942 H 966.672 -2.65365 -4.22354 0
M  V30 9943 H 965.826 -1.07405 -5.97117 0
M  V30 9944 H 964.565 -0.481887 -4.85313 0
M  V30 9945 H 963.57 -2.78402 -4.74102 0
M  V30 9946 H 964.795 -3.37413 -5.89346 0
M  V30 9947 H 962.741 -1.20004 -6.4493 0
M  V30 9948 H 962.658 -2.83901 -7.00668 0
M  V30 9949 H 963.926 -1.79962 -7.58442 0
M  V30 9950 N 968.156 1.1691 -1.05688 0
M  V30 9951 C 969.088 2.20648 -0.620237 0
M  V30 9952 C 970.101 1.59652 0.318604 0
M  V30 9953 O 971.29 1.78157 0.110553 0
M  V30 9954 C 968.39 3.38716 0.111729 0
M  V30 9955 C 967.563 4.29277 -0.839062 0
M  V30 9956 C 966.622 5.25993 -0.147453 0
M  V30 9957 O 965.648 5.63787 -0.783151 0
M  V30 9958 N 966.85 5.69725 1.11327 0
M  V30 9959 H 969.615 2.58731 -1.51256 0
M  V30 9960 H 967.176 1.31858 -0.939412 0
M  V30 9961 H 969.168 4.00455 0.584657 0
M  V30 9962 H 967.738 2.99189 0.905784 0
M  V30 9963 H 966.958 3.64894 -1.4915 0
M  V30 9964 H 968.246 4.86669 -1.48428 0
M  V30 9965 H 967.644 5.41103 1.64999 0
M  V30 9966 H 966.201 6.33584 1.53018 0
M  V30 9967 N 969.634 0.838594 1.33437 0
M  V30 9968 C 971.05 0.526347 1.50671 0
M  V30 9969 C 971.25 -0.946387 1.77893 0
M  V30 9970 O 970.306 -1.7302 1.83903 0
M  V30 9971 C 971.619 1.39945 2.6615 0
M  V30 9972 C 973.167 1.3982 2.80035 0
M  V30 9973 C 973.642 2.25614 3.98576 0
M  V30 9974 N 975.133 2.23322 4.0581 0
M  V30 9975 C 975.868 2.86443 4.96727 0
M  V30 9976 N 975.364 3.58616 5.92762 0
M  V30 9977 N 977.157 2.75915 4.89722 0
M  V30 9978 H 969.308 1.79195 1.1403 0
M  V30 9979 H 971.571 0.764491 0.560586 0
M  V30 9980 H 971.277 2.44599 2.52714 0
M  V30 9981 H 971.151 1.07529 3.61548 0
M  V30 9982 H 973.538 0.35937 2.92904 0
M  V30 9983 H 973.619 1.76241 1.85399 0
M  V30 9984 H 973.263 3.29555 3.86466 0
M  V30 9985 H 973.193 1.86533 4.92456 0
M  V30 9986 H 975.684 1.70836 3.37081 0
M  V30 9987 H 975.997 4.03987 6.58798 0
M  V30 9988 H 974.342 3.62724 5.92838 0
M  V30 9989 H 977.533 2.19094 4.13661 0
M  V30 9990 H 977.706 3.25393 5.60378 0
M  V30 9991 N 971.112 -1.45937 0.595003 0
M  V30 9992 C 972.358 -2.0262 0.0854317 0
M  V30 9993 C 972.691 -1.46402 -1.27594 0
M  V30 9994 O 971.966 -0.633823 -1.83883 0
M  V30 9995 C 972.249 -3.60085 0.0329075 0
M  V30 9996 C 972.102 -4.26663 1.42405 0
M  V30 9997 C 973.421 -4.35101 -0.661426 0
M  V30 9998 H 970.54 -0.736282 0.0325196 0
M  V30 9999 H 973.182 -1.73938 0.764563 0
M  V30 10000 H 971.332 -3.84652 -0.545439 0
M  V30 10001 H 973.004 -4.13321 2.04851 0
M  V30 10002 H 971.247 -3.85549 1.98833 0
M  V30 10003 H 971.918 -5.35497 1.33965 0
M  V30 10004 H 974.394 -4.15753 -0.169977 0
M  V30 10005 H 973.27 -5.44829 -0.667243 0
M  V30 10006 H 973.531 -4.07053 -1.72513 0
M  V30 10007 N 972.59 -0.333456 -1.54032 0
M  V30 10008 C 973.867 0.320902 -1.9295 0
M  V30 10009 C 974.247 1.69071 -1.26405 0
M  V30 10010 O 973.595 2.24768 -0.411311 0
M  V30 10011 C 973.805 0.403257 -3.46662 0
M  V30 10012 C 975.153 0.658875 -4.19457 0
M  V30 10013 O 976.177 0.485781 -3.52872 0
M  V30 10014 O 975.036 0.993475 -5.37394 0
M  V30 10015 H 972.13 0.185158 -0.806006 0
M  V30 10016 H 974.676 -0.383895 -1.65301 0
M  V30 10017 H 973.448 -0.558409 -3.87295 0
M  V30 10018 H 973.071 1.15524 -3.80447 0
M  V30 10019 N 974.068 1.57479 -0.061844 0
M  V30 10020 C 975.315 1.93108 0.60954 0
M  V30 10021 C 975.643 0.941086 1.70217 0
M  V30 10022 O 974.898 -0.044914 1.95648 0
M  V30 10023 C 975.197 3.35394 1.23474 0
M  V30 10024 C 974.863 4.50095 0.269247 0
M  V30 10025 C 973.525 4.812 0.00360316 0
M  V30 10026 C 975.877 5.19725 -0.391839 0
M  V30 10027 C 973.205 5.79276 -0.930383 0
M  V30 10028 C 975.557 6.18801 -1.31408 0
M  V30 10029 C 974.221 6.48328 -1.58829 0
M  V30 10030 H 973.491 0.706634 0.223046 0
M  V30 10031 H 976.138 1.91054 -0.1306 0
M  V30 10032 H 974.443 3.33866 2.05039 0
M  V30 10033 H 976.14 3.60247 1.76134 0
M  V30 10034 H 972.73 4.2583 0.486477 0
M  V30 10035 H 976.914 4.95898 -0.199713 0
M  V30 10036 H 972.17 6.00484 -1.15019 0
M  V30 10037 H 976.344 6.71862 -1.83234 0
M  V30 10038 H 973.971 7.24137 -2.31363 0
M  V30 10039 N 975.546 -0.211634 1.56173 0
M  V30 10040 C 976.476 -1.26533 1.96244 0
M  V30 10041 C 977.457 -1.48362 0.832028 0
M  V30 10042 O 978.642 -1.60378 1.0951 0
M  V30 10043 C 975.772 -2.61307 2.2877 0
M  V30 10044 C 974.726 -2.54119 3.44395 0
M  V30 10045 C 974.052 -3.93014 3.62552 0
M  V30 10046 C 975.352 -2.08046 4.79076 0
M  V30 10047 H 977.046 -0.932407 2.84511 0
M  V30 10048 H 974.592 -0.447084 1.36884 0
M  V30 10049 H 976.545 -3.35188 2.55396 0
M  V30 10050 H 975.269 -2.96307 1.37367 0
M  V30 10051 H 973.928 -1.82694 3.17834 0
M  V30 10052 H 973.576 -4.25338 2.68508 0
M  V30 10053 H 973.276 -3.89083 4.40327 0
M  V30 10054 H 974.8 -4.68542 3.91537 0
M  V30 10055 H 976.214 -2.71676 5.04842 0
M  V30 10056 H 974.611 -2.15154 5.60204 0
M  V30 10057 H 975.681 -1.03306 4.73768 0
M  V30 10058 N 977.024 -1.50153 -0.478725 0
M  V30 10059 C 978.272 -1.60443 -1.22892 0
M  V30 10060 C 978.593 -0.303276 -1.92627 0
M  V30 10061 O 977.863 0.678798 -1.83764 0
M  V30 10062 H 976.443 -0.591205 -0.456602 0
M  V30 10063 H 979.105 -1.86893 -0.552905 0
M  V30 10064 H 978.201 -2.41175 -1.98094 0
M  V30 10065 N 978.502 0.731368 -1.39602 0
M  V30 10066 C 979.412 1.87579 -1.40894 0
M  V30 10067 C 980.428 1.71336 -0.303319 0
M  V30 10068 O 981.604 1.93875 -0.545377 0
M  V30 10069 C 978.669 3.23211 -1.25442 0
M  V30 10070 C 977.73 3.51822 -2.46008 0
M  V30 10071 C 976.963 4.80982 -2.31284 0
M  V30 10072 O 977.186 5.54958 -1.31824 0
M  V30 10073 O 976.12 5.09574 -3.20341 0
M  V30 10074 H 979.946 1.89444 -2.3737 0
M  V30 10075 H 977.531 0.879675 -1.20756 0
M  V30 10076 H 979.413 4.04257 -1.18972 0
M  V30 10077 H 978.088 3.22108 -0.320637 0
M  V30 10078 H 976.995 2.70847 -2.58055 0
M  V30 10079 H 978.328 3.57707 -3.38093 0
M  V30 10080 N 979.98 1.24838 0.961938 0
M  V30 10081 C 980.943 1.04674 2.03902 0
M  V30 10082 C 981.943 0.00204674 1.608 0
M  V30 10083 O 983.133 0.243555 1.72489 0
M  V30 10084 C 980.265 0.587736 3.35795 0
M  V30 10085 H 981.458 2.00278 2.23223 0
M  V30 10086 H 979.011 1.07142 1.138 0
M  V30 10087 H 979.746 -0.371244 3.22168 0
M  V30 10088 H 979.531 1.34182 3.68426 0
M  V30 10089 H 981.021 0.467867 4.14971 0
M  V30 10090 N 981.458 -1.16348 1.06306 0
M  V30 10091 C 982.706 -1.86512 0.778311 0
M  V30 10092 C 983.027 -1.82107 -0.697273 0
M  V30 10093 O 982.297 -1.2547 -1.50446 0
M  V30 10094 H 980.877 -0.690529 0.284919 0
M  V30 10095 H 983.539 -1.41092 1.34458 0
M  V30 10096 H 982.635 -2.91947 1.10333 0
M  V30 10097 N 982.937 -0.845659 -1.3299 0
M  V30 10098 C 984.186 -0.440928 -1.96822 0
M  V30 10099 C 984.499 1.00668 -1.67706 0
M  V30 10100 O 985.705 1.51641 -2.25205 0
M  V30 10101 C 984.161 -0.73752 -3.52262 0
M  V30 10102 C 983.769 -2.20026 -3.90247 0
M  V30 10103 C 985.513 -0.400072 -4.22611 0
M  V30 10104 C 983.42 -2.44054 -5.38694 0
M  V30 10105 H 982.35 -0.161148 -0.736578 0
M  V30 10106 H 985.001 -1.03519 -1.51513 0
M  V30 10107 H 983.383 -0.0728025 -3.95933 0
M  V30 10108 H 984.557 -2.90602 -3.57613 0
M  V30 10109 H 982.872 -2.50135 -3.32899 0
M  V30 10110 H 985.469 -0.557136 -5.3179 0
M  V30 10111 H 985.812 0.657547 -4.11074 0
M  V30 10112 H 986.345 -1.0203 -3.84493 0
M  V30 10113 H 983.084 -3.48407 -5.55241 0
M  V30 10114 H 982.604 -1.78047 -5.72765 0
M  V30 10115 H 984.283 -2.27549 -6.05665 0
M  V30 10116 N 984.415 1.45619 -0.602734 0
M  V30 10117 C 985.348 2.27583 0.167708 0
M  V30 10118 C 986.326 1.36844 0.878206 0
M  V30 10119 O 987.51 1.6627 0.888058 0
M  V30 10120 C 984.637 3.15094 1.24232 0
M  V30 10121 C 983.683 4.21739 0.63549 0
M  V30 10122 S 984.516 5.32638 -0.552944 0
M  V30 10123 C 985.672 6.23716 0.522382 0
M  V30 10124 H 985.905 2.92579 -0.527697 0
M  V30 10125 H 983.438 1.4939 -0.390127 0
M  V30 10126 H 985.396 3.66071 1.85748 0
M  V30 10127 H 984.057 2.49372 1.90978 0
M  V30 10128 H 983.25 4.82874 1.44389 0
M  V30 10129 H 982.852 3.73878 0.0955772 0
M  V30 10130 H 985.144 6.62819 1.40276 0
M  V30 10131 H 986.087 7.0808 -0.0526951 0
M  V30 10132 H 986.495 5.58282 0.83553 0
M  V30 10133 N 985.893 0.34162 1.53853 0
M  V30 10134 C 987.141 -0.254979 2.00485 0
M  V30 10135 C 987.462 -1.51222 1.23114 0
M  V30 10136 O 986.732 -1.92966 0.337787 0
M  V30 10137 H 985.312 -0.0972084 0.740648 0
M  V30 10138 H 987.974 0.462332 1.89337 0
M  V30 10139 H 987.07 -0.498778 3.08089 0
M  V30 10140 N 987.371 -1.57444 0.0701946 0
M  V30 10141 C 988.303 -2.09611 -0.927142 0
M  V30 10142 C 989.316 -1.02791 -1.26245 0
M  V30 10143 O 990.505 -1.30309 -1.21992 0
M  V30 10144 C 987.605 -2.54015 -2.24342 0
M  V30 10145 C 986.778 -3.84389 -2.08719 0
M  V30 10146 C 985.837 -4.14904 -3.23638 0
M  V30 10147 O 984.863 -4.84528 -2.98699 0
M  V30 10148 N 986.065 -3.68322 -4.48686 0
M  V30 10149 H 988.83 -2.95803 -0.481753 0
M  V30 10150 H 986.391 -1.61487 -0.115572 0
M  V30 10151 H 988.383 -2.71492 -3.00124 0
M  V30 10152 H 986.953 -1.72969 -2.60385 0
M  V30 10153 H 986.173 -3.76308 -1.17415 0
M  V30 10154 H 987.461 -4.69729 -1.9553 0
M  V30 10155 H 986.859 -3.12073 -4.71834 0
M  V30 10156 H 985.416 -3.91002 -5.21499 0
M  V30 10157 N 988.849 0.203349 -1.56283 0
M  V30 10158 C 990.096 0.92501 -1.80138 0
M  V30 10159 C 990.424 1.83598 -0.64204 0
M  V30 10160 O 989.679 1.92119 0.372658 0
M  V30 10161 C 989.978 1.78016 -3.09912 0
M  V30 10162 C 989.644 1.02088 -4.39191 0
M  V30 10163 C 988.306 0.811208 -4.74313 0
M  V30 10164 C 990.658 0.486037 -5.18929 0
M  V30 10165 C 987.986 0.0550856 -5.86674 0
M  V30 10166 C 990.338 -0.256833 -6.32078 0
M  V30 10167 C 989.002 -0.477594 -6.65789 0
M  V30 10168 H 988.272 0.338485 -0.659173 0
M  V30 10169 H 990.919 0.191923 -1.90536 0
M  V30 10170 H 989.224 2.58167 -2.94715 0
M  V30 10171 H 990.921 2.341 -3.25574 0
M  V30 10172 H 987.511 1.1943 -4.11624 0
M  V30 10173 H 991.695 0.635446 -4.92215 0
M  V30 10174 H 986.951 -0.126006 -6.1127 0
M  V30 10175 H 991.125 -0.678683 -6.93085 0
M  V30 10176 H 988.752 -1.0654 -7.52697 0
M  V30 10177 N 990.327 1.50405 0.470755 0
M  V30 10178 C 991.552 1.65442 1.25075 0
M  V30 10179 C 991.977 0.337612 1.85045 0
M  V30 10180 O 991.335 -0.698555 1.67302 0
M  V30 10181 C 991.383 2.74793 2.33498 0
M  V30 10182 O 990.487 2.36069 3.3815 0
M  V30 10183 H 989.828 0.552728 0.367951 0
M  V30 10184 H 992.358 1.96782 0.560177 0
M  V30 10185 H 992.368 2.97879 2.78804 0
M  V30 10186 H 991.043 3.70363 1.8922 0
M  V30 10187 H 989.62 2.2343 2.98552 0
M  V30 10188 N 991.805 -0.723954 1.39988 0
M  V30 10189 C 992.755 -1.82943 1.36073 0
M  V30 10190 C 993.739 -1.59105 0.239682 0
M  V30 10191 O 994.931 -1.7042 0.478116 0
M  V30 10192 C 992.06 -3.20988 1.21745 0
M  V30 10193 C 991.146 -3.50618 2.38596 0
M  V30 10194 N 991.537 -3.51115 3.64077 0
M  V30 10195 C 989.835 -3.81035 2.31794 0
M  V30 10196 C 990.536 -3.78852 4.41413 0
M  V30 10197 N 989.512 -3.97182 3.71143 0
M  V30 10198 H 993.314 -1.81649 2.31043 0
M  V30 10199 H 990.828 -0.922703 1.33641 0
M  V30 10200 H 992.825 -4.00139 1.17022 0
M  V30 10201 H 991.485 -3.23513 0.277344 0
M  V30 10202 H 992.496 -3.32163 3.97351 0
M  V30 10203 H 989.173 -3.911 1.46105 0
M  V30 10204 H 990.563 -3.85612 5.5023 0
M  V30 10205 N 993.283 -1.25346 -0.955304 0
M  V30 10206 C 994.233 -1.02358 -2.03732 0
M  V30 10207 C 995.217 0.0392941 -1.60852 0
M  V30 10208 O 996.409 -0.175959 -1.76123 0
M  V30 10209 C 993.538 -0.643552 -3.37214 0
M  V30 10210 C 992.624 -1.74315 -3.8662 0
M  V30 10211 N 993.015 -2.97816 -4.08827 0
M  V30 10212 C 991.313 -1.62351 -4.15401 0
M  V30 10213 C 992.014 -3.69185 -4.4953 0
M  V30 10214 N 990.99 -2.96803 -4.55422 0
M  V30 10215 H 994.792 -1.96119 -2.18894 0
M  V30 10216 H 992.306 -1.15655 -1.14007 0
M  V30 10217 H 994.303 -0.460053 -4.14354 0
M  V30 10218 H 992.963 0.286738 -3.23431 0
M  V30 10219 H 993.974 -3.33868 -3.95919 0
M  V30 10220 H 990.651 -0.762133 -4.10485 0
M  V30 10221 H 992.041 -4.7519 -4.7502 0
M  V30 10222 N 994.761 1.15782 -1.06922 0
M  V30 10223 C 995.709 2.22441 -0.679893 0
M  V30 10224 C 996.703 1.66591 0.307221 0
M  V30 10225 O 997.909 1.79182 0.171402 0
M  V30 10226 H 994.284 0.724427 -0.201765 0
M  V30 10227 H 996.255 2.52562 -1.58918 0
M  V30 10228 C 995.004 3.47586 -0.0891142 0
M  V30 10229 H 994.327 3.9088 -0.839805 0
M  V30 10230 H 995.767 4.2375 0.14569 0
M  V30 10231 C 994.226 3.15967 1.16903 0
M  V30 10232 O 994.756 3.32359 2.25611 0
M  V30 10233 N 992.962 2.70046 1.07349 0
M  V30 10234 H 992.509 2.56907 0.188825 0
M  V30 10235 H 992.467 2.49264 1.91611 0
M  V30 10236 N 996.239 0.8527 1.3254 0
M  V30 10237 C 997.488 0.45136 1.96585 0
M  V30 10238 C 997.801 -0.997773 1.68237 0
M  V30 10239 O 999.007 -1.50445 2.26006 0
M  V30 10240 C 997.463 0.75619 3.51866 0
M  V30 10241 C 997.071 2.22092 3.89075 0
M  V30 10242 C 998.815 0.422478 4.22392 0
M  V30 10243 C 996.722 2.46908 5.37392 0
M  V30 10244 H 995.652 0.165052 0.735713 0
M  V30 10245 H 998.303 1.04321 1.50962 0
M  V30 10246 H 996.685 0.0937988 3.95889 0
M  V30 10247 H 997.859 2.92494 3.56067 0
M  V30 10248 H 996.174 2.51896 3.31568 0
M  V30 10249 H 998.771 0.58533 5.31487 0
M  V30 10250 H 999.114 -0.635737 4.11417 0
M  V30 10251 H 999.647 1.04068 3.83946 0
M  V30 10252 H 996.386 3.51346 5.53386 0
M  V30 10253 H 995.906 1.81082 5.71812 0
M  V30 10254 H 997.585 2.30758 6.0445 0
M  V30 10255 N 997.718 -1.45297 0.610449 0
M  V30 10256 C 998.967 -2.0143 0.104323 0
M  V30 10257 C 999.28 -1.48431 -1.27388 0
M  V30 10258 O 1000.49 -1.96558 -1.87289 0
M  V30 10259 C 998.942 -3.59644 0.135812 0
M  V30 10260 C 998.55 -4.2164 1.51405 0
M  V30 10261 C 1000.29 -4.2333 -0.314922 0
M  V30 10262 C 998.201 -5.72015 1.50176 0
M  V30 10263 H 997.131 -0.753176 0.035233 0
M  V30 10264 H 999.782 -1.66738 0.7662 0
M  V30 10265 H 998.164 -3.91538 -0.592773 0
M  V30 10266 H 999.338 -4.01315 2.26457 0
M  V30 10267 H 997.653 -3.70159 1.90712 0
M  V30 10268 H 1000.25 -5.33597 -0.343335 0
M  V30 10269 H 1000.59 -3.94206 -1.33817 0
M  V30 10270 H 1001.13 -3.96163 0.360489 0
M  V30 10271 H 997.865 -6.05842 2.50271 0
M  V30 10272 H 997.385 -5.94523 0.793869 0
M  V30 10273 H 999.064 -6.35266 1.22665 0
M  V30 10274 N 999.196 -0.349774 -1.5367 0
M  V30 10275 C 1000.61 0.00191293 -1.596 0
M  V30 10276 C 1000.81 1.48175 -1.36552 0
M  V30 10277 O 999.868 2.24129 -1.16285 0
M  V30 10278 C 1001.18 -0.439848 -2.97466 0
M  V30 10279 C 1002.73 -0.392721 -3.10526 0
M  V30 10280 C 1003.2 -0.810047 -4.5078 0
M  V30 10281 N 1004.69 -0.764478 -4.56848 0
M  V30 10282 C 1005.43 -1.05927 -5.63531 0
M  V30 10283 N 1004.93 -1.42253 -6.78038 0
M  V30 10284 N 1006.72 -0.983098 -5.53436 0
M  V30 10285 H 998.87 -1.31364 -1.66905 0
M  V30 10286 H 1001.13 -0.535908 -0.781989 0
M  V30 10287 H 1000.84 -1.47189 -3.19419 0
M  V30 10288 H 1000.71 0.181735 -3.76762 0
M  V30 10289 H 1003.1 0.630161 -2.88293 0
M  V30 10290 H 1003.18 -1.04959 -2.33275 0
M  V30 10291 H 1002.82 -1.83097 -4.73749 0
M  V30 10292 H 1002.75 -0.130591 -5.26438 0
M  V30 10293 H 1005.25 -0.496637 -3.74622 0
M  V30 10294 H 1005.56 -1.63215 -7.55368 0
M  V30 10295 H 1003.9 -1.46104 -6.79469 0
M  V30 10296 H 1007.09 -0.698601 -4.62858 0
M  V30 10297 H 1007.27 -1.21618 -6.36485 0
M  V30 10298 N 1000.67 1.57404 -0.0785433 0
M  V30 10299 C 1001.6 2.16131 0.883726 0
M  V30 10300 C 1002.58 1.09015 1.30575 0
M  V30 10301 O 1003.77 1.3708 1.37559 0
M  V30 10302 C 1000.9 2.72836 2.1489 0
M  V30 10303 C 999.854 3.85178 1.86605 0
M  V30 10304 C 999.18 4.28516 3.1981 0
M  V30 10305 C 1000.48 5.09118 1.16601 0
M  V30 10306 H 1002.17 2.9679 0.394484 0
M  V30 10307 H 999.72 1.42763 0.188304 0
M  V30 10308 H 1001.67 3.12567 2.8263 0
M  V30 10309 H 1000.4 1.89408 2.66068 0
M  V30 10310 H 999.056 3.45962 1.21268 0
M  V30 10311 H 998.704 3.42 3.68843 0
M  V30 10312 H 998.404 5.04249 3.01674 0
M  V30 10313 H 999.928 4.70868 3.88737 0
M  V30 10314 H 1001.34 5.46123 1.74422 0
M  V30 10315 H 999.739 5.90173 1.087 0
M  V30 10316 H 1000.81 4.8468 0.146138 0
M  V30 10317 N 1002.15 -0.195058 1.56388 0
M  V30 10318 C 1003.06 -1.26219 1.97752 0
M  V30 10319 C 1004.08 -1.49801 0.885192 0
M  V30 10320 O 1005.25 -1.62415 1.19094 0
M  V30 10321 C 1002.32 -2.5865 2.3087 0
M  V30 10322 C 1001.38 -2.4314 3.5381 0
M  V30 10323 C 1000.61 -3.69255 3.85339 0
M  V30 10324 O 1000.84 -4.73425 3.18159 0
M  V30 10325 O 999.77 -3.64782 4.78767 0
M  V30 10326 H 1003.6 -0.941161 2.88749 0
M  V30 10327 H 1001.18 -0.40006 1.43944 0
M  V30 10328 H 1003.06 -3.36814 2.53247 0
M  V30 10329 H 1001.74 -2.9038 1.43042 0
M  V30 10330 H 1000.64 -1.63086 3.3668 0
M  V30 10331 H 1001.98 -2.16341 4.42105 0
M  V30 10332 N 1003.63 -1.50653 -0.462772 0
M  V30 10333 C 1004.88 -1.61737 -1.21184 0
M  V30 10334 C 1005.2 -0.32369 -1.92295 0
M  V30 10335 O 1004.47 0.659269 -1.84473 0
M  V30 10336 H 1003.05 -0.596015 -0.450306 0
M  V30 10337 H 1005.71 -1.87469 -0.533051 0
M  V30 10338 H 1004.81 -2.43262 -1.95525 0
M  V30 10339 N 1005.11 0.71652 -1.4037 0
M  V30 10340 C 1006.35 1.47857 -1.38803 0
M  V30 10341 C 1006.69 1.94197 0.0100536 0
M  V30 10342 O 1005.96 1.68093 0.978521 0
M  V30 10343 C 1006.25 2.7053 -2.37667 0
M  V30 10344 C 1006.1 2.3009 -3.86496 0
M  V30 10345 C 1007.42 3.72684 -2.34082 0
M  V30 10346 H 1004.54 0.53632 -0.505499 0
M  V30 10347 H 1007.18 0.817824 -1.71498 0
M  V30 10348 H 1005.33 3.26906 -2.09916 0
M  V30 10349 H 1007 1.79202 -4.2507 0
M  V30 10350 H 1005.24 1.62102 -4.02375 0
M  V30 10351 H 1005.91 3.18018 -4.51186 0
M  V30 10352 H 1008.39 3.25935 -2.58661 0
M  V30 10353 H 1007.27 4.56157 -3.05306 0
M  V30 10354 H 1007.53 4.20916 -1.35213 0
M  V30 10355 N 1006.59 1.25851 0.948643 0
M  V30 10356 C 1007.84 1.10347 1.68838 0
M  V30 10357 C 1008.15 -0.354262 1.92365 0
M  V30 10358 O 1009.35 -0.629847 2.64093 0
M  V30 10359 C 1007.81 1.92659 3.03991 0
M  V30 10360 C 1007.42 3.42962 2.88238 0
M  V30 10361 C 1009.16 1.85743 3.81707 0
M  V30 10362 C 1007.07 4.17547 4.18818 0
M  V30 10363 H 1006 0.409342 0.63321 0
M  V30 10364 H 1008.65 1.50098 1.05559 0
M  V30 10365 H 1007.03 1.45736 3.68208 0
M  V30 10366 H 1008.21 3.97601 2.32917 0
M  V30 10367 H 1006.52 3.51035 2.23972 0
M  V30 10368 H 1009.12 2.38758 4.78434 0
M  V30 10369 H 1009.46 0.826568 4.08012 0
M  V30 10370 H 1009.99 2.30449 3.2425 0
M  V30 10371 H 1006.73 5.21072 3.97699 0
M  V30 10372 H 1006.25 3.6769 4.73882 0
M  V30 10373 H 1007.93 4.25589 4.87322 0
M  V30 10374 N 1008.06 -1.15214 1.07534 0
M  V30 10375 C 1009.29 -1.90463 0.820883 0
M  V30 10376 C 1009.71 -1.77578 -0.620305 0
M  V30 10377 O 1009.07 -1.10976 -1.43366 0
M  V30 10378 C 1009.12 -3.38746 1.23627 0
M  V30 10379 O 1008.22 -4.1062 0.382715 0
M  V30 10380 H 1007.57 -0.59292 0.298901 0
M  V30 10381 H 1010.1 -1.45893 1.43445 0
M  V30 10382 H 1010.11 -3.89543 1.21327 0
M  V30 10383 H 1008.78 -3.47443 2.28596 0
M  V30 10384 H 1007.36 -3.69947 0.468374 0
M  V30 10385 N 1009.54 -0.859717 -1.32086 0
M  V30 10386 C 1010.49 -0.306042 -2.28762 0
M  V30 10387 C 1011.46 0.589801 -1.55276 0
M  V30 10388 O 1012.64 0.523633 -1.83474 0
M  V30 10389 C 1009.78 0.495256 -3.41528 0
M  V30 10390 C 1008.9 -0.426947 -4.29885 0
M  V30 10391 C 1008.03 0.387474 -5.29785 0
M  V30 10392 C 1007.07 -0.531807 -6.09785 0
M  V30 10393 N 1006.21 0.245741 -7.0167 0
M  V30 10394 H 1011.05 -1.1357 -2.7551 0
M  V30 10395 H 1008.59 -0.571468 -1.35546 0
M  V30 10396 H 1010.54 0.97551 -4.05635 0
M  V30 10397 H 1009.17 1.28969 -2.95917 0
M  V30 10398 H 1008.23 -1.02561 -3.66313 0
M  V30 10399 H 1009.54 -1.13226 -4.85779 0
M  V30 10400 H 1008.69 0.930677 -5.99519 0
M  V30 10401 H 1007.43 1.12612 -4.74521 0
M  V30 10402 H 1006.44 -1.08685 -5.3895 0
M  V30 10403 H 1007.66 -1.26915 -6.67135 0
M  V30 10404 H 1005.61 0.967391 -6.48828 0
M  V30 10405 H 1005.52 -0.400432 -7.54939 0
M  V30 10406 H 1006.79 0.770507 -7.75683 0
M  V30 10407 N 1011.02 1.44971 -0.618145 0
M  V30 10408 C 1012.25 2.06228 -0.123985 0
M  V30 10409 C 1012.66 1.46166 1.20134 0
M  V30 10410 O 1012 0.574099 1.74499 0
M  V30 10411 C 1012.06 3.59413 0.0789098 0
M  V30 10412 C 1011.73 4.41869 -1.16624 0
M  V30 10413 C 1012.72 4.76177 -2.0869 0
M  V30 10414 C 1010.41 4.82453 -1.39802 0
M  V30 10415 C 1012.4 5.49938 -3.22254 0
M  V30 10416 C 1010.09 5.55965 -2.53665 0
M  V30 10417 C 1011.09 5.89626 -3.44718 0
M  V30 10418 O 1010.78 6.61644 -4.56598 0
M  V30 10419 H 1010.51 0.672274 -0.0708822 0
M  V30 10420 H 1013.06 1.87038 -0.848868 0
M  V30 10421 H 1011.29 3.77043 0.8588 0
M  V30 10422 H 1012.98 4.02478 0.52599 0
M  V30 10423 H 1013.75 4.45372 -1.92012 0
M  V30 10424 H 1009.63 4.55681 -0.698245 0
M  V30 10425 H 1013.17 5.76129 -3.93347 0
M  V30 10426 H 1009.07 5.86185 -2.70291 0
M  V30 10427 H 1009.84 6.80103 -4.55414 0
M  V30 10428 N 1012.5 0.357919 1.53482 0
M  V30 10429 C 1013.45 -0.49217 2.25491 0
M  V30 10430 C 1014.42 -1.08382 1.25867 0
M  V30 10431 O 1015.6 -1.11775 1.54632 0
M  V30 10432 C 1012.74 -1.6299 3.04185 0
M  V30 10433 C 1011.85 -1.06416 4.18688 0
M  V30 10434 C 1010.99 -2.17037 4.84839 0
M  V30 10435 C 1010.03 -1.57889 5.91386 0
M  V30 10436 N 1009.16 -2.6231 6.51259 0
M  V30 10437 H 1014 0.128412 2.97723 0
M  V30 10438 H 1011.54 0.0751423 1.46908 0
M  V30 10439 H 1013.5 -2.29993 3.48079 0
M  V30 10440 H 1012.13 -2.22125 2.34223 0
M  V30 10441 H 1011.18 -0.284635 3.79334 0
M  V30 10442 H 1012.49 -0.591654 4.95279 0
M  V30 10443 H 1011.65 -2.91876 5.31877 0
M  V30 10444 H 1010.39 -2.67636 4.07703 0
M  V30 10445 H 1009.39 -0.815605 5.43717 0
M  V30 10446 H 1010.62 -1.08123 6.70437 0
M  V30 10447 H 1008.56 -3.12137 5.7698 0
M  V30 10448 H 1008.48 -2.19724 7.23365 0
M  V30 10449 H 1009.75 -3.36875 7.02948 0
M  V30 10450 N 1013.98 -1.5736 0.0868897 0
M  V30 10451 C 1015.39 -1.81356 -0.443499 0
M  V30 10452 C 1015.74 -1.00192 -1.68689 0
M  V30 10453 O 1014.86 -0.228863 -2.15186 0
M  V30 10454 C 1015.46 -3.28941 -0.811387 0
M  V30 10455 C 1014.02 -3.53729 -1.28656 0
M  V30 10456 C 1013.16 -2.75891 -0.279153 0
M  V30 10457 H 1016.12 -1.55594 0.312427 0
M  V30 10458 H 1016.14 -3.41815 -1.6716 0
M  V30 10459 H 1015.65 -3.87987 0.0937598 0
M  V30 10460 H 1013.75 -3.00005 -2.2097 0
M  V30 10461 H 1013.86 -4.62396 -1.25406 0
M  V30 10462 H 1012.23 -2.4311 -0.759595 0
M  V30 10463 H 1013.01 -3.37682 0.618529 0
M  V30 10464 N 1015.45 0.186762 -1.56489 0
M  V30 10465 C 1016.39 1.25971 -1.9028 0
M  V30 10466 C 1017.37 1.43543 -0.763822 0
M  V30 10467 O 1018.55 1.58799 -1.01564 0
M  V30 10468 C 1015.68 2.62507 -2.14028 0
M  V30 10469 C 1014.72 2.61758 -3.36727 0
M  V30 10470 S 1015.56 2.12366 -4.9159 0
M  V30 10471 C 1016.71 3.5071 -5.18414 0
M  V30 10472 H 1016.94 0.971203 -2.80989 0
M  V30 10473 H 1014.48 0.390636 -1.49377 0
M  V30 10474 H 1016.44 3.41098 -2.28391 0
M  V30 10475 H 1015.1 2.88564 -1.24054 0
M  V30 10476 H 1014.29 3.62173 -3.50495 0
M  V30 10477 H 1013.89 1.91254 -3.214 0
M  V30 10478 H 1016.18 4.46622 -5.09445 0
M  V30 10479 H 1017.13 3.41829 -6.20128 0
M  V30 10480 H 1017.53 3.46008 -4.46026 0
M  V30 10481 N 1016.93 1.50896 0.454776 0
M  V30 10482 C 1017.87 1.65608 1.57001 0
M  V30 10483 C 1018.84 0.50387 1.54596 0
M  V30 10484 O 1020.03 0.725485 1.7398 0
M  V30 10485 C 1017.15 1.65366 2.95587 0
M  V30 10486 C 1016.2 2.86344 3.16085 0
M  V30 10487 S 1017.03 4.47418 2.9424 0
M  V30 10488 C 1018.19 4.49895 4.35138 0
M  V30 10489 H 1018.42 2.59941 1.44285 0
M  V30 10490 H 1015.96 1.40362 0.643264 0
M  V30 10491 H 1017.91 1.65911 3.75478 0
M  V30 10492 H 1016.57 0.722407 3.0568 0
M  V30 10493 H 1015.77 2.82526 4.17367 0
M  V30 10494 H 1015.37 2.8345 2.43992 0
M  V30 10495 H 1017.66 4.24462 5.28051 0
M  V30 10496 H 1018.6 5.5161 4.43995 0
M  V30 10497 H 1019.01 3.79412 4.17979 0
M  V30 10498 N 1018.41 -0.709066 1.40748 0
M  V30 10499 C 1019.66 -1.4646 1.38681 0
M  V30 10500 C 1019.97 -1.95599 -0.0056209 0
M  V30 10501 O 1021.18 -2.71091 -0.148907 0
M  V30 10502 C 1019.63 -2.64771 2.43771 0
M  V30 10503 C 1019.24 -2.22474 3.88856 0
M  V30 10504 C 1020.99 -3.42475 2.50821 0
M  V30 10505 C 1018.89 -3.37663 4.85528 0
M  V30 10506 H 1017.82 -0.550084 0.515678 0
M  V30 10507 H 1020.47 -0.771074 1.66513 0
M  V30 10508 H 1018.86 -3.36325 2.09048 0
M  V30 10509 H 1020.03 -1.58297 4.32757 0
M  V30 10510 H 1018.35 -1.57798 3.85342 0
M  V30 10511 H 1020.94 -4.28201 3.20232 0
M  V30 10512 H 1021.29 -3.86738 1.54076 0
M  V30 10513 H 1021.82 -2.77969 2.84567 0
M  V30 10514 H 1018.56 -2.98426 5.83628 0
M  V30 10515 H 1018.08 -4.00734 4.46287 0
M  V30 10516 H 1019.76 -4.03636 5.05655 0
M  V30 10517 N 1019.89 -1.26353 -0.941956 0
M  V30 10518 C 1021.14 -1.11241 -1.68251 0
M  V30 10519 C 1021.45 0.344055 -1.9255 0
M  V30 10520 O 1022.66 0.615832 -2.64423 0
M  V30 10521 C 1021.11 -1.94269 -3.02965 0
M  V30 10522 C 1020.72 -3.44485 -2.86415 0
M  V30 10523 C 1022.47 -1.87764 -3.80716 0
M  V30 10524 C 1020.37 -4.19763 -4.16597 0
M  V30 10525 H 1019.3 -0.412694 -0.63103 0
M  V30 10526 H 1021.95 -1.50656 -1.04762 0
M  V30 10527 H 1020.34 -1.47687 -3.6743 0
M  V30 10528 H 1021.51 -3.9883 -2.30805 0
M  V30 10529 H 1019.82 -3.52218 -2.22107 0
M  V30 10530 H 1022.42 -2.41292 -4.77161 0
M  V30 10531 H 1022.76 -0.848195 -4.07568 0
M  V30 10532 H 1023.3 -2.32165 -3.23024 0
M  V30 10533 H 1020.04 -5.23173 -3.9493 0
M  V30 10534 H 1019.56 -3.70198 -4.71925 0
M  V30 10535 H 1021.24 -4.28168 -4.85058 0
M  V30 10536 N 1021.37 1.14642 -1.08144 0
M  V30 10537 C 1022.6 1.89484 -0.830864 0
M  V30 10538 C 1023.01 1.78443 0.616722 0
M  V30 10539 O 1022.37 1.14191 1.42361 0
M  V30 10540 C 1022.42 3.39554 -1.24039 0
M  V30 10541 O 1022.14 3.50286 -2.63119 0
M  V30 10542 C 1023.64 4.31399 -1.02029 0
M  V30 10543 H 1020.86 0.600283 -0.299835 0
M  V30 10544 H 1023.4 1.45204 -1.44001 0
M  V30 10545 H 1021.56 3.81467 -0.675407 0
M  V30 10546 H 1021.97 4.43481 -2.80045 0
M  V30 10547 H 1023.45 5.35079 -1.35625 0
M  V30 10548 H 1023.92 4.39179 0.0428697 0
M  V30 10549 H 1024.53 3.95238 -1.57057 0
M  V30 10550 N 1022.85 0.866709 1.31628 0
M  V30 10551 C 1023.76 0.323408 2.3236 0
M  V30 10552 C 1024.77 -0.564995 1.64572 0
M  V30 10553 O 1025.95 -0.462489 1.96018 0
M  V30 10554 C 1023.01 -0.469045 3.43513 0
M  V30 10555 C 1022.07 0.446928 4.26967 0
M  V30 10556 C 1021.31 -0.307799 5.32812 0
M  V30 10557 O 1021.53 -1.5363 5.49321 0
M  V30 10558 O 1020.46 0.332653 6.0098 0
M  V30 10559 H 1024.29 1.15827 2.80745 0
M  V30 10560 H 1021.87 0.629987 1.35468 0
M  V30 10561 H 1023.76 -0.918405 4.1127 0
M  V30 10562 H 1022.43 -1.28051 2.97296 0
M  V30 10563 H 1021.34 0.944719 3.61975 0
M  V30 10564 H 1022.67 1.2239 4.76741 0
M  V30 10565 N 1024.32 -1.44642 0.625825 0
M  V30 10566 C 1025.55 -2.06159 0.13492 0
M  V30 10567 C 1025.96 -1.46801 -1.19357 0
M  V30 10568 O 1025.3 -0.583345 -1.74192 0
M  V30 10569 C 1025.37 -3.5945 -0.0598481 0
M  V30 10570 C 1025.03 -4.41244 1.18965 0
M  V30 10571 C 1026.03 -4.75064 2.11212 0
M  V30 10572 C 1023.71 -4.81705 1.42359 0
M  V30 10573 C 1025.71 -5.48221 3.25165 0
M  V30 10574 C 1023.39 -5.54612 2.5661 0
M  V30 10575 C 1024.39 -5.87789 3.4784 0
M  V30 10576 O 1024.08 -6.59213 4.60101 0
M  V30 10577 H 1023.81 -0.671888 0.0744464 0
M  V30 10578 H 1026.37 -1.86586 0.858775 0
M  V30 10579 H 1024.6 -3.77493 -0.838792 0
M  V30 10580 H 1026.28 -4.02751 -0.504639 0
M  V30 10581 H 1027.05 -4.44348 1.94371 0
M  V30 10582 H 1022.93 -4.55305 0.722401 0
M  V30 10583 H 1026.47 -5.74035 3.96396 0
M  V30 10584 H 1022.37 -5.84743 2.73396 0
M  V30 10585 H 1023.14 -6.77678 4.59015 0
M  V30 10586 N 1025.8 -0.366053 -1.5329 0
M  V30 10587 C 1026.73 0.523781 -2.22108 0
M  V30 10588 C 1027.71 1.08262 -1.21318 0
M  V30 10589 O 1028.9 1.13866 -1.50222 0
M  V30 10590 C 1026.02 1.72273 -2.91616 0
M  V30 10591 C 1025.07 1.29129 -4.06482 0
M  V30 10592 S 1025.9 0.292195 -5.34702 0
M  V30 10593 C 1027.06 1.49746 -6.07723 0
M  V30 10594 H 1027.29 -0.0606687 -2.97238 0
M  V30 10595 H 1024.82 -0.15016 -1.53668 0
M  V30 10596 H 1026.78 2.41045 -3.32277 0
M  V30 10597 H 1025.44 2.27843 -2.16209 0
M  V30 10598 H 1024.64 2.18583 -4.54134 0
M  V30 10599 H 1024.24 0.682783 -3.67715 0
M  V30 10600 H 1026.53 2.4284 -6.32483 0
M  V30 10601 H 1027.47 1.06232 -7.00086 0
M  V30 10602 H 1027.88 1.70373 -5.38176 0
M  V30 10603 N 1027.28 1.57312 -0.0952337 0
M  V30 10604 C 1028.19 2.17556 0.877877 0
M  V30 10605 C 1029.21 1.14505 1.31014 0
M  V30 10606 O 1030.38 1.46876 1.37802 0
M  V30 10607 C 1027.45 2.74413 2.11892 0
M  V30 10608 C 1026.51 3.92419 1.74085 0
M  V30 10609 C 1025.74 4.46556 2.92273 0
M  V30 10610 O 1025.96 3.99631 4.07002 0
M  V30 10611 O 1024.9 5.37576 2.70732 0
M  V30 10612 H 1028.72 3.01116 0.395312 0
M  V30 10613 H 1026.31 1.48841 0.129123 0
M  V30 10614 H 1028.19 3.10754 2.84622 0
M  V30 10615 H 1026.87 1.93899 2.59201 0
M  V30 10616 H 1025.77 3.6089 0.985346 0
M  V30 10617 H 1027.11 4.74298 1.31539 0
M  V30 10618 N 1028.76 -0.17846 1.56586 0
M  V30 10619 C 1029.71 -1.24042 1.96765 0
M  V30 10620 C 1030.7 -1.46218 0.855375 0
M  V30 10621 O 1031.91 -1.46882 1.04046 0
M  V30 10622 H 1028.28 -0.416807 0.62592 0
M  V30 10623 H 1030.25 -0.874644 2.85294 0
M  V30 10624 C 1029 -2.57394 2.3376 0
M  V30 10625 H 1028.32 -2.41151 3.18883 0
M  V30 10626 H 1029.76 -3.30405 2.65723 0
M  V30 10627 C 1028.22 -3.15621 1.17835 0
M  V30 10628 O 1028.75 -3.99032 0.462202 0
M  V30 10629 N 1026.96 -2.74606 0.950783 0
M  V30 10630 H 1026.51 -2.06878 1.5349 0
M  V30 10631 H 1026.46 -3.13902 0.176967 0
M  V30 10632 N 1030.24 -1.51135 -0.446768 0
M  V30 10633 C 1031.48 -1.63013 -1.19461 0
M  V30 10634 C 1031.8 -0.344067 -1.91941 0
M  V30 10635 O 1031.07 0.639666 -1.85162 0
M  V30 10636 H 1029.65 -0.600757 -0.443959 0
M  V30 10637 H 1032.32 -1.88024 -0.513137 0
M  V30 10638 H 1031.41 -2.45322 -1.92933 0
M  V30 10639 N 1031.71 0.701592 -1.41122 0
M  V30 10640 C 1032.68 1.79733 -1.42227 0
M  V30 10641 C 1033.68 1.57708 -0.313831 0
M  V30 10642 O 1034.87 1.64492 -0.573423 0
M  V30 10643 C 1032 3.18024 -1.22775 0
M  V30 10644 H 1033.19 1.80148 -2.39764 0
M  V30 10645 H 1030.74 0.908624 -1.27176 0
M  V30 10646 H 1031.48 3.23252 -0.260552 0
M  V30 10647 H 1031.26 3.35411 -2.0308 0
M  V30 10648 H 1032.75 3.98021 -1.2637 0
M  V30 10649 N 1033.19 1.2685 0.935242 0
M  V30 10650 C 1034.12 1.1143 2.05196 0
M  V30 10651 C 1035.1 0.0178362 1.70091 0
M  V30 10652 O 1036.29 0.190951 1.93259 0
M  V30 10653 C 1033.42 0.752779 3.39044 0
M  V30 10654 C 1032.37 1.80164 3.88233 0
M  V30 10655 C 1031.7 1.29428 5.18799 0
M  V30 10656 C 1033 3.20431 4.12457 0
M  V30 10657 H 1034.69 2.04845 2.18355 0
M  V30 10658 H 1032.24 0.986276 1.04922 0
M  V30 10659 H 1034.19 0.631757 4.16637 0
M  V30 10660 H 1032.91 -0.217075 3.25878 0
M  V30 10661 H 1031.57 1.91144 3.12825 0
M  V30 10662 H 1031.22 0.3141 5.02018 0
M  V30 10663 H 1030.92 1.99546 5.5268 0
M  V30 10664 H 1032.45 1.18605 5.9897 0
M  V30 10665 H 1033.86 3.12495 4.80645 0
M  V30 10666 H 1032.26 3.88193 4.57631 0
M  V30 10667 H 1033.33 3.66046 3.18023 0
M  V30 10668 N 1034.67 -1.14067 1.0875 0
M  V30 10669 C 1035.95 -1.81389 0.73195 0
M  V30 10670 C 1036.33 -1.96005 -0.78391 0
M  V30 10671 O 1035.68 -1.52267 -1.70373 0
M  V30 10672 C 1035.89 -3.16858 1.46294 0
M  V30 10673 C 1037.23 -3.92305 1.62426 0
M  V30 10674 O 1038.26 -3.26459 1.42488 0
M  V30 10675 O 1037.12 -5.10393 1.9535 0
M  V30 10676 H 1034.21 -0.784354 0.262141 0
M  V30 10677 H 1036.76 -1.21054 1.18929 0
M  V30 10678 H 1035.53 -3.01404 2.49542 0
M  V30 10679 H 1035.15 -3.84889 0.997318 0
M  V30 10680 N 1036.15 -0.873678 -1.31166 0
M  V30 10681 C 1037.1 -0.330288 -2.28424 0
M  V30 10682 C 1038.07 0.573299 -1.55893 0
M  V30 10683 O 1039.25 0.504143 -1.84019 0
M  V30 10684 C 1036.39 0.459004 -3.42034 0
M  V30 10685 C 1035.5 -0.472519 -4.29408 0
M  V30 10686 C 1034.64 0.331261 -5.30166 0
M  V30 10687 C 1033.68 -0.596453 -6.09187 0
M  V30 10688 N 1032.81 0.171305 -7.01891 0
M  V30 10689 H 1037.65 -1.16485 -2.7429 0
M  V30 10690 H 1035.19 -0.585813 -1.34932 0
M  V30 10691 H 1037.15 0.932432 -4.06647 0
M  V30 10692 H 1035.78 1.25824 -2.97268 0
M  V30 10693 H 1034.83 -1.06441 -3.65205 0
M  V30 10694 H 1036.14 -1.18372 -4.84551 0
M  V30 10695 H 1035.3 0.867038 -6.00473 0
M  V30 10696 H 1034.04 1.07573 -4.75688 0
M  V30 10697 H 1033.04 -1.14395 -5.37767 0
M  V30 10698 H 1034.27 -1.33983 -6.65752 0
M  V30 10699 H 1032.21 0.89852 -6.49817 0
M  V30 10700 H 1032.13 -0.480481 -7.54472 0
M  V30 10701 H 1033.4 0.688192 -7.76456 0
M  V30 10702 N 1037.63 1.44308 -0.633487 0
M  V30 10703 C 1038.87 2.02023 -0.138917 0
M  V30 10704 C 1039.2 1.49841 1.24008 0
M  V30 10705 O 1038.46 0.673718 1.83738 0
M  V30 10706 C 1038.76 3.57316 -0.0773886 0
M  V30 10707 C 1038.42 4.28762 -1.39548 0
M  V30 10708 C 1037.08 4.47997 -1.75648 0
M  V30 10709 C 1039.44 4.69391 -2.26542 0
M  V30 10710 C 1036.76 5.05121 -2.98445 0
M  V30 10711 C 1039.12 5.27876 -3.48612 0
M  V30 10712 C 1037.78 5.45329 -3.84932 0
M  V30 10713 H 1037.05 0.739254 -0.0508333 0
M  V30 10714 H 1039.7 1.73043 -0.820271 0
M  V30 10715 H 1038 3.85724 0.687345 0
M  V30 10716 H 1039.7 3.99706 0.321837 0
M  V30 10717 H 1036.29 4.14122 -1.10456 0
M  V30 10718 H 1040.47 4.54241 -1.99946 0
M  V30 10719 H 1035.73 5.16821 -3.26658 0
M  V30 10720 H 1039.9 5.58307 -4.16253 0
M  V30 10721 H 1037.53 5.8936 -4.80166 0
M  V30 10722 N 1039.1 0.374177 1.53094 0
M  V30 10723 C 1040.03 -0.459976 2.28925 0
M  V30 10724 C 1041.02 -1.07656 1.31698 0
M  V30 10725 O 1042.2 -1.09219 1.60577 0
M  V30 10726 C 1039.33 -1.5954 3.08487 0
M  V30 10727 C 1038.28 -1.10563 4.13473 0
M  V30 10728 C 1037.61 -2.33196 4.81169 0
M  V30 10729 C 1038.91 -0.184275 5.21975 0
M  V30 10730 H 1040.6 0.172692 2.98902 0
M  V30 10731 H 1038.15 0.0844956 1.43752 0
M  V30 10732 H 1040.1 -2.18565 3.60288 0
M  V30 10733 H 1038.83 -2.25543 2.36216 0
M  V30 10734 H 1037.49 -0.53801 3.62631 0
M  V30 10735 H 1037.13 -2.97675 4.05461 0
M  V30 10736 H 1036.83 -2.01094 5.52119 0
M  V30 10737 H 1038.36 -2.92892 5.35767 0
M  V30 10738 H 1039.77 -0.682262 5.69226 0
M  V30 10739 H 1038.17 0.0462746 6.00082 0
M  V30 10740 H 1039.24 0.771152 4.78729 0
M  V30 10741 N 1040.58 -1.57259 0.103575 0
M  V30 10742 C 1042 -1.57581 -0.253062 0
M  V30 10743 C 1042.2 -1.11531 -1.67819 0
M  V30 10744 O 1041.25 -0.795632 -2.39637 0
M  V30 10745 C 1042.57 -3.00681 -0.0337753 0
M  V30 10746 C 1044.12 -3.12837 -0.10087 0
M  V30 10747 C 1044.59 -4.57911 0.0905295 0
M  V30 10748 N 1046.08 -4.63186 0.0359789 0
M  V30 10749 C 1046.82 -5.73179 0.159199 0
M  V30 10750 N 1046.31 -6.91976 0.337728 0
M  V30 10751 N 1048.11 -5.62011 0.0998662 0
M  V30 10752 H 1040.26 -1.85499 1.0346 0
M  V30 10753 H 1042.52 -0.856584 0.406163 0
M  V30 10754 H 1042.23 -3.38602 0.950858 0
M  V30 10755 H 1042.1 -3.69207 -0.772406 0
M  V30 10756 H 1044.49 -2.74783 -1.07601 0
M  V30 10757 H 1044.57 -2.46886 0.66939 0
M  V30 10758 H 1044.21 -4.9666 1.06258 0
M  V30 10759 H 1044.14 -5.21933 -0.699528 0
M  V30 10760 H 1046.63 -3.7777 -0.099121 0
M  V30 10761 H 1046.95 -7.71641 0.423032 0
M  V30 10762 H 1045.29 -6.93996 0.373504 0
M  V30 10763 H 1048.48 -4.68084 -0.0385356 0
M  V30 10764 H 1048.65 -6.47693 0.199342 0
M  V30 10765 N 1042.06 0.170153 -1.56679 0
M  V30 10766 C 1042.97 1.23057 -1.99735 0
M  V30 10767 C 1043.99 1.48374 -0.908912 0
M  V30 10768 O 1045.16 1.60499 -1.21663 0
M  V30 10769 C 1042.23 2.54944 -2.34956 0
M  V30 10770 C 1041.29 2.3748 -3.57634 0
M  V30 10771 C 1040.52 3.63078 -3.91165 0
M  V30 10772 O 1040.74 4.68304 -3.2565 0
M  V30 10773 O 1039.68 3.57119 -4.8451 0
M  V30 10774 H 1043.5 0.895104 -2.9021 0
M  V30 10775 H 1041.09 0.377109 -1.44562 0
M  V30 10776 H 1042.97 3.32742 -2.58574 0
M  V30 10777 H 1041.65 2.88068 -1.47643 0
M  V30 10778 H 1040.55 1.57709 -3.39232 0
M  V30 10779 H 1041.89 2.0928 -4.45491 0
M  V30 10780 N 1043.54 1.5137 0.438746 0
M  V30 10781 C 1044.49 1.72582 1.53245 0
M  V30 10782 C 1045.46 0.567488 1.56105 0
M  V30 10783 O 1046.64 0.80176 1.73137 0
M  V30 10784 C 1043.78 1.85551 2.90972 0
M  V30 10785 C 1042.89 3.13094 2.97652 0
M  V30 10786 C 1042.03 3.16666 4.26493 0
M  V30 10787 C 1041.07 4.38529 4.27035 0
M  V30 10788 N 1040.2 4.39659 5.47398 0
M  V30 10789 H 1045.04 2.65941 1.3446 0
M  V30 10790 H 1042.58 1.31801 0.653206 0
M  V30 10791 H 1044.54 1.91053 3.70884 0
M  V30 10792 H 1043.17 0.956025 3.08318 0
M  V30 10793 H 1042.22 3.16909 2.10412 0
M  V30 10794 H 1043.53 4.03009 2.93914 0
M  V30 10795 H 1042.69 3.21075 5.14777 0
M  V30 10796 H 1041.43 2.24637 4.32885 0
M  V30 10797 H 1040.43 4.34297 3.37144 0
M  V30 10798 H 1041.66 5.31821 4.22307 0
M  V30 10799 H 1039.6 3.50499 5.54514 0
M  V30 10800 H 1039.52 5.23382 5.45534 0
M  V30 10801 H 1040.79 4.48259 6.37718 0
M  V30 10802 N 1045.02 -0.694098 1.41492 0
M  V30 10803 C 1046.29 -1.44875 1.31418 0
M  V30 10804 C 1046.67 -2.11022 -0.0575538 0
M  V30 10805 O 1046.02 -2.01799 -1.07188 0
M  V30 10806 C 1046.23 -2.46698 2.46863 0
M  V30 10807 C 1047.58 -3.11907 2.88095 0
M  V30 10808 O 1048.6 -2.57022 2.46613 0
M  V30 10809 O 1047.46 -4.11318 3.59833 0
M  V30 10810 H 1044.56 -0.645266 0.517263 0
M  V30 10811 H 1047.1 -0.724452 1.53459 0
M  V30 10812 H 1045.87 -1.96485 3.38392 0
M  V30 10813 H 1045.5 -3.26634 2.26706 0
M  V30 10814 N 1046.49 -1.27344 -0.928501 0
M  V30 10815 C 1047.74 -1.13411 -1.67279 0
M  V30 10816 C 1048.06 0.320698 -1.92345 0
M  V30 10817 O 1047.33 1.2245 -1.52915 0
M  V30 10818 H 1045.91 -0.416712 -0.619968 0
M  V30 10819 H 1048.58 -1.5986 -1.11493 0
M  V30 10820 H 1047.67 -1.66256 -2.64131 0
M  V30 10821 N 1047.97 1.13488 -1.09353 0
M  V30 10822 C 1048.88 2.2248 -0.744307 0
M  V30 10823 C 1049.9 1.72145 0.253404 0
M  V30 10824 O 1051.07 2.01176 0.0949339 0
M  V30 10825 C 1048.14 3.46286 -0.16928 0
M  V30 10826 C 1047.2 4.11516 -1.22284 0
M  V30 10827 C 1046.43 5.29412 -0.675161 0
M  V30 10828 O 1046.66 5.68185 0.502182 0
M  V30 10829 O 1045.59 5.8467 -1.42983 0
M  V30 10830 H 1049.42 2.54723 -1.65378 0
M  V30 10831 H 1047 1.21607 -0.867879 0
M  V30 10832 H 1048.88 4.2114 0.14811 0
M  V30 10833 H 1047.56 3.15745 0.713214 0
M  V30 10834 H 1046.47 3.38492 -1.59292 0
M  V30 10835 H 1047.8 4.46186 -2.07796 0
M  V30 10836 N 1049.45 0.880621 1.30701 0
M  V30 10837 C 1050.7 0.496875 1.96309 0
M  V30 10838 C 1051.03 -0.953064 1.69549 0
M  V30 10839 O 1050.28 -1.68782 0.990507 0
M  V30 10840 C 1050.58 0.713203 3.50212 0
M  V30 10841 C 1050.25 2.13756 3.97013 0
M  V30 10842 C 1048.91 2.52706 4.09503 0
M  V30 10843 C 1051.26 3.066 4.21481 0
M  V30 10844 C 1048.59 3.8372 4.43819 0
M  V30 10845 C 1050.94 4.3714 4.57265 0
M  V30 10846 C 1049.6 4.7599 4.67963 0
M  V30 10847 H 1048.87 0.18182 0.718347 0
M  V30 10848 H 1051.52 1.11564 1.55646 0
M  V30 10849 H 1049.83 0.0113694 3.91798 0
M  V30 10850 H 1051.52 0.39595 3.9904 0
M  V30 10851 H 1048.11 1.8252 3.87794 0
M  V30 10852 H 1052.3 2.77729 4.11315 0
M  V30 10853 H 1047.55 4.13568 4.50301 0
M  V30 10854 H 1051.73 5.09123 4.75149 0
M  V30 10855 H 1049.35 5.77549 4.94309 0
M  V30 10856 N 1050.93 -1.4397 0.641131 0
M  V30 10857 C 1052.15 -2.06818 0.155318 0
M  V30 10858 C 1052.58 -1.47665 -1.16519 0
M  V30 10859 O 1051.94 -0.58192 -1.71707 0
M  V30 10860 C 1051.99 -3.60542 0.0647537 0
M  V30 10861 O 1051.09 -4.00674 -0.976447 0
M  V30 10862 H 1050.43 -0.657962 0.0893404 0
M  V30 10863 H 1052.96 -1.84678 0.88064 0
M  V30 10864 H 1052.97 -4.07816 -0.122552 0
M  V30 10865 H 1051.65 -4.02975 1.02878 0
M  V30 10866 H 1050.22 -3.65013 -0.762905 0
M  V30 10867 N 1052.41 -0.382291 -1.52893 0
M  V30 10868 C 1053.65 0.202433 -2.01787 0
M  V30 10869 C 1053.99 1.47044 -1.26853 0
M  V30 10870 O 1053.26 1.91007 -0.366969 0
M  V30 10871 C 1053.54 0.477471 -3.5692 0
M  V30 10872 C 1053.4 -0.805339 -4.42532 0
M  V30 10873 C 1054.72 1.27106 -4.21346 0
M  V30 10874 H 1051.84 0.0720998 -0.733465 0
M  V30 10875 H 1054.48 -0.510478 -1.83014 0
M  V30 10876 H 1052.63 1.08478 -3.73048 0
M  V30 10877 H 1054.3 -1.4424 -4.3817 0
M  V30 10878 H 1052.54 -1.42216 -4.09826 0
M  V30 10879 H 1053.21 -0.567635 -5.49074 0
M  V30 10880 H 1055.69 0.757161 -4.09153 0
M  V30 10881 H 1054.57 1.43225 -5.29885 0
M  V30 10882 H 1054.83 2.28431 -3.78513 0
M  V30 10883 N 1053.89 1.57202 -0.111913 0
M  V30 10884 C 1054.82 2.17957 0.837683 0
M  V30 10885 C 1055.8 1.1176 1.28233 0
M  V30 10886 O 1056.98 1.39967 1.34621 0
M  V30 10887 C 1054.11 2.77333 2.09054 0
M  V30 10888 C 1053.07 3.8905 1.78393 0
M  V30 10889 C 1052.39 4.35203 3.10649 0
M  V30 10890 C 1053.69 5.11477 1.05775 0
M  V30 10891 H 1055.39 2.9756 0.331441 0
M  V30 10892 H 1052.93 1.43131 0.157979 0
M  V30 10893 H 1054.88 3.18492 2.75936 0
M  V30 10894 H 1053.61 1.95009 2.6199 0
M  V30 10895 H 1052.27 3.48456 1.13903 0
M  V30 10896 H 1051.92 3.49747 3.61506 0
M  V30 10897 H 1051.62 5.10534 2.9091 0
M  V30 10898 H 1053.14 4.79007 3.78661 0
M  V30 10899 H 1054.55 5.497 1.62798 0
M  V30 10900 H 1052.95 5.92346 0.961573 0
M  V30 10901 H 1054.02 4.84881 0.043297 0
M  V30 10902 N 1055.36 -0.161842 1.56767 0
M  V30 10903 C 1056.3 -1.22499 1.93718 0
M  V30 10904 C 1057.31 -1.39975 0.831314 0
M  V30 10905 O 1058.5 -1.3981 1.10975 0
M  V30 10906 C 1055.6 -2.59222 2.18306 0
M  V30 10907 C 1054.77 -2.6292 3.4956 0
M  V30 10908 C 1053.83 -3.81074 3.62863 0
M  V30 10909 O 1052.86 -3.66633 4.35395 0
M  V30 10910 N 1054.06 -4.97923 2.98418 0
M  V30 10911 H 1056.82 -0.911043 2.85517 0
M  V30 10912 H 1054.38 -0.351533 1.58038 0
M  V30 10913 H 1056.38 -3.36749 2.24461 0
M  V30 10914 H 1054.95 -2.82969 1.32844 0
M  V30 10915 H 1054.17 -1.71418 3.54978 0
M  V30 10916 H 1055.45 -2.62409 4.35911 0
M  V30 10917 H 1054.85 -5.12557 2.39378 0
M  V30 10918 H 1053.41 -5.73277 3.10155 0
M  V30 10919 N 1056.84 -1.516 -0.430713 0
M  V30 10920 C 1057.77 -1.76342 -1.53054 0
M  V30 10921 C 1058.75 -0.61349 -1.58652 0
M  V30 10922 O 1059.94 -0.856888 -1.74273 0
M  V30 10923 C 1057.07 -1.8945 -2.91077 0
M  V30 10924 C 1056.02 -3.04928 -3.00339 0
M  V30 10925 C 1055.35 -3.03228 -4.40405 0
M  V30 10926 C 1056.65 -4.44777 -2.73808 0
M  V30 10927 H 1058.34 -2.68435 -1.326 0
M  V30 10928 H 1055.89 -1.29171 -0.636466 0
M  V30 10929 H 1057.84 -2.05343 -3.67984 0
M  V30 10930 H 1056.56 -0.940114 -3.12777 0
M  V30 10931 H 1055.22 -2.88751 -2.25872 0
M  V30 10932 H 1054.87 -2.05553 -4.59083 0
M  V30 10933 H 1054.57 -3.80776 -4.47531 0
M  V30 10934 H 1056.1 -3.21222 -5.19277 0
M  V30 10935 H 1057.51 -4.6127 -3.40445 0
M  V30 10936 H 1055.91 -5.2408 -2.92335 0
M  V30 10937 H 1056.98 -4.54358 -1.69372 0
M  V30 10938 N 1058.32 0.686584 -1.41858 0
M  V30 10939 C 1059.57 1.44879 -1.41908 0
M  V30 10940 C 1059.9 1.94175 -0.0311408 0
M  V30 10941 O 1059.17 1.70131 0.942646 0
M  V30 10942 C 1059.46 2.65428 -2.43352 0
M  V30 10943 C 1059.31 2.2184 -3.91289 0
M  V30 10944 C 1060.63 3.67635 -2.41934 0
M  V30 10945 H 1057.75 0.525477 -0.516762 0
M  V30 10946 H 1060.39 0.781263 -1.73194 0
M  V30 10947 H 1058.54 3.2238 -2.16803 0
M  V30 10948 H 1060.21 1.70146 -4.28775 0
M  V30 10949 H 1058.45 1.53531 -4.05722 0
M  V30 10950 H 1059.13 3.08376 -4.5783 0
M  V30 10951 H 1061.6 3.20376 -2.65516 0
M  V30 10952 H 1060.48 4.49579 -3.14913 0
M  V30 10953 H 1060.74 4.17953 -1.44111 0
M  V30 10954 N 1059.8 1.27835 0.921735 0
M  V30 10955 C 1061.05 1.14296 1.66676 0
M  V30 10956 C 1061.37 -0.310493 1.92512 0
M  V30 10957 O 1060.64 -1.21637 1.53562 0
M  V30 10958 H 1059.22 0.419994 0.617749 0
M  V30 10959 H 1061.88 1.60449 1.10644 0
M  V30 10960 H 1060.97 1.67654 2.63246 0
M  V30 10961 N 1061.28 -1.12907 1.09954 0
M  V30 10962 C 1062.21 -2.17589 0.687769 0
M  V30 10963 C 1063.19 -1.59648 -0.308444 0
M  V30 10964 O 1064.37 -1.87343 -0.208527 0
M  V30 10965 C 1061.5 -3.38697 0.0140519 0
M  V30 10966 C 1060.54 -4.15254 0.972942 0
M  V30 10967 S 1061.38 -4.74205 2.48777 0
M  V30 10968 C 1062.53 -5.98653 1.82662 0
M  V30 10969 H 1062.77 -2.52181 1.57455 0
M  V30 10970 H 1060.3 -1.24289 0.916051 0
M  V30 10971 H 1062.26 -4.08844 -0.368343 0
M  V30 10972 H 1060.92 -3.02396 -0.849456 0
M  V30 10973 H 1060.11 -5.01999 0.448715 0
M  V30 10974 H 1059.71 -3.5079 1.297 0
M  V30 10975 H 1062 -6.67602 1.15388 0
M  V30 10976 H 1062.95 -6.55693 2.67343 0
M  V30 10977 H 1063.36 -5.49486 1.29325 0
M  V30 10978 N 1062.75 -0.88754 -1.30232 0
M  V30 10979 C 1063.68 -0.372481 -2.3051 0
M  V30 10980 C 1064.66 0.546037 -1.61098 0
M  V30 10981 O 1065.85 0.459345 -1.88689 0
M  V30 10982 C 1062.98 0.411605 -3.44852 0
M  V30 10983 C 1061.93 -0.415383 -4.2598 0
M  V30 10984 C 1061.26 0.495463 -5.324 0
M  V30 10985 C 1062.56 -1.65886 -4.95257 0
M  V30 10986 H 1064.25 -1.21045 -2.7384 0
M  V30 10987 H 1061.8 -0.583498 -1.31648 0
M  V30 10988 H 1063.75 0.782584 -4.1407 0
M  V30 10989 H 1062.48 1.28325 -3.00334 0
M  V30 10990 H 1061.14 -0.768534 -3.58454 0
M  V30 10991 H 1060.78 1.36489 -4.84128 0
M  V30 10992 H 1060.48 -0.0540885 -5.87575 0
M  V30 10993 H 1062.01 0.862901 -6.04472 0
M  V30 10994 H 1063.42 -1.35832 -5.56976 0
M  V30 10995 H 1061.82 -2.14881 -5.60309 0
M  V30 10996 H 1062.89 -2.40181 -4.21237 0
M  V30 10997 N 1064.23 1.43628 -0.648757 0
M  V30 10998 C 1065.65 1.56442 -0.315921 0
M  V30 10999 C 1065.85 1.63322 1.18018 0
M  V30 11000 O 1064.9 1.58585 1.96487 0
M  V30 11001 C 1066.22 2.82751 -1.02335 0
M  V30 11002 C 1067.77 2.96488 -1.00318 0
M  V30 11003 C 1068.24 4.25623 -1.69142 0
M  V30 11004 N 1069.73 4.32477 -1.65885 0
M  V30 11005 C 1070.47 5.31154 -2.16016 0
M  V30 11006 N 1069.96 6.36135 -2.74415 0
M  V30 11007 N 1071.76 5.22778 -2.06541 0
M  V30 11008 H 1063.91 1.37405 -1.61968 0
M  V30 11009 H 1066.17 0.65962 -0.680886 0
M  V30 11010 H 1065.88 2.83714 -2.07844 0
M  V30 11011 H 1065.75 3.72836 -0.572114 0
M  V30 11012 H 1068.14 2.95068 0.0434919 0
M  V30 11013 H 1068.22 2.07704 -1.49307 0
M  V30 11014 H 1067.86 4.27804 -2.73763 0
M  V30 11015 H 1067.79 5.13296 -1.17622 0
M  V30 11016 H 1070.28 3.57232 -1.23264 0
M  V30 11017 H 1070.6 7.07743 -3.10355 0
M  V30 11018 H 1068.94 6.36771 -2.78474 0
M  V30 11019 H 1072.13 4.39678 -1.60625 0
M  V30 11020 H 1072.3 5.99523 -2.45919 0
M  V30 11021 N 1065.71 0.390394 1.52688 0
M  V30 11022 C 1066.96 -0.191067 2.01195 0
M  V30 11023 C 1067.28 -1.47229 1.27862 0
M  V30 11024 O 1066.55 -1.91793 0.399007 0
M  V30 11025 H 1065.13 -0.073596 0.743366 0
M  V30 11026 H 1067.79 0.522334 1.8777 0
M  V30 11027 H 1066.89 -0.40051 3.0952 0
M  V30 11028 N 1067.19 -1.57141 0.120249 0
M  V30 11029 C 1068.44 -1.94413 -0.53727 0
M  V30 11030 C 1068.75 -1.00594 -1.67751 0
M  V30 11031 O 1069.96 -1.27336 -2.39787 0
M  V30 11032 C 1068.41 -3.45521 -1.00714 0
M  V30 11033 C 1068.02 -4.47878 0.104706 0
M  V30 11034 C 1069.76 -3.9171 -1.63596 0
M  V30 11035 C 1067.67 -5.90165 -0.381932 0
M  V30 11036 H 1066.6 -0.725745 -0.204475 0
M  V30 11037 H 1069.25 -1.82404 0.200302 0
M  V30 11038 H 1067.63 -3.52769 -1.79917 0
M  V30 11039 H 1068.81 -4.523 0.881002 0
M  V30 11040 H 1067.12 -4.11448 0.640264 0
M  V30 11041 H 1069.72 -4.95433 -2.01122 0
M  V30 11042 H 1070.06 -3.31756 -2.51483 0
M  V30 11043 H 1070.6 -3.87268 -0.909319 0
M  V30 11044 H 1067.34 -6.53877 0.460921 0
M  V30 11045 H 1066.86 -5.89161 -1.12468 0
M  V30 11046 H 1068.53 -6.41488 -0.842748 0
M  V30 11047 N 1068.67 0.153526 -1.5685 0
M  V30 11048 C 1069.63 1.17362 -1.96873 0
M  V30 11049 C 1070.63 1.36219 -0.854456 0
M  V30 11050 O 1071.82 1.33322 -1.1212 0
M  V30 11051 C 1068.95 2.53523 -2.27901 0
M  V30 11052 H 1070.14 0.830432 -2.88173 0
M  V30 11053 H 1067.7 0.396633 -1.51184 0
M  V30 11054 H 1068.43 2.92824 -1.39371 0
M  V30 11055 H 1068.22 2.41198 -3.09137 0
M  V30 11056 H 1069.71 3.27006 -2.59725 0
M  V30 11057 N 1070.14 1.51827 0.422667 0
M  V30 11058 C 1071.11 1.7359 1.49663 0
M  V30 11059 C 1072.11 0.605811 1.48952 0
M  V30 11060 O 1073.3 0.87354 1.50715 0
M  V30 11061 C 1070.43 1.80585 2.8914 0
M  V30 11062 H 1071.62 2.69453 1.31664 0
M  V30 11063 H 1069.18 1.42038 0.652298 0
M  V30 11064 H 1069.91 0.865895 3.12526 0
M  V30 11065 H 1069.7 2.62729 2.9106 0
M  V30 11066 H 1071.19 1.99212 3.67021 0
M  V30 11067 N 1071.62 -0.679052 1.4222 0
M  V30 11068 C 1072.87 -1.43627 1.42182 0
M  V30 11069 C 1073.19 -1.94964 0.0377095 0
M  V30 11070 O 1072.46 -1.72788 -0.923098 0
M  V30 11071 H 1071.04 -0.532972 0.523402 0
M  V30 11072 H 1073.7 -0.802649 1.77605 0
M  V30 11073 H 1072.8 -2.29137 2.11902 0
M  V30 11074 N 1073.1 -1.28322 -0.914942 0
M  V30 11075 C 1074.03 -1.06469 -2.01841 0
M  V30 11076 C 1075.01 0.0188681 -1.62589 0
M  V30 11077 O 1076.2 -0.128825 -1.88059 0
M  V30 11078 C 1073.32 -0.617685 -3.3302 0
M  V30 11079 C 1072.37 -1.6977 -3.91255 0
M  V30 11080 S 1073.2 -3.29337 -4.22253 0
M  V30 11081 C 1074.36 -2.86468 -5.56495 0
M  V30 11082 H 1074.59 -1.99893 -2.20068 0
M  V30 11083 H 1072.12 -1.12297 -1.05966 0
M  V30 11084 H 1074.08 -0.366481 -4.08861 0
M  V30 11085 H 1072.74 0.296709 -3.12695 0
M  V30 11086 H 1071.94 -1.33653 -4.85956 0
M  V30 11087 H 1071.54 -1.90164 -3.22046 0
M  V30 11088 H 1073.83 -2.32565 -6.36333 0
M  V30 11089 H 1074.77 -3.79962 -5.97523 0
M  V30 11090 H 1075.18 -2.2522 -5.17626 0
M  V30 11091 N 1074.58 1.12322 -1.10551 0
M  V30 11092 C 1075.53 2.18087 -0.755424 0
M  V30 11093 C 1076.5 1.6391 0.268805 0
M  V30 11094 O 1077.68 1.90227 0.147813 0
M  V30 11095 C 1074.82 3.4455 -0.194713 0
M  V30 11096 C 1073.93 4.12775 -1.27439 0
M  V30 11097 C 1073.07 5.26891 -0.675194 0
M  V30 11098 C 1072.11 5.86985 -1.73536 0
M  V30 11099 N 1071.24 6.92512 -1.15635 0
M  V30 11100 H 1076.08 2.47379 -1.66155 0
M  V30 11101 H 1073.62 1.21452 -0.829924 0
M  V30 11102 H 1075.58 4.16936 0.148275 0
M  V30 11103 H 1074.21 3.15671 0.674638 0
M  V30 11104 H 1073.26 3.38556 -1.73448 0
M  V30 11105 H 1074.57 4.53506 -2.07687 0
M  V30 11106 H 1073.73 6.06046 -0.281723 0
M  V30 11107 H 1072.47 4.87442 0.158708 0
M  V30 11108 H 1071.47 5.06517 -2.13825 0
M  V30 11109 H 1072.7 6.28505 -2.57213 0
M  V30 11110 H 1070.64 6.55098 -0.343928 0
M  V30 11111 H 1070.56 7.31848 -1.89565 0
M  V30 11112 H 1071.83 7.75492 -0.789463 0
M  V30 11113 N 1076.06 0.894434 1.2976 0
M  V30 11114 C 1077.29 0.532143 1.99629 0
M  V30 11115 C 1077.69 -0.886234 1.6716 0
M  V30 11116 O 1077.04 -1.59573 0.910065 0
M  V30 11117 C 1077.1 0.638335 3.53787 0
M  V30 11118 C 1076.76 2.02273 4.09798 0
M  V30 11119 C 1077.76 2.99327 4.25087 0
M  V30 11120 C 1075.45 2.33069 4.44954 0
M  V30 11121 C 1077.44 4.25304 4.74758 0
M  V30 11122 C 1075.13 3.59289 4.94322 0
M  V30 11123 C 1076.12 4.55222 5.09178 0
M  V30 11124 O 1075.81 5.79202 5.57477 0
M  V30 11125 H 1075.54 0.203326 0.644697 0
M  V30 11126 H 1078.1 1.2043 1.6639 0
M  V30 11127 H 1076.33 -0.0908338 3.86593 0
M  V30 11128 H 1078.02 0.285956 4.04891 0
M  V30 11129 H 1078.78 2.76849 3.9822 0
M  V30 11130 H 1074.66 1.59162 4.32653 0
M  V30 11131 H 1078.21 5.00189 4.86269 0
M  V30 11132 H 1074.1 3.816 5.20626 0
M  V30 11133 H 1074.87 5.81717 5.75802 0
M  V30 11134 N 1077.53 -1.43282 0.656365 0
M  V30 11135 C 1078.46 -2.33492 -0.0196962 0
M  V30 11136 C 1079.45 -1.49647 -0.80868 0
M  V30 11137 O 1080.63 -1.78303 -0.769529 0
M  V30 11138 C 1077.76 -3.33052 -0.984574 0
M  V30 11139 C 1076.71 -4.26908 -0.305483 0
M  V30 11140 C 1076.04 -5.16531 -1.38202 0
M  V30 11141 C 1077.34 -5.16073 0.804081 0
M  V30 11142 H 1079.03 -2.90272 0.733661 0
M  V30 11143 H 1076.58 -1.39574 0.354259 0
M  V30 11144 H 1078.53 -3.9506 -1.46647 0
M  V30 11145 H 1077.26 -2.74535 -1.76913 0
M  V30 11146 H 1075.92 -3.66268 0.155995 0
M  V30 11147 H 1075.56 -4.54351 -2.1581 0
M  V30 11148 H 1075.26 -5.80148 -0.932878 0
M  V30 11149 H 1076.79 -5.81414 -1.86522 0
M  V30 11150 H 1078.2 -5.71873 0.404212 0
M  V30 11151 H 1076.6 -5.88427 1.17789 0
M  V30 11152 H 1077.67 -4.55574 1.66073 0
M  V30 11153 N 1079.01 -0.398486 -1.52479 0
M  V30 11154 C 1079.98 0.420206 -2.25315 0
M  V30 11155 C 1080.98 0.982559 -1.27289 0
M  V30 11156 O 1082.17 0.863113 -1.51314 0
M  V30 11157 C 1079.3 1.59045 -3.01525 0
M  V30 11158 H 1080.49 -0.217599 -2.9911 0
M  V30 11159 H 1078.04 -0.150784 -1.55571 0
M  V30 11160 H 1078.78 2.26542 -2.32054 0
M  V30 11161 H 1078.56 1.19382 -3.73484 0
M  V30 11162 H 1080.05 2.16984 -3.56802 0
M  V30 11163 N 1080.49 1.57075 -0.12858 0
M  V30 11164 C 1081.44 2.17084 0.835308 0
M  V30 11165 C 1082.43 1.12268 1.26855 0
M  V30 11166 O 1083.64 1.30554 1.23917 0
M  V30 11167 H 1080.01 0.694866 0.287516 0
M  V30 11168 H 1081.99 2.96839 0.304798 0
M  V30 11169 C 1080.73 2.79237 2.07177 0
M  V30 11170 H 1080.06 3.59594 1.74735 0
M  V30 11171 H 1081.5 3.24751 2.72604 0
M  V30 11172 C 1079.96 1.76803 2.86779 0
M  V30 11173 O 1080.49 1.22723 3.82494 0
M  V30 11174 N 1078.69 1.46525 2.50956 0
M  V30 11175 H 1078.24 1.90694 1.73187 0
M  V30 11176 H 1078.2 0.782326 3.04511 0
M  V30 11177 N 1081.97 -0.145205 1.5693 0
M  V30 11178 C 1082.9 -1.20881 1.93553 0
M  V30 11179 C 1083.88 -1.41467 0.801612 0
M  V30 11180 O 1085.06 -1.5605 1.05739 0
M  V30 11181 C 1082.19 -2.5674 2.20912 0
M  V30 11182 C 1081.24 -2.52738 3.43549 0
M  V30 11183 S 1082.07 -1.99257 4.97048 0
M  V30 11184 C 1083.23 -3.36842 5.27531 0
M  V30 11185 H 1083.46 -0.896362 2.83465 0
M  V30 11186 H 1080.99 -0.350894 1.5036 0
M  V30 11187 H 1082.95 -3.34923 2.37354 0
M  V30 11188 H 1081.61 -2.85174 1.31661 0
M  V30 11189 H 1080.8 -3.52753 3.59974 0
M  V30 11190 H 1080.41 -1.82665 3.26358 0
M  V30 11191 H 1082.7 -4.32958 5.21108 0
M  V30 11192 H 1083.64 -3.25268 6.28973 0
M  V30 11193 H 1084.05 -3.3406 4.55043 0
M  V30 11194 N 1083.45 -1.52049 -0.414609 0
M  V30 11195 C 1084.4 -1.75603 -1.52533 0
M  V30 11196 C 1085.39 -0.622965 -1.57529 0
M  V30 11197 O 1086.6 -0.804886 -1.61002 0
M  V30 11198 H 1082.97 -0.555222 -0.507181 0
M  V30 11199 H 1084.94 -2.68666 -1.2985 0
M  V30 11200 C 1083.69 -1.9188 -2.89961 0
M  V30 11201 H 1083.01 -2.78483 -2.86857 0
M  V30 11202 H 1084.45 -2.12363 -3.66985 0
M  V30 11203 C 1082.91 -0.684453 -3.29874 0
M  V30 11204 O 1083.44 0.150256 -4.01419 0
M  V30 11205 N 1081.65 -0.521936 -2.85874 0
M  V30 11206 H 1081.2 -1.20229 -2.27822 0
M  V30 11207 H 1081.15 0.302655 -3.1294 0
M  V30 11208 N 1084.93 0.6715 -1.42579 0
M  V30 11209 C 1086.16 1.4576 -1.46416 0
M  V30 11210 C 1086.56 1.89051 -0.0749843 0
M  V30 11211 O 1085.91 1.58927 0.921296 0
M  V30 11212 C 1085.97 2.7365 -2.33144 0
M  V30 11213 C 1085.63 2.52414 -3.80968 0
M  V30 11214 C 1086.63 2.16804 -4.72538 0
M  V30 11215 C 1084.31 2.67306 -4.25268 0
M  V30 11216 C 1086.31 1.96358 -6.06401 0
M  V30 11217 C 1084 2.46475 -5.5919 0
M  V30 11218 C 1084.99 2.11055 -6.49573 0
M  V30 11219 O 1084.68 1.90428 -7.8102 0
M  V30 11220 H 1084.41 0.454896 -0.500045 0
M  V30 11221 H 1086.97 0.832198 -1.87786 0
M  V30 11222 H 1085.2 3.38684 -1.86629 0
M  V30 11223 H 1086.89 3.35543 -2.28398 0
M  V30 11224 H 1087.65 2.04891 -4.39596 0
M  V30 11225 H 1083.53 2.93854 -3.55206 0
M  V30 11226 H 1087.08 1.68634 -6.76911 0
M  V30 11227 H 1082.97 2.57985 -5.91704 0
M  V30 11228 H 1083.74 2.05 -7.92412 0
M  V30 11229 N 1086.4 1.28806 0.908124 0
M  V30 11230 C 1087.65 1.1646 1.66027 0
M  V30 11231 C 1087.98 -0.285025 1.92097 0
M  V30 11232 O 1087.26 -1.20675 1.52538 0
M  V30 11233 C 1087.54 1.96951 3.01467 0
M  V30 11234 C 1087.39 3.50007 2.82515 0
M  V30 11235 C 1088.71 1.78932 4.02084 0
M  V30 11236 H 1085.83 0.424435 0.602515 0
M  V30 11237 H 1088.47 1.58185 1.0525 0
M  V30 11238 H 1086.62 1.61495 3.53344 0
M  V30 11239 H 1088.3 3.95401 2.37605 0
M  V30 11240 H 1086.54 3.75356 2.17463 0
M  V30 11241 H 1087.21 4.01591 3.7872 0
M  V30 11242 H 1089.69 2.09885 3.59287 0
M  V30 11243 H 1088.56 2.37615 4.94803 0
M  V30 11244 H 1088.82 0.742286 4.35824 0
M  V30 11245 N 1087.88 -1.11734 1.11145 0
M  V30 11246 C 1088.83 -2.15789 0.736133 0
M  V30 11247 C 1089.82 -1.58813 -0.25832 0
M  V30 11248 O 1091.01 -1.76877 -0.0659078 0
M  V30 11249 C 1088.14 -3.4284 0.177597 0
M  V30 11250 C 1087.22 -4.06783 1.19953 0
M  V30 11251 N 1087.61 -4.45626 2.39271 0
M  V30 11252 C 1085.91 -4.33663 1.04176 0
M  V30 11253 C 1086.61 -4.95684 3.04422 0
M  V30 11254 N 1085.59 -4.91648 2.31912 0
M  V30 11255 H 1089.39 -2.43598 1.6443 0
M  V30 11256 H 1086.9 -1.28716 0.990247 0
M  V30 11257 H 1088.9 -4.16756 -0.109402 0
M  V30 11258 H 1087.56 -3.16498 -0.725201 0
M  V30 11259 H 1088.57 -4.37757 2.76747 0
M  V30 11260 H 1085.25 -4.17044 0.195132 0
M  V30 11261 H 1086.64 -5.35394 4.05959 0
M  V30 11262 N 1089.36 -0.901303 -1.29284 0
M  V30 11263 C 1090.78 -0.597634 -1.47988 0
M  V30 11264 C 1090.98 0.860434 -1.82205 0
M  V30 11265 O 1090.03 1.64049 -1.91948 0
M  V30 11266 C 1091.34 -1.52484 -2.5917 0
M  V30 11267 C 1092.89 -1.53021 -2.73045 0
M  V30 11268 C 1093.37 -2.44373 -3.87357 0
M  V30 11269 N 1094.86 -2.42429 -3.94693 0
M  V30 11270 C 1095.59 -3.09817 -4.82495 0
M  V30 11271 N 1095.09 -3.86489 -5.74976 0
M  V30 11272 N 1096.88 -2.98966 -4.76 0
M  V30 11273 H 1089.03 -1.84432 -1.0535 0
M  V30 11274 H 1091.3 -0.790367 -0.523473 0
M  V30 11275 H 1091 -2.56378 -2.40756 0
M  V30 11276 H 1090.88 -1.24657 -3.56006 0
M  V30 11277 H 1093.26 -0.498709 -2.90855 0
M  V30 11278 H 1093.34 -1.84886 -1.76779 0
M  V30 11279 H 1092.99 -3.47618 -3.70302 0
M  V30 11280 H 1092.92 -2.09817 -4.82995 0
M  V30 11281 H 1095.41 -1.86724 -3.28546 0
M  V30 11282 H 1095.72 -4.34959 -6.38773 0
M  V30 11283 H 1094.07 -3.90596 -5.74857 0
M  V30 11284 H 1097.26 -2.38581 -4.02737 0
M  V30 11285 H 1097.43 -3.51758 -5.44215 0
M  V30 11286 N 1090.84 1.42931 -0.663954 0
M  V30 11287 C 1092.11 1.95284 -0.111174 0
M  V30 11288 C 1092.49 1.60484 1.37142 0
M  V30 11289 O 1091.84 0.895425 2.10225 0
M  V30 11290 C 1092.05 3.47046 -0.368789 0
M  V30 11291 C 1093.4 4.23679 -0.279473 0
M  V30 11292 O 1094.42 3.54918 -0.301937 0
M  V30 11293 O 1093.28 5.46087 -0.21236 0
M  V30 11294 H 1090.38 0.826993 0.00341718 0
M  V30 11295 H 1092.92 1.52816 -0.737935 0
M  V30 11296 H 1091.7 3.65541 -1.39626 0
M  V30 11297 H 1091.32 3.96537 0.290514 0
M  V30 11298 N 1092.32 0.406567 1.52266 0
M  V30 11299 C 1093.25 -0.411314 2.29849 0
M  V30 11300 C 1094.23 -1.04838 1.33952 0
M  V30 11301 O 1095.41 -1.05788 1.62857 0
M  V30 11302 C 1092.54 -1.52961 3.11802 0
M  V30 11303 C 1091.5 -1.01768 4.15725 0
M  V30 11304 C 1090.82 -2.22938 4.86007 0
M  V30 11305 C 1092.12 -0.073515 5.22248 0
M  V30 11306 H 1093.82 0.236054 2.98468 0
M  V30 11307 H 1091.36 0.114968 1.4354 0
M  V30 11308 H 1093.31 -2.10874 3.64843 0
M  V30 11309 H 1092.04 -2.20482 2.40947 0
M  V30 11310 H 1090.7 -0.46097 3.6369 0
M  V30 11311 H 1090.35 -2.89007 4.11684 0
M  V30 11312 H 1090.05 -1.89338 5.5626 0
M  V30 11313 H 1091.57 -2.81462 5.41859 0
M  V30 11314 H 1092.98 -0.561367 5.70545 0
M  V30 11315 H 1091.38 0.173551 5.99849 0
M  V30 11316 H 1092.45 0.872524 4.76985 0
M  V30 11317 N 1093.79 -1.57004 0.136909 0
M  V30 11318 C 1094.76 -2.15066 -0.792419 0
M  V30 11319 C 1095.76 -1.08991 -1.18226 0
M  V30 11320 O 1096.95 -1.34681 -1.10484 0
M  V30 11321 C 1094.08 -2.70554 -2.07397 0
M  V30 11322 H 1095.27 -2.98519 -0.28752 0
M  V30 11323 H 1092.83 -1.55895 -0.112469 0
M  V30 11324 H 1093.56 -1.90739 -2.62277 0
M  V30 11325 H 1093.35 -3.48149 -1.80374 0
M  V30 11326 H 1094.84 -3.15322 -2.73792 0
M  V30 11327 N 1095.27 0.136881 -1.57004 0
M  V30 11328 C 1096.24 1.15267 -1.98106 0
M  V30 11329 C 1097.24 1.35305 -0.868856 0
M  V30 11330 O 1098.43 1.32126 -1.13527 0
M  V30 11331 C 1095.56 2.51092 -2.30577 0
M  V30 11332 H 1096.75 0.799821 -2.89038 0
M  V30 11333 H 1094.3 0.380576 -1.51596 0
M  V30 11334 H 1095.04 2.9133 -1.42469 0
M  V30 11335 H 1094.82 2.37906 -3.11678 0
M  V30 11336 H 1096.31 3.24232 -2.63179 0
M  V30 11337 N 1096.75 1.52266 0.40654 0
M  V30 11338 C 1098.17 1.41127 0.745348 0
M  V30 11339 C 1098.37 0.517802 1.94733 0
M  V30 11340 O 1097.42 -0.0154286 2.52495 0
M  V30 11341 C 1098.74 2.83696 0.996859 0
M  V30 11342 C 1100.28 2.93056 1.09942 0
M  V30 11343 C 1100.76 4.36599 1.38367 0
M  V30 11344 N 1102.25 4.39845 1.45226 0
M  V30 11345 C 1102.98 5.47975 1.68852 0
M  V30 11346 N 1102.48 6.66219 1.90065 0
M  V30 11347 N 1104.27 5.35494 1.70888 0
M  V30 11348 H 1096.42 2.08888 -0.384632 0
M  V30 11349 H 1098.69 0.941619 -0.109809 0
M  V30 11350 H 1098.39 3.51208 0.185986 0
M  V30 11351 H 1098.27 3.24895 1.91632 0
M  V30 11352 H 1100.65 2.25723 1.90088 0
M  V30 11353 H 1100.74 2.5531 0.158256 0
M  V30 11354 H 1100.38 5.04492 0.587373 0
M  V30 11355 H 1100.31 4.71883 2.33739 0
M  V30 11356 H 1102.8 3.54611 1.30612 0
M  V30 11357 H 1103.11 7.44408 2.0755 0
M  V30 11358 H 1101.46 6.69279 1.87325 0
M  V30 11359 H 1104.65 4.42093 1.53856 0
M  V30 11360 H 1104.82 6.19837 1.88962 0
M  V30 11361 N 1098.23 -0.663929 1.42933 0
M  V30 11362 C 1099.18 -1.79843 1.4751 0
M  V30 11363 C 1100.17 -1.65751 0.349727 0
M  V30 11364 O 1101.38 -1.72227 0.523239 0
M  V30 11365 H 1097.75 -0.593176 0.462219 0
M  V30 11366 H 1099.72 -1.73102 2.4306 0
M  V30 11367 C 1098.47 -3.18053 1.4049 0
M  V30 11368 H 1097.79 -3.29529 2.26386 0
M  V30 11369 H 1099.23 -3.97423 1.47754 0
M  V30 11370 C 1097.69 -3.36682 0.121076 0
M  V30 11371 O 1098.22 -3.93202 -0.821874 0
M  V30 11372 N 1096.43 -2.90579 0.0347141 0
M  V30 11373 H 1095.98 -2.44769 0.802852 0
M  V30 11374 H 1095.93 -3.03421 -0.823607 0
M  V30 11375 N 1099.71 -1.29285 -0.901281 0
M  V30 11376 C 1100.96 -1.16538 -1.64626 0
M  V30 11377 C 1101.27 0.282623 -1.93547 0
M  V30 11378 O 1102.47 0.531396 -2.66249 0
M  V30 11379 C 1100.93 -2.03809 -2.96631 0
M  V30 11380 C 1100.54 -3.53423 -2.75311 0
M  V30 11381 C 1102.28 -1.99782 -3.7455 0
M  V30 11382 C 1100.19 -4.32804 -4.03032 0
M  V30 11383 H 1099.12 -0.432561 -0.617581 0
M  V30 11384 H 1101.77 -1.53912 -0.999159 0
M  V30 11385 H 1100.15 -1.59302 -3.62545 0
M  V30 11386 H 1101.33 -4.05971 -2.18 0
M  V30 11387 H 1099.64 -3.59106 -2.10789 0
M  V30 11388 H 1102.24 -2.5635 -4.69243 0
M  V30 11389 H 1102.58 -0.97743 -4.04663 0
M  V30 11390 H 1103.11 -2.42324 -3.15474 0
M  V30 11391 H 1099.85 -5.35473 -3.78086 0
M  V30 11392 H 1099.37 -3.85025 -4.59909 0
M  V30 11393 H 1101.05 -4.43383 -4.71191 0
M  V30 11394 N 1101.18 1.11143 -1.11736 0
M  V30 11395 C 1102.11 2.19339 -0.800795 0
M  V30 11396 C 1103.1 1.68508 0.23221 0
M  V30 11397 O 1104.28 1.93967 0.0950063 0
M  V30 11398 C 1101.41 3.46424 -0.246579 0
M  V30 11399 C 1100.36 4.10487 -1.21181 0
M  V30 11400 C 1099.69 5.32183 -0.518158 0
M  V30 11401 C 1100.99 4.55052 -2.56368 0
M  V30 11402 H 1102.68 2.46077 -1.70548 0
M  V30 11403 H 1100.23 1.18271 -0.821454 0
M  V30 11404 H 1102.18 4.21398 -0.0128889 0
M  V30 11405 H 1100.91 3.19154 0.693415 0
M  V30 11406 H 1099.57 3.3751 -1.43118 0
M  V30 11407 H 1099.21 5.01187 0.426742 0
M  V30 11408 H 1098.91 5.75997 -1.16196 0
M  V30 11409 H 1100.44 6.09895 -0.293333 0
M  V30 11410 H 1101.85 5.21335 -2.38501 0
M  V30 11411 H 1100.25 5.0969 -3.16758 0
M  V30 11412 H 1101.32 3.68343 -3.1536 0
M  V30 11413 N 1102.66 0.908147 1.28804 0
M  V30 11414 C 1103.91 0.539201 1.95501 0
M  V30 11415 C 1104.24 -0.913759 1.7136 0
M  V30 11416 O 1103.52 -1.64904 1.03136 0
M  V30 11417 C 1103.8 0.842372 3.50109 0
M  V30 11418 C 1103.65 2.34765 3.83673 0
M  V30 11419 C 1104.97 0.334658 4.38826 0
M  V30 11420 H 1102.09 0.197373 0.71008 0
M  V30 11421 H 1104.73 1.13637 1.52272 0
M  V30 11422 H 1102.88 0.334143 3.8706 0
M  V30 11423 H 1104.55 2.92607 3.56621 0
M  V30 11424 H 1102.8 2.80494 3.30916 0
M  V30 11425 H 1103.47 2.51034 4.91616 0
M  V30 11426 H 1105.94 0.769961 4.08914 0
M  V30 11427 H 1104.82 0.575914 5.4587 0
M  V30 11428 H 1105.08 -0.764878 4.35433 0
M  V30 11429 N 1104.14 -1.42577 0.671525 0
M  V30 11430 C 1105.09 -2.32591 -0.0205354 0
M  V30 11431 C 1106.08 -1.4964 -0.793993 0
M  V30 11432 O 1107.29 -1.65733 -0.702327 0
M  V30 11433 H 1103.66 -0.75157 -0.0254344 0
M  V30 11434 H 1105.63 -2.88662 0.756082 0
M  V30 11435 C 1104.38 -3.34175 -0.960316 0
M  V30 11436 H 1103.71 -3.98041 -0.374577 0
M  V30 11437 H 1105.15 -3.99752 -1.4133 0
M  V30 11438 C 1103.61 -2.66184 -2.06513 0
M  V30 11439 O 1104.14 -2.49125 -3.15119 0
M  V30 11440 N 1102.34 -2.25261 -1.83591 0
M  V30 11441 H 1101.89 -2.39336 -0.952689 0
M  V30 11442 H 1101.85 -1.80101 -2.57703 0
M  V30 11443 N 1105.62 -0.414636 -1.52048 0
M  V30 11444 C 1106.84 0.161137 -2.06773 0
M  V30 11445 C 1107.27 1.37628 -1.2822 0
M  V30 11446 O 1106.63 1.78562 -0.313915 0
M  V30 11447 C 1106.67 0.48452 -3.5733 0
M  V30 11448 O 1105.78 1.57466 -3.81154 0
M  V30 11449 H 1105.12 0.0118003 -0.663895 0
M  V30 11450 H 1107.65 -0.589424 -1.95926 0
M  V30 11451 H 1107.66 0.741567 -4.01204 0
M  V30 11452 H 1106.33 -0.403733 -4.13936 0
M  V30 11453 H 1104.91 1.30935 -3.49157 0
M  V30 11454 N 1107.1 1.56929 -0.145233 0
M  V30 11455 C 1108.04 2.17958 0.812237 0
M  V30 11456 C 1109.04 1.13608 1.25657 0
M  V30 11457 O 1110.24 1.31861 1.22526 0
M  V30 11458 H 1106.62 0.697876 0.28013 0
M  V30 11459 H 1108.59 2.97146 0.273297 0
M  V30 11460 C 1107.34 2.81418 2.04203 0
M  V30 11461 H 1106.66 3.61427 1.70911 0
M  V30 11462 H 1108.1 3.27624 2.69144 0
M  V30 11463 C 1106.56 1.79835 2.84888 0
M  V30 11464 O 1107.09 1.26773 3.81171 0
M  V30 11465 N 1105.3 1.49179 2.49387 0
M  V30 11466 H 1104.84 1.9252 1.71154 0
M  V30 11467 H 1104.8 0.81458 3.03664 0
M  V30 11468 N 1108.58 -0.128553 1.57075 0
M  V30 11469 C 1109.51 -1.15953 2.02675 0
M  V30 11470 C 1110.49 -1.43743 0.909501 0
M  V30 11471 O 1111.67 -1.54348 1.17857 0
M  V30 11472 C 1108.8 -2.48813 2.423 0
M  V30 11473 C 1107.76 -2.35506 3.57381 0
M  V30 11474 C 1107.08 -3.73243 3.82875 0
M  V30 11475 C 1108.38 -1.82359 4.89431 0
M  V30 11476 H 1110.08 -0.780283 2.89054 0
M  V30 11477 H 1107.62 -0.373896 1.39061 0
M  V30 11478 H 1109.57 -3.21179 2.72804 0
M  V30 11479 H 1108.3 -2.88609 1.52881 0
M  V30 11480 H 1106.96 -1.6559 3.27071 0
M  V30 11481 H 1106.61 -4.10507 2.90677 0
M  V30 11482 H 1106.31 -3.65195 4.60333 0
M  V30 11483 H 1107.83 -4.47128 4.15823 0
M  V30 11484 H 1109.24 -2.44533 5.18533 0
M  V30 11485 H 1107.64 -1.85156 5.70822 0
M  V30 11486 H 1108.71 -0.780478 4.78578 0
M  V30 11487 N 1110.05 -1.5248 -0.398459 0
M  V30 11488 C 1111.3 -1.67309 -1.1461 0
M  V30 11489 C 1111.63 -0.407095 -1.89885 0
M  V30 11490 O 1110.91 0.594834 -1.85181 0
M  V30 11491 C 1111.19 -2.90204 -2.13198 0
M  V30 11492 C 1111.04 -4.26881 -1.4175 0
M  V30 11493 C 1112.36 -3.08634 -3.13741 0
M  V30 11494 H 1109.48 -0.608853 -0.415292 0
M  V30 11495 H 1112.12 -1.85057 -0.430573 0
M  V30 11496 H 1110.27 -2.75204 -2.74218 0
M  V30 11497 H 1111.95 -4.53631 -0.837676 0
M  V30 11498 H 1110.19 -4.27793 -0.719387 0
M  V30 11499 H 1110.86 -5.08939 -2.1374 0
M  V30 11500 H 1113.34 -3.22603 -2.62805 0
M  V30 11501 H 1112.21 -3.96117 -3.79977 0
M  V30 11502 H 1112.47 -2.22425 -3.82073 0
M  V30 11503 N 1111.53 0.65634 -1.43283 0
M  V30 11504 C 1112.77 1.4281 -1.46235 0
M  V30 11505 C 1113.14 1.9182 -0.0830126 0
M  V30 11506 O 1114.34 2.68797 0.0127701 0
M  V30 11507 C 1112.61 2.58008 -2.47319 0
M  V30 11508 S 1114.17 3.46582 -2.69122 0
M  V30 11509 H 1110.98 0.487523 -0.517534 0
M  V30 11510 H 1113.59 0.762298 -1.80026 0
M  V30 11511 H 1112.29 2.20271 -3.46279 0
M  V30 11512 H 1111.82 3.29441 -2.15016 0
M  V30 11513 H 1113.84 4.54629 -1.98813 0
M  V30 11514 N 1113.01 1.29761 0.894412 0
M  V30 11515 C 1113.96 1.15341 1.99912 0
M  V30 11516 C 1114.93 0.0453488 1.66038 0
M  V30 11517 O 1116.11 0.213829 1.89598 0
M  V30 11518 C 1113.25 0.841432 3.34685 0
M  V30 11519 C 1112.36 2.03046 3.81309 0
M  V30 11520 C 1111.5 1.65739 5.04682 0
M  V30 11521 C 1110.54 2.81191 5.43689 0
M  V30 11522 N 1109.68 2.44244 6.58247 0
M  V30 11523 H 1114.52 2.09854 2.11578 0
M  V30 11524 H 1112.05 1.04421 1.03608 0
M  V30 11525 H 1114.01 0.641211 4.12243 0
M  V30 11526 H 1112.64 -0.066797 3.22731 0
M  V30 11527 H 1111.69 2.34222 2.9974 0
M  V30 11528 H 1113 2.89538 4.06164 0
M  V30 11529 H 1112.16 1.42036 5.8984 0
M  V30 11530 H 1110.9 0.764019 4.81678 0
M  V30 11531 H 1109.9 3.0557 4.57064 0
M  V30 11532 H 1111.13 3.712 5.68672 0
M  V30 11533 H 1109.07 1.57402 6.36837 0
M  V30 11534 H 1108.99 3.24269 6.82924 0
M  V30 11535 H 1110.26 2.23875 7.46659 0
M  V30 11536 N 1114.49 -1.10549 1.12324 0
M  V30 11537 C 1115.73 -1.82755 0.879117 0
M  V30 11538 C 1116.07 -1.84905 -0.593604 0
M  V30 11539 O 1115.34 -1.30884 -1.43873 0
M  V30 11540 C 1115.62 -3.29481 1.45308 0
M  V30 11541 C 1115.48 -3.3567 2.99408 0
M  V30 11542 C 1116.8 -4.25828 1.11167 0
M  V30 11543 H 1113.92 -0.663513 0.32081 0
M  V30 11544 H 1116.56 -1.29572 1.38965 0
M  V30 11545 H 1114.71 -3.74902 1.01887 0
M  V30 11546 H 1116.38 -2.98739 3.515 0
M  V30 11547 H 1114.62 -2.75606 3.34998 0
M  V30 11548 H 1115.29 -4.38983 3.34661 0
M  V30 11549 H 1117.77 -3.88635 1.48667 0
M  V30 11550 H 1116.65 -5.26857 1.53991 0
M  V30 11551 H 1116.91 -4.42094 0.0237046 0
M  V30 11552 N 1115.97 -0.914965 -1.28321 0
M  V30 11553 C 1117.19 -0.564023 -1.99583 0
M  V30 11554 C 1117.62 0.847821 -1.6791 0
M  V30 11555 O 1116.97 1.56682 -0.912171 0
M  V30 11556 C 1117.02 -0.781368 -3.52033 0
M  V30 11557 O 1116.13 0.159072 -4.12093 0
M  V30 11558 H 1115.47 -0.218565 -0.626997 0
M  V30 11559 H 1118 -1.23074 -1.63444 0
M  V30 11560 H 1118.01 -0.691946 -4.0209 0
M  V30 11561 H 1116.68 -1.81059 -3.7442 0
M  V30 11562 H 1115.26 0.0208145 -3.72894 0
M  V30 11563 N 1117.44 1.42219 -0.679077 0
M  V30 11564 C 1118.72 1.95155 -0.13188 0
M  V30 11565 C 1119.1 1.6193 1.35433 0
M  V30 11566 O 1118.45 0.917672 2.09263 0
M  V30 11567 C 1118.66 3.46635 -0.405578 0
M  V30 11568 C 1120.01 4.23359 -0.324394 0
M  V30 11569 O 1121.03 3.54578 -0.339564 0
M  V30 11570 O 1119.89 5.45831 -0.270268 0
M  V30 11571 H 1116.98 0.826983 -0.00535438 0
M  V30 11572 H 1119.53 1.52024 -0.754101 0
M  V30 11573 H 1118.3 3.6404 -1.43495 0
M  V30 11574 H 1117.92 3.96823 0.248439 0
M  V30 11575 N 1118.92 0.422693 1.51826 0
M  V30 11576 C 1120.17 -0.148641 2.01954 0
M  V30 11577 C 1120.5 -1.43982 1.30765 0
M  V30 11578 O 1119.75 -1.91428 0.406668 0
M  V30 11579 C 1120.05 -0.429516 3.5481 0
M  V30 11580 C 1119.72 0.774088 4.44206 0
M  V30 11581 C 1118.38 1.1042 4.6836 0
M  V30 11582 C 1120.73 1.5777 4.96747 0
M  V30 11583 C 1118.06 2.23887 5.42302 0
M  V30 11584 C 1120.41 2.70325 5.71933 0
M  V30 11585 C 1119.07 3.03807 5.94355 0
M  V30 11586 H 1118.34 -0.0543917 0.739001 0
M  V30 11587 H 1120.99 0.566892 1.82917 0
M  V30 11588 H 1119.3 -1.22678 3.72099 0
M  V30 11589 H 1120.99 -0.884761 3.91118 0
M  V30 11590 H 1117.58 0.506834 4.25593 0
M  V30 11591 H 1121.77 1.33589 4.77983 0
M  V30 11592 H 1117.02 2.50159 5.5788 0
M  V30 11593 H 1121.2 3.32974 6.11638 0
M  V30 11594 H 1118.82 3.91844 6.51431 0
M  V30 11595 N 1120.4 -1.5685 0.153553 0
M  V30 11596 C 1121.65 -1.95946 -0.494936 0
M  V30 11597 C 1121.97 -1.03975 -1.64967 0
M  V30 11598 O 1121.24 -0.102572 -1.95631 0
M  V30 11599 H 1119.82 -0.723516 -0.185833 0
M  V30 11600 H 1122.48 -1.93531 0.230585 0
M  V30 11601 H 1121.58 -2.99823 -0.866743 0
M  V30 11602 N 1121.88 0.120221 -1.57141 0
M  V30 11603 C 1122.81 1.14876 -2.03287 0
M  V30 11604 C 1123.79 1.43259 -0.917112 0
M  V30 11605 O 1124.97 1.53721 -1.18674 0
M  V30 11606 C 1122.1 2.47525 -2.43616 0
M  V30 11607 C 1121.06 2.33607 -3.58625 0
M  V30 11608 C 1120.38 3.71207 -3.84849 0
M  V30 11609 C 1121.68 1.79761 -4.90391 0
M  V30 11610 H 1123.38 0.764943 -2.89463 0
M  V30 11611 H 1120.92 0.366516 -1.39258 0
M  V30 11612 H 1122.88 3.19728 -2.74504 0
M  V30 11613 H 1121.6 2.87794 -1.54409 0
M  V30 11614 H 1120.26 1.63853 -3.27945 0
M  V30 11615 H 1119.91 4.0896 -2.9285 0
M  V30 11616 H 1119.61 3.62749 -4.62263 0
M  V30 11617 H 1121.13 4.44917 -4.18188 0
M  V30 11618 H 1122.55 2.4178 -5.19822 0
M  V30 11619 H 1120.94 1.82126 -5.71795 0
M  V30 11620 H 1122.01 0.755087 -4.78985 0
M  V30 11621 N 1123.36 1.52689 0.390367 0
M  V30 11622 C 1124.58 1.71839 1.16129 0
M  V30 11623 C 1125.01 0.435226 1.82996 0
M  V30 11624 O 1124.36 -0.60889 1.70769 0
M  V30 11625 C 1124.41 2.86784 2.18603 0
M  V30 11626 O 1123.52 2.53662 3.25161 0
M  V30 11627 H 1122.86 0.571455 0.338135 0
M  V30 11628 H 1125.39 1.99475 0.45508 0
M  V30 11629 H 1125.4 3.12239 2.62622 0
M  V30 11630 H 1124.07 3.79872 1.69322 0
M  V30 11631 H 1122.65 2.38942 2.86289 0
M  V30 11632 N 1124.83 -0.648732 1.43629 0
M  V30 11633 C 1126.25 -0.964917 1.27128 0
M  V30 11634 C 1126.45 -2.00561 0.194251 0
M  V30 11635 O 1125.51 -2.48884 -0.42581 0
M  V30 11636 C 1126.82 -1.44491 2.6371 0
M  V30 11637 C 1128.37 -1.56133 2.71278 0
M  V30 11638 C 1128.84 -2.07521 4.08288 0
M  V30 11639 N 1130.33 -2.14817 4.10375 0
M  V30 11640 C 1131.07 -2.55712 5.13224 0
M  V30 11641 N 1130.56 -2.9587 6.26444 0
M  V30 11642 N 1132.36 -2.55691 5.00578 0
M  V30 11643 H 1124.51 0.0398357 2.12363 0
M  V30 11644 H 1126.77 -0.0447705 0.946942 0
M  V30 11645 H 1126.48 -0.754616 3.43509 0
M  V30 11646 H 1126.35 -2.41914 2.89409 0
M  V30 11647 H 1128.74 -2.24263 1.91808 0
M  V30 11648 H 1128.82 -0.571314 2.49338 0
M  V30 11649 H 1128.46 -1.39992 4.88226 0
M  V30 11650 H 1128.39 -3.07362 4.27594 0
M  V30 11651 H 1130.88 -1.86538 3.28652 0
M  V30 11652 H 1131.2 -3.25837 7.0075 0
M  V30 11653 H 1129.54 -2.93664 6.2991 0
M  V30 11654 H 1132.73 -2.23697 4.1119 0
M  V30 11655 H 1132.91 -2.87239 5.80859 0
M  V30 11656 N 1126.31 -1.30234 -0.887518 0
M  V30 11657 C 1127.56 -1.19086 -1.64153 0
M  V30 11658 C 1127.89 0.254428 -1.92526 0
M  V30 11659 O 1127.17 1.18233 -1.54438 0
M  V30 11660 C 1127.45 -2.01723 -2.98295 0
M  V30 11661 C 1127.3 -3.54458 -2.76911 0
M  V30 11662 C 1128.62 -1.85307 -3.99186 0
M  V30 11663 H 1125.74 -0.433967 -0.595686 0
M  V30 11664 H 1128.38 -1.59839 -1.0272 0
M  V30 11665 H 1126.53 -1.67096 -3.5073 0
M  V30 11666 H 1128.2 -3.99131 -2.31284 0
M  V30 11667 H 1126.45 -3.78768 -2.11464 0
M  V30 11668 H 1127.12 -4.07565 -3.72283 0
M  V30 11669 H 1129.59 -2.15575 -3.55903 0
M  V30 11670 H 1128.47 -2.45456 -4.90961 0
M  V30 11671 H 1128.73 -0.811528 -4.34588 0
M  V30 11672 N 1127.79 1.09952 -1.12909 0
M  V30 11673 C 1128.72 2.18477 -0.824014 0
M  V30 11674 C 1129.7 1.68744 0.214324 0
M  V30 11675 O 1130.89 1.94057 0.0744281 0
M  V30 11676 C 1128.02 3.46143 -0.283308 0
M  V30 11677 C 1126.97 4.09178 -1.25528 0
M  V30 11678 C 1126.3 5.31604 -0.574574 0
M  V30 11679 C 1127.6 4.52308 -2.6118 0
M  V30 11680 H 1129.29 2.44254 -1.73148 0
M  V30 11681 H 1126.84 1.17394 -0.833952 0
M  V30 11682 H 1128.79 4.21361 -0.057583 0
M  V30 11683 H 1127.51 3.19872 0.659525 0
M  V30 11684 H 1126.17 3.35973 -1.4669 0
M  V30 11685 H 1125.82 5.01611 0.37356 0
M  V30 11686 H 1125.52 5.74732 -1.22299 0
M  V30 11687 H 1127.04 6.0955 -0.358004 0
M  V30 11688 H 1128.46 5.18776 -2.44017 0
M  V30 11689 H 1126.86 5.06302 -3.22147 0
M  V30 11690 H 1127.93 3.64977 -3.19249 0
M  V30 11691 N 1129.27 0.921757 1.27833 0
M  V30 11692 C 1130.18 0.421668 2.30779 0
M  V30 11693 C 1131.19 -0.494686 1.6682 0
M  V30 11694 O 1132.37 -0.378935 1.97803 0
M  V30 11695 C 1129.44 -0.322928 3.45193 0
M  V30 11696 C 1128.5 0.627618 4.24687 0
M  V30 11697 C 1127.73 -0.0815385 5.33638 0
M  V30 11698 O 1127.95 -1.30193 5.55343 0
M  V30 11699 O 1126.89 0.58725 5.99028 0
M  V30 11700 H 1130.71 1.2763 2.7558 0
M  V30 11701 H 1128.3 0.686877 1.32674 0
M  V30 11702 H 1130.18 -0.743145 4.14796 0
M  V30 11703 H 1128.85 -1.15326 3.02459 0
M  V30 11704 H 1127.76 1.09739 3.57642 0
M  V30 11705 H 1129.09 1.425 4.71121 0
M  V30 11706 N 1130.75 -1.41857 0.686609 0
M  V30 11707 C 1132.02 -1.95082 0.142228 0
M  V30 11708 C 1132.4 -1.62646 -1.34572 0
M  V30 11709 O 1131.75 -0.928757 -2.08773 0
M  V30 11710 C 1131.96 -3.46415 0.423955 0
M  V30 11711 C 1133.31 -4.23181 0.346842 0
M  V30 11712 O 1134.33 -3.54393 0.358363 0
M  V30 11713 O 1133.19 -5.4568 0.299211 0
M  V30 11714 H 1130.29 -0.826943 0.00974 0
M  V30 11715 H 1132.83 -1.51622 0.762153 0
M  V30 11716 H 1131.6 -3.63273 1.45424 0
M  V30 11717 H 1131.23 -3.96949 -0.227391 0
M  V30 11718 N 1132.22 -0.430739 -1.51599 0
M  V30 11719 C 1133.5 0.197543 -1.946 0
M  V30 11720 C 1133.88 1.6069 -1.36901 0
M  V30 11721 O 1133.23 2.21697 -0.553422 0
M  V30 11722 C 1133.44 0.181976 -3.48525 0
M  V30 11723 C 1134.79 0.390783 -4.22798 0
M  V30 11724 O 1135.81 0.260384 -3.55247 0
M  V30 11725 O 1134.67 0.649701 -5.42624 0
M  V30 11726 H 1131.76 0.133524 -0.81615 0
M  V30 11727 H 1134.31 -0.488243 -1.62525 0
M  V30 11728 H 1133.08 -0.803584 -3.8296 0
M  V30 11729 H 1132.71 0.910952 -3.87024 0
M  V30 11730 N 1133.7 1.56767 -0.161869 0
M  V30 11731 C 1135.11 1.83265 0.356466 0
M  V30 11732 C 1135.46 1.08127 1.63716 0
M  V30 11733 O 1134.59 0.33127 2.13849 0
M  V30 11734 C 1135.18 3.32437 0.653521 0
M  V30 11735 C 1133.74 3.59465 1.11633 0
M  V30 11736 C 1132.89 2.76909 0.147204 0
M  V30 11737 H 1135.84 1.53926 -0.386308 0
M  V30 11738 H 1135.86 3.49401 1.50662 0
M  V30 11739 H 1135.37 3.87098 -0.278766 0
M  V30 11740 H 1133.48 3.10206 2.06404 0
M  V30 11741 H 1133.59 4.67853 1.03202 0
M  V30 11742 H 1131.95 2.46457 0.642739 0
M  V30 11743 H 1132.74 3.34346 -0.778938 0
M  V30 11744 N 1135.18 -0.111886 1.57202 0
M  V30 11745 C 1136.09 -1.1556 2.04165 0
M  V30 11746 C 1137.11 -1.44898 0.963354 0
M  V30 11747 O 1138.28 -1.55873 1.27536 0
M  V30 11748 C 1135.35 -2.46048 2.44256 0
M  V30 11749 C 1134.41 -2.24043 3.66201 0
M  V30 11750 C 1133.64 -3.4831 4.04371 0
M  V30 11751 O 1133.86 -4.55895 3.42806 0
M  V30 11752 O 1132.8 -3.38891 4.9743 0
M  V30 11753 H 1136.62 -0.786778 2.93332 0
M  V30 11754 H 1134.21 -0.323196 1.45862 0
M  V30 11755 H 1136.09 -3.22916 2.70745 0
M  V30 11756 H 1134.77 -2.8239 1.58233 0
M  V30 11757 H 1133.67 -1.4501 3.44852 0
M  V30 11758 H 1135.01 -1.92602 4.52952 0
M  V30 11759 N 1136.66 -1.52894 -0.382264 0
M  V30 11760 C 1137.62 -1.77497 -1.45008 0
M  V30 11761 C 1138.62 -0.64509 -1.47293 0
M  V30 11762 O 1139.81 -0.913192 -1.48346 0
M  V30 11763 C 1136.94 -1.88188 -2.8425 0
M  V30 11764 H 1138.14 -2.72849 -1.24473 0
M  V30 11765 H 1135.69 -1.43717 -0.61441 0
M  V30 11766 H 1136.42 -0.948451 -3.10121 0
M  V30 11767 H 1136.21 -2.70353 -2.83992 0
M  V30 11768 H 1137.7 -2.08873 -3.6161 0
M  V30 11769 N 1138.14 0.641106 -1.43971 0
M  V30 11770 C 1139.37 1.42829 -1.49692 0
M  V30 11771 C 1139.78 1.88427 -0.118594 0
M  V30 11772 O 1139.14 1.60234 0.873581 0
M  V30 11773 C 1139.19 2.65524 -2.45314 0
M  V30 11774 O 1138.91 2.2183 -3.77787 0
M  V30 11775 C 1140.41 3.58758 -2.60399 0
M  V30 11776 H 1137.63 0.438367 -0.508011 0
M  V30 11777 H 1140.17 0.784933 -1.88836 0
M  V30 11778 H 1138.33 3.25973 -2.09332 0
M  V30 11779 H 1138.74 3.01303 -4.29321 0
M  V30 11780 H 1140.22 4.41483 -3.31357 0
M  V30 11781 H 1140.69 4.06909 -1.65294 0
M  V30 11782 H 1141.3 3.04184 -2.97241 0
M  V30 11783 N 1139.62 1.30703 0.880598 0
M  V30 11784 C 1140.85 1.22536 1.66339 0
M  V30 11785 C 1141.25 -0.213507 1.87991 0
M  V30 11786 O 1140.6 -1.15236 1.43061 0
M  V30 11787 C 1140.66 1.88798 3.05934 0
M  V30 11788 C 1140.32 3.38131 3.07435 0
M  V30 11789 C 1141.32 4.34053 2.86171 0
M  V30 11790 C 1139 3.79651 3.28893 0
M  V30 11791 C 1141 5.69469 2.86328 0
M  V30 11792 C 1138.69 5.15182 3.2868 0
M  V30 11793 C 1139.68 6.09902 3.07423 0
M  V30 11794 O 1139.37 7.42957 3.07034 0
M  V30 11795 H 1139.1 0.425018 0.525677 0
M  V30 11796 H 1141.66 1.72939 1.1082 0
M  V30 11797 H 1139.89 1.3293 3.63134 0
M  V30 11798 H 1141.58 1.74691 3.66385 0
M  V30 11799 H 1142.34 4.03307 2.69385 0
M  V30 11800 H 1138.22 3.06365 3.44473 0
M  V30 11801 H 1141.77 6.43375 2.69655 0
M  V30 11802 H 1137.66 5.45567 3.45002 0
M  V30 11803 H 1138.43 7.52 3.23169 0
M  V30 11804 N 1141.09 -1.09351 1.1349 0
M  V30 11805 C 1142.32 -1.85304 0.920324 0
M  V30 11806 C 1142.74 -1.81182 -0.530883 0
M  V30 11807 O 1142.09 -1.20853 -1.36751 0
M  V30 11808 C 1142.14 -3.33249 1.40098 0
M  V30 11809 O 1141.87 -3.37333 2.79531 0
M  V30 11810 C 1143.37 -4.2604 1.22495 0
M  V30 11811 H 1140.59 -0.585294 0.328134 0
M  V30 11812 H 1143.13 -1.38168 1.50765 0
M  V30 11813 H 1141.29 -3.7781 0.85664 0
M  V30 11814 H 1141.7 -4.29614 3.00885 0
M  V30 11815 H 1143.17 -5.27999 1.61 0
M  V30 11816 H 1143.65 -4.38883 0.166717 0
M  V30 11817 H 1144.26 -3.87295 1.75735 0
M  V30 11818 N 1142.57 -0.928524 -1.27343 0
M  V30 11819 C 1143.8 -0.585734 -1.98436 0
M  V30 11820 C 1144.21 0.83644 -1.69261 0
M  V30 11821 O 1143.57 1.55603 -0.953626 0
M  V30 11822 C 1143.62 -0.803092 -3.52467 0
M  V30 11823 O 1143.34 -2.16932 -3.80621 0
M  V30 11824 C 1144.84 -0.469127 -4.40811 0
M  V30 11825 H 1142.06 -0.221887 -0.633251 0
M  V30 11826 H 1144.61 -1.24577 -1.62175 0
M  V30 11827 H 1142.76 -0.189846 -3.86935 0
M  V30 11828 H 1143.18 -2.21992 -4.75205 0
M  V30 11829 H 1144.65 -0.671906 -5.47895 0
M  V30 11830 H 1145.13 0.595365 -4.35146 0
M  V30 11831 H 1145.73 -1.06055 -4.11865 0
M  V30 11832 N 1144.05 1.41491 -0.694123 0
M  V30 11833 C 1145.27 2.06099 -0.23197 0
M  V30 11834 C 1145.7 1.51888 1.10958 0
M  V30 11835 O 1145.06 0.645247 1.69429 0
M  V30 11836 C 1145.11 3.60053 -0.198522 0
M  V30 11837 O 1144.21 4.04021 0.827067 0
M  V30 11838 H 1143.55 0.654193 -0.113699 0
M  V30 11839 H 1146.08 1.81282 -0.948575 0
M  V30 11840 H 1146.09 4.0799 -0.0288904 0
M  V30 11841 H 1144.77 3.98879 -1.17764 0
M  V30 11842 H 1143.34 3.67593 0.626908 0
M  V30 11843 N 1145.53 0.438773 1.51369 0
M  V30 11844 C 1146.78 -0.126962 2.01701 0
M  V30 11845 C 1147.1 -1.43086 1.32481 0
M  V30 11846 O 1146.37 -1.90427 0.459823 0
M  V30 11847 H 1144.95 -0.0499092 0.745331 0
M  V30 11848 H 1147.61 0.581808 1.86013 0
M  V30 11849 H 1146.7 -0.301836 3.10637 0
M  V30 11850 N 1147.01 -1.56678 0.170181 0
M  V30 11851 C 1148.25 -1.9646 -0.474125 0
M  V30 11852 C 1148.57 -1.05719 -1.63855 0
M  V30 11853 O 1147.84 -0.123316 -1.95511 0
M  V30 11854 H 1146.42 -0.725446 -0.178149 0
M  V30 11855 H 1149.09 -1.93276 0.251099 0
M  V30 11856 H 1148.18 -3.00726 -0.834894 0
M  V30 11857 N 1148.48 0.103547 -1.57259 0
M  V30 11858 C 1149.43 1.12621 -2.01458 0
M  V30 11859 C 1150.4 1.40282 -0.889391 0
M  V30 11860 O 1151.59 1.51887 -1.15477 0
M  V30 11861 C 1148.73 2.44352 -2.43692 0
M  V30 11862 C 1147.84 2.23495 -3.69695 0
M  V30 11863 C 1146.97 3.48565 -4.00844 0
M  V30 11864 C 1146.01 3.22932 -5.19982 0
M  V30 11865 N 1145.15 4.40246 -5.46926 0
M  V30 11866 H 1149.99 0.742315 -2.88606 0
M  V30 11867 H 1147.53 0.355016 -1.42752 0
M  V30 11868 H 1149.48 3.2122 -2.66221 0
M  V30 11869 H 1148.11 2.80605 -1.59565 0
M  V30 11870 H 1147.17 1.3747 -3.54692 0
M  V30 11871 H 1148.48 2.0054 -4.56711 0
M  V30 11872 H 1147.63 4.33844 -4.24104 0
M  V30 11873 H 1146.37 3.74565 -3.12333 0
M  V30 11874 H 1145.38 2.36045 -4.96551 0
M  V30 11875 H 1146.6 2.98286 -6.10084 0
M  V30 11876 H 1144.55 4.66338 -4.61373 0
M  V30 11877 H 1144.46 4.20452 -6.28296 0
M  V30 11878 H 1145.73 5.26614 -5.74716 0
M  V30 11879 N 1149.96 1.53094 0.37415 0
M  V30 11880 C 1151.21 1.68082 1.11495 0
M  V30 11881 C 1151.52 0.434685 1.90709 0
M  V30 11882 O 1152.73 0.464956 2.67489 0
M  V30 11883 C 1151.19 2.97101 2.03124 0
M  V30 11884 C 1150.79 4.28947 1.29262 0
M  V30 11885 C 1152.54 3.21456 2.77248 0
M  V30 11886 C 1150.44 5.4906 2.19743 0
M  V30 11887 H 1149.37 0.626238 0.419931 0
M  V30 11888 H 1152.03 1.79594 0.376588 0
M  V30 11889 H 1150.41 2.79371 2.80656 0
M  V30 11890 H 1151.58 4.57279 0.568528 0
M  V30 11891 H 1149.9 4.10968 0.670362 0
M  V30 11892 H 1152.49 4.08377 3.45155 0
M  V30 11893 H 1152.84 2.37153 3.42146 0
M  V30 11894 H 1153.37 3.3982 2.06803 0
M  V30 11895 H 1150.11 6.35815 1.59437 0
M  V30 11896 H 1149.63 5.25019 2.90027 0
M  V30 11897 H 1151.31 5.83517 2.79495 0
M  V30 11898 N 1151.44 -0.633461 1.44309 0
M  V30 11899 C 1152.85 -1.21504 1.41752 0
M  V30 11900 C 1153.2 -1.95758 0.131667 0
M  V30 11901 O 1152.33 -2.02311 -0.768072 0
M  V30 11902 C 1152.92 -2.21005 2.56792 0
M  V30 11903 C 1151.48 -2.74596 2.57438 0
M  V30 11904 C 1150.63 -1.49555 2.33513 0
M  V30 11905 H 1153.58 -0.424277 1.52923 0
M  V30 11906 H 1153.6 -3.03563 2.29412 0
M  V30 11907 H 1153.11 -1.66934 3.50364 0
M  V30 11908 H 1151.21 -3.32676 1.67801 0
M  V30 11909 H 1151.33 -3.20794 3.55849 0
M  V30 11910 H 1149.69 -1.77605 1.82561 0
M  V30 11911 H 1150.47 -0.973899 3.29196 0
M  V30 11912 N 1152.92 -1.31168 -0.873655 0
M  V30 11913 C 1154.17 -1.20003 -1.62118 0
M  V30 11914 C 1154.48 0.241505 -1.94103 0
M  V30 11915 O 1155.69 0.474801 -2.67316 0
M  V30 11916 C 1154.14 -2.10055 -2.92241 0
M  V30 11917 C 1153.75 -3.59183 -2.67752 0
M  V30 11918 C 1155.49 -2.07681 -3.70228 0
M  V30 11919 C 1153.4 -4.41255 -3.93761 0
M  V30 11920 H 1152.33 -0.445564 -0.608267 0
M  V30 11921 H 1154.98 -1.55997 -0.966287 0
M  V30 11922 H 1153.36 -1.66956 -3.59085 0
M  V30 11923 H 1154.54 -4.10504 -2.09339 0
M  V30 11924 H 1152.85 -3.63496 -2.03125 0
M  V30 11925 H 1155.45 -2.66246 -4.637 0
M  V30 11926 H 1155.79 -1.06304 -4.02499 0
M  V30 11927 H 1156.33 -2.48961 -3.10263 0
M  V30 11928 H 1153.07 -5.43372 -3.66643 0
M  V30 11929 H 1152.59 -3.94694 -4.51638 0
M  V30 11930 H 1154.26 -4.53278 -4.6168 0
M  V30 11931 N 1154.4 1.08748 -1.14068 0
M  V30 11932 C 1155.81 1.33125 -0.880341 0
M  V30 11933 C 1156.01 1.9569 0.480396 0
M  V30 11934 O 1155.07 2.2077 1.22543 0
M  V30 11935 C 1156.38 2.23618 -2.01036 0
M  V30 11936 C 1157.93 2.37108 -2.04326 0
M  V30 11937 C 1158.4 3.30941 -3.1661 0
M  V30 11938 N 1159.9 3.38517 -3.16166 0
M  V30 11939 C 1160.63 4.11142 -3.99687 0
M  V30 11940 N 1160.13 4.86505 -4.93239 0
M  V30 11941 N 1161.92 4.06938 -3.87761 0
M  V30 11942 H 1154.07 0.665164 -2.01716 0
M  V30 11943 H 1156.33 0.355612 -0.878774 0
M  V30 11944 H 1156.04 1.84885 -2.99183 0
M  V30 11945 H 1155.91 3.24056 -1.93049 0
M  V30 11946 H 1158.3 2.75101 -1.06787 0
M  V30 11947 H 1158.38 1.36424 -2.16384 0
M  V30 11948 H 1158.03 2.93669 -4.14392 0
M  V30 11949 H 1157.96 4.31545 -3.01789 0
M  V30 11950 H 1160.45 2.84786 -2.48405 0
M  V30 11951 H 1160.76 5.39372 -5.53441 0
M  V30 11952 H 1159.1 4.8557 -4.9724 0
M  V30 11953 H 1162.3 3.47166 -3.13996 0
M  V30 11954 H 1162.47 4.63275 -4.53079 0
M  V30 11955 N 1155.87 0.935264 1.26849 0
M  V30 11956 C 1157.12 0.590057 1.94653 0
M  V30 11957 C 1157.48 -0.860481 1.72086 0
M  V30 11958 O 1156.77 -1.60672 1.04379 0
M  V30 11959 C 1156.96 0.861098 3.46872 0
M  V30 11960 C 1156.79 2.33643 3.84241 0
M  V30 11961 C 1155.56 2.99052 4.07303 0
M  V30 11962 C 1157.76 3.3145 3.9325 0
M  V30 11963 N 1155.74 4.36659 4.31511 0
M  V30 11964 C 1157.11 4.54294 4.21921 0
M  V30 11965 C 1159.17 3.26555 3.75854 0
M  V30 11966 C 1157.87 5.72854 4.35006 0
M  V30 11967 C 1159.9 4.44435 3.90168 0
M  V30 11968 C 1159.26 5.66059 4.19233 0
M  V30 11969 H 1155.36 0.266182 0.735303 0
M  V30 11970 H 1157.94 1.20345 1.53053 0
M  V30 11971 H 1156.11 0.276803 3.87412 0
M  V30 11972 H 1157.84 0.477757 4.0187 0
M  V30 11973 H 1154.6 2.49692 4.02431 0
M  V30 11974 H 1155.02 5.07869 4.47658 0
M  V30 11975 H 1159.67 2.33585 3.52417 0
M  V30 11976 H 1157.38 6.66283 4.57266 0
M  V30 11977 H 1160.97 4.42174 3.78119 0
M  V30 11978 H 1159.85 6.55753 4.30068 0
M  V30 11979 N 1157.35 -1.41121 0.701616 0
M  V30 11980 C 1158.58 -2.05452 0.244365 0
M  V30 11981 C 1159 -1.5282 -1.10866 0
M  V30 11982 O 1158.35 -0.67893 -1.69401 0
M  V30 11983 C 1158.4 -3.60946 0.200112 0
M  V30 11984 O 1158.12 -4.11632 1.4997 0
M  V30 11985 C 1159.63 -4.42431 -0.277394 0
M  V30 11986 H 1156.85 -0.66151 0.112453 0
M  V30 11987 H 1159.39 -1.80784 0.9559 0
M  V30 11988 H 1157.54 -3.84632 -0.462287 0
M  V30 11989 H 1157.96 -5.05723 1.39084 0
M  V30 11990 H 1159.43 -5.514 -0.257225 0
M  V30 11991 H 1159.91 -4.1898 -1.31728 0
M  V30 11992 H 1160.52 -4.23822 0.354223 0
M  V30 11993 N 1158.83 -0.446794 -1.51134 0
M  V30 11994 C 1159.79 0.348311 -2.26538 0
M  V30 11995 C 1160.79 0.941566 -1.3035 0
M  V30 11996 O 1161.98 0.814537 -1.53984 0
M  V30 11997 C 1159.12 1.49371 -3.06433 0
M  V30 11998 H 1160.31 -0.312648 -2.98266 0
M  V30 11999 H 1157.86 -0.200201 -1.55013 0
M  V30 12000 H 1158.6 2.19045 -2.39144 0
M  V30 12001 H 1158.38 1.07439 -3.77093 0
M  V30 12002 H 1159.87 2.05522 -3.63525 0
M  V30 12003 N 1160.31 1.56586 -0.178487 0
M  V30 12004 C 1161.72 1.83633 0.337009 0
M  V30 12005 C 1162.07 1.09857 1.6256 0
M  V30 12006 O 1161.2 0.353933 2.13486 0
M  V30 12007 C 1161.79 3.33112 0.618225 0
M  V30 12008 C 1160.35 3.60629 1.07814 0
M  V30 12009 C 1159.5 2.7705 0.117825 0
M  V30 12010 H 1162.45 1.53508 -0.402612 0
M  V30 12011 H 1162.47 3.5098 1.46947 0
M  V30 12012 H 1161.98 3.8678 -0.319808 0
M  V30 12013 H 1160.08 3.12378 2.03103 0
M  V30 12014 H 1160.19 4.68921 0.982339 0
M  V30 12015 H 1158.56 2.47125 0.616563 0
M  V30 12016 H 1159.34 3.33501 -0.814356 0
M  V30 12017 N 1161.79 -0.095206 1.57312 0
M  V30 12018 C 1162.7 -1.13388 2.05379 0
M  V30 12019 C 1163.71 -1.43868 0.978668 0
M  V30 12020 O 1164.89 -1.54512 1.29182 0
M  V30 12021 C 1161.95 -2.43444 2.46852 0
M  V30 12022 C 1161.01 -2.20146 3.68557 0
M  V30 12023 C 1160.25 -3.44001 4.08043 0
M  V30 12024 O 1160.47 -4.52233 3.47623 0
M  V30 12025 O 1159.4 -3.33596 5.00997 0
M  V30 12026 H 1163.23 -0.755622 2.9415 0
M  V30 12027 H 1160.82 -0.307707 1.46197 0
M  V30 12028 H 1162.7 -3.20027 2.74155 0
M  V30 12029 H 1161.37 -2.80696 1.61219 0
M  V30 12030 H 1160.28 -1.41345 3.46371 0
M  V30 12031 H 1161.61 -1.87787 4.54969 0
M  V30 12032 N 1163.26 -1.53291 -0.366026 0
M  V30 12033 C 1164.23 -1.79025 -1.43117 0
M  V30 12034 C 1165.23 -0.660676 -1.46601 0
M  V30 12035 O 1166.42 -0.928875 -1.47369 0
M  V30 12036 C 1163.55 -1.91192 -2.82238 0
M  V30 12037 H 1164.74 -2.74154 -1.21572 0
M  V30 12038 H 1162.3 -1.44361 -0.599132 0
M  V30 12039 H 1163.03 -0.98129 -3.09097 0
M  V30 12040 H 1162.82 -2.7335 -2.81109 0
M  V30 12041 H 1164.31 -2.12696 -3.59375 0
M  V30 12042 N 1164.74 0.6258 -1.44643 0
M  V30 12043 C 1165.99 1.38125 -1.46984 0
M  V30 12044 C 1166.3 1.95299 -0.108429 0
M  V30 12045 O 1167.51 2.71498 -0.00940005 0
M  V30 12046 C 1165.97 2.50108 -2.58793 0
M  V30 12047 C 1165.57 1.99424 -4.01166 0
M  V30 12048 C 1167.32 3.27269 -2.70361 0
M  V30 12049 C 1165.23 3.08781 -5.04389 0
M  V30 12050 H 1164.16 0.519083 -0.546872 0
M  V30 12051 H 1166.81 0.67268 -1.70726 0
M  V30 12052 H 1165.19 3.23565 -2.28302 0
M  V30 12053 H 1166.36 1.32797 -4.4125 0
M  V30 12054 H 1164.68 1.35063 -3.93887 0
M  V30 12055 H 1167.27 4.08802 -3.44652 0
M  V30 12056 H 1167.62 3.77097 -1.76362 0
M  V30 12057 H 1168.15 2.60905 -3.00289 0
M  V30 12058 H 1164.89 2.63891 -6.00035 0
M  V30 12059 H 1164.41 3.74033 -4.68892 0
M  V30 12060 H 1166.09 3.73469 -5.28328 0
M  V30 12061 N 1166.22 1.31629 0.866686 0
M  V30 12062 C 1167.45 1.24609 1.65793 0
M  V30 12063 C 1167.87 -0.184944 1.87189 0
M  V30 12064 O 1167.23 -1.1322 1.41601 0
M  V30 12065 C 1167.28 1.9988 3.00134 0
M  V30 12066 O 1166.38 1.33838 3.90079 0
M  V30 12067 H 1165.72 0.430051 0.505917 0
M  V30 12068 H 1168.25 1.73752 1.08035 0
M  V30 12069 H 1168.26 2.09599 3.50046 0
M  V30 12070 H 1166.94 3.03947 2.83882 0
M  V30 12071 H 1165.51 1.3259 3.48532 0
M  V30 12072 N 1167.7 -1.08142 1.14644 0
M  V30 12073 C 1168.93 -1.8405 0.938563 0
M  V30 12074 C 1169.34 -1.82017 -0.516361 0
M  V30 12075 O 1168.68 -1.22418 -1.36966 0
M  V30 12076 C 1168.74 -3.32563 1.36536 0
M  V30 12077 C 1168.41 -3.58327 2.83638 0
M  V30 12078 C 1169.4 -3.52944 3.81741 0
M  V30 12079 C 1167.09 -3.86251 3.21115 0
M  V30 12080 C 1169.08 -3.7512 5.15329 0
M  V30 12081 C 1166.77 -4.0808 4.54878 0
M  V30 12082 C 1167.77 -4.02508 5.51794 0
M  V30 12083 O 1167.46 -4.23761 6.83141 0
M  V30 12084 H 1167.19 -0.587793 0.33388 0
M  V30 12085 H 1169.74 -1.37467 1.52617 0
M  V30 12086 H 1167.97 -3.79917 0.721106 0
M  V30 12087 H 1169.66 -3.89915 1.12787 0
M  V30 12088 H 1170.43 -3.31382 3.54134 0
M  V30 12089 H 1166.31 -3.89707 2.46272 0
M  V30 12090 H 1169.85 -3.70686 5.90963 0
M  V30 12091 H 1165.75 -4.29126 4.82204 0
M  V30 12092 H 1166.51 -4.41152 6.8944 0
M  V30 12093 N 1169.18 -0.941978 -1.26351 0
M  V30 12094 C 1170.59 -0.644413 -1.46012 0
M  V30 12095 C 1170.79 0.802031 -1.84851 0
M  V30 12096 O 1169.85 1.57859 -1.9707 0
M  V30 12097 C 1171.16 -1.60652 -2.54188 0
M  V30 12098 C 1172.71 -1.6163 -2.68038 0
M  V30 12099 C 1173.19 -2.56573 -3.79387 0
M  V30 12100 N 1174.68 -2.54863 -3.8678 0
M  V30 12101 C 1175.41 -3.2501 -4.72394 0
M  V30 12102 N 1174.91 -4.04586 -5.6239 0
M  V30 12103 N 1176.7 -3.13958 -4.66247 0
M  V30 12104 H 1168.85 -1.8769 -0.994293 0
M  V30 12105 H 1171.11 -0.806621 -0.498063 0
M  V30 12106 H 1170.82 -2.63907 -2.32478 0
M  V30 12107 H 1170.69 -1.3592 -3.5186 0
M  V30 12108 H 1173.08 -0.59099 -2.89122 0
M  V30 12109 H 1173.16 -1.90417 -1.70807 0
M  V30 12110 H 1172.81 -3.59223 -3.59056 0
M  V30 12111 H 1172.74 -2.25077 -4.76076 0
M  V30 12112 H 1175.23 -1.97082 -3.22439 0
M  V30 12113 H 1175.54 -4.55061 -6.24612 0
M  V30 12114 H 1173.89 -4.08687 -5.62139 0
M  V30 12115 H 1177.08 -2.51273 -3.94943 0
M  V30 12116 H 1177.25 -3.68894 -5.32749 0
M  V30 12117 N 1170.66 1.40747 -0.709091 0
M  V30 12118 C 1171.6 2.30741 -0.0523584 0
M  V30 12119 C 1172.57 1.4784 0.757145 0
M  V30 12120 O 1173.76 1.76595 0.72242 0
M  V30 12121 C 1170.9 3.34 0.868203 0
M  V30 12122 C 1170.01 4.31972 0.0488686 0
M  V30 12123 C 1169.15 5.223 0.968311 0
M  V30 12124 C 1168.18 6.11934 0.142682 0
M  V30 12125 N 1167.32 6.947 1.01665 0
M  V30 12126 H 1172.16 2.86338 -0.825509 0
M  V30 12127 H 1169.7 1.41013 -0.418785 0
M  V30 12128 H 1171.66 3.92431 1.41611 0
M  V30 12129 H 1170.29 2.79921 1.6076 0
M  V30 12130 H 1169.34 3.75377 -0.616137 0
M  V30 12131 H 1170.65 4.95291 -0.590625 0
M  V30 12132 H 1169.8 5.85631 1.58498 0
M  V30 12133 H 1168.54 4.5924 1.64164 0
M  V30 12134 H 1167.55 5.47639 -0.486965 0
M  V30 12135 H 1168.77 6.77052 -0.527046 0
M  V30 12136 H 1166.72 6.34236 1.67575 0
M  V30 12137 H 1166.64 7.54759 0.433045 0
M  V30 12138 H 1167.9 7.62487 1.6197 0
M  V30 12139 N 1172.13 0.454803 1.50895 0
M  V30 12140 C 1173.38 -0.10577 2.02224 0
M  V30 12141 C 1173.71 -1.41176 1.33789 0
M  V30 12142 O 1172.96 -1.90522 0.447181 0
M  V30 12143 C 1173.26 -0.354159 3.55641 0
M  V30 12144 C 1172.93 0.868136 4.42464 0
M  V30 12145 C 1171.59 1.2033 4.65912 0
M  V30 12146 C 1173.94 1.68272 4.93289 0
M  V30 12147 C 1171.27 2.3534 5.37431 0
M  V30 12148 C 1173.62 2.82396 5.6607 0
M  V30 12149 C 1172.29 3.16346 5.87777 0
M  V30 12150 H 1171.56 -0.0387041 0.739989 0
M  V30 12151 H 1174.2 0.605564 1.81673 0
M  V30 12152 H 1172.51 -1.14757 3.74617 0
M  V30 12153 H 1174.21 -0.8016 3.92906 0
M  V30 12154 H 1170.8 0.596995 4.24422 0
M  V30 12155 H 1174.98 1.43698 4.75042 0
M  V30 12156 H 1170.24 2.61936 5.52449 0
M  V30 12157 H 1174.41 3.45873 6.04438 0
M  V30 12158 H 1172.04 4.05574 6.42973 0
M  V30 12159 N 1173.61 -1.56489 0.186789 0
M  V30 12160 C 1174.84 -2.01722 -0.459993 0
M  V30 12161 C 1175.25 -1.06697 -1.5576 0
M  V30 12162 O 1174.61 -0.0704212 -1.82364 0
M  V30 12163 C 1174.66 -3.46693 -1.02401 0
M  V30 12164 O 1174.38 -4.3809 0.0297916 0
M  V30 12165 C 1175.88 -4.07403 -1.7475 0
M  V30 12166 H 1173.1 -0.660845 -0.116298 0
M  V30 12167 H 1175.65 -2.02389 0.293059 0
M  V30 12168 H 1173.8 -3.46752 -1.72749 0
M  V30 12169 H 1174.22 -5.23057 -0.388821 0
M  V30 12170 H 1175.69 -5.10718 -2.09455 0
M  V30 12171 H 1176.17 -3.50383 -2.64818 0
M  V30 12172 H 1176.77 -4.11093 -1.09007 0
M  V30 12173 N 1175.09 0.086862 -1.5736 0
M  V30 12174 C 1176.31 0.806017 -1.91097 0
M  V30 12175 C 1176.74 1.71082 -0.78183 0
M  V30 12176 O 1176.1 1.79335 0.266175 0
M  V30 12177 C 1176.15 1.5884 -3.23732 0
M  V30 12178 O 1175.25 2.69798 -3.11902 0
M  V30 12179 H 1174.59 0.220899 -0.626179 0
M  V30 12180 H 1177.12 0.059619 -2.04513 0
M  V30 12181 H 1177.13 1.97088 -3.5724 0
M  V30 12182 H 1175.81 0.924426 -4.05496 0
M  V30 12183 H 1174.38 2.34519 -2.89923 0
M  V30 12184 N 1176.57 1.53483 0.357892 0
M  V30 12185 C 1177.53 1.79782 1.42166 0
M  V30 12186 C 1178.53 0.668441 1.46248 0
M  V30 12187 O 1179.72 0.936677 1.46874 0
M  V30 12188 C 1176.85 1.92686 2.8122 0
M  V30 12189 H 1178.05 2.74794 1.20117 0
M  V30 12190 H 1175.6 1.44677 0.591468 0
M  V30 12191 H 1176.33 0.997669 3.08573 0
M  V30 12192 H 1176.12 2.74837 2.79655 0
M  V30 12193 H 1177.61 2.14599 3.58242 0
M  V30 12194 N 1178.05 -0.61812 1.44973 0
M  V30 12195 C 1179.27 -1.40921 1.52171 0
M  V30 12196 C 1179.7 -1.87487 0.151755 0
M  V30 12197 O 1179.05 -1.59518 -0.861606 0
M  V30 12198 C 1179.1 -2.59689 2.50188 0
M  V30 12199 O 1178.21 -3.59967 2.0124 0
M  V30 12200 H 1177.55 -0.421138 0.51336 0
M  V30 12201 H 1180.08 -0.753258 1.90229 0
M  V30 12202 H 1180.09 -3.07069 2.6865 0
M  V30 12203 H 1178.76 -2.25144 3.4969 0
M  V30 12204 H 1177.34 -3.19308 1.92605 0
M  V30 12205 N 1179.52 -1.32087 -0.859693 0
M  V30 12206 C 1180.8 -1.12984 -1.59668 0
M  V30 12207 C 1181.18 0.311661 -2.08787 0
M  V30 12208 O 1180.53 1.30746 -1.87397 0
M  V30 12209 C 1180.74 -2.15305 -2.74672 0
M  V30 12210 C 1182.09 -2.48371 -3.44379 0
M  V30 12211 O 1183.11 -2.13811 -2.84891 0
M  V30 12212 O 1181.97 -3.07594 -4.51717 0
M  V30 12213 H 1179.06 -0.435657 -0.702945 0
M  V30 12214 H 1181.61 -1.43601 -0.90426 0
M  V30 12215 H 1180.38 -3.12223 -2.35866 0
M  V30 12216 H 1180 -1.85653 -3.51594 0
M  V30 12217 N 1181 1.07532 -1.15215 0
M  V30 12218 C 1182.25 1.8036 -0.927263 0
M  V30 12219 C 1182.58 1.86414 0.544371 0
M  V30 12220 O 1181.86 1.34653 1.40353 0
M  V30 12221 C 1182.14 3.25512 -1.53992 0
M  V30 12222 C 1181.99 3.27614 -3.08203 0
M  V30 12223 C 1183.31 4.22731 -1.22418 0
M  V30 12224 H 1180.43 0.654775 -0.338289 0
M  V30 12225 H 1183.07 1.25842 -1.42351 0
M  V30 12226 H 1181.22 3.72068 -1.11791 0
M  V30 12227 H 1182.89 2.89315 -3.59297 0
M  V30 12228 H 1181.14 2.66627 -3.42188 0
M  V30 12229 H 1181.81 4.29956 -3.46182 0
M  V30 12230 H 1184.28 3.84557 -1.58919 0
M  V30 12231 H 1183.16 5.22589 -1.67906 0
M  V30 12232 H 1183.42 4.41875 -0.14091 0
M  V30 12233 N 1182.48 0.948665 1.2585 0
M  V30 12234 C 1183.73 0.610669 1.94016 0
M  V30 12235 C 1184.08 -0.842181 1.72989 0
M  V30 12236 O 1183.37 -1.59556 1.06078 0
M  V30 12237 C 1183.57 0.89784 3.45939 0
M  V30 12238 C 1183.4 2.37705 3.81741 0
M  V30 12239 C 1182.17 3.03355 4.04109 0
M  V30 12240 C 1184.37 3.35602 3.89712 0
M  V30 12241 N 1182.35 4.41211 4.26856 0
M  V30 12242 C 1183.72 4.58743 4.17079 0
M  V30 12243 C 1185.77 3.30523 3.72369 0
M  V30 12244 C 1184.48 5.77436 4.28906 0
M  V30 12245 C 1186.5 4.48548 3.85433 0
M  V30 12246 C 1185.86 5.70474 4.13205 0
M  V30 12247 H 1181.96 0.273966 0.732439 0
M  V30 12248 H 1184.55 1.21961 1.51768 0
M  V30 12249 H 1182.72 0.317878 3.87097 0
M  V30 12250 H 1184.45 0.520353 4.01341 0
M  V30 12251 H 1181.21 2.53947 3.9976 0
M  V30 12252 H 1181.63 5.12589 4.42247 0
M  V30 12253 H 1186.27 2.3731 3.4992 0
M  V30 12254 H 1183.99 6.71095 4.50174 0
M  V30 12255 H 1187.58 4.46159 3.73408 0
M  V30 12256 H 1186.46 6.60277 4.23088 0
M  V30 12257 N 1183.96 -1.40369 0.716545 0
M  V30 12258 C 1185.18 -2.05704 0.264729 0
M  V30 12259 C 1185.61 -1.53634 -1.08527 0
M  V30 12260 O 1184.97 -0.67212 -1.68381 0
M  V30 12261 C 1185.01 -3.59692 0.255778 0
M  V30 12262 O 1184.12 -4.05286 -0.762686 0
M  V30 12263 H 1183.46 -0.652301 0.124092 0
M  V30 12264 H 1185.99 -1.7975 0.977295 0
M  V30 12265 H 1186 -4.07892 0.0937944 0
M  V30 12266 H 1184.67 -3.96955 1.24095 0
M  V30 12267 H 1183.25 -3.68543 -0.568347 0
M  V30 12268 N 1185.44 -0.462799 -1.50652 0
M  V30 12269 C 1186.68 0.0950445 -2.02277 0
M  V30 12270 C 1187.01 1.40465 -1.34536 0
M  V30 12271 O 1186.27 1.90283 -0.457279 0
M  V30 12272 C 1186.57 0.335294 -3.55824 0
M  V30 12273 C 1186.23 -0.891589 -4.41997 0
M  V30 12274 C 1184.89 -1.22799 -4.65268 0
M  V30 12275 C 1187.25 -1.70885 -4.9239 0
M  V30 12276 C 1184.57 -2.38186 -5.36175 0
M  V30 12277 C 1186.93 -2.85394 -5.64564 0
M  V30 12278 C 1185.59 -3.19458 -5.86091 0
M  V30 12279 H 1184.86 0.0347793 -0.740183 0
M  V30 12280 H 1187.51 -0.61519 -1.8135 0
M  V30 12281 H 1185.81 1.12769 -3.7522 0
M  V30 12282 H 1187.51 0.780752 -3.93326 0
M  V30 12283 H 1184.1 -0.619495 -4.24099 0
M  V30 12284 H 1188.28 -1.46215 -4.74273 0
M  V30 12285 H 1183.54 -2.64862 -5.51052 0
M  V30 12286 H 1187.71 -3.49073 -6.02595 0
M  V30 12287 H 1185.34 -4.08978 -6.40813 0
M  V30 12288 N 1186.91 1.56388 -0.195085 0
M  V30 12289 C 1188.16 1.97189 0.44281 0
M  V30 12290 C 1188.48 1.08312 1.62153 0
M  V30 12291 O 1187.75 0.154404 1.95291 0
M  V30 12292 H 1186.33 0.728188 0.166585 0
M  V30 12293 H 1189 1.92852 -0.281815 0
M  V30 12294 H 1188.09 3.02016 0.786945 0
M  V30 12295 N 1188.39 -0.0785156 1.57404 0
M  V30 12296 C 1189.64 -0.777722 1.86103 0
M  V30 12297 C 1189.95 -1.79079 0.786771 0
M  V30 12298 O 1191.16 -2.53908 0.961393 0
M  V30 12299 C 1189.62 -1.43407 3.30095 0
M  V30 12300 C 1189.22 -0.459912 4.45633 0
M  V30 12301 C 1190.97 -2.11603 3.68 0
M  V30 12302 C 1188.88 -1.12179 5.80663 0
M  V30 12303 H 1187.81 -0.294205 0.694233 0
M  V30 12304 H 1190.46 -0.0309003 1.83474 0
M  V30 12305 H 1188.84 -2.22892 3.27315 0
M  V30 12306 H 1190.01 0.304642 4.59792 0
M  V30 12307 H 1188.33 0.117242 4.16235 0
M  V30 12308 H 1190.92 -2.61887 4.66175 0
M  V30 12309 H 1191.27 -2.91244 2.9746 0
M  V30 12310 H 1191.8 -1.38958 3.72741 0
M  V30 12311 H 1188.54 -0.365842 6.54478 0
M  V30 12312 H 1188.06 -1.85737 5.70317 0
M  V30 12313 H 1189.74 -1.64355 6.25777 0
M  V30 12314 N 1189.87 -1.5367 -0.349747 0
M  V30 12315 C 1191.12 -1.7087 -1.0923 0
M  V30 12316 C 1191.45 -0.467299 -1.88494 0
M  V30 12317 O 1190.72 0.535619 -1.8698 0
M  V30 12318 C 1191.01 -2.9684 -2.03858 0
M  V30 12319 C 1190.86 -4.31174 -1.28097 0
M  V30 12320 C 1192.18 -3.18459 -3.03763 0
M  V30 12321 H 1189.3 -0.621757 -0.395711 0
M  V30 12322 H 1191.94 -1.86333 -0.371481 0
M  V30 12323 H 1190.09 -2.83788 -2.65323 0
M  V30 12324 H 1191.76 -4.56066 -0.692933 0
M  V30 12325 H 1190.01 -4.29866 -0.582924 0
M  V30 12326 H 1190.68 -5.15482 -1.9744 0
M  V30 12327 H 1193.15 -3.30801 -2.52409 0
M  V30 12328 H 1192.03 -4.08006 -3.67182 0
M  V30 12329 H 1192.29 -2.34467 -3.74803 0
M  V30 12330 N 1191.35 0.610423 -1.45298 0
M  V30 12331 C 1192.28 1.73493 -1.48241 0
M  V30 12332 C 1193.26 1.59025 -0.339065 0
M  V30 12333 O 1194.44 1.80625 -0.539144 0
M  V30 12334 C 1191.57 3.11291 -1.33476 0
M  V30 12335 C 1190.62 3.44355 -2.51638 0
M  V30 12336 S 1191.45 3.39512 -4.14116 0
M  V30 12337 C 1192.61 4.79895 -4.01811 0
M  V30 12338 H 1192.84 1.70734 -2.43387 0
M  V30 12339 H 1190.37 0.786833 -1.32847 0
M  V30 12340 H 1192.33 3.90799 -1.25644 0
M  V30 12341 H 1190.99 3.11568 -0.39805 0
M  V30 12342 H 1190.18 4.44679 -2.37226 0
M  V30 12343 H 1189.79 2.72356 -2.56317 0
M  V30 12344 H 1192.08 5.6963 -3.6678 0
M  V30 12345 H 1193.02 4.99363 -5.02038 0
M  V30 12346 H 1193.43 4.55443 -3.33515 0
M  V30 12347 N 1192.83 1.32541 0.852676 0
M  V30 12348 C 1194.07 1.24406 1.60918 0
M  V30 12349 C 1194.43 -0.19184 1.91441 0
M  V30 12350 O 1193.72 -1.13016 1.54719 0
M  V30 12351 C 1193.91 2.039 2.9353 0
M  V30 12352 C 1193.74 3.55074 2.75957 0
M  V30 12353 C 1192.51 4.24409 2.74236 0
M  V30 12354 C 1194.71 4.49686 2.49574 0
M  V30 12355 N 1192.69 5.61624 2.47895 0
M  V30 12356 C 1194.06 5.74692 2.32658 0
M  V30 12357 C 1196.12 4.38921 2.35058 0
M  V30 12358 C 1194.82 6.90149 2.027 0
M  V30 12359 C 1196.85 5.5418 2.06491 0
M  V30 12360 C 1196.21 6.78186 1.90377 0
M  V30 12361 H 1192.31 0.510401 0.592465 0
M  V30 12362 H 1194.89 1.66929 1.00214 0
M  V30 12363 H 1193.06 1.6372 3.52208 0
M  V30 12364 H 1194.8 1.87644 3.58569 0
M  V30 12365 H 1191.55 3.76546 2.87246 0
M  V30 12366 H 1191.98 6.33918 2.37648 0
M  V30 12367 H 1196.62 3.43697 2.46236 0
M  V30 12368 H 1194.34 7.85383 1.90259 0
M  V30 12369 H 1197.92 5.47779 1.96035 0
M  V30 12370 H 1196.8 7.65864 1.68587 0
M  V30 12371 N 1194.3 -1.0692 1.15784 0
M  V30 12372 C 1195.21 -2.17762 0.872753 0
M  V30 12373 C 1196.23 -1.73329 -0.152608 0
M  V30 12374 O 1197.41 -2.01387 0.022519 0
M  V30 12375 C 1194.47 -3.4471 0.370887 0
M  V30 12376 C 1193.53 -4.03686 1.46069 0
M  V30 12377 C 1192.77 -5.24575 0.982675 0
M  V30 12378 O 1192.99 -5.70146 -0.17006 0
M  V30 12379 O 1191.92 -5.7534 1.76828 0
M  V30 12380 H 1195.75 -2.44648 1.79948 0
M  V30 12381 H 1193.33 -1.1634 0.937303 0
M  V30 12382 H 1195.22 -4.21287 0.0976779 0
M  V30 12383 H 1193.89 -3.19366 -0.527912 0
M  V30 12384 H 1192.8 -3.28629 1.78756 0
M  V30 12385 H 1194.13 -4.33312 2.33456 0
M  V30 12386 N 1195.78 -0.955326 -1.25345 0
M  V30 12387 C 1197.03 -0.611388 -1.93365 0
M  V30 12388 C 1197.36 0.84953 -1.74633 0
M  V30 12389 O 1196.64 1.60962 -1.09185 0
M  V30 12390 C 1196.92 -0.971732 -3.46741 0
M  V30 12391 C 1196.77 -2.48843 -3.74696 0
M  V30 12392 C 1198.09 -0.497295 -4.37281 0
M  V30 12393 H 1195.21 -0.223591 -0.702265 0
M  V30 12394 H 1197.85 -1.1921 -1.47949 0
M  V30 12395 H 1196 -0.477568 -3.85554 0
M  V30 12396 H 1197.67 -3.05641 -3.45516 0
M  V30 12397 H 1195.92 -2.92582 -3.20278 0
M  V30 12398 H 1196.59 -2.69107 -4.8196 0
M  V30 12399 H 1199.06 -0.921196 -4.05775 0
M  V30 12400 H 1197.94 -0.778113 -5.43357 0
M  V30 12401 H 1198.2 0.602743 -4.37972 0
M  V30 12402 N 1197.26 1.39987 -0.723979 0
M  V30 12403 C 1198.19 2.28185 -0.0257726 0
M  V30 12404 C 1199.17 1.43795 0.75907 0
M  V30 12405 O 1200.36 1.73198 0.743948 0
M  V30 12406 C 1197.48 3.24489 0.970811 0
M  V30 12407 C 1196.53 4.25607 0.275778 0
M  V30 12408 S 1197.36 5.26035 -1.00237 0
M  V30 12409 C 1198.52 6.25899 -0.00809987 0
M  V30 12410 H 1198.75 2.87054 -0.773761 0
M  V30 12411 H 1196.28 1.45546 -0.515332 0
M  V30 12412 H 1198.24 3.80496 1.54055 0
M  V30 12413 H 1196.9 2.6466 1.69156 0
M  V30 12414 H 1196.1 4.93374 1.02946 0
M  V30 12415 H 1195.7 3.73343 -0.22163 0
M  V30 12416 H 1197.99 6.72323 0.835971 0
M  V30 12417 H 1198.93 7.05086 -0.652607 0
M  V30 12418 H 1199.34 5.63355 0.359377 0
M  V30 12419 N 1198.74 0.470782 1.50404 0
M  V30 12420 C 1199.97 -0.0820134 2.06737 0
M  V30 12421 C 1200.38 -1.33535 1.33468 0
M  V30 12422 O 1199.74 -1.77975 0.403872 0
M  V30 12423 C 1199.79 -0.370427 3.59597 0
M  V30 12424 O 1199.51 0.8332 4.30104 0
M  V30 12425 C 1201.01 -0.970222 4.32552 0
M  V30 12426 H 1198.23 0.00694502 0.670964 0
M  V30 12427 H 1200.78 0.659476 1.93575 0
M  V30 12428 H 1198.93 -1.06185 3.72563 0
M  V30 12429 H 1199.35 0.577614 5.2131 0
M  V30 12430 H 1200.82 -1.1218 5.40481 0
M  V30 12431 H 1201.3 -1.96024 3.93028 0
M  V30 12432 H 1201.9 -0.31719 4.24116 0
M  V30 12433 N 1200.22 -1.56282 0.203376 0
M  V30 12434 C 1201.45 -2.01905 -0.437936 0
M  V30 12435 C 1201.86 -1.08263 -1.55164 0
M  V30 12436 O 1201.2 -0.0811746 -1.83521 0
M  V30 12437 C 1201.26 -3.43908 -1.04725 0
M  V30 12438 C 1200.92 -4.56944 -0.0712582 0
M  V30 12439 C 1201.92 -5.14856 0.72243 0
M  V30 12440 C 1199.61 -5.02282 0.0422267 0
M  V30 12441 C 1201.6 -6.16562 1.61649 0
M  V30 12442 C 1199.29 -6.0383 0.939835 0
M  V30 12443 C 1200.29 -6.60844 1.72552 0
M  V30 12444 O 1199.97 -7.60417 2.60808 0
M  V30 12445 H 1199.71 -0.666416 -0.11343 0
M  V30 12446 H 1202.26 -2.03019 0.311833 0
M  V30 12447 H 1200.49 -3.39806 -1.84577 0
M  V30 12448 H 1202.18 -3.73288 -1.59407 0
M  V30 12449 H 1202.94 -4.80691 0.645105 0
M  V30 12450 H 1198.82 -4.57596 -0.559165 0
M  V30 12451 H 1202.37 -6.6099 2.23019 0
M  V30 12452 H 1198.26 -6.37418 1.01824 0
M  V30 12453 H 1199.03 -7.77869 2.54679 0
M  V30 12454 N 1201.7 0.070167 -1.57444 0
M  V30 12455 C 1202.94 0.767495 -1.8696 0
M  V30 12456 C 1203.26 1.78032 -0.795595 0
M  V30 12457 O 1202.53 1.95112 0.175566 0
M  V30 12458 H 1201.11 0.286443 -0.689898 0
M  V30 12459 H 1203.78 0.0458692 -1.94846 0
M  V30 12460 H 1202.87 1.28269 -2.84523 0
M  V30 12461 N 1203.17 1.53854 0.341593 0
M  V30 12462 C 1204.08 1.84975 1.44297 0
M  V30 12463 C 1205.1 0.740057 1.57477 0
M  V30 12464 O 1206.28 1.03256 1.72917 0
M  V30 12465 C 1203.34 2.05464 2.79259 0
M  V30 12466 C 1202.4 3.29318 2.75405 0
M  V30 12467 C 1201.63 3.4882 4.03931 0
M  V30 12468 O 1201.86 2.7212 5.01305 0
M  V30 12469 O 1200.79 4.42253 4.08284 0
M  V30 12470 H 1204.62 2.78592 1.20913 0
M  V30 12471 H 1202.2 1.39532 0.533953 0
M  V30 12472 H 1204.08 2.20374 3.59184 0
M  V30 12473 H 1202.76 1.15035 3.0257 0
M  V30 12474 H 1201.67 3.1981 1.94094 0
M  V30 12475 H 1203 4.19746 2.57049 0
M  V30 12476 N 1204.65 -0.602709 1.4562 0
M  V30 12477 C 1206.07 -0.923983 1.30133 0
M  V30 12478 C 1206.27 -1.99842 0.25796 0
M  V30 12479 O 1205.32 -2.50112 -0.346414 0
M  V30 12480 C 1206.64 -1.36029 2.68173 0
M  V30 12481 C 1208.18 -1.47423 2.76108 0
M  V30 12482 C 1208.66 -1.94427 4.14683 0
M  V30 12483 N 1210.15 -2.01653 4.17002 0
M  V30 12484 C 1210.89 -2.39255 5.211 0
M  V30 12485 N 1210.38 -2.75791 6.3554 0
M  V30 12486 N 1212.17 -2.39636 5.08459 0
M  V30 12487 H 1204.33 0.107377 2.12128 0
M  V30 12488 H 1206.59 -0.0146216 0.947887 0
M  V30 12489 H 1206.29 -0.644949 3.45736 0
M  V30 12490 H 1206.17 -2.32584 2.96959 0
M  V30 12491 H 1208.56 -2.18047 1.98845 0
M  V30 12492 H 1208.64 -0.4917 2.5103 0
M  V30 12493 H 1208.28 -1.24389 4.92433 0
M  V30 12494 H 1208.21 -2.93603 4.37156 0
M  V30 12495 H 1210.7 -1.75988 3.3442 0
M  V30 12496 H 1211.01 -3.03378 7.10761 0
M  V30 12497 H 1209.36 -2.73475 6.38934 0
M  V30 12498 H 1212.55 -2.10502 4.18098 0
M  V30 12499 H 1212.72 -2.68614 5.89704 0
M  V30 12500 N 1206.13 -1.32992 -0.845635 0
M  V30 12501 C 1207.54 -1.21616 -1.41656 0
M  V30 12502 C 1207.89 0.167687 -1.95482 0
M  V30 12503 O 1207.02 1.06692 -1.8827 0
M  V30 12504 C 1207.61 -2.2018 -2.575 0
M  V30 12505 C 1206.17 -2.12664 -3.10565 0
M  V30 12506 C 1205.32 -2.08042 -1.83341 0
M  V30 12507 H 1208.27 -1.44688 -0.651993 0
M  V30 12508 H 1208.29 -1.80558 -3.34931 0
M  V30 12509 H 1207.8 -3.20888 -2.18294 0
M  V30 12510 H 1205.9 -1.15235 -3.54333 0
M  V30 12511 H 1206.02 -3.02902 -3.71197 0
M  V30 12512 H 1204.38 -1.53416 -2.03312 0
M  V30 12513 H 1205.16 -3.10547 -1.46339 0
M  V30 12514 N 1207.61 1.06304 -1.1635 0
M  V30 12515 C 1208.84 1.82534 -0.967725 0
M  V30 12516 C 1209.25 1.82816 0.487338 0
M  V30 12517 O 1208.59 1.24581 1.35001 0
M  V30 12518 C 1208.65 3.30349 -1.4181 0
M  V30 12519 C 1208.31 3.53769 -2.89303 0
M  V30 12520 C 1209.31 3.46826 -3.87308 0
M  V30 12521 C 1207 3.81094 -3.2722 0
M  V30 12522 C 1208.99 3.66874 -5.21232 0
M  V30 12523 C 1206.68 4.00792 -4.61313 0
M  V30 12524 C 1207.68 3.93679 -5.58127 0
M  V30 12525 O 1207.36 4.12839 -6.89796 0
M  V30 12526 H 1207.1 0.582407 -0.343189 0
M  V30 12527 H 1209.65 1.35022 -1.54784 0
M  V30 12528 H 1207.88 3.78722 -0.781456 0
M  V30 12529 H 1209.57 3.88072 -1.18976 0
M  V30 12530 H 1210.33 3.25706 -3.59361 0
M  V30 12531 H 1206.21 3.85739 -2.5244 0
M  V30 12532 H 1209.76 3.61238 -5.96786 0
M  V30 12533 H 1205.65 4.214 -4.8897 0
M  V30 12534 H 1206.42 4.30128 -6.96371 0
M  V30 12535 N 1209.09 0.96196 1.24836 0
M  V30 12536 C 1210.33 0.631213 1.93358 0
M  V30 12537 C 1210.69 -0.823785 1.73872 0
M  V30 12538 O 1209.98 -1.58422 1.07764 0
M  V30 12539 C 1210.17 0.934481 3.44967 0
M  V30 12540 C 1210 2.41741 3.79198 0
M  V30 12541 C 1208.77 3.07624 4.00868 0
M  V30 12542 C 1210.97 3.39717 3.86131 0
M  V30 12543 N 1208.95 4.45714 4.22152 0
M  V30 12544 C 1210.32 4.63141 4.1219 0
M  V30 12545 C 1212.38 3.34454 3.68843 0
M  V30 12546 C 1211.08 5.81953 4.22757 0
M  V30 12547 C 1213.11 4.52611 3.80653 0
M  V30 12548 C 1212.47 5.74825 4.07131 0
M  V30 12549 H 1208.57 0.281719 0.729492 0
M  V30 12550 H 1211.15 1.23564 1.50466 0
M  V30 12551 H 1209.32 0.358917 3.86738 0
M  V30 12552 H 1211.06 0.562892 4.00766 0
M  V30 12553 H 1207.81 2.58172 3.97044 0
M  V30 12554 H 1208.23 5.1725 4.36785 0
M  V30 12555 H 1212.88 2.41008 3.47383 0
M  V30 12556 H 1210.59 6.75832 4.43031 0
M  V30 12557 H 1214.18 4.50095 3.68654 0
M  V30 12558 H 1213.06 6.64727 4.16061 0
M  V30 12559 N 1210.56 -1.39601 0.731392 0
M  V30 12560 C 1211.47 -2.34425 0.090527 0
M  V30 12561 C 1212.49 -1.58131 -0.725992 0
M  V30 12562 O 1213.67 -1.90441 -0.655294 0
M  V30 12563 C 1210.73 -3.37138 -0.808624 0
M  V30 12564 C 1209.79 -4.29295 0.0197365 0
M  V30 12565 C 1209.02 -5.27102 -0.836593 0
M  V30 12566 O 1209.25 -5.31302 -2.07543 0
M  V30 12567 O 1208.18 -6.01307 -0.267172 0
M  V30 12568 H 1212.01 -2.9088 0.873084 0
M  V30 12569 H 1209.59 -1.41066 0.492024 0
M  V30 12570 H 1211.47 -4.00087 -1.32319 0
M  V30 12571 H 1210.15 -2.83074 -1.57006 0
M  V30 12572 H 1209.06 -3.69581 0.579744 0
M  V30 12573 H 1210.39 -4.86555 0.743308 0
M  V30 12574 N 1212.04 -0.478751 -1.50152 0
M  V30 12575 C 1212.97 0.301182 -2.31549 0
M  V30 12576 C 1213.95 0.983276 -1.38801 0
M  V30 12577 O 1215.14 0.978973 -1.67719 0
M  V30 12578 C 1212.27 1.3791 -3.18745 0
M  V30 12579 C 1211.22 0.818175 -4.20107 0
M  V30 12580 C 1210.55 1.99496 -4.9609 0
M  V30 12581 C 1211.85 -0.17574 -5.22004 0
M  V30 12582 H 1213.54 -0.378188 -2.97002 0
M  V30 12583 H 1211.09 -0.183323 -1.42828 0
M  V30 12584 H 1213.04 1.93227 -3.74488 0
M  V30 12585 H 1211.77 2.08735 -2.51192 0
M  V30 12586 H 1210.42 0.286924 -3.65475 0
M  V30 12587 H 1210.07 2.69036 -4.25004 0
M  V30 12588 H 1209.77 1.62582 -5.6466 0
M  V30 12589 H 1211.3 2.55288 -5.54671 0
M  V30 12590 H 1212.71 0.288513 -5.72574 0
M  V30 12591 H 1211.11 -0.459549 -5.98338 0
M  V30 12592 H 1212.18 -1.09911 -4.72279 0
M  V30 12593 N 1213.52 1.56172 -0.211661 0
M  V30 12594 C 1214.75 2.02874 0.430905 0
M  V30 12595 C 1215.17 1.09064 1.53254 0
M  V30 12596 O 1214.53 0.0770408 1.81136 0
M  V30 12597 C 1214.58 3.4789 0.948933 0
M  V30 12598 O 1213.68 3.57213 2.0609 0
M  V30 12599 H 1213.02 0.656614 0.0987607 0
M  V30 12600 H 1215.55 2.01964 -0.327399 0
M  V30 12601 H 1215.56 3.88015 1.2613 0
M  V30 12602 H 1214.24 4.15656 0.142584 0
M  V30 12603 H 1212.81 3.28971 1.75592 0
M  V30 12604 N 1215 -0.0618163 1.57479 0
M  V30 12605 C 1215.95 -1.09105 2.05424 0
M  V30 12606 C 1216.94 -1.3947 0.961479 0
M  V30 12607 O 1218.15 -1.3876 1.14655 0
M  V30 12608 H 1214.52 -0.36923 0.655113 0
M  V30 12609 H 1216.49 -0.66061 2.90996 0
M  V30 12610 C 1215.24 -2.39345 2.52209 0
M  V30 12611 H 1214.56 -2.16832 3.35893 0
M  V30 12612 H 1216 -3.09784 2.89499 0
M  V30 12613 C 1214.46 -3.06011 1.40922 0
M  V30 12614 O 1214.99 -3.94504 0.756921 0
M  V30 12615 N 1213.2 -2.66797 1.15186 0
M  V30 12616 H 1212.75 -1.94923 1.68412 0
M  V30 12617 H 1212.7 -3.11724 0.409324 0
M  V30 12618 N 1216.48 -1.54033 -0.333429 0
M  V30 12619 C 1217.43 -1.7911 -1.4108 0
M  V30 12620 C 1218.41 -0.646699 -1.47332 0
M  V30 12621 O 1219.6 -0.906403 -1.52031 0
M  V30 12622 C 1216.73 -2.01314 -2.78078 0
M  V30 12623 C 1215.82 -3.21849 -2.76178 0
M  V30 12624 N 1216.21 -4.43109 -2.43903 0
M  V30 12625 C 1214.51 -3.23222 -3.07316 0
M  V30 12626 C 1215.21 -5.25004 -2.5049 0
M  V30 12627 N 1214.18 -4.61955 -2.86528 0
M  V30 12628 H 1217.99 -2.7045 -1.15039 0
M  V30 12629 H 1215.5 -1.53094 -0.541854 0
M  V30 12630 H 1217.5 -2.17417 -3.55718 0
M  V30 12631 H 1216.16 -1.11223 -3.05057 0
M  V30 12632 H 1217.17 -4.70282 -2.16922 0
M  V30 12633 H 1213.84 -2.43132 -3.39401 0
M  V30 12634 H 1215.23 -6.31812 -2.28611 0
M  V30 12635 N 1217.95 0.594978 -1.45938 0
M  V30 12636 C 1218.86 1.73296 -1.58132 0
M  V30 12637 C 1219.88 1.67665 -0.465245 0
M  V30 12638 O 1221.06 1.87794 -0.727684 0
M  V30 12639 C 1218.12 3.09783 -1.55677 0
M  V30 12640 C 1217.18 3.26772 -2.78422 0
M  V30 12641 C 1216.42 4.56748 -2.76075 0
M  V30 12642 O 1216.64 5.39867 -1.84119 0
M  V30 12643 O 1215.57 4.76721 -3.67452 0
M  V30 12644 H 1219.4 1.65957 -2.54346 0
M  V30 12645 H 1216.98 0.760572 -1.28591 0
M  V30 12646 H 1218.87 3.91077 -1.56961 0
M  V30 12647 H 1217.54 3.17585 -0.626191 0
M  V30 12648 H 1216.45 2.45018 -2.82696 0
M  V30 12649 H 1217.78 3.23853 -3.70648 0
M  V30 12650 N 1219.43 1.33438 0.838571 0
M  V30 12651 C 1220.68 1.25097 1.5962 0
M  V30 12652 C 1221.01 -0.182798 1.93338 0
M  V30 12653 O 1220.29 -1.1242 1.5872 0
M  V30 12654 C 1220.57 2.12655 2.90603 0
M  V30 12655 C 1220.42 3.64491 2.63565 0
M  V30 12656 C 1221.74 1.99994 3.92033 0
M  V30 12657 H 1218.86 0.455776 0.579169 0
M  V30 12658 H 1221.5 1.63542 0.967169 0
M  V30 12659 H 1219.65 1.79998 3.44286 0
M  V30 12660 H 1221.32 4.0744 2.16312 0
M  V30 12661 H 1219.57 3.86356 1.9726 0
M  V30 12662 H 1220.24 4.21101 3.569 0
M  V30 12663 H 1222.71 2.28635 3.47657 0
M  V30 12664 H 1221.59 2.63509 4.81512 0
M  V30 12665 H 1221.85 0.972263 4.31277 0
M  V30 12666 N 1220.91 -1.05686 1.16912 0
M  V30 12667 C 1221.84 -2.12775 0.824755 0
M  V30 12668 C 1222.82 -1.61286 -0.206289 0
M  V30 12669 O 1224.01 -1.8829 -0.0889616 0
M  V30 12670 C 1221.13 -3.37922 0.229422 0
M  V30 12671 C 1220.18 -4.08226 1.23506 0
M  V30 12672 S 1221.01 -4.57424 2.78431 0
M  V30 12673 C 1222.17 -5.85825 2.20364 0
M  V30 12674 H 1222.4 -2.41657 1.73174 0
M  V30 12675 H 1219.93 -1.18212 0.99324 0
M  V30 12676 H 1221.89 -4.10359 -0.107588 0
M  V30 12677 H 1220.55 -3.07186 -0.655424 0
M  V30 12678 H 1219.75 -4.98129 0.767059 0
M  V30 12679 H 1219.35 -3.41832 1.51747 0
M  V30 12680 H 1221.64 -6.58912 1.57611 0
M  V30 12681 H 1222.58 -6.37364 3.08501 0
M  V30 12682 H 1222.99 -5.4015 1.64008 0
M  V30 12683 N 1222.39 -0.968567 -1.24324 0
M  V30 12684 C 1223.34 -0.498817 -2.25345 0
M  V30 12685 C 1224.31 0.456082 -1.59716 0
M  V30 12686 O 1225.49 0.366254 -1.87252 0
M  V30 12687 C 1222.63 0.204027 -3.44496 0
M  V30 12688 C 1221.74 -0.789741 -4.2472 0
M  V30 12689 C 1220.88 -0.0629156 -5.31163 0
M  V30 12690 C 1219.92 -1.04669 -6.03084 0
M  V30 12691 N 1219.05 -0.349812 -7.01228 0
M  V30 12692 H 1223.89 -1.36511 -2.64894 0
M  V30 12693 H 1221.43 -0.684288 -1.30215 0
M  V30 12694 H 1223.39 0.628223 -4.12443 0
M  V30 12695 H 1222.02 1.03426 -3.05782 0
M  V30 12696 H 1221.07 -1.33237 -3.56303 0
M  V30 12697 H 1222.38 -1.53988 -4.74436 0
M  V30 12698 H 1221.54 0.419233 -6.0525 0
M  V30 12699 H 1220.28 0.719915 -4.82357 0
M  V30 12700 H 1219.28 -1.53971 -5.278 0
M  V30 12701 H 1220.51 -1.82998 -6.53979 0
M  V30 12702 H 1218.45 0.414026 -6.54692 0
M  V30 12703 H 1218.37 -1.03881 -7.48829 0
M  V30 12704 H 1219.64 0.11034 -7.79422 0
M  V30 12705 N 1223.87 1.39211 -0.738786 0
M  V30 12706 C 1224.83 2.28937 -0.109746 0
M  V30 12707 C 1225.83 1.46488 0.663157 0
M  V30 12708 O 1227.02 1.67119 0.491614 0
M  V30 12709 C 1224.15 3.30039 0.853633 0
M  V30 12710 H 1225.34 2.86068 -0.900295 0
M  V30 12711 H 1222.9 1.47922 -0.504853 0
M  V30 12712 H 1223.63 2.77971 1.6704 0
M  V30 12713 H 1223.42 3.90935 0.302007 0
M  V30 12714 H 1224.91 3.97169 1.29022 0
M  V30 12715 N 1225.34 0.486708 1.49896 0
M  V30 12716 C 1226.59 -0.0646197 2.01596 0
M  V30 12717 C 1226.91 -1.39363 1.37249 0
M  V30 12718 O 1228.11 -2.03082 1.80194 0
M  V30 12719 C 1226.57 -0.16565 3.59519 0
M  V30 12720 C 1226.18 1.15586 4.32832 0
M  V30 12721 C 1227.92 -0.668103 4.1921 0
M  V30 12722 C 1225.83 1.01778 5.82576 0
M  V30 12723 H 1224.76 -0.0279241 0.753483 0
M  V30 12724 H 1227.41 0.623969 1.72566 0
M  V30 12725 H 1225.79 -0.918372 3.85204 0
M  V30 12726 H 1226.96 1.92076 4.1886 0
M  V30 12727 H 1225.28 1.59064 3.84822 0
M  V30 12728 H 1227.88 -0.788698 5.28851 0
M  V30 12729 H 1228.22 -1.66339 3.81624 0
M  V30 12730 H 1228.75 0.0276746 3.9779 0
M  V30 12731 H 1225.49 1.9869 6.24662 0
M  V30 12732 H 1225.01 0.293527 5.99081 0
M  V30 12733 H 1226.69 0.690693 6.43303 0
M  V30 12734 N 1226.82 -1.56058 0.219941 0
M  V30 12735 C 1227.77 -2.21585 -0.707321 0
M  V30 12736 C 1228.77 -1.19473 -1.20094 0
M  V30 12737 O 1229.97 -1.37557 -1.16095 0
M  V30 12738 H 1226.35 -0.710447 -0.246515 0
M  V30 12739 H 1228.32 -2.98111 -0.131214 0
M  V30 12740 C 1227.07 -2.90841 -1.90544 0
M  V30 12741 H 1226.39 -3.6917 -1.53472 0
M  V30 12742 H 1227.83 -3.40092 -2.53206 0
M  V30 12743 C 1226.29 -1.93223 -2.75983 0
M  V30 12744 O 1226.82 -1.44815 -3.74689 0
M  V30 12745 N 1225.02 -1.60907 -2.41986 0
M  V30 12746 H 1224.57 -2.00467 -1.61774 0
M  V30 12747 H 1224.53 -0.958534 -2.99432 0
M  V30 12748 N 1228.3 0.053464 -1.57509 0
M  V30 12749 C 1229.58 0.783141 -1.79238 0
M  V30 12750 C 1229.96 1.94855 -0.812069 0
M  V30 12751 O 1229.31 2.28 0.151006 0
M  V30 12752 C 1229.52 1.239 -3.26266 0
M  V30 12753 C 1230.86 1.66492 -3.90596 0
M  V30 12754 O 1231.89 1.33421 -3.30269 0
M  V30 12755 O 1230.75 2.27785 -4.96766 0
M  V30 12756 H 1227.84 0.376696 -0.736226 0
M  V30 12757 H 1230.39 0.0321229 -1.6967 0
M  V30 12758 H 1229.16 0.405948 -3.89189 0
M  V30 12759 H 1228.78 2.05078 -3.4063 0
M  V30 12760 N 1229.78 1.54207 0.325255 0
M  V30 12761 C 1231.03 1.71991 1.0613 0
M  V30 12762 C 1231.35 0.495505 1.88599 0
M  V30 12763 O 1230.62 -0.490504 1.8966 0
M  V30 12764 H 1229.2 0.634137 0.394816 0
M  V30 12765 H 1231.86 1.91507 0.362101 0
M  V30 12766 H 1230.96 2.59878 1.72829 0
M  V30 12767 N 1231.26 -0.58723 1.46251 0
M  V30 12768 C 1232.5 -1.3456 1.51327 0
M  V30 12769 C 1232.83 -1.93815 0.163146 0
M  V30 12770 O 1232.09 -1.76723 -0.840677 0
M  V30 12771 C 1232.39 -2.49776 2.5563 0
M  V30 12772 C 1232.05 -2.08543 3.99776 0
M  V30 12773 C 1230.71 -1.97013 4.39021 0
M  V30 12774 C 1233.07 -1.76669 4.90344 0
M  V30 12775 C 1230.39 -1.5186 5.66706 0
M  V30 12776 C 1232.75 -1.32996 6.18462 0
M  V30 12777 C 1231.41 -1.20039 6.56618 0
M  V30 12778 H 1230.68 -0.492391 0.553744 0
M  V30 12779 H 1233.33 -0.661715 1.79704 0
M  V30 12780 H 1231.63 -3.23592 2.20897 0
M  V30 12781 H 1233.33 -3.07995 2.56788 0
M  V30 12782 H 1229.92 -2.18451 3.68751 0
M  V30 12783 H 1234.1 -1.84465 4.60746 0
M  V30 12784 H 1229.36 -1.40467 5.95045 0
M  V30 12785 H 1233.53 -1.07385 6.88071 0
M  V30 12786 H 1231.16 -0.848268 7.55452 0
M  V30 12787 N 1232.74 -1.33881 -0.831482 0
M  V30 12788 C 1234.15 -1.13376 -1.1233 0
M  V30 12789 C 1234.35 0.0704402 -2.01377 0
M  V30 12790 O 1233.41 0.748516 -2.4115 0
M  V30 12791 C 1234.72 -2.42484 -1.77826 0
M  V30 12792 C 1236.27 -2.4846 -1.90359 0
M  V30 12793 C 1236.74 -3.77548 -2.59272 0
M  V30 12794 N 1238.23 -3.7866 -2.66778 0
M  V30 12795 C 1238.97 -4.75258 -3.20807 0
M  V30 12796 N 1238.47 -5.82234 -3.75466 0
M  V30 12797 N 1240.26 -4.62724 -3.19128 0
M  V30 12798 H 1232.41 -2.11051 -0.238998 0
M  V30 12799 H 1234.67 -0.932893 -0.168565 0
M  V30 12800 H 1234.38 -3.30647 -1.19857 0
M  V30 12801 H 1234.25 -2.55186 -2.77777 0
M  V30 12802 H 1236.64 -1.60742 -2.47479 0
M  V30 12803 H 1236.72 -2.39693 -0.893359 0
M  V30 12804 H 1236.36 -4.65651 -2.02808 0
M  V30 12805 H 1236.29 -3.83594 -3.60781 0
M  V30 12806 H 1238.79 -3.01351 -2.28026 0
M  V30 12807 H 1239.1 -6.51968 -4.14918 0
M  V30 12808 H 1237.44 -5.85959 -3.73733 0
M  V30 12809 H 1240.63 -3.78303 -2.75688 0
M  V30 12810 H 1240.81 -5.38175 -3.60932 0
M  V30 12811 N 1234.21 1.05064 -1.1747 0
M  V30 12812 C 1235.14 2.14786 -0.915936 0
M  V30 12813 C 1236.12 1.69502 0.142561 0
M  V30 12814 O 1237.31 1.94198 -0.00794522 0
M  V30 12815 C 1234.44 3.44629 -0.429864 0
M  V30 12816 C 1233.39 4.03486 -1.42769 0
M  V30 12817 C 1232.72 5.28689 -0.799528 0
M  V30 12818 C 1234.02 4.40823 -2.80129 0
M  V30 12819 H 1235.71 2.3669 -1.83352 0
M  V30 12820 H 1233.26 1.13751 -0.882992 0
M  V30 12821 H 1235.21 4.20737 -0.236245 0
M  V30 12822 H 1233.94 3.22381 0.523263 0
M  V30 12823 H 1232.6 3.29449 -1.60808 0
M  V30 12824 H 1232.24 5.02744 0.160474 0
M  V30 12825 H 1231.94 5.69028 -1.46565 0
M  V30 12826 H 1233.47 6.07483 -0.616212 0
M  V30 12827 H 1234.88 5.07959 -2.65801 0
M  V30 12828 H 1233.28 4.92183 -3.43331 0
M  V30 12829 H 1234.35 3.51108 -3.34441 0
M  V30 12830 N 1235.69 0.975146 1.23809 0
M  V30 12831 C 1237.1 0.678873 1.7392 0
M  V30 12832 C 1237.45 -0.805133 1.78919 0
M  V30 12833 O 1236.58 -1.62984 1.42356 0
M  V30 12834 C 1237.17 1.22562 3.15854 0
M  V30 12835 C 1235.73 0.979096 3.63443 0
M  V30 12836 C 1234.88 1.35649 2.41857 0
M  V30 12837 H 1237.83 1.14961 1.09406 0
M  V30 12838 H 1237.85 0.595489 3.75811 0
M  V30 12839 H 1237.36 2.30571 3.12184 0
M  V30 12840 H 1235.46 -0.0851407 3.72503 0
M  V30 12841 H 1235.58 1.62998 4.5052 0
M  V30 12842 H 1233.94 0.774916 2.42626 0
M  V30 12843 H 1234.72 2.44624 2.40861 0
M  V30 12844 N 1237.17 -1.38817 0.746158 0
M  V30 12845 C 1238.4 -2.0457 0.309605 0
M  V30 12846 C 1238.81 -1.5627 -1.05948 0
M  V30 12847 O 1238.17 -0.73248 -1.67156 0
M  V30 12848 C 1238.22 -3.60126 0.314843 0
M  V30 12849 O 1237.94 -4.06652 1.6299 0
M  V30 12850 C 1239.44 -4.4309 -0.136497 0
M  V30 12851 H 1236.66 -0.657597 0.133441 0
M  V30 12852 H 1239.21 -1.77651 1.01293 0
M  V30 12853 H 1237.36 -3.85908 -0.339685 0
M  V30 12854 H 1237.78 -5.01042 1.55103 0
M  V30 12855 H 1239.25 -5.5194 -0.0816714 0
M  V30 12856 H 1239.73 -4.22959 -1.18332 0
M  V30 12857 H 1240.33 -4.22481 0.488879 0
M  V30 12858 N 1238.65 -0.49465 -1.49636 0
M  V30 12859 C 1240.06 -0.0452894 -1.86645 0
M  V30 12860 C 1240.41 1.36686 -1.40753 0
M  V30 12861 O 1239.53 2.01751 -0.78265 0
M  V30 12862 C 1240.13 -0.0754115 -3.38716 0
M  V30 12863 C 1238.69 0.318579 -3.75049 0
M  V30 12864 C 1237.84 -0.450712 -2.73613 0
M  V30 12865 H 1240.79 -0.707758 -1.42044 0
M  V30 12866 H 1240.81 0.721372 -3.73599 0
M  V30 12867 H 1240.32 -1.10331 -3.72087 0
M  V30 12868 H 1238.42 1.34995 -3.47285 0
M  V30 12869 H 1238.53 0.00354416 -4.791 0
M  V30 12870 H 1236.9 0.0986455 -2.54509 0
M  V30 12871 H 1237.68 -1.47857 -3.09828 0
M  V30 12872 N 1240.13 1.55939 -0.228214 0
M  V30 12873 C 1241.06 2.16566 0.719321 0
M  V30 12874 C 1242.04 1.11204 1.18627 0
M  V30 12875 O 1243.22 1.39495 1.2678 0
M  V30 12876 C 1240.35 2.75132 1.97536 0
M  V30 12877 C 1239.39 3.93381 1.64783 0
M  V30 12878 S 1240.23 5.29982 0.76678 0
M  V30 12879 C 1241.38 5.91989 2.03223 0
M  V30 12880 H 1241.62 2.96599 0.204035 0
M  V30 12881 H 1239.15 1.54395 -0.0128406 0
M  V30 12882 H 1241.11 3.09512 2.69652 0
M  V30 12883 H 1239.77 1.95079 2.46176 0
M  V30 12884 H 1238.96 4.32884 2.58122 0
M  V30 12885 H 1238.56 3.60181 1.00724 0
M  V30 12886 H 1240.85 6.08368 2.98152 0
M  V30 12887 H 1241.8 6.87858 1.68099 0
M  V30 12888 H 1242.21 5.20883 2.1758 0
M  V30 12889 N 1241.6 -0.0451101 1.57535 0
M  V30 12890 C 1242.88 -0.773625 1.79651 0
M  V30 12891 C 1243.26 -1.94422 0.822391 0
M  V30 12892 O 1242.61 -2.28077 -0.138913 0
M  V30 12893 C 1242.82 -1.22168 3.26919 0
M  V30 12894 C 1244.17 -1.64419 3.91474 0
M  V30 12895 O 1245.19 -1.31668 3.30971 0
M  V30 12896 O 1244.05 -2.25148 4.97967 0
M  V30 12897 H 1241.14 -0.372786 0.738214 0
M  V30 12898 H 1243.69 -0.0231245 1.69684 0
M  V30 12899 H 1242.46 -0.385302 3.89398 0
M  V30 12900 H 1242.09 -2.03269 3.41713 0
M  V30 12901 N 1243.08 -1.54377 -0.317073 0
M  V30 12902 C 1244.32 -1.74621 -1.06239 0
M  V30 12903 C 1244.69 -0.512542 -1.85032 0
M  V30 12904 O 1245.89 -0.592438 -2.6219 0
M  V30 12905 C 1244.16 -2.99036 -1.95735 0
M  V30 12906 S 1245.72 -3.40212 -2.77131 0
M  V30 12907 H 1242.54 -0.613969 -0.358557 0
M  V30 12908 H 1245.14 -1.92562 -0.33763 0
M  V30 12909 H 1243.84 -3.86965 -1.36697 0
M  V30 12910 H 1243.37 -2.83636 -2.72606 0
M  V30 12911 H 1245.39 -2.9602 -3.98229 0
M  V30 12912 N 1244.56 0.579466 -1.4656 0
M  V30 12913 C 1245.97 1.1616 -1.46164 0
M  V30 12914 C 1246.32 1.95134 -0.20423 0
M  V30 12915 O 1245.45 2.05022 0.692457 0
M  V30 12916 C 1246.04 2.11322 -2.64818 0
M  V30 12917 C 1244.6 2.64852 -2.67452 0
M  V30 12918 C 1243.75 1.40786 -2.38903 0
M  V30 12919 H 1246.7 0.367229 -1.54393 0
M  V30 12920 H 1246.72 2.94839 -2.4052 0
M  V30 12921 H 1246.23 1.53815 -3.56318 0
M  V30 12922 H 1244.33 3.26219 -1.80032 0
M  V30 12923 H 1244.45 3.07366 -3.67509 0
M  V30 12924 H 1242.81 1.70707 -1.89027 0
M  V30 12925 H 1243.59 0.851049 -3.32584 0
M  V30 12926 N 1246.04 1.3432 0.824371 0
M  V30 12927 C 1247.26 1.2982 1.61745 0
M  V30 12928 C 1247.69 -0.125298 1.87682 0
M  V30 12929 O 1247.05 -1.08658 1.45131 0
M  V30 12930 C 1247.09 2.09327 2.93623 0
M  V30 12931 O 1246.2 1.4618 3.85623 0
M  V30 12932 H 1245.54 0.445929 0.491979 0
M  V30 12933 H 1248.07 1.77101 1.02452 0
M  V30 12934 H 1248.08 2.20629 3.43201 0
M  V30 12935 H 1246.75 3.12825 2.74069 0
M  V30 12936 H 1245.33 1.43611 3.44137 0
M  V30 12937 N 1247.52 -1.0444 1.18026 0
M  V30 12938 C 1248.48 -2.10532 0.906028 0
M  V30 12939 C 1249.48 -1.60443 -0.107022 0
M  V30 12940 O 1250.67 -1.73744 0.126001 0
M  V30 12941 C 1247.8 -3.39008 0.358625 0
M  V30 12942 H 1248.99 -2.36293 1.84677 0
M  V30 12943 H 1246.55 -1.20805 0.991763 0
M  V30 12944 H 1247.28 -3.18908 -0.588904 0
M  V30 12945 H 1247.07 -3.76678 1.08884 0
M  V30 12946 H 1248.56 -4.17189 0.185331 0
M  V30 12947 N 1248.99 -0.981699 -1.2329 0
M  V30 12948 C 1250.24 -0.646818 -1.91048 0
M  V30 12949 C 1250.56 0.823479 -1.77421 0
M  V30 12950 O 1251.76 1.26948 -2.39993 0
M  V30 12951 C 1250.22 -1.1063 -3.42475 0
M  V30 12952 C 1249.83 -2.60103 -3.6476 0
M  V30 12953 C 1251.57 -0.845227 -4.16 0
M  V30 12954 C 1249.48 -2.99712 -5.0983 0
M  V30 12955 H 1248.41 -0.238221 -0.715379 0
M  V30 12956 H 1251.06 -1.18977 -1.39702 0
M  V30 12957 H 1249.44 -0.491554 -3.92937 0
M  V30 12958 H 1250.61 -3.26828 -3.24839 0
M  V30 12959 H 1248.93 -2.83972 -3.04547 0
M  V30 12960 H 1251.53 -1.11699 -5.22903 0
M  V30 12961 H 1251.87 0.218661 -4.15725 0
M  V30 12962 H 1252.4 -1.42162 -3.7153 0
M  V30 12963 H 1249.14 -4.0523 -5.15237 0
M  V30 12964 H 1248.66 -2.37683 -5.50697 0
M  V30 12965 H 1250.34 -2.9039 -5.78172 0
M  V30 12966 N 1250.47 1.3842 -0.753509 0
M  V30 12967 C 1251.7 2.04107 -0.319985 0
M  V30 12968 C 1252.11 1.56951 1.05655 0
M  V30 12969 O 1251.45 0.737807 1.68232 0
M  V30 12970 C 1251.52 3.58529 -0.26402 0
M  V30 12971 C 1251.18 4.28741 -1.58209 0
M  V30 12972 C 1252.18 4.54118 -2.53126 0
M  V30 12973 C 1249.86 4.66931 -1.8515 0
M  V30 12974 C 1251.86 5.16719 -3.73203 0
M  V30 12975 C 1249.54 5.29256 -3.05502 0
M  V30 12976 C 1250.54 5.54085 -3.99348 0
M  V30 12977 O 1250.23 6.15112 -5.17584 0
M  V30 12978 H 1249.96 0.662457 -0.134636 0
M  V30 12979 H 1252.51 1.78096 -1.02328 0
M  V30 12980 H 1250.74 3.83512 0.495516 0
M  V30 12981 H 1252.43 4.05659 0.139979 0
M  V30 12982 H 1253.2 4.25043 -2.33588 0
M  V30 12983 H 1249.08 4.46952 -1.12939 0
M  V30 12984 H 1252.62 5.36014 -4.46469 0
M  V30 12985 H 1248.52 5.57754 -3.24932 0
M  V30 12986 H 1249.29 6.33599 -5.18164 0
M  V30 12987 N 1251.95 0.502579 1.49372 0
M  V30 12988 C 1252.88 -0.311743 2.2707 0
M  V30 12989 C 1253.9 -0.929204 1.33677 0
M  V30 12990 O 1255.08 -0.812277 1.58948 0
M  V30 12991 C 1252.18 -1.45404 3.06122 0
M  V30 12992 C 1251.36 -0.943591 4.27101 0
M  V30 12993 C 1250.42 -1.96368 4.88186 0
M  V30 12994 O 1249.44 -1.5316 5.48207 0
M  V30 12995 N 1250.64 -3.29419 4.77978 0
M  V30 12996 H 1253.41 0.354503 2.97596 0
M  V30 12997 H 1250.97 0.335222 1.58392 0
M  V30 12998 H 1252.96 -2.13404 3.43862 0
M  V30 12999 H 1251.53 -2.02441 2.38194 0
M  V30 13000 H 1250.75 -0.0884372 3.94101 0
M  V30 13001 H 1252.04 -0.580983 5.05472 0
M  V30 13002 H 1251.44 -3.67211 4.30317 0
M  V30 13003 H 1250 -3.93129 5.19897 0
M  V30 13004 N 1253.43 -1.55816 0.23648 0
M  V30 13005 C 1254.36 -2.23924 -0.661834 0
M  V30 13006 C 1255.34 -1.21597 -1.18946 0
M  V30 13007 O 1256.52 -1.50222 -1.23073 0
M  V30 13008 C 1253.65 -2.93069 -1.86355 0
M  V30 13009 C 1252.61 -4.01996 -1.46913 0
M  V30 13010 C 1251.93 -4.58512 -2.75083 0
M  V30 13011 C 1253.23 -5.18265 -0.647964 0
M  V30 13012 H 1254.93 -2.99253 -0.0939368 0
M  V30 13013 H 1252.47 -1.43934 -0.0437407 0
M  V30 13014 H 1254.43 -3.39412 -2.49755 0
M  V30 13015 H 1253.15 -2.15212 -2.45665 0
M  V30 13016 H 1251.81 -3.56406 -0.858522 0
M  V30 13017 H 1251.46 -3.77368 -3.3257 0
M  V30 13018 H 1251.16 -5.32037 -2.49421 0
M  V30 13019 H 1252.68 -5.07583 -3.39399 0
M  V30 13020 H 1254.1 -5.60898 -1.18602 0
M  V30 13021 H 1252.49 -5.98114 -0.487823 0
M  V30 13022 H 1253.56 -4.83691 0.342151 0
M  V30 13023 N 1254.91 0.036755 -1.57557 0
M  V30 13024 C 1255.84 1.07261 -2.01421 0
M  V30 13025 C 1256.82 1.35609 -0.897161 0
M  V30 13026 O 1258 1.48395 -1.16237 0
M  V30 13027 C 1255.13 2.40912 -2.38074 0
M  V30 13028 C 1254.17 2.28471 -3.60143 0
M  V30 13029 S 1255.01 1.64544 -5.09594 0
M  V30 13030 C 1256.16 2.99701 -5.49482 0
M  V30 13031 H 1256.4 0.698959 -2.88967 0
M  V30 13032 H 1253.93 0.246481 -1.5242 0
M  V30 13033 H 1255.89 3.17776 -2.59862 0
M  V30 13034 H 1254.55 2.75427 -1.50993 0
M  V30 13035 H 1253.74 3.27117 -3.8342 0
M  V30 13036 H 1253.34 1.59749 -3.38166 0
M  V30 13037 H 1255.64 3.96032 -5.49695 0
M  V30 13038 H 1256.58 2.81166 -6.49885 0
M  V30 13039 H 1256.99 3.0192 -4.76975 0
M  V30 13040 N 1256.39 1.54543 0.308881 0
M  V30 13041 C 1257.32 1.79818 1.40502 0
M  V30 13042 C 1258.3 0.648927 1.4909 0
M  V30 13043 O 1259.48 0.888009 1.66273 0
M  V30 13044 C 1256.61 1.92787 2.7848 0
M  V30 13045 C 1255.65 3.15167 2.87353 0
M  V30 13046 S 1256.49 4.73427 2.50255 0
M  V30 13047 C 1257.64 4.89321 3.90276 0
M  V30 13048 H 1257.88 2.7251 1.18852 0
M  V30 13049 H 1255.41 1.45854 0.506551 0
M  V30 13050 H 1257.37 2.00944 3.57955 0
M  V30 13051 H 1256.03 1.01047 2.97403 0
M  V30 13052 H 1255.22 3.2102 3.88538 0
M  V30 13053 H 1254.82 3.05416 2.15864 0
M  V30 13054 H 1257.11 4.7286 4.8519 0
M  V30 13055 H 1258.06 5.91418 3.89398 0
M  V30 13056 H 1258.47 4.17524 3.79913 0
M  V30 13057 N 1257.86 -0.571685 1.46866 0
M  V30 13058 C 1258.8 -1.69475 1.54307 0
M  V30 13059 C 1259.81 -1.57006 0.430449 0
M  V30 13060 O 1261 -1.64229 0.69936 0
M  V30 13061 C 1258.1 -3.07824 1.41766 0
M  V30 13062 C 1257.27 -3.46189 2.67342 0
M  V30 13063 C 1256.33 -4.63642 2.48843 0
M  V30 13064 O 1255.36 -4.68949 3.22608 0
M  V30 13065 N 1256.56 -5.59223 1.55724 0
M  V30 13066 H 1259.32 -1.63543 2.51145 0
M  V30 13067 H 1256.88 -0.757957 1.43062 0
M  V30 13068 H 1258.88 -3.84208 1.27146 0
M  V30 13069 H 1257.45 -3.08063 0.530667 0
M  V30 13070 H 1256.67 -2.59399 2.96826 0
M  V30 13071 H 1257.95 -3.68591 3.50739 0
M  V30 13072 H 1257.35 -5.5768 0.949175 0
M  V30 13073 H 1255.91 -6.34993 1.47063 0
M  V30 13074 N 1259.34 -1.34755 -0.817236 0
M  V30 13075 C 1260.58 -1.28786 -1.58725 0
M  V30 13076 C 1260.95 0.138807 -1.91498 0
M  V30 13077 O 1262.15 0.322743 -2.66855 0
M  V30 13078 C 1260.42 -2.15907 -2.84814 0
M  V30 13079 S 1261.98 -2.27347 -3.75311 0
M  V30 13080 H 1258.79 -0.457844 -0.543967 0
M  V30 13081 H 1261.4 -1.70031 -0.96487 0
M  V30 13082 H 1260.1 -3.18559 -2.58744 0
M  V30 13083 H 1259.63 -1.7558 -3.52044 0
M  V30 13084 H 1261.65 -1.45044 -4.74528 0
M  V30 13085 N 1260.82 1.03812 -1.18578 0
M  V30 13086 C 1262.07 1.77447 -0.994191 0
M  V30 13087 C 1262.42 1.86546 0.470974 0
M  V30 13088 O 1261.71 1.3644 1.34517 0
M  V30 13089 C 1261.91 3.20297 -1.5857 0
M  V30 13090 C 1261.74 3.25122 -3.10686 0
M  V30 13091 C 1260.51 3.33604 -3.79521 0
M  V30 13092 C 1262.7 3.12923 -4.08147 0
M  V30 13093 N 1260.69 3.27705 -5.19117 0
M  V30 13094 C 1262.06 3.14553 -5.34281 0
M  V30 13095 C 1264.11 2.96983 -3.99631 0
M  V30 13096 C 1262.82 3.0188 -6.52887 0
M  V30 13097 C 1264.84 2.85657 -5.17836 0
M  V30 13098 C 1264.2 2.87933 -6.42864 0
M  V30 13099 H 1260.3 0.661013 -0.417835 0
M  V30 13100 H 1262.89 1.23648 -1.50397 0
M  V30 13101 H 1261.06 3.72437 -1.10207 0
M  V30 13102 H 1262.79 3.82243 -1.32937 0
M  V30 13103 H 1259.54 3.39442 -3.30266 0
M  V30 13104 H 1259.97 3.28188 -5.92133 0
M  V30 13105 H 1264.61 2.94052 -3.03798 0
M  V30 13106 H 1262.33 3.03563 -7.48916 0
M  V30 13107 H 1265.91 2.74374 -5.1304 0
M  V30 13108 H 1264.79 2.79259 -7.32792 0
M  V30 13109 N 1262.3 0.988223 1.22768 0
M  V30 13110 C 1263.23 0.492919 2.23837 0
M  V30 13111 C 1264.24 -0.409467 1.57567 0
M  V30 13112 O 1265.43 -0.21235 1.77232 0
M  V30 13113 C 1262.53 -0.305428 3.37521 0
M  V30 13114 C 1261.7 0.591966 4.33376 0
M  V30 13115 C 1260.76 -0.15387 5.25975 0
M  V30 13116 O 1259.79 0.459153 5.67345 0
M  V30 13117 N 1260.99 -1.43756 5.62418 0
M  V30 13118 H 1263.76 1.36199 2.66965 0
M  V30 13119 H 1261.32 0.862395 1.3702 0
M  V30 13120 H 1263.31 -0.812921 3.96451 0
M  V30 13121 H 1261.88 -1.07556 2.93514 0
M  V30 13122 H 1261.1 1.28019 3.72833 0
M  V30 13123 H 1262.39 1.20327 4.94367 0
M  V30 13124 H 1261.79 -1.95701 5.30771 0
M  V30 13125 H 1260.34 -1.89034 6.23786 0
M  V30 13126 N 1263.78 -1.38018 0.760839 0
M  V30 13127 C 1264.71 -2.2899 0.0980916 0
M  V30 13128 C 1265.72 -1.48102 -0.675985 0
M  V30 13129 O 1266.91 -1.70883 -0.515878 0
M  V30 13130 C 1264.01 -3.27142 -0.884959 0
M  V30 13131 C 1263.18 -4.37081 -0.167 0
M  V30 13132 C 1262.24 -5.15375 -1.06184 0
M  V30 13133 O 1261.27 -5.6673 -0.529667 0
M  V30 13134 N 1262.47 -5.29052 -2.38924 0
M  V30 13135 H 1265.23 -2.86508 0.879403 0
M  V30 13136 H 1262.8 -1.49877 0.612245 0
M  V30 13137 H 1264.79 -3.764 -1.48678 0
M  V30 13138 H 1263.36 -2.70471 -1.5673 0
M  V30 13139 H 1262.58 -3.89363 0.615617 0
M  V30 13140 H 1263.87 -5.07732 0.329525 0
M  V30 13141 H 1263.26 -4.88892 -2.84607 0
M  V30 13142 H 1261.82 -5.81658 -2.94139 0
M  V30 13143 N 1265.25 -0.510493 -1.49103 0
M  V30 13144 C 1266.16 0.267176 -2.33074 0
M  V30 13145 C 1267.18 0.958117 -1.45245 0
M  V30 13146 O 1268.36 0.937399 -1.78255 0
M  V30 13147 C 1265.42 1.31212 -3.20911 0
M  V30 13148 C 1264.48 0.633613 -4.24598 0
M  V30 13149 C 1263.71 1.62878 -5.08239 0
M  V30 13150 O 1263.94 2.85958 -4.93543 0
M  V30 13151 O 1262.87 1.17887 -5.90242 0
M  V30 13152 H 1266.7 -0.420384 -3.00776 0
M  V30 13153 H 1264.28 -0.271683 -1.46909 0
M  V30 13154 H 1266.16 1.91647 -3.75299 0
M  V30 13155 H 1264.84 1.98244 -2.55892 0
M  V30 13156 H 1263.75 -0.0107246 -3.74098 0
M  V30 13157 H 1265.08 0.0055777 -4.922 0
M  V30 13158 N 1266.73 1.55688 -0.24474 0
M  V30 13159 C 1268.15 1.59219 0.110159 0
M  V30 13160 C 1268.35 1.26187 1.57096 0
M  V30 13161 O 1267.4 1.00815 2.31501 0
M  V30 13162 C 1268.72 2.99764 -0.237075 0
M  V30 13163 C 1270.26 3.12475 -0.181198 0
M  V30 13164 C 1270.74 4.55236 -0.502435 0
M  V30 13165 N 1272.23 4.60981 -0.452855 0
M  V30 13166 C 1272.97 5.69418 -0.674605 0
M  V30 13167 N 1272.46 6.86125 -0.959366 0
M  V30 13168 N 1274.25 5.5883 -0.605459 0
M  V30 13169 H 1266.41 1.7543 -1.19741 0
M  V30 13170 H 1268.67 0.816537 -0.481634 0
M  V30 13171 H 1268.37 3.28666 -1.25185 0
M  V30 13172 H 1268.25 3.74662 0.436859 0
M  V30 13173 H 1270.64 2.83355 0.824248 0
M  V30 13174 H 1270.72 2.39857 -0.888952 0
M  V30 13175 H 1270.36 4.85077 -1.50543 0
M  V30 13176 H 1270.29 5.26111 0.226773 0
M  V30 13177 H 1272.78 3.77128 -0.241401 0
M  V30 13178 H 1273.09 7.64699 -1.11605 0
M  V30 13179 H 1271.44 6.87814 -0.996816 0
M  V30 13180 H 1274.63 4.6653 -0.383053 0
M  V30 13181 H 1274.8 6.43268 -0.781673 0
M  V30 13182 N 1268.21 -0.0283989 1.57574 0
M  V30 13183 C 1269.17 -1.01346 2.05576 0
M  V30 13184 C 1270.17 -1.28999 0.960001 0
M  V30 13185 O 1271.36 -1.23991 1.2236 0
M  V30 13186 C 1268.49 -2.34611 2.47327 0
M  V30 13187 H 1269.69 -0.598809 2.93861 0
M  V30 13188 H 1267.24 -0.27524 1.53857 0
M  V30 13189 H 1267.98 -2.80823 1.622 0
M  V30 13190 H 1267.76 -2.1587 3.27326 0
M  V30 13191 H 1269.25 -3.05332 2.84889 0
M  V30 13192 N 1269.69 -1.54705 -0.300681 0
M  V30 13193 C 1271.1 -1.45926 -0.646359 0
M  V30 13194 C 1271.3 -0.65072 -1.90704 0
M  V30 13195 O 1270.36 -0.158547 -2.52002 0
M  V30 13196 C 1271.67 -2.89889 -0.799059 0
M  V30 13197 C 1273.22 -2.99934 -0.894923 0
M  V30 13198 C 1273.7 -4.45093 -1.07962 0
M  V30 13199 N 1275.19 -4.48804 -1.14581 0
M  V30 13200 C 1275.92 -5.58305 -1.30702 0
M  V30 13201 N 1275.42 -6.77729 -1.43719 0
M  V30 13202 N 1277.21 -5.45994 -1.33593 0
M  V30 13203 H 1269.36 -2.05742 0.527617 0
M  V30 13204 H 1271.62 -0.931817 0.174415 0
M  V30 13205 H 1271.33 -3.51655 0.0563954 0
M  V30 13206 H 1271.2 -3.37325 -1.68796 0
M  V30 13207 H 1273.59 -2.38281 -1.74086 0
M  V30 13208 H 1273.67 -2.55794 0.0179973 0
M  V30 13209 H 1273.32 -5.0734 -0.238444 0
M  V30 13210 H 1273.25 -4.86864 -2.00677 0
M  V30 13211 H 1275.74 -3.62766 -1.05874 0
M  V30 13212 H 1276.05 -7.56937 -1.55776 0
M  V30 13213 H 1274.4 -6.80594 -1.40774 0
M  V30 13214 H 1277.59 -4.51641 -1.23035 0
M  V30 13215 H 1277.76 -6.31381 -1.45813 0
M  V30 13216 N 1271.17 0.563888 -1.47167 0
M  V30 13217 C 1272.58 0.889156 -1.32537 0
M  V30 13218 C 1272.78 1.99088 -0.310854 0
M  V30 13219 O 1271.84 2.50943 0.27998 0
M  V30 13220 C 1273.15 1.28871 -2.71685 0
M  V30 13221 C 1274.7 1.40051 -2.79919 0
M  V30 13222 C 1275.17 1.83364 -4.19692 0
M  V30 13223 N 1276.67 1.90526 -4.22201 0
M  V30 13224 C 1277.4 2.25355 -5.2726 0
M  V30 13225 N 1276.9 2.58844 -6.42629 0
M  V30 13226 N 1278.69 2.26071 -5.14634 0
M  V30 13227 H 1270.84 -0.163581 -2.11769 0
M  V30 13228 H 1273.1 -0.0105151 -0.947942 0
M  V30 13229 H 1272.81 0.553057 -3.47324 0
M  V30 13230 H 1272.68 2.24629 -3.03021 0
M  V30 13231 H 1275.07 2.12698 -2.04557 0
M  V30 13232 H 1275.15 0.424971 -2.52245 0
M  V30 13233 H 1274.8 1.11289 -4.95557 0
M  V30 13234 H 1274.73 2.81909 -4.44786 0
M  V30 13235 H 1277.22 1.67059 -3.38968 0
M  V30 13236 H 1277.53 2.84427 -7.18555 0
M  V30 13237 H 1275.87 2.56439 -6.4596 0
M  V30 13238 H 1279.07 1.99343 -4.23533 0
M  V30 13239 H 1279.24 2.52885 -5.96618 0
M  V30 13240 N 1272.64 1.35187 0.810078 0
M  V30 13241 C 1274.06 1.25329 1.38381 0
M  V30 13242 C 1274.41 -0.115799 1.95858 0
M  V30 13243 O 1273.53 -1.01663 1.91033 0
M  V30 13244 C 1274.13 2.2693 2.51572 0
M  V30 13245 C 1272.69 2.20824 3.04818 0
M  V30 13246 C 1271.83 2.1283 1.7776 0
M  V30 13247 H 1274.78 1.46366 0.613402 0
M  V30 13248 H 1274.8 1.89375 3.30026 0
M  V30 13249 H 1274.32 3.26563 2.09709 0
M  V30 13250 H 1272.42 1.24589 3.51153 0
M  V30 13251 H 1272.53 3.12637 3.63036 0
M  V30 13252 H 1270.89 1.58752 1.99173 0
M  V30 13253 H 1271.68 3.14318 1.38054 0
M  V30 13254 N 1274.12 -1.03182 1.19127 0
M  V30 13255 C 1275.07 -2.11394 0.926339 0
M  V30 13256 C 1276.04 -1.65528 -0.137703 0
M  V30 13257 O 1277.22 -1.908 0.00381804 0
M  V30 13258 C 1274.36 -3.41913 0.467894 0
M  V30 13259 C 1273.48 -4.01343 1.59837 0
M  V30 13260 C 1272.61 -5.1986 1.09175 0
M  V30 13261 C 1271.65 -5.71339 2.19632 0
M  V30 13262 N 1270.79 -6.81133 1.703 0
M  V30 13263 H 1275.63 -2.33393 1.85288 0
M  V30 13264 H 1273.17 -1.14473 0.923811 0
M  V30 13265 H 1275.12 -4.16796 0.183513 0
M  V30 13266 H 1273.75 -3.20034 -0.421656 0
M  V30 13267 H 1272.81 -3.23702 1.99803 0
M  V30 13268 H 1274.12 -4.35568 2.43068 0
M  V30 13269 H 1273.27 -6.0189 0.762427 0
M  V30 13270 H 1272.01 -4.87161 0.22914 0
M  V30 13271 H 1271.02 -4.87923 2.53399 0
M  V30 13272 H 1272.24 -6.06078 3.06344 0
M  V30 13273 H 1270.19 -6.50293 0.863415 0
M  V30 13274 H 1270.1 -7.1447 2.47122 0
M  V30 13275 H 1271.37 -7.66766 1.40321 0
M  V30 13276 N 1275.6 -0.99472 -1.22242 0
M  V30 13277 C 1276.85 -0.671602 -1.91039 0
M  V30 13278 C 1277.18 0.796543 -1.77441 0
M  V30 13279 O 1276.43 1.59179 -1.13845 0
M  V30 13280 C 1276.73 -1.02561 -3.42368 0
M  V30 13281 C 1276.4 -2.48632 -3.76155 0
M  V30 13282 C 1275.06 -2.88549 -3.85088 0
M  V30 13283 C 1277.41 -3.43302 -3.92165 0
M  V30 13284 C 1274.74 -4.22121 -4.07469 0
M  V30 13285 C 1277.09 -4.76534 -4.1605 0
M  V30 13286 C 1275.75 -5.1619 -4.23207 0
M  V30 13287 H 1275.02 -0.245756 -0.69906 0
M  V30 13288 H 1277.67 -1.25125 -1.44969 0
M  V30 13289 H 1275.98 -0.364073 -3.90105 0
M  V30 13290 H 1277.67 -0.753612 -3.93855 0
M  V30 13291 H 1274.26 -2.16693 -3.69787 0
M  V30 13292 H 1278.45 -3.13633 -3.8464 0
M  V30 13293 H 1273.7 -4.52431 -4.11238 0
M  V30 13294 H 1277.88 -5.49835 -4.27381 0
M  V30 13295 H 1275.5 -6.19708 -4.40303 0
M  V30 13296 N 1277.08 1.37613 -0.768148 0
M  V30 13297 C 1278.04 2.28653 -0.158283 0
M  V30 13298 C 1279.04 1.47862 0.631936 0
M  V30 13299 O 1280.23 1.68124 0.456055 0
M  V30 13300 C 1277.36 3.31776 0.783435 0
M  V30 13301 H 1278.56 2.84094 -0.960772 0
M  V30 13302 H 1276.11 1.46818 -0.536116 0
M  V30 13303 H 1276.84 2.81452 1.61106 0
M  V30 13304 H 1276.63 3.91488 0.219016 0
M  V30 13305 H 1278.12 3.99816 1.20568 0
M  V30 13306 N 1278.56 0.518393 1.4883 0
M  V30 13307 C 1279.83 -0.0837498 1.95421 0
M  V30 13308 C 1280.21 -1.52435 1.46037 0
M  V30 13309 O 1279.56 -2.18093 0.681736 0
M  V30 13310 C 1279.77 0.0215333 3.48993 0
M  V30 13311 C 1281.12 -0.143615 4.24357 0
M  V30 13312 O 1282.14 -0.0528223 3.56161 0
M  V30 13313 O 1281 -0.332231 5.45489 0
M  V30 13314 H 1278.1 -0.0857132 0.822546 0
M  V30 13315 H 1280.64 0.582169 1.59402 0
M  V30 13316 H 1279.41 1.02549 3.77623 0
M  V30 13317 H 1279.04 -0.683756 3.91677 0
M  V30 13318 N 1280.03 -1.55556 0.252993 0
M  V30 13319 C 1281.28 -1.98267 -0.370571 0
M  V30 13320 C 1281.6 -1.14449 -1.58622 0
M  V30 13321 O 1282.8 -1.472 -2.28132 0
M  V30 13322 C 1281.26 -3.52813 -0.710685 0
M  V30 13323 C 1280.87 -4.45379 0.483908 0
M  V30 13324 C 1282.61 -4.04165 -1.2981 0
M  V30 13325 C 1280.52 -5.91279 0.119611 0
M  V30 13326 H 1279.45 -0.740463 -0.142232 0
M  V30 13327 H 1282.1 -1.8005 0.354169 0
M  V30 13328 H 1280.48 -3.66748 -1.49372 0
M  V30 13329 H 1281.65 -4.43206 1.26116 0
M  V30 13330 H 1279.97 -4.04542 0.986664 0
M  V30 13331 H 1282.57 -5.10696 -1.5841 0
M  V30 13332 H 1282.91 -3.51875 -2.22462 0
M  V30 13333 H 1283.44 -3.93581 -0.577836 0
M  V30 13334 H 1280.18 -6.47619 1.01343 0
M  V30 13335 H 1279.7 -5.96573 -0.621318 0
M  V30 13336 H 1281.38 -6.46322 -0.296052 0
M  V30 13337 N 1281.51 0.0200419 -1.57587 0
M  V30 13338 C 1282.76 0.710078 -1.89962 0
M  V30 13339 C 1283.09 1.74521 -0.851829 0
M  V30 13340 O 1282.37 1.94052 0.132005 0
M  V30 13341 C 1282.65 1.37145 -3.32961 0
M  V30 13342 C 1282.5 0.349221 -4.48442 0
M  V30 13343 C 1283.82 2.30304 -3.75031 0
M  V30 13344 H 1280.94 0.25667 -0.690862 0
M  V30 13345 H 1283.58 -0.0271362 -1.89981 0
M  V30 13346 H 1281.73 1.99981 -3.33076 0
M  V30 13347 H 1283.4 -0.277916 -4.60462 0
M  V30 13348 H 1281.65 -0.330594 -4.32538 0
M  V30 13349 H 1282.32 0.850636 -5.45406 0
M  V30 13350 H 1284.79 1.77503 -3.7634 0
M  V30 13351 H 1283.67 2.73555 -4.75877 0
M  V30 13352 H 1283.93 3.17364 -3.07786 0
M  V30 13353 N 1282.99 1.54862 0.292472 0
M  V30 13354 C 1284.22 1.78877 1.04966 0
M  V30 13355 C 1284.64 0.550724 1.79857 0
M  V30 13356 O 1284 -0.499054 1.74296 0
M  V30 13357 C 1284.05 3.00106 1.99922 0
M  V30 13358 O 1283.15 2.73827 3.0837 0
M  V30 13359 H 1282.49 0.591802 0.301108 0
M  V30 13360 H 1285.02 2.01965 0.3273 0
M  V30 13361 H 1285.03 3.28309 2.42233 0
M  V30 13362 H 1283.71 3.89872 1.44821 0
M  V30 13363 H 1282.28 2.56665 2.70513 0
M  V30 13364 N 1284.47 -0.556076 1.47464 0
M  V30 13365 C 1285.72 -1.30955 1.53407 0
M  V30 13366 C 1286.03 -1.94559 0.201485 0
M  V30 13367 O 1287.24 -2.71144 0.138925 0
M  V30 13368 C 1285.69 -2.37476 2.70431 0
M  V30 13369 C 1285.3 -1.80057 4.10224 0
M  V30 13370 C 1287.04 -3.13997 2.85668 0
M  V30 13371 C 1284.95 -2.84365 5.18547 0
M  V30 13372 H 1283.88 -0.4924 0.571015 0
M  V30 13373 H 1286.53 -0.590459 1.73741 0
M  V30 13374 H 1284.91 -3.12304 2.43479 0
M  V30 13375 H 1286.09 -1.11593 4.47083 0
M  V30 13376 H 1284.4 -1.16116 3.99882 0
M  V30 13377 H 1287 -3.91892 3.63764 0
M  V30 13378 H 1287.34 -3.68253 1.94153 0
M  V30 13379 H 1287.88 -2.46281 3.12395 0
M  V30 13380 H 1284.62 -2.34963 6.11942 0
M  V30 13381 H 1284.14 -3.51235 4.86203 0
M  V30 13382 H 1285.81 -3.47836 5.45545 0
M  V30 13383 N 1285.95 -1.35615 -0.802897 0
M  V30 13384 C 1286.88 -1.31506 -1.92947 0
M  V30 13385 C 1287.86 -0.188843 -1.69048 0
M  V30 13386 O 1289.04 -0.384384 -1.90358 0
M  V30 13387 C 1286.17 -1.09001 -3.29752 0
M  V30 13388 C 1285.13 -2.18303 -3.68141 0
M  V30 13389 C 1284.45 -1.80959 -5.03148 0
M  V30 13390 C 1285.75 -3.60296 -3.78132 0
M  V30 13391 H 1287.45 -2.25771 -1.96642 0
M  V30 13392 H 1284.99 -1.08682 -0.944685 0
M  V30 13393 H 1286.95 -1.04766 -4.08169 0
M  V30 13394 H 1285.67 -0.111832 -3.26408 0
M  V30 13395 H 1284.33 -2.21642 -2.92011 0
M  V30 13396 H 1283.98 -0.817495 -4.96312 0
M  V30 13397 H 1283.68 -2.54129 -5.29804 0
M  V30 13398 H 1285.2 -1.78255 -5.84001 0
M  V30 13399 H 1286.62 -3.59259 -4.46773 0
M  V30 13400 H 1285.01 -4.32258 -4.16261 0
M  V30 13401 H 1286.08 -3.9618 -2.79588 0
M  V30 13402 N 1287.43 1.02549 -1.19673 0
M  V30 13403 C 1288.7 1.73106 -0.9107 0
M  V30 13404 C 1289.08 2.02897 0.582769 0
M  V30 13405 O 1288.43 1.68633 1.54192 0
M  V30 13406 C 1288.64 3.00535 -1.77425 0
M  V30 13407 C 1289.99 3.73976 -2.01065 0
M  V30 13408 O 1291.01 3.1047 -1.74605 0
M  V30 13409 O 1289.87 4.88153 -2.457 0
M  V30 13410 H 1286.97 0.754006 -0.339711 0
M  V30 13411 H 1289.51 1.08477 -1.30502 0
M  V30 13412 H 1288.28 2.74773 -2.78595 0
M  V30 13413 H 1287.91 3.72904 -1.37943 0
M  V30 13414 N 1288.9 1.00119 1.21713 0
M  V30 13415 C 1289.85 0.558388 2.23943 0
M  V30 13416 C 1290.82 -0.413576 1.60869 0
M  V30 13417 O 1292.01 -0.316478 1.88157 0
M  V30 13418 C 1289.15 -0.112618 3.44916 0
M  V30 13419 C 1288.26 0.902071 4.22477 0
M  V30 13420 C 1287.39 0.203722 5.30809 0
M  V30 13421 C 1286.43 1.20622 6.00097 0
M  V30 13422 N 1285.57 0.535607 7.00054 0
M  V30 13423 H 1290.41 1.43486 2.61182 0
M  V30 13424 H 1287.95 0.718572 1.28355 0
M  V30 13425 H 1289.9 -0.51865 4.13964 0
M  V30 13426 H 1288.53 -0.952827 3.08417 0
M  V30 13427 H 1287.59 1.42637 3.52645 0
M  V30 13428 H 1288.9 1.66513 4.70186 0
M  V30 13429 H 1288.05 -0.258614 6.06149 0
M  V30 13430 H 1286.79 -0.591773 4.84096 0
M  V30 13431 H 1285.8 1.6791 5.23532 0
M  V30 13432 H 1287.02 2.00273 6.48897 0
M  V30 13433 H 1284.97 -0.2403 6.5556 0
M  V30 13434 H 1284.88 1.23698 7.45812 0
M  V30 13435 H 1286.15 0.0963489 7.7944 0
M  V30 13436 N 1290.38 -1.37203 0.775435 0
M  V30 13437 C 1291.31 -2.32819 0.17826 0
M  V30 13438 C 1292.29 -1.55963 -0.678944 0
M  V30 13439 O 1293.48 -1.84183 -0.615648 0
M  V30 13440 C 1290.61 -3.40198 -0.698768 0
M  V30 13441 C 1289.56 -4.27961 0.057423 0
M  V30 13442 C 1288.89 -5.26385 -0.93929 0
M  V30 13443 C 1290.19 -5.07402 1.23856 0
M  V30 13444 H 1291.88 -2.8301 0.977028 0
M  V30 13445 H 1289.43 -1.3607 0.471274 0
M  V30 13446 H 1291.38 -4.06067 -1.12637 0
M  V30 13447 H 1290.1 -2.88541 -1.53009 0
M  V30 13448 H 1288.76 -3.63628 0.465848 0
M  V30 13449 H 1288.41 -4.71007 -1.76527 0
M  V30 13450 H 1288.11 -5.85966 -0.437844 0
M  V30 13451 H 1289.64 -5.9513 -1.36576 0
M  V30 13452 H 1291.05 -5.6639 0.887423 0
M  V30 13453 H 1289.45 -5.76327 1.67234 0
M  V30 13454 H 1290.52 -4.3986 2.04085 0
M  V30 13455 N 1291.86 -0.526279 -1.48553 0
M  V30 13456 C 1293.11 0.0111473 -2.01697 0
M  V30 13457 C 1293.42 1.35675 -1.40895 0
M  V30 13458 O 1294.63 1.98233 -1.85515 0
M  V30 13459 C 1293.08 0.0702721 -3.59831 0
M  V30 13460 C 1292.69 -1.27022 -4.29616 0
M  V30 13461 C 1294.44 0.556722 -4.20834 0
M  V30 13462 C 1292.34 -1.17188 -5.79673 0
M  V30 13463 H 1291.27 0.00793697 -0.753958 0
M  V30 13464 H 1293.92 -0.669503 -1.70851 0
M  V30 13465 H 1292.31 0.81592 -3.87503 0
M  V30 13466 H 1293.48 -2.03114 -4.1362 0
M  V30 13467 H 1291.79 -1.69211 -3.80469 0
M  V30 13468 H 1294.39 0.648205 -5.30756 0
M  V30 13469 H 1294.73 1.56163 -3.859 0
M  V30 13470 H 1295.27 -0.133132 -3.97577 0
M  V30 13471 H 1292.01 -2.15182 -6.19174 0
M  V30 13472 H 1291.53 -0.452259 -5.98093 0
M  V30 13473 H 1293.21 -0.861011 -6.41245 0
M  V30 13474 N 1293.34 1.5542 -0.261239 0
M  V30 13475 C 1294.75 1.59327 0.0932655 0
M  V30 13476 C 1294.95 1.27846 1.55748 0
M  V30 13477 O 1294.01 1.03265 2.30418 0
M  V30 13478 C 1295.32 2.99496 -0.268856 0
M  V30 13479 C 1296.87 3.12265 -0.21433 0
M  V30 13480 C 1297.35 4.54677 -0.55069 0
M  V30 13481 N 1298.84 4.60475 -0.501723 0
M  V30 13482 C 1299.57 5.6867 -0.734961 0
M  V30 13483 N 1299.07 6.85069 -1.03209 0
M  V30 13484 N 1300.86 5.58156 -0.664696 0
M  V30 13485 H 1293.01 1.7415 -1.21595 0
M  V30 13486 H 1295.27 0.811382 -0.490268 0
M  V30 13487 H 1294.98 3.2732 -1.28664 0
M  V30 13488 H 1294.85 3.75104 0.397097 0
M  V30 13489 H 1297.24 2.84213 0.794148 0
M  V30 13490 H 1297.32 2.389 -0.914342 0
M  V30 13491 H 1296.97 4.83453 -1.55679 0
M  V30 13492 H 1296.9 5.26322 0.170959 0
M  V30 13493 H 1299.39 3.76851 -0.281387 0
M  V30 13494 H 1299.7 7.63472 -1.19709 0
M  V30 13495 H 1298.05 6.86718 -1.06971 0
M  V30 13496 H 1301.24 4.66098 -0.432513 0
M  V30 13497 H 1301.41 6.42403 -0.849857 0
M  V30 13498 N 1294.82 -0.0116844 1.57596 0
M  V30 13499 C 1295.78 -0.991601 2.0664 0
M  V30 13500 C 1296.78 -1.27973 0.973629 0
M  V30 13501 O 1297.97 -1.22686 1.23668 0
M  V30 13502 C 1295.1 -2.31975 2.49801 0
M  V30 13503 H 1296.29 -0.567607 2.9448 0
M  V30 13504 H 1293.85 -0.258906 1.54141 0
M  V30 13505 H 1294.58 -2.79087 1.65169 0
M  V30 13506 H 1294.37 -2.12386 3.29598 0
M  V30 13507 H 1295.86 -3.02294 2.88112 0
M  V30 13508 N 1296.29 -1.55015 -0.284256 0
M  V30 13509 C 1297.7 -1.65915 -0.856104 0
M  V30 13510 C 1298.06 -0.578758 -1.8747 0
M  V30 13511 O 1297.18 0.281733 -2.14558 0
M  V30 13512 C 1297.78 -3.0077 -1.55957 0
M  V30 13513 C 1296.33 -3.13735 -2.0796 0
M  V30 13514 C 1295.48 -2.61669 -0.917849 0
M  V30 13515 H 1298.43 -1.58583 -0.0608587 0
M  V30 13516 H 1298.45 -2.9313 -2.42601 0
M  V30 13517 H 1297.97 -3.79382 -0.81798 0
M  V30 13518 H 1296.07 -2.39875 -2.85115 0
M  V30 13519 H 1296.18 -4.20138 -2.30263 0
M  V30 13520 H 1294.54 -2.18542 -1.3081 0
M  V30 13521 H 1295.33 -3.42774 -0.189946 0
M  V30 13522 N 1297.77 0.548248 -1.47757 0
M  V30 13523 C 1299.05 1.3092 -1.45325 0
M  V30 13524 C 1299.43 2.1053 -0.155008 0
M  V30 13525 O 1298.78 2.11558 0.863455 0
M  V30 13526 C 1298.99 2.20614 -2.70426 0
M  V30 13527 C 1300.33 2.81345 -3.18009 0
M  V30 13528 O 1301.36 2.30911 -2.71216 0
M  V30 13529 O 1300.22 3.73036 -3.99383 0
M  V30 13530 H 1297.31 0.58996 -0.579548 0
M  V30 13531 H 1299.86 0.56641 -1.59968 0
M  V30 13532 H 1298.63 1.61449 -3.56441 0
M  V30 13533 H 1298.25 3.02173 -2.58413 0
M  V30 13534 N 1299.25 1.36039 0.795694 0
M  V30 13535 C 1300.47 1.33222 1.58955 0
M  V30 13536 C 1300.9 -0.0854596 1.87906 0
M  V30 13537 O 1300.26 -1.05555 1.47403 0
M  V30 13538 C 1300.31 2.15508 2.89117 0
M  V30 13539 O 1299.41 1.54327 3.82436 0
M  V30 13540 H 1298.75 0.456264 0.48241 0
M  V30 13541 H 1301.28 1.79234 0.986726 0
M  V30 13542 H 1301.29 2.2786 3.38444 0
M  V30 13543 H 1299.97 3.18568 2.67371 0
M  V30 13544 H 1298.54 1.50879 3.41013 0
M  V30 13545 N 1300.73 -1.01913 1.20215 0
M  V30 13546 C 1301.66 -2.12282 0.97256 0
M  V30 13547 C 1302.64 -1.6982 -0.0975709 0
M  V30 13548 O 1303.82 -1.94109 0.0594307 0
M  V30 13549 C 1300.95 -3.43369 0.521085 0
M  V30 13550 C 1299.91 -3.99559 1.53417 0
M  V30 13551 C 1299.23 -5.26383 0.93942 0
M  V30 13552 C 1300.53 -4.33241 2.91718 0
M  V30 13553 H 1302.23 -2.31746 1.89563 0
M  V30 13554 H 1299.77 -1.1137 0.912841 0
M  V30 13555 H 1301.73 -4.19963 0.347713 0
M  V30 13556 H 1300.45 -3.23655 -0.437605 0
M  V30 13557 H 1299.11 -3.25069 1.69486 0
M  V30 13558 H 1298.76 -5.02993 -0.0271236 0
M  V30 13559 H 1298.46 -5.64942 1.616 0
M  V30 13560 H 1299.98 -6.05635 0.777059 0
M  V30 13561 H 1301.4 -5.00734 2.79175 0
M  V30 13562 H 1299.79 -4.82907 3.56259 0
M  V30 13563 H 1300.86 -3.42118 3.43633 0
M  V30 13564 N 1302.21 -1.00763 -1.2118 0
M  V30 13565 C 1303.15 -0.570257 -2.23644 0
M  V30 13566 C 1304.12 0.405039 -1.61086 0
M  V30 13567 O 1305.31 0.306496 -1.88322 0
M  V30 13568 C 1302.45 0.094325 -3.44971 0
M  V30 13569 C 1301.56 -0.924463 -4.21993 0
M  V30 13570 C 1300.7 -0.231869 -5.30694 0
M  V30 13571 C 1299.74 -1.23803 -5.99449 0
M  V30 13572 N 1298.87 -0.572725 -6.9976 0
M  V30 13573 H 1303.71 -1.44869 -2.60417 0
M  V30 13574 H 1301.25 -0.725369 -1.27972 0
M  V30 13575 H 1303.21 0.496689 -4.14233 0
M  V30 13576 H 1301.84 0.936457 -3.08918 0
M  V30 13577 H 1300.89 -1.44505 -3.51884 0
M  V30 13578 H 1302.2 -1.69004 -4.69296 0
M  V30 13579 H 1301.36 0.226465 -6.06277 0
M  V30 13580 H 1300.09 0.566092 -4.84403 0
M  V30 13581 H 1299.1 -1.70684 -5.22635 0
M  V30 13582 H 1300.32 -2.03711 -6.47826 0
M  V30 13583 H 1298.27 0.205531 -6.55678 0
M  V30 13584 H 1298.19 -1.27651 -7.45145 0
M  V30 13585 H 1299.46 -0.137683 -7.79378 0
M  V30 13586 N 1303.68 1.3679 -0.7827 0
M  V30 13587 C 1304.91 2.03678 -0.363734 0
M  V30 13588 C 1305.33 1.59024 1.01768 0
M  V30 13589 O 1304.68 0.776541 1.65155 0
M  V30 13590 C 1304.74 3.59165 -0.410213 0
M  V30 13591 O 1304.46 4.02188 -1.73714 0
M  V30 13592 C 1305.96 4.43296 0.018972 0
M  V30 13593 H 1303.18 0.653828 -0.150829 0
M  V30 13594 H 1305.72 1.74903 -1.05968 0
M  V30 13595 H 1303.88 3.86673 0.237249 0
M  V30 13596 H 1304.29 4.96754 -1.68332 0
M  V30 13597 H 1305.76 5.51962 -0.0646943 0
M  V30 13598 H 1306.24 4.25948 1.07076 0
M  V30 13599 H 1306.85 4.21036 -0.600721 0
M  V30 13600 N 1305.16 0.53415 1.48272 0
M  V30 13601 C 1306.09 -0.215037 2.32508 0
M  V30 13602 C 1307.07 -0.931083 1.42355 0
M  V30 13603 O 1308.26 -0.916051 1.71237 0
M  V30 13604 C 1305.39 -1.25985 3.23643 0
M  V30 13605 C 1304.34 -0.661692 4.22854 0
M  V30 13606 C 1303.67 -1.80946 5.03153 0
M  V30 13607 C 1304.97 0.369358 5.20992 0
M  V30 13608 H 1306.66 0.488158 2.95394 0
M  V30 13609 H 1304.21 0.236206 1.4205 0
M  V30 13610 H 1306.16 -1.79195 3.81402 0
M  V30 13611 H 1304.89 -1.99268 2.58766 0
M  V30 13612 H 1303.54 -0.151082 3.66289 0
M  V30 13613 H 1303.19 -2.53077 4.34696 0
M  V30 13614 H 1302.89 -1.41513 5.70305 0
M  V30 13615 H 1304.42 -2.34526 5.63764 0
M  V30 13616 H 1305.83 -0.0758076 5.7325 0
M  V30 13617 H 1304.23 0.681301 5.9622 0
M  V30 13618 H 1305.3 1.27363 4.67875 0
M  V30 13619 N 1306.64 -1.55279 0.269478 0
M  V30 13620 C 1307.6 -2.21008 -0.607299 0
M  V30 13621 C 1308.6 -1.18619 -1.08564 0
M  V30 13622 O 1309.79 -1.4356 -0.986721 0
M  V30 13623 C 1306.93 -2.87157 -1.83721 0
M  V30 13624 H 1308.12 -2.99881 -0.0334894 0
M  V30 13625 H 1305.67 -1.56287 0.0200573 0
M  V30 13626 H 1306.41 -2.12281 -2.45168 0
M  V30 13627 H 1306.19 -3.62183 -1.5022 0
M  V30 13628 H 1307.68 -3.37391 -2.46083 0
M  V30 13629 N 1308.12 0.00332656 -1.576 0
M  V30 13630 C 1309.4 0.725722 -1.81639 0
M  V30 13631 C 1309.78 1.92173 -0.87365 0
M  V30 13632 O 1309.12 2.28365 0.0783931 0
M  V30 13633 C 1309.33 1.13458 -3.30043 0
M  V30 13634 C 1310.68 1.53982 -3.95695 0
M  V30 13635 O 1311.71 1.22846 -3.34346 0
M  V30 13636 O 1310.56 2.11866 -5.03761 0
M  V30 13637 H 1307.66 0.353083 -0.747838 0
M  V30 13638 H 1310.2 -0.0218724 -1.69686 0
M  V30 13639 H 1308.98 0.281925 -3.90283 0
M  V30 13640 H 1308.6 1.94138 -3.46982 0
M  V30 13641 N 1309.6 1.55164 0.276031 0
M  V30 13642 C 1310.84 1.75627 1.00803 0
M  V30 13643 C 1311.17 0.555696 1.86393 0
M  V30 13644 O 1310.43 -0.461872 1.90172 0
M  V30 13645 C 1310.73 3.0127 1.92279 0
M  V30 13646 C 1310.39 4.33951 1.22464 0
M  V30 13647 C 1309.05 4.70013 1.03158 0
M  V30 13648 C 1311.41 5.16097 0.72758 0
M  V30 13649 C 1308.73 5.85779 0.328699 0
M  V30 13650 C 1311.09 6.32588 0.0383001 0
M  V30 13651 C 1309.75 6.67292 -0.166494 0
M  V30 13652 H 1309.02 0.642665 0.368866 0
M  V30 13653 H 1311.67 1.89433 0.280595 0
M  V30 13654 H 1309.97 2.82351 2.71634 0
M  V30 13655 H 1311.67 3.14299 2.49032 0
M  V30 13656 H 1308.26 4.05605 1.38501 0
M  V30 13657 H 1312.44 4.88715 0.864365 0
M  V30 13658 H 1307.7 6.11192 0.159279 0
M  V30 13659 H 1311.87 6.95496 -0.354631 0
M  V30 13660 H 1309.5 7.56848 -0.713124 0
M  V30 13661 N 1311.07 -0.540404 1.48045 0
M  V30 13662 C 1312.35 -1.30148 1.46017 0
M  V30 13663 C 1312.73 -2.10445 0.166171 0
M  V30 13664 O 1312.08 -2.12013 -0.852223 0
M  V30 13665 C 1312.29 -2.19177 2.71593 0
M  V30 13666 C 1313.64 -2.79655 3.19497 0
M  V30 13667 O 1314.66 -2.2947 2.72437 0
M  V30 13668 O 1313.52 -3.70912 4.01356 0
M  V30 13669 H 1310.61 -0.586879 0.582668 0
M  V30 13670 H 1313.16 -0.557918 1.60267 0
M  V30 13671 H 1311.93 -1.59556 3.57292 0
M  V30 13672 H 1311.56 -3.00798 2.60012 0
M  V30 13673 N 1312.55 -1.36459 -0.788468 0
M  V30 13674 C 1313.96 -1.27515 -1.3637 0
M  V30 13675 C 1314.31 0.0846251 -1.96017 0
M  V30 13676 O 1313.44 0.98611 -1.92626 0
M  V30 13677 C 1314.03 -2.30903 -2.4793 0
M  V30 13678 C 1312.59 -2.25645 -3.01266 0
M  V30 13679 C 1311.74 -2.15631 -1.74352 0
M  V30 13680 H 1314.69 -1.47324 -0.590039 0
M  V30 13681 H 1314.71 -1.94601 -3.26972 0
M  V30 13682 H 1314.22 -3.29858 -2.04487 0
M  V30 13683 H 1312.33 -1.3016 -3.49126 0
M  V30 13684 H 1312.44 -3.18373 -3.58016 0
M  V30 13685 H 1310.8 -1.61901 -1.96622 0
M  V30 13686 H 1311.59 -3.16475 -1.33036 0
M  V30 13687 N 1314.03 1.01274 -1.20754 0
M  V30 13688 C 1315.45 1.27256 -0.963221 0
M  V30 13689 C 1315.65 1.98349 0.354972 0
M  V30 13690 O 1314.7 2.28116 1.08255 0
M  V30 13691 C 1316.02 2.1038 -2.14851 0
M  V30 13692 C 1317.56 2.23633 -2.18991 0
M  V30 13693 C 1318.04 3.10136 -3.37016 0
M  V30 13694 N 1319.53 3.17724 -3.37054 0
M  V30 13695 C 1320.26 3.84891 -4.25025 0
M  V30 13696 N 1319.76 4.54152 -5.23181 0
M  V30 13697 N 1321.55 3.81454 -4.12855 0
M  V30 13698 H 1313.7 0.535534 -2.05538 0
M  V30 13699 H 1315.97 0.299006 -0.899611 0
M  V30 13700 H 1315.67 1.65484 -3.10335 0
M  V30 13701 H 1315.55 3.11122 -2.13267 0
M  V30 13702 H 1317.93 2.67753 -1.24067 0
M  V30 13703 H 1318.02 1.22387 -2.24622 0
M  V30 13704 H 1317.66 2.66721 -4.32229 0
M  V30 13705 H 1317.59 4.11478 -3.28623 0
M  V30 13706 H 1320.08 2.68412 -2.66014 0
M  V30 13707 H 1320.39 5.03084 -5.86623 0
M  V30 13708 H 1318.74 4.52964 -5.27113 0
M  V30 13709 H 1321.93 3.26494 -3.35439 0
M  V30 13710 H 1322.1 4.33523 -4.81624 0
M  V30 13711 N 1315.51 1.01404 1.20644 0
M  V30 13712 C 1316.76 0.702949 1.90227 0
M  V30 13713 C 1317.09 -0.765243 1.78487 0
M  V30 13714 O 1316.36 -1.55569 1.16741 0
M  V30 13715 C 1316.65 1.13606 3.4171 0
M  V30 13716 C 1316.5 2.66437 3.62397 0
M  V30 13717 C 1317.82 0.705361 4.34411 0
M  V30 13718 H 1314.94 0.256842 0.690797 0
M  V30 13719 H 1317.58 1.26133 1.42093 0
M  V30 13720 H 1315.73 0.660977 3.82836 0
M  V30 13721 H 1317.4 3.21778 3.3054 0
M  V30 13722 H 1315.64 3.0753 3.05954 0
M  V30 13723 H 1316.32 2.91795 4.68572 0
M  V30 13724 H 1318.79 1.11375 4.00918 0
M  V30 13725 H 1317.67 1.03647 5.39026 0
M  V30 13726 H 1317.93 -0.393094 4.40349 0
M  V30 13727 N 1316.99 -1.36373 0.789944 0
M  V30 13728 C 1318.21 -2.04011 0.373396 0
M  V30 13729 C 1318.64 -1.59171 -1.00231 0
M  V30 13730 O 1318 -0.760431 -1.64582 0
M  V30 13731 C 1318.04 -3.5783 0.446083 0
M  V30 13732 O 1317.15 -4.08759 -0.54678 0
M  V30 13733 H 1316.49 -0.644807 0.158495 0
M  V30 13734 H 1319.02 -1.74317 1.0712 0
M  V30 13735 H 1319.03 -4.06822 0.309877 0
M  V30 13736 H 1317.7 -3.89819 1.44962 0
M  V30 13737 H 1316.28 -3.71038 -0.372192 0
M  V30 13738 N 1318.47 -0.542005 -1.47987 0
M  V30 13739 C 1319.71 -0.010246 -2.01697 0
M  V30 13740 C 1320.03 1.34173 -1.42327 0
M  V30 13741 O 1321.23 1.96254 -1.87607 0
M  V30 13742 C 1319.69 0.0321032 -3.59886 0
M  V30 13743 C 1319.3 -1.31571 -4.28244 0
M  V30 13744 C 1321.04 0.512056 -4.214 0
M  V30 13745 C 1318.95 -1.23329 -5.78398 0
M  V30 13746 H 1317.88 -6.02097e-05 -0.754 0
M  V30 13747 H 1320.53 -0.687586 -1.70131 0
M  V30 13748 H 1318.91 0.774774 -3.88347 0
M  V30 13749 H 1320.09 -2.07489 -4.11442 0
M  V30 13750 H 1318.4 -1.73237 -3.78653 0
M  V30 13751 H 1321 0.591875 -5.31414 0
M  V30 13752 H 1321.34 1.52061 -3.87535 0
M  V30 13753 H 1321.87 -0.175293 -3.97414 0
M  V30 13754 H 1318.61 -2.21737 -6.16857 0
M  V30 13755 H 1318.13 -0.51567 -5.97579 0
M  V30 13756 H 1319.81 -0.928975 -6.40296 0
M  V30 13757 N 1319.94 1.55134 -0.277709 0
M  V30 13758 C 1321.36 1.59417 0.0763615 0
M  V30 13759 C 1321.56 1.29491 1.54384 0
M  V30 13760 O 1320.62 1.05703 2.2931 0
M  V30 13761 C 1321.93 2.99194 -0.300607 0
M  V30 13762 C 1323.48 3.1202 -0.247438 0
M  V30 13763 C 1323.95 4.54068 -0.598884 0
M  V30 13764 N 1325.44 4.59917 -0.550534 0
M  V30 13765 C 1326.18 5.67859 -0.795235 0
M  V30 13766 N 1325.67 6.83936 -1.10469 0
M  V30 13767 N 1327.47 5.5742 -0.723859 0
M  V30 13768 H 1319.62 1.72851 -1.23435 0
M  V30 13769 H 1321.88 0.806137 -0.498846 0
M  V30 13770 H 1321.59 3.25937 -1.32129 0
M  V30 13771 H 1321.46 3.75504 0.35729 0
M  V30 13772 H 1323.85 2.8504 0.763959 0
M  V30 13773 H 1323.93 2.37917 -0.939629 0
M  V30 13774 H 1323.57 4.81774 -1.60798 0
M  V30 13775 H 1323.5 5.26474 0.115126 0
M  V30 13776 H 1325.99 3.76531 -0.321341 0
M  V30 13777 H 1326.31 7.62159 -1.278 0
M  V30 13778 H 1324.65 6.85545 -1.14249 0
M  V30 13779 H 1327.84 4.65613 -0.481925 0
M  V30 13780 H 1328.02 6.41465 -0.917944 0
M  V30 13781 N 1321.42 0.00503138 1.57599 0
M  V30 13782 C 1322.35 -0.983586 2.11773 0
M  V30 13783 C 1323.33 -1.35518 1.02805 0
M  V30 13784 O 1324.52 -1.43804 1.30514 0
M  V30 13785 C 1321.65 -2.27383 2.62515 0
M  V30 13786 C 1320.6 -2.0437 3.76054 0
M  V30 13787 C 1319.93 -3.39451 4.1313 0
M  V30 13788 C 1321.23 -1.40223 5.03125 0
M  V30 13789 H 1322.92 -0.532501 2.94627 0
M  V30 13790 H 1320.47 -0.254696 1.4173 0
M  V30 13791 H 1322.42 -2.96903 2.99043 0
M  V30 13792 H 1321.14 -2.74614 1.7679 0
M  V30 13793 H 1319.8 -1.37275 3.39928 0
M  V30 13794 H 1319.45 -3.84395 3.24422 0
M  V30 13795 H 1319.15 -3.24868 4.89627 0
M  V30 13796 H 1320.68 -4.10279 4.52221 0
M  V30 13797 H 1322.09 -1.99708 5.37392 0
M  V30 13798 H 1320.49 -1.36112 5.8446 0
M  V30 13799 H 1321.56 -0.372073 4.8347 0
M  V30 13800 N 1322.9 -1.55308 -0.267798 0
M  V30 13801 C 1324.31 -1.66814 -0.838459 0
M  V30 13802 C 1324.66 -0.598609 -1.86845 0
M  V30 13803 O 1323.79 0.25896 -2.14845 0
M  V30 13804 C 1324.38 -3.02408 -1.52758 0
M  V30 13805 C 1322.94 -3.15923 -2.04621 0
M  V30 13806 C 1322.09 -2.62628 -0.890044 0
M  V30 13807 H 1325.04 -1.58639 -0.0440354 0
M  V30 13808 H 1325.06 -2.95687 -2.39478 0
M  V30 13809 H 1324.57 -3.80228 -0.777695 0
M  V30 13810 H 1322.67 -2.42886 -2.82555 0
M  V30 13811 H 1322.79 -4.22556 -2.25794 0
M  V30 13812 H 1321.15 -2.19918 -1.28485 0
M  V30 13813 H 1321.93 -3.42956 -0.153579 0
M  V30 13814 N 1324.38 0.532545 -1.4833 0
M  V30 13815 C 1325.6 1.31809 -1.60129 0
M  V30 13816 C 1326.03 1.86283 -0.260807 0
M  V30 13817 O 1325.39 1.6427 0.767137 0
M  V30 13818 C 1325.43 2.44661 -2.64903 0
M  V30 13819 O 1324.54 3.47622 -2.21885 0
M  V30 13820 H 1323.88 0.390492 -0.53704 0
M  V30 13821 H 1326.41 0.641068 -1.94297 0
M  V30 13822 H 1326.42 2.90883 -2.86096 0
M  V30 13823 H 1325.09 2.04373 -3.62222 0
M  V30 13824 H 1323.67 3.07536 -2.10894 0
M  V30 13825 N 1325.86 1.36875 0.78122 0
M  V30 13826 C 1327.08 1.34732 1.57019 0
M  V30 13827 C 1327.5 -0.0695423 1.88672 0
M  V30 13828 O 1326.86 -1.02873 1.50743 0
M  V30 13829 C 1326.91 2.17668 2.88623 0
M  V30 13830 O 1326.63 3.53832 2.5833 0
M  V30 13831 C 1328.13 2.23398 3.82895 0
M  V30 13832 H 1325.35 0.461857 0.486754 0
M  V30 13833 H 1327.89 1.80086 0.968989 0
M  V30 13834 H 1326.05 1.75848 3.4519 0
M  V30 13835 H 1326.46 3.972 3.42538 0
M  V30 13836 H 1327.94 2.85769 4.72271 0
M  V30 13837 H 1328.41 1.23972 4.2134 0
M  V30 13838 H 1329.02 2.65489 3.32258 0
M  V30 13839 N 1327.33 -1.00632 1.21289 0
M  V30 13840 C 1328.56 -1.78503 1.05601 0
M  V30 13841 C 1328.98 -1.84015 -0.389879 0
M  V30 13842 O 1328.34 -1.28277 -1.2812 0
M  V30 13843 C 1328.39 -3.20313 1.65626 0
M  V30 13844 O 1327.49 -4.02441 0.900841 0
M  V30 13845 H 1326.83 -0.550183 0.371746 0
M  V30 13846 H 1329.36 -1.26505 1.60803 0
M  V30 13847 H 1329.37 -3.70992 1.69792 0
M  V30 13848 H 1328.05 -3.15616 2.7085 0
M  V30 13849 H 1326.63 -3.61009 0.934178 0
M  V30 13850 N 1328.81 -1.02043 -1.20104 0
M  V30 13851 C 1330.06 -0.710566 -1.89197 0
M  V30 13852 C 1330.38 0.762471 -1.79475 0
M  V30 13853 O 1329.65 1.54871 -1.19965 0
M  V30 13854 H 1328.23 -0.259839 -0.700352 0
M  V30 13855 H 1330.89 -1.29285 -1.45848 0
M  V30 13856 H 1329.99 -0.997363 -2.95735 0
M  V30 13857 N 1330.29 1.35952 -0.797165 0
M  V30 13858 C 1331.52 2.0381 -0.38421 0
M  V30 13859 C 1331.94 1.597 0.993854 0
M  V30 13860 O 1331.3 0.769148 1.64176 0
M  V30 13861 C 1331.35 3.57589 -0.465054 0
M  V30 13862 O 1330.45 4.09043 0.525095 0
M  V30 13863 H 1329.79 0.643957 -0.161912 0
M  V30 13864 H 1332.32 1.73746 -1.08043 0
M  V30 13865 H 1332.33 4.06651 -0.331448 0
M  V30 13866 H 1331.01 3.89045 -1.47027 0
M  V30 13867 H 1329.58 3.7123 0.352509 0
M  V30 13868 N 1331.77 0.549846 1.47697 0
M  V30 13869 C 1332.68 -0.205286 2.337 0
M  V30 13870 C 1333.69 -0.919271 1.47734 0
M  V30 13871 O 1334.87 -0.889808 1.80678 0
M  V30 13872 C 1331.94 -1.22658 3.24278 0
M  V30 13873 C 1331 -0.520815 4.26129 0
M  V30 13874 C 1330.23 -1.49345 5.12378 0
M  V30 13875 O 1330.45 -2.72772 5.00951 0
M  V30 13876 O 1329.39 -1.02197 5.93161 0
M  V30 13877 H 1333.21 0.499982 2.99556 0
M  V30 13878 H 1330.8 0.310538 1.46137 0
M  V30 13879 H 1332.68 -1.8163 3.80248 0
M  V30 13880 H 1331.35 -1.9139 2.61059 0
M  V30 13881 H 1330.26 0.109906 3.73939 0
M  V30 13882 H 1331.59 0.124922 4.92041 0
M  V30 13883 N 1333.25 -1.54984 0.285932 0
M  V30 13884 C 1334.49 -1.99436 -0.32709 0
M  V30 13885 C 1334.82 -1.17582 -1.55562 0
M  V30 13886 O 1334.09 -0.268002 -1.94058 0
M  V30 13887 H 1332.67 -0.736662 -0.123846 0
M  V30 13888 H 1335.33 -1.90881 0.393774 0
M  V30 13889 H 1334.42 -3.0609 -0.609523 0
M  V30 13890 N 1334.72 -0.0133892 -1.57594 0
M  V30 13891 C 1335.97 0.669624 -1.91426 0
M  V30 13892 C 1336.3 1.72675 -0.888656 0
M  V30 13893 O 1335.58 1.94288 0.0908138 0
M  V30 13894 C 1335.86 1.30051 -3.35796 0
M  V30 13895 C 1335.71 0.254021 -4.49082 0
M  V30 13896 C 1337.03 2.22297 -3.79832 0
M  V30 13897 H 1334.15 0.241958 -0.69615 0
M  V30 13898 H 1336.79 -0.0674278 -1.8988 0
M  V30 13899 H 1334.94 1.92871 -3.37243 0
M  V30 13900 H 1336.62 -0.375524 -4.59769 0
M  V30 13901 H 1334.86 -0.422267 -4.3174 0
M  V30 13902 H 1335.53 0.734756 -5.47088 0
M  V30 13903 H 1338.01 1.69481 -3.8002 0
M  V30 13904 H 1336.88 2.634 -4.81572 0
M  V30 13905 H 1337.14 3.10764 -3.14449 0
M  V30 13906 N 1336.2 1.55448 0.259558 0
M  V30 13907 C 1337.61 1.67256 0.8296 0
M  V30 13908 C 1337.96 0.60851 1.86525 0
M  V30 13909 O 1337.09 -0.247563 2.14979 0
M  V30 13910 C 1337.68 3.03213 1.51152 0
M  V30 13911 C 1336.24 3.17004 2.02943 0
M  V30 13912 C 1335.39 2.63096 0.876103 0
M  V30 13913 H 1338.34 1.5866 0.0356218 0
M  V30 13914 H 1338.36 2.96952 2.37906 0
M  V30 13915 H 1337.87 3.80635 0.75752 0
M  V30 13916 H 1335.98 2.44381 2.81263 0
M  V30 13917 H 1336.09 4.23748 2.2355 0
M  V30 13918 H 1334.45 2.20596 1.27317 0
M  V30 13919 H 1335.24 3.43033 0.13539 0
M  V30 13920 N 1337.68 -0.524672 1.4861 0
M  V30 13921 C 1338.93 -1.28021 1.56898 0
M  V30 13922 C 1339.26 -1.92948 0.245203 0
M  V30 13923 O 1338.51 -1.8013 -0.764966 0
M  V30 13924 C 1338.81 -2.3871 2.65993 0
M  V30 13925 C 1338.48 -1.914 4.08261 0
M  V30 13926 C 1337.14 -1.78215 4.46982 0
M  V30 13927 C 1339.49 -1.55713 4.97396 0
M  V30 13928 C 1336.82 -1.27687 5.72637 0
M  V30 13929 C 1339.17 -1.06645 6.23546 0
M  V30 13930 C 1337.83 -0.920818 6.61118 0
M  V30 13931 H 1337.1 -0.468461 0.57413 0
M  V30 13932 H 1339.75 -0.584901 1.82349 0
M  V30 13933 H 1338.06 -3.13932 2.34422 0
M  V30 13934 H 1339.75 -2.96827 2.6962 0
M  V30 13935 H 1336.34 -2.02614 3.77684 0
M  V30 13936 H 1340.53 -1.64757 4.68155 0
M  V30 13937 H 1335.78 -1.15103 6.00468 0
M  V30 13938 H 1339.96 -0.781048 6.92006 0
M  V30 13939 H 1337.58 -0.527091 7.5837 0
M  V30 13940 N 1339.16 -1.37287 -0.77395 0
M  V30 13941 C 1340.57 -1.18039 -1.0742 0
M  V30 13942 C 1340.77 -0.0150339 -2.01494 0
M  V30 13943 O 1339.83 0.645562 -2.44108 0
M  V30 13944 C 1341.14 -2.49808 -1.67382 0
M  V30 13945 C 1342.69 -2.5631 -1.7965 0
M  V30 13946 C 1343.17 -3.88204 -2.43025 0
M  V30 13947 N 1344.66 -3.89634 -2.50478 0
M  V30 13948 C 1345.39 -4.88437 -3.00361 0
M  V30 13949 N 1344.89 -5.97635 -3.50434 0
M  V30 13950 N 1346.68 -4.75843 -2.99215 0
M  V30 13951 H 1338.83 -2.11875 -0.149269 0
M  V30 13952 H 1341.1 -0.939203 -0.128846 0
M  V30 13953 H 1340.8 -3.35433 -1.05726 0
M  V30 13954 H 1340.68 -2.66737 -2.66704 0
M  V30 13955 H 1343.06 -1.71094 -2.40439 0
M  V30 13956 H 1343.14 -2.43266 -0.790894 0
M  V30 13957 H 1342.79 -4.73834 -1.82876 0
M  V30 13958 H 1342.72 -3.98551 -3.44187 0
M  V30 13959 H 1345.21 -3.10751 -2.15039 0
M  V30 13960 H 1345.52 -6.6898 -3.86893 0
M  V30 13961 H 1343.87 -6.01283 -3.48545 0
M  V30 13962 H 1347.06 -3.89656 -2.59395 0
M  V30 13963 H 1347.23 -5.52999 -3.37781 0
M  V30 13964 N 1340.64 0.999871 -1.21821 0
M  V30 13965 C 1341.86 1.77405 -1.06467 0
M  V30 13966 C 1342.28 1.84828 0.385227 0
M  V30 13967 O 1341.64 1.31338 1.26714 0
M  V30 13968 C 1341.69 3.21062 -1.66137 0
M  V30 13969 O 1341.41 3.14054 -3.05454 0
M  V30 13970 C 1342.91 4.14958 -1.55963 0
M  V30 13971 H 1340.13 0.557368 -0.373607 0
M  V30 13972 H 1342.67 1.2575 -1.61267 0
M  V30 13973 H 1340.83 3.69808 -1.15416 0
M  V30 13974 H 1341.24 4.04346 -3.34073 0
M  V30 13975 H 1342.72 5.13536 -2.02448 0
M  V30 13976 H 1343.19 4.36171 -0.514949 0
M  V30 13977 H 1343.8 3.72105 -2.05956 0
M  V30 13978 N 1342.11 1.02678 1.19562 0
M  V30 13979 C 1343.36 0.723086 1.89471 0
M  V30 13980 C 1343.69 -0.746269 1.79289 0
M  V30 13981 O 1342.97 -1.54322 1.18384 0
M  V30 13982 C 1343.25 1.17224 3.40486 0
M  V30 13983 C 1343.1 2.70266 3.5955 0
M  V30 13984 C 1344.42 0.751397 4.33638 0
M  V30 13985 H 1341.54 0.264155 0.688034 0
M  V30 13986 H 1344.18 1.27633 1.40747 0
M  V30 13987 H 1342.33 0.701544 3.82113 0
M  V30 13988 H 1344.01 3.25266 3.27108 0
M  V30 13989 H 1342.25 3.10758 3.02675 0
M  V30 13990 H 1342.92 2.96748 4.65451 0
M  V30 13991 H 1345.4 1.15621 3.99714 0
M  V30 13992 H 1344.27 1.09358 5.37896 0
M  V30 13993 H 1344.53 -0.346367 4.40741 0
M  V30 13994 N 1343.59 -1.35528 0.804364 0
M  V30 13995 C 1344.82 -2.03604 0.395013 0
M  V30 13996 C 1345.24 -1.60225 -0.985371 0
M  V30 13997 O 1344.6 -0.777844 -1.63766 0
M  V30 13998 C 1344.65 -3.57337 0.484011 0
M  V30 13999 O 1343.75 -4.09316 -0.503395 0
M  V30 14000 H 1343.09 -0.643089 0.165325 0
M  V30 14001 H 1345.62 -1.73171 1.08963 0
M  V30 14002 H 1345.63 -4.0647 0.353009 0
M  V30 14003 H 1344.31 -3.8826 1.49088 0
M  V30 14004 H 1342.89 -3.71412 -0.332817 0
M  V30 14005 N 1345.07 -0.557671 -1.47404 0
M  V30 14006 C 1345.98 0.19289 -2.33806 0
M  V30 14007 C 1347 0.911424 -1.4822 0
M  V30 14008 O 1348.17 0.880214 -1.81147 0
M  V30 14009 C 1345.24 1.20937 -3.24923 0
M  V30 14010 C 1344.3 0.498209 -4.26399 0
M  V30 14011 C 1343.53 1.46626 -5.13163 0
M  V30 14012 O 1343.76 2.70111 -5.0239 0
M  V30 14013 O 1342.69 0.990497 -5.93694 0
M  V30 14014 H 1346.52 -0.515861 -2.99287 0
M  V30 14015 H 1344.1 -0.318283 -1.4597 0
M  V30 14016 H 1345.98 1.7961 -3.81206 0
M  V30 14017 H 1344.66 1.90003 -2.6207 0
M  V30 14018 H 1343.56 -0.129736 -3.73875 0
M  V30 14019 H 1344.9 -0.151015 -4.91968 0
M  V30 14020 N 1346.55 1.54831 -0.294147 0
M  V30 14021 C 1347.8 2.01016 0.310506 0
M  V30 14022 C 1348.15 1.17894 1.52049 0
M  V30 14023 O 1347.44 0.245603 1.90019 0
M  V30 14024 C 1347.64 3.4997 0.72495 0
M  V30 14025 C 1347.47 4.47509 -0.443325 0
M  V30 14026 C 1346.24 4.96609 -0.93317 0
M  V30 14027 C 1348.43 4.97961 -1.28606 0
M  V30 14028 N 1346.42 5.77987 -2.06892 0
M  V30 14029 C 1347.79 5.76973 -2.26941 0
M  V30 14030 C 1349.84 4.8016 -1.31722 0
M  V30 14031 C 1348.55 6.40081 -3.28159 0
M  V30 14032 C 1350.57 5.44082 -2.31795 0
M  V30 14033 C 1349.93 6.22921 -3.2886 0
M  V30 14034 H 1346.03 0.778073 0.0782699 0
M  V30 14035 H 1348.62 1.90061 -0.422504 0
M  V30 14036 H 1346.79 3.6123 1.42715 0
M  V30 14037 H 1348.52 3.82961 1.30856 0
M  V30 14038 H 1345.27 4.70854 -0.509283 0
M  V30 14039 H 1345.7 6.23362 -2.64099 0
M  V30 14040 H 1350.34 4.18795 -0.580536 0
M  V30 14041 H 1348.06 7.00584 -4.0275 0
M  V30 14042 H 1351.64 5.3224 -2.34971 0
M  V30 14043 H 1350.52 6.71507 -4.05029 0
M  V30 14044 N 1348.03 0.0217466 1.57585 0
M  V30 14045 C 1348.96 -0.961069 2.12804 0
M  V30 14046 C 1349.94 -1.3442 1.04237 0
M  V30 14047 O 1351.12 -1.42412 1.32032 0
M  V30 14048 C 1348.25 -2.24586 2.64912 0
M  V30 14049 C 1347.21 -2.0037 3.78201 0
M  V30 14050 C 1346.53 -3.35051 4.16708 0
M  V30 14051 C 1347.83 -1.34879 5.04584 0
M  V30 14052 H 1349.53 -0.501222 2.95175 0
M  V30 14053 H 1347.07 -0.239649 1.41992 0
M  V30 14054 H 1349.03 -2.93715 3.02175 0
M  V30 14055 H 1347.75 -2.72723 1.79693 0
M  V30 14056 H 1346.41 -1.33662 3.41365 0
M  V30 14057 H 1346.06 -3.80932 3.28481 0
M  V30 14058 H 1345.76 -3.19656 4.93045 0
M  V30 14059 H 1347.28 -4.05459 4.56547 0
M  V30 14060 H 1348.7 -1.93997 5.3948 0
M  V30 14061 H 1347.09 -1.29906 5.85871 0
M  V30 14062 H 1348.16 -0.320774 4.83838 0
M  V30 14063 N 1349.51 -1.55583 -0.251311 0
M  V30 14064 C 1350.42 -1.93073 -1.33266 0
M  V30 14065 C 1351.43 -0.830612 -1.52895 0
M  V30 14066 O 1352.61 -1.13162 -1.66602 0
M  V30 14067 C 1349.67 -2.21396 -2.66805 0
M  V30 14068 C 1348.73 -3.44815 -2.55737 0
M  V30 14069 C 1347.97 -3.71777 -3.82907 0
M  V30 14070 O 1348.19 -3.00884 -4.84587 0
M  V30 14071 O 1347.12 -4.65305 -3.81805 0
M  V30 14072 H 1350.95 -2.85168 -1.04465 0
M  V30 14073 H 1348.53 -1.42408 -0.451693 0
M  V30 14074 H 1350.42 -2.4094 -3.45725 0
M  V30 14075 H 1349.09 -1.3248 -2.95348 0
M  V30 14076 H 1348 -3.30582 -1.75118 0
M  V30 14077 H 1349.33 -4.34019 -2.32139 0
M  V30 14078 N 1350.98 0.516783 -1.48886 0
M  V30 14079 C 1352.21 1.30103 -1.61518 0
M  V30 14080 C 1352.63 1.85996 -0.28055 0
M  V30 14081 O 1351.99 1.65075 0.749671 0
M  V30 14082 C 1352.04 2.41837 -2.67483 0
M  V30 14083 O 1351.14 3.45249 -2.25559 0
M  V30 14084 H 1350.48 0.384774 -0.541152 0
M  V30 14085 H 1353.01 0.620424 -1.94966 0
M  V30 14086 H 1353.02 2.87832 -2.89165 0
M  V30 14087 H 1351.7 2.00519 -3.64369 0
M  V30 14088 H 1350.28 3.05281 -2.14144 0
M  V30 14089 N 1352.46 1.37696 0.766659 0
M  V30 14090 C 1353.71 1.32507 1.52069 0
M  V30 14091 C 1354.02 -0.0864967 1.95409 0
M  V30 14092 O 1355.23 -0.260877 2.70244 0
M  V30 14093 C 1353.69 2.32614 2.74625 0
M  V30 14094 C 1353.29 3.79325 2.38363 0
M  V30 14095 C 1355.04 2.36445 3.52554 0
M  V30 14096 C 1352.94 4.7115 3.57451 0
M  V30 14097 H 1351.87 0.492491 0.570937 0
M  V30 14098 H 1354.53 1.63183 0.839268 0
M  V30 14099 H 1352.91 1.94963 3.44682 0
M  V30 14100 H 1354.08 4.25841 1.76056 0
M  V30 14101 H 1352.4 3.78488 1.73597 0
M  V30 14102 H 1354.99 3.02252 4.41076 0
M  V30 14103 H 1355.34 1.37953 3.92778 0
M  V30 14104 H 1355.87 2.72829 2.89498 0
M  V30 14105 H 1352.61 5.70789 3.22304 0
M  V30 14106 H 1352.13 4.29335 4.18846 0
M  V30 14107 H 1353.81 4.88532 4.242 0
M  V30 14108 N 1353.94 -0.993397 1.22349 0
M  V30 14109 C 1354.89 -2.0834 0.993123 0
M  V30 14110 C 1355.86 -1.65883 -0.0849717 0
M  V30 14111 O 1357.04 -1.90691 0.0645176 0
M  V30 14112 C 1354.18 -3.40252 0.576434 0
M  V30 14113 C 1353.29 -3.96055 1.72524 0
M  V30 14114 C 1352.43 -5.16123 1.25659 0
M  V30 14115 C 1351.47 -5.64062 2.37698 0
M  V30 14116 N 1350.61 -6.7537 1.91883 0
M  V30 14117 H 1355.45 -2.27381 1.92619 0
M  V30 14118 H 1352.98 -1.11476 0.959763 0
M  V30 14119 H 1354.94 -4.16001 0.316021 0
M  V30 14120 H 1353.57 -3.21214 -0.319626 0
M  V30 14121 H 1352.62 -3.17182 2.1 0
M  V30 14122 H 1353.93 -4.27614 2.56802 0
M  V30 14123 H 1353.09 -5.9916 0.953528 0
M  V30 14124 H 1351.83 -4.86186 0.384011 0
M  V30 14125 H 1350.83 -4.79614 2.68794 0
M  V30 14126 H 1352.06 -5.96025 3.25471 0
M  V30 14127 H 1350 -6.47217 1.06986 0
M  V30 14128 H 1349.92 -7.06246 2.69727 0
M  V30 14129 H 1351.19 -7.61914 1.64644 0
M  V30 14130 N 1355.42 -1.03311 -1.19015 0
M  V30 14131 C 1356.35 -0.562092 -2.21169 0
M  V30 14132 C 1357.33 0.399321 -1.5762 0
M  V30 14133 O 1358.51 0.315421 -1.85842 0
M  V30 14134 C 1355.64 0.179843 -3.38222 0
M  V30 14135 C 1354.69 -0.733653 -4.20143 0
M  V30 14136 S 1355.52 -2.21226 -4.87667 0
M  V30 14137 C 1356.67 -1.48095 -6.08127 0
M  V30 14138 H 1356.91 -1.42762 -2.6078 0
M  V30 14139 H 1354.44 -0.843405 -1.29329 0
M  V30 14140 H 1356.4 0.601764 -4.06065 0
M  V30 14141 H 1355.06 1.02116 -2.97037 0
M  V30 14142 H 1354.25 -0.160633 -5.03744 0
M  V30 14143 H 1353.85 -1.09408 -3.57639 0
M  V30 14144 H 1356.15 -0.76985 -6.73112 0
M  V30 14145 H 1357.09 -2.29372 -6.69921 0
M  V30 14146 H 1357.5 -0.976597 -5.55988 0
M  V30 14147 N 1356.9 1.35099 -0.81154 0
M  V30 14148 C 1357.83 2.28468 -0.183012 0
M  V30 14149 C 1358.84 1.50509 0.620553 0
M  V30 14150 O 1360.03 1.7268 0.4521 0
M  V30 14151 C 1357.13 3.30201 0.762933 0
M  V30 14152 C 1356.3 4.374 0.00466561 0
M  V30 14153 C 1355.36 5.18961 0.869832 0
M  V30 14154 O 1354.39 5.68306 0.318964 0
M  V30 14155 N 1355.59 5.37555 2.19123 0
M  V30 14156 H 1358.35 2.83046 -0.985132 0
M  V30 14157 H 1355.92 1.47502 -0.667449 0
M  V30 14158 H 1357.91 3.81659 1.34606 0
M  V30 14159 H 1356.48 2.76101 1.46584 0
M  V30 14160 H 1355.7 3.8681 -0.759702 0
M  V30 14161 H 1356.99 5.06159 -0.517739 0
M  V30 14162 H 1356.38 4.99118 2.66266 0
M  V30 14163 H 1354.94 5.92174 2.72348 0
M  V30 14164 N 1358.37 0.56548 1.47106 0
M  V30 14165 C 1359.31 -0.215154 2.28188 0
M  V30 14166 C 1360.32 -0.871671 1.37498 0
M  V30 14167 O 1361.51 -0.744131 1.6225 0
M  V30 14168 C 1358.61 -1.32289 3.12014 0
M  V30 14169 C 1357.78 -0.761594 4.30719 0
M  V30 14170 C 1356.84 -1.75486 4.96076 0
M  V30 14171 O 1355.87 -1.29771 5.5421 0
M  V30 14172 N 1357.07 -3.0885 4.9152 0
M  V30 14173 H 1359.83 0.480405 2.95825 0
M  V30 14174 H 1357.39 0.402099 1.56827 0
M  V30 14175 H 1359.39 -1.98628 3.52603 0
M  V30 14176 H 1357.96 -1.92156 2.46566 0
M  V30 14177 H 1357.18 0.078794 3.94121 0
M  V30 14178 H 1358.46 -0.366072 5.07481 0
M  V30 14179 H 1357.86 -3.4863 4.45504 0
M  V30 14180 H 1356.42 -3.70725 5.36103 0
M  V30 14181 N 1359.85 -1.54672 0.302354 0
M  V30 14182 C 1361.08 -2.04282 -0.308645 0
M  V30 14183 C 1361.49 -1.17912 -1.47965 0
M  V30 14184 O 1360.83 -0.197723 -1.82633 0
M  V30 14185 C 1360.9 -3.49872 -0.826417 0
M  V30 14186 C 1360.56 -4.56473 0.219486 0
M  V30 14187 C 1361.56 -5.0922 1.0484 0
M  V30 14188 C 1359.24 -5.00997 0.361574 0
M  V30 14189 C 1361.24 -6.05033 2.00533 0
M  V30 14190 C 1358.92 -5.9663 1.32195 0
M  V30 14191 C 1359.92 -6.48532 2.1423 0
M  V30 14192 O 1359.61 -7.42292 3.08639 0
M  V30 14193 H 1359.34 -0.67228 -0.0708187 0
M  V30 14194 H 1361.89 -2.00625 0.440314 0
M  V30 14195 H 1360.12 -3.50857 -1.62593 0
M  V30 14196 H 1361.81 -3.8267 -1.35345 0
M  V30 14197 H 1362.58 -4.75615 0.949501 0
M  V30 14198 H 1358.46 -4.60226 -0.267018 0
M  V30 14199 H 1362 -6.45469 2.64604 0
M  V30 14200 H 1357.9 -6.29652 1.42156 0
M  V30 14201 H 1358.67 -7.60098 3.03633 0
M  V30 14202 N 1361.33 -0.0301034 -1.57571 0
M  V30 14203 C 1362.56 0.658488 -1.96142 0
M  V30 14204 C 1362.97 1.65606 -0.906644 0
M  V30 14205 O 1362.33 1.82159 0.111441 0
M  V30 14206 C 1362.38 1.364 -3.34779 0
M  V30 14207 O 1362.1 0.4064 -4.36211 0
M  V30 14208 C 1363.6 2.14432 -3.87987 0
M  V30 14209 H 1360.82 0.181496 -0.645988 0
M  V30 14210 H 1363.37 -0.09016 -2.04301 0
M  V30 14211 H 1361.52 2.06404 -3.27836 0
M  V30 14212 H 1361.94 0.907503 -5.16589 0
M  V30 14213 H 1363.41 2.59248 -4.87334 0
M  V30 14214 H 1363.89 2.98377 -3.22285 0
M  V30 14215 H 1364.49 1.49383 -3.98202 0
M  V30 14216 N 1362.81 1.55714 0.243056 0
M  V30 14217 C 1363.72 1.93777 1.32241 0
M  V30 14218 C 1364.73 0.838709 1.52452 0
M  V30 14219 O 1365.91 1.14044 1.66 0
M  V30 14220 C 1362.98 2.22808 2.65627 0
M  V30 14221 C 1362.04 3.46166 2.53904 0
M  V30 14222 C 1361.27 3.73802 3.8093 0
M  V30 14223 O 1361.49 3.0345 4.82985 0
M  V30 14224 O 1360.43 4.67323 3.79332 0
M  V30 14225 H 1364.25 2.85718 1.02951 0
M  V30 14226 H 1361.84 1.42646 0.444135 0
M  V30 14227 H 1363.72 2.4277 3.44442 0
M  V30 14228 H 1362.39 1.34045 2.94642 0
M  V30 14229 H 1361.3 3.31506 1.73362 0
M  V30 14230 H 1362.63 4.35244 2.29834 0
M  V30 14231 N 1364.29 -0.50888 1.49158 0
M  V30 14232 C 1365.24 -1.60799 1.61641 0
M  V30 14233 C 1366.22 -1.53808 0.472434 0
M  V30 14234 O 1367.41 -1.61471 0.724985 0
M  V30 14235 C 1364.54 -2.99444 1.67894 0
M  V30 14236 C 1363.63 -3.1146 2.87843 0
M  V30 14237 N 1364.02 -2.93387 4.12016 0
M  V30 14238 C 1362.32 -3.42549 2.85616 0
M  V30 14239 C 1363.02 -3.09378 4.92606 0
M  V30 14240 N 1361.99 -3.37902 4.2582 0
M  V30 14241 H 1365.8 -1.45468 2.55375 0
M  V30 14242 H 1363.31 -0.714832 1.45822 0
M  V30 14243 H 1365.31 -3.78423 1.74934 0
M  V30 14244 H 1363.97 -3.1585 0.752919 0
M  V30 14245 H 1364.98 -2.69721 4.42121 0
M  V30 14246 H 1361.65 -3.65181 2.02359 0
M  V30 14247 H 1363.04 -2.99964 6.01225 0
M  V30 14248 N 1365.76 -1.381 -0.759346 0
M  V30 14249 C 1367.01 -1.33992 -1.5183 0
M  V30 14250 C 1367.34 0.0718172 -1.94367 0
M  V30 14251 O 1366.59 1.0477 -1.65293 0
M  V30 14252 C 1366.89 -2.23636 -2.78786 0
M  V30 14253 C 1366.56 -3.71703 -2.5524 0
M  V30 14254 C 1365.22 -4.12053 -2.48528 0
M  V30 14255 C 1367.57 -4.65455 -2.34523 0
M  V30 14256 C 1364.9 -5.44252 -2.19105 0
M  V30 14257 C 1367.25 -5.97905 -2.06622 0
M  V30 14258 C 1365.92 -6.37345 -1.98362 0
M  V30 14259 H 1365.19 -0.490311 -0.555587 0
M  V30 14260 H 1367.83 -1.70411 -0.873637 0
M  V30 14261 H 1366.14 -1.80253 -3.47874 0
M  V30 14262 H 1367.84 -2.17764 -3.36719 0
M  V30 14263 H 1364.43 -3.3971 -2.61333 0
M  V30 14264 H 1368.61 -4.35132 -2.38691 0
M  V30 14265 H 1363.87 -5.73758 -2.11214 0
M  V30 14266 H 1368.04 -6.70095 -1.89594 0
M  V30 14267 H 1365.67 -7.39706 -1.75328 0
M  V30 14268 N 1367.24 0.986894 -1.22875 0
M  V30 14269 C 1368.18 2.07604 -0.947406 0
M  V30 14270 C 1369.15 1.62214 0.111904 0
M  V30 14271 O 1370.34 1.88488 -0.0209682 0
M  V30 14272 C 1367.46 3.3601 -0.42605 0
M  V30 14273 C 1366.51 4.00331 -1.47097 0
M  V30 14274 S 1367.34 4.40412 -3.04627 0
M  V30 14275 C 1368.5 5.7198 -2.54145 0
M  V30 14276 H 1368.73 2.31149 -1.86969 0
M  V30 14277 H 1366.27 1.1222 -1.06047 0
M  V30 14278 H 1368.22 4.10288 -0.131846 0
M  V30 14279 H 1366.88 3.10484 0.475211 0
M  V30 14280 H 1366.08 4.92809 -1.05618 0
M  V30 14281 H 1365.68 3.32403 -1.71418 0
M  V30 14282 H 1367.97 6.48602 -1.9576 0
M  V30 14283 H 1368.91 6.18293 -3.45137 0
M  V30 14284 H 1369.32 5.29669 -1.95221 0
M  V30 14285 N 1368.72 1.0394 1.18466 0
M  V30 14286 C 1369.68 0.633804 2.20262 0
M  V30 14287 C 1370.68 -0.308136 1.5782 0
M  V30 14288 O 1371.87 -0.0937087 1.73948 0
M  V30 14289 C 1369.01 -0.0709693 3.40826 0
M  V30 14290 H 1370.2 1.53463 2.57661 0
M  V30 14291 H 1367.75 0.831806 1.32328 0
M  V30 14292 H 1368.49 -0.985659 3.08958 0
M  V30 14293 H 1368.27 0.606023 3.87388 0
M  V30 14294 H 1369.76 -0.341298 4.16203 0
M  V30 14295 N 1370.2 -1.34667 0.818693 0
M  V30 14296 C 1371.16 -2.27908 0.243037 0
M  V30 14297 C 1372.16 -1.50106 -0.576622 0
M  V30 14298 O 1373.35 -1.69701 -0.393342 0
M  V30 14299 C 1370.48 -3.34455 -0.659759 0
M  V30 14300 H 1371.68 -2.80332 1.06555 0
M  V30 14301 H 1369.23 -1.44727 0.590237 0
M  V30 14302 H 1369.96 -2.87238 -1.50549 0
M  V30 14303 H 1369.75 -3.92031 -0.073567 0
M  V30 14304 H 1371.24 -4.04016 -1.05646 0
M  V30 14305 N 1371.68 -0.573274 -1.46804 0
M  V30 14306 C 1372.92 -0.0551522 -2.02025 0
M  V30 14307 C 1373.25 1.30577 -1.44826 0
M  V30 14308 O 1372.52 1.85514 -0.629403 0
M  V30 14309 H 1371.1 -0.0173982 -0.746797 0
M  V30 14310 H 1373.76 -0.746919 -1.8002 0
M  V30 14311 H 1372.85 0.0209326 -3.12093 0
M  V30 14312 N 1373.15 1.5451 -0.310553 0
M  V30 14313 C 1374.38 2.04442 0.297807 0
M  V30 14314 C 1374.79 1.18695 1.47337 0
M  V30 14315 O 1374.14 0.207405 1.82525 0
M  V30 14316 C 1374.2 3.50306 0.807851 0
M  V30 14317 C 1373.86 4.5635 -0.24369 0
M  V30 14318 C 1374.86 5.08656 -1.07539 0
M  V30 14319 C 1372.54 5.00798 -0.388138 0
M  V30 14320 C 1374.54 6.03961 -2.03738 0
M  V30 14321 C 1372.22 5.95921 -1.35357 0
M  V30 14322 C 1373.22 6.47387 -2.17667 0
M  V30 14323 O 1372.91 7.40644 -3.12571 0
M  V30 14324 H 1372.64 0.672646 0.0672525 0
M  V30 14325 H 1375.2 2.00389 -0.450948 0
M  V30 14326 H 1373.43 3.51714 1.6073 0
M  V30 14327 H 1375.12 3.83383 1.33314 0
M  V30 14328 H 1375.88 4.75105 -0.97471 0
M  V30 14329 H 1371.76 4.60361 0.242608 0
M  V30 14330 H 1375.3 6.44057 -2.68023 0
M  V30 14331 H 1371.2 6.2889 -1.45493 0
M  V30 14332 H 1371.97 7.58477 -3.0766 0
M  V30 14333 N 1374.63 0.0384594 1.57553 0
M  V30 14334 C 1375.86 -0.648077 1.96488 0
M  V30 14335 C 1376.28 -1.65123 0.915414 0
M  V30 14336 O 1375.63 -1.82216 -0.101779 0
M  V30 14337 C 1375.68 -1.34623 3.35498 0
M  V30 14338 O 1375.41 -0.383261 4.3642 0
M  V30 14339 C 1376.91 -2.12372 3.89119 0
M  V30 14340 H 1374.13 -0.178068 0.646941 0
M  V30 14341 H 1376.67 0.100993 2.0425 0
M  V30 14342 H 1374.83 -2.04663 3.28926 0
M  V30 14343 H 1375.24 -0.880095 5.17063 0
M  V30 14344 H 1376.71 -2.5666 4.88702 0
M  V30 14345 H 1377.19 -2.96664 3.23863 0
M  V30 14346 H 1377.8 -1.4727 3.98988 0
M  V30 14347 N 1376.11 -1.55841 -0.234795 0
M  V30 14348 C 1377.07 -1.9051 -1.2743 0
M  V30 14349 C 1378.07 -0.782543 -1.40474 0
M  V30 14350 O 1379.26 -1.05043 -1.38966 0
M  V30 14351 C 1376.4 -2.14424 -2.65019 0
M  V30 14352 H 1377.59 -2.83471 -0.979003 0
M  V30 14353 H 1375.14 -1.48919 -0.47463 0
M  V30 14354 H 1375.88 -1.23972 -2.99669 0
M  V30 14355 H 1375.66 -2.96191 -2.56931 0
M  V30 14356 H 1377.15 -2.42388 -3.40056 0
M  V30 14357 N 1377.59 0.500963 -1.49426 0
M  V30 14358 C 1378.84 1.25171 -1.58162 0
M  V30 14359 C 1379.15 1.93678 -0.273556 0
M  V30 14360 O 1380.36 2.70442 -0.239462 0
M  V30 14361 C 1378.81 2.27276 -2.79059 0
M  V30 14362 C 1378.42 1.64708 -4.16624 0
M  V30 14363 C 1380.17 3.03178 -2.97125 0
M  V30 14364 C 1378.07 2.64923 -5.28743 0
M  V30 14365 H 1377 0.470867 -0.588897 0
M  V30 14366 H 1379.65 0.525569 -1.75812 0
M  V30 14367 H 1378.04 3.03052 -2.54903 0
M  V30 14368 H 1379.21 0.949231 -4.50917 0
M  V30 14369 H 1377.52 1.01195 -4.03916 0
M  V30 14370 H 1380.12 3.78122 -3.78058 0
M  V30 14371 H 1380.46 3.60793 -2.07687 0
M  V30 14372 H 1381 2.34517 -3.2132 0
M  V30 14373 H 1377.74 2.12089 -6.20241 0
M  V30 14374 H 1377.26 3.32948 -4.98904 0
M  V30 14375 H 1378.94 3.27349 -5.58079 0
M  V30 14376 N 1379.07 1.38501 0.752011 0
M  V30 14377 C 1379.98 1.38094 1.8965 0
M  V30 14378 C 1380.99 0.277851 1.71767 0
M  V30 14379 O 1382.17 0.516536 1.94663 0
M  V30 14380 C 1379.23 1.2063 3.25037 0
M  V30 14381 C 1378.3 2.40758 3.55435 0
M  V30 14382 C 1377.53 2.24118 4.84362 0
M  V30 14383 O 1377.75 1.23571 5.56854 0
M  V30 14384 O 1376.69 3.12741 5.14273 0
M  V30 14385 H 1380.51 2.34532 1.92947 0
M  V30 14386 H 1378.1 1.19437 0.897504 0
M  V30 14387 H 1379.98 1.12957 4.05979 0
M  V30 14388 H 1378.65 0.272785 3.22549 0
M  V30 14389 H 1377.56 2.54006 2.74648 0
M  V30 14390 H 1378.89 3.32745 3.62686 0
M  V30 14391 N 1380.55 -0.980364 1.23396 0
M  V30 14392 C 1381.49 -2.07275 1.01516 0
M  V30 14393 C 1382.46 -1.65963 -0.0673729 0
M  V30 14394 O 1383.65 -1.90612 0.0847392 0
M  V30 14395 C 1380.79 -3.39621 0.61249 0
M  V30 14396 C 1379.9 -3.94203 1.76715 0
M  V30 14397 C 1379.04 -5.14761 1.31126 0
M  V30 14398 C 1378.07 -5.61509 2.43667 0
M  V30 14399 N 1377.21 -6.73297 1.99035 0
M  V30 14400 H 1382.05 -2.25325 1.9502 0
M  V30 14401 H 1379.59 -1.10452 0.971532 0
M  V30 14402 H 1381.55 -4.15643 0.360126 0
M  V30 14403 H 1380.18 -3.21535 -0.285539 0
M  V30 14404 H 1379.23 -3.14937 2.13352 0
M  V30 14405 H 1380.54 -4.24867 2.61323 0
M  V30 14406 H 1379.69 -5.98115 1.01702 0
M  V30 14407 H 1378.43 -4.85751 0.435555 0
M  V30 14408 H 1377.44 -4.76737 2.73865 0
M  V30 14409 H 1378.66 -5.92539 3.31774 0
M  V30 14410 H 1376.61 -6.46046 1.13845 0
M  V30 14411 H 1376.53 -7.03345 2.77203 0
M  V30 14412 H 1377.79 -7.60125 1.72716 0
M  V30 14413 N 1382.02 -1.04567 -1.17913 0
M  V30 14414 C 1383.27 -0.753137 -1.88297 0
M  V30 14415 C 1383.6 0.717651 -1.80453 0
M  V30 14416 O 1382.88 1.5242 -1.20824 0
M  V30 14417 C 1383.16 -1.22626 -3.38578 0
M  V30 14418 C 1383.01 -2.75952 -3.55205 0
M  V30 14419 C 1384.33 -0.82029 -4.32388 0
M  V30 14420 H 1381.45 -0.275067 -0.683745 0
M  V30 14421 H 1384.09 -1.29856 -1.38699 0
M  V30 14422 H 1382.24 -0.762246 -3.80949 0
M  V30 14423 H 1383.92 -3.30429 -3.21892 0
M  V30 14424 H 1382.16 -3.15534 -2.97693 0
M  V30 14425 H 1382.83 -3.04116 -4.60671 0
M  V30 14426 H 1385.31 -1.21965 -3.97824 0
M  V30 14427 H 1384.18 -1.17902 -5.36088 0
M  V30 14428 H 1384.44 0.276205 -4.41236 0
M  V30 14429 N 1383.5 1.34231 -0.825823 0
M  V30 14430 C 1384.75 1.9849 -0.415891 0
M  V30 14431 C 1385.08 1.6531 1.01913 0
M  V30 14432 O 1384.36 0.926223 1.7103 0
M  V30 14433 C 1384.64 3.54691 -0.621785 0
M  V30 14434 C 1384.49 3.97603 -2.10313 0
M  V30 14435 C 1385.81 4.4006 -0.0595871 0
M  V30 14436 H 1382.93 0.721032 -0.152582 0
M  V30 14437 H 1385.57 1.5908 -1.03892 0
M  V30 14438 H 1383.72 3.88392 -0.0914439 0
M  V30 14439 H 1385.39 3.74221 -2.69733 0
M  V30 14440 H 1383.64 3.47809 -2.59251 0
M  V30 14441 H 1384.31 5.06352 -2.19799 0
M  V30 14442 H 1386.78 4.12929 -0.512743 0
M  V30 14443 H 1385.66 5.48403 -0.233431 0
M  V30 14444 H 1385.92 4.29798 1.03568 0
M  V30 14445 N 1384.98 0.581051 1.46498 0
M  V30 14446 C 1385.91 -0.19094 2.28403 0
M  V30 14447 C 1386.92 -0.857039 1.38415 0
M  V30 14448 O 1388.11 -0.726881 1.6303 0
M  V30 14449 C 1385.21 -1.28972 3.134 0
M  V30 14450 C 1384.39 -0.715867 4.31502 0
M  V30 14451 C 1383.45 -1.70215 4.97909 0
M  V30 14452 O 1382.47 -1.23885 5.55555 0
M  V30 14453 N 1383.67 -3.0362 4.94768 0
M  V30 14454 H 1386.44 0.511754 2.95298 0
M  V30 14455 H 1384 0.41871 1.56392 0
M  V30 14456 H 1385.99 -1.94877 3.5469 0
M  V30 14457 H 1384.56 -1.8953 2.4859 0
M  V30 14458 H 1383.78 0.120591 3.94016 0
M  V30 14459 H 1385.07 -0.312226 5.07841 0
M  V30 14460 H 1384.47 -3.43885 4.49177 0
M  V30 14461 H 1383.02 -3.65018 5.40005 0
M  V30 14462 N 1386.46 -1.54343 0.318742 0
M  V30 14463 C 1387.39 -2.20392 -0.591833 0
M  V30 14464 C 1388.37 -1.17931 -1.11942 0
M  V30 14465 O 1389.55 -1.4665 -1.18432 0
M  V30 14466 C 1386.68 -2.8618 -1.81159 0
M  V30 14467 C 1385.73 -4.02319 -1.41568 0
M  V30 14468 S 1386.56 -5.33551 -0.456481 0
M  V30 14469 C 1387.71 -6.02831 -1.68363 0
M  V30 14470 H 1387.95 -2.97284 -0.0307625 0
M  V30 14471 H 1385.48 -1.54057 0.102835 0
M  V30 14472 H 1387.44 -3.24707 -2.51148 0
M  V30 14473 H 1386.1 -2.091 -2.34384 0
M  V30 14474 H 1385.29 -4.47197 -2.32445 0
M  V30 14475 H 1384.89 -3.65441 -0.795535 0
M  V30 14476 H 1387.19 -6.24716 -2.62175 0
M  V30 14477 H 1388.13 -6.96488 -1.27709 0
M  V30 14478 H 1388.54 -5.32682 -1.86841 0
M  V30 14479 N 1387.94 -0.0468143 -1.5753 0
M  V30 14480 C 1389.16 0.637648 -1.96829 0
M  V30 14481 C 1389.58 1.64635 -0.924158 0
M  V30 14482 O 1388.94 1.82267 0.0921139 0
M  V30 14483 C 1388.99 1.32842 -3.36207 0
M  V30 14484 O 1388.71 0.360111 -4.36617 0
M  V30 14485 C 1390.21 2.10305 -3.90239 0
M  V30 14486 H 1387.43 0.174634 -0.647876 0
M  V30 14487 H 1389.97 -0.111824 -2.04194 0
M  V30 14488 H 1388.13 2.02915 -3.30006 0
M  V30 14489 H 1388.54 0.852661 -5.17523 0
M  V30 14490 H 1390.02 2.54065 -4.90056 0
M  V30 14491 H 1390.49 2.94942 -3.25432 0
M  V30 14492 H 1391.1 1.45152 -3.99764 0
M  V30 14493 N 1389.41 1.55964 0.226527 0
M  V30 14494 C 1390.36 1.92857 1.30034 0
M  V30 14495 C 1391.36 0.810008 1.48779 0
M  V30 14496 O 1392.56 0.994801 1.50012 0
M  V30 14497 H 1388.94 0.612807 0.435857 0
M  V30 14498 H 1390.91 2.82469 0.96196 0
M  V30 14499 C 1389.66 2.25735 2.6446 0
M  V30 14500 H 1388.98 3.11317 2.50842 0
M  V30 14501 H 1390.42 2.55437 3.3842 0
M  V30 14502 C 1388.88 1.08074 3.19095 0
M  V30 14503 O 1389.41 0.339279 4.00265 0
M  V30 14504 N 1387.62 0.86589 2.774 0
M  V30 14505 H 1387.16 1.47055 2.11501 0
M  V30 14506 H 1387.12 0.0803566 3.14297 0
M  V30 14507 N 1390.89 -0.493031 1.4969 0
M  V30 14508 C 1392.17 -1.25436 1.50084 0
M  V30 14509 C 1392.55 -2.0981 0.233038 0
M  V30 14510 O 1391.9 -2.14617 -0.784342 0
M  V30 14511 C 1392.11 -2.10425 2.78428 0
M  V30 14512 C 1393.46 -2.69349 3.28232 0
M  V30 14513 O 1394.48 -2.20686 2.796 0
M  V30 14514 O 1393.34 -3.57956 4.12953 0
M  V30 14515 H 1390.43 -0.568044 0.601045 0
M  V30 14516 H 1392.98 -0.506648 1.6196 0
M  V30 14517 H 1391.75 -1.48108 3.62187 0
M  V30 14518 H 1391.37 -2.92374 2.6945 0
M  V30 14519 N 1392.37 -1.38898 -0.744656 0
M  V30 14520 C 1393.65 -1.2611 -1.49518 0
M  V30 14521 C 1394.03 0.133592 -2.10677 0
M  V30 14522 O 1393.38 1.14394 -1.97804 0
M  V30 14523 C 1393.59 -2.37809 -2.55437 0
M  V30 14524 C 1394.93 -2.76664 -3.22091 0
M  V30 14525 O 1395.96 -2.37187 -2.65746 0
M  V30 14526 O 1394.82 -3.44771 -4.24023 0
M  V30 14527 H 1391.91 -0.493664 -0.663494 0
M  V30 14528 H 1394.46 -1.50748 -0.779304 0
M  V30 14529 H 1393.23 -3.31089 -2.08556 0
M  V30 14530 H 1392.85 -2.14783 -3.34595 0
M  V30 14531 N 1393.85 0.973806 -1.23914 0
M  V30 14532 C 1395.1 1.71027 -1.06923 0
M  V30 14533 C 1395.41 1.91612 0.392947 0
M  V30 14534 O 1396.62 2.62771 0.682927 0
M  V30 14535 C 1395.07 3.07811 -1.86496 0
M  V30 14536 C 1394.68 2.9509 -3.37085 0
M  V30 14537 C 1396.42 3.85371 -1.78015 0
M  V30 14538 C 1394.33 4.27145 -4.09024 0
M  V30 14539 H 1393.26 0.641329 -0.396501 0
M  V30 14540 H 1395.91 1.08562 -1.47941 0
M  V30 14541 H 1394.29 3.71069 -1.38288 0
M  V30 14542 H 1395.47 2.4088 -3.92827 0
M  V30 14543 H 1393.78 2.30999 -3.46451 0
M  V30 14544 H 1396.38 4.83147 -2.2907 0
M  V30 14545 H 1396.72 4.09594 -0.744196 0
M  V30 14546 H 1397.26 3.28827 -2.23869 0
M  V30 14547 H 1394 4.08117 -5.12953 0
M  V30 14548 H 1393.52 4.81194 -3.58068 0
M  V30 14549 H 1395.19 4.95798 -4.15685 0
M  V30 14550 N 1395.33 1.05191 1.17357 0
M  V30 14551 C 1396.27 0.652868 2.21374 0
M  V30 14552 C 1397.24 -0.344974 1.62478 0
M  V30 14553 O 1398.43 -0.23639 1.8933 0
M  V30 14554 C 1395.57 0.0337737 3.45083 0
M  V30 14555 C 1394.68 1.08045 4.18271 0
M  V30 14556 C 1393.82 0.428673 5.29468 0
M  V30 14557 C 1392.86 1.45966 5.94441 0
M  V30 14558 N 1391.99 0.832042 6.97152 0
M  V30 14559 H 1396.83 1.54434 2.54861 0
M  V30 14560 H 1394.37 0.772365 1.25192 0
M  V30 14561 H 1396.33 -0.342607 4.15791 0
M  V30 14562 H 1394.96 -0.821159 3.12181 0
M  V30 14563 H 1394.01 1.57466 3.46278 0
M  V30 14564 H 1395.32 1.86305 4.62701 0
M  V30 14565 H 1394.48 -0.00129344 6.067 0
M  V30 14566 H 1393.21 -0.385919 4.86171 0
M  V30 14567 H 1392.22 1.89964 5.1594 0
M  V30 14568 H 1393.44 2.27615 6.39819 0
M  V30 14569 H 1391.39 0.0379612 6.55989 0
M  V30 14570 H 1391.31 1.55219 7.39894 0
M  V30 14571 H 1392.58 0.42685 7.7833 0
M  V30 14572 N 1396.8 -1.33791 0.83293 0
M  V30 14573 C 1398.22 -1.50893 0.519955 0
M  V30 14574 C 1398.42 -1.7749 -0.953919 0
M  V30 14575 O 1397.48 -1.83168 -1.73798 0
M  V30 14576 C 1398.79 -2.66741 1.38815 0
M  V30 14577 C 1400.34 -2.80625 1.38631 0
M  V30 14578 C 1400.81 -3.99528 2.23922 0
M  V30 14579 N 1402.3 -4.06753 2.21599 0
M  V30 14580 C 1403.04 -4.97937 2.84335 0
M  V30 14581 N 1402.53 -5.94276 3.561 0
M  V30 14582 N 1404.33 -4.90887 2.73837 0
M  V30 14583 H 1396.48 -1.14788 1.7871 0
M  V30 14584 H 1398.74 -0.563822 0.762108 0
M  V30 14585 H 1398.45 -2.53748 2.43525 0
M  V30 14586 H 1398.32 -3.62001 1.05996 0
M  V30 14587 H 1400.71 -2.93053 0.346951 0
M  V30 14588 H 1400.79 -1.86144 1.75454 0
M  V30 14589 H 1400.43 -3.8786 3.27914 0
M  V30 14590 H 1400.36 -4.93242 1.84444 0
M  V30 14591 H 1402.85 -3.37802 1.69406 0
M  V30 14592 H 1403.17 -6.60504 4.01191 0
M  V30 14593 H 1401.51 -5.9437 3.60207 0
M  V30 14594 H 1404.7 -4.14586 2.17338 0
M  V30 14595 H 1404.88 -5.61752 3.23014 0
M  V30 14596 N 1398.28 -0.588812 -1.46187 0
M  V30 14597 C 1399.53 -0.0744093 -2.01563 0
M  V30 14598 C 1399.84 1.29578 -1.46523 0
M  V30 14599 O 1401.05 1.90186 -1.93756 0
M  V30 14600 C 1399.51 -0.082408 -3.59806 0
M  V30 14601 C 1399.11 -1.45129 -4.23842 0
M  V30 14602 C 1400.86 0.377732 -4.22816 0
M  V30 14603 C 1398.77 -1.41668 -5.74181 0
M  V30 14604 H 1397.7 -0.0240481 -0.753616 0
M  V30 14605 H 1400.35 -0.741364 -1.67857 0
M  V30 14606 H 1398.73 0.650832 -3.90615 0
M  V30 14607 H 1399.9 -2.20474 -4.04633 0
M  V30 14608 H 1398.22 -1.85196 -3.7295 0
M  V30 14609 H 1400.81 0.42251 -5.33028 0
M  V30 14610 H 1401.16 1.39655 -3.92176 0
M  V30 14611 H 1401.69 -0.301638 -3.96655 0
M  V30 14612 H 1398.43 -2.4125 -6.09491 0
M  V30 14613 H 1397.95 -0.705524 -5.95636 0
M  V30 14614 H 1399.63 -1.13221 -6.37016 0
M  V30 14615 N 1399.76 1.54172 -0.326923 0
M  V30 14616 C 1401.01 2.00233 0.274098 0
M  V30 14617 C 1401.33 1.21665 1.5239 0
M  V30 14618 O 1400.6 0.319359 1.93279 0
M  V30 14619 H 1399.18 0.739687 0.104271 0
M  V30 14620 H 1401.84 1.8977 -0.444244 0
M  V30 14621 H 1400.94 3.07599 0.528154 0
M  V30 14622 N 1401.24 0.0551678 1.57503 0
M  V30 14623 C 1402.48 -0.618636 1.93134 0
M  V30 14624 C 1402.82 -1.70258 0.934125 0
M  V30 14625 O 1402.09 -1.9446 -0.0392699 0
M  V30 14626 C 1402.38 -1.21103 3.39126 0
M  V30 14627 C 1402.23 -0.134865 4.49598 0
M  V30 14628 C 1403.55 -2.12148 3.85592 0
M  V30 14629 H 1400.67 -0.223416 0.702321 0
M  V30 14630 H 1403.31 0.117748 1.89635 0
M  V30 14631 H 1401.46 -1.83862 3.42238 0
M  V30 14632 H 1403.13 0.497292 4.58612 0
M  V30 14633 H 1401.37 0.536587 4.30469 0
M  V30 14634 H 1402.04 -0.589447 5.48844 0
M  V30 14635 H 1404.52 -1.59346 3.8438 0
M  V30 14636 H 1403.4 -2.50539 4.88387 0
M  V30 14637 H 1403.66 -3.02318 3.22578 0
M  V30 14638 N 1402.72 -1.56081 -0.218252 0
M  V30 14639 C 1404.13 -1.49147 -0.568098 0
M  V30 14640 C 1404.33 -0.750893 -1.86986 0
M  V30 14641 O 1403.39 -0.291904 -2.50807 0
M  V30 14642 C 1404.7 -2.93717 -0.644272 0
M  V30 14643 C 1406.25 -3.04256 -0.734677 0
M  V30 14644 C 1406.72 -4.50191 -0.842167 0
M  V30 14645 N 1408.22 -4.54247 -0.906302 0
M  V30 14646 C 1408.95 -5.64448 -1.00924 0
M  V30 14647 N 1408.45 -6.84394 -1.07592 0
M  V30 14648 N 1410.24 -5.52308 -1.04463 0
M  V30 14649 H 1402.39 -2.02656 0.635935 0
M  V30 14650 H 1404.65 -0.921262 0.223563 0
M  V30 14651 H 1404.36 -3.50861 0.242721 0
M  V30 14652 H 1404.23 -3.45798 -1.50678 0
M  V30 14653 H 1406.62 -2.47174 -1.61211 0
M  V30 14654 H 1406.7 -2.55339 0.153563 0
M  V30 14655 H 1406.35 -5.07891 0.0308214 0
M  V30 14656 H 1406.28 -4.96817 -1.74587 0
M  V30 14657 H 1408.77 -3.67868 -0.864954 0
M  V30 14658 H 1409.08 -7.6413 -1.15433 0
M  V30 14659 H 1407.42 -6.87099 -1.045 0
M  V30 14660 H 1410.62 -4.57528 -0.989218 0
M  V30 14661 H 1410.79 -6.38223 -1.1214 0
M  V30 14662 N 1404.2 0.485086 -1.49949 0
M  V30 14663 C 1405.13 1.59312 -1.7071 0
M  V30 14664 C 1406.11 1.6076 -0.555896 0
M  V30 14665 O 1407.29 1.77249 -0.793504 0
M  V30 14666 C 1404.42 2.97718 -1.78834 0
M  V30 14667 C 1403.38 3.11136 -2.93902 0
M  V30 14668 C 1402.7 4.51051 -2.87154 0
M  V30 14669 C 1404 2.89665 -4.34617 0
M  V30 14670 H 1405.7 1.42192 -2.6348 0
M  V30 14671 H 1403.24 0.68262 -1.26792 0
M  V30 14672 H 1405.19 3.75148 -1.91943 0
M  V30 14673 H 1403.92 3.15963 -0.826744 0
M  V30 14674 H 1402.58 2.36135 -2.80421 0
M  V30 14675 H 1402.23 4.66195 -1.88869 0
M  V30 14676 H 1401.93 4.60967 -3.64394 0
M  V30 14677 H 1403.45 5.3052 -3.02293 0
M  V30 14678 H 1404.86 3.56853 -4.48697 0
M  V30 14679 H 1403.26 3.11039 -5.13201 0
M  V30 14680 H 1404.33 1.85642 -4.47956 0
M  V30 14681 N 1405.67 1.39291 0.737279 0
M  V30 14682 C 1407.08 1.32489 1.31543 0
M  V30 14683 C 1407.44 -0.0118162 1.96196 0
M  V30 14684 O 1406.56 -0.913938 1.96153 0
M  V30 14685 C 1407.16 2.39946 2.39189 0
M  V30 14686 C 1405.71 2.36671 2.92684 0
M  V30 14687 C 1404.86 2.21953 1.66229 0
M  V30 14688 H 1407.81 1.49412 0.534954 0
M  V30 14689 H 1407.83 2.06603 3.19524 0
M  V30 14690 H 1407.35 3.3722 1.92104 0
M  V30 14691 H 1405.45 1.43028 3.44055 0
M  V30 14692 H 1405.56 3.31441 3.45953 0
M  V30 14693 H 1403.92 1.69087 1.90478 0
M  V30 14694 H 1404.71 3.21194 1.21199 0
M  V30 14695 N 1407.15 -0.967221 1.24429 0
M  V30 14696 C 1408.4 -1.70688 1.08213 0
M  V30 14697 C 1408.72 -1.91268 -0.379693 0
M  V30 14698 O 1407.99 -1.49077 -1.27094 0
M  V30 14699 H 1406.57 -0.632489 0.39745 0
M  V30 14700 H 1409.23 -1.16356 1.56356 0
M  V30 14701 H 1408.33 -2.69119 1.58055 0
M  V30 14702 N 1408.63 -1.05812 -1.16797 0
M  V30 14703 C 1409.58 -0.634669 -2.18988 0
M  V30 14704 C 1410.56 0.332122 -1.57435 0
M  V30 14705 O 1411.76 0.148346 -1.76377 0
M  V30 14706 C 1408.88 -0.0174742 -3.43296 0
M  V30 14707 C 1407.97 -1.00847 -4.11935 0
M  V30 14708 N 1408.36 -2.18223 -4.56303 0
M  V30 14709 C 1406.66 -0.838325 -4.3805 0
M  V30 14710 C 1407.36 -2.80967 -5.09345 0
M  V30 14711 N 1406.34 -2.08725 -5.01931 0
M  V30 14712 H 1410.14 -1.52888 -2.51003 0
M  V30 14713 H 1407.65 -0.929125 -1.33195 0
M  V30 14714 H 1409.65 0.303692 -4.15792 0
M  V30 14715 H 1408.31 0.872052 -3.1277 0
M  V30 14716 H 1409.32 -2.56025 -4.5019 0
M  V30 14717 H 1406 -0.000376066 -4.175 0
M  V30 14718 H 1407.39 -3.80541 -5.53749 0
M  V30 14719 N 1410.11 1.33347 -0.840014 0
M  V30 14720 C 1411.04 2.28029 -0.231432 0
M  V30 14721 C 1412.05 1.51792 0.588488 0
M  V30 14722 O 1413.24 1.736 0.415371 0
M  V30 14723 C 1410.34 3.31745 0.692721 0
M  V30 14724 C 1409.51 4.37311 -0.0881144 0
M  V30 14725 C 1408.57 5.20689 0.759557 0
M  V30 14726 O 1407.6 5.68854 0.198347 0
M  V30 14727 N 1408.8 5.42082 2.07672 0
M  V30 14728 H 1411.57 2.80893 -1.04495 0
M  V30 14729 H 1409.13 1.46053 -0.698586 0
M  V30 14730 H 1411.12 3.84428 1.2648 0
M  V30 14731 H 1409.69 2.79148 1.40695 0
M  V30 14732 H 1408.91 3.85112 -0.841579 0
M  V30 14733 H 1410.2 5.04947 -0.624986 0
M  V30 14734 H 1409.6 5.04654 2.55619 0
M  V30 14735 H 1408.15 5.97817 2.59726 0
M  V30 14736 N 1411.59 0.596556 1.45873 0
M  V30 14737 C 1412.53 -0.128713 2.30441 0
M  V30 14738 C 1413.5 -0.870727 1.41448 0
M  V30 14739 O 1414.69 -0.858654 1.70387 0
M  V30 14740 C 1411.83 -1.1274 3.26165 0
M  V30 14741 C 1410.94 -0.387403 4.30259 0
M  V30 14742 C 1410.08 -1.37484 5.131 0
M  V30 14743 C 1409.11 -0.622025 6.08931 0
M  V30 14744 N 1408.25 -1.5582 6.84591 0
M  V30 14745 H 1413.09 0.598466 2.91929 0
M  V30 14746 H 1410.63 0.306936 1.43862 0
M  V30 14747 H 1412.59 -1.71943 3.8012 0
M  V30 14748 H 1411.22 -1.82213 2.66455 0
M  V30 14749 H 1410.27 0.319929 3.79052 0
M  V30 14750 H 1411.58 0.200477 4.98397 0
M  V30 14751 H 1410.73 -2.03926 5.71401 0
M  V30 14752 H 1409.47 -1.99665 4.44955 0
M  V30 14753 H 1408.48 0.0560936 5.49771 0
M  V30 14754 H 1409.7 -0.00541426 6.791 0
M  V30 14755 H 1407.65 -2.16786 6.19145 0
M  V30 14756 H 1407.57 -1.02347 7.4904 0
M  V30 14757 H 1408.83 -2.21254 7.4744 0
M  V30 14758 N 1413.06 -1.53996 0.335095 0
M  V30 14759 C 1414.48 -1.59591 -0.0171422 0
M  V30 14760 C 1414.68 -1.35132 -1.49471 0
M  V30 14761 O 1413.74 -1.14141 -2.25229 0
M  V30 14762 C 1415.05 -2.97872 0.411443 0
M  V30 14763 C 1416.6 -3.10887 0.363072 0
M  V30 14764 C 1417.07 -4.51532 0.766995 0
M  V30 14765 N 1418.56 -4.57557 0.72085 0
M  V30 14766 C 1419.3 -5.64516 1.00544 0
M  V30 14767 N 1418.79 -6.79365 1.35777 0
M  V30 14768 N 1420.59 -5.54349 0.930243 0
M  V30 14769 H 1412.74 -1.68151 1.29766 0
M  V30 14770 H 1415 -0.787067 0.528422 0
M  V30 14771 H 1414.71 -3.20809 1.44134 0
M  V30 14772 H 1414.58 -3.76571 -0.217678 0
M  V30 14773 H 1416.97 -2.87679 -0.657642 0
M  V30 14774 H 1417.05 -2.34266 1.02728 0
M  V30 14775 H 1416.69 -4.75474 1.78568 0
M  V30 14776 H 1416.62 -5.26539 0.0803511 0
M  V30 14777 H 1419.11 -3.75079 0.460867 0
M  V30 14778 H 1419.43 -7.56891 1.55999 0
M  V30 14779 H 1417.77 -6.80833 1.39614 0
M  V30 14780 H 1420.96 -4.63503 0.654402 0
M  V30 14781 H 1421.14 -6.37616 1.15539 0
M  V30 14782 N 1414.54 -0.0635198 -1.57472 0
M  V30 14783 C 1415.79 0.607008 -1.92349 0
M  V30 14784 C 1416.1 1.71268 -0.944806 0
M  V30 14785 O 1417.31 2.44221 -1.18609 0
M  V30 14786 C 1415.77 1.13105 -3.41666 0
M  V30 14787 C 1415.37 0.0568256 -4.47964 0
M  V30 14788 C 1417.12 1.77611 -3.85557 0
M  V30 14789 C 1415.02 0.594443 -5.88405 0
M  V30 14790 H 1413.95 0.230506 -0.717902 0
M  V30 14791 H 1416.61 -0.134413 -1.83007 0
M  V30 14792 H 1414.99 1.92517 -3.46054 0
M  V30 14793 H 1416.16 -0.717371 -4.55182 0
M  V30 14794 H 1414.48 -0.491517 -4.13489 0
M  V30 14795 H 1417.07 2.18852 -4.87861 0
M  V30 14796 H 1417.42 2.6328 -3.22474 0
M  V30 14797 H 1417.95 1.04834 -3.83738 0
M  V30 14798 H 1414.69 -0.224893 -6.55114 0
M  V30 14799 H 1414.21 1.33635 -5.84724 0
M  V30 14800 H 1415.89 1.07346 -6.38033 0
M  V30 14801 N 1416.02 1.56195 0.209972 0
M  V30 14802 C 1416.98 1.92514 1.24383 0
M  V30 14803 C 1417.98 0.804793 1.39211 0
M  V30 14804 O 1419.17 1.0724 1.37278 0
M  V30 14805 C 1416.3 2.18613 2.61574 0
M  V30 14806 H 1417.5 2.84992 0.933781 0
M  V30 14807 H 1415.05 1.49656 0.450878 0
M  V30 14808 H 1415.79 1.28724 2.97659 0
M  V30 14809 H 1415.57 3.00241 2.52186 0
M  V30 14810 H 1417.06 2.47767 3.36156 0
M  V30 14811 N 1417.5 -0.477127 1.50204 0
M  V30 14812 C 1418.73 -1.25126 1.64399 0
M  V30 14813 C 1419.14 -1.86401 0.32424 0
M  V30 14814 O 1418.48 -1.69711 -0.703119 0
M  V30 14815 C 1418.54 -2.40428 2.67273 0
M  V30 14816 C 1418.2 -1.99837 4.10992 0
M  V30 14817 C 1419.2 -1.52435 4.97051 0
M  V30 14818 C 1416.89 -2.08742 4.56872 0
M  V30 14819 C 1418.88 -1.14472 6.27037 0
M  V30 14820 C 1416.57 -1.70391 5.86865 0
M  V30 14821 C 1417.57 -1.23333 6.71772 0
M  V30 14822 O 1417.25 -0.855111 7.99339 0
M  V30 14823 H 1416.99 -0.384801 0.555791 0
M  V30 14824 H 1419.54 -0.576654 1.97139 0
M  V30 14825 H 1417.77 -3.1104 2.29763 0
M  V30 14826 H 1419.46 -3.02406 2.7075 0
M  V30 14827 H 1420.22 -1.44981 4.62823 0
M  V30 14828 H 1416.1 -2.44319 3.90934 0
M  V30 14829 H 1419.65 -0.776712 6.93263 0
M  V30 14830 H 1415.54 -1.77501 6.20615 0
M  V30 14831 H 1416.31 -0.984492 8.12558 0
M  V30 14832 N 1418.98 -1.3968 -0.729882 0
M  V30 14833 C 1420.2 -1.40654 -1.52418 0
M  V30 14834 C 1420.63 -0.00428997 -1.881 0
M  V30 14835 O 1419.98 0.984023 -1.52272 0
M  V30 14836 C 1420.03 -2.29057 -2.78506 0
M  V30 14837 O 1419.14 -1.72397 -3.74637 0
M  V30 14838 H 1418.48 -0.478761 -0.460091 0
M  V30 14839 H 1421.01 -1.83738 -0.900087 0
M  V30 14840 H 1421.02 -2.43748 -3.27187 0
M  V30 14841 H 1419.69 -3.30961 -2.51868 0
M  V30 14842 H 1418.27 -1.66977 -3.33426 0
M  V30 14843 N 1420.45 0.960609 -1.2494 0
M  V30 14844 C 1421.38 2.074 -1.07274 0
M  V30 14845 C 1422.37 1.70092 0.0164365 0
M  V30 14846 O 1423.55 1.93604 -0.151975 0
M  V30 14847 C 1420.68 3.40491 -0.684317 0
M  V30 14848 C 1419.63 3.91784 -1.72306 0
M  V30 14849 C 1418.96 5.21301 -1.18949 0
M  V30 14850 C 1420.26 4.18829 -3.12056 0
M  V30 14851 H 1421.95 2.22438 -2.00404 0
M  V30 14852 H 1419.5 1.06888 -0.964937 0
M  V30 14853 H 1421.45 4.17826 -0.547686 0
M  V30 14854 H 1420.18 3.25374 0.282687 0
M  V30 14855 H 1418.84 3.16613 -1.84802 0
M  V30 14856 H 1418.48 5.02549 -0.212892 0
M  V30 14857 H 1418.18 5.56588 -1.8837 0
M  V30 14858 H 1419.71 6.01238 -1.06513 0
M  V30 14859 H 1421.12 4.86844 -3.02748 0
M  V30 14860 H 1419.52 4.6536 -3.78894 0
M  V30 14861 H 1420.59 3.25333 -3.59564 0
M  V30 14862 N 1421.93 1.0643 1.16234 0
M  V30 14863 C 1422.86 0.697605 2.22836 0
M  V30 14864 C 1423.84 -0.310563 1.67241 0
M  V30 14865 O 1425.03 -0.185385 1.93313 0
M  V30 14866 C 1422.16 0.0847097 3.47197 0
M  V30 14867 C 1421.11 1.019 4.15693 0
M  V30 14868 C 1420.44 0.269339 5.34021 0
M  V30 14869 C 1421.74 2.34861 4.66516 0
M  V30 14870 H 1423.43 1.58883 2.53765 0
M  V30 14871 H 1420.98 0.765388 1.21975 0
M  V30 14872 H 1422.93 -0.1837 4.20999 0
M  V30 14873 H 1421.66 -0.84154 3.15572 0
M  V30 14874 H 1420.31 1.27218 3.43818 0
M  V30 14875 H 1419.96 -0.660072 4.9865 0
M  V30 14876 H 1419.66 0.892001 5.8079 0
M  V30 14877 H 1421.19 0.00850775 6.10599 0
M  V30 14878 H 1422.6 2.13922 5.31893 0
M  V30 14879 H 1421 2.92637 5.23912 0
M  V30 14880 H 1422.07 2.97834 3.82653 0
M  V30 14881 N 1423.41 -1.329 0.847073 0
M  V30 14882 C 1424.66 -1.9712 0.445872 0
M  V30 14883 C 1424.98 -1.67398 -1.00014 0
M  V30 14884 O 1424.25 -0.977204 -1.69787 0
M  V30 14885 H 1422.83 -0.729247 0.161887 0
M  V30 14886 H 1425.49 -1.62118 1.08184 0
M  V30 14887 H 1424.59 -3.06575 0.584676 0
M  V30 14888 N 1424.89 -0.604284 -1.45555 0
M  V30 14889 C 1425.82 0.103859 -2.33269 0
M  V30 14890 C 1426.8 0.862104 -1.46635 0
M  V30 14891 O 1427.98 0.833308 -1.75413 0
M  V30 14892 C 1425.11 1.104 -3.29286 0
M  V30 14893 C 1424.07 0.459189 -4.2553 0
M  V30 14894 C 1423.39 1.56734 -5.11213 0
M  V30 14895 C 1424.69 -0.617509 -5.18637 0
M  V30 14896 H 1426.39 -0.628538 -2.92728 0
M  V30 14897 H 1423.93 -0.303711 -1.40761 0
M  V30 14898 H 1425.89 1.60794 -3.89517 0
M  V30 14899 H 1424.61 1.86695 -2.67979 0
M  V30 14900 H 1423.27 -0.0238508 -3.66592 0
M  V30 14901 H 1422.92 2.32049 -4.46276 0
M  V30 14902 H 1422.62 1.14142 -5.76407 0
M  V30 14903 H 1424.14 2.07361 -5.74312 0
M  V30 14904 H 1425.56 -0.197784 -5.72959 0
M  V30 14905 H 1423.95 -0.96499 -5.9229 0
M  V30 14906 H 1425.02 -1.49541 -4.61265 0
M  V30 14907 N 1426.37 1.53816 -0.343257 0
M  V30 14908 C 1427.31 2.25011 0.513664 0
M  V30 14909 C 1428.28 1.24827 1.09578 0
M  V30 14910 O 1429.47 1.53558 1.13245 0
M  V30 14911 C 1426.61 3.02616 1.65885 0
M  V30 14912 C 1425.72 4.17653 1.10406 0
M  V30 14913 C 1424.86 4.82746 2.21653 0
M  V30 14914 C 1423.9 5.89853 1.63524 0
M  V30 14915 N 1423.03 6.48726 2.68512 0
M  V30 14916 H 1427.87 2.97832 -0.099997 0
M  V30 14917 H 1425.41 1.46973 -0.0611206 0
M  V30 14918 H 1427.37 3.45868 2.33304 0
M  V30 14919 H 1426 2.32092 2.2435 0
M  V30 14920 H 1425.05 3.79045 0.320819 0
M  V30 14921 H 1426.36 4.94691 0.638887 0
M  V30 14922 H 1425.52 5.29068 2.96938 0
M  V30 14923 H 1424.25 4.05131 2.71515 0
M  V30 14924 H 1423.26 5.42914 0.86745 0
M  V30 14925 H 1424.48 6.69375 1.14515 0
M  V30 14926 H 1422.43 5.73975 3.17629 0
M  V30 14927 H 1422.35 7.21236 2.26616 0
M  V30 14928 H 1423.62 6.99701 3.43567 0
M  V30 14929 N 1427.84 0.0718701 1.57436 0
M  V30 14930 C 1429.12 -0.638233 1.84894 0
M  V30 14931 C 1429.5 -1.87786 0.964343 0
M  V30 14932 O 1428.85 -2.28479 0.0306523 0
M  V30 14933 C 1429.06 -0.975817 3.3508 0
M  V30 14934 C 1430.41 -1.34927 4.02591 0
M  V30 14935 O 1431.43 -1.06754 3.39826 0
M  V30 14936 O 1430.29 -1.87589 5.13296 0
M  V30 14937 H 1427.38 -0.317 0.763832 0
M  V30 14938 H 1429.93 0.102807 1.69388 0
M  V30 14939 H 1428.7 -0.0953948 3.91184 0
M  V30 14940 H 1428.33 -1.77362 3.55849 0
M  V30 14941 N 1429.32 -1.56304 -0.201686 0
M  V30 14942 C 1430.25 -1.90538 -1.27389 0
M  V30 14943 C 1431.27 -0.795422 -1.42045 0
M  V30 14944 O 1432.46 -1.07381 -1.42589 0
M  V30 14945 C 1429.56 -2.11638 -2.64694 0
M  V30 14946 C 1428.73 -3.42755 -2.71731 0
M  V30 14947 C 1427.79 -3.53047 -3.90185 0
M  V30 14948 O 1426.81 -4.25923 -3.77595 0
M  V30 14949 N 1428.02 -2.85649 -5.05356 0
M  V30 14950 H 1430.78 -2.83106 -0.983411 0
M  V30 14951 H 1428.34 -1.57092 -0.391638 0
M  V30 14952 H 1430.33 -2.15818 -3.42352 0
M  V30 14953 H 1428.9 -1.256 -2.86258 0
M  V30 14954 H 1428.12 -3.50501 -1.80397 0
M  V30 14955 H 1429.41 -4.29092 -2.73418 0
M  V30 14956 H 1428.81 -2.26256 -5.18483 0
M  V30 14957 H 1427.37 -2.95465 -5.80985 0
M  V30 14958 N 1430.8 0.469154 -1.50455 0
M  V30 14959 C 1432.05 1.2229 -1.6178 0
M  V30 14960 C 1432.38 1.91577 -0.318073 0
M  V30 14961 O 1431.65 1.82205 0.68057 0
M  V30 14962 C 1431.94 2.26504 -2.79943 0
M  V30 14963 C 1431.79 1.61509 -4.19804 0
M  V30 14964 C 1433.11 3.27796 -2.93662 0
M  V30 14965 H 1430.23 0.443241 -0.588817 0
M  V30 14966 H 1432.87 0.516431 -1.82847 0
M  V30 14967 H 1431.02 2.86757 -2.62112 0
M  V30 14968 H 1432.69 1.04838 -4.49229 0
M  V30 14969 H 1430.94 0.918162 -4.23972 0
M  V30 14970 H 1431.61 2.37248 -4.98415 0
M  V30 14971 H 1434.08 2.77568 -3.09992 0
M  V30 14972 H 1432.96 3.98041 -3.77961 0
M  V30 14973 H 1433.22 3.92033 -2.04359 0
M  V30 14974 N 1432.28 1.40065 0.722464 0
M  V30 14975 C 1433.23 1.39947 1.85789 0
M  V30 14976 C 1434.22 0.28089 1.67055 0
M  V30 14977 O 1435.43 0.451575 1.74244 0
M  V30 14978 H 1431.8 0.437296 0.611781 0
M  V30 14979 H 1433.77 2.35695 1.83004 0
M  V30 14980 C 1432.52 1.27218 3.2359 0
M  V30 14981 H 1431.84 2.12566 3.38609 0
M  V30 14982 H 1433.28 1.31194 4.03192 0
M  V30 14983 C 1431.74 -0.0182466 3.36895 0
M  V30 14984 O 1432.27 -0.983761 3.89468 0
M  V30 14985 N 1430.48 -0.0854707 2.90474 0
M  V30 14986 H 1430.03 0.700953 2.4788 0
M  V30 14987 H 1429.98 -0.948367 2.99755 0
M  V30 14988 N 1433.76 -0.95397 1.25448 0
M  V30 14989 C 1434.99 -1.73331 1.12977 0
M  V30 14990 C 1435.4 -1.86131 -0.316364 0
M  V30 14991 O 1434.76 -1.35951 -1.21753 0
M  V30 14992 C 1434.81 -3.14675 1.77938 0
M  V30 14993 O 1434.53 -3.025 3.16899 0
M  V30 14994 C 1436.03 -4.08884 1.71256 0
M  V30 14995 H 1433.25 -0.543118 0.394036 0
M  V30 14996 H 1435.79 -1.19678 1.65823 0
M  V30 14997 H 1433.95 -3.6527 1.29062 0
M  V30 14998 H 1434.36 -3.91668 3.4885 0
M  V30 14999 H 1435.84 -5.05668 2.21368 0
M  V30 15000 H 1436.31 -4.33959 0.676476 0
M  V30 15001 H 1436.92 -3.64205 2.19624 0
M  V30 15002 N 1435.24 -1.07045 -1.15668 0
M  V30 15003 C 1436.48 -0.792908 -1.86657 0
M  V30 15004 C 1436.81 0.679213 -1.81935 0
M  V30 15005 O 1436.09 1.49822 -1.2403 0
M  V30 15006 C 1436.37 -1.2978 -3.35901 0
M  V30 15007 C 1436.23 -2.83424 -3.49272 0
M  V30 15008 C 1437.54 -0.911821 -4.30551 0
M  V30 15009 H 1434.66 -0.289509 -0.677756 0
M  V30 15010 H 1437.31 -1.32769 -1.35913 0
M  V30 15011 H 1435.46 -0.84288 -3.79246 0
M  V30 15012 H 1437.13 -3.37182 -3.14811 0
M  V30 15013 H 1435.37 -3.21777 -2.90933 0
M  V30 15014 H 1436.04 -3.13819 -4.54116 0
M  V30 15015 H 1438.52 -1.30376 -3.95147 0
M  V30 15016 H 1437.39 -1.29247 -5.33467 0
M  V30 15017 H 1437.65 0.18255 -4.41723 0
M  V30 15018 N 1436.71 1.32449 -0.85411 0
M  V30 15019 C 1437.96 1.96881 -0.45632 0
M  V30 15020 C 1438.28 1.67926 0.991248 0
M  V30 15021 O 1437.55 0.986195 1.69266 0
M  V30 15022 H 1436.13 0.728378 -0.165752 0
M  V30 15023 H 1438.79 1.61542 -1.09042 0
M  V30 15024 H 1437.89 3.0626 -0.600927 0
M  V30 15025 N 1438.19 0.611994 1.45232 0
M  V30 15026 C 1439.44 0.106467 2.01419 0
M  V30 15027 C 1439.75 -1.2723 1.48566 0
M  V30 15028 O 1440.96 -1.8708 1.96757 0
M  V30 15029 C 1439.42 0.139639 3.59629 0
M  V30 15030 C 1439.02 1.51853 4.21479 0
M  V30 15031 C 1440.77 -0.310417 4.23364 0
M  V30 15032 C 1438.67 1.50785 5.71855 0
M  V30 15033 H 1437.6 0.0360345 0.753138 0
M  V30 15034 H 1440.26 0.767974 1.66657 0
M  V30 15035 H 1438.64 -0.588606 3.91601 0
M  V30 15036 H 1439.81 2.26884 4.01074 0
M  V30 15037 H 1438.13 1.91105 3.69956 0
M  V30 15038 H 1440.72 -0.337656 5.33633 0
M  V30 15039 H 1441.07 -1.33398 3.94348 0
M  V30 15040 H 1441.6 0.364704 3.96125 0
M  V30 15041 H 1438.34 2.50916 6.05575 0
M  V30 15042 H 1437.86 0.800195 5.94438 0
M  V30 15043 H 1439.54 1.23341 6.35135 0
M  V30 15044 N 1439.67 -1.53632 0.351409 0
M  V30 15045 C 1441.08 -1.86241 -0.130834 0
M  V30 15046 C 1441.43 -1.27243 -1.49344 0
M  V30 15047 O 1440.56 -0.589006 -2.0823 0
M  V30 15048 C 1441.15 -3.37919 -0.244179 0
M  V30 15049 C 1439.71 -3.70377 -0.670662 0
M  V30 15050 C 1438.86 -2.76643 0.190813 0
M  V30 15051 H 1441.81 -1.48083 0.570724 0
M  V30 15052 H 1441.83 -3.65137 -1.07029 0
M  V30 15053 H 1441.34 -3.8083 0.747688 0
M  V30 15054 H 1439.44 -3.33015 -1.67127 0
M  V30 15055 H 1439.56 -4.76934 -0.455102 0
M  V30 15056 H 1437.92 -2.52446 -0.338092 0
M  V30 15057 H 1438.7 -3.22385 1.17996 0
M  V30 15058 N 1441.15 -0.0802183 -1.57396 0
M  V30 15059 C 1442.4 0.586573 -1.92982 0
M  V30 15060 C 1442.71 1.70256 -0.962918 0
M  V30 15061 O 1443.92 2.4295 -1.21193 0
M  V30 15062 C 1442.37 1.09475 -3.42846 0
M  V30 15063 C 1441.98 0.0093098 -4.47999 0
M  V30 15064 C 1443.72 1.73512 -3.87419 0
M  V30 15065 C 1441.63 0.532002 -5.89002 0
M  V30 15066 H 1440.56 0.222878 -0.720306 0
M  V30 15067 H 1443.21 -0.153816 -1.82854 0
M  V30 15068 H 1441.59 1.88836 -3.48076 0
M  V30 15069 H 1442.77 -0.765609 -4.54395 0
M  V30 15070 H 1441.08 -0.535345 -4.12944 0
M  V30 15071 H 1443.68 2.13665 -4.90154 0
M  V30 15072 H 1444.02 2.59845 -3.25248 0
M  V30 15073 H 1444.56 1.00758 -3.84828 0
M  V30 15074 H 1441.29 -0.294364 -6.54839 0
M  V30 15075 H 1440.81 1.27425 -5.86108 0
M  V30 15076 H 1442.49 1.00573 -6.39135 0
M  V30 15077 O 1442.66 1.61388 0.0601961 0
M  V30 15078 H 1443.36 1.81196 0.684678 0
M  V30 END ATOM
M  V30 BEGIN BOND
M  V30 END BOND
M  V30 END CTAB
M  END
$$$$
