drugbank_target|O95237 Lecithin retinol acyltransferase (DB00162)
 OpenBabel12092119423D

  0  0  0     0  0            999 V3000
M  V30 BEGIN CTAB
M  V30 COUNTS 3655 3691 0 0 0
M  V30 BEGIN ATOM
M  V30 1 H -0.908 1.98254 -0.117106 0
M  V30 2 N 0 1.576 0 0
M  V30 3 C 0.933 2.03868 1.02534 0
M  V30 4 C 1.911 0.928543 1.3348 0
M  V30 5 O 3.095 1.19667 1.45644 0
M  V30 6 C 0.222 2.43627 2.35294 0
M  V30 7 C -0.732 3.65373 2.2001 0
M  V30 8 S 0.101 5.13292 1.52614 0
M  V30 9 C 1.257 5.56322 2.86805 0
M  V30 10 H 1.49 2.90518 0.631377 0
M  V30 11 H -0.977 1.52953 0.210867 0
M  V30 12 H 0.981 2.67203 3.11629 0
M  V30 13 H -0.358 1.57376 2.7183 0
M  V30 14 H -1.165 3.90944 3.18086 0
M  V30 15 H -1.563 3.418 1.51819 0
M  V30 16 H 0.729 5.58782 3.83104 0
M  V30 17 H 1.672 6.56266 2.65933 0
M  V30 18 H 2.08 4.83886 2.90714 0
M  V30 19 N 1.4781 -0.272755 1.55222 0
M  V30 20 C 2.4251 -1.33716 1.88119 0
M  V30 21 C 3.3951 -1.49066 0.73271 0
M  V30 22 O 4.5801 -1.63469 0.984002 0
M  V30 23 C 1.7201 -2.69238 2.15882 0
M  V30 24 C 0.8331 -2.62108 3.43399 0
M  V30 25 C -0.0319 -3.89811 3.60861 0
M  V30 26 C -0.9929 -3.77193 4.8207 0
M  V30 27 N -1.8559 -4.9673 4.96189 0
M  V30 28 H 2.9841 -1.04962 2.78903 0
M  V30 29 H 0.5211 -0.507088 1.38083 0
M  V30 30 H 2.4791 -3.48089 2.29978 0
M  V30 31 H 1.1091 -2.96194 1.28331 0
M  V30 32 H 0.1611 -1.74967 3.37773 0
M  V30 33 H 1.4731 -2.48685 4.32386 0
M  V30 34 H 0.6271 -4.77103 3.74777 0
M  V30 35 H -0.6339 -4.06102 2.7006 0
M  V30 36 H -1.6289 -2.88284 4.68159 0
M  V30 37 H -0.4039 -3.62421 5.74307 0
M  V30 38 H -2.4579 -5.13431 4.08319 0
M  V30 39 H -2.5409 -4.85839 5.79221 0
M  V30 40 H -1.2729 -5.85594 5.1449 0
M  V30 41 N 2.9562 -1.48159 -0.537278 0
M  V30 42 C 3.9042 -1.62573 -1.66352 0
M  V30 43 C 4.8982 -0.492366 -1.62087 0
M  V30 44 O 6.1042 -0.670847 -1.67032 0
M  V30 45 H 2.4792 -0.511992 -0.550789 0
M  V30 46 H 4.4502 -2.57176 -1.51337 0
M  V30 47 C 3.1992 -1.67583 -3.04649 0
M  V30 48 H 2.5222 -2.54151 -3.08622 0
M  V30 49 H 3.9622 -1.81713 -3.83088 0
M  V30 50 C 2.4212 -0.413039 -3.34358 0
M  V30 51 O 2.9512 0.477259 -3.98855 0
M  V30 52 N 1.1572 -0.286961 -2.8918 0
M  V30 53 H 0.7042 -1.01241 -2.36871 0
M  V30 54 H 0.6622 0.556963 -3.09427 0
M  V30 55 N 4.4343 0.785586 -1.36625 0
M  V30 56 C 5.8453 1.36101 -1.27803 0
M  V30 57 C 6.1963 1.96035 0.0804875 0
M  V30 58 O 5.3213 1.92834 0.982042 0
M  V30 59 C 5.9163 2.47442 -2.31426 0
M  V30 60 C 4.4753 3.00789 -2.26281 0
M  V30 61 C 3.6223 1.73896 -2.15999 0
M  V30 62 H 6.5733 0.586928 -1.47448 0
M  V30 63 H 6.5943 3.2656 -1.95291 0
M  V30 64 H 6.1063 2.03791 -3.30289 0
M  V30 65 H 4.2073 3.48851 -1.30896 0
M  V30 66 H 4.3203 3.57343 -3.19128 0
M  V30 67 H 2.6843 1.9628 -1.62316 0
M  V30 68 H 3.4673 1.32368 -3.16755 0
M  V30 69 N 5.9124 1.20967 1.01018 0
M  V30 70 C 6.8454 0.907578 2.09376 0
M  V30 71 C 7.8234 -0.142868 1.61971 0
M  V30 72 O 9.0074 -0.0150391 1.88494 0
M  V30 73 C 6.1344 0.361791 3.36762 0
M  V30 74 C 5.1804 1.39423 4.03068 0
M  V30 75 S 6.0134 2.96159 4.4615 0
M  V30 76 C 7.1694 2.43173 5.7673 0
M  V30 77 H 7.4024 1.82519 2.34678 0
M  V30 78 H 4.9354 1.03884 1.14225 0
M  V30 79 H 6.8934 0.0534523 4.10465 0
M  V30 80 H 5.5544 -0.53443 3.0952 0
M  V30 81 H 4.7474 0.961853 4.94737 0
M  V30 82 H 4.3494 1.65038 3.35617 0
M  V30 83 H 6.6414 1.83335 6.52223 0
M  V30 84 H 7.5844 3.33264 6.24773 0
M  V30 85 H 7.9924 1.85069 5.33301 0
M  V30 86 N 7.3905 -1.2043 1.01659 0
M  V30 87 C 8.3205 -2.25466 0.607226 0
M  V30 88 C 9.3015 -1.65853 -0.377716 0
M  V30 89 O 10.4865 -1.92409 -0.263149 0
M  V30 90 C 7.6165 -3.47256 -0.0552949 0
M  V30 91 C 6.5705 -4.19462 0.850632 0
M  V30 92 C 5.8965 -5.34673 0.0538859 0
M  V30 93 C 7.1965 -4.75603 2.15868 0
M  V30 94 H 8.8905 -2.59962 1.48526 0
M  V30 95 H 6.4365 -1.2496 0.715605 0
M  V30 96 H 8.3895 -4.19917 -0.353233 0
M  V30 97 H 7.1135 -3.11924 -0.968045 0
M  V30 98 H 5.7725 -3.48667 1.13257 0
M  V30 99 H 5.4205 -4.95585 -0.860514 0
M  V30 100 H 5.1205 -5.83913 0.657192 0
M  V30 101 H 6.6445 -6.10138 -0.237598 0
M  V30 102 H 8.0585 -5.40083 1.92311 0
M  V30 103 H 6.4555 -5.3528 2.71284 0
M  V30 104 H 7.5255 -3.94346 2.82169 0
M  V30 105 N 8.8686 -0.792821 -1.36206 0
M  V30 106 C 9.7786 -0.194808 -2.3379 0
M  V30 107 C 10.7946 0.654869 -1.61206 0
M  V30 108 O 11.9706 0.569856 -1.9317 0
M  V30 109 C 9.0356 0.657721 -3.40404 0
M  V30 110 C 8.0966 -0.210849 -4.28782 0
M  V30 111 C 7.3296 0.601086 -5.30304 0
M  V30 112 O 7.5526 1.83682 -5.40016 0
M  V30 113 O 6.4866 -0.000808277 -6.019 0
M  V30 114 H 10.3126 -1.00172 -2.86704 0
M  V30 115 H 7.8976 -0.554341 -1.38735 0
M  V30 116 H 9.7796 1.14375 -4.05581 0
M  V30 117 H 8.4546 1.44247 -2.89784 0
M  V30 118 H 7.3616 -0.743714 -3.66633 0
M  V30 119 H 8.6946 -0.959195 -4.82763 0
M  V30 120 N 10.3467 1.47872 -0.545128 0
M  V30 121 C 11.5927 2.02793 -0.0166104 0
M  V30 122 C 11.9257 1.41987 1.32489 0
M  V30 123 O 11.2007 0.571045 1.85928 0
M  V30 124 C 11.4837 3.59989 0.0893294 0
M  V30 125 C 11.3367 4.3125 -1.27841 0
M  V30 126 C 12.6557 4.32606 0.808724 0
M  V30 127 H 9.7747 0.736962 -0.00751035 0
M  V30 128 H 12.4167 1.76433 -0.705085 0
M  V30 129 H 10.5667 3.82579 0.675681 0
M  V30 130 H 12.2387 4.20035 -1.90704 0
M  V30 131 H 10.4817 3.92076 -1.85632 0
M  V30 132 H 11.1527 5.39736 -1.15713 0
M  V30 133 H 13.6287 4.14936 0.310992 0
M  V30 134 H 12.5047 5.42251 0.851782 0
M  V30 135 H 12.7657 4.00963 1.86229 0
M  V30 136 N 11.8248 0.280983 1.55075 0
M  V30 137 C 13.0708 -0.33461 2.00021 0
M  V30 138 C 13.4038 -1.55063 1.16915 0
M  V30 139 O 12.6788 -1.93006 0.240646 0
M  V30 140 C 12.9618 -0.711007 3.53011 0
M  V30 141 C 12.8148 0.512766 4.46868 0
M  V30 142 C 14.1338 -1.54522 4.12081 0
M  V30 143 H 11.2528 -0.120147 0.727141 0
M  V30 144 H 13.8948 0.389097 1.85973 0
M  V30 145 H 12.0448 -1.32761 3.65112 0
M  V30 146 H 13.7168 1.15131 4.46702 0
M  V30 147 H 11.9598 1.14975 4.18286 0
M  V30 148 H 12.6308 0.205556 5.51617 0
M  V30 149 H 15.1068 -1.02442 4.03293 0
M  V30 150 H 13.9828 -1.77739 5.19327 0
M  V30 151 H 14.2438 -2.52813 3.62682 0
M  V30 152 N 13.3029 -1.57598 0.00835791 0
M  V30 153 C 14.5279 -1.95617 -0.689103 0
M  V30 154 C 14.9529 -0.883753 -1.66046 0
M  V30 155 O 14.3109 0.157352 -1.80616 0
M  V30 156 C 14.3589 -3.32736 -1.38994 0
M  V30 157 O 13.4629 -3.27631 -2.50463 0
M  V30 158 H 12.8039 -0.638379 -0.182668 0
M  V30 159 H 15.3339 -2.045 0.064036 0
M  V30 160 H 15.3439 -3.68494 -1.75147 0
M  V30 161 H 14.0189 -4.1034 -0.677778 0
M  V30 162 H 12.5959 -3.03561 -2.16576 0
M  V30 163 N 14.781 0.264519 -1.55364 0
M  V30 164 C 15.711 1.33121 -1.91836 0
M  V30 165 C 16.692 1.51101 -0.781192 0
M  V30 166 O 17.877 1.64003 -1.04003 0
M  V30 167 C 15.007 2.68921 -2.19769 0
M  V30 168 C 13.961 2.65661 -3.35571 0
M  V30 169 C 13.287 4.05093 -3.49004 0
M  V30 170 C 14.587 2.24187 -4.71739 0
M  V30 171 H 16.281 1.02844 -2.81182 0
M  V30 172 H 13.827 0.493286 -1.35287 0
M  V30 173 H 15.78 3.43663 -2.43872 0
M  V30 174 H 14.504 3.00799 -1.27231 0
M  V30 175 H 13.163 1.93377 -3.1145 0
M  V30 176 H 12.811 4.34206 -2.53917 0
M  V30 177 H 12.511 4.03804 -4.26868 0
M  V30 178 H 14.035 4.81561 -3.75408 0
M  V30 179 H 15.449 2.88654 -4.9533 0
M  V30 180 H 13.846 2.34044 -5.52579 0
M  V30 181 H 14.916 1.19327 -4.69988 0
M  V30 182 N 16.2591 1.48442 0.529413 0
M  V30 183 C 17.1891 1.65902 1.64313 0
M  V30 184 C 18.1701 0.507897 1.6234 0
M  V30 185 O 19.3551 0.740503 1.79528 0
M  V30 186 C 16.4851 1.69911 3.02898 0
M  V30 187 C 15.4391 2.8453 3.19729 0
M  V30 188 C 14.7651 2.73629 4.59381 0
M  V30 189 C 16.0651 4.25821 3.02447 0
M  V30 190 H 17.7591 2.5914 1.49955 0
M  V30 191 H 15.3051 1.24709 0.719982 0
M  V30 192 H 17.2581 1.80715 3.80684 0
M  V30 193 H 15.9821 0.732524 3.18279 0
M  V30 194 H 14.6411 2.73283 2.44361 0
M  V30 195 H 14.2891 1.74938 4.71599 0
M  V30 196 H 13.9891 3.50541 4.71588 0
M  V30 197 H 15.5131 2.86401 5.39265 0
M  V30 198 H 16.9271 4.37898 3.70024 0
M  V30 199 H 15.3241 5.03735 3.26146 0
M  V30 200 H 16.3941 4.42244 1.98867 0
M  V30 201 N 17.7372 -0.778329 1.37039 0
M  V30 202 C 18.6672 -1.90546 1.34962 0
M  V30 203 C 19.6482 -1.68681 0.219274 0
M  V30 204 O 20.8332 -1.89634 0.418624 0
M  V30 205 C 17.9632 -3.27734 1.14925 0
M  V30 206 C 16.9172 -3.64147 2.24902 0
M  V30 207 C 16.2432 -4.99806 1.89996 0
M  V30 208 C 17.5432 -3.71579 3.67051 0
M  V30 209 H 19.2372 -1.92541 2.29277 0
M  V30 210 H 16.7832 -0.924948 1.10366 0
M  V30 211 H 18.7362 -4.06215 1.12104 0
M  V30 212 H 17.4602 -3.26154 0.170631 0
M  V30 213 H 16.1192 -2.8797 2.26868 0
M  V30 214 H 15.7672 -4.94759 0.906796 0
M  V30 215 H 15.4672 -5.25139 2.63634 0
M  V30 216 H 16.9912 -5.80694 1.88749 0
M  V30 217 H 18.4052 -4.40227 3.67251 0
M  V30 218 H 16.8022 -4.08405 4.39688 0
M  V30 219 H 17.8722 -2.72404 4.01154 0
M  V30 220 N 19.2153 -1.21501 -1.00376 0
M  V30 221 C 20.1253 -0.991447 -2.12621 0
M  V30 222 C 21.1413 0.0568446 -1.73907 0
M  V30 223 O 22.3173 -0.13348 -2.00957 0
M  V30 224 C 19.3823 -0.560312 -3.42142 0
M  V30 225 C 18.4433 -1.68096 -3.95022 0
M  V30 226 C 17.6763 -1.2703 -5.18362 0
M  V30 227 O 17.8993 -0.144438 -5.70217 0
M  V30 228 O 16.8333 -2.08269 -5.64719 0
M  V30 229 H 20.6593 -1.93158 -2.34358 0
M  V30 230 H 18.2443 -0.999999 -1.10997 0
M  V30 231 H 20.1263 -0.329724 -4.20108 0
M  V30 232 H 18.8013 0.351089 -3.2179 0
M  V30 233 H 17.7083 -1.96597 -3.18278 0
M  V30 234 H 19.0413 -2.56983 -4.19786 0
M  V30 235 N 20.6934 1.19889 -1.02296 0
M  V30 236 C 21.6404 2.22901 -0.598651 0
M  V30 237 C 22.6104 1.61588 0.384521 0
M  V30 238 O 23.7954 1.88697 0.282522 0
M  V30 239 C 20.9354 3.45063 0.0504476 0
M  V30 240 C 20.0484 4.20783 -0.978053 0
M  V30 241 C 19.1834 5.30356 -0.299338 0
M  V30 242 C 18.2224 5.97826 -1.31416 0
M  V30 243 N 17.3594 6.98975 -0.661667 0
M  V30 244 H 22.1994 2.58554 -1.48169 0
M  V30 245 H 19.7364 1.27039 -0.741584 0
M  V30 246 H 21.6944 4.14831 0.443971 0
M  V30 247 H 20.3244 3.10084 0.897097 0
M  V30 248 H 19.3764 3.50018 -1.48969 0
M  V30 249 H 20.6884 4.67109 -1.74958 0
M  V30 250 H 19.8424 6.06516 0.149347 0
M  V30 251 H 18.5814 4.85084 0.504445 0
M  V30 252 H 17.5864 5.20422 -1.77317 0
M  V30 253 H 18.8114 6.45183 -2.11933 0
M  V30 254 H 16.7574 6.55886 0.122132 0
M  V30 255 H 16.6744 7.43461 -1.37117 0
M  V30 256 H 17.9424 7.7914 -0.236785 0
M  V30 257 N 22.1715 0.800033 1.35784 0
M  V30 258 C 23.1015 0.220184 2.3246 0
M  V30 259 C 24.0825 -0.65073 1.57161 0
M  V30 260 O 25.2675 -0.582359 1.85263 0
M  V30 261 C 22.3975 -0.637353 3.41402 0
M  V30 262 C 21.3515 0.134531 4.27789 0
M  V30 263 C 20.6775 -0.844285 5.27992 0
M  V30 264 C 21.9775 1.32979 5.05088 0
M  V30 265 H 23.6715 1.02787 2.81203 0
M  V30 266 H 21.2175 0.495717 1.35199 0
M  V30 267 H 23.1705 -1.05302 4.08031 0
M  V30 268 H 21.8945 -1.47785 2.91251 0
M  V30 269 H 20.5535 0.531296 3.6273 0
M  V30 270 H 20.2015 -1.68011 4.74111 0
M  V30 271 H 19.9015 -0.332184 5.8666 0
M  V30 272 H 21.4255 -1.2583 5.97494 0
M  V30 273 H 22.8395 0.98934 5.64699 0
M  V30 274 H 21.2365 1.77593 5.7322 0
M  V30 275 H 22.3065 2.11978 4.36111 0
M  V30 276 N 23.6496 -1.47581 0.552962 0
M  V30 277 C 24.5796 -2.32762 -0.185451 0
M  V30 278 C 25.5606 -1.43527 -0.912905 0
M  V30 279 O 26.7456 -1.72388 -0.894201 0
M  V30 280 C 23.8756 -3.25219 -1.21859 0
M  V30 281 C 22.8296 -4.23661 -0.607864 0
M  V30 282 C 22.1556 -5.05413 -1.74533 0
M  V30 283 C 23.4556 -5.20481 0.435582 0
M  V30 284 H 25.1496 -2.94749 0.525684 0
M  V30 285 H 22.6956 -1.41738 0.254251 0
M  V30 286 H 24.6486 -3.8365 -1.7433 0
M  V30 287 H 23.3726 -2.61279 -1.95961 0
M  V30 288 H 22.0316 -3.66451 -0.104489 0
M  V30 289 H 21.6796 -4.3788 -2.47529 0
M  V30 290 H 21.3796 -5.72059 -1.34249 0
M  V30 291 H 22.9036 -5.66701 -2.27338 0
M  V30 292 H 24.3176 -5.733 -0.00290157 0
M  V30 293 H 22.7146 -5.95305 0.757067 0
M  V30 294 H 23.7846 -4.66217 1.33303 0
M  V30 295 N 25.1277 -0.289203 -1.54924 0
M  V30 296 C 26.0577 0.58549 -2.2604 0
M  V30 297 C 27.0387 1.14753 -1.25562 0
M  V30 298 O 28.2237 1.17906 -1.54311 0
M  V30 299 C 25.3537 1.76305 -2.99222 0
M  V30 300 C 24.3077 1.33191 -4.06748 0
M  V30 301 C 23.6337 2.5937 -4.6758 0
M  V30 302 C 24.9337 0.471775 -5.20165 0
M  V30 303 H 26.6277 -0.00763532 -2.99399 0
M  V30 304 H 24.1737 -0.00511229 -1.43999 0
M  V30 305 H 26.1267 2.38097 -3.47689 0
M  V30 306 H 24.8507 2.38223 -2.23422 0
M  V30 307 H 23.5097 0.737121 -3.59113 0
M  V30 308 H 23.1577 3.19576 -3.88433 0
M  V30 309 H 22.8577 2.31228 -5.40192 0
M  V30 310 H 24.3817 3.21985 -5.18804 0
M  V30 311 H 25.7957 0.995056 -5.64599 0
M  V30 312 H 24.1927 0.284639 -5.99425 0
M  V30 313 H 25.2627 -0.506041 -4.82252 0
M  V30 314 N 26.6058 1.57591 -0.0167156 0
M  V30 315 C 27.8548 1.90461 0.663877 0
M  V30 316 C 28.1678 0.893515 1.73999 0
M  V30 317 O 29.3738 1.11302 2.47637 0
M  V30 318 C 27.8298 3.38155 1.23204 0
M  V30 319 C 27.4378 4.47597 0.189866 0
M  V30 320 C 29.1818 3.80111 1.88986 0
M  V30 321 C 27.0888 5.86379 0.768964 0
M  V30 322 H 26.0188 0.710738 0.251729 0
M  V30 323 H 28.6698 1.83326 -0.0799926 0
M  V30 324 H 27.0518 3.40182 2.02712 0
M  V30 325 H 28.2258 4.57112 -0.581846 0
M  V30 326 H 26.5408 4.14766 -0.368475 0
M  V30 327 H 29.1378 4.81145 2.33247 0
M  V30 328 H 29.4808 3.14511 2.72743 0
M  V30 329 H 30.0138 3.80454 1.16187 0
M  V30 330 H 26.7528 6.55493 -0.0301957 0
M  V30 331 H 26.2728 5.80496 1.50945 0
M  V30 332 H 27.9518 6.34563 1.26251 0
M  V30 333 N 28.0839 -0.256276 1.55502 0
M  V30 334 C 29.3089 -1.00766 1.81276 0
M  V30 335 C 29.7339 -1.78524 0.59252 0
M  V30 336 O 29.0919 -1.75413 -0.45827 0
M  V30 337 C 29.1399 -1.92869 3.04687 0
M  V30 338 O 28.2439 -3.019 2.80945 0
M  V30 339 H 27.5849 -0.287224 0.598664 0
M  V30 340 H 30.1149 -0.280109 2.02674 0
M  V30 341 H 30.1249 -2.34511 3.33869 0
M  V30 342 H 28.7999 -1.35689 3.93143 0
M  V30 343 H 27.3769 -2.64454 2.62904 0
M  V30 344 N 29.562 -1.4872 -0.521534 0
M  V30 345 C 30.51 -1.64328 -1.64618 0
M  V30 346 C 31.504 -0.50953 -1.61555 0
M  V30 347 O 32.71 -0.688525 -1.66311 0
M  V30 348 H 29.085 -0.517805 -0.545328 0
M  V30 349 H 31.056 -2.58767 -1.48601 0
M  V30 350 C 29.805 -1.70805 -3.02855 0
M  V30 351 H 29.128 -2.5741 -3.05909 0
M  V30 352 H 30.568 -1.85766 -3.81139 0
M  V30 353 C 29.027 -0.448479 -3.33902 0
M  V30 354 O 29.557 0.434928 -3.99339 0
M  V30 355 N 27.763 -0.317616 -2.88859 0
M  V30 356 H 27.31 -1.03748 -2.35784 0
M  V30 357 H 27.268 0.524113 -3.10001 0
M  V30 358 N 31.0401 0.771051 -1.3745 0
M  V30 359 C 32.2871 1.52963 -1.32697 0
M  V30 360 C 32.6151 1.94299 0.0883274 0
M  V30 361 O 31.8701 1.64397 1.0617 0
M  V30 362 C 32.1691 2.80676 -2.2126 0
M  V30 363 C 31.8351 2.58389 -3.69521 0
M  V30 364 C 30.4971 2.52019 -4.09927 0
M  V30 365 C 32.8491 2.38469 -4.63446 0
M  V30 366 C 30.1771 2.23721 -5.42371 0
M  V30 367 C 32.5291 2.11694 -5.96128 0
M  V30 368 C 31.1931 2.03769 -6.35637 0
M  V30 369 H 30.4631 0.559732 -0.485573 0
M  V30 370 H 33.1101 0.888083 -1.69662 0
M  V30 371 H 31.4151 3.49392 -1.77291 0
M  V30 372 H 33.1121 3.38557 -2.14895 0
M  V30 373 H 29.7021 2.6421 -3.37478 0
M  V30 374 H 33.8861 2.4238 -4.33089 0
M  V30 375 H 29.1421 2.16081 -5.71943 0
M  V30 376 H 33.3161 1.9528 -6.6846 0
M  V30 377 H 30.9431 1.81606 -7.38189 0
M  V30 378 N 32.5182 1.22032 0.997298 0
M  V30 379 C 33.7462 1.06841 1.7718 0
M  V30 380 C 34.1612 -0.381325 1.84909 0
M  V30 381 O 33.5182 -1.26437 1.31605 0
M  V30 382 C 33.5692 1.66814 3.20711 0
M  V30 383 O 33.2902 3.06116 3.13408 0
M  V30 384 C 34.7912 1.56838 4.14628 0
M  V30 385 H 32.0112 0.374782 0.556578 0
M  V30 386 H 34.5552 1.61532 1.2541 0
M  V30 387 H 32.7102 1.16196 3.69564 0
M  V30 388 H 33.1242 3.34926 4.0364 0
M  V30 389 H 34.5982 2.03532 5.13107 0
M  V30 390 H 35.0752 0.524155 4.36061 0
M  V30 391 H 35.6812 2.06741 3.7167 0
M  V30 392 N 33.9963 -1.19345 1.0293 0
M  V30 393 C 34.9263 -2.2481 0.631105 0
M  V30 394 C 35.9073 -1.66245 -0.360104 0
M  V30 395 O 37.0923 -1.92677 -0.242726 0
M  V30 396 C 34.2223 -3.47295 -0.0184607 0
M  V30 397 C 33.1763 -4.18536 0.895073 0
M  V30 398 C 32.5023 -5.34586 0.110592 0
M  V30 399 C 33.8023 -4.73287 2.209 0
M  V30 400 H 35.4963 -2.58372 1.51275 0
M  V30 401 H 33.0423 -1.24194 0.728818 0
M  V30 402 H 34.9953 -4.20268 -0.308675 0
M  V30 403 H 33.7193 -3.12933 -0.934907 0
M  V30 404 H 32.3783 -3.47446 1.16949 0
M  V30 405 H 32.0263 -4.96469 -0.807902 0
M  V30 406 H 31.7263 -5.83183 0.719087 0
M  V30 407 H 33.2503 -6.10355 -0.172871 0
M  V30 408 H 34.6643 -5.38013 1.98028 0
M  V30 409 H 33.0613 -5.32373 2.76946 0
M  V30 410 H 34.1313 -3.91331 2.86336 0
M  V30 411 N 35.4744 -0.807222 -1.35358 0
M  V30 412 C 36.7214 -0.387888 -1.9875 0
M  V30 413 C 37.0494 1.04509 -1.64037 0
M  V30 414 O 36.3044 1.73986 -0.895946 0
M  V30 415 C 36.6034 -0.519036 -3.53611 0
M  V30 416 C 36.2694 -1.91542 -4.08194 0
M  V30 417 C 34.9314 -2.29745 -4.22813 0
M  V30 418 C 37.2834 -2.82896 -4.37744 0
M  V30 419 C 34.6114 -3.58668 -4.643 0
M  V30 420 C 36.9634 -4.11265 -4.8067 0
M  V30 421 C 35.6274 -4.49466 -4.93494 0
M  V30 422 H 34.8974 -0.141938 -0.727279 0
M  V30 423 H 37.5444 -1.02814 -1.6156 0
M  V30 424 H 35.8494 0.204658 -3.91265 0
M  V30 425 H 37.5464 -0.175345 -4.00616 0
M  V30 426 H 34.1364 -1.60862 -3.97268 0
M  V30 427 H 38.3204 -2.54629 -4.26002 0
M  V30 428 H 33.5764 -3.88113 -4.72418 0
M  V30 429 H 37.7504 -4.82153 -5.02496 0
M  V30 430 H 35.3774 -5.49418 -5.25399 0
M  V30 431 N 36.9525 1.47285 -0.560781 0
M  V30 432 C 38.1775 2.07359 -0.0410566 0
M  V30 433 C 38.6025 1.41017 1.24483 0
M  V30 434 O 37.9605 0.486368 1.74654 0
M  V30 435 C 38.0085 3.6035 0.134123 0
M  V30 436 O 37.1125 3.94681 1.19587 0
M  V30 437 H 36.4535 0.661887 -0.0529291 0
M  V30 438 H 38.9835 1.89252 -0.777482 0
M  V30 439 H 38.9935 4.0652 0.347207 0
M  V30 440 H 37.6685 4.08034 -0.805047 0
M  V30 441 H 36.2455 3.60251 0.962987 0
M  V30 442 N 38.4306 0.297415 1.54768 0
M  V30 443 C 39.6556 -0.318435 2.04941 0
M  V30 444 C 40.0806 -1.4701 1.17345 0
M  V30 445 O 39.4386 -1.80436 0.176758 0
M  V30 446 C 39.4866 -0.755749 3.52592 0
M  V30 447 O 38.5906 -1.86088 3.68028 0
M  V30 448 H 37.9316 -0.062421 0.661059 0
M  V30 449 H 40.4616 0.438215 1.99852 0
M  V30 450 H 40.4716 -1.04552 3.94376 0
M  V30 451 H 39.1466 0.0867233 4.1581 0
M  V30 452 H 37.7236 -1.57193 3.38149 0
M  V30 453 N 39.9087 -1.5758 0.0250728 0
M  V30 454 C 41.1567 -1.91255 -0.653151 0
M  V30 455 C 41.4777 -0.901691 -1.729 0
M  V30 456 O 40.7477 0.0573785 -1.95816 0
M  V30 457 H 39.3277 -0.705942 -0.244243 0
M  V30 458 H 41.9897 -1.94767 0.0719209 0
M  V30 459 H 41.0857 -2.91752 -1.10847 0
M  V30 460 N 41.3868 0.248026 -1.55636 0
M  V30 461 C 42.3498 1.29044 -1.89421 0
M  V30 462 C 43.3498 1.41134 -0.770581 0
M  V30 463 O 44.5398 1.39854 -1.03858 0
M  V30 464 C 41.6718 2.66831 -2.12165 0
M  V30 465 H 42.8648 1.00305 -2.82629 0
M  V30 466 H 40.4178 0.487265 -1.48511 0
M  V30 467 H 41.1528 3.00711 -1.21422 0
M  V30 468 H 40.9378 2.59438 -2.93997 0
M  V30 469 H 42.4278 3.42103 -2.3949 0
M  V30 470 N 42.8649 1.48995 0.513639 0
M  V30 471 C 43.8279 1.64229 1.59879 0
M  V30 472 C 44.8279 0.514696 1.5234 0
M  V30 473 O 46.0179 0.78087 1.55718 0
M  V30 474 C 43.1499 1.62783 2.99524 0
M  V30 475 H 44.3429 2.61004 1.47705 0
M  V30 476 H 41.8959 1.37837 0.736936 0
M  V30 477 H 42.6309 0.675461 3.17188 0
M  V30 478 H 42.4159 2.4466 3.06404 0
M  V30 479 H 43.9059 1.76669 3.78388 0
M  V30 480 N 44.343 -0.763751 1.37857 0
M  V30 481 C 45.591 -1.51957 1.33243 0
M  V30 482 C 45.912 -1.94835 -0.0801709 0
M  V30 483 O 45.182 -1.66894 -1.02582 0
M  V30 484 H 43.762 -0.563626 0.49024 0
M  V30 485 H 46.424 -0.908504 1.7243 0
M  V30 486 H 45.52 -2.41523 1.97669 0
M  V30 487 N 45.8211 -1.22559 -0.990812 0
M  V30 488 C 46.7311 -1.01394 -2.11557 0
M  V30 489 C 47.7471 0.0383962 -1.73958 0
M  V30 490 O 48.9231 -0.154787 -2.00804 0
M  V30 491 C 45.9881 -0.596569 -3.41529 0
M  V30 492 C 45.0491 -1.72276 -3.93217 0
M  V30 493 C 44.2821 -1.32521 -5.16985 0
M  V30 494 O 44.5051 -0.204909 -5.70032 0
M  V30 495 O 43.4391 -2.14247 -5.62478 0
M  V30 496 H 47.2651 -1.95633 -2.32296 0
M  V30 497 H 44.8501 -1.01172 -1.0993 0
M  V30 498 H 46.7321 -0.374263 -4.19735 0
M  V30 499 H 45.4071 0.316939 -3.22145 0
M  V30 500 H 44.3141 -1.99961 -3.16174 0
M  V30 501 H 45.6471 -2.61421 -4.17037 0
M  V30 502 N 47.2992 1.18797 -1.03562 0
M  V30 503 C 48.5762 1.84469 -0.650434 0
M  V30 504 C 48.9562 1.92319 0.870433 0
M  V30 505 O 48.3042 1.44528 1.76986 0
M  V30 506 C 48.5142 3.2306 -1.32036 0
M  V30 507 C 49.8622 3.9915 -1.44792 0
M  V30 508 O 50.8862 3.32481 -1.27806 0
M  V30 509 O 49.7452 5.18587 -1.72423 0
M  V30 510 H 46.8392 0.795251 -0.226946 0
M  V30 511 H 49.3852 1.26231 -1.13419 0
M  V30 512 H 48.1572 3.1222 -2.3587 0
M  V30 513 H 47.7802 3.88949 -0.8249 0
M  V30 514 N 48.7773 0.814389 1.34928 0
M  V30 515 C 49.7243 0.22822 2.29669 0
M  V30 516 C 50.6943 -0.642164 1.53184 0
M  V30 517 O 51.8793 -0.585605 1.81591 0
M  V30 518 C 49.0193 -0.61089 3.3965 0
M  V30 519 C 48.1323 0.280792 4.31086 0
M  V30 520 C 47.2673 -0.567067 5.28165 0
M  V30 521 C 46.3063 0.324531 6.11239 0
M  V30 522 N 45.4433 -0.483756 7.00431 0
M  V30 523 H 50.2833 1.04153 2.79206 0
M  V30 524 H 47.8203 0.525133 1.37407 0
M  V30 525 H 49.7783 -1.11263 4.0209 0
M  V30 526 H 48.4083 -1.38939 2.91369 0
M  V30 527 H 47.4603 0.900688 3.69583 0
M  V30 528 H 48.7723 0.966723 4.89342 0
M  V30 529 H 47.9263 -1.13363 5.96015 0
M  V30 530 H 46.6653 -1.28654 4.70425 0
M  V30 531 H 45.6703 0.903298 5.42329 0
M  V30 532 H 46.8953 1.04198 6.71059 0
M  V30 533 H 44.8413 -1.18706 6.45171 0
M  V30 534 H 44.7583 0.143965 7.55863 0
M  V30 535 H 46.0263 -1.03334 7.7262 0
M  V30 536 N 50.2554 -1.46986 0.568584 0
M  V30 537 C 51.5034 -2.02041 0.0487022 0
M  V30 538 C 51.8244 -1.44408 -1.31039 0
M  V30 539 O 51.0944 -0.623477 -1.85714 0
M  V30 540 H 49.6744 -0.746849 0.015014 0
M  V30 541 H 52.3364 -1.80257 0.741168 0
M  V30 542 H 51.4324 -3.12085 -0.0308961 0
M  V30 543 N 51.7335 -0.305618 -1.54608 0
M  V30 544 C 53.1495 0.0476228 -1.59529 0
M  V30 545 C 53.3495 1.52025 -1.32252 0
M  V30 546 O 52.4055 2.27368 -1.09818 0
M  V30 547 C 53.7185 -0.354471 -2.98603 0
M  V30 548 C 55.2665 -0.303622 -3.11524 0
M  V30 549 C 55.7415 -0.680608 -4.52915 0
M  V30 550 N 57.2325 -0.63332 -4.5885 0
M  V30 551 C 57.9675 -0.897432 -5.66334 0
M  V30 552 N 57.4635 -1.22775 -6.81834 0
M  V30 553 N 59.2565 -0.824186 -5.56025 0
M  V30 554 H 51.4075 -1.2653 -1.70599 0
M  V30 555 H 53.6705 -0.513291 -0.797017 0
M  V30 556 H 53.3765 -1.3798 -3.23503 0
M  V30 557 H 53.2505 0.289568 -3.76087 0
M  V30 558 H 55.6375 0.712472 -2.8637 0
M  V30 559 H 55.7185 -0.982348 -2.36185 0
M  V30 560 H 55.3625 -1.69453 -4.78799 0
M  V30 561 H 55.2925 0.0202385 -5.26596 0
M  V30 562 H 57.7835 -0.389138 -3.75891 0
M  V30 563 H 58.0965 -1.41513 -7.59733 0
M  V30 564 H 56.4415 -1.26583 -6.83375 0
M  V30 565 H 59.6325 -0.565748 -4.64669 0
M  V30 566 H 59.8055 -1.03338 -6.39707 0
M  V30 567 N 53.2116 1.57565 -0.0334293 0
M  V30 568 C 54.1596 2.1164 0.96496 0
M  V30 569 C 55.1536 1.04398 1.33407 0
M  V30 570 O 56.3596 1.22828 1.3158 0
M  V30 571 H 52.7346 0.676222 0.32898 0
M  V30 572 H 54.7056 2.94455 0.483614 0
M  V30 573 C 53.4546 2.66207 2.23672 0
M  V30 574 H 52.7776 3.48378 1.96145 0
M  V30 575 H 54.2176 3.07685 2.9173 0
M  V30 576 C 52.6766 1.59151 2.96939 0
M  V30 577 O 53.2066 0.993858 3.89211 0
M  V30 578 N 51.4126 1.31093 2.59351 0
M  V30 579 H 50.9596 1.7988 1.84393 0
M  V30 580 H 50.9176 0.596889 3.08682 0
M  V30 581 N 54.6897 -0.239769 1.55765 0
M  V30 582 C 55.9147 -0.988373 1.82335 0
M  V30 583 C 56.3397 -1.77886 0.611421 0
M  V30 584 O 55.6977 -1.75889 -0.439639 0
M  V30 585 C 55.7457 -1.89627 3.06715 0
M  V30 586 O 54.8497 -2.98904 2.84131 0
M  V30 587 H 54.1907 -0.280858 0.601677 0
M  V30 588 H 56.7207 -0.258597 2.02959 0
M  V30 589 H 56.7307 -2.30957 3.36338 0
M  V30 590 H 55.4057 -1.31511 3.9456 0
M  V30 591 H 53.9827 -2.61651 2.65694 0
M  V30 592 N 56.1678 -1.49265 -0.50573 0
M  V30 593 C 57.4148 -1.58513 -1.26015 0
M  V30 594 C 57.7428 -0.26972 -1.92621 0
M  V30 595 O 56.9978 0.741997 -1.81088 0
M  V30 596 C 57.2968 -2.69008 -2.35308 0
M  V30 597 C 56.9628 -4.10662 -1.86192 0
M  V30 598 C 55.6248 -4.49212 -1.72516 0
M  V30 599 C 57.9768 -4.99336 -1.49375 0
M  V30 600 C 55.3048 -5.74214 -1.20394 0
M  V30 601 C 57.6568 -6.24852 -0.987072 0
M  V30 602 C 56.3208 -6.62236 -0.836669 0
M  V30 603 H 55.5908 -0.580041 -0.461122 0
M  V30 604 H 58.2378 -1.83078 -0.561665 0
M  V30 605 H 56.5428 -2.38396 -3.10926 0
M  V30 606 H 58.2398 -2.73373 -2.93374 0
M  V30 607 H 54.8298 -3.8023 -1.97795 0
M  V30 608 H 59.0138 -4.70212 -1.5879 0
M  V30 609 H 54.2698 -6.01883 -1.07458 0
M  V30 610 H 58.4438 -6.92944 -0.692983 0
M  V30 611 H 56.0708 -7.58979 -0.430607 0
M  V30 612 N 57.6459 0.756429 -1.3826 0
M  V30 613 C 58.8759 1.54341 -1.3734 0
M  V30 614 C 59.2839 1.89159 0.0393917 0
M  V30 615 O 58.6269 1.5307 1.01565 0
M  V30 616 C 58.6889 2.87238 -2.16182 0
M  V30 617 C 58.3529 2.74973 -3.65019 0
M  V30 618 C 59.3499 2.44962 -4.58574 0
M  V30 619 C 57.0349 2.92515 -4.08338 0
M  V30 620 C 59.0289 2.32642 -5.93428 0
M  V30 621 C 56.7159 2.79815 -5.43274 0
M  V30 622 C 57.7139 2.49921 -6.35632 0
M  V30 623 O 57.4019 2.37275 -7.68086 0
M  V30 624 H 57.1339 0.484281 -0.471643 0
M  V30 625 H 59.6879 0.944152 -1.82414 0
M  V30 626 H 57.9179 3.49342 -1.65822 0
M  V30 627 H 59.6069 3.48731 -2.07705 0
M  V30 628 H 60.3729 2.31081 -4.26412 0
M  V30 629 H 56.2519 3.14781 -3.368 0
M  V30 630 H 59.7959 2.0923 -6.65484 0
M  V30 631 H 55.6929 2.93269 -5.75034 0
M  V30 632 H 56.4609 2.52509 -7.78577 0
M  V30 633 N 59.124 1.23083 0.984299 0
M  V30 634 C 60.034 1.02515 2.11016 0
M  V30 635 C 61.05 -0.0291702 1.73976 0
M  V30 636 O 62.226 0.165434 2.00719 0
M  V30 637 C 59.291 0.614673 3.41208 0
M  V30 638 C 58.352 1.74359 3.92297 0
M  V30 639 C 57.585 1.35261 5.16275 0
M  V30 640 O 57.808 0.235136 5.69915 0
M  V30 641 O 56.742 2.17227 5.61334 0
M  V30 642 H 60.568 1.96862 2.31255 0
M  V30 643 H 58.153 1.01753 1.09392 0
M  V30 644 H 60.035 0.396518 4.1953 0
M  V30 645 H 58.71 -0.299851 3.22308 0
M  V30 646 H 57.617 2.01635 3.1511 0
M  V30 647 H 58.95 2.63629 4.15645 0
M  V30 648 N 60.6021 -1.18246 1.0419 0
M  V30 649 C 61.8301 -1.92195 0.766072 0
M  V30 650 C 62.2451 -1.76247 -0.676933 0
M  V30 651 O 61.6021 -1.09293 -1.46155 0
M  V30 652 C 61.6531 -3.43568 1.12442 0
M  V30 653 O 61.3741 -3.59015 2.51078 0
M  V30 654 C 62.8751 -4.34613 0.873275 0
M  V30 655 H 60.0951 -0.610114 0.279288 0
M  V30 656 H 62.6391 -1.50007 1.38989 0
M  V30 657 H 60.7941 -3.8354 0.545542 0
M  V30 658 H 61.2081 -4.5273 2.64831 0
M  V30 659 H 62.6821 -5.39374 1.17385 0
M  V30 660 H 63.1591 -4.38781 -0.191909 0
M  V30 661 H 63.7651 -4.00341 1.43551 0
M  V30 662 N 62.0802 -0.821533 -1.34494 0
M  V30 663 C 63.3052 -0.420873 -2.03085 0
M  V30 664 C 63.7302 0.964915 -1.61465 0
M  V30 665 O 63.0882 1.62763 -0.798607 0
M  V30 666 C 63.1362 -0.529414 -3.56693 0
M  V30 667 O 62.2402 0.451302 -4.09923 0
M  V30 668 H 61.5812 -0.173489 -0.640935 0
M  V30 669 H 64.1112 -1.11157 -1.71771 0
M  V30 670 H 64.1212 -0.404671 -4.05988 0
M  V30 671 H 62.7962 -1.54014 -3.86332 0
M  V30 672 H 61.3732 0.285558 -3.71805 0
M  V30 673 N 63.5583 1.46682 -0.576371 0
M  V30 674 C 64.7833 2.07304 -0.0630475 0
M  V30 675 C 65.2083 1.42329 1.2298 0
M  V30 676 O 64.5663 0.504865 1.74129 0
M  V30 677 C 64.6143 3.60472 0.095895 0
M  V30 678 O 63.7183 3.95927 1.15394 0
M  V30 679 H 63.0593 0.661288 -0.0599463 0
M  V30 680 H 65.5893 1.88417 -0.797511 0
M  V30 681 H 65.5993 4.06865 0.304071 0
M  V30 682 H 64.2743 4.07157 -0.84828 0
M  V30 683 H 62.8513 3.61252 0.924724 0
M  V30 684 N 65.0364 0.313813 1.54444 0
M  V30 685 C 66.2834 -0.291675 2.00388 0
M  V30 686 C 66.6114 -1.52904 1.2021 0
M  V30 687 O 65.8664 -1.93833 0.269707 0
M  V30 688 C 66.1654 -0.680386 3.50864 0
M  V30 689 C 65.8314 0.456699 4.48581 0
M  V30 690 C 64.4934 0.768824 4.75018 0
M  V30 691 C 66.8454 1.22098 5.06697 0
M  V30 692 C 64.1734 1.84812 5.56831 0
M  V30 693 C 66.5254 2.29029 5.89685 0
M  V30 694 C 65.1894 2.60834 6.14428 0
M  V30 695 H 64.4594 -0.106732 0.733273 0
M  V30 696 H 67.1064 0.43557 1.86481 0
M  V30 697 H 65.4114 -1.48791 3.62448 0
M  V30 698 H 67.1084 -1.16026 3.83847 0
M  V30 699 H 63.6984 0.203337 4.28117 0
M  V30 700 H 67.8824 0.993096 4.86263 0
M  V30 701 H 63.1384 2.09912 5.74236 0
M  V30 702 H 67.3124 2.887 6.33739 0
M  V30 703 H 64.9394 3.44596 6.77612 0
M  V30 704 N 66.5145 -1.57545 0.0417849 0
M  V30 705 C 67.4645 -2.07483 -0.945247 0
M  V30 706 C 68.4485 -0.977983 -1.27767 0
M  V30 707 O 69.6405 -1.24142 -1.26166 0
M  V30 708 C 66.7695 -2.61576 -2.22335 0
M  V30 709 C 65.8555 -3.78213 -1.91874 0
M  V30 710 N 66.2465 -4.88344 -1.31733 0
M  V30 711 C 64.5445 -3.8694 -2.21796 0
M  V30 712 C 65.2455 -5.69462 -1.1869 0
M  V30 713 N 64.2215 -5.16771 -1.68666 0
M  V30 714 H 68.0235 -2.90029 -0.475441 0
M  V30 715 H 65.5375 -1.61581 -0.162911 0
M  V30 716 H 67.5345 -2.95651 -2.93932 0
M  V30 717 H 66.1945 -1.80465 -2.69931 0
M  V30 718 H 67.2055 -5.08335 -0.990729 0
M  V30 719 H 63.8825 -3.16757 -2.71977 0
M  V30 720 H 65.2725 -6.68023 -0.720793 0
M  V30 721 N 67.9926 0.231505 -1.5589 0
M  V30 722 C 69.4086 0.580748 -1.48659 0
M  V30 723 C 69.6086 1.87617 -0.73498 0
M  V30 724 O 68.6646 2.51046 -0.270586 0
M  V30 725 C 69.9776 0.669202 -2.93159 0
M  V30 726 C 71.5256 0.760499 -3.03621 0
M  V30 727 C 72.0006 0.880383 -4.49459 0
M  V30 728 N 73.4916 0.944861 -4.53461 0
M  V30 729 C 74.2266 1.05716 -5.63571 0
M  V30 730 N 73.7226 1.13403 -6.83456 0
M  V30 731 N 75.5156 1.09152 -5.514 0
M  V30 732 H 67.6666 -0.618695 -2.03189 0
M  V30 733 H 69.9296 -0.215728 -0.923128 0
M  V30 734 H 69.6356 -0.212904 -3.51055 0
M  V30 735 H 69.5096 1.5361 -3.44505 0
M  V30 736 H 71.8966 1.63305 -2.45796 0
M  V30 737 H 71.9776 -0.131864 -2.5546 0
M  V30 738 H 71.6216 0.0123284 -5.07899 0
M  V30 739 H 71.5516 1.78802 -4.95316 0
M  V30 740 H 74.0426 0.896176 -3.6712 0
M  V30 741 H 74.3556 1.21921 -7.63122 0
M  V30 742 H 72.7006 1.10333 -6.86186 0
M  V30 743 H 75.8916 1.02805 -4.56671 0
M  V30 744 H 76.0646 1.17558 -6.37247 0
M  V30 745 N 69.4707 1.49531 0.497807 0
M  V30 746 C 70.7187 1.58865 1.24926 0
M  V30 747 C 71.0397 0.278721 1.92998 0
M  V30 748 O 70.3097 -0.702144 1.82885 0
M  V30 749 H 68.8897 0.585343 0.464094 0
M  V30 750 H 71.5517 1.86174 0.57666 0
M  V30 751 H 70.6477 2.38633 2.01149 0
M  V30 752 N 70.9488 -0.749086 1.3866 0
M  V30 753 C 72.2258 -1.4992 1.25632 0
M  V30 754 C 72.6058 -2.10633 -0.140317 0
M  V30 755 O 71.9538 -1.97437 -1.15025 0
M  V30 756 C 72.1638 -2.56195 2.36992 0
M  V30 757 C 73.5118 -3.22972 2.75634 0
M  V30 758 O 74.5358 -2.66502 2.36337 0
M  V30 759 O 73.3948 -4.25122 3.43415 0
M  V30 760 H 70.4888 -0.665067 0.491544 0
M  V30 761 H 73.0348 -0.784113 1.50498 0
M  V30 762 H 71.8068 -2.09612 3.30422 0
M  V30 763 H 71.4298 -3.35279 2.13714 0
M  V30 764 N 72.4269 -1.23603 -0.977757 0
M  V30 765 C 73.6729 -1.07129 -1.72195 0
M  V30 766 C 74.0059 0.390501 -1.90233 0
M  V30 767 O 73.2809 1.28902 -1.45653 0
M  V30 768 C 73.5639 -1.80031 -3.11867 0
M  V30 769 C 73.4169 -3.33899 -3.01383 0
M  V30 770 C 74.7359 -1.56492 -4.11337 0
M  V30 771 H 71.8549 -0.390571 -0.624999 0
M  V30 772 H 74.4969 -1.52142 -1.13811 0
M  V30 773 H 72.6469 -1.41768 -3.6171 0
M  V30 774 H 74.3189 -3.81699 -2.59043 0
M  V30 775 H 72.5619 -3.62796 -2.37827 0
M  V30 776 H 73.2329 -3.801 -4.00285 0
M  V30 777 H 75.7089 -1.89757 -3.70313 0
M  V30 778 H 74.5849 -2.09973 -5.07151 0
M  V30 779 H 74.8459 -0.500874 -4.39254 0
M  V30 780 N 73.905 1.17692 -1.04816 0
M  V30 781 C 74.835 2.23777 -0.666791 0
M  V30 782 C 75.816 1.66796 0.33361 0
M  V30 783 O 77.001 1.93039 0.212042 0
M  V30 784 C 74.131 3.47281 -0.0367933 0
M  V30 785 C 73.085 4.17059 -0.961546 0
M  V30 786 C 72.411 5.34342 -0.195626 0
M  V30 787 C 73.711 4.69713 -2.28402 0
M  V30 788 H 75.405 2.55933 -1.55367 0
M  V30 789 H 72.951 1.23019 -0.748484 0
M  V30 790 H 74.904 4.20706 0.241775 0
M  V30 791 H 73.628 3.14381 0.885004 0
M  V30 792 H 72.287 3.45541 -1.22462 0
M  V30 793 H 71.935 4.97692 0.728816 0
M  V30 794 H 71.635 5.81966 -0.811775 0
M  V30 795 H 73.159 6.10553 0.0757473 0
M  V30 796 H 74.573 5.34794 -2.06563 0
M  V30 797 H 72.97 5.279 -2.8538 0
M  V30 798 H 74.04 3.86726 -2.92525 0
M  V30 799 N 75.3831 0.828654 1.34056 0
M  V30 800 C 76.2931 0.256725 2.33191 0
M  V30 801 C 77.3091 -0.611898 1.62886 0
M  V30 802 O 78.4851 -0.51844 1.94613 0
M  V30 803 C 75.5501 -0.567238 3.42028 0
M  V30 804 C 74.6111 0.324458 4.28072 0
M  V30 805 C 73.8441 -0.460274 5.31712 0
M  V30 806 O 74.0671 -1.693 5.44696 0
M  V30 807 O 73.0011 0.160391 6.01686 0
M  V30 808 H 76.8271 1.07739 2.83947 0
M  V30 809 H 74.4121 0.59093 1.37217 0
M  V30 810 H 76.2941 -1.03582 4.08471 0
M  V30 811 H 74.9691 -1.36513 2.93506 0
M  V30 812 H 73.8761 0.840659 3.64532 0
M  V30 813 H 75.2091 1.08685 4.8005 0
M  V30 814 N 76.8612 -1.46375 0.584142 0
M  V30 815 C 78.1072 -2.02678 0.0703716 0
M  V30 816 C 78.4402 -1.4545 -1.28678 0
M  V30 817 O 77.7152 -0.62014 -1.84349 0
M  V30 818 C 77.9982 -3.60099 0.00614674 0
M  V30 819 C 77.8512 -4.27709 1.3923 0
M  V30 820 C 79.1702 -4.34598 -0.693742 0
M  V30 821 H 76.2892 -0.736504 0.027047 0
M  V30 822 H 78.9312 -1.74501 0.751615 0
M  V30 823 H 77.0812 -3.84236 -0.574009 0
M  V30 824 H 78.7532 -4.14832 2.01773 0
M  V30 825 H 76.9962 -3.87016 1.95962 0
M  V30 826 H 77.6672 -5.36478 1.29982 0
M  V30 827 H 80.1432 -4.15615 -0.200869 0
M  V30 828 H 79.0192 -5.44318 -0.707714 0
M  V30 829 H 79.2802 -4.05759 -1.75533 0
M  V30 830 N 78.3393 -0.321999 -1.54275 0
M  V30 831 C 79.7503 0.166384 -1.85957 0
M  V30 832 C 80.1013 1.51747 -1.24367 0
M  V30 833 O 79.2263 2.09317 -0.549124 0
M  V30 834 C 79.8213 0.308681 -3.37391 0
M  V30 835 C 78.3803 0.741286 -3.69028 0
M  V30 836 C 77.5273 -0.137937 -2.76957 0
M  V30 837 H 80.4783 -0.542335 -1.49146 0
M  V30 838 H 80.4993 1.13984 -3.63026 0
M  V30 839 H 80.0113 -0.674809 -3.82188 0
M  V30 840 H 78.1123 1.73458 -3.29762 0
M  V30 841 H 78.2253 0.546118 -4.75977 0
M  V30 842 H 76.5893 0.386251 -2.51754 0
M  V30 843 H 77.3723 -1.11816 -3.2458 0
M  V30 844 N 79.8174 1.5752 -0.0501392 0
M  V30 845 C 81.2334 1.56631 0.306402 0
M  V30 846 C 81.4334 1.0577 1.71508 0
M  V30 847 O 80.4894 0.713837 2.422 0
M  V30 848 C 81.8024 3.00393 0.135811 0
M  V30 849 C 83.3504 3.12315 0.206993 0
M  V30 850 C 83.8254 4.57954 0.064944 0
M  V30 851 N 85.3164 4.63041 0.121254 0
M  V30 852 C 86.0514 5.73389 0.0354381 0
M  V30 853 N 85.5474 6.92724 -0.102666 0
M  V30 854 N 87.3404 5.62026 0.090946 0
M  V30 855 H 79.4914 1.88903 -0.971046 0
M  V30 856 H 81.7544 0.869876 -0.376855 0
M  V30 857 H 81.4604 3.41635 -0.835384 0
M  V30 858 H 81.3344 3.66373 0.897275 0
M  V30 859 H 83.7214 2.70973 1.16866 0
M  V30 860 H 83.8024 2.49016 -0.585208 0
M  V30 861 H 83.4464 4.99981 -0.893394 0
M  V30 862 H 83.3764 5.19258 0.876277 0
M  V30 863 H 85.8674 3.77216 0.227284 0
M  V30 864 H 86.1804 7.72633 -0.160882 0
M  V30 865 H 84.5254 6.94864 -0.137737 0
M  V30 866 H 87.7164 4.67684 0.197388 0
M  V30 867 H 87.8894 6.47997 0.0206089 0
M  V30 868 N 81.2955 -0.223234 1.56011 0
M  V30 869 C 82.5235 -0.964812 1.83027 0
M  V30 870 C 82.9385 -1.78013 0.62904 0
M  V30 871 O 82.2955 -1.78008 -0.402414 0
M  V30 872 C 82.3465 -1.88373 3.08542 0
M  V30 873 O 82.0675 -1.10137 4.2403 0
M  V30 874 C 83.5685 -2.73934 3.48533 0
M  V30 875 H 80.7885 -0.282842 0.608475 0
M  V30 876 H 83.3325 -0.238971 2.03099 0
M  V30 877 H 81.4875 -2.56354 2.9045 0
M  V30 878 H 81.9015 -1.72501 4.95322 0
M  V30 879 H 83.3755 -3.34117 4.39397 0
M  V30 880 H 83.8525 -3.46244 2.70207 0
M  V30 881 H 84.4585 -2.11369 3.69057 0
M  V30 882 N 82.7736 -1.49793 -0.48987 0
M  V30 883 C 83.7236 -1.63673 -1.5873 0
M  V30 884 C 84.7076 -0.491956 -1.53195 0
M  V30 885 O 85.8996 -0.745461 -1.60536 0
M  V30 886 C 83.0286 -1.71689 -2.97284 0
M  V30 887 C 82.1146 -2.91781 -3.07774 0
M  V30 888 N 82.5056 -4.15714 -2.88124 0
M  V30 889 C 80.8036 -2.89949 -3.38889 0
M  V30 890 C 81.5046 -4.965 -3.03088 0
M  V30 891 N 80.4806 -4.30083 -3.3246 0
M  V30 892 H 84.2826 -2.57204 -1.42208 0
M  V30 893 H 81.7966 -1.46719 -0.69623 0
M  V30 894 H 83.7936 -1.79732 -3.76168 0
M  V30 895 H 82.4536 -0.793024 -3.14867 0
M  V30 896 H 83.4646 -4.45515 -2.64077 0
M  V30 897 H 80.1416 -2.06987 -3.62578 0
M  V30 898 H 81.5316 -6.04991 -2.92294 0
M  V30 899 N 84.2517 0.741722 -1.39055 0
M  V30 900 C 85.1817 1.869 -1.39966 0
M  V30 901 C 86.1627 1.6804 -0.26392 0
M  V30 902 O 87.3477 1.88458 -0.468755 0
M  V30 903 C 84.4777 3.24572 -1.23574 0
M  V30 904 C 83.4317 3.58056 -2.34477 0
M  V30 905 C 82.7577 4.94593 -2.0318 0
M  V30 906 C 84.0577 3.61716 -3.76774 0
M  V30 907 H 85.7517 1.86395 -2.34302 0
M  V30 908 H 83.2977 0.895361 -1.1278 0
M  V30 909 H 85.2507 4.031 -1.22834 0
M  V30 910 H 83.9747 3.25587 -0.257045 0
M  V30 911 H 82.6337 2.81854 -2.34423 0
M  V30 912 H 82.2817 4.92181 -1.03765 0
M  V30 913 H 81.9817 5.17964 -2.77465 0
M  V30 914 H 83.5057 5.75486 -2.04079 0
M  V30 915 H 84.9197 4.30335 -3.78794 0
M  V30 916 H 83.3167 3.96603 -4.50362 0
M  V30 917 H 84.3867 2.61672 -4.08235 0
M  V30 918 N 85.7298 1.2412 0.971189 0
M  V30 919 C 86.9578 1.10575 1.74874 0
M  V30 920 C 87.3728 -0.342017 1.85676 0
M  V30 921 O 86.7298 -1.23617 1.34258 0
M  V30 922 C 86.7808 1.73579 3.171 0
M  V30 923 O 86.5018 3.12695 3.06844 0
M  V30 924 C 88.0028 1.65598 4.11208 0
M  V30 925 H 85.2228 0.386504 0.548503 0
M  V30 926 H 87.7668 1.64156 1.21955 0
M  V30 927 H 85.9218 1.24009 3.67016 0
M  V30 928 H 86.3358 3.43412 3.96445 0
M  V30 929 H 87.8098 2.1437 5.08674 0
M  V30 930 H 88.2868 0.616532 4.34851 0
M  V30 931 H 88.8928 2.14578 3.67201 0
M  V30 932 N 87.2079 -1.17134 1.05439 0
M  V30 933 C 88.1579 -2.1919 0.627675 0
M  V30 934 C 89.1419 -1.57328 -0.337147 0
M  V30 935 O 90.3339 -1.76329 -0.153976 0
M  V30 936 C 87.4629 -3.43299 0.00651435 0
M  V30 937 C 86.5489 -4.12255 0.995312 0
M  V30 938 N 86.9399 -4.56997 2.16765 0
M  V30 939 C 85.2379 -4.38316 0.824336 0
M  V30 940 C 85.9389 -5.10239 2.7934 0
M  V30 941 N 84.9149 -5.02595 2.07122 0
M  V30 942 H 88.7169 -2.5149 1.52086 0
M  V30 943 H 86.2309 -1.33491 0.924868 0
M  V30 944 H 88.2279 -4.15693 -0.316965 0
M  V30 945 H 86.8879 -3.1249 -0.882033 0
M  V30 946 H 87.8989 -4.51006 2.54587 0
M  V30 947 H 84.5759 -4.17498 -0.0129526 0
M  V30 948 H 85.9659 -5.54961 3.78772 0
M  V30 949 N 88.686 -0.835752 -1.33615 0
M  V30 950 C 89.916 -0.442701 -2.01801 0
M  V30 951 C 90.324 0.959807 -1.63047 0
M  V30 952 O 89.667 1.63468 -0.838088 0
M  V30 953 C 89.729 -0.480125 -3.56279 0
M  V30 954 C 89.393 -1.8382 -4.18401 0
M  V30 955 C 90.39 -2.80097 -4.37998 0
M  V30 956 C 88.075 -2.13019 -4.54894 0
M  V30 957 C 90.069 -4.03736 -4.9323 0
M  V30 958 C 87.756 -3.36916 -5.09834 0
M  V30 959 C 88.754 -4.32091 -5.28948 0
M  V30 960 O 88.442 -5.53797 -5.82721 0
M  V30 961 H 88.174 -0.17441 -0.653114 0
M  V30 962 H 90.728 -1.129 -1.71589 0
M  V30 963 H 88.958 0.262931 -3.85805 0
M  V30 964 H 90.647 -0.105335 -4.05763 0
M  V30 965 H 91.413 -2.58838 -4.10156 0
M  V30 966 H 87.292 -1.39733 -4.39313 0
M  V30 967 H 90.836 -4.78034 -5.08064 0
M  V30 968 H 86.733 -3.58033 -5.37106 0
M  V30 969 H 87.501 -5.55494 -6.0114 0
M  V30 970 N 90.1641 1.46063 -0.591896 0
M  V30 971 C 91.4121 2.01938 -0.0808391 0
M  V30 972 C 91.7331 1.46475 1.28725 0
M  V30 973 O 91.0031 0.652944 1.84698 0
M  V30 974 H 89.5831 0.746516 -0.0268938 0
M  V30 975 H 92.2451 1.79055 -0.769752 0
M  V30 976 H 91.3411 3.12094 -0.0187578 0
M  V30 977 N 91.6422 0.330177 1.54103 0
M  V30 978 C 92.8912 -0.271336 1.99867 0
M  V30 979 C 93.2042 -1.52723 1.22209 0
M  V30 980 O 94.4102 -2.20515 1.58383 0
M  V30 981 C 92.8662 -0.534032 3.55916 0
M  V30 982 C 92.4742 0.705193 4.42415 0
M  V30 983 C 94.2182 -1.09514 4.1013 0
M  V30 984 C 92.1252 0.414035 5.89949 0
M  V30 985 H 91.0552 -0.105166 0.74663 0
M  V30 986 H 93.7062 0.443429 1.78062 0
M  V30 987 H 92.0882 -1.30915 3.73734 0
M  V30 988 H 93.2622 1.4804 4.36372 0
M  V30 989 H 91.5772 1.18698 3.99124 0
M  V30 990 H 94.1742 -1.3277 5.17954 0
M  V30 991 H 94.5172 -2.04656 3.62521 0
M  V30 992 H 95.0502 -0.381038 3.95971 0
M  V30 993 H 91.7892 1.33481 6.41766 0
M  V30 994 H 91.3092 -0.323336 5.98928 0
M  V30 995 H 92.9882 0.0263105 6.46995 0
M  V30 996 N 93.1203 -1.57491 0.0584922 0
M  V30 997 C 94.3503 -1.9701 -0.622134 0
M  V30 998 C 94.7583 -0.935034 -1.6448 0
M  V30 999 O 94.1013 0.0882904 -1.83488 0
M  V30 1000 C 94.1633 -3.32794 -1.35972 0
M  V30 1001 C 93.8273 -4.54343 -0.492043 0
M  V30 1002 C 94.8243 -5.19323 0.244901 0
M  V30 1003 C 92.5093 -5.00534 -0.420821 0
M  V30 1004 C 94.5033 -6.28835 1.04143 0
M  V30 1005 C 92.1903 -6.09921 0.379389 0
M  V30 1006 C 93.1883 -6.73933 1.10919 0
M  V30 1007 O 92.8763 -7.81216 1.89623 0
M  V30 1008 H 92.6083 -0.653127 -0.174359 0
M  V30 1009 H 95.1623 -2.05029 0.123418 0
M  V30 1010 H 93.3923 -3.21351 -2.15105 0
M  V30 1011 H 95.0813 -3.5701 -1.93129 0
M  V30 1012 H 95.8473 -4.8459 0.19939 0
M  V30 1013 H 91.7263 -4.50496 -0.978474 0
M  V30 1014 H 95.2703 -6.7873 1.61157 0
M  V30 1015 H 91.1673 -6.44089 0.426512 0
M  V30 1016 H 91.9353 -7.98029 1.81913 0
M  V30 1017 N 94.5984 0.214957 -1.56127 0
M  V30 1018 C 95.5284 1.2695 -1.95974 0
M  V30 1019 C 96.5094 1.48539 -0.828868 0
M  V30 1020 O 97.6944 1.60611 -1.09168 0
M  V30 1021 C 94.8244 2.61794 -2.28214 0
M  V30 1022 C 93.7784 2.54851 -3.43853 0
M  V30 1023 C 93.1044 3.93785 -3.61715 0
M  V30 1024 C 94.4044 2.09065 -4.78632 0
M  V30 1025 H 96.0984 0.93846 -2.84312 0
M  V30 1026 H 93.6444 0.449996 -1.36788 0
M  V30 1027 H 95.5974 3.35731 -2.54682 0
M  V30 1028 H 94.3214 2.96599 -1.36736 0
M  V30 1029 H 92.9804 1.8337 -3.17444 0
M  V30 1030 H 92.6284 4.25908 -2.67602 0
M  V30 1031 H 92.3284 3.90019 -4.39498 0
M  V30 1032 H 93.8524 4.69374 -3.90539 0
M  V30 1033 H 95.2664 2.7275 -5.04262 0
M  V30 1034 H 93.6634 2.16346 -5.59745 0
M  V30 1035 H 94.7334 1.04315 -4.73547 0
M  V30 1036 N 96.0765 1.50051 0.48192 0
M  V30 1037 C 97.3245 1.60181 1.23234 0
M  V30 1038 C 97.6455 0.299176 1.92691 0
M  V30 1039 O 96.9155 -0.682708 1.83619 0
M  V30 1040 H 95.4955 0.590232 0.457859 0
M  V30 1041 H 98.1575 1.86775 0.556881 0
M  V30 1042 H 97.2535 2.40753 1.98607 0
M  V30 1043 N 97.5546 -0.734337 1.39446 0
M  V30 1044 C 98.8316 -1.48579 1.27215 0
M  V30 1045 C 99.2116 -2.1077 -0.117968 0
M  V30 1046 O 98.5596 -1.98646 -1.12924 0
M  V30 1047 C 98.7696 -2.53667 2.39696 0
M  V30 1048 C 100.118 -3.20031 2.79044 0
M  V30 1049 O 101.142 -2.6398 2.39151 0
M  V30 1050 O 100.001 -4.21455 3.47905 0
M  V30 1051 H 97.0946 -0.659816 0.49857 0
M  V30 1052 H 99.6406 -0.768106 1.51322 0
M  V30 1053 H 98.4126 -2.06096 3.32626 0
M  V30 1054 H 98.0356 -3.32994 2.17258 0
M  V30 1055 N 99.0327 -1.24633 -0.964593 0
M  V30 1056 C 99.9807 -1.03917 -2.08096 0
M  V30 1057 C 100.975 0.0268581 -1.69379 0
M  V30 1058 O 102.181 -0.127952 -1.79545 0
M  V30 1059 H 98.5557 -0.319044 -0.680966 0
M  V30 1060 H 100.527 -1.98581 -2.22729 0
M  V30 1061 C 99.2757 -0.663983 -3.41301 0
M  V30 1062 H 98.5987 -1.47605 -3.71555 0
M  V30 1063 H 100.039 -0.558663 -4.20303 0
M  V30 1064 C 98.4977 0.629169 -3.30973 0
M  V30 1065 O 99.0277 1.67404 -3.65156 0
M  V30 1066 N 97.2337 0.611057 -2.84103 0
M  V30 1067 H 96.7807 -0.239593 -2.56483 0
M  V30 1068 H 96.7387 1.47647 -2.77575 0
M  V30 1069 N 100.511 1.16574 -1.06058 0
M  V30 1070 C 101.927 1.3904 -0.783585 0
M  V30 1071 C 102.127 1.91784 0.618145 0
M  V30 1072 O 101.183 2.11511 1.37911 0
M  V30 1073 C 102.496 2.37329 -1.84649 0
M  V30 1074 C 104.044 2.51018 -1.86973 0
M  V30 1075 C 104.519 3.52588 -2.92311 0
M  V30 1076 N 106.01 3.60113 -2.91329 0
M  V30 1077 C 106.745 4.38486 -3.69482 0
M  V30 1078 N 106.241 5.20302 -4.57447 0
M  V30 1079 N 108.034 4.33446 -3.57885 0
M  V30 1080 H 100.185 0.806725 -1.96483 0
M  V30 1081 H 102.448 0.417117 -0.851303 0
M  V30 1082 H 102.154 2.05663 -2.85299 0
M  V30 1083 H 102.028 3.36946 -1.6955 0
M  V30 1084 H 104.415 2.81989 -0.869827 0
M  V30 1085 H 104.496 1.51445 -2.0615 0
M  V30 1086 H 104.14 3.22354 -3.92492 0
M  V30 1087 H 104.07 4.51886 -2.70383 0
M  V30 1088 H 106.561 3.01707 -2.27555 0
M  V30 1089 H 106.874 5.77311 -5.13743 0
M  V30 1090 H 105.219 5.19653 -4.61503 0
M  V30 1091 H 108.41 3.68586 -2.88551 0
M  V30 1092 H 108.583 4.94279 -4.19037 0
M  V30 1093 N 101.989 0.842826 1.3317 0
M  V30 1094 C 103.235 0.441099 1.97945 0
M  V30 1095 C 103.568 -0.998024 1.66593 0
M  V30 1096 O 102.843 -1.69839 0.947898 0
M  V30 1097 C 103.126 0.666841 3.53872 0
M  V30 1098 C 102.979 2.15352 3.94897 0
M  V30 1099 C 104.298 0.115544 4.39948 0
M  V30 1100 H 101.417 0.161739 0.719034 0
M  V30 1101 H 104.059 1.05907 1.57746 0
M  V30 1102 H 102.209 0.140828 3.88245 0
M  V30 1103 H 103.881 2.7447 3.70761 0
M  V30 1104 H 102.124 2.63653 3.44484 0
M  V30 1105 H 102.795 2.26221 5.03516 0
M  V30 1106 H 105.271 0.565213 4.12243 0
M  V30 1107 H 104.147 0.303152 5.48062 0
M  V30 1108 H 104.408 -0.980935 4.3108 0
M  V30 1109 N 103.467 -1.45747 0.599634 0
M  V30 1110 C 104.43 -2.28917 -0.113835 0
M  V30 1111 C 105.43 -1.3933 -0.802729 0
M  V30 1112 O 106.62 -1.61534 -0.652103 0
M  V30 1113 C 103.752 -3.20152 -1.17114 0
M  V30 1114 H 104.945 -2.93478 0.617289 0
M  V30 1115 H 102.498 -1.52137 0.358327 0
M  V30 1116 H 103.233 -2.60374 -1.93329 0
M  V30 1117 H 103.018 -3.86133 -0.681468 0
M  V30 1118 H 104.508 -3.82708 -1.67105 0
M  V30 1119 N 104.945 -0.338344 -1.53925 0
M  V30 1120 C 105.895 0.536712 -2.21593 0
M  V30 1121 C 106.879 1.07015 -1.20153 0
M  V30 1122 O 108.071 1.00471 -1.45721 0
M  V30 1123 C 105.2 1.68977 -2.98834 0
M  V30 1124 C 104.286 1.17052 -4.07627 0
M  V30 1125 N 104.677 0.372085 -5.0443 0
M  V30 1126 C 102.975 1.44789 -4.21844 0
M  V30 1127 C 103.676 0.0909171 -5.81629 0
M  V30 1128 N 102.652 0.681131 -5.39316 0
M  V30 1129 H 106.454 -0.0804298 -2.9379 0
M  V30 1130 H 103.968 -0.144943 -1.61752 0
M  V30 1131 H 105.965 2.32857 -3.45808 0
M  V30 1132 H 104.625 2.31024 -2.28162 0
M  V30 1133 H 105.636 0.0136217 -5.17898 0
M  V30 1134 H 102.313 2.07313 -3.62391 0
M  V30 1135 H 103.703 -0.552817 -6.69622 0
M  V30 1136 N 106.423 1.57458 -0.0668435 0
M  V30 1137 C 107.356 2.08033 0.93795 0
M  V30 1138 C 108.334 0.984321 1.29421 0
M  V30 1139 O 109.518 1.25736 1.40437 0
M  V30 1140 C 106.645 2.53388 2.24749 0
M  V30 1141 C 105.691 3.74376 2.04315 0
M  V30 1142 S 106.524 5.19303 1.30706 0
M  V30 1143 C 107.68 5.67986 2.62951 0
M  V30 1144 H 107.913 2.92935 0.50759 0
M  V30 1145 H 105.446 1.5371 0.145804 0
M  V30 1146 H 107.404 2.8018 3.00016 0
M  V30 1147 H 106.065 1.68763 2.64911 0
M  V30 1148 H 105.258 4.04083 3.01218 0
M  V30 1149 H 104.86 3.47931 1.37186 0
M  V30 1150 H 107.152 5.74528 3.5906 0
M  V30 1151 H 108.095 6.66955 2.3786 0
M  V30 1152 H 108.503 4.95781 2.69929 0
M  V30 1153 N 107.901 -0.206675 1.56239 0
M  V30 1154 C 108.834 -1.28383 1.88661 0
M  V30 1155 C 109.812 -1.44504 0.745481 0
M  V30 1156 O 110.996 -1.60079 0.995336 0
M  V30 1157 C 108.123 -2.65211 2.10667 0
M  V30 1158 C 107.169 -2.66025 3.33366 0
M  V30 1159 S 108.002 -2.18609 4.88846 0
M  V30 1160 C 109.158 -3.57283 5.13906 0
M  V30 1161 H 109.391 -1.00691 2.7973 0
M  V30 1162 H 106.924 -0.409627 1.48867 0
M  V30 1163 H 108.882 -3.43979 2.24029 0
M  V30 1164 H 107.543 -2.90121 1.20369 0
M  V30 1165 H 106.736 -3.66607 3.45855 0
M  V30 1166 H 106.338 -1.95331 3.18938 0
M  V30 1167 H 108.63 -4.53074 5.03717 0
M  V30 1168 H 109.573 -3.49699 6.15724 0
M  V30 1169 H 109.981 -3.51659 4.41583 0
M  V30 1170 N 109.379 -1.50304 -0.473955 0
M  V30 1171 C 110.79 -1.54042 -1.0549 0
M  V30 1172 C 111.141 -0.342248 -1.93192 0
M  V30 1173 O 110.266 0.545157 -2.09421 0
M  V30 1174 C 110.861 -2.79152 -1.91989 0
M  V30 1175 C 109.42 -2.8558 -2.45196 0
M  V30 1176 C 108.567 -2.48295 -1.2347 0
M  V30 1177 H 111.518 -1.5661 -0.256693 0
M  V30 1178 H 111.539 -2.60845 -2.7702 0
M  V30 1179 H 111.051 -3.66339 -1.28131 0
M  V30 1180 H 109.152 -2.02738 -3.12615 0
M  V30 1181 H 109.265 -3.88403 -2.80499 0
M  V30 1182 H 107.629 -2.00669 -1.56856 0
M  V30 1183 H 108.412 -3.37787 -0.612789 0
M  V30 1184 N 110.857 0.726932 -1.39834 0
M  V30 1185 C 112.134 1.47902 -1.28001 0
M  V30 1186 C 112.514 2.1083 0.106789 0
M  V30 1187 O 111.862 1.99242 1.11869 0
M  V30 1188 C 112.072 2.52392 -2.41038 0
M  V30 1189 C 113.42 3.18546 -2.80737 0
M  V30 1190 O 114.444 2.62708 -2.40547 0
M  V30 1191 O 113.303 4.19604 -3.50135 0
M  V30 1192 H 110.397 0.657163 -0.502062 0
M  V30 1193 H 112.943 0.760071 -1.51727 0
M  V30 1194 H 111.715 2.04329 -3.33715 0
M  V30 1195 H 111.338 3.31837 -2.19021 0
M  V30 1196 N 112.336 1.25143 0.95797 0
M  V30 1197 C 113.585 1.0909 1.69654 0
M  V30 1198 C 113.898 -0.368548 1.92097 0
M  V30 1199 O 115.104 -0.649455 2.63618 0
M  V30 1200 C 113.56 1.90395 3.05414 0
M  V30 1201 C 113.168 3.4081 2.90779 0
M  V30 1202 C 114.912 1.82901 3.83076 0
M  V30 1203 C 112.819 4.14423 4.21909 0
M  V30 1204 H 111.749 0.404625 0.636235 0
M  V30 1205 H 114.4 1.4931 1.06672 0
M  V30 1206 H 112.782 1.42996 3.69281 0
M  V30 1207 H 113.956 3.95859 2.35865 0
M  V30 1208 H 112.271 3.49361 2.26575 0
M  V30 1209 H 114.868 2.35196 4.80195 0
M  V30 1210 H 115.211 0.796224 4.08615 0
M  V30 1211 H 115.744 2.28033 3.25954 0
M  V30 1212 H 112.483 5.18102 4.01561 0
M  V30 1213 H 112.003 3.64159 4.76601 0
M  V30 1214 H 113.682 4.21956 4.90471 0
M  V30 1215 N 113.814 -1.1601 1.06675 0
M  V30 1216 C 114.744 -2.22688 0.702307 0
M  V30 1217 C 115.725 -1.67306 -0.307032 0
M  V30 1218 O 116.91 -1.93352 -0.181305 0
M  V30 1219 C 114.04 -3.47178 0.092038 0
M  V30 1220 C 112.994 -4.15477 1.02777 0
M  V30 1221 C 112.32 -5.33963 0.28061 0
M  V30 1222 C 113.62 -4.66019 2.35846 0
M  V30 1223 H 115.314 -2.53429 1.59419 0
M  V30 1224 H 112.86 -1.21813 0.767961 0
M  V30 1225 H 114.813 -4.21037 -0.174814 0
M  V30 1226 H 113.537 -3.15749 -0.834877 0
M  V30 1227 H 112.196 -3.43549 1.27944 0
M  V30 1228 H 111.844 -4.98788 -0.649545 0
M  V30 1229 H 111.544 -5.806 0.904258 0
M  V30 1230 H 113.068 -6.10596 0.021396 0
M  V30 1231 H 114.482 -5.3144 2.15045 0
M  V30 1232 H 112.879 -5.23293 2.93743 0
M  V30 1233 H 113.949 -3.82023 2.98641 0
M  V30 1234 N 115.292 -0.849877 -1.32721 0
M  V30 1235 C 116.222 -0.306308 -2.31482 0
M  V30 1236 C 117.203 0.591952 -1.59468 0
M  V30 1237 O 118.388 0.513199 -1.87296 0
M  V30 1238 C 115.518 0.510204 -3.43532 0
M  V30 1239 C 114.472 -0.293209 -4.26994 0
M  V30 1240 C 113.798 0.647743 -5.30762 0
M  V30 1241 C 115.098 -1.51634 -4.99804 0
M  V30 1242 H 116.792 -1.13153 -2.77195 0
M  V30 1243 H 114.338 -0.545553 -1.33266 0
M  V30 1244 H 116.291 0.900856 -4.11658 0
M  V30 1245 H 115.015 1.36874 -2.96535 0
M  V30 1246 H 113.674 -0.665555 -3.60508 0
M  V30 1247 H 113.322 1.50299 -4.8002 0
M  V30 1248 H 113.022 0.11422 -5.87489 0
M  V30 1249 H 114.546 1.03567 -6.01753 0
M  V30 1250 H 115.96 -1.19824 -5.60638 0
M  V30 1251 H 114.357 -1.98745 -5.66234 0
M  V30 1252 H 115.427 -2.28018 -4.27943 0
M  V30 1253 N 116.77 1.45427 -0.607355 0
M  V30 1254 C 117.733 2.28974 0.101693 0
M  V30 1255 C 118.733 1.39754 0.795329 0
M  V30 1256 O 119.923 1.61878 0.643527 0
M  V30 1257 C 117.055 3.20768 1.15414 0
M  V30 1258 H 118.248 2.93147 -0.632844 0
M  V30 1259 H 115.801 1.51945 -0.366391 0
M  V30 1260 H 116.536 2.61395 1.91945 0
M  V30 1261 H 116.321 3.86489 0.66098 0
M  V30 1262 H 117.811 3.83589 1.65073 0
M  V30 1263 N 118.248 0.346503 1.53744 0
M  V30 1264 C 119.178 -0.501193 2.28058 0
M  V30 1265 C 120.159 -1.10014 1.29734 0
M  V30 1266 O 121.344 -1.12097 1.58581 0
M  V30 1267 C 118.474 -1.65078 3.05559 0
M  V30 1268 C 117.428 -1.18003 4.11411 0
M  V30 1269 C 116.754 -2.41837 4.76884 0
M  V30 1270 C 118.054 -0.278394 5.21558 0
M  V30 1271 H 119.748 0.11875 2.99164 0
M  V30 1272 H 117.294 0.0585531 1.43881 0
M  V30 1273 H 119.247 -2.25028 3.56287 0
M  V30 1274 H 117.971 -2.29767 2.32109 0
M  V30 1275 H 116.63 -0.603331 3.61601 0
M  V30 1276 H 116.278 -3.0494 4.00026 0
M  V30 1277 H 115.978 -2.1102 5.48402 0
M  V30 1278 H 117.502 -3.02508 5.30397 0
M  V30 1279 H 118.916 -0.784823 5.67903 0
M  V30 1280 H 117.313 -0.0619707 6.00068 0
M  V30 1281 H 118.383 0.684677 4.80042 0
M  V30 1282 N 119.726 -1.57421 0.075193 0
M  V30 1283 C 120.954 -1.97946 -0.602076 0
M  V30 1284 C 121.369 -0.953674 -1.62943 0
M  V30 1285 O 120.726 0.0592551 -1.82404 0
M  V30 1286 C 120.777 -3.38546 -1.26762 0
M  V30 1287 O 120.498 -4.37195 -0.281376 0
M  V30 1288 C 121.999 -3.93966 -2.03239 0
M  V30 1289 H 119.219 -0.650918 -0.162931 0
M  V30 1290 H 121.763 -2.03959 0.148601 0
M  V30 1291 H 119.918 -3.33609 -1.96936 0
M  V30 1292 H 120.332 -5.18975 -0.759267 0
M  V30 1293 H 121.806 -4.94555 -2.45193 0
M  V30 1294 H 122.283 -3.30693 -2.8903 0
M  V30 1295 H 122.889 -4.02315 -1.37924 0
M  V30 1296 N 121.204 0.198386 -1.56346 0
M  V30 1297 C 122.481 0.944982 -1.71258 0
M  V30 1298 C 122.861 2.0151 -0.629048 0
M  V30 1299 O 122.209 2.25639 0.360473 0
M  V30 1300 C 122.419 1.5344 -3.1346 0
M  V30 1301 C 123.767 2.01778 -3.73591 0
M  V30 1302 O 124.791 1.63288 -3.16568 0
M  V30 1303 O 123.65 2.72594 -4.73661 0
M  V30 1304 H 120.744 0.442939 -0.69838 0
M  V30 1305 H 123.29 0.188342 -1.68652 0
M  V30 1306 H 122.062 0.762869 -3.83792 0
M  V30 1307 H 121.685 2.35596 -3.20282 0
M  V30 1308 N 122.682 1.50554 0.465978 0
M  V30 1309 C 123.959 1.5232 1.22712 0
M  V30 1310 C 124.339 0.270807 2.09356 0
M  V30 1311 O 123.687 -0.745541 2.15995 0
M  V30 1312 C 123.897 2.82175 2.05374 0
M  V30 1313 C 125.245 3.33033 2.6339 0
M  V30 1314 O 126.269 2.83531 2.15612 0
M  V30 1315 O 125.128 4.19336 3.50456 0
M  V30 1316 H 122.222 0.611183 0.557122 0
M  V30 1317 H 124.768 1.62847 0.477381 0
M  V30 1318 H 123.54 3.64797 1.41558 0
M  V30 1319 H 123.163 2.74675 2.87471 0
M  V30 1320 N 124.16 -0.719506 1.40217 0
M  V30 1321 C 125.093 -1.84298 1.34571 0
M  V30 1322 C 126.071 -1.61149 0.216741 0
M  V30 1323 O 127.255 -1.84212 0.399756 0
M  V30 1324 C 124.382 -3.20568 1.09335 0
M  V30 1325 C 123.428 -3.62551 2.24631 0
M  V30 1326 S 124.261 -3.7012 3.87004 0
M  V30 1327 C 125.417 -5.09154 3.64024 0
M  V30 1328 H 125.65 -1.88807 2.2965 0
M  V30 1329 H 123.183 -0.885901 1.26456 0
M  V30 1330 H 125.141 -3.99246 0.954602 0
M  V30 1331 H 123.802 -3.13696 0.159164 0
M  V30 1332 H 122.995 -4.61483 2.02606 0
M  V30 1333 H 122.597 -2.91119 2.34789 0
M  V30 1334 H 124.889 -5.95955 3.22248 0
M  V30 1335 H 125.832 -5.36213 4.62473 0
M  V30 1336 H 126.24 -4.79562 2.97793 0
M  V30 1337 N 125.638 -1.25649 -0.95132 0
M  V30 1338 C 126.886 -1.10375 -1.69298 0
M  V30 1339 C 127.207 0.355339 -1.91735 0
M  V30 1340 O 126.477 1.25188 -1.50681 0
M  V30 1341 H 125.057 -0.405461 -0.627384 0
M  V30 1342 H 127.719 -1.57823 -1.14358 0
M  V30 1343 H 126.815 -1.61465 -2.67087 0
M  V30 1344 N 127.117 1.15442 -1.07289 0
M  V30 1345 C 128.533 1.38201 -0.798288 0
M  V30 1346 C 128.733 1.92429 0.597769 0
M  V30 1347 O 127.789 2.12962 1.3566 0
M  V30 1348 C 129.102 2.35357 -1.87156 0
M  V30 1349 C 130.65 2.49021 -1.89624 0
M  V30 1350 C 131.125 3.49468 -2.96034 0
M  V30 1351 N 132.616 3.57003 -2.95132 0
M  V30 1352 C 133.351 4.34543 -3.74112 0
M  V30 1353 N 132.847 5.15421 -4.6294 0
M  V30 1354 N 134.64 4.29625 -3.62462 0
M  V30 1355 H 126.791 0.78584 -1.97328 0
M  V30 1356 H 129.054 0.408065 -0.855679 0
M  V30 1357 H 128.76 2.02626 -2.87464 0
M  V30 1358 H 128.634 3.35129 -1.73114 0
M  V30 1359 H 131.021 2.81051 -0.899687 0
M  V30 1360 H 131.102 1.4925 -2.07745 0
M  V30 1361 H 130.746 3.18173 -3.95889 0
M  V30 1362 H 130.676 4.48992 -2.75161 0
M  V30 1363 H 133.167 2.99276 -2.30743 0
M  V30 1364 H 133.48 5.7183 -5.19837 0
M  V30 1365 H 131.825 5.14729 -4.66989 0
M  V30 1366 H 135.016 3.65505 -2.92444 0
M  V30 1367 H 135.189 4.89807 -4.24256 0
M  V30 1368 N 128.595 0.856903 1.32268 0
M  V30 1369 C 129.823 0.475439 2.01363 0
M  V30 1370 C 130.238 -0.928486 1.64392 0
M  V30 1371 O 129.595 -1.60624 0.866387 0
M  V30 1372 C 129.646 0.607545 3.56358 0
M  V30 1373 O 129.367 1.95617 3.92002 0
M  V30 1374 C 130.868 0.225382 4.42727 0
M  V30 1375 H 128.088 0.186636 0.644521 0
M  V30 1376 H 130.632 1.15446 1.68797 0
M  V30 1377 H 128.787 -0.0237719 3.87393 0
M  V30 1378 H 129.201 1.95455 4.86721 0
M  V30 1379 H 130.675 0.368813 5.50767 0
M  V30 1380 H 131.152 -0.834369 4.31202 0
M  V30 1381 H 131.758 0.831864 4.17085 0
M  V30 1382 N 130.073 -1.45103 0.615059 0
M  V30 1383 C 131.005 -2.28786 -0.13762 0
M  V30 1384 C 132.018 -1.40376 -0.824525 0
M  V30 1385 O 133.207 -1.64681 -0.688662 0
M  V30 1386 C 130.307 -3.16322 -1.21628 0
M  V30 1387 C 129.48 -4.33054 -0.615039 0
M  V30 1388 C 128.539 -5.01743 -1.58556 0
M  V30 1389 O 127.565 -5.58293 -1.10895 0
M  V30 1390 N 128.767 -5.01714 -2.91998 0
M  V30 1391 H 131.532 -2.94025 0.580483 0
M  V30 1392 H 129.093 -1.55373 0.45507 0
M  V30 1393 H 131.085 -3.59139 -1.86552 0
M  V30 1394 H 129.655 -2.52943 -1.83681 0
M  V30 1395 H 128.875 -3.93627 0.21245 0
M  V30 1396 H 130.163 -5.08431 -0.193704 0
M  V30 1397 H 129.561 -4.57075 -3.33316 0
M  V30 1398 H 128.118 -5.48371 -3.52325 0
M  V30 1399 N 131.551 -0.354651 -1.53558 0
M  V30 1400 C 132.498 0.496968 -2.25386 0
M  V30 1401 C 133.468 1.0865 -1.25636 0
M  V30 1402 O 134.653 1.12104 -1.54394 0
M  V30 1403 C 131.793 1.63637 -3.03837 0
M  V30 1404 C 130.906 1.07307 -4.18461 0
M  V30 1405 C 130.041 2.18068 -4.84376 0
M  V30 1406 C 129.08 1.59147 -5.91049 0
M  V30 1407 N 128.217 2.63695 -6.50699 0
M  V30 1408 H 133.057 -0.122075 -2.9775 0
M  V30 1409 H 130.594 -0.0720154 -1.46924 0
M  V30 1410 H 132.552 2.30734 -3.47589 0
M  V30 1411 H 131.182 2.22623 -2.33749 0
M  V30 1412 H 130.234 0.292708 -3.79272 0
M  V30 1413 H 131.546 0.602193 -4.95152 0
M  V30 1414 H 130.7 2.93007 -5.31255 0
M  V30 1415 H 129.439 2.68504 -4.07133 0
M  V30 1416 H 128.444 0.827175 -5.43542 0
M  V30 1417 H 129.669 1.09549 -6.70206 0
M  V30 1418 H 127.615 3.13365 -5.76315 0
M  V30 1419 H 127.532 2.21263 -7.22896 0
M  V30 1420 H 128.8 3.3837 -7.02229 0
M  V30 1421 N 133.029 1.57378 -0.0835403 0
M  V30 1422 C 134.275 1.94217 0.583733 0
M  V30 1423 C 134.608 0.964653 1.68547 0
M  V30 1424 O 133.883 -0.00422258 1.945 0
M  V30 1425 C 134.166 3.41253 1.14972 0
M  V30 1426 C 134.019 4.49768 0.0538277 0
M  V30 1427 C 135.338 3.89352 2.05166 0
M  V30 1428 H 132.457 0.706233 0.210724 0
M  V30 1429 H 135.099 1.89392 -0.1519 0
M  V30 1430 H 133.249 3.45496 1.77665 0
M  V30 1431 H 134.921 4.57641 -0.579851 0
M  V30 1432 H 133.164 4.29432 -0.614068 0
M  V30 1433 H 133.835 5.49817 0.490452 0
M  V30 1434 H 136.311 3.87189 1.52393 0
M  V30 1435 H 135.187 4.92822 2.41698 0
M  V30 1436 H 135.448 3.27973 2.96456 0
M  V30 1437 N 134.507 -0.190092 1.56449 0
M  V30 1438 C 135.753 -0.911052 1.81184 0
M  V30 1439 C 136.086 -1.82699 0.658396 0
M  V30 1440 O 135.361 -1.91491 -0.340775 0
M  V30 1441 C 135.644 -1.72297 3.16205 0
M  V30 1442 C 135.497 -0.831419 4.42049 0
M  V30 1443 C 136.816 -2.69454 3.47969 0
M  V30 1444 H 133.935 -0.32977 0.659106 0
M  V30 1445 H 136.577 -0.178169 1.89163 0
M  V30 1446 H 134.727 -2.34778 3.09534 0
M  V30 1447 H 136.399 -0.220929 4.60771 0
M  V30 1448 H 134.642 -0.138406 4.33579 0
M  V30 1449 H 135.313 -1.43461 5.33032 0
M  V30 1450 H 137.789 -2.17104 3.54972 0
M  V30 1451 H 136.665 -3.23342 4.43555 0
M  V30 1452 H 136.926 -3.48744 2.71717 0
M  V30 1453 N 135.985 -1.50799 -0.457987 0
M  V30 1454 C 137.21 -1.66496 -1.23668 0
M  V30 1455 C 137.635 -0.353288 -1.84752 0
M  V30 1456 O 136.993 0.684346 -1.67888 0
M  V30 1457 C 137.041 -2.76763 -2.3116 0
M  V30 1458 O 136.145 -2.38928 -3.36136 0
M  V30 1459 H 135.486 -0.555828 -0.363252 0
M  V30 1460 H 138.016 -1.9725 -0.543474 0
M  V30 1461 H 138.026 -3.00232 -2.76269 0
M  V30 1462 H 136.701 -3.71954 -1.86073 0
M  V30 1463 H 135.278 -2.25953 -2.96647 0
M  V30 1464 N 137.463 0.71206 -1.40597 0
M  V30 1465 C 138.411 1.84746 -1.41321 0
M  V30 1466 C 139.405 1.66842 -0.293268 0
M  V30 1467 O 140.611 1.73904 -0.464481 0
M  V30 1468 H 136.986 0.608522 -0.441819 0
M  V30 1469 H 138.957 1.81252 -2.37045 0
M  V30 1470 C 137.706 3.22638 -1.29614 0
M  V30 1471 H 137.029 3.37023 -2.15071 0
M  V30 1472 H 138.469 4.02209 -1.3418 0
M  V30 1473 C 136.928 3.36899 -0.00673121 0
M  V30 1474 O 137.458 3.90186 0.954859 0
M  V30 1475 N 135.664 2.9053 0.0639327 0
M  V30 1476 H 135.211 2.47353 -0.719311 0
M  V30 1477 H 135.169 3.0045 0.926118 0
M  V30 1478 N 138.941 1.26152 0.944643 0
M  V30 1479 C 139.888 1.07408 2.04285 0
M  V30 1480 C 140.858 -0.0198413 1.66088 0
M  V30 1481 O 142.043 0.139264 1.90291 0
M  V30 1482 C 139.183 0.70945 3.37729 0
M  V30 1483 C 138.296 1.87926 3.88983 0
M  V30 1484 C 137.431 1.45807 5.10797 0
M  V30 1485 C 136.47 2.5964 5.54305 0
M  V30 1486 N 135.607 2.18226 6.67324 0
M  V30 1487 H 140.447 2.01389 2.1965 0
M  V30 1488 H 137.984 1.00275 1.07626 0
M  V30 1489 H 139.942 0.478948 4.14442 0
M  V30 1490 H 138.572 -0.193389 3.2222 0
M  V30 1491 H 137.624 2.22279 3.08701 0
M  V30 1492 H 138.936 2.73377 4.17213 0
M  V30 1493 H 138.09 1.18781 5.94959 0
M  V30 1494 H 136.829 0.574414 4.84305 0
M  V30 1495 H 135.834 2.87399 4.68702 0
M  V30 1496 H 137.059 3.48599 5.828 0
M  V30 1497 H 135.005 1.3229 6.42523 0
M  V30 1498 H 134.922 2.97221 6.95123 0
M  V30 1499 H 136.19 1.94403 7.54869 0
M  V30 1500 N 140.419 -1.14872 1.07899 0
M  V30 1501 C 141.835 -1.37776 0.805606 0
M  V30 1502 C 142.035 -1.92743 -0.587555 0
M  V30 1503 O 141.091 -2.13678 -1.34528 0
M  V30 1504 C 142.404 -2.34361 1.88402 0
M  V30 1505 C 143.952 -2.48012 1.90942 0
M  V30 1506 C 144.427 -3.47893 2.97883 0
M  V30 1507 N 145.918 -3.55433 2.97021 0
M  V30 1508 C 146.653 -4.32553 3.76412 0
M  V30 1509 N 146.149 -5.12959 4.65666 0
M  V30 1510 N 147.942 -4.27697 3.64735 0
M  V30 1511 H 140.093 -0.775365 1.97742 0
M  V30 1512 H 142.356 -0.403521 0.857831 0
M  V30 1513 H 142.062 -2.01098 2.88535 0
M  V30 1514 H 141.936 -3.34206 1.74889 0
M  V30 1515 H 144.323 -2.8057 0.914579 0
M  V30 1516 H 144.404 -1.48147 2.08534 0
M  V30 1517 H 144.048 -3.16069 3.97571 0
M  V30 1518 H 143.978 -4.47527 2.77538 0
M  V30 1519 H 146.469 -2.98048 2.32326 0
M  V30 1520 H 146.782 -5.69065 5.22862 0
M  V30 1521 H 145.127 -5.12245 4.69712 0
M  V30 1522 H 148.318 -3.63949 2.94378 0
M  V30 1523 H 148.491 -4.8755 4.26848 0
M  V30 1524 N 141.898 -0.863906 -1.31812 0
M  V30 1525 C 142.828 -0.330843 -2.31144 0
M  V30 1526 C 143.809 0.575005 -1.60087 0
M  V30 1527 O 144.994 0.493304 -1.8783 0
M  V30 1528 C 142.124 0.47374 -3.44054 0
M  V30 1529 C 141.078 -0.338481 -4.26659 0
M  V30 1530 C 140.404 0.591412 -5.31419 0
M  V30 1531 C 141.704 -1.56926 -4.98168 0
M  V30 1532 H 143.398 -1.16086 -2.75979 0
M  V30 1533 H 140.944 -0.559657 -1.32679 0
M  V30 1534 H 142.897 0.857143 -4.12591 0
M  V30 1535 H 141.621 1.33721 -2.9797 0
M  V30 1536 H 140.28 -0.703754 -3.59782 0
M  V30 1537 H 139.928 1.45199 -4.81587 0
M  V30 1538 H 139.628 0.0519022 -5.87577 0
M  V30 1539 H 141.152 0.97179 -6.02817 0
M  V30 1540 H 142.566 -1.25764 -5.59336 0
M  V30 1541 H 140.963 -2.04739 -5.64094 0
M  V30 1542 H 142.033 -2.32544 -4.25501 0
M  V30 1543 N 143.376 1.44774 -0.622745 0
M  V30 1544 C 144.625 2.01334 -0.121397 0
M  V30 1545 C 144.938 1.49505 1.26125 0
M  V30 1546 O 146.144 1.98139 1.85616 0
M  V30 1547 C 144.6 3.59516 -0.166298 0
M  V30 1548 C 144.208 4.20342 -1.54974 0
M  V30 1549 C 145.952 4.23582 0.279021 0
M  V30 1550 C 143.859 5.70721 -1.55021 0
M  V30 1551 H 142.789 0.752851 -0.0416172 0
M  V30 1552 H 145.44 1.66083 -0.780309 0
M  V30 1553 H 143.822 3.92027 0.559557 0
M  V30 1554 H 144.996 3.99381 -2.29851 0
M  V30 1555 H 143.311 3.68529 -1.93843 0
M  V30 1556 H 145.908 5.33868 0.298083 0
M  V30 1557 H 146.251 3.95327 1.30471 0
M  V30 1558 H 146.784 3.95843 -0.394063 0
M  V30 1559 H 143.523 6.03698 -2.55399 0
M  V30 1560 H 143.043 5.93829 -0.844245 0
M  V30 1561 H 144.722 6.34203 -1.28047 0
M  V30 1562 N 144.854 0.36279 1.53368 0
M  V30 1563 C 145.784 -0.476976 2.28576 0
M  V30 1564 C 146.765 -1.08631 1.30894 0
M  V30 1565 O 147.95 -1.10409 1.59761 0
M  V30 1566 C 145.08 -1.61828 3.07293 0
M  V30 1567 C 144.034 -1.13633 4.1264 0
M  V30 1568 C 143.36 -2.36766 4.79423 0
M  V30 1569 C 144.66 -0.223061 5.21823 0
M  V30 1570 H 146.354 0.150474 2.99022 0
M  V30 1571 H 143.9 0.0738103 1.43811 0
M  V30 1572 H 145.853 -2.21237 3.58653 0
M  V30 1573 H 144.577 -2.27292 2.34533 0
M  V30 1574 H 143.236 -0.564945 3.62221 0
M  V30 1575 H 142.884 -3.0068 4.03238 0
M  V30 1576 H 142.584 -2.05192 5.50609 0
M  V30 1577 H 144.108 -2.96865 5.33576 0
M  V30 1578 H 145.522 -0.724545 5.68703 0
M  V30 1579 H 143.919 0.001678 6.001 0
M  V30 1580 H 144.989 0.735553 4.79289 0
M  V30 1581 N 146.332 -1.57332 0.0918853 0
M  V30 1582 C 147.58 -1.93853 -0.571446 0
M  V30 1583 C 147.901 -0.974212 -1.6892 0
M  V30 1584 O 147.171 -0.0257254 -1.95883 0
M  V30 1585 H 145.751 -0.715666 -0.214082 0
M  V30 1586 H 148.413 -1.94287 0.154464 0
M  V30 1587 H 147.509 -2.96191 -0.983729 0
M  V30 1588 N 147.81 0.181792 -1.56548 0
M  V30 1589 C 149.056 0.901431 -1.81665 0
M  V30 1590 C 149.389 1.82347 -0.668075 0
M  V30 1591 O 148.664 1.91669 0.330615 0
M  V30 1592 C 148.947 1.70618 -3.17115 0
M  V30 1593 C 148.8 0.807964 -4.42484 0
M  V30 1594 C 150.119 2.67605 -3.49393 0
M  V30 1595 H 147.238 0.32627 -0.660846 0
M  V30 1596 H 149.88 0.168134 -1.89255 0
M  V30 1597 H 148.03 2.33133 -3.10775 0
M  V30 1598 H 149.702 0.19649 -4.60881 0
M  V30 1599 H 147.945 0.115411 -4.33646 0
M  V30 1600 H 148.616 1.40632 -5.33785 0
M  V30 1601 H 151.092 2.15218 -3.56118 0
M  V30 1602 H 149.968 3.20985 -4.45264 0
M  V30 1603 H 150.229 3.47298 -2.73563 0
M  V30 1604 N 149.288 1.51039 0.449983 0
M  V30 1605 C 150.537 1.62317 1.19733 0
M  V30 1606 C 150.85 0.339101 1.92638 0
M  V30 1607 O 152.056 0.331069 2.69474 0
M  V30 1608 C 150.512 2.86608 2.17678 0
M  V30 1609 C 150.12 4.21972 1.50479 0
M  V30 1610 C 151.864 3.07239 2.92924 0
M  V30 1611 C 149.771 5.37426 2.46834 0
M  V30 1612 H 148.701 0.604532 0.450619 0
M  V30 1613 H 151.352 1.77494 0.465625 0
M  V30 1614 H 149.734 2.65037 2.94231 0
M  V30 1615 H 150.908 4.53878 0.795716 0
M  V30 1616 H 149.223 4.07117 0.874344 0
M  V30 1617 H 151.82 3.90668 3.65079 0
M  V30 1618 H 152.163 2.19807 3.5354 0
M  V30 1619 H 152.696 3.29091 2.23481 0
M  V30 1620 H 149.435 6.27079 1.90926 0
M  V30 1621 H 148.955 5.09912 3.15832 0
M  V30 1622 H 150.634 5.68862 3.08228 0
M  V30 1623 N 150.766 -0.704594 1.40972 0
M  V30 1624 C 152.012 -1.46675 1.40051 0
M  V30 1625 C 152.345 -1.94199 0.00641102 0
M  V30 1626 O 151.62 -1.68916 -0.964235 0
M  V30 1627 C 151.903 -2.68505 2.39952 0
M  V30 1628 C 151.756 -2.26805 3.88432 0
M  V30 1629 C 153.075 -3.70686 2.37233 0
M  V30 1630 H 150.194 -0.532015 0.510028 0
M  V30 1631 H 152.836 -0.803255 1.72185 0
M  V30 1632 H 150.986 -3.25114 2.1268 0
M  V30 1633 H 152.658 -1.75592 4.26574 0
M  V30 1634 H 150.901 -1.58685 4.03734 0
M  V30 1635 H 151.572 -3.14181 4.53866 0
M  V30 1636 H 154.048 -3.23731 2.61415 0
M  V30 1637 H 152.924 -4.53553 3.09162 0
M  V30 1638 H 153.185 -4.19754 1.38777 0
M  V30 1639 N 152.244 -1.26651 -0.937939 0
M  V30 1640 C 153.191 -1.0849 -2.03712 0
M  V30 1641 C 154.161 0.011033 -1.66096 0
M  V30 1642 O 155.346 -0.149353 -1.90215 0
M  V30 1643 C 152.486 -0.72735 -3.37348 0
M  V30 1644 C 151.599 -1.89986 -3.87981 0
M  V30 1645 C 150.734 -1.48513 -5.10017 0
M  V30 1646 C 149.773 -2.62575 -5.5292 0
M  V30 1647 N 148.91 -2.21762 -6.66158 0
M  V30 1648 H 153.75 -2.02551 -2.18579 0
M  V30 1649 H 151.287 -1.00844 -1.07093 0
M  V30 1650 H 153.245 -0.50092 -4.14182 0
M  V30 1651 H 151.875 0.176298 -3.22318 0
M  V30 1652 H 150.927 -2.23913 -3.07518 0
M  V30 1653 H 152.239 -2.75586 -4.15757 0
M  V30 1654 H 151.393 -1.21934 -5.94321 0
M  V30 1655 H 150.132 -0.60009 -4.83994 0
M  V30 1656 H 149.137 -2.8988 -4.67172 0
M  V30 1657 H 150.362 -3.51685 -5.80943 0
M  V30 1658 H 148.308 -1.35696 -6.41812 0
M  V30 1659 H 148.225 -3.00903 -6.93537 0
M  V30 1660 H 149.493 -1.98403 -7.53828 0
M  V30 1661 N 153.722 1.14298 -1.08507 0
M  V30 1662 C 154.968 1.85633 -0.816581 0
M  V30 1663 C 155.301 1.82784 0.656021 0
M  V30 1664 O 154.576 1.25926 1.48233 0
M  V30 1665 C 154.859 3.34223 -1.34041 0
M  V30 1666 C 154.712 3.45639 -2.87843 0
M  V30 1667 C 156.031 4.29356 -0.9665 0
M  V30 1668 H 153.15 0.67402 -0.298104 0
M  V30 1669 H 155.792 1.34214 -1.34487 0
M  V30 1670 H 153.942 3.78144 -0.89104 0
M  V30 1671 H 155.614 3.10498 -3.41158 0
M  V30 1672 H 153.857 2.86817 -3.25451 0
M  V30 1673 H 154.528 4.50089 -3.19569 0
M  V30 1674 H 157.004 3.93457 -1.35391 0
M  V30 1675 H 155.88 5.3178 -1.3602 0
M  V30 1676 H 156.141 4.41919 0.126362 0
M  V30 1677 N 155.201 0.870884 1.31352 0
M  V30 1678 C 156.164 0.332243 2.26779 0
M  V30 1679 C 157.164 -0.517302 1.52252 0
M  V30 1680 O 158.354 -0.326477 1.71113 0
M  V30 1681 C 155.486 -0.528066 3.36785 0
M  V30 1682 H 156.679 1.17469 2.75937 0
M  V30 1683 H 154.232 0.64655 1.423 0
M  V30 1684 H 154.967 -1.39167 2.92922 0
M  V30 1685 H 154.752 0.0802582 3.92018 0
M  V30 1686 H 156.242 -0.897179 4.07849 0
M  V30 1687 N 156.679 -1.44442 0.630414 0
M  V30 1688 C 157.904 -2.06927 0.139944 0
M  V30 1689 C 158.329 -1.46795 -1.17613 0
M  V30 1690 O 157.687 -0.569144 -1.72135 0
M  V30 1691 C 157.735 -3.6058 0.0379581 0
M  V30 1692 O 156.839 -3.99937 -1.0062 0
M  V30 1693 H 156.18 -0.658608 0.0844483 0
M  V30 1694 H 158.71 -1.85327 0.866891 0
M  V30 1695 H 158.72 -4.07714 -0.152856 0
M  V30 1696 H 157.395 -4.03728 0.998809 0
M  V30 1697 H 155.972 -3.64436 -0.79001 0
M  V30 1698 N 158.157 -0.370918 -1.53173 0
M  V30 1699 C 159.406 0.218249 -2.00516 0
M  V30 1700 C 159.719 1.49429 -1.26215 0
M  V30 1701 O 160.925 2.16239 -1.64174 0
M  V30 1702 C 159.381 0.43948 -3.57207 0
M  V30 1703 C 158.989 -0.822244 -4.4039 0
M  V30 1704 C 160.733 0.986012 -4.1289 0
M  V30 1705 C 158.64 -0.570304 -5.88644 0
M  V30 1706 H 157.57 0.0853333 -0.749156 0
M  V30 1707 H 160.221 -0.490483 -1.76823 0
M  V30 1708 H 158.603 1.20961 -3.77074 0
M  V30 1709 H 159.777 -1.59557 -4.32294 0
M  V30 1710 H 158.092 -1.29238 -3.95836 0
M  V30 1711 H 160.689 1.18991 -5.21292 0
M  V30 1712 H 161.032 1.94972 -3.6782 0
M  V30 1713 H 161.565 0.27592 -3.96842 0
M  V30 1714 H 158.304 -1.50449 -6.38001 0
M  V30 1715 H 157.824 0.164427 -5.99575 0
M  V30 1716 H 159.503 -0.19784 -6.46697 0
M  V30 1717 N 159.635 1.57281 -0.100228 0
M  V30 1718 C 161.051 1.57527 0.256416 0
M  V30 1719 C 161.251 1.11173 1.68056 0
M  V30 1720 O 160.307 0.79053 2.39806 0
M  V30 1721 C 161.62 3.00673 0.0401747 0
M  V30 1722 C 163.168 3.12815 0.107528 0
M  V30 1723 C 163.643 4.57929 -0.0807834 0
M  V30 1724 N 165.134 4.63193 -0.0261207 0
M  V30 1725 C 165.869 5.73212 -0.146999 0
M  V30 1726 N 165.365 6.92047 -0.322999 0
M  V30 1727 N 167.158 5.62031 -0.0879044 0
M  V30 1728 H 159.309 1.85718 -1.03065 0
M  V30 1729 H 161.572 0.857446 -0.404339 0
M  V30 1730 H 161.278 3.38804 -0.943649 0
M  V30 1731 H 161.152 3.69042 0.780262 0
M  V30 1732 H 163.539 2.74554 1.08186 0
M  V30 1733 H 163.62 2.47028 -0.664134 0
M  V30 1734 H 163.264 4.96886 -1.05201 0
M  V30 1735 H 163.194 5.21783 0.710635 0
M  V30 1736 H 165.685 3.77748 0.107161 0
M  V30 1737 H 165.998 7.7173 -0.406608 0
M  V30 1738 H 164.343 6.94074 -0.358733 0
M  V30 1739 H 167.534 4.68075 0.048498 0
M  V30 1740 H 167.707 6.47734 -0.185557 0
M  V30 1741 N 161.113 -0.173488 1.56642 0
M  V30 1742 C 162.359 -0.891784 1.8214 0
M  V30 1743 C 162.692 -1.8199 0.677736 0
M  V30 1744 O 161.967 -1.91842 -0.320446 0
M  V30 1745 C 162.25 -1.68933 3.18015 0
M  V30 1746 C 162.103 -0.784487 4.42906 0
M  V30 1747 C 163.422 -2.65748 3.50808 0
M  V30 1748 H 160.541 -0.322761 0.662567 0
M  V30 1749 H 163.183 -0.158095 1.89341 0
M  V30 1750 H 161.333 -2.31482 3.12007 0
M  V30 1751 H 163.005 -0.172046 4.60979 0
M  V30 1752 H 161.248 -0.0924117 4.33702 0
M  V30 1753 H 161.919 -1.37799 5.34524 0
M  V30 1754 H 164.395 -2.13327 3.57255 0
M  V30 1755 H 163.271 -3.18619 4.4696 0
M  V30 1756 H 163.532 -3.45842 2.75401 0
M  V30 1757 N 162.591 -1.51276 -0.441967 0
M  V30 1758 C 163.868 -1.54252 -1.20273 0
M  V30 1759 C 164.248 -0.30408 -2.08898 0
M  V30 1760 O 163.596 0.711084 -2.17154 0
M  V30 1761 C 163.806 -2.85406 -2.00859 0
M  V30 1762 C 165.154 -3.37181 -2.58059 0
M  V30 1763 O 166.178 -2.86925 -2.11074 0
M  V30 1764 O 165.037 -4.24858 -3.43741 0
M  V30 1765 H 162.131 -0.619969 -0.547328 0
M  V30 1766 H 164.677 -1.63586 -0.451413 0
M  V30 1767 H 163.449 -3.67003 -1.35736 0
M  V30 1768 H 163.072 -2.79213 -2.83065 0
M  V30 1769 N 164.069 0.697108 -1.41344 0
M  V30 1770 C 165.297 1.48593 -1.43972 0
M  V30 1771 C 165.712 1.88747 -0.0445612 0
M  V30 1772 O 165.069 1.56682 0.935785 0
M  V30 1773 C 165.12 2.74946 -2.34706 0
M  V30 1774 O 164.841 2.36484 -3.68791 0
M  V30 1775 C 166.342 3.687 -2.46121 0
M  V30 1776 H 163.562 0.457964 -0.490418 0
M  V30 1777 H 166.106 0.858429 -1.8561 0
M  V30 1778 H 164.261 3.33937 -1.9638 0
M  V30 1779 H 164.675 3.17918 -4.17167 0
M  V30 1780 H 166.149 4.54145 -3.13777 0
M  V30 1781 H 166.626 4.13081 -1.49199 0
M  V30 1782 H 167.232 3.15613 -2.85076 0
M  V30 1783 N 165.547 1.27147 0.931209 0
M  V30 1784 C 166.793 1.13446 1.68101 0
M  V30 1785 C 167.126 -0.319628 1.91552 0
M  V30 1786 O 166.401 -1.23407 1.50336 0
M  V30 1787 C 166.684 1.91482 3.0497 0
M  V30 1788 C 166.537 3.44855 2.88782 0
M  V30 1789 C 167.856 1.71651 4.05246 0
M  V30 1790 H 164.975 0.413498 0.610072 0
M  V30 1791 H 167.617 1.56261 1.08086 0
M  V30 1792 H 165.767 1.55095 3.56199 0
M  V30 1793 H 167.439 3.9105 2.44698 0
M  V30 1794 H 165.682 3.71373 2.24198 0
M  V30 1795 H 166.353 3.94694 3.85902 0
M  V30 1796 H 168.829 2.0337 3.63015 0
M  V30 1797 H 167.705 2.28651 4.99009 0
M  V30 1798 H 167.966 0.663555 4.37092 0
M  V30 1799 N 167.025 -1.13721 1.09112 0
M  V30 1800 C 167.935 -2.22638 0.73957 0
M  V30 1801 C 168.951 -1.72091 -0.257068 0
M  V30 1802 O 170.127 -2.01155 -0.0992154 0
M  V30 1803 C 167.192 -3.46322 0.16191 0
M  V30 1804 C 166.253 -4.11775 1.21408 0
M  V30 1805 C 165.486 -5.29555 0.663891 0
M  V30 1806 O 165.709 -5.68077 -0.514274 0
M  V30 1807 O 164.643 -5.84973 1.41738 0
M  V30 1808 H 168.469 -2.55074 1.64836 0
M  V30 1809 H 166.054 -1.21791 0.865289 0
M  V30 1810 H 167.936 -4.21107 -0.157073 0
M  V30 1811 H 166.611 -3.15593 -0.719932 0
M  V30 1812 H 165.518 -3.3883 1.58571 0
M  V30 1813 H 166.851 -4.46627 2.06845 0
M  V30 1814 N 168.503 -0.877838 -1.30888 0
M  V30 1815 C 169.78 -0.413052 -1.91189 0
M  V30 1816 C 170.16 1.1056 -1.79832 0
M  V30 1817 O 169.508 1.93771 -1.21099 0
M  V30 1818 C 169.718 -0.903191 -3.3711 0
M  V30 1819 C 171.066 -0.93395 -4.14201 0
M  V30 1820 O 172.09 -0.849373 -3.45925 0
M  V30 1821 O 170.949 -1.05772 -5.36167 0
M  V30 1822 H 168.043 -0.125035 -0.817493 0
M  V30 1823 H 170.589 -0.966269 -1.39504 0
M  V30 1824 H 169.361 -1.94692 -3.39427 0
M  V30 1825 H 168.984 -0.328732 -3.96239 0
M  V30 1826 N 169.982 1.44106 -0.638065 0
M  V30 1827 C 171.229 2.01978 -0.14533 0
M  V30 1828 C 171.557 1.50234 1.23532 0
M  V30 1829 O 170.812 0.679548 1.83523 0
M  V30 1830 C 171.111 3.5729 -0.0887327 0
M  V30 1831 C 170.777 4.28317 -1.40909 0
M  V30 1832 C 169.439 4.47437 -1.77069 0
M  V30 1833 C 171.791 4.6867 -2.28031 0
M  V30 1834 C 169.119 5.04171 -3.00047 0
M  V30 1835 C 171.471 5.26766 -3.50286 0
M  V30 1836 C 170.135 5.44104 -3.86661 0
M  V30 1837 H 169.405 0.739089 -0.0531801 0
M  V30 1838 H 172.052 1.72781 -0.825761 0
M  V30 1839 H 170.357 3.8594 0.675095 0
M  V30 1840 H 172.054 3.99807 0.309145 0
M  V30 1841 H 168.644 4.1377 -1.1177 0
M  V30 1842 H 172.828 4.53604 -2.01388 0
M  V30 1843 H 168.084 5.15782 -3.28298 0
M  V30 1844 H 172.258 5.56983 -4.18023 0
M  V30 1845 H 169.885 5.87832 -4.82034 0
M  V30 1846 N 171.46 0.379036 1.52974 0
M  V30 1847 C 172.423 -0.448865 2.24762 0
M  V30 1848 C 173.423 -0.998689 1.26027 0
M  V30 1849 O 174.613 -0.882313 1.50203 0
M  V30 1850 C 171.745 -1.62872 2.99476 0
M  V30 1851 H 172.938 0.179491 2.99362 0
M  V30 1852 H 170.491 0.13096 1.5575 0
M  V30 1853 H 171.226 -2.29479 2.29151 0
M  V30 1854 H 171.011 -1.24128 3.71934 0
M  V30 1855 H 172.501 -2.2151 3.5401 0
M  V30 1856 N 172.938 -1.57226 0.108567 0
M  V30 1857 C 174.168 -1.9889 -0.559142 0
M  V30 1858 C 174.576 -0.986889 -1.61422 0
M  V30 1859 O 173.919 0.0298705 -1.83676 0
M  V30 1860 C 173.981 -3.36952 -1.25315 0
M  V30 1861 C 173.645 -4.55679 -0.347248 0
M  V30 1862 C 174.642 -5.18281 0.409996 0
M  V30 1863 C 172.327 -5.0162 -0.261367 0
M  V30 1864 C 174.321 -6.25203 1.24096 0
M  V30 1865 C 172.008 -6.08405 0.573238 0
M  V30 1866 C 173.006 -6.70063 1.32304 0
M  V30 1867 O 172.694 -7.74788 2.14381 0
M  V30 1868 H 172.426 -0.658343 -0.153492 0
M  V30 1869 H 174.98 -2.04532 0.188584 0
M  V30 1870 H 173.21 -3.28032 -2.04773 0
M  V30 1871 H 174.899 -3.62974 -1.81673 0
M  V30 1872 H 175.665 -4.8371 0.353457 0
M  V30 1873 H 171.544 -4.53381 -0.834656 0
M  V30 1874 H 175.088 -6.73259 1.82669 0
M  V30 1875 H 170.985 -6.42406 0.631208 0
M  V30 1876 H 171.753 -7.91837 2.07209 0
M  V30 1877 N 174.416 0.165178 -1.56732 0
M  V30 1878 C 175.664 0.879068 -1.8198 0
M  V30 1879 C 175.985 1.82514 -0.686561 0
M  V30 1880 O 175.255 1.93694 0.293146 0
M  V30 1881 H 173.835 0.327608 -0.671329 0
M  V30 1882 H 176.497 0.163526 -1.94213 0
M  V30 1883 H 175.593 1.45228 -2.76252 0
M  V30 1884 N 175.894 1.51508 0.433938 0
M  V30 1885 C 176.857 1.72473 1.50949 0
M  V30 1886 C 177.857 0.594725 1.49398 0
M  V30 1887 O 179.047 0.862315 1.5136 0
M  V30 1888 C 176.179 1.78431 2.90474 0
M  V30 1889 H 177.372 2.68467 1.33662 0
M  V30 1890 H 174.925 1.41549 0.662836 0
M  V30 1891 H 175.66 0.842645 3.13161 0
M  V30 1892 H 175.445 2.60558 2.93005 0
M  V30 1893 H 176.935 1.96479 3.68491 0
M  V30 1894 N 177.372 -0.689602 1.41712 0
M  V30 1895 C 178.32 -1.82475 1.44242 0
M  V30 1896 C 179.314 -1.66354 0.319774 0
M  V30 1897 O 180.52 -1.73143 0.492089 0
M  V30 1898 H 176.895 -0.601416 0.451445 0
M  V30 1899 H 178.866 -1.77458 2.39899 0
M  V30 1900 C 177.615 -3.20535 1.3473 0
M  V30 1901 H 176.938 -3.33559 2.20405 0
M  V30 1902 H 178.378 -4.00023 1.40562 0
M  V30 1903 C 176.837 -3.36846 0.0603281 0
M  V30 1904 O 177.367 -3.91656 -0.892663 0
M  V30 1905 N 175.573 -2.90595 -0.0177039 0
M  V30 1906 H 175.12 -2.46178 0.758572 0
M  V30 1907 H 175.078 -3.01886 -0.878201 0
M  V30 1908 N 178.85 -1.27639 -0.924453 0
M  V30 1909 C 180.099 -1.13549 -1.66702 0
M  V30 1910 C 180.412 0.317487 -1.93006 0
M  V30 1911 O 181.618 0.579333 -2.65247 0
M  V30 1912 C 180.074 -1.98426 -3.00259 0
M  V30 1913 C 179.682 -3.484 -2.81641 0
M  V30 1914 C 181.426 -1.92993 -3.78092 0
M  V30 1915 C 179.333 -4.25464 -4.10773 0
M  V30 1916 H 178.263 -0.421351 -0.625283 0
M  V30 1917 H 180.914 -1.52085 -1.02676 0
M  V30 1918 H 179.296 -1.52736 -3.6536 0
M  V30 1919 H 180.47 -4.01973 -2.25287 0
M  V30 1920 H 178.785 -3.55245 -2.17232 0
M  V30 1921 H 181.382 -2.47844 -4.7379 0
M  V30 1922 H 181.725 -0.904281 -4.0636 0
M  V30 1923 H 182.258 -2.36595 -3.19793 0
M  V30 1924 H 178.997 -5.28566 -3.87683 0
M  V30 1925 H 178.517 -3.76667 -4.66779 0
M  V30 1926 H 180.196 -4.34812 -4.79111 0
M  V30 1927 N 180.328 1.1314 -1.09713 0
M  V30 1928 C 181.258 2.20748 -0.761102 0
M  V30 1929 C 182.239 1.68061 0.262566 0
M  V30 1930 O 183.424 1.93765 0.129977 0
M  V30 1931 C 180.554 3.46812 -0.184054 0
M  V30 1932 C 179.508 4.12606 -1.13757 0
M  V30 1933 C 178.834 5.33031 -0.422083 0
M  V30 1934 C 180.134 4.59603 -2.48118 0
M  V30 1935 H 181.828 2.49113 -1.66082 0
M  V30 1936 H 179.374 1.19734 -0.799987 0
M  V30 1937 H 181.327 4.21353 0.0631215 0
M  V30 1938 H 180.051 3.17851 0.750868 0
M  V30 1939 H 178.71 3.40036 -1.37007 0
M  V30 1940 H 178.358 5.00335 0.517072 0
M  V30 1941 H 178.058 5.77999 -1.05788 0
M  V30 1942 H 179.582 6.10325 -0.183277 0
M  V30 1943 H 180.996 5.25552 -2.29059 0
M  V30 1944 H 179.393 5.15321 -3.07514 0
M  V30 1945 H 180.463 3.73971 -3.08665 0
M  V30 1946 N 181.806 0.884767 1.30421 0
M  V30 1947 C 183.052 0.503851 1.96441 0
M  V30 1948 C 183.385 -0.944518 1.69684 0
M  V30 1949 O 182.66 -1.66737 1.00145 0
M  V30 1950 C 182.943 0.779085 3.51571 0
M  V30 1951 C 182.796 2.27807 3.87846 0
M  V30 1952 C 184.115 0.255452 4.39358 0
M  V30 1953 H 181.234 0.184533 0.713524 0
M  V30 1954 H 183.876 1.10872 1.54297 0
M  V30 1955 H 182.026 0.264274 3.876 0
M  V30 1956 H 183.698 2.86127 3.61841 0
M  V30 1957 H 181.941 2.74479 3.35922 0
M  V30 1958 H 182.612 2.42125 4.96064 0
M  V30 1959 H 185.088 0.696079 4.10236 0
M  V30 1960 H 183.964 0.477361 5.4682 0
M  V30 1961 H 184.225 -0.843293 4.33983 0
M  V30 1962 N 183.284 -1.43765 0.645699 0
M  V30 1963 C 184.232 -2.32516 -0.0624849 0
M  V30 1964 C 185.226 -1.48183 -0.820855 0
M  V30 1965 O 186.432 -1.64439 -0.732106 0
M  V30 1966 H 182.807 -0.750989 -0.0389864 0
M  V30 1967 H 184.778 -2.89979 0.703892 0
M  V30 1968 C 183.527 -3.32389 -1.02044 0
M  V30 1969 H 182.85 -3.97301 -0.446312 0
M  V30 1970 H 184.29 -3.97138 -1.48517 0
M  V30 1971 C 182.749 -2.62416 -2.11281 0
M  V30 1972 O 183.279 -2.434 -3.19561 0
M  V30 1973 N 181.485 -2.21913 -1.87624 0
M  V30 1974 H 181.032 -2.37578 -0.995703 0
M  V30 1975 H 180.99 -1.75424 -2.6091 0
M  V30 1976 N 184.763 -0.387143 -1.52771 0
M  V30 1977 C 185.713 0.465942 -2.23188 0
M  V30 1978 C 186.697 1.03138 -1.23496 0
M  V30 1979 O 187.889 0.957845 -1.48843 0
M  V30 1980 C 185.018 1.59384 -3.04059 0
M  V30 1981 C 184.104 1.04024 -4.11144 0
M  V30 1982 N 184.495 0.211416 -5.05358 0
M  V30 1983 C 182.793 1.31295 -4.26237 0
M  V30 1984 C 183.494 -0.0941698 -5.81624 0
M  V30 1985 N 182.47 0.509207 -5.4121 0
M  V30 1986 H 186.272 -0.173856 -2.93385 0
M  V30 1987 H 183.786 -0.19633 -1.61209 0
M  V30 1988 H 185.783 2.21738 -3.53041 0
M  V30 1989 H 184.443 2.23648 -2.35397 0
M  V30 1990 H 185.454 -0.151151 -5.17679 0
M  V30 1991 H 182.131 1.95679 -3.68803 0
M  V30 1992 H 183.521 -0.765572 -6.67524 0
M  V30 1993 N 186.241 1.57166 -0.116904 0
M  V30 1994 C 187.171 2.18222 0.830759 0
M  V30 1995 C 188.152 1.12167 1.27877 0
M  V30 1996 O 189.337 1.40394 1.34176 0
M  V30 1997 C 186.467 2.77996 2.08172 0
M  V30 1998 C 185.421 3.89614 1.77157 0
M  V30 1999 C 184.747 4.36187 3.09265 0
M  V30 2000 C 186.047 5.1181 1.04151 0
M  V30 2001 H 187.741 2.97664 0.321992 0
M  V30 2002 H 185.287 1.4318 0.153434 0
M  V30 2003 H 187.24 3.19366 2.74924 0
M  V30 2004 H 185.964 1.9584 2.6137 0
M  V30 2005 H 184.623 3.48816 1.12796 0
M  V30 2006 H 184.271 3.50893 3.60393 0
M  V30 2007 H 183.971 5.11455 2.89288 0
M  V30 2008 H 185.495 4.80207 3.77139 0
M  V30 2009 H 186.909 5.50214 1.61052 0
M  V30 2010 H 185.306 5.92648 0.942762 0
M  V30 2011 H 186.376 4.84892 0.0279022 0
M  V30 2012 N 187.719 -0.156864 1.56817 0
M  V30 2013 C 188.996 -0.899244 1.73704 0
M  V30 2014 C 189.376 -1.99771 0.682254 0
M  V30 2015 O 188.724 -2.26515 -0.300522 0
M  V30 2016 C 188.934 -1.45075 3.17418 0
M  V30 2017 C 190.282 -1.91802 3.7881 0
M  V30 2018 O 191.306 -1.54838 3.20786 0
M  V30 2019 O 190.165 -2.5994 4.80722 0
M  V30 2020 H 187.259 -0.424267 0.709878 0
M  V30 2021 H 189.805 -0.143561 1.69092 0
M  V30 2022 H 188.577 -0.660846 3.85679 0
M  V30 2023 H 188.2 -2.27021 3.26416 0
M  V30 2024 N 189.197 -1.51736 -0.425897 0
M  V30 2025 C 190.107 -1.76738 -1.54275 0
M  V30 2026 C 191.123 -0.65211 -1.61318 0
M  V30 2027 O 192.299 -0.935654 -1.78346 0
M  V30 2028 C 189.364 -1.89755 -2.90162 0
M  V30 2029 C 188.425 -3.13633 -2.93143 0
M  V30 2030 C 187.658 -3.2602 -4.22548 0
M  V30 2031 O 187.881 -2.44067 -5.15546 0
M  V30 2032 O 186.815 -4.19071 -4.32046 0
M  V30 2033 H 190.641 -2.71502 -1.36089 0
M  V30 2034 H 188.226 -1.36376 -0.610069 0
M  V30 2035 H 190.108 -2.00236 -3.70788 0
M  V30 2036 H 188.783 -0.981785 -3.08452 0
M  V30 2037 H 187.69 -3.08622 -2.11431 0
M  V30 2038 H 189.023 -4.04936 -2.798 0
M  V30 2039 N 190.675 0.682077 -1.42076 0
M  V30 2040 C 191.9 1.47558 -1.45744 0
M  V30 2041 C 192.325 1.87977 -0.0680981 0
M  V30 2042 O 191.683 1.55522 0.9318 0
M  V30 2043 C 191.731 2.70575 -2.38373 0
M  V30 2044 O 190.835 3.68573 -1.85007 0
M  V30 2045 H 190.176 0.443585 -0.494093 0
M  V30 2046 H 192.706 0.837238 -1.86686 0
M  V30 2047 H 192.716 3.18729 -2.54707 0
M  V30 2048 H 191.391 2.40495 -3.39315 0
M  V30 2049 H 189.968 3.2757 -1.78192 0
M  V30 2050 N 192.153 1.28127 0.917671 0
M  V30 2051 C 193.083 1.14248 2.03641 0
M  V30 2052 C 194.064 0.0412748 1.7005 0
M  V30 2053 O 195.249 0.217566 1.92977 0
M  V30 2054 C 192.379 0.799431 3.37974 0
M  V30 2055 C 191.333 1.85497 3.85713 0
M  V30 2056 C 190.659 1.36565 5.16966 0
M  V30 2057 C 191.959 3.26085 4.08002 0
M  V30 2058 H 193.653 2.07835 2.15511 0
M  V30 2059 H 191.199 1.00064 1.03553 0
M  V30 2060 H 193.152 0.689114 4.15727 0
M  V30 2061 H 191.876 -0.172145 3.26146 0
M  V30 2062 H 190.535 1.95437 3.10161 0
M  V30 2063 H 190.183 0.383253 5.01538 0
M  V30 2064 H 189.883 2.07143 5.49878 0
M  V30 2065 H 191.407 1.26848 5.97279 0
M  V30 2066 H 192.821 3.19089 4.76293 0
M  V30 2067 H 191.218 3.94462 4.52238 0
M  V30 2068 H 192.288 3.70394 3.12948 0
M  V30 2069 N 193.631 -1.12557 1.10312 0
M  V30 2070 C 194.563 -2.17971 0.708625 0
M  V30 2071 C 195.576 -1.60806 -0.254027 0
M  V30 2072 O 196.765 -1.78458 -0.0386891 0
M  V30 2073 C 193.865 -3.38891 0.0248198 0
M  V30 2074 C 193.038 -4.25548 1.01132 0
M  V30 2075 C 192.097 -5.24972 0.35924 0
M  V30 2076 O 191.123 -5.60174 1.00965 0
M  V30 2077 N 192.325 -5.73747 -0.882847 0
M  V30 2078 H 195.09 -2.52427 1.61557 0
M  V30 2079 H 192.651 -1.27967 0.991771 0
M  V30 2080 H 194.643 -4.02485 -0.422852 0
M  V30 2081 H 193.213 -3.02596 -0.784514 0
M  V30 2082 H 192.433 -3.58589 1.6373 0
M  V30 2083 H 193.721 -4.80294 1.67914 0
M  V30 2084 H 193.119 -5.4731 -1.43065 0
M  V30 2085 H 191.676 -6.39234 -1.27369 0
M  V30 2086 N 195.109 -0.891671 -1.2995 0
M  V30 2087 C 196.056 -0.361736 -2.27948 0
M  V30 2088 C 197.026 0.551761 -1.56668 0
M  V30 2089 O 198.211 0.478736 -1.84696 0
M  V30 2090 C 195.351 0.411825 -3.42634 0
M  V30 2091 C 194.464 -0.531651 -4.28716 0
M  V30 2092 C 193.599 0.258167 -5.30572 0
M  V30 2093 C 192.638 -0.680349 -6.08307 0
M  V30 2094 N 191.775 0.0745613 -7.0206 0
M  V30 2095 H 196.615 -1.20254 -2.72659 0
M  V30 2096 H 194.152 -0.604352 -1.34112 0
M  V30 2097 H 196.11 0.876304 -4.07893 0
M  V30 2098 H 194.74 1.21715 -2.98974 0
M  V30 2099 H 193.792 -1.11463 -3.63703 0
M  V30 2100 H 195.104 -1.25038 -4.82874 0
M  V30 2101 H 194.258 0.784204 -6.0161 0
M  V30 2102 H 192.997 1.01008 -4.77126 0
M  V30 2103 H 192.002 -1.21796 -5.3614 0
M  V30 2104 H 193.227 -1.43145 -6.63842 0
M  V30 2105 H 191.173 0.808883 -6.50994 0
M  V30 2106 H 191.09 -0.584409 -7.53738 0
M  V30 2107 H 192.358 0.581123 -7.77331 0
M  V30 2108 N 196.587 1.43421 -0.653314 0
M  V30 2109 C 197.534 2.30768 0.0382271 0
M  V30 2110 C 198.504 1.44755 0.814576 0
M  V30 2111 O 199.689 1.73624 0.791162 0
M  V30 2112 C 196.829 3.30336 0.998599 0
M  V30 2113 C 195.942 4.31448 0.218342 0
M  V30 2114 C 195.077 5.18098 1.17252 0
M  V30 2115 C 194.116 6.10902 0.382702 0
M  V30 2116 N 193.253 6.90176 1.28848 0
M  V30 2117 H 198.093 2.89357 -0.712511 0
M  V30 2118 H 195.63 1.42548 -0.363128 0
M  V30 2119 H 197.588 3.86572 1.56901 0
M  V30 2120 H 196.218 2.73397 1.71621 0
M  V30 2121 H 195.27 3.77506 -0.46836 0
M  V30 2122 H 196.582 4.97227 -0.395812 0
M  V30 2123 H 195.736 5.7896 1.81356 0
M  V30 2124 H 194.475 4.52444 1.82058 0
M  V30 2125 H 193.48 5.49128 -0.27169 0
M  V30 2126 H 194.705 6.78598 -0.260957 0
M  V30 2127 H 192.651 6.27171 1.92334 0
M  V30 2128 H 192.568 7.52478 0.728887 0
M  V30 2129 H 193.836 7.55543 1.91766 0
M  V30 2130 N 198.065 0.39524 1.52563 0
M  V30 2131 C 199.028 -0.425001 2.25225 0
M  V30 2132 C 200.028 -0.985266 1.27079 0
M  V30 2133 O 201.218 -0.866332 1.5113 0
M  V30 2134 C 198.35 -1.59686 3.01186 0
M  V30 2135 H 199.543 0.211233 2.99155 0
M  V30 2136 H 197.096 0.147472 1.55603 0
M  V30 2137 H 197.831 -2.27035 2.31572 0
M  V30 2138 H 197.616 -1.20176 3.73229 0
M  V30 2139 H 199.106 -2.17743 3.5634 0
M  V30 2140 N 199.544 -1.57102 0.125237 0
M  V30 2141 C 200.474 -2.18659 -0.819174 0
M  V30 2142 C 201.455 -1.12843 -1.27281 0
M  V30 2143 O 202.64 -1.41104 -1.33429 0
M  V30 2144 C 199.77 -2.79096 -2.06695 0
M  V30 2145 C 198.724 -3.90548 -1.75088 0
M  V30 2146 C 198.05 -4.37821 -3.06948 0
M  V30 2147 C 199.35 -5.12356 -1.01435 0
M  V30 2148 H 201.044 -2.9783 -0.306202 0
M  V30 2149 H 198.59 -1.4326 -0.145839 0
M  V30 2150 H 200.543 -3.2082 -2.73226 0
M  V30 2151 H 199.267 -1.97223 -2.60328 0
M  V30 2152 H 197.926 -3.49409 -1.10944 0
M  V30 2153 H 197.574 -3.52799 -3.58527 0
M  V30 2154 H 197.274 -5.12982 -2.86571 0
M  V30 2155 H 198.798 -4.822 -3.74587 0
M  V30 2156 H 200.212 -5.5106 -1.58132 0
M  V30 2157 H 198.609 -5.9314 -0.911319 0
M  V30 2158 H 199.679 -4.849 -0.00218681 0
M  V30 2159 N 201.022 0.148545 -1.56898 0
M  V30 2160 C 201.952 1.18524 -2.01182 0
M  V30 2161 C 202.933 1.4489 -0.891123 0
M  V30 2162 O 204.118 1.55836 -1.15882 0
M  V30 2163 C 201.248 2.51879 -2.39112 0
M  V30 2164 C 200.202 2.40038 -3.54353 0
M  V30 2165 C 199.528 3.78089 -3.78091 0
M  V30 2166 C 200.828 1.88577 -4.87069 0
M  V30 2167 H 202.522 0.817029 -2.88036 0
M  V30 2168 H 200.068 0.391575 -1.38574 0
M  V30 2169 H 202.021 3.24627 -2.68692 0
M  V30 2170 H 200.745 2.90532 -1.49193 0
M  V30 2171 H 199.404 1.69742 -3.24936 0
M  V30 2172 H 199.052 4.14175 -2.85426 0
M  V30 2173 H 198.752 3.71028 -4.55645 0
M  V30 2174 H 200.276 4.52387 -4.10095 0
M  V30 2175 H 201.69 2.51117 -5.15377 0
M  V30 2176 H 200.087 1.9241 -5.68417 0
M  V30 2177 H 201.157 0.84136 -4.77545 0
M  V30 2178 N 202.5 1.5196 0.417844 0
M  V30 2179 C 203.448 1.75278 1.52907 0
M  V30 2180 C 204.442 0.619611 1.57662 0
M  V30 2181 O 205.648 0.801457 1.61173 0
M  V30 2182 H 202.023 0.554141 0.508362 0
M  V30 2183 H 203.994 2.68389 1.30422 0
M  V30 2184 C 202.743 1.91262 2.90369 0
M  V30 2185 H 202.066 2.77872 2.8745 0
M  V30 2186 H 203.506 2.11581 3.67436 0
M  V30 2187 C 201.965 0.677431 3.30019 0
M  V30 2188 O 202.495 -0.158799 4.01386 0
M  V30 2189 N 200.701 0.515851 2.85985 0
M  V30 2190 H 200.248 1.19744 2.28077 0
M  V30 2191 H 200.206 -0.309315 3.12875 0
M  V30 2192 N 203.978 -0.674533 1.42435 0
M  V30 2193 C 204.888 -1.81751 1.48337 0
M  V30 2194 C 205.904 -1.69975 0.372099 0
M  V30 2195 O 207.08 -1.91521 0.62304 0
M  V30 2196 C 204.145 -3.17895 1.38361 0
M  V30 2197 C 203.206 -3.41625 2.59982 0
M  V30 2198 C 202.439 -4.71274 2.50473 0
M  V30 2199 O 202.662 -5.49197 1.54075 0
M  V30 2200 O 201.596 -4.96254 3.4061 0
M  V30 2201 H 205.422 -1.79728 2.44809 0
M  V30 2202 H 203.007 -0.830312 1.24202 0
M  V30 2203 H 204.889 -3.99136 1.35161 0
M  V30 2204 H 203.564 -3.20555 0.450144 0
M  V30 2205 H 202.471 -2.60231 2.68757 0
M  V30 2206 H 203.804 -3.43796 3.52229 0
M  V30 2207 N 205.456 -1.28612 -0.910864 0
M  V30 2208 C 206.366 -1.14643 -2.0468 0
M  V30 2209 C 207.382 -0.0723121 -1.7385 0
M  V30 2210 O 208.558 -0.282178 -1.99413 0
M  V30 2211 C 205.623 -0.812561 -3.37044 0
M  V30 2212 C 204.684 -1.96935 -3.81465 0
M  V30 2213 C 203.917 -1.65131 -5.07511 0
M  V30 2214 O 204.14 -0.567013 -5.67575 0
M  V30 2215 O 203.074 -2.49585 -5.47714 0
M  V30 2216 H 206.9 -2.1001 -2.19384 0
M  V30 2217 H 204.485 -1.07958 -1.03274 0
M  V30 2218 H 206.367 -0.640441 -4.16505 0
M  V30 2219 H 205.042 0.111426 -3.23508 0
M  V30 2220 H 203.949 -2.19664 -3.02818 0
M  V30 2221 H 205.282 -2.87414 -3.99567 0
M  V30 2222 N 206.934 1.1197 -1.10907 0
M  V30 2223 C 208.18 1.8386 -0.855773 0
M  V30 2224 C 208.513 1.84134 0.617103 0
M  V30 2225 O 207.788 1.29041 1.45529 0
M  V30 2226 C 208.071 3.31305 -1.411 0
M  V30 2227 C 207.924 3.39456 -2.9511 0
M  V30 2228 C 209.243 4.2721 -1.05736 0
M  V30 2229 H 206.362 0.667545 -0.312334 0
M  V30 2230 H 209.004 1.31331 -1.37303 0
M  V30 2231 H 207.154 3.76169 -0.97105 0
M  V30 2232 H 208.826 3.03191 -3.47668 0
M  V30 2233 H 207.069 2.79849 -3.31462 0
M  V30 2234 H 207.74 4.43209 -3.29044 0
M  V30 2235 H 210.216 3.90497 -1.43706 0
M  V30 2236 H 209.092 5.28775 -1.47269 0
M  V30 2237 H 209.353 4.42088 0.0325958 0
M  V30 2238 N 208.412 0.89855 1.29475 0
M  V30 2239 C 209.375 0.380272 2.26023 0
M  V30 2240 C 210.375 -0.484891 1.53315 0
M  V30 2241 O 211.565 -0.290108 1.71767 0
M  V30 2242 C 208.697 -0.45651 3.3783 0
M  V30 2243 H 209.89 1.23295 2.73383 0
M  V30 2244 H 207.443 0.676589 1.40897 0
M  V30 2245 H 208.178 -1.32922 2.95808 0
M  V30 2246 H 207.963 0.163393 3.91759 0
M  V30 2247 H 209.453 -0.810466 4.0966 0
M  V30 2248 N 209.89 -1.43072 0.660911 0
M  V30 2249 C 211.306 -1.56169 0.329173 0
M  V30 2250 C 211.506 -1.64317 -1.16629 0
M  V30 2251 O 210.562 -1.60245 -1.95135 0
M  V30 2252 C 211.875 -2.81873 1.04729 0
M  V30 2253 C 213.423 -2.95627 1.02828 0
M  V30 2254 C 213.898 -4.24174 1.72744 0
M  V30 2255 N 215.389 -4.31055 1.69545 0
M  V30 2256 C 216.124 -5.29304 2.20511 0
M  V30 2257 N 215.62 -6.33786 2.79799 0
M  V30 2258 N 217.413 -5.21008 2.10966 0
M  V30 2259 H 209.564 -1.36027 1.63127 0
M  V30 2260 H 211.827 -0.653823 0.686454 0
M  V30 2261 H 211.533 -2.81942 2.10242 0
M  V30 2262 H 211.407 -3.72338 0.603702 0
M  V30 2263 H 213.794 -2.95094 -0.0184742 0
M  V30 2264 H 213.875 -2.06431 1.51063 0
M  V30 2265 H 213.519 -4.25467 2.7738 0
M  V30 2266 H 213.449 -5.1228 1.2197 0
M  V30 2267 H 215.94 -3.56174 1.26288 0
M  V30 2268 H 216.253 -7.05086 3.16344 0
M  V30 2269 H 214.598 -6.34387 2.83863 0
M  V30 2270 H 217.789 -4.38301 1.64347 0
M  V30 2271 H 217.962 -5.97416 2.50993 0
M  V30 2272 N 211.368 -0.403325 -1.52352 0
M  V30 2273 C 212.784 -0.0539281 -1.59509 0
M  V30 2274 C 212.984 1.43307 -1.41652 0
M  V30 2275 O 212.04 2.19924 -1.24056 0
M  V30 2276 C 213.353 -0.543654 -2.95745 0
M  V30 2277 C 214.901 -0.501125 -3.08962 0
M  V30 2278 C 215.376 -0.967267 -4.47669 0
M  V30 2279 N 216.867 -0.923849 -4.53893 0
M  V30 2280 C 217.602 -1.25578 -5.5948 0
M  V30 2281 N 217.098 -1.65889 -6.72646 0
M  V30 2282 N 218.891 -1.17613 -5.49658 0
M  V30 2283 H 211.042 -1.37123 -1.62206 0
M  V30 2284 H 213.305 -0.56294 -0.76276 0
M  V30 2285 H 213.011 -1.58275 -3.14073 0
M  V30 2286 H 212.885 0.0498042 -3.77167 0
M  V30 2287 H 215.272 0.528909 -2.90321 0
M  V30 2288 H 215.353 -1.13056 -2.2946 0
M  V30 2289 H 214.997 -1.9956 -4.67053 0
M  V30 2290 H 214.927 -0.314698 -5.25659 0
M  V30 2291 H 217.418 -0.627403 -3.72655 0
M  V30 2292 H 217.731 -1.89543 -7.49195 0
M  V30 2293 H 216.076 -1.69787 -6.73942 0
M  V30 2294 H 219.267 -0.860115 -4.6013 0
M  V30 2295 H 219.44 -1.43812 -6.3184 0
M  V30 2296 N 212.846 1.57033 -0.133567 0
M  V30 2297 C 213.809 2.14897 0.796995 0
M  V30 2298 C 214.809 1.0874 1.18458 0
M  V30 2299 O 215.999 1.34446 1.1077 0
M  V30 2300 C 213.131 2.70112 2.07973 0
M  V30 2301 H 214.324 2.98457 0.293873 0
M  V30 2302 H 211.877 1.55871 0.115787 0
M  V30 2303 H 212.612 1.9018 2.62682 0
M  V30 2304 H 212.397 3.47764 1.81115 0
M  V30 2305 H 213.887 3.14738 2.74462 0
M  V30 2306 N 214.325 -0.140222 1.56975 0
M  V30 2307 C 215.235 -1.19223 2.02047 0
M  V30 2308 C 216.251 -1.46612 0.937062 0
M  V30 2309 O 217.427 -1.58148 1.24704 0
M  V30 2310 C 214.492 -2.50414 2.39778 0
M  V30 2311 C 213.553 -2.30612 3.621 0
M  V30 2312 C 212.786 -3.55547 3.98023 0
M  V30 2313 O 213.009 -4.62004 3.34528 0
M  V30 2314 O 211.943 -3.47808 4.91237 0
M  V30 2315 H 215.769 -0.839559 2.91865 0
M  V30 2316 H 213.354 -0.349453 1.45256 0
M  V30 2317 H 215.236 -3.27747 2.64877 0
M  V30 2318 H 213.911 -2.85198 1.53114 0
M  V30 2319 H 212.818 -1.51207 3.4218 0
M  V30 2320 H 214.151 -2.00741 4.49404 0
M  V30 2321 N 215.803 -1.52179 -0.40978 0
M  V30 2322 C 216.75 -1.75475 -1.49924 0
M  V30 2323 C 217.72 -0.597175 -1.54994 0
M  V30 2324 O 218.905 -0.834655 -1.71575 0
M  V30 2325 C 216.045 -1.9107 -2.87378 0
M  V30 2326 C 215.158 -3.18717 -2.91622 0
M  V30 2327 C 214.293 -3.24747 -4.20372 0
M  V30 2328 C 213.332 -4.46598 -4.18588 0
M  V30 2329 N 212.469 -4.50025 -5.38908 0
M  V30 2330 H 217.309 -2.68458 -1.29361 0
M  V30 2331 H 214.846 -1.33024 -0.627934 0
M  V30 2332 H 216.804 -1.98096 -3.6717 0
M  V30 2333 H 215.434 -1.01469 -3.06437 0
M  V30 2334 H 214.486 -3.20866 -2.04326 0
M  V30 2335 H 215.798 -4.08544 -2.86169 0
M  V30 2336 H 214.952 -3.30841 -5.08556 0
M  V30 2337 H 213.691 -2.32857 -4.28519 0
M  V30 2338 H 212.696 -4.40652 -3.28794 0
M  V30 2339 H 213.921 -5.39783 -4.12081 0
M  V30 2340 H 211.867 -3.61017 -5.47725 0
M  V30 2341 H 211.784 -5.33697 -5.35447 0
M  V30 2342 H 213.052 -4.60347 -6.29048 0
M  V30 2343 N 217.281 0.66697 -1.42791 0
M  V30 2344 C 218.211 1.79218 -1.49677 0
M  V30 2345 C 219.192 1.66405 -0.352623 0
M  V30 2346 O 220.377 1.85708 -0.567993 0
M  V30 2347 C 217.507 3.17565 -1.40605 0
M  V30 2348 C 216.461 3.45124 -2.53127 0
M  V30 2349 C 215.787 4.83127 -2.29112 0
M  V30 2350 C 217.087 3.41236 -3.95418 0
M  V30 2351 H 218.781 1.73713 -2.43853 0
M  V30 2352 H 216.327 0.83432 -1.17367 0
M  V30 2353 H 218.28 3.96022 -1.44029 0
M  V30 2354 H 217.004 3.23767 -0.429271 0
M  V30 2355 H 215.663 2.69031 -2.49034 0
M  V30 2356 H 215.311 4.85988 -1.29709 0
M  V30 2357 H 215.011 5.02528 -3.04531 0
M  V30 2358 H 216.535 5.63859 -2.34297 0
M  V30 2359 H 217.949 4.09651 -4.01073 0
M  V30 2360 H 216.346 3.72173 -4.70752 0
M  V30 2361 H 217.416 2.39665 -4.21532 0
M  V30 2362 N 218.759 1.29093 0.90403 0
M  V30 2363 C 219.689 1.16401 2.02418 0
M  V30 2364 C 220.67 0.0593085 1.69997 0
M  V30 2365 O 221.855 0.238021 1.92736 0
M  V30 2366 C 218.985 0.835233 3.37107 0
M  V30 2367 C 217.939 1.89578 3.83724 0
M  V30 2368 C 217.265 1.42041 5.15489 0
M  V30 2369 C 218.565 3.30394 4.04521 0
M  V30 2370 H 220.259 2.10109 2.13295 0
M  V30 2371 H 217.805 1.01157 1.02486 0
M  V30 2372 H 219.758 0.733169 4.14973 0
M  V30 2373 H 218.482 -0.137543 3.2631 0
M  V30 2374 H 217.141 1.98715 3.08071 0
M  V30 2375 H 216.789 0.436426 5.01103 0
M  V30 2376 H 216.489 2.12964 5.4765 0
M  V30 2377 H 218.013 1.33176 5.959 0
M  V30 2378 H 219.427 3.24123 4.72882 0
M  V30 2379 H 217.824 3.99237 4.48029 0
M  V30 2380 H 218.894 3.73692 3.09002 0
M  V30 2381 N 220.237 -1.11381 1.11499 0
M  V30 2382 C 221.485 -1.8277 0.862524 0
M  V30 2383 C 221.806 -1.85097 -0.613534 0
M  V30 2384 O 221.076 -1.32198 -1.4457 0
M  V30 2385 H 219.656 -0.676823 0.316101 0
M  V30 2386 H 222.318 -1.34816 1.4075 0
M  V30 2387 H 221.414 -2.86614 1.23527 0
M  V30 2388 N 221.715 -0.905404 -1.28997 0
M  V30 2389 C 222.962 -0.534248 -1.95325 0
M  V30 2390 C 223.29 0.920535 -1.71337 0
M  V30 2391 O 222.545 1.66861 -1.02254 0
M  V30 2392 C 222.844 -0.779906 -3.48787 0
M  V30 2393 C 222.51 -2.21293 -3.92861 0
M  V30 2394 C 221.172 -2.60475 -4.04606 0
M  V30 2395 C 223.524 -3.14587 -4.15553 0
M  V30 2396 C 220.852 -3.9212 -4.36416 0
M  V30 2397 C 223.204 -4.45787 -4.48839 0
M  V30 2398 C 221.868 -4.84834 -4.58794 0
M  V30 2399 H 221.138 -0.195495 -0.714747 0
M  V30 2400 H 223.785 -1.14514 -1.53488 0
M  V30 2401 H 222.09 -0.0861365 -3.91705 0
M  V30 2402 H 223.787 -0.472029 -3.98212 0
M  V30 2403 H 220.377 -1.89887 -3.84241 0
M  V30 2404 H 224.561 -2.85528 -4.0594 0
M  V30 2405 H 219.817 -4.22086 -4.42327 0
M  V30 2406 H 223.991 -5.18098 -4.65346 0
M  V30 2407 H 221.618 -5.86877 -4.83197 0
M  V30 2408 N 223.193 1.4272 -0.668489 0
M  V30 2409 C 224.421 2.05966 -0.196348 0
M  V30 2410 C 224.836 1.50191 1.14403 0
M  V30 2411 O 224.193 0.639208 1.7094 0
M  V30 2412 C 224.244 3.61314 -0.115815 0
M  V30 2413 O 223.965 4.1502 -1.40322 0
M  V30 2414 C 225.466 4.41663 0.380579 0
M  V30 2415 H 222.686 0.663954 -0.0969829 0
M  V30 2416 H 225.23 1.82966 -0.913446 0
M  V30 2417 H 223.385 3.83448 0.551931 0
M  V30 2418 H 223.799 5.08832 -1.27243 0
M  V30 2419 H 225.273 5.5065 0.385848 0
M  V30 2420 H 225.75 4.15792 1.41471 0
M  V30 2421 H 226.356 4.24534 -0.255209 0
M  V30 2422 N 224.671 0.411399 1.52136 0
M  V30 2423 C 226.082 -0.0576826 1.86611 0
M  V30 2424 C 226.433 -1.44238 1.33003 0
M  V30 2425 O 225.558 -2.05759 0.670228 0
M  V30 2426 C 226.153 -0.111448 3.38617 0
M  V30 2427 C 224.712 -0.52487 3.72723 0
M  V30 2428 C 223.859 0.299176 2.75681 0
M  V30 2429 H 226.81 0.628368 1.4573 0
M  V30 2430 H 226.831 -0.926252 3.69054 0
M  V30 2431 H 226.343 0.896488 3.77604 0
M  V30 2432 H 224.444 -1.53936 3.39315 0
M  V30 2433 H 224.557 -0.267681 4.78352 0
M  V30 2434 H 222.921 -0.238814 2.53578 0
M  V30 2435 H 223.704 1.3055 3.17508 0
M  V30 2436 N 226.149 -1.5696 0.141893 0
M  V30 2437 C 227.379 -2.00031 -0.516828 0
M  V30 2438 C 227.787 -1.02091 -1.59293 0
M  V30 2439 O 227.13 -0.00909657 -1.83698 0
M  V30 2440 C 227.192 -3.39534 -1.1814 0
M  V30 2441 C 226.856 -4.56313 -0.250513 0
M  V30 2442 C 227.853 -5.17295 0.519839 0
M  V30 2443 C 225.538 -5.02061 -0.154907 0
M  V30 2444 C 227.532 -6.2243 1.3733 0
M  V30 2445 C 225.219 -6.07053 0.702161 0
M  V30 2446 C 226.217 -6.67106 1.46487 0
M  V30 2447 O 225.905 -7.70066 2.30767 0
M  V30 2448 H 225.637 -0.661451 -0.139493 0
M  V30 2449 H 228.191 -2.04086 0.231926 0
M  V30 2450 H 226.421 -3.32302 -1.97769 0
M  V30 2451 H 228.11 -3.66745 -1.73933 0
M  V30 2452 H 228.876 -4.82852 0.45598 0
M  V30 2453 H 224.755 -4.5505 -0.7383 0
M  V30 2454 H 228.299 -6.69233 1.96909 0
M  V30 2455 H 224.196 -6.40923 0.76733 0
M  V30 2456 H 224.964 -7.87264 2.23959 0
M  V30 2457 N 227.627 0.131896 -1.57047 0
M  V30 2458 C 228.852 0.860418 -1.8871 0
M  V30 2459 C 229.277 1.73251 -0.73251 0
M  V30 2460 O 228.635 1.785 0.317429 0
M  V30 2461 C 228.683 1.68047 -3.19049 0
M  V30 2462 O 227.787 2.7862 -3.04047 0
M  V30 2463 H 227.128 0.238743 -0.619595 0
M  V30 2464 H 229.658 0.118169 -2.04258 0
M  V30 2465 H 229.668 2.07238 -3.51449 0
M  V30 2466 H 228.343 1.04018 -4.02682 0
M  V30 2467 H 226.92 2.42726 -2.83088 0
M  V30 2468 N 229.106 1.52395 0.401703 0
M  V30 2469 C 230.036 1.79231 1.49661 0
M  V30 2470 C 231.017 0.643654 1.57452 0
M  V30 2471 O 232.202 0.889989 1.72606 0
M  V30 2472 C 229.332 1.94971 2.87409 0
M  V30 2473 C 228.286 3.10604 2.94465 0
M  V30 2474 C 227.612 3.11577 4.34538 0
M  V30 2475 C 228.912 4.49921 2.6527 0
M  V30 2476 H 230.606 2.70917 1.27454 0
M  V30 2477 H 228.152 1.30362 0.6117 0
M  V30 2478 H 230.105 2.12328 3.63999 0
M  V30 2479 H 228.829 0.999632 3.10926 0
M  V30 2480 H 227.488 2.93009 2.20321 0
M  V30 2481 H 227.136 2.14277 4.55076 0
M  V30 2482 H 226.836 3.89247 4.40183 0
M  V30 2483 H 228.36 3.31073 5.13053 0
M  V30 2484 H 229.774 4.67683 3.31581 0
M  V30 2485 H 228.171 5.29564 2.82281 0
M  V30 2486 H 229.241 4.57507 1.60671 0
M  V30 2487 N 230.584 -0.659388 1.43143 0
M  V30 2488 C 231.514 -1.78422 1.50625 0
M  V30 2489 C 232.495 -1.66216 0.361443 0
M  V30 2490 O 233.68 -1.85404 0.577834 0
M  V30 2491 C 230.81 -3.16815 1.42287 0
M  V30 2492 C 229.764 -3.43777 2.54954 0
M  V30 2493 C 229.09 -4.81905 2.31671 0
M  V30 2494 C 230.39 -3.39134 3.97222 0
M  V30 2495 H 232.084 -1.72417 2.44771 0
M  V30 2496 H 229.63 -0.828084 1.17808 0
M  V30 2497 H 231.583 -3.95253 1.46127 0
M  V30 2498 H 230.307 -3.23534 0.446435 0
M  V30 2499 H 228.966 -2.67707 2.50457 0
M  V30 2500 H 228.614 -4.85294 1.32284 0
M  V30 2501 H 228.314 -5.00906 3.07192 0
M  V30 2502 H 229.838 -5.62609 2.37284 0
M  V30 2503 H 231.252 -4.07518 4.03239 0
M  V30 2504 H 229.649 -3.69671 4.72719 0
M  V30 2505 H 230.719 -2.37426 4.22797 0
M  V30 2506 N 232.062 -1.29571 -0.897171 0
M  V30 2507 C 233.308 -1.18873 -1.65048 0
M  V30 2508 C 233.663 0.256707 -1.9068 0
M  V30 2509 O 232.956 1.18202 -1.50794 0
M  V30 2510 C 233.15 -1.9382 -3.00281 0
M  V30 2511 C 232.979 -3.45503 -2.8785 0
M  V30 2512 C 231.749 -4.14856 -2.88483 0
M  V30 2513 C 233.947 -4.40956 -2.64693 0
M  V30 2514 N 231.929 -5.52886 -2.66815 0
M  V30 2515 C 233.3 -5.66464 -2.5203 0
M  V30 2516 C 235.355 -4.3069 -2.49821 0
M  V30 2517 C 234.058 -6.82871 -2.26008 0
M  V30 2518 C 236.084 -5.46852 -2.25182 0
M  V30 2519 C 235.446 -6.71333 -2.13286 0
M  V30 2520 H 231.545 -0.489998 -0.609447 0
M  V30 2521 H 234.129 -1.63431 -1.05822 0
M  V30 2522 H 232.3 -1.51671 -3.57562 0
M  V30 2523 H 234.032 -1.75366 -3.64731 0
M  V30 2524 H 230.787 -3.66579 -2.99861 0
M  V30 2525 H 231.211 -6.25487 -2.59027 0
M  V30 2526 H 235.853 -3.35141 -2.5776 0
M  V30 2527 H 233.571 -7.78473 -2.16806 0
M  V30 2528 H 237.157 -5.40809 -2.14515 0
M  V30 2529 H 236.037 -7.59701 -1.94485 0
M  V30 2530 N 233.54 1.10788 -1.12088 0
M  V30 2531 C 234.488 2.19111 -0.780587 0
M  V30 2532 C 235.482 1.67818 0.230961 0
M  V30 2533 O 236.688 1.79777 0.0895427 0
M  V30 2534 H 233.063 0.714477 -0.234578 0
M  V30 2535 H 235.034 2.45055 -1.70266 0
M  V30 2536 C 233.783 3.46818 -0.24747 0
M  V30 2537 H 233.106 3.86646 -1.01712 0
M  V30 2538 H 234.546 4.23973 -0.0476291 0
M  V30 2539 C 233.005 3.20968 1.02378 0
M  V30 2540 O 233.535 3.42298 2.10226 0
M  V30 2541 N 231.741 2.74658 0.949271 0
M  V30 2542 H 231.288 2.57501 0.0715173 0
M  V30 2543 H 231.246 2.57739 1.80049 0
M  V30 2544 N 235.018 0.912232 1.28515 0
M  V30 2545 C 235.966 0.389597 2.29314 0
M  V30 2546 C 236.96 -0.517915 1.61289 0
M  V30 2547 O 238.166 -0.399328 1.75515 0
M  V30 2548 H 234.541 0.107386 0.744293 0
M  V30 2549 H 236.512 1.25286 2.70825 0
M  V30 2550 C 235.261 -0.356496 3.45868 0
M  V30 2551 H 234.584 0.332608 3.98414 0
M  V30 2552 H 236.024 -0.686851 4.184 0
M  V30 2553 C 234.483 -1.56383 2.98406 0
M  V30 2554 O 235.013 -2.66294 3.00749 0
M  V30 2555 N 233.219 -1.41029 2.54085 0
M  V30 2556 H 232.766 -0.516089 2.52377 0
M  V30 2557 H 232.724 -2.21939 2.22689 0
M  V30 2558 N 236.496 -1.42363 0.676048 0
M  V30 2559 C 237.736 -2.03392 0.20273 0
M  V30 2560 C 238.1 -1.52306 -1.16906 0
M  V30 2561 O 239.301 -2.05129 -1.73711 0
M  V30 2562 C 237.572 -3.56614 0.236947 0
M  V30 2563 S 239.131 -4.38489 -0.165186 0
M  V30 2564 H 235.949 -0.70611 0.0832418 0
M  V30 2565 H 238.551 -1.74093 0.88948 0
M  V30 2566 H 237.255 -3.91293 1.23767 0
M  V30 2567 H 236.786 -3.90587 -0.469596 0
M  V30 2568 H 238.801 -4.76093 -1.39822 0
M  V30 2569 N 237.974 -0.419461 -1.51915 0
M  V30 2570 C 238.884 0.407528 -2.31033 0
M  V30 2571 C 239.9 1.04413 -1.3919 0
M  V30 2572 O 241.076 1.0434 -1.72265 0
M  V30 2573 C 238.141 1.50365 -3.12396 0
M  V30 2574 C 237.202 0.889029 -4.19994 0
M  V30 2575 C 236.435 1.93291 -4.97468 0
M  V30 2576 O 236.658 3.15259 -4.75361 0
M  V30 2577 O 235.592 1.53339 -5.8204 0
M  V30 2578 H 239.418 -0.237865 -3.02767 0
M  V30 2579 H 237.003 -0.182413 -1.48282 0
M  V30 2580 H 238.885 2.13975 -3.63032 0
M  V30 2581 H 237.56 2.13345 -2.43445 0
M  V30 2582 H 236.467 0.215353 -3.7348 0
M  V30 2583 H 237.8 0.302991 -4.91267 0
M  V30 2584 N 239.452 1.56882 -0.150215 0
M  V30 2585 C 240.402 2.13501 0.800071 0
M  V30 2586 C 241.386 1.06368 1.20726 0
M  V30 2587 O 242.578 1.32538 1.17314 0
M  V30 2588 C 239.707 2.76271 2.03787 0
M  V30 2589 C 238.793 3.90533 1.65364 0
M  V30 2590 N 239.184 4.96259 0.977794 0
M  V30 2591 C 237.482 4.013 1.94613 0
M  V30 2592 C 238.183 5.76286 0.791794 0
M  V30 2593 N 237.159 5.27163 1.32666 0
M  V30 2594 H 240.961 2.92615 0.274517 0
M  V30 2595 H 238.475 1.62319 0.0512144 0
M  V30 2596 H 240.472 3.15197 2.72867 0
M  V30 2597 H 239.132 1.98631 2.56857 0
M  V30 2598 H 240.143 5.13953 0.638193 0
M  V30 2599 H 236.82 3.3474 2.4951 0
M  V30 2600 H 238.21 6.71401 0.258894 0
M  V30 2601 N 240.93 -0.123565 1.57115 0
M  V30 2602 C 242.177 -0.832153 1.84612 0
M  V30 2603 C 242.505 -1.80093 0.734627 0
M  V30 2604 O 241.76 -1.93766 -0.27442 0
M  V30 2605 C 242.059 -1.62016 3.18568 0
M  V30 2606 C 241.725 -0.796084 4.43817 0
M  V30 2607 C 240.387 -0.568816 4.77826 0
M  V30 2608 C 242.739 -0.221364 5.2073 0
M  V30 2609 C 240.067 0.243499 5.86194 0
M  V30 2610 C 242.419 0.578117 6.29953 0
M  V30 2611 C 241.083 0.815744 6.62497 0
M  V30 2612 H 240.353 -0.304507 0.675542 0
M  V30 2613 H 243 -0.0947248 1.91266 0
M  V30 2614 H 241.305 -2.42837 3.0747 0
M  V30 2615 H 243.002 -2.17231 3.37064 0
M  V30 2616 H 239.592 -0.983307 4.17168 0
M  V30 2617 H 243.776 -0.384173 4.94811 0
M  V30 2618 H 239.032 0.436871 6.09837 0
M  V30 2619 H 243.206 1.03046 6.88734 0
M  V30 2620 H 240.833 1.44701 7.46301 0
M  V30 2621 N 242.408 -1.52605 -0.393616 0
M  V30 2622 C 243.654 -1.67672 -1.14079 0
M  V30 2623 C 243.987 -0.413121 -1.89755 0
M  V30 2624 O 243.262 0.588952 -1.85369 0
M  V30 2625 C 243.545 -2.9088 -2.12276 0
M  V30 2626 C 243.398 -4.27329 -1.40394 0
M  V30 2627 C 244.717 -3.09628 -3.12759 0
M  V30 2628 H 241.836 -0.610168 -0.413356 0
M  V30 2629 H 244.478 -1.85193 -0.424696 0
M  V30 2630 H 242.628 -2.76073 -2.73342 0
M  V30 2631 H 244.3 -4.53894 -0.82327 0
M  V30 2632 H 242.543 -4.2802 -0.705801 0
M  V30 2633 H 243.214 -5.09615 -2.12123 0
M  V30 2634 H 245.69 -3.23436 -2.61779 0
M  V30 2635 H 244.566 -3.97322 -3.78717 0
M  V30 2636 H 244.827 -2.23637 -3.81365 0
M  V30 2637 N 243.887 0.651787 -1.4349 0
M  V30 2638 C 245.115 1.43937 -1.48626 0
M  V30 2639 C 245.53 1.8851 -0.104587 0
M  V30 2640 O 244.887 1.5958 0.885464 0
M  V30 2641 C 244.938 2.6734 -2.43334 0
M  V30 2642 O 244.659 2.24631 -3.76128 0
M  V30 2643 C 246.16 3.60683 -2.57726 0
M  V30 2644 H 243.38 0.44213 -0.504739 0
M  V30 2645 H 245.924 0.798944 -1.88248 0
M  V30 2646 H 244.079 3.2752 -2.06904 0
M  V30 2647 H 244.493 3.04485 -4.2707 0
M  V30 2648 H 245.967 4.43933 -3.28067 0
M  V30 2649 H 246.444 4.08126 -1.62265 0
M  V30 2650 H 247.05 3.06384 -2.94973 0
M  V30 2651 N 245.365 1.30045 0.890287 0
M  V30 2652 C 246.595 1.21296 1.67245 0
M  V30 2653 C 247.003 -0.227471 1.87828 0
M  V30 2654 O 246.346 -1.16296 1.422 0
M  V30 2655 C 246.408 1.86519 3.07329 0
M  V30 2656 C 246.072 3.35837 3.09939 0
M  V30 2657 C 247.069 4.31915 2.89389 0
M  V30 2658 C 244.754 3.77196 3.31706 0
M  V30 2659 C 246.748 5.67325 2.90552 0
M  V30 2660 C 244.435 5.12725 3.32499 0
M  V30 2661 C 245.433 6.076 3.11947 0
M  V30 2662 O 245.121 7.40655 3.12547 0
M  V30 2663 H 244.853 0.4211 0.528821 0
M  V30 2664 H 247.407 1.72111 1.12103 0
M  V30 2665 H 245.637 1.30228 3.64112 0
M  V30 2666 H 247.326 1.71963 3.67673 0
M  V30 2667 H 248.092 4.01294 2.72375 0
M  V30 2668 H 243.971 3.03796 3.4674 0
M  V30 2669 H 247.515 6.41354 2.74429 0
M  V30 2670 H 243.412 5.42988 3.49047 0
M  V30 2671 H 244.18 7.49577 3.28749 0
M  V30 2672 N 246.843 -1.10192 1.12674 0
M  V30 2673 C 248.083 -1.83825 0.893736 0
M  V30 2674 C 248.447 -1.83341 -0.570082 0
M  V30 2675 O 249.648 -2.52553 -0.920354 0
M  V30 2676 C 247.919 -3.26405 1.45582 0
M  V30 2677 S 249.478 -4.17136 1.36171 0
M  V30 2678 H 246.296 -0.633732 0.322342 0
M  V30 2679 H 248.898 -1.32581 1.43675 0
M  V30 2680 H 247.602 -3.24329 2.51473 0
M  V30 2681 H 247.133 -3.82721 0.910405 0
M  V30 2682 H 249.148 -4.95069 0.334863 0
M  V30 2683 N 248.321 -0.919034 -1.28029 0
M  V30 2684 C 249.737 -0.617972 -1.4715 0
M  V30 2685 C 249.937 0.835242 -1.83374 0
M  V30 2686 O 248.993 1.61388 -1.94191 0
M  V30 2687 C 250.306 -1.56041 -2.57044 0
M  V30 2688 C 251.854 -1.56769 -2.7091 0
M  V30 2689 C 252.329 -2.49688 -3.83953 0
M  V30 2690 N 253.82 -2.47845 -3.91314 0
M  V30 2691 C 254.555 -3.16437 -4.78179 0
M  V30 2692 N 254.051 -3.94376 -5.69596 0
M  V30 2693 N 255.844 -3.05498 -4.71834 0
M  V30 2694 H 247.995 -1.85866 -1.02798 0
M  V30 2695 H 250.258 -0.797506 -0.512531 0
M  V30 2696 H 249.964 -2.59671 -2.372 0
M  V30 2697 H 249.838 -1.29551 -3.54255 0
M  V30 2698 H 252.225 -0.538745 -2.90141 0
M  V30 2699 H 252.306 -1.87305 -1.74214 0
M  V30 2700 H 251.95 -3.52688 -3.65477 0
M  V30 2701 H 251.88 -2.16453 -4.80058 0
M  V30 2702 H 254.371 -1.91234 -3.25941 0
M  V30 2703 H 254.684 -4.43721 -6.32718 0
M  V30 2704 H 253.029 -3.98481 -5.69419 0
M  V30 2705 H 256.22 -2.44108 -3.99411 0
M  V30 2706 H 256.393 -3.59225 -5.39316 0
M  V30 2707 N 249.799 1.42003 -0.683588 0
M  V30 2708 C 251.029 2.05448 -0.217866 0
M  V30 2709 C 251.437 1.51491 1.13346 0
M  V30 2710 O 250.78 0.653048 1.717 0
M  V30 2711 C 250.842 3.59399 -0.0850118 0
M  V30 2712 C 250.506 4.36093 -1.36645 0
M  V30 2713 C 251.503 4.66169 -2.30179 0
M  V30 2714 C 249.188 4.75578 -1.61649 0
M  V30 2715 C 251.182 5.34676 -3.46988 0
M  V30 2716 C 248.869 5.43824 -2.78745 0
M  V30 2717 C 249.867 5.73299 -3.71238 0
M  V30 2718 O 249.555 6.40142 -4.86285 0
M  V30 2719 H 249.287 0.668344 -0.101454 0
M  V30 2720 H 251.841 1.82974 -0.933248 0
M  V30 2721 H 250.071 3.80566 0.686031 0
M  V30 2722 H 251.76 4.04457 0.341973 0
M  V30 2723 H 252.526 4.36156 -2.12115 0
M  V30 2724 H 248.405 4.52025 -0.905243 0
M  V30 2725 H 251.949 5.57599 -4.19201 0
M  V30 2726 H 247.846 5.73254 -2.96732 0
M  V30 2727 H 248.614 6.58636 -4.85944 0
M  V30 2728 N 251.277 0.427512 1.51691 0
M  V30 2729 C 252.525 -0.141948 2.01601 0
M  V30 2730 C 252.846 -1.44067 1.31414 0
M  V30 2731 O 252.116 -1.90763 0.445658 0
M  V30 2732 H 250.696 -0.0554468 0.744939 0
M  V30 2733 H 253.358 0.567968 1.86441 0
M  V30 2734 H 252.454 -0.324913 3.10404 0
M  V30 2735 N 252.755 -1.56801 0.158532 0
M  V30 2736 C 253.983 -2.00859 -0.496303 0
M  V30 2737 C 254.398 -1.03871 -1.57659 0
M  V30 2738 O 253.755 -0.0375165 -1.82461 0
M  V30 2739 C 253.806 -3.4479 -1.08638 0
M  V30 2740 O 253.527 -4.38072 -0.0492322 0
M  V30 2741 C 255.028 -4.04185 -1.8207 0
M  V30 2742 H 252.248 -0.65864 -0.128199 0
M  V30 2743 H 254.792 -2.02885 0.256506 0
M  V30 2744 H 252.947 -3.43579 -1.78975 0
M  V30 2745 H 253.361 -5.2227 -0.483102 0
M  V30 2746 H 254.835 -5.06857 -2.18633 0
M  V30 2747 H 255.312 -3.45549 -2.71095 0
M  V30 2748 H 255.918 -4.0906 -1.16405 0
M  V30 2749 N 254.233 0.115231 -1.57178 0
M  V30 2750 C 255.644 0.67197 -1.74188 0
M  V30 2751 C 255.995 1.80125 -0.777777 0
M  V30 2752 O 255.12 2.16346 0.0484376 0
M  V30 2753 C 255.715 1.22573 -3.1585 0
M  V30 2754 C 254.274 1.72872 -3.34353 0
M  V30 2755 C 253.421 0.629972 -2.70049 0
M  V30 2756 H 256.372 -0.110712 -1.58313 0
M  V30 2757 H 256.393 2.09535 -3.17609 0
M  V30 2758 H 255.905 0.403598 -3.85996 0
M  V30 2759 H 254.006 2.5755 -2.69256 0
M  V30 2760 H 254.119 1.83557 -4.42542 0
M  V30 2761 H 252.483 1.0645 -2.31388 0
M  V30 2762 H 253.266 -0.181241 -3.42821 0
M  V30 2763 N 255.711 1.52812 0.385517 0
M  V30 2764 C 256.96 1.67249 1.12741 0
M  V30 2765 C 257.273 0.4205 1.91027 0
M  V30 2766 O 258.479 0.445064 2.67827 0
M  V30 2767 C 256.935 2.95583 2.05326 0
M  V30 2768 C 256.543 4.27974 1.32447 0
M  V30 2769 C 258.287 3.19386 2.7963 0
M  V30 2770 C 256.194 5.47412 2.23818 0
M  V30 2771 H 255.124 0.6231 0.424573 0
M  V30 2772 H 257.775 1.79309 0.389924 0
M  V30 2773 H 256.157 2.77277 2.82725 0
M  V30 2774 H 257.331 4.56844 0.602495 0
M  V30 2775 H 255.646 4.10459 0.700885 0
M  V30 2776 H 258.243 4.05801 3.48181 0
M  V30 2777 H 258.586 2.34604 3.43899 0
M  V30 2778 H 259.119 3.38274 2.09322 0
M  V30 2779 H 255.858 6.34612 1.64157 0
M  V30 2780 H 255.378 5.22849 2.93921 0
M  V30 2781 H 257.057 5.81423 2.83824 0
M  V30 2782 N 257.189 -0.644168 1.43834 0
M  V30 2783 C 258.414 -1.43642 1.49605 0
M  V30 2784 C 258.839 -1.8773 0.117913 0
M  V30 2785 O 258.197 -1.57938 -0.890239 0
M  V30 2786 C 258.245 -2.6416 2.45463 0
M  V30 2787 O 257.349 -3.63538 1.94714 0
M  V30 2788 H 256.69 -0.430329 0.50568 0
M  V30 2789 H 259.22 -0.787448 1.8884 0
M  V30 2790 H 259.23 -3.11864 2.63068 0
M  V30 2791 H 257.905 -2.31414 3.45572 0
M  V30 2792 H 256.482 -3.2273 1.86814 0
M  V30 2793 N 258.668 -1.30515 -0.883378 0
M  V30 2794 C 260.079 -1.17509 -1.45081 0
M  V30 2795 C 260.43 0.223605 -1.94922 0
M  V30 2796 O 259.555 1.12041 -1.85137 0
M  V30 2797 C 260.15 -2.12715 -2.63701 0
M  V30 2798 C 258.709 -2.03682 -3.16529 0
M  V30 2799 C 257.856 -2.02706 -1.89224 0
M  V30 2800 H 260.807 -1.42762 -0.693165 0
M  V30 2801 H 260.828 -1.70891 -3.39965 0
M  V30 2802 H 260.34 -3.14505 -2.27395 0
M  V30 2803 H 258.441 -1.05039 -3.57488 0
M  V30 2804 H 258.554 -2.92146 -3.7972 0
M  V30 2805 H 256.918 -1.4753 -2.07622 0
M  V30 2806 H 257.701 -3.06229 -1.55174 0
M  V30 2807 N 260.146 1.09593 -1.13257 0
M  V30 2808 C 261.078 2.16015 -0.766167 0
M  V30 2809 C 262.091 1.61423 0.211303 0
M  V30 2810 O 263.28 1.78498 -0.00863946 0
M  V30 2811 C 260.38 3.38706 -0.114662 0
M  V30 2812 C 259.553 4.22717 -1.12379 0
M  V30 2813 C 258.612 5.23835 -0.498301 0
M  V30 2814 O 257.638 5.573 -1.15781 0
M  V30 2815 N 258.84 5.75886 0.730417 0
M  V30 2816 H 261.605 2.48055 -1.68193 0
M  V30 2817 H 259.166 1.25292 -1.02535 0
M  V30 2818 H 261.158 4.03464 0.315991 0
M  V30 2819 H 259.728 3.04569 0.704011 0
M  V30 2820 H 258.948 3.54122 -1.73179 0
M  V30 2821 H 260.236 4.75673 -1.80589 0
M  V30 2822 H 259.634 5.50911 1.28504 0
M  V30 2823 H 258.191 6.42387 1.10376 0
M  V30 2824 N 261.624 0.925811 1.2754 0
M  V30 2825 C 262.849 0.580924 1.99098 0
M  V30 2826 C 263.274 -0.833555 1.68622 0
M  V30 2827 O 262.632 -1.55903 0.925422 0
M  V30 2828 C 262.68 0.811186 3.51358 0
M  V30 2829 O 261.784 -0.124129 4.12213 0
M  V30 2830 H 261.125 0.223873 0.625122 0
M  V30 2831 H 263.655 1.24455 1.62395 0
M  V30 2832 H 263.665 0.72601 4.01489 0
M  V30 2833 H 262.34 1.84227 3.72872 0
M  V30 2834 H 260.917 0.0108006 3.72898 0
M  V30 2835 N 263.102 -1.41638 0.69111 0
M  V30 2836 C 264.379 -1.95036 0.148421 0
M  V30 2837 C 264.759 -1.63072 -1.34055 0
M  V30 2838 O 264.107 -0.93538 -2.08478 0
M  V30 2839 C 264.317 -3.46279 0.434951 0
M  V30 2840 C 265.665 -4.23069 0.360275 0
M  V30 2841 O 266.689 -3.54277 0.369613 0
M  V30 2842 O 265.548 -5.45583 0.316534 0
M  V30 2843 H 262.642 -0.826908 0.0123654 0
M  V30 2844 H 265.188 -1.5138 0.766963 0
M  V30 2845 H 263.96 -3.6281 1.46576 0
M  V30 2846 H 263.583 -3.97019 -0.214787 0
M  V30 2847 N 264.58 -0.43555 -1.51462 0
M  V30 2848 C 265.527 0.376797 -2.27703 0
M  V30 2849 C 266.497 1.01838 -1.31219 0
M  V30 2850 O 267.682 1.03762 -1.60119 0
M  V30 2851 C 264.822 1.47301 -3.12084 0
M  V30 2852 C 263.935 0.849744 -4.2356 0
M  V30 2853 C 263.07 1.92086 -4.95254 0
M  V30 2854 C 262.109 1.27593 -5.98654 0
M  V30 2855 N 261.246 2.28833 -6.63762 0
M  V30 2856 H 266.086 -0.279734 -2.96684 0
M  V30 2857 H 263.623 -0.149795 -1.46335 0
M  V30 2858 H 265.581 2.11984 -3.59331 0
M  V30 2859 H 264.211 2.0992 -2.45221 0
M  V30 2860 H 263.263 0.0912529 -3.80291 0
M  V30 2861 H 264.575 0.338878 -4.97648 0
M  V30 2862 H 263.729 2.64435 -5.46039 0
M  V30 2863 H 262.468 2.46545 -4.20793 0
M  V30 2864 H 261.473 0.537893 -5.47162 0
M  V30 2865 H 262.698 0.738693 -6.7507 0
M  V30 2866 H 260.644 2.82375 -5.92115 0
M  V30 2867 H 260.561 1.82632 -7.33608 0
M  V30 2868 H 261.829 3.00671 -7.19178 0
M  V30 2869 N 266.058 1.56714 -0.166846 0
M  V30 2870 C 267.305 1.96747 0.479252 0
M  V30 2871 C 267.633 1.05263 1.63554 0
M  V30 2872 O 266.888 0.0858098 1.95512 0
M  V30 2873 C 267.187 3.42889 1.00806 0
M  V30 2874 C 266.853 4.50889 -0.0318574 0
M  V30 2875 C 265.515 4.8015 -0.317675 0
M  V30 2876 C 267.867 5.15949 -0.737956 0
M  V30 2877 C 265.195 5.71772 -1.31506 0
M  V30 2878 C 267.547 6.08647 -1.72429 0
M  V30 2879 C 266.211 6.36277 -2.0176 0
M  V30 2880 H 265.481 0.719949 0.175371 0
M  V30 2881 H 268.128 1.89756 -0.257864 0
M  V30 2882 H 266.433 3.4681 1.82291 0
M  V30 2883 H 268.13 3.71203 1.51689 0
M  V30 2884 H 264.72 4.28128 0.201088 0
M  V30 2885 H 268.904 4.93458 -0.530351 0
M  V30 2886 H 264.16 5.91465 -1.54853 0
M  V30 2887 H 268.334 6.58129 -2.27682 0
M  V30 2888 H 265.961 7.07075 -2.79194 0
M  V30 2889 N 267.536 -0.106894 1.57237 0
M  V30 2890 C 268.776 -0.818277 1.87306 0
M  V30 2891 C 269.14 -1.76474 0.756371 0
M  V30 2892 O 270.341 -2.5186 0.939155 0
M  V30 2893 C 268.612 -1.53806 3.22612 0
M  V30 2894 S 270.171 -2.28935 3.74345 0
M  V30 2895 H 266.989 -0.272862 0.656557 0
M  V30 2896 H 269.591 -0.075988 1.95352 0
M  V30 2897 H 268.295 -0.834951 4.01817 0
M  V30 2898 H 267.826 -2.32049 3.17674 0
M  V30 2899 H 269.841 -3.54871 3.46815 0
M  V30 2900 N 269.014 -1.53014 -0.377408 0
M  V30 2901 C 269.924 -1.81557 -1.48574 0
M  V30 2902 C 270.94 -0.703102 -1.59162 0
M  V30 2903 O 272.116 -0.99192 -1.75279 0
M  V30 2904 C 269.181 -1.9889 -2.83978 0
M  V30 2905 C 268.242 -3.22801 -2.83016 0
M  V30 2906 C 267.475 -3.39298 -4.11962 0
M  V30 2907 O 267.698 -2.60345 -5.0752 0
M  V30 2908 O 266.632 -4.32604 -4.18494 0
M  V30 2909 H 270.458 -2.75695 -1.27382 0
M  V30 2910 H 268.043 -1.38248 -0.566373 0
M  V30 2911 H 269.925 -2.11931 -3.6423 0
M  V30 2912 H 268.6 -1.07942 -3.05172 0
M  V30 2913 H 267.507 -3.15193 -2.01505 0
M  V30 2914 H 268.84 -4.13632 -2.66775 0
M  V30 2915 N 270.492 0.636531 -1.44174 0
M  V30 2916 C 271.72 1.42353 -1.50144 0
M  V30 2917 C 272.135 1.88389 -0.124575 0
M  V30 2918 O 271.492 1.6051 0.868489 0
M  V30 2919 C 271.543 2.64744 -2.46156 0
M  V30 2920 O 271.264 2.20629 -3.7849 0
M  V30 2921 C 272.765 3.57929 -2.61537 0
M  V30 2922 H 269.985 0.436752 -0.5094 0
M  V30 2923 H 272.529 0.778933 -1.89084 0
M  V30 2924 H 270.684 3.25307 -2.10366 0
M  V30 2925 H 271.098 2.99938 -4.30276 0
M  V30 2926 H 272.572 4.40428 -3.32757 0
M  V30 2927 H 273.049 4.06382 -1.66585 0
M  V30 2928 H 273.655 3.03238 -2.98206 0
M  V30 2929 N 271.97 1.30982 0.876444 0
M  V30 2930 C 273.216 1.20474 1.63138 0
M  V30 2931 C 273.549 -0.238096 1.92735 0
M  V30 2932 O 272.824 -1.1692 1.55435 0
M  V30 2933 C 273.107 2.04244 2.96574 0
M  V30 2934 C 272.96 3.56793 2.73896 0
M  V30 2935 C 274.279 1.88684 3.97601 0
M  V30 2936 H 271.398 0.439001 0.591985 0
M  V30 2937 H 274.04 1.60704 1.01361 0
M  V30 2938 H 272.19 1.70063 3.493 0
M  V30 2939 H 273.862 4.01077 2.27892 0
M  V30 2940 H 272.105 3.80548 2.08245 0
M  V30 2941 H 272.776 4.10706 3.68815 0
M  V30 2942 H 275.252 2.18584 3.54062 0
M  V30 2943 H 274.128 2.4961 4.88862 0
M  V30 2944 H 274.389 0.848343 4.33884 0
M  V30 2945 N 273.449 -1.08991 1.13837 0
M  V30 2946 C 274.396 -2.15748 0.819835 0
M  V30 2947 C 275.366 -1.64636 -0.220026 0
M  V30 2948 O 276.551 -1.90582 -0.0912757 0
M  V30 2949 C 273.691 -3.4382 0.296913 0
M  V30 2950 C 272.804 -4.0881 1.39636 0
M  V30 2951 C 271.939 -5.24655 0.831314 0
M  V30 2952 C 270.978 -5.81575 1.90886 0
M  V30 2953 N 270.115 -6.88774 1.36142 0
M  V30 2954 H 274.955 -2.42338 1.73426 0
M  V30 2955 H 272.492 -1.18935 0.865613 0
M  V30 2956 H 274.45 -4.17193 -0.0244339 0
M  V30 2957 H 273.08 -3.17535 -0.580628 0
M  V30 2958 H 272.132 -3.33258 1.83422 0
M  V30 2959 H 273.444 -4.47141 2.21058 0
M  V30 2960 H 272.598 -6.04942 0.461515 0
M  V30 2961 H 271.337 -4.87698 -0.013932 0
M  V30 2962 H 270.342 -4.99946 2.28767 0
M  V30 2963 H 271.567 -6.20592 2.75758 0
M  V30 2964 H 269.513 -6.53788 0.538254 0
M  V30 2965 H 269.43 -7.25898 2.11208 0
M  V30 2966 H 270.698 -7.72806 1.01933 0
M  V30 2967 N 274.927 -0.932562 -1.27047 0
M  V30 2968 C 276.176 -0.571351 -1.93439 0
M  V30 2969 C 276.489 0.892467 -1.74053 0
M  V30 2970 O 277.695 1.36267 -2.34826 0
M  V30 2971 C 276.151 -0.97106 -3.46552 0
M  V30 2972 C 275.759 -2.4559 -3.74686 0
M  V30 2973 C 277.503 -0.681333 -4.18997 0
M  V30 2974 C 275.41 -2.79475 -5.21198 0
M  V30 2975 H 274.34 -0.209966 -0.724176 0
M  V30 2976 H 276.991 -1.13403 -1.44263 0
M  V30 2977 H 275.373 -0.336983 -3.94564 0
M  V30 2978 H 276.547 -3.13829 -3.37414 0
M  V30 2979 H 274.862 -2.71802 -3.15456 0
M  V30 2980 H 277.459 -0.910939 -5.26883 0
M  V30 2981 H 277.802 0.381628 -4.14547 0
M  V30 2982 H 278.335 -1.27473 -3.76823 0
M  V30 2983 H 275.074 -3.847 -5.30741 0
M  V30 2984 H 274.594 -2.1589 -5.596 0
M  V30 2985 H 276.273 -2.67478 -5.89122 0
M  V30 2986 N 276.405 1.4127 -0.698611 0
M  V30 2987 C 277.654 2.00408 -0.227949 0
M  V30 2988 C 277.967 1.55981 1.18023 0
M  V30 2989 O 279.173 2.07699 1.74852 0
M  V30 2990 C 277.629 3.58129 -0.356636 0
M  V30 2991 C 277.237 4.11536 -1.77037 0
M  V30 2992 C 278.981 4.24466 0.0540969 0
M  V30 2993 C 276.888 5.61701 -1.85055 0
M  V30 2994 H 275.818 0.749586 -0.0814657 0
M  V30 2995 H 278.469 1.61713 -0.867249 0
M  V30 2996 H 276.851 3.94442 0.350965 0
M  V30 2997 H 278.025 3.86636 -2.50698 0
M  V30 2998 H 276.34 3.57736 -2.13105 0
M  V30 2999 H 278.937 5.34698 0.0146723 0
M  V30 3000 H 279.28 4.01687 1.09332 0
M  V30 3001 H 279.813 3.93198 -0.603337 0
M  V30 3002 H 276.552 5.89312 -2.8704 0
M  V30 3003 H 276.072 5.88519 -1.15783 0
M  V30 3004 H 277.751 6.26524 -1.61484 0
M  V30 3005 N 277.883 0.443576 1.51229 0
M  V30 3006 C 279.132 -0.122332 2.01329 0
M  V30 3007 C 279.445 -1.43237 1.33201 0
M  V30 3008 O 280.651 -2.0816 1.74304 0
M  V30 3009 C 279.107 -0.268551 3.58897 0
M  V30 3010 C 278.715 1.03142 4.35965 0
M  V30 3011 C 280.459 -0.787894 4.17124 0
M  V30 3012 C 278.366 0.850504 5.85252 0
M  V30 3013 H 277.296 -0.0494929 0.752374 0
M  V30 3014 H 279.947 0.574289 1.74282 0
M  V30 3015 H 278.329 -1.02832 3.82415 0
M  V30 3016 H 279.503 1.80001 4.24189 0
M  V30 3017 H 277.818 1.47977 3.89219 0
M  V30 3018 H 280.415 -0.939841 5.26375 0
M  V30 3019 H 280.758 -1.77201 3.76703 0
M  V30 3020 H 281.291 -0.0862669 3.97706 0
M  V30 3021 H 278.03 1.80718 6.30096 0
M  V30 3022 H 277.55 0.121825 5.99676 0
M  V30 3023 H 279.229 0.506163 6.45017 0
M  V30 3024 N 279.361 -1.56624 0.175154 0
M  V30 3025 C 280.777 -1.58571 -0.180966 0
M  V30 3026 C 280.977 -1.19065 -1.6256 0
M  V30 3027 O 280.033 -0.904044 -2.35761 0
M  V30 3028 C 281.346 -3.00522 0.103326 0
M  V30 3029 C 282.894 -3.12972 0.0418426 0
M  V30 3030 C 283.369 -4.57022 0.299175 0
M  V30 3031 N 284.86 -4.62541 0.247086 0
M  V30 3032 C 285.595 -5.71857 0.420318 0
M  V30 3033 N 285.091 -6.89717 0.652816 0
M  V30 3034 N 286.884 -5.60972 0.355957 0
M  V30 3035 H 279.035 -1.80589 1.11809 0
M  V30 3036 H 281.298 -0.837178 0.444788 0
M  V30 3037 H 281.004 -3.33916 1.10422 0
M  V30 3038 H 280.878 -3.72344 -0.603299 0
M  V30 3039 H 283.265 -2.79403 -0.949636 0
M  V30 3040 H 283.346 -2.43578 0.781238 0
M  V30 3041 H 282.99 -4.913 1.28788 0
M  V30 3042 H 282.92 -5.24579 -0.460876 0
M  V30 3043 H 285.411 -3.77829 0.0731895 0
M  V30 3044 H 285.724 -7.68911 0.774347 0
M  V30 3045 H 284.069 -6.91572 0.689476 0
M  V30 3046 H 287.26 -4.67773 0.174882 0
M  V30 3047 H 287.433 -6.46111 0.494388 0
M  V30 3048 N 280.839 0.0985539 -1.57292 0
M  V30 3049 C 282.116 0.834155 -1.76921 0
M  V30 3050 C 282.496 1.97101 -0.755928 0
M  V30 3051 O 281.844 2.27474 0.216245 0
M  V30 3052 C 282.054 1.33194 -3.22584 0
M  V30 3053 C 283.402 1.77611 -3.85668 0
M  V30 3054 O 284.426 1.42825 -3.26312 0
M  V30 3055 O 283.285 2.4192 -4.90038 0
M  V30 3056 H 280.379 0.397628 -0.725135 0
M  V30 3057 H 282.925 0.0807044 -1.69508 0
M  V30 3058 H 281.697 0.517248 -3.87866 0
M  V30 3059 H 281.32 2.1475 -3.34616 0
M  V30 3060 N 282.317 1.53212 0.369288 0
M  V30 3061 C 283.249 1.75668 1.47219 0
M  V30 3062 C 284.262 0.637387 1.49804 0
M  V30 3063 O 285.451 0.913561 1.5335 0
M  V30 3064 C 282.551 1.81818 2.85999 0
M  V30 3065 C 281.724 3.11409 3.07153 0
M  V30 3066 C 280.783 3.08849 4.26026 0
M  V30 3067 O 279.809 3.82659 4.2138 0
M  V30 3068 N 281.011 2.29409 5.33246 0
M  V30 3069 H 283.776 2.70832 1.28337 0
M  V30 3070 H 281.337 1.51944 0.55898 0
M  V30 3071 H 283.329 1.77588 3.63655 0
M  V30 3072 H 281.899 0.939544 2.98146 0
M  V30 3073 H 281.119 3.28971 2.1719 0
M  V30 3074 H 282.407 3.97059 3.18154 0
M  V30 3075 H 281.805 1.68946 5.39883 0
M  V30 3076 H 280.362 2.31001 6.09493 0
M  V30 3077 N 283.795 -0.628877 1.44509 0
M  V30 3078 C 285.211 -0.947305 1.28446 0
M  V30 3079 C 285.411 -2.00275 0.221872 0
M  V30 3080 O 284.467 -2.49447 -0.391471 0
M  V30 3081 C 285.78 -1.40843 2.65676 0
M  V30 3082 C 287.328 -1.52379 2.73404 0
M  V30 3083 C 287.803 -2.01875 4.11109 0
M  V30 3084 N 289.294 -2.09142 4.13296 0
M  V30 3085 C 290.029 -2.48615 5.16699 0
M  V30 3086 N 289.525 -2.87209 6.30462 0
M  V30 3087 N 291.318 -2.48768 5.04054 0
M  V30 3088 H 283.469 0.0690977 2.12288 0
M  V30 3089 H 285.732 -0.0317164 0.947469 0
M  V30 3090 H 285.438 -0.707206 3.44516 0
M  V30 3091 H 285.312 -2.37902 2.92716 0
M  V30 3092 H 287.699 -2.21598 1.9488 0
M  V30 3093 H 287.78 -0.536898 2.50102 0
M  V30 3094 H 287.424 -1.3325 4.90109 0
M  V30 3095 H 287.354 -3.0144 4.31789 0
M  V30 3096 H 289.845 -1.81991 3.31191 0
M  V30 3097 H 290.158 -3.16149 7.05174 0
M  V30 3098 H 288.503 -2.84955 6.33897 0
M  V30 3099 H 291.694 -2.18009 4.14234 0
M  V30 3100 H 291.867 -2.79207 5.84763 0
M  V30 3101 N 285.273 -1.31445 -0.869486 0
M  V30 3102 C 286.498 -1.24256 -1.66058 0
M  V30 3103 C 286.923 0.188928 -1.87149 0
M  V30 3104 O 286.281 1.13522 -1.4136 0
M  V30 3105 C 286.329 -1.9924 -3.00559 0
M  V30 3106 O 285.433 -1.33007 -3.90362 0
M  V30 3107 H 284.774 -0.428973 -0.506831 0
M  V30 3108 H 287.304 -1.73521 -1.08404 0
M  V30 3109 H 287.314 -2.08854 -3.50491 0
M  V30 3110 H 285.989 -3.03342 -2.84528 0
M  V30 3111 H 284.566 -1.31848 -3.48813 0
M  V30 3112 N 286.751 1.08385 -1.14413 0
M  V30 3113 C 287.997 1.81044 -0.913834 0
M  V30 3114 C 288.33 1.86004 0.558209 0
M  V30 3115 O 287.605 1.33606 1.4135 0
M  V30 3116 C 287.888 3.26648 -1.51569 0
M  V30 3117 C 287.741 3.29895 -3.0576 0
M  V30 3118 C 289.06 4.23629 -1.19273 0
M  V30 3119 H 286.179 0.65727 -0.333414 0
M  V30 3120 H 288.821 1.26896 -1.41412 0
M  V30 3121 H 286.971 3.72889 -1.09023 0
M  V30 3122 H 288.643 2.91977 -3.57137 0
M  V30 3123 H 286.886 2.69163 -3.40197 0
M  V30 3124 H 287.557 4.32516 -3.42977 0
M  V30 3125 H 290.033 3.85727 -1.56057 0
M  V30 3126 H 288.909 5.23822 -1.64017 0
M  V30 3127 H 289.17 4.41968 -0.108068 0
M  V30 3128 N 288.23 0.939286 1.26551 0
M  V30 3129 C 289.16 0.465044 2.28822 0
M  V30 3130 C 290.141 -0.480692 1.63167 0
M  V30 3131 O 291.326 -0.382955 1.90387 0
M  V30 3132 C 288.456 -0.27234 3.46231 0
M  V30 3133 C 287.41 0.58666 4.2396 0
M  V30 3134 C 286.736 -0.280573 5.33963 0
M  V30 3135 C 288.036 1.85704 4.88171 0
M  V30 3136 H 289.73 1.31979 2.68741 0
M  V30 3137 H 287.276 0.636061 1.29191 0
M  V30 3138 H 289.229 -0.615133 4.16886 0
M  V30 3139 H 287.953 -1.16121 3.0526 0
M  V30 3140 H 286.612 0.91232 3.55067 0
M  V30 3141 H 286.26 -1.16874 4.89234 0
M  V30 3142 H 285.96 0.29076 5.8688 0
M  V30 3143 H 287.484 -0.618678 6.07458 0
M  V30 3144 H 288.898 1.58161 5.51052 0
M  V30 3145 H 287.295 2.37279 5.51197 0
M  V30 3146 H 288.365 2.56957 4.11219 0
M  V30 3147 N 289.708 -1.40897 0.706093 0
M  V30 3148 C 290.671 -2.29131 0.0562841 0
M  V30 3149 C 291.671 -1.44901 -0.697166 0
M  V30 3150 O 292.861 -1.65926 -0.530484 0
M  V30 3151 C 289.993 -3.27957 -0.93043 0
M  V30 3152 H 291.186 -2.88091 0.833284 0
M  V30 3153 H 288.739 -1.4906 0.470192 0
M  V30 3154 H 289.474 -2.73997 -1.73482 0
M  V30 3155 H 289.259 -3.90124 -0.393166 0
M  V30 3156 H 290.749 -3.94049 -1.38256 0
M  V30 3157 N 291.186 -0.45159 -1.50991 0
M  V30 3158 C 292.411 0.110667 -2.07105 0
M  V30 3159 C 292.836 1.3446 -1.31538 0
M  V30 3160 O 292.194 1.77743 -0.357365 0
M  V30 3161 C 292.242 0.397238 -3.58405 0
M  V30 3162 O 291.346 1.48124 -3.84881 0
M  V30 3163 H 290.687 -0.00439271 -0.663985 0
M  V30 3164 H 293.217 -0.637026 -1.9443 0
M  V30 3165 H 293.227 0.64351 -4.02893 0
M  V30 3166 H 291.902 -0.504553 -4.12828 0
M  V30 3167 H 290.479 1.22381 -3.52246 0
M  V30 3168 N 292.664 1.56529 -0.183458 0
M  V30 3169 C 293.627 2.17324 0.728223 0
M  V30 3170 C 294.627 1.12453 1.14939 0
M  V30 3171 O 295.817 1.37902 1.06437 0
M  V30 3172 C 292.949 2.76591 1.99274 0
M  V30 3173 H 294.142 2.99241 0.198772 0
M  V30 3174 H 291.695 1.5616 0.0661391 0
M  V30 3175 H 292.43 1.98441 2.56499 0
M  V30 3176 H 292.215 3.5335 1.69959 0
M  V30 3177 H 293.705 3.23311 2.6431 0
M  V30 3178 N 294.142 -0.090211 1.57342 0
M  V30 3179 C 295.388 -0.793982 1.86611 0
M  V30 3180 C 295.721 -1.78142 0.773252 0
M  V30 3181 O 294.996 -1.93271 -0.218304 0
M  V30 3182 C 295.279 -1.51839 3.26523 0
M  V30 3183 C 295.132 -0.548609 4.46442 0
M  V30 3184 C 296.451 -2.46779 3.64401 0
M  V30 3185 H 293.57 -0.287186 0.678744 0
M  V30 3186 H 296.212 -0.0575076 1.89913 0
M  V30 3187 H 294.362 -2.14617 3.23839 0
M  V30 3188 H 296.034 0.0725513 4.61243 0
M  V30 3189 H 294.277 0.137614 4.33582 0
M  V30 3190 H 294.948 -1.09271 5.41076 0
M  V30 3191 H 297.424 -1.94089 3.68061 0
M  V30 3192 H 296.3 -2.94479 4.63221 0
M  V30 3193 H 296.561 -3.30758 2.93346 0
M  V30 3194 N 295.62 -1.53406 -0.361157 0
M  V30 3195 C 296.55 -1.83136 -1.44857 0
M  V30 3196 C 297.531 -0.685174 -1.5569 0
M  V30 3197 O 298.716 -0.93544 -1.70186 0
M  V30 3198 C 295.846 -2.02522 -2.82138 0
M  V30 3199 C 294.8 -3.18302 -2.86126 0
M  V30 3200 C 294.126 -3.22989 -4.26125 0
M  V30 3201 C 295.426 -4.56796 -2.53248 0
M  V30 3202 H 297.12 -2.74201 -1.20226 0
M  V30 3203 H 294.666 -1.31938 -0.576922 0
M  V30 3204 H 296.619 -2.21904 -3.58241 0
M  V30 3205 H 295.343 -1.08172 -3.08166 0
M  V30 3206 H 294.002 -2.98747 -2.12475 0
M  V30 3207 H 293.65 -2.26267 -4.49235 0
M  V30 3208 H 293.35 -4.00781 -4.29708 0
M  V30 3209 H 294.874 -3.44559 -5.04094 0
M  V30 3210 H 296.288 -4.7631 -3.19064 0
M  V30 3211 H 294.685 -5.36862 -2.68141 0
M  V30 3212 H 295.755 -4.61606 -1.48484 0
M  V30 3213 N 297.098 0.621204 -1.44841 0
M  V30 3214 C 298.346 1.37783 -1.47852 0
M  V30 3215 C 298.667 1.94653 -0.116224 0
M  V30 3216 O 297.937 1.76367 0.852737 0
M  V30 3217 H 296.517 0.511453 -0.544449 0
M  V30 3218 H 299.179 0.730446 -1.80694 0
M  V30 3219 H 298.275 2.20414 -2.20961 0
M  V30 3220 N 298.576 1.31904 0.862503 0
M  V30 3221 C 299.506 1.22782 1.98612 0
M  V30 3222 C 300.487 0.113362 1.69722 0
M  V30 3223 O 301.672 0.299218 1.91881 0
M  V30 3224 C 298.802 0.942058 3.34279 0
M  V30 3225 C 297.756 2.0169 3.77499 0
M  V30 3226 C 297.082 1.58369 5.10709 0
M  V30 3227 C 298.382 3.43096 3.93805 0
M  V30 3228 H 300.076 2.16788 2.06502 0
M  V30 3229 H 297.622 1.04366 0.992154 0
M  V30 3230 H 299.575 0.864818 4.1243 0
M  V30 3231 H 298.299 -0.0336603 3.26583 0
M  V30 3232 H 296.958 2.08416 3.01593 0
M  V30 3233 H 296.606 0.595628 4.99461 0
M  V30 3234 H 296.306 2.30279 5.40597 0
M  V30 3235 H 297.83 1.52067 5.91361 0
M  V30 3236 H 299.244 3.39003 4.62331 0
M  V30 3237 H 297.641 4.13288 4.35101 0
M  V30 3238 H 298.711 3.83334 2.96957 0
M  V30 3239 N 300.054 -1.07777 1.14986 0
M  V30 3240 C 301.017 -2.13041 0.845358 0
M  V30 3241 C 302.017 -1.60071 -0.152931 0
M  V30 3242 O 303.207 -1.74033 0.0761879 0
M  V30 3243 C 300.339 -3.39896 0.261383 0
M  V30 3244 H 301.532 -2.41485 1.77834 0
M  V30 3245 H 299.085 -1.23595 0.956757 0
M  V30 3246 H 299.82 -3.17091 -0.68 0
M  V30 3247 H 299.605 -3.79642 0.980514 0
M  V30 3248 H 301.095 -4.17548 0.0657687 0
M  V30 3249 N 301.532 -0.945985 -1.26051 0
M  V30 3250 C 302.757 -0.612525 -1.98149 0
M  V30 3251 C 303.182 0.806623 -1.69927 0
M  V30 3252 O 302.54 1.54411 -0.950108 0
M  V30 3253 C 302.588 -0.866981 -3.50023 0
M  V30 3254 O 301.692 0.0585333 -4.12358 0
M  V30 3255 H 301.033 -0.23379 -0.621481 0
M  V30 3256 H 303.563 -1.27023 -1.60395 0
M  V30 3257 H 303.573 -0.789792 -4.00283 0
M  V30 3258 H 302.248 -1.90135 -3.69894 0
M  V30 3259 H 300.825 -0.0701241 -3.72834 0
M  V30 3260 N 303.011 1.40521 -0.713556 0
M  V30 3261 C 304.26 2.00155 -0.249192 0
M  V30 3262 C 304.573 1.57224 1.16362 0
M  V30 3263 O 305.779 2.09542 1.72639 0
M  V30 3264 C 304.235 3.5773 -0.3946 0
M  V30 3265 C 303.843 4.09635 -1.81392 0
M  V30 3266 C 305.587 4.24499 0.00907364 0
M  V30 3267 C 303.494 5.59707 -1.91003 0
M  V30 3268 H 302.424 0.74868 -0.0894114 0
M  V30 3269 H 305.075 1.60784 -0.884352 0
M  V30 3270 H 303.457 3.94792 0.30911 0
M  V30 3271 H 304.631 3.83955 -2.54785 0
M  V30 3272 H 302.946 3.55456 -2.16888 0
M  V30 3273 H 305.543 5.34683 -0.0420404 0
M  V30 3274 H 305.886 4.02824 1.05065 0
M  V30 3275 H 306.419 3.92536 -0.645007 0
M  V30 3276 H 303.158 5.86234 -2.93275 0
M  V30 3277 H 302.678 5.87258 -1.22019 0
M  V30 3278 H 304.357 6.24776 -1.6812 0
M  V30 3279 N 304.489 0.459591 1.5075 0
M  V30 3280 C 305.735 -0.0994966 2.02556 0
M  V30 3281 C 306.068 -1.40399 1.3417 0
M  V30 3282 O 305.343 -1.88892 0.463683 0
M  V30 3283 C 305.626 -0.295242 3.58888 0
M  V30 3284 C 305.479 1.02947 4.37861 0
M  V30 3285 C 306.798 -1.05502 4.27267 0
M  V30 3286 H 303.917 -0.034686 0.736183 0
M  V30 3287 H 306.559 0.602938 1.8018 0
M  V30 3288 H 304.709 -0.893563 3.78084 0
M  V30 3289 H 306.381 1.66348 4.30263 0
M  V30 3290 H 304.624 1.62885 4.02058 0
M  V30 3291 H 305.295 0.846281 5.45474 0
M  V30 3292 H 307.771 -0.547993 4.12476 0
M  V30 3293 H 306.647 -1.16077 5.36486 0
M  V30 3294 H 306.908 -2.08875 3.89645 0
M  V30 3295 N 305.967 -1.56429 0.191757 0
M  V30 3296 C 307.207 -1.99383 -0.450099 0
M  V30 3297 C 307.571 -1.07581 -1.59029 0
M  V30 3298 O 308.772 -1.39758 -2.29611 0
M  V30 3299 C 307.043 -3.45841 -0.901611 0
M  V30 3300 S 308.602 -4.10822 -1.54177 0
M  V30 3301 H 305.42 -0.696253 -0.144057 0
M  V30 3302 H 308.022 -1.93276 0.294036 0
M  V30 3303 H 306.726 -4.10354 -0.0616596 0
M  V30 3304 H 306.257 -3.55757 -1.67929 0
M  V30 3305 H 308.272 -4.07553 -2.83046 0
M  V30 3306 N 307.445 0.0818655 -1.57387 0
M  V30 3307 C 308.673 0.796108 -1.9097 0
M  V30 3308 C 309.088 1.71626 -0.786757 0
M  V30 3309 O 308.445 1.80908 0.240513 0
M  V30 3310 C 308.496 1.59829 -3.24248 0
M  V30 3311 O 308.217 0.715131 -4.32224 0
M  V30 3312 C 309.718 2.41442 -3.7178 0
M  V30 3313 H 306.938 0.22691 -0.631469 0
M  V30 3314 H 309.482 0.0551439 -2.04426 0
M  V30 3315 H 307.637 2.29163 -3.12351 0
M  V30 3316 H 308.051 1.27205 -5.08841 0
M  V30 3317 H 309.525 2.932 -4.67694 0
M  V30 3318 H 310.002 3.2051 -3.00283 0
M  V30 3319 H 310.608 1.77283 -3.86589 0
M  V30 3320 N 308.923 1.53595 0.353017 0
M  V30 3321 C 310.171 1.70049 1.09215 0
M  V30 3322 C 310.492 0.461406 1.89463 0
M  V30 3323 O 309.762 -0.524633 1.88744 0
M  V30 3324 H 308.342 0.626912 0.40619 0
M  V30 3325 H 311.004 1.90822 0.396585 0
M  V30 3326 H 310.1 2.56718 1.77488 0
M  V30 3327 N 310.401 -0.613514 1.45168 0
M  V30 3328 C 311.331 -1.7354 1.56225 0
M  V30 3329 C 312.312 -1.64981 0.41414 0
M  V30 3330 O 313.497 -1.83472 0.636526 0
M  V30 3331 C 310.627 -3.12128 1.52295 0
M  V30 3332 C 309.581 -3.35491 2.65762 0
M  V30 3333 C 308.907 -4.74291 2.46885 0
M  V30 3334 C 310.207 -3.26325 4.0781 0
M  V30 3335 H 311.901 -1.64543 2.50132 0
M  V30 3336 H 309.447 -0.790185 1.20383 0
M  V30 3337 H 311.4 -3.90404 1.58628 0
M  V30 3338 H 310.124 -3.2195 0.549139 0
M  V30 3339 H 308.783 -2.59603 2.58847 0
M  V30 3340 H 308.431 -4.80839 1.47657 0
M  V30 3341 H 308.131 -4.9088 3.22972 0
M  V30 3342 H 309.655 -5.54775 2.55063 0
M  V30 3343 H 311.069 -3.94483 4.16 0
M  V30 3344 H 309.466 -3.54445 4.8424 0
M  V30 3345 H 310.536 -2.23855 4.30136 0
M  V30 3346 N 311.879 -1.3236 -0.855495 0
M  V30 3347 C 313.125 -1.23054 -1.612 0
M  V30 3348 C 313.458 0.207404 -1.93089 0
M  V30 3349 O 312.733 1.14432 -1.57275 0
M  V30 3350 C 313.016 -2.08937 -2.93287 0
M  V30 3351 C 312.869 -3.61105 -2.68185 0
M  V30 3352 C 314.188 -1.94986 -3.94549 0
M  V30 3353 H 311.307 -0.448364 -0.584926 0
M  V30 3354 H 313.949 -1.62297 -0.987917 0
M  V30 3355 H 312.099 -1.75599 -3.46551 0
M  V30 3356 H 313.771 -4.04652 -2.21483 0
M  V30 3357 H 312.014 -3.83813 -2.02164 0
M  V30 3358 H 312.685 -4.16522 -3.62234 0
M  V30 3359 H 315.161 -2.24189 -3.5054 0
M  V30 3360 H 314.037 -2.57356 -4.84829 0
M  V30 3361 H 314.298 -0.917263 -4.3248 0
M  V30 3362 N 313.357 1.07166 -1.15556 0
M  V30 3363 C 314.582 1.84053 -0.955988 0
M  V30 3364 C 315.007 1.81586 0.490739 0
M  V30 3365 O 314.365 1.21018 1.34997 0
M  V30 3366 C 314.413 3.28957 -1.47714 0
M  V30 3367 O 313.517 4.06795 -0.677593 0
M  V30 3368 H 312.858 0.569842 -0.340847 0
M  V30 3369 H 315.388 1.35178 -1.53584 0
M  V30 3370 H 315.398 3.79788 -1.4908 0
M  V30 3371 H 314.073 3.30068 -2.53037 0
M  V30 3372 H 312.65 3.6561 -0.733721 0
M  V30 3373 N 314.835 0.952656 1.25548 0
M  V30 3374 C 316.065 0.622592 1.96996 0
M  V30 3375 C 316.473 -0.809112 1.71026 0
M  V30 3376 O 315.816 -1.55258 0.981861 0
M  V30 3377 C 315.878 0.798946 3.5051 0
M  V30 3378 C 315.542 2.20744 4.00151 0
M  V30 3379 C 316.539 3.18394 4.11001 0
M  V30 3380 C 314.224 2.5311 4.33867 0
M  V30 3381 C 316.218 4.46504 4.54877 0
M  V30 3382 C 313.905 3.8145 4.7743 0
M  V30 3383 C 314.903 4.77959 4.87897 0
M  V30 3384 O 314.591 6.04012 5.30494 0
M  V30 3385 H 314.323 0.232503 0.634758 0
M  V30 3386 H 316.877 1.2789 1.60728 0
M  V30 3387 H 315.107 0.0854903 3.86605 0
M  V30 3388 H 316.796 0.47023 4.03167 0
M  V30 3389 H 317.562 2.94715 3.85186 0
M  V30 3390 H 313.441 1.78719 4.24948 0
M  V30 3391 H 316.985 5.21835 4.62962 0
M  V30 3392 H 312.882 4.04936 5.0269 0
M  V30 3393 H 313.65 6.0736 5.48685 0
M  V30 3394 N 316.313 -1.40141 0.720998 0
M  V30 3395 C 317.541 -2.05096 0.272656 0
M  V30 3396 C 317.956 -1.54334 -1.0875 0
M  V30 3397 O 317.313 -0.702211 -1.6845 0
M  V30 3398 C 317.364 -3.60636 0.249835 0
M  V30 3399 O 317.085 -4.09526 1.55629 0
M  V30 3400 C 318.586 -4.42772 -0.216396 0
M  V30 3401 H 315.806 -0.659897 0.121558 0
M  V30 3402 H 318.35 -1.79449 0.980723 0
M  V30 3403 H 316.505 -3.85232 -0.409237 0
M  V30 3404 H 316.919 -5.03758 1.4604 0
M  V30 3405 H 318.393 -5.51702 -0.181212 0
M  V30 3406 H 318.87 -4.20756 -1.25941 0
M  V30 3407 H 319.476 -4.23294 0.412596 0
M  V30 3408 N 317.792 -0.46758 -1.50504 0
M  V30 3409 C 319.02 0.0864133 -2.06719 0
M  V30 3410 C 319.435 1.33819 -1.33184 0
M  V30 3411 O 318.792 1.78061 -0.400083 0
M  V30 3412 C 318.843 0.378079 -3.59517 0
M  V30 3413 O 318.564 -0.824044 -4.3028 0
M  V30 3414 C 320.065 0.979426 -4.32345 0
M  V30 3415 H 317.285 -0.00551697 -0.670977 0
M  V30 3416 H 319.829 -0.655354 -1.93715 0
M  V30 3417 H 317.984 1.06977 -3.72337 0
M  V30 3418 H 318.398 -0.566518 -5.21432 0
M  V30 3419 H 319.872 1.1333 -5.40241 0
M  V30 3420 H 320.349 1.9686 -3.9261 0
M  V30 3421 H 320.955 0.326216 -4.24047 0
M  V30 3422 N 319.27 1.56325 -0.20005 0
M  V30 3423 C 320.2 2.22318 0.713916 0
M  V30 3424 C 321.181 1.18788 1.21752 0
M  V30 3425 O 322.366 1.47309 1.26545 0
M  V30 3426 C 319.496 2.88639 1.93144 0
M  V30 3427 C 318.45 3.98457 1.56255 0
M  V30 3428 C 317.776 4.51967 2.85709 0
M  V30 3429 C 319.076 5.16612 0.768747 0
M  V30 3430 H 320.77 2.98952 0.163755 0
M  V30 3431 H 318.316 1.43792 0.0773219 0
M  V30 3432 H 320.269 3.33491 2.57608 0
M  V30 3433 H 318.993 2.09419 2.50621 0
M  V30 3434 H 317.652 3.54305 0.941471 0
M  V30 3435 H 317.3 3.69503 3.41287 0
M  V30 3436 H 317 5.26071 2.6177 0
M  V30 3437 H 318.524 4.99523 3.51154 0
M  V30 3438 H 319.938 5.57977 1.3166 0
M  V30 3439 H 318.335 5.96812 0.627286 0
M  V30 3440 H 319.405 4.84358 -0.229168 0
M  V30 3441 N 320.748 -0.0735177 1.57428 0
M  V30 3442 C 322.159 -0.625551 1.75908 0
M  V30 3443 C 322.51 -1.78 0.825261 0
M  V30 3444 O 321.635 -2.16398 0.00893964 0
M  V30 3445 C 322.23 -1.14155 3.18989 0
M  V30 3446 C 320.789 -1.63946 3.38819 0
M  V30 3447 C 319.936 -0.558151 2.71625 0
M  V30 3448 H 322.887 0.152647 1.57964 0
M  V30 3449 H 322.908 -2.0104 3.23053 0
M  V30 3450 H 322.42 -0.301116 3.8693 0
M  V30 3451 H 320.521 -2.50321 2.7599 0
M  V30 3452 H 320.634 -1.71759 4.47253 0
M  V30 3453 H 318.998 -1.00278 2.34129 0
M  V30 3454 H 319.781 0.272071 3.4222 0
M  V30 3455 N 322.226 -1.5378 -0.344866 0
M  V30 3456 C 323.189 -1.80981 -1.40637 0
M  V30 3457 C 324.189 -0.680816 -1.45676 0
M  V30 3458 O 325.379 -0.949095 -1.46075 0
M  V30 3459 C 322.511 -1.95063 -2.79577 0
M  V30 3460 H 323.704 -2.75803 -1.17783 0
M  V30 3461 H 321.257 -1.45173 -0.579181 0
M  V30 3462 H 321.992 -1.02379 -3.07716 0
M  V30 3463 H 321.777 -2.77198 -2.77315 0
M  V30 3464 H 323.267 -2.17629 -3.56409 0
M  V30 3465 N 323.704 0.605807 -1.45491 0
M  V30 3466 C 324.953 1.36086 -1.48874 0
M  V30 3467 C 325.266 1.95131 -0.135333 0
M  V30 3468 O 326.472 2.7146 -0.0468144 0
M  V30 3469 C 324.928 2.46518 -2.62215 0
M  V30 3470 C 324.536 1.93877 -4.03876 0
M  V30 3471 C 326.28 3.23512 -2.74846 0
M  V30 3472 C 324.187 3.01801 -5.08596 0
M  V30 3473 H 323.117 0.511497 -0.553974 0
M  V30 3474 H 325.768 0.649089 -1.71636 0
M  V30 3475 H 324.15 3.20388 -2.32739 0
M  V30 3476 H 325.324 1.26704 -4.43038 0
M  V30 3477 H 323.639 1.29622 -3.95711 0
M  V30 3478 H 326.236 4.04013 -3.50253 0
M  V30 3479 H 326.579 3.74631 -1.81542 0
M  V30 3480 H 327.112 2.56742 -3.03856 0
M  V30 3481 H 323.851 2.55597 -6.03614 0
M  V30 3482 H 323.371 3.67535 -4.74002 0
M  V30 3483 H 325.05 3.66152 -5.33424 0
M  V30 3484 N 325.182 1.32811 0.848464 0
M  V30 3485 C 326.429 1.23724 1.60308 0
M  V30 3486 C 326.757 -0.1994 1.93475 0
M  V30 3487 O 326.012 -1.15406 1.5805 0
M  V30 3488 C 326.311 2.04831 2.92881 0
M  V30 3489 C 325.977 3.54125 2.79117 0
M  V30 3490 C 324.639 3.94829 2.7507 0
M  V30 3491 C 326.991 4.49036 2.64606 0
M  V30 3492 C 324.319 5.28675 2.544 0
M  V30 3493 C 326.671 5.83033 2.4547 0
M  V30 3494 C 325.335 6.22931 2.39819 0
M  V30 3495 H 324.605 0.452737 0.586609 0
M  V30 3496 H 327.252 1.64301 0.983743 0
M  V30 3497 H 325.557 1.57001 3.58968 0
M  V30 3498 H 327.254 1.95164 3.50303 0
M  V30 3499 H 323.844 3.21801 2.83094 0
M  V30 3500 H 328.028 4.18505 2.66772 0
M  V30 3501 H 323.284 5.58637 2.48465 0
M  V30 3502 H 327.458 6.56186 2.33222 0
M  V30 3503 H 325.085 7.26584 2.23562 0
M  V30 3504 N 326.66 -1.06551 1.16123 0
M  V30 3505 C 327.909 -1.78687 0.935622 0
M  V30 3506 C 328.222 -1.88056 -0.538001 0
M  V30 3507 O 329.428 -2.56794 -0.88143 0
M  V30 3508 C 327.884 -3.21143 1.62466 0
M  V30 3509 C 327.492 -3.19949 3.13587 0
M  V30 3510 C 329.236 -3.9783 1.48092 0
M  V30 3511 C 327.143 -4.57108 3.75241 0
M  V30 3512 H 326.073 -0.669712 0.346412 0
M  V30 3513 H 328.724 -1.19534 1.39226 0
M  V30 3514 H 327.106 -3.80539 1.09572 0
M  V30 3515 H 328.28 -2.70151 3.73303 0
M  V30 3516 H 326.595 -2.5676 3.27816 0
M  V30 3517 H 329.192 -4.99217 1.91538 0
M  V30 3518 H 329.535 -4.14078 0.429507 0
M  V30 3519 H 330.068 -3.4495 1.98127 0
M  V30 3520 H 326.807 -4.46065 4.80319 0
M  V30 3521 H 326.327 -5.07111 3.20309 0
M  V30 3522 H 328.006 -5.26069 3.76644 0
M  V30 3523 N 328.138 -0.959301 -1.25041 0
M  V30 3524 C 329.549 -0.65667 -1.74771 0
M  V30 3525 C 329.9 0.827852 -1.77879 0
M  V30 3526 O 329.025 1.64783 -1.40269 0
M  V30 3527 C 329.62 -1.1853 -3.1739 0
M  V30 3528 C 328.179 -0.932734 -3.6466 0
M  V30 3529 C 327.326 -1.32558 -2.43564 0
M  V30 3530 H 330.277 -1.13558 -1.10862 0
M  V30 3531 H 330.298 -0.547582 -3.76539 0
M  V30 3532 H 329.81 -2.26576 -3.15095 0
M  V30 3533 H 327.911 0.13257 -3.72364 0
M  V30 3534 H 328.024 -1.57248 -4.52559 0
M  V30 3535 H 326.388 -0.743956 -2.43593 0
M  V30 3536 H 327.171 -2.41537 -2.43957 0
M  V30 3537 N 329.616 1.39756 -0.72842 0
M  V30 3538 C 330.863 2.00645 -0.273487 0
M  V30 3539 C 331.191 1.57786 1.13727 0
M  V30 3540 O 330.446 0.794886 1.7883 0
M  V30 3541 C 330.745 3.56002 -0.315776 0
M  V30 3542 C 330.411 4.18489 -1.67863 0
M  V30 3543 C 329.073 4.3527 -2.05166 0
M  V30 3544 C 331.425 4.53219 -2.57375 0
M  V30 3545 C 328.753 4.84069 -3.31503 0
M  V30 3546 C 331.105 5.03423 -3.83077 0
M  V30 3547 C 329.769 5.18413 -4.20481 0
M  V30 3548 H 329.039 0.734211 -0.100076 0
M  V30 3549 H 331.686 1.6718 -0.933972 0
M  V30 3550 H 329.991 3.89452 0.428285 0
M  V30 3551 H 331.688 4.00963 0.0542575 0
M  V30 3552 H 328.278 4.05824 -1.37858 0
M  V30 3553 H 332.462 4.39878 -2.29827 0
M  V30 3554 H 327.718 4.93859 -3.60435 0
M  V30 3555 H 331.892 5.2927 -4.52599 0
M  V30 3556 H 329.519 5.55987 -5.18443 0
M  V30 3557 N 331.094 0.475555 1.50254 0
M  V30 3558 C 332.341 -0.0778919 2.0235 0
M  V30 3559 C 332.669 -1.39319 1.35722 0
M  V30 3560 O 331.924 -1.89888 0.473395 0
M  V30 3561 C 332.223 -0.305114 3.56095 0
M  V30 3562 C 331.889 0.92903 4.41225 0
M  V30 3563 C 330.551 1.26739 4.6421 0
M  V30 3564 C 332.903 1.75054 4.90923 0
M  V30 3565 C 330.231 2.42724 5.34137 0
M  V30 3566 C 332.583 2.9017 5.62125 0
M  V30 3567 C 331.247 3.24416 5.83362 0
M  V30 3568 H 330.517 -0.0285027 0.740452 0
M  V30 3569 H 333.164 0.630543 1.80821 0
M  V30 3570 H 331.469 -1.09584 3.76163 0
M  V30 3571 H 333.166 -0.747377 3.93974 0
M  V30 3572 H 329.756 0.655428 4.23559 0
M  V30 3573 H 333.94 1.50231 4.73016 0
M  V30 3574 H 329.196 2.69525 5.48786 0
M  V30 3575 H 333.37 3.54169 5.99614 0
M  V30 3576 H 330.997 4.14396 6.37323 0
M  V30 3577 N 332.573 -1.56217 0.208337 0
M  V30 3578 C 333.503 -2.22694 -0.702116 0
M  V30 3579 C 334.484 -1.19432 -1.2112 0
M  V30 3580 O 335.669 -1.47978 -1.25762 0
M  V30 3581 C 332.799 -2.8966 -1.9161 0
M  V30 3582 C 331.753 -3.9928 -1.5414 0
M  V30 3583 C 331.079 -4.53476 -2.83308 0
M  V30 3584 C 332.379 -5.17012 -0.741339 0
M  V30 3585 H 334.073 -2.99034 -0.147898 0
M  V30 3586 H 331.619 -1.43831 -0.0696951 0
M  V30 3587 H 333.572 -3.34852 -2.55836 0
M  V30 3588 H 332.296 -2.10746 -2.49507 0
M  V30 3589 H 330.955 -3.54799 -0.922668 0
M  V30 3590 H 330.603 -3.71308 -3.39322 0
M  V30 3591 H 330.303 -5.27451 -2.58976 0
M  V30 3592 H 331.827 -5.01378 -3.485 0
M  V30 3593 H 333.241 -5.58667 -1.28699 0
M  V30 3594 H 331.638 -5.97137 -0.595627 0
M  V30 3595 H 332.708 -4.8423 0.254851 0
M  V30 3596 N 334.051 0.0651679 -1.57465 0
M  V30 3597 C 335.297 0.758912 -1.88712 0
M  V30 3598 C 335.652 1.7485 -0.802819 0
M  V30 3599 O 334.945 1.90632 0.192359 0
M  V30 3600 C 335.139 1.50081 -3.24362 0
M  V30 3601 C 334.968 0.584579 -4.45884 0
M  V30 3602 C 333.738 0.219039 -5.04825 0
M  V30 3603 C 335.936 -0.121559 -5.14156 0
M  V30 3604 N 333.918 -0.702222 -6.09871 0
M  V30 3605 C 335.289 -0.899767 -6.13436 0
M  V30 3606 C 337.344 -0.192331 -4.97528 0
M  V30 3607 C 336.047 -1.74218 -6.97883 0
M  V30 3608 C 338.073 -1.02174 -5.82507 0
M  V30 3609 C 337.435 -1.78798 -6.8133 0
M  V30 3610 H 333.534 0.25293 -0.739967 0
M  V30 3611 H 336.118 0.0201744 -1.9469 0
M  V30 3612 H 334.289 2.21023 -3.1938 0
M  V30 3613 H 336.021 2.14409 -3.43236 0
M  V30 3614 H 332.776 0.57336 -4.70117 0
M  V30 3615 H 333.2 -1.15629 -6.67052 0
M  V30 3616 H 337.842 0.385741 -4.21037 0
M  V30 3617 H 335.56 -2.3312 -7.73745 0
M  V30 3618 H 339.146 -1.07957 -5.71696 0
M  V30 3619 H 338.026 -2.41942 -7.45945 0
M  V30 3620 N 335.529 1.53961 0.336706 0
M  V30 3621 C 336.462 1.77255 1.43722 0
M  V30 3622 C 337.44 0.62193 1.50236 0
M  V30 3623 O 338.624 0.857874 1.67847 0
M  V30 3624 C 335.751 1.87733 2.81912 0
M  V30 3625 C 334.797 3.09933 2.92991 0
M  V30 3626 S 335.63 4.68836 2.58753 0
M  V30 3627 C 336.786 4.82202 3.99039 0
M  V30 3628 H 337.019 2.70322 1.23748 0
M  V30 3629 H 334.552 1.44917 0.532777 0
M  V30 3630 H 336.51 1.94455 3.61521 0
M  V30 3631 H 335.171 0.956666 2.99177 0
M  V30 3632 H 334.364 3.1396 3.94265 0
M  V30 3633 H 333.966 3.01472 2.21338 0
M  V30 3634 H 336.258 4.64032 4.9364 0
M  V30 3635 H 337.201 5.84298 4.00002 0
M  V30 3636 H 337.609 4.10604 3.87382 0
M  V30 3637 N 337.007 -0.598083 1.45811 0
M  V30 3638 C 337.97 -1.69018 1.54808 0
M  V30 3639 C 338.97 -1.55037 0.426652 0
M  V30 3640 O 340.16 -1.59932 0.690456 0
M  V30 3641 C 337.292 -3.0835 1.45371 0
M  V30 3642 H 338.485 -1.62403 2.52121 0
M  V30 3643 H 336.038 -0.814626 1.33392 0
M  V30 3644 H 336.773 -3.20534 0.492793 0
M  V30 3645 H 336.558 -3.19907 2.26721 0
M  V30 3646 H 338.048 -3.8788 1.54721 0
M  V30 3647 N 338.485 -1.33259 -0.841409 0
M  V30 3648 C 339.733 -1.24326 -1.59334 0
M  V30 3649 C 340.054 0.191564 -1.94057 0
M  V30 3650 O 339.324 1.11967 -1.60749 0
M  V30 3651 H 337.904 -0.457174 -0.590763 0
M  V30 3652 H 340.566 -1.66947 -1.00571 0
M  V30 3653 H 339.662 -1.8352 -2.52442 0
M  V30 3654 O 340.002 0.979171 -1.28431 0
M  V30 3655 H 340.693 1.60369 -1.08635 0
M  V30 END ATOM
M  V30 BEGIN BOND
M  V30 END BOND
M  V30 END CTAB
M  END
$$$$
