drugbank_target|Q7BJM5 Class B carbapenemase VIM-2 (DB08161)
 OpenBabel12092120483D

  0  0  0     0  0            999 V3000
M  V30 BEGIN CTAB
M  V30 COUNTS 3973 4018 0 0 0
M  V30 BEGIN ATOM
M  V30 1 H -0.908 1.98254 -0.117106 0
M  V30 2 N 0 1.576 0 0
M  V30 3 C 0.933 2.03868 1.02534 0
M  V30 4 C 1.911 0.928543 1.3348 0
M  V30 5 O 3.095 1.19667 1.45644 0
M  V30 6 C 0.222 2.43627 2.35294 0
M  V30 7 C -0.732 3.65373 2.2001 0
M  V30 8 S 0.101 5.13292 1.52614 0
M  V30 9 C 1.257 5.56322 2.86805 0
M  V30 10 H 1.49 2.90518 0.631377 0
M  V30 11 H -0.977 1.52953 0.210867 0
M  V30 12 H 0.981 2.67203 3.11629 0
M  V30 13 H -0.358 1.57376 2.7183 0
M  V30 14 H -1.165 3.90944 3.18086 0
M  V30 15 H -1.563 3.418 1.51819 0
M  V30 16 H 0.729 5.58782 3.83104 0
M  V30 17 H 1.672 6.56266 2.65933 0
M  V30 18 H 2.08 4.83886 2.90714 0
M  V30 19 N 1.4781 -0.272755 1.55222 0
M  V30 20 C 2.7251 -1.00433 1.7584 0
M  V30 21 C 3.0531 -1.86275 0.559629 0
M  V30 22 O 2.3081 -1.90269 -0.457857 0
M  V30 23 C 2.6071 -1.91642 3.01675 0
M  V30 24 C 2.2731 -1.21548 4.34208 0
M  V30 25 C 0.9351 -1.02166 4.70229 0
M  V30 26 C 3.2871 -0.716684 5.16249 0
M  V30 27 C 0.6151 -0.316334 5.85847 0
M  V30 28 C 2.9671 -0.0249476 6.32595 0
M  V30 29 C 1.6311 0.180579 6.67256 0
M  V30 30 H 0.9011 -0.367509 0.643443 0
M  V30 31 H 3.5481 -0.276596 1.89492 0
M  V30 32 H 1.8531 -2.71037 2.82924 0
M  V30 33 H 3.5501 -2.48369 3.14824 0
M  V30 34 H 0.1401 -1.37645 4.05896 0
M  V30 35 H 4.3241 -0.854047 4.88896 0
M  V30 36 H -0.4199 -0.146378 6.11225 0
M  V30 37 H 3.7541 0.369311 6.9542 0
M  V30 38 H 1.3811 0.729098 7.56696 0
M  V30 39 N 2.9562 -1.48159 -0.537278 0
M  V30 40 C 3.9032 -1.62138 -1.64256 0
M  V30 41 C 4.8732 -0.463668 -1.59497 0
M  V30 42 O 6.0582 -0.686241 -1.78032 0
M  V30 43 C 3.1982 -1.66028 -3.02537 0
M  V30 44 C 2.3112 -2.92855 -3.17585 0
M  V30 45 C 1.4462 -2.87952 -4.46382 0
M  V30 46 C 0.4852 -4.09516 -4.54932 0
M  V30 47 N -0.3778 -4.02733 -5.75109 0
M  V30 48 H 4.4622 -2.56529 -1.51647 0
M  V30 49 H 1.9992 -1.27224 -0.738414 0
M  V30 50 H 3.9572 -1.66265 -3.82638 0
M  V30 51 H 2.5872 -0.751331 -3.13934 0
M  V30 52 H 1.6392 -3.02395 -2.30784 0
M  V30 53 H 2.9512 -3.82822 -3.19764 0
M  V30 54 H 2.1052 -2.8655 -5.34765 0
M  V30 55 H 0.8442 -1.95702 -4.46712 0
M  V30 56 H -0.1508 -4.11201 -3.64957 0
M  V30 57 H 1.0742 -5.02917 -4.56346 0
M  V30 58 H -0.9798 -3.13299 -5.76351 0
M  V30 59 H -1.0628 -4.86397 -5.78752 0
M  V30 60 H 0.2052 -4.05379 -6.65799 0
M  V30 61 N 4.4343 0.785586 -1.36625 0
M  V30 62 C 5.3643 1.91259 -1.33949 0
M  V30 63 C 6.3453 1.68795 -0.210325 0
M  V30 64 O 7.5303 1.89854 -0.408561 0
M  V30 65 C 4.6603 3.28339 -1.13186 0
M  V30 66 C 3.6143 3.65335 -2.22967 0
M  V30 67 C 2.9403 5.00806 -1.87342 0
M  V30 68 C 4.2403 3.7352 -3.65075 0
M  V30 69 H 5.9343 1.93755 -2.28253 0
M  V30 70 H 3.4803 0.930788 -1.09874 0
M  V30 71 H 5.4333 4.06804 -1.09948 0
M  V30 72 H 4.1573 3.2624 -0.153332 0
M  V30 73 H 2.8163 2.89169 -2.25337 0
M  V30 74 H 2.4643 4.95233 -0.880545 0
M  V30 75 H 2.1643 5.26529 -2.60846 0
M  V30 76 H 3.6883 5.81687 -1.85667 0
M  V30 77 H 5.1023 4.42168 -3.64911 0
M  V30 78 H 3.4993 4.10731 -4.37516 0
M  V30 79 H 4.5693 2.74527 -3.99703 0
M  V30 80 N 5.9124 1.20967 1.01018 0
M  V30 81 C 6.8424 0.988272 2.11555 0
M  V30 82 C 7.8234 -0.0849778 1.69888 0
M  V30 83 O 9.0084 0.0738202 1.9406 0
M  V30 84 C 6.1384 0.546528 3.42973 0
M  V30 85 C 5.0924 1.56375 3.9841 0
M  V30 86 C 4.4184 0.97842 5.25672 0
M  V30 87 C 5.7184 2.94922 4.31066 0
M  V30 88 H 7.4124 1.91276 2.30334 0
M  V30 89 H 4.9584 0.921073 1.1069 0
M  V30 90 H 6.9114 0.378839 4.19694 0
M  V30 91 H 5.6354 -0.413598 3.23971 0
M  V30 92 H 4.2944 1.71891 3.23804 0
M  V30 93 H 3.9424 0.0101688 5.02999 0
M  V30 94 H 3.6424 1.65784 5.63728 0
M  V30 95 H 5.1664 0.821939 6.05043 0
M  V30 96 H 6.5804 2.8288 4.9865 0
M  V30 97 H 4.9774 3.5983 4.80253 0
M  V30 98 H 6.0474 3.4616 3.39561 0
M  V30 99 N 7.3905 -1.2043 1.01659 0
M  V30 100 C 8.6155 -1.94318 0.724942 0
M  V30 101 C 9.0405 -1.74266 -0.708034 0
M  V30 102 O 8.3985 -1.03694 -1.48719 0
M  V30 103 C 8.4465 -3.44486 1.06591 0
M  V30 104 O 7.5505 -4.12017 0.177599 0
M  V30 105 H 6.8915 -0.60708 0.26898 0
M  V30 106 H 9.4215 -1.52861 1.35995 0
M  V30 107 H 9.4315 -3.95106 1.01762 0
M  V30 108 H 8.1065 -3.58404 2.10997 0
M  V30 109 H 6.6835 -3.71821 0.283421 0
M  V30 110 N 8.8686 -0.792821 -1.36206 0
M  V30 111 C 9.8156 -0.191653 -2.30003 0
M  V30 112 C 10.7856 0.666453 -1.52143 0
M  V30 113 O 11.9706 0.61442 -1.80636 0
M  V30 114 C 9.1106 0.664848 -3.38635 0
M  V30 115 C 8.2236 -0.212175 -4.31479 0
M  V30 116 C 7.3586 0.651022 -5.27196 0
M  V30 117 C 6.3976 -0.227247 -6.11678 0
M  V30 118 N 5.5346 0.595127 -6.99573 0
M  V30 119 H 10.3746 -0.996978 -2.80828 0
M  V30 120 H 7.9116 -0.503206 -1.38225 0
M  V30 121 H 9.8696 1.17645 -4.00269 0
M  V30 122 H 8.4996 1.43557 -2.89122 0
M  V30 123 H 7.5516 -0.841777 -3.70969 0
M  V30 124 H 8.8636 -0.888751 -4.90818 0
M  V30 125 H 8.0176 1.2283 -5.94136 0
M  V30 126 H 6.7566 1.36121 -4.68319 0
M  V30 127 H 5.7616 -0.816904 -5.43697 0
M  V30 128 H 6.9866 -0.93509 -6.72631 0
M  V30 129 H 4.9326 1.28955 -6.432 0
M  V30 130 H 4.8496 -0.0236952 -7.55996 0
M  V30 131 H 6.1176 1.15613 -7.70879 0
M  V30 132 N 10.3467 1.47872 -0.545128 0
M  V30 133 C 11.2767 2.32661 0.197793 0
M  V30 134 C 12.2577 1.43041 0.920504 0
M  V30 135 O 13.4427 1.71912 0.90333 0
M  V30 136 C 10.5727 3.24569 1.23582 0
M  V30 137 C 9.5267 4.23333 0.630323 0
M  V30 138 C 8.8527 5.0448 1.77211 0
M  V30 139 C 10.1527 5.20704 -0.407974 0
M  V30 140 H 11.8467 2.95024 -0.510045 0
M  V30 141 H 9.3927 1.4187 -0.246731 0
M  V30 142 H 11.3457 3.8272 1.76362 0
M  V30 143 H 10.0697 2.60236 1.97344 0
M  V30 144 H 8.7287 3.6639 0.123922 0
M  V30 145 H 8.3767 4.36561 2.49847 0
M  V30 146 H 8.0767 5.71339 1.37281 0
M  V30 147 H 9.6007 5.65487 2.3034 0
M  V30 148 H 11.0147 5.7329 0.033305 0
M  V30 149 H 9.4117 5.95699 -0.725486 0
M  V30 150 H 10.4817 4.66917 -1.30828 0
M  V30 151 N 11.8248 0.280983 1.55075 0
M  V30 152 C 12.7548 -0.597469 2.25727 0
M  V30 153 C 13.7358 -1.15417 1.24952 0
M  V30 154 O 14.9208 -1.18722 1.53684 0
M  V30 155 C 12.0508 -1.7789 2.98283 0
M  V30 156 C 11.0048 -1.35347 4.06036 0
M  V30 157 C 10.3308 -2.61846 4.66198 0
M  V30 158 C 11.6308 -0.499354 5.19907 0
M  V30 159 H 13.3248 -0.00824265 2.99399 0
M  V30 160 H 10.8708 -0.0025244 1.44 0
M  V30 161 H 12.8238 -2.39937 3.46422 0
M  V30 162 H 11.5478 -2.39405 2.22155 0
M  V30 163 H 10.2068 -0.756156 3.58717 0
M  V30 164 H 9.8548 -3.21632 3.86732 0
M  V30 165 H 9.5548 -2.3409 5.38958 0
M  V30 166 H 11.0788 -3.24732 5.1709 0
M  V30 167 H 12.4928 -1.02498 5.64063 0
M  V30 168 H 10.8898 -0.316424 5.99265 0
M  V30 169 H 11.9598 0.480459 4.82514 0
M  V30 170 N 13.3029 -1.57598 0.00835791 0
M  V30 171 C 14.5489 -1.91211 -0.675732 0
M  V30 172 C 14.8819 -0.883139 -1.72958 0
M  V30 173 O 14.1569 0.097016 -1.94258 0
M  V30 174 C 14.4399 -3.35379 -1.31123 0
M  V30 175 C 14.2929 -4.48999 -0.268356 0
M  V30 176 C 15.6119 -3.7912 -2.23508 0
M  V30 177 H 12.7309 -0.695374 -0.244179 0
M  V30 178 H 15.3729 -1.89901 0.0613655 0
M  V30 179 H 13.5229 -3.36626 -1.93946 0
M  V30 180 H 15.1949 -4.59887 0.360844 0
M  V30 181 H 13.4379 -4.31873 0.408482 0
M  V30 182 H 14.1089 -5.46851 -0.752218 0
M  V30 183 H 16.5849 -3.79477 -1.70693 0
M  V30 184 H 15.4609 -4.80729 -2.64936 0
M  V30 185 H 15.7219 -3.13455 -3.11766 0
M  V30 186 N 14.781 0.264519 -1.55364 0
M  V30 187 C 16.011 1.01153 -1.80143 0
M  V30 188 C 16.419 1.80115 -0.579253 0
M  V30 189 O 15.762 1.77813 0.46132 0
M  V30 190 C 15.824 2.01098 -2.97993 0
M  V30 191 C 15.488 1.40995 -4.34706 0
M  V30 192 C 16.485 0.821316 -5.13372 0
M  V30 193 C 14.17 1.43461 -4.81378 0
M  V30 194 C 16.164 0.265339 -6.36847 0
M  V30 195 C 13.851 0.874771 -6.04807 0
M  V30 196 C 14.849 0.291146 -6.82379 0
M  V30 197 O 14.537 -0.260093 -8.03479 0
M  V30 198 H 14.269 0.304125 -0.603725 0
M  V30 199 H 16.823 0.298089 -2.03225 0
M  V30 200 H 15.053 2.76224 -2.70623 0
M  V30 201 H 16.742 2.61997 -3.1002 0
M  V30 202 H 17.508 0.794903 -4.78442 0
M  V30 203 H 13.387 1.87826 -4.21002 0
M  V30 204 H 16.931 -0.190837 -6.97339 0
M  V30 205 H 12.828 0.898452 -6.39217 0
M  V30 206 H 13.596 -0.150265 -8.18362 0
M  V30 207 N 16.2591 1.48442 0.529413 0
M  V30 208 C 17.1891 1.65902 1.64313 0
M  V30 209 C 18.1701 0.507897 1.6234 0
M  V30 210 O 19.3551 0.740503 1.79528 0
M  V30 211 C 16.4851 1.69911 3.02898 0
M  V30 212 C 15.4391 2.8453 3.19729 0
M  V30 213 C 14.7651 2.73629 4.59381 0
M  V30 214 C 16.0651 4.25821 3.02447 0
M  V30 215 H 17.7591 2.5914 1.49955 0
M  V30 216 H 15.3051 1.24709 0.719982 0
M  V30 217 H 17.2581 1.80715 3.80684 0
M  V30 218 H 15.9821 0.732524 3.18279 0
M  V30 219 H 14.6411 2.73283 2.44361 0
M  V30 220 H 14.2891 1.74938 4.71599 0
M  V30 221 H 13.9891 3.50541 4.71588 0
M  V30 222 H 15.5131 2.86401 5.39265 0
M  V30 223 H 16.9271 4.37898 3.70024 0
M  V30 224 H 15.3241 5.03735 3.26146 0
M  V30 225 H 16.3941 4.42244 1.98867 0
M  V30 226 N 17.7372 -0.778329 1.37039 0
M  V30 227 C 18.9652 -1.56734 1.35063 0
M  V30 228 C 19.3802 -1.88686 -0.0655597 0
M  V30 229 O 18.7372 -1.5096 -1.02554 0
M  V30 230 C 18.7882 -2.88163 2.18276 0
M  V30 231 O 18.5092 -2.57583 3.54376 0
M  V30 232 C 20.0102 -3.82422 2.24206 0
M  V30 233 H 17.2302 -0.485778 0.462883 0
M  V30 234 H 19.7742 -0.965185 1.8029 0
M  V30 235 H 17.9292 -3.44818 1.76576 0
M  V30 236 H 18.3432 -3.41699 3.97922 0
M  V30 237 H 19.8172 -4.71667 2.86765 0
M  V30 238 H 20.2942 -4.21078 1.24861 0
M  V30 239 H 20.9002 -3.31697 2.6619 0
M  V30 240 N 19.2153 -1.21501 -1.00376 0
M  V30 241 C 20.1783 -0.976927 -2.07337 0
M  V30 242 C 21.1783 0.0525322 -1.60714 0
M  V30 243 O 22.3683 -0.184869 -1.73216 0
M  V30 244 C 19.5003 -0.473423 -3.37597 0
M  V30 245 H 20.6933 -1.92587 -2.29892 0
M  V30 246 H 18.2463 -1.03217 -1.17371 0
M  V30 247 H 18.9813 0.480379 -3.20722 0
M  V30 248 H 18.7663 -1.216 -3.72768 0
M  V30 249 H 20.2563 -0.32675 -4.1632 0
M  V30 250 N 20.6934 1.19889 -1.02296 0
M  V30 251 C 21.9184 1.9393 -0.735237 0
M  V30 252 C 22.3434 1.74639 0.698782 0
M  V30 253 O 21.7014 1.04481 1.48167 0
M  V30 254 C 21.7494 3.43916 -1.08417 0
M  V30 255 O 20.8534 4.11917 -0.199446 0
M  V30 256 H 20.1944 0.605645 -0.272196 0
M  V30 257 H 22.7244 1.52137 -1.36804 0
M  V30 258 H 22.7344 3.9456 -1.03856 0
M  V30 259 H 21.4094 3.5728 -2.12894 0
M  V30 260 H 19.9864 3.71666 -0.303136 0
M  V30 261 N 22.1715 0.800033 1.35784 0
M  V30 262 C 23.4205 0.37387 1.98205 0
M  V30 263 C 23.7335 -1.06302 1.64193 0
M  V30 264 O 24.9395 -1.59198 2.19928 0
M  V30 265 C 23.3955 0.617532 3.54562 0
M  V30 266 C 23.0035 2.06654 3.9749 0
M  V30 267 C 24.7475 0.256401 4.23725 0
M  V30 268 C 22.6545 2.2563 5.46667 0
M  V30 269 H 21.5845 0.136055 0.741623 0
M  V30 270 H 24.2355 0.983166 1.54939 0
M  V30 271 H 22.6175 -0.0616248 3.95952 0
M  V30 272 H 23.7915 2.78296 3.67271 0
M  V30 273 H 22.1065 2.38691 3.41197 0
M  V30 274 H 24.7035 0.376318 5.33374 0
M  V30 275 H 25.0465 -0.796692 4.08606 0
M  V30 276 H 25.5795 0.889214 3.87734 0
M  V30 277 H 22.3185 3.2936 5.66747 0
M  V30 278 H 21.8385 1.58504 5.78478 0
M  V30 279 H 23.5175 2.06861 6.1304 0
M  V30 280 N 23.6496 -1.47581 0.552962 0
M  V30 281 C 24.5826 -2.26883 -0.244857 0
M  V30 282 C 25.5606 -1.33784 -0.924147 0
M  V30 283 O 26.7446 -1.6316 -0.943981 0
M  V30 284 C 23.8716 -3.10695 -1.34856 0
M  V30 285 C 22.9176 -4.19339 -0.778268 0
M  V30 286 S 23.7506 -5.34207 0.37184 0
M  V30 287 C 24.9066 -6.21584 -0.733779 0
M  V30 288 H 25.1396 -2.94202 0.428087 0
M  V30 289 H 22.6726 -1.50628 0.339197 0
M  V30 290 H 24.6306 -3.59555 -1.98066 0
M  V30 291 H 23.2916 -2.42746 -1.99332 0
M  V30 292 H 22.4846 -4.77695 -1.60696 0
M  V30 293 H 22.0866 -3.73338 -0.222422 0
M  V30 294 H 24.3786 -6.57676 -1.62692 0
M  V30 295 H 25.3216 -7.07851 -0.187668 0
M  V30 296 H 25.7296 -5.55125 -1.02454 0
M  V30 297 N 25.1277 -0.289203 -1.54924 0
M  V30 298 C 26.0907 0.579144 -2.21762 0
M  V30 299 C 27.0907 1.07047 -1.1999 0
M  V30 300 O 28.2807 0.968384 -1.44803 0
M  V30 301 C 25.4127 1.80055 -2.8947 0
M  V30 302 H 26.6057 -0.00464908 -2.999 0
M  V30 303 H 24.1587 -0.0399306 -1.56249 0
M  V30 304 H 24.8937 2.42449 -2.15381 0
M  V30 305 H 24.6787 1.45602 -3.64064 0
M  V30 306 H 26.1687 2.41773 -3.40493 0
M  V30 307 N 26.6058 1.57591 -0.0167156 0
M  V30 308 C 27.8548 1.90461 0.663877 0
M  V30 309 C 28.1678 0.893515 1.73999 0
M  V30 310 O 29.3738 1.11302 2.47637 0
M  V30 311 C 27.8298 3.38155 1.23204 0
M  V30 312 C 27.4378 4.47597 0.189866 0
M  V30 313 C 29.1818 3.80111 1.88986 0
M  V30 314 C 27.0888 5.86379 0.768964 0
M  V30 315 H 26.0188 0.710738 0.251729 0
M  V30 316 H 28.6698 1.83326 -0.0799926 0
M  V30 317 H 27.0518 3.40182 2.02712 0
M  V30 318 H 28.2258 4.57112 -0.581846 0
M  V30 319 H 26.5408 4.14766 -0.368475 0
M  V30 320 H 29.1378 4.81145 2.33247 0
M  V30 321 H 29.4808 3.14511 2.72743 0
M  V30 322 H 30.0138 3.80454 1.16187 0
M  V30 323 H 26.7528 6.55493 -0.0301957 0
M  V30 324 H 26.2728 5.80496 1.50945 0
M  V30 325 H 27.9518 6.34563 1.26251 0
M  V30 326 N 28.0839 -0.256276 1.55502 0
M  V30 327 C 29.0469 -1.30047 1.88734 0
M  V30 328 C 30.0469 -1.4154 0.763086 0
M  V30 329 O 31.2369 -1.40403 1.03115 0
M  V30 330 C 28.3689 -2.67953 2.10747 0
M  V30 331 H 29.5619 -1.01802 2.82093 0
M  V30 332 H 27.1149 -0.495134 1.4825 0
M  V30 333 H 27.8499 -3.01351 1.19825 0
M  V30 334 H 27.6349 -2.60993 2.92617 0
M  V30 335 H 29.1249 -3.43368 2.37673 0
M  V30 336 N 29.562 -1.4872 -0.521534 0
M  V30 337 C 30.787 -1.61101 -1.30618 0
M  V30 338 C 31.212 -0.274611 -1.86085 0
M  V30 339 O 30.57 0.754937 -1.64834 0
M  V30 340 C 30.618 -2.66709 -2.4269 0
M  V30 341 O 29.722 -2.24456 -3.45967 0
M  V30 342 H 29.063 -0.539921 -0.386499 0
M  V30 343 H 31.593 -1.94767 -0.626645 0
M  V30 344 H 31.603 -2.88245 -2.88754 0
M  V30 345 H 30.278 -3.63727 -2.01682 0
M  V30 346 H 28.855 -2.13168 -3.05964 0
M  V30 347 N 31.0401 0.771051 -1.3745 0
M  V30 348 C 32.4511 1.34737 -1.29239 0
M  V30 349 C 32.8021 1.96109 0.0596908 0
M  V30 350 O 31.9271 1.93865 0.961534 0
M  V30 351 C 32.5221 2.44973 -2.34037 0
M  V30 352 C 31.0811 2.98372 -2.29458 0
M  V30 353 C 30.2281 1.71595 -2.17831 0
M  V30 354 H 33.1791 0.571256 -1.48062 0
M  V30 355 H 33.2001 3.24471 -1.98744 0
M  V30 356 H 32.7121 2.00276 -3.32432 0
M  V30 357 H 30.8131 3.47443 -1.34589 0
M  V30 358 H 30.9261 3.53939 -3.229 0
M  V30 359 H 29.2901 1.94547 -1.64388 0
M  V30 360 H 30.0731 1.29001 -3.18141 0
M  V30 361 N 32.5182 1.22032 0.997298 0
M  V30 362 C 33.4482 1.01065 2.10495 0
M  V30 363 C 34.4292 -0.0669542 1.69968 0
M  V30 364 O 35.6142 0.0943987 1.9397 0
M  V30 365 C 32.7442 0.582874 3.42374 0
M  V30 366 C 31.6982 1.60592 3.96729 0
M  V30 367 C 31.0242 1.03412 5.24605 0
M  V30 368 C 32.3242 2.99478 4.27914 0
M  V30 369 H 34.0182 1.93708 2.28292 0
M  V30 370 H 31.5642 0.932761 1.09707 0
M  V30 371 H 33.5172 0.423332 4.19268 0
M  V30 372 H 32.2412 -0.379213 3.24391 0
M  V30 373 H 30.9002 1.75316 3.21963 0
M  V30 374 H 30.5482 0.063518 5.0296 0
M  V30 375 H 30.2482 1.71754 5.61938 0
M  V30 376 H 31.7722 0.886066 6.04137 0
M  V30 377 H 33.1862 2.88153 4.95622 0
M  V30 378 H 31.5832 3.64903 4.76409 0
M  V30 379 H 32.6532 3.49742 3.3587 0
M  V30 380 N 33.9963 -1.19345 1.0293 0
M  V30 381 C 34.9593 -2.20793 0.615069 0
M  V30 382 C 35.9593 -1.57553 -0.321533 0
M  V30 383 O 37.1493 -1.73862 -0.108483 0
M  V30 384 C 34.2813 -3.40754 -0.0999222 0
M  V30 385 H 35.4743 -2.58955 1.51269 0
M  V30 386 H 33.0273 -1.3303 0.820534 0
M  V30 387 H 33.7623 -3.0811 -1.01187 0
M  V30 388 H 33.5473 -3.87889 0.57309 0
M  V30 389 H 35.0373 -4.15898 -0.376645 0
M  V30 390 N 35.4744 -0.807222 -1.35358 0
M  V30 391 C 36.7214 -0.387888 -1.9875 0
M  V30 392 C 37.0494 1.04509 -1.64037 0
M  V30 393 O 36.3044 1.73986 -0.895946 0
M  V30 394 C 36.6034 -0.519036 -3.53611 0
M  V30 395 C 36.2694 -1.91542 -4.08194 0
M  V30 396 C 34.9314 -2.29745 -4.22813 0
M  V30 397 C 37.2834 -2.82896 -4.37744 0
M  V30 398 C 34.6114 -3.58668 -4.643 0
M  V30 399 C 36.9634 -4.11265 -4.8067 0
M  V30 400 C 35.6274 -4.49466 -4.93494 0
M  V30 401 H 34.8974 -0.141938 -0.727279 0
M  V30 402 H 37.5444 -1.02814 -1.6156 0
M  V30 403 H 35.8494 0.204658 -3.91265 0
M  V30 404 H 37.5464 -0.175345 -4.00616 0
M  V30 405 H 34.1364 -1.60862 -3.97268 0
M  V30 406 H 38.3204 -2.54629 -4.26002 0
M  V30 407 H 33.5764 -3.88113 -4.72418 0
M  V30 408 H 37.7504 -4.82153 -5.02496 0
M  V30 409 H 35.3774 -5.49418 -5.25399 0
M  V30 410 N 36.9525 1.47285 -0.560781 0
M  V30 411 C 38.1775 2.07359 -0.0410566 0
M  V30 412 C 38.6025 1.41017 1.24483 0
M  V30 413 O 37.9605 0.486368 1.74654 0
M  V30 414 C 38.0085 3.6035 0.134123 0
M  V30 415 O 37.1125 3.94681 1.19587 0
M  V30 416 H 36.4535 0.661887 -0.0529291 0
M  V30 417 H 38.9835 1.89252 -0.777482 0
M  V30 418 H 38.9935 4.0652 0.347207 0
M  V30 419 H 37.6685 4.08034 -0.805047 0
M  V30 420 H 36.2455 3.60251 0.962987 0
M  V30 421 N 38.4306 0.297415 1.54768 0
M  V30 422 C 39.6766 -0.313376 2.00364 0
M  V30 423 C 40.0096 -1.53815 1.18553 0
M  V30 424 O 39.2846 -1.92739 0.261103 0
M  V30 425 C 39.5676 -0.673525 3.53745 0
M  V30 426 C 39.4206 0.560133 4.46299 0
M  V30 427 C 40.7396 -1.50143 4.13697 0
M  V30 428 H 37.8586 -0.112428 0.728374 0
M  V30 429 H 40.5006 0.4088 1.8555 0
M  V30 430 H 38.6506 -1.28881 3.665 0
M  V30 431 H 40.3226 1.19863 4.45455 0
M  V30 432 H 38.5656 1.19405 4.17043 0
M  V30 433 H 39.2366 0.26405 5.51368 0
M  V30 434 H 41.7126 -0.981588 4.04356 0
M  V30 435 H 40.5886 -1.72221 5.21182 0
M  V30 436 H 40.8496 -2.48952 3.65343 0
M  V30 437 N 39.9087 -1.5758 0.0250728 0
M  V30 438 C 41.1857 -1.82917 -0.692873 0
M  V30 439 C 41.5657 -0.908137 -1.90568 0
M  V30 440 O 40.9137 0.0372298 -2.2847 0
M  V30 441 C 41.1237 -3.32034 -1.07492 0
M  V30 442 C 42.4717 -3.98406 -1.46826 0
M  V30 443 O 43.4957 -3.36505 -1.16801 0
M  V30 444 O 42.3547 -5.07497 -2.02754 0
M  V30 445 H 39.4487 -0.754079 -0.33955 0
M  V30 446 H 41.9947 -1.69619 0.0524456 0
M  V30 447 H 40.7667 -3.90728 -0.211552 0
M  V30 448 H 40.3897 -3.50424 -1.87854 0
M  V30 449 N 41.3868 0.248026 -1.55636 0
M  V30 450 C 42.6118 0.998028 -1.81808 0
M  V30 451 C 43.0368 1.78207 -0.601979 0
M  V30 452 O 42.3948 1.75653 0.448961 0
M  V30 453 C 42.4428 1.9125 -3.05705 0
M  V30 454 O 41.5468 3.00406 -2.82542 0
M  V30 455 H 40.8878 0.284045 -0.600179 0
M  V30 456 H 43.4178 0.269357 -2.02819 0
M  V30 457 H 43.4278 2.32737 -3.35108 0
M  V30 458 H 42.1028 1.33602 -3.93857 0
M  V30 459 H 40.6798 2.63056 -2.64303 0
M  V30 460 N 42.8649 1.48995 0.513639 0
M  V30 461 C 44.0899 1.61792 1.29762 0
M  V30 462 C 44.5149 0.284475 1.85936 0
M  V30 463 O 43.8729 -0.746185 1.65232 0
M  V30 464 C 43.9209 2.67993 2.41272 0
M  V30 465 O 43.0249 2.26287 3.44772 0
M  V30 466 H 42.3659 0.541963 0.38363 0
M  V30 467 H 44.8959 1.95097 0.616307 0
M  V30 468 H 44.9059 2.89772 2.87221 0
M  V30 469 H 43.5809 3.64791 1.9975 0
M  V30 470 H 42.1579 2.14788 3.04829 0
M  V30 471 N 44.343 -0.763751 1.37857 0
M  V30 472 C 45.591 -1.51957 1.33243 0
M  V30 473 C 45.912 -1.94835 -0.0801709 0
M  V30 474 O 45.182 -1.66894 -1.02582 0
M  V30 475 H 43.762 -0.563626 0.49024 0
M  V30 476 H 46.424 -0.908504 1.7243 0
M  V30 477 H 45.52 -2.41523 1.97669 0
M  V30 478 N 45.8211 -1.22559 -0.990812 0
M  V30 479 C 46.7311 -1.01394 -2.11557 0
M  V30 480 C 47.7471 0.0383962 -1.73958 0
M  V30 481 O 48.9231 -0.154787 -2.00804 0
M  V30 482 C 45.9881 -0.596569 -3.41529 0
M  V30 483 C 45.0491 -1.72276 -3.93217 0
M  V30 484 C 44.2821 -1.32521 -5.16985 0
M  V30 485 O 44.5051 -0.204909 -5.70032 0
M  V30 486 O 43.4391 -2.14247 -5.62478 0
M  V30 487 H 47.2651 -1.95633 -2.32296 0
M  V30 488 H 44.8501 -1.01172 -1.0993 0
M  V30 489 H 46.7321 -0.374263 -4.19735 0
M  V30 490 H 45.4071 0.316939 -3.22145 0
M  V30 491 H 44.3141 -1.99961 -3.16174 0
M  V30 492 H 45.6471 -2.61421 -4.17037 0
M  V30 493 N 47.2992 1.18797 -1.03562 0
M  V30 494 C 48.5292 1.92319 -0.754773 0
M  V30 495 C 48.9372 1.7612 0.691248 0
M  V30 496 O 48.2802 1.08491 1.48241 0
M  V30 497 C 48.3422 3.44284 -1.03484 0
M  V30 498 C 48.0062 3.84258 -2.47376 0
M  V30 499 C 49.0032 3.88459 -3.45537 0
M  V30 500 C 46.6882 4.15701 -2.81954 0
M  V30 501 C 48.6822 4.23545 -4.76328 0
M  V30 502 C 46.3692 4.50458 -4.12954 0
M  V30 503 C 47.3672 4.54356 -5.09951 0
M  V30 504 O 47.0552 4.88305 -6.38603 0
M  V30 505 H 46.7872 0.617527 -0.275021 0
M  V30 506 H 49.3412 1.51683 -1.38497 0
M  V30 507 H 47.5712 3.85135 -0.347513 0
M  V30 508 H 49.2602 3.99049 -0.7426 0
M  V30 509 H 50.0262 3.6431 -3.20162 0
M  V30 510 H 45.9052 4.11847 -2.0713 0
M  V30 511 H 49.4492 4.26502 -5.52035 0
M  V30 512 H 45.3462 4.74067 -4.38099 0
M  V30 513 H 46.1142 5.06227 -6.43177 0
M  V30 514 N 48.7773 0.814389 1.34928 0
M  V30 515 C 50.1883 0.458364 1.80986 0
M  V30 516 C 50.5393 -1.02042 1.67577 0
M  V30 517 O 49.6643 -1.79352 1.21086 0
M  V30 518 C 50.2593 0.825212 3.28597 0
M  V30 519 C 48.8183 0.521677 3.72767 0
M  V30 520 C 47.9653 1.04668 2.56788 0
M  V30 521 H 50.9163 1.00533 1.22795 0
M  V30 522 H 50.9373 0.12571 3.80292 0
M  V30 523 H 50.4493 1.90154 3.38324 0
M  V30 524 H 48.5503 -0.545589 3.68584 0
M  V30 525 H 48.6633 1.05977 4.67232 0
M  V30 526 H 47.0273 0.468622 2.50352 0
M  V30 527 H 47.8103 2.12927 2.6929 0
M  V30 528 N 50.2554 -1.46986 0.568584 0
M  V30 529 C 51.4834 -2.0683 0.0539956 0
M  V30 530 C 51.8984 -1.41953 -1.24478 0
M  V30 531 O 51.2554 -0.519933 -1.74937 0
M  V30 532 C 51.3064 -3.61254 -0.133362 0
M  V30 533 O 51.0274 -4.237 1.11399 0
M  V30 534 C 52.5284 -4.37992 -0.683927 0
M  V30 535 H 49.7484 -0.669058 0.0510141 0
M  V30 536 H 52.2924 -1.88824 0.785234 0
M  V30 537 H 50.4474 -3.78735 -0.81477 0
M  V30 538 H 50.8614 -5.16388 0.91888 0
M  V30 539 H 52.3354 -5.46684 -0.764263 0
M  V30 540 H 52.8124 -4.05058 -1.69778 0
M  V30 541 H 53.4184 -4.25283 -0.0378494 0
M  V30 542 N 51.7335 -0.305618 -1.54608 0
M  V30 543 C 52.9795 0.302746 -2.00528 0
M  V30 544 C 53.3125 1.53184 -1.19367 0
M  V30 545 O 52.5875 1.92598 -0.271321 0
M  V30 546 C 52.8705 0.654756 -3.54097 0
M  V30 547 C 52.7235 -0.583793 -4.45995 0
M  V30 548 C 54.0425 1.47947 -4.14487 0
M  V30 549 H 51.1615 0.108564 -0.72896 0
M  V30 550 H 53.8035 -0.418634 -1.85331 0
M  V30 551 H 51.9535 1.26935 -3.67178 0
M  V30 552 H 53.6255 -1.22224 -4.44814 0
M  V30 553 H 51.8685 -1.21615 -4.16404 0
M  V30 554 H 52.5395 -0.293287 -5.5122 0
M  V30 555 H 55.0155 0.96013 -4.04871 0
M  V30 556 H 53.8915 1.69454 -5.22088 0
M  V30 557 H 54.1525 2.47011 -3.66658 0
M  V30 558 N 53.2116 1.57565 -0.0334293 0
M  V30 559 C 54.4366 1.96689 0.657895 0
M  V30 560 C 54.8616 0.910057 1.64619 0
M  V30 561 O 54.2196 -0.128598 1.80843 0
M  V30 562 C 54.2676 3.34905 1.33683 0
M  V30 563 O 53.3716 3.31574 2.45219 0
M  V30 564 H 52.7126 0.641205 0.172489 0
M  V30 565 H 55.2426 2.04372 -0.0965621 0
M  V30 566 H 55.2526 3.71234 1.69262 0
M  V30 567 H 53.9276 4.11366 0.612411 0
M  V30 568 H 52.5046 3.06968 2.11719 0
M  V30 569 N 54.6897 -0.239769 1.55765 0
M  V30 570 C 55.5997 -1.31831 1.94056 0
M  V30 571 C 56.6157 -1.52275 0.841925 0
M  V30 572 O 57.7917 -1.65759 1.14394 0
M  V30 573 C 54.8567 -2.65156 2.23368 0
M  V30 574 C 53.9177 -2.53173 3.46701 0
M  V30 575 C 53.1507 -3.8014 3.74606 0
M  V30 576 O 53.3737 -4.82343 3.04469 0
M  V30 577 O 52.3077 -3.78344 4.68123 0
M  V30 578 H 56.1337 -1.02347 2.85935 0
M  V30 579 H 53.7187 -0.441123 1.42739 0
M  V30 580 H 55.6007 -3.43929 2.43497 0
M  V30 581 H 54.2757 -2.94358 1.34666 0
M  V30 582 H 53.1827 -1.72662 3.31871 0
M  V30 583 H 54.5157 -2.28915 4.35728 0
M  V30 584 N 56.1678 -1.49265 -0.50573 0
M  V30 585 C 57.4168 -1.57761 -1.25675 0
M  V30 586 C 57.7298 -0.267371 -1.93764 0
M  V30 587 O 58.9358 -0.230827 -2.70517 0
M  V30 588 C 57.3918 -2.78332 -2.28165 0
M  V30 589 C 56.9998 -4.16096 -1.66037 0
M  V30 590 C 58.7438 -2.96155 -3.04125 0
M  V30 591 C 56.6508 -5.27895 -2.6661 0
M  V30 592 H 55.5808 -0.587391 -0.472745 0
M  V30 593 H 58.2318 -1.75644 -0.53118 0
M  V30 594 H 56.6138 -2.53934 -3.03865 0
M  V30 595 H 57.7878 -4.50612 -0.963622 0
M  V30 596 H 56.1028 -4.03591 -1.02484 0
M  V30 597 H 58.6998 -3.76849 -3.79327 0
M  V30 598 H 59.0428 -2.06534 -3.61455 0
M  V30 599 H 59.5758 -3.2057 -2.35541 0
M  V30 600 H 56.3148 -6.1956 -2.14068 0
M  V30 601 H 55.8348 -4.97839 -3.34539 0
M  V30 602 H 57.5138 -5.57031 -3.29129 0
M  V30 603 N 57.6459 0.756429 -1.3826 0
M  V30 604 C 59.0569 1.33359 -1.30661 0
M  V30 605 C 59.4079 1.96161 0.0388875 0
M  V30 606 O 58.5329 1.94874 0.940918 0
M  V30 607 C 59.1279 2.42477 -2.36622 0
M  V30 608 C 57.6869 2.95922 -2.3261 0
M  V30 609 C 56.8339 1.69275 -2.19639 0
M  V30 610 H 59.7849 0.55552 -1.4866 0
M  V30 611 H 59.8059 3.22345 -2.02174 0
M  V30 612 H 59.3179 1.96739 -3.34538 0
M  V30 613 H 57.4189 3.45996 -1.38267 0
M  V30 614 H 57.5319 3.50494 -3.26636 0
M  V30 615 H 55.8959 1.92793 -1.66442 0
M  V30 616 H 56.6789 1.25619 -3.19491 0
M  V30 617 N 59.124 1.23083 0.984299 0
M  V30 618 C 60.37 1.06214 1.72761 0
M  V30 619 C 60.703 -0.400584 1.90024 0
M  V30 620 O 59.978 -1.29672 1.44967 0
M  V30 621 C 60.261 1.78375 3.12817 0
M  V30 622 C 60.114 3.32296 3.03149 0
M  V30 623 C 61.433 1.54309 4.12161 0
M  V30 624 H 58.552 0.387251 0.627061 0
M  V30 625 H 61.194 1.51536 1.14616 0
M  V30 626 H 59.344 1.39848 3.62457 0
M  V30 627 H 61.016 3.8032 2.61064 0
M  V30 628 H 59.259 3.6153 2.39747 0
M  V30 629 H 59.93 3.77972 4.02295 0
M  V30 630 H 62.406 1.87791 3.71314 0
M  V30 631 H 61.282 2.07281 5.08258 0
M  V30 632 H 61.543 0.477572 4.39513 0
M  V30 633 N 60.6021 -1.18246 1.0419 0
M  V30 634 C 61.8501 -1.87886 0.744543 0
M  V30 635 C 62.1711 -1.8082 -0.730006 0
M  V30 636 O 61.4411 -1.22736 -1.52685 0
M  V30 637 H 60.0211 -0.695556 0.272417 0
M  V30 638 H 62.6831 -1.43494 1.31892 0
M  V30 639 H 61.7791 -2.9389 1.05049 0
M  V30 640 N 62.0802 -0.821533 -1.34494 0
M  V30 641 C 62.9902 -0.244355 -2.33324 0
M  V30 642 C 64.0062 0.620527 -1.62559 0
M  V30 643 O 65.1822 0.528754 -1.94335 0
M  V30 644 C 62.2472 0.585368 -3.41723 0
M  V30 645 C 61.3082 -0.301752 -4.28238 0
M  V30 646 C 60.5412 0.488466 -5.3146 0
M  V30 647 O 60.7642 1.72186 -5.4379 0
M  V30 648 O 59.6982 -0.12848 -6.01763 0
M  V30 649 H 63.5242 -1.06231 -2.84515 0
M  V30 650 H 61.1092 -0.583645 -1.37528 0
M  V30 651 H 62.9912 1.05747 -4.07916 0
M  V30 652 H 61.6662 1.38068 -2.92778 0
M  V30 653 H 60.5732 -0.821315 -3.64973 0
M  V30 654 H 61.9062 -1.06138 -4.8062 0
M  V30 655 N 63.5583 1.46682 -0.576371 0
M  V30 656 C 64.8043 2.02712 -0.0596221 0
M  V30 657 C 65.1373 1.44765 1.29448 0
M  V30 658 O 64.4123 0.610355 1.84675 0
M  V30 659 C 64.6953 3.60098 0.0129503 0
M  V30 660 C 64.5483 4.28441 -1.3696 0
M  V30 661 C 65.8673 4.34224 0.71678 0
M  V30 662 H 62.9863 0.736637 -0.0231407 0
M  V30 663 H 65.6283 1.74898 -0.742351 0
M  V30 664 H 63.7783 3.83926 0.594378 0
M  V30 665 H 65.4503 4.15896 -1.9957 0
M  V30 666 H 63.6933 3.8805 -1.93907 0
M  V30 667 H 64.3643 5.3716 -1.27135 0
M  V30 668 H 66.8403 4.15503 0.222908 0
M  V30 669 H 65.7163 5.43936 0.73657 0
M  V30 670 H 65.9773 4.04823 1.77682 0
M  V30 671 N 65.0364 0.313813 1.54444 0
M  V30 672 C 66.4524 -0.0391619 1.59552 0
M  V30 673 C 66.6524 -1.51322 1.33056 0
M  V30 674 O 65.7084 -2.26782 1.11022 0
M  V30 675 C 67.0214 0.370302 2.98411 0
M  V30 676 C 68.5694 0.320139 3.11358 0
M  V30 677 C 69.0444 0.704617 4.52547 0
M  V30 678 N 70.5354 0.657645 4.58508 0
M  V30 679 C 71.2704 0.927453 5.6585 0
M  V30 680 N 70.7664 1.26389 6.81174 0
M  V30 681 N 72.5594 0.853662 5.5558 0
M  V30 682 H 64.7104 1.27433 1.69925 0
M  V30 683 H 66.9734 0.517511 0.794284 0
M  V30 684 H 66.6794 1.39694 3.22767 0
M  V30 685 H 66.5534 -0.269619 3.76235 0
M  V30 686 H 68.9404 -0.697275 2.86744 0
M  V30 687 H 69.0214 0.99486 2.35661 0
M  V30 688 H 68.6654 1.7199 4.77893 0
M  V30 689 H 68.5954 0.00768843 5.26599 0
M  V30 690 H 71.0864 0.409067 3.75679 0
M  V30 691 H 71.3994 1.4554 7.58972 0
M  V30 692 H 69.7444 1.30206 6.82694 0
M  V30 693 H 72.9354 0.590383 4.64362 0
M  V30 694 H 73.1084 1.0673 6.3915 0
M  V30 695 N 66.5145 -1.57545 0.0417849 0
M  V30 696 C 67.4445 -2.14009 -0.933929 0
M  V30 697 C 68.4255 -1.05938 -1.33083 0
M  V30 698 O 69.6105 -1.33833 -1.40721 0
M  V30 699 C 66.7405 -2.67747 -2.21199 0
M  V30 700 C 65.6945 -3.80718 -1.95544 0
M  V30 701 C 65.0205 -4.20935 -3.29724 0
M  V30 702 C 66.3205 -5.06258 -1.28452 0
M  V30 703 H 68.0145 -2.95788 -0.463645 0
M  V30 704 H 65.5605 -1.42285 -0.221573 0
M  V30 705 H 67.5135 -3.05886 -2.89848 0
M  V30 706 H 66.2375 -1.83147 -2.70416 0
M  V30 707 H 64.8965 -3.43037 -1.2931 0
M  V30 708 H 64.5445 -3.33298 -3.76724 0
M  V30 709 H 64.2445 -4.9707 -3.13361 0
M  V30 710 H 65.7685 -4.61666 -3.9962 0
M  V30 711 H 67.1825 -5.41903 -1.8712 0
M  V30 712 H 65.5795 -5.87475 -1.22445 0
M  V30 713 H 66.6495 -4.84207 -0.259219 0
M  V30 714 N 67.9926 0.231505 -1.5589 0
M  V30 715 C 69.2226 0.973092 -1.82248 0
M  V30 716 C 69.6306 1.78845 -0.617328 0
M  V30 717 O 68.9736 1.78752 0.423499 0
M  V30 718 C 69.0356 1.94732 -3.02192 0
M  V30 719 C 68.6996 1.31743 -4.37599 0
M  V30 720 C 69.6966 0.712238 -5.14998 0
M  V30 721 C 67.3816 1.33218 -4.84312 0
M  V30 722 C 69.3756 0.130195 -6.37267 0
M  V30 723 C 67.0626 0.746286 -6.06526 0
M  V30 724 C 68.0606 0.146337 -6.82843 0
M  V30 725 O 67.7486 -0.430465 -8.02747 0
M  V30 726 H 67.4806 0.29125 -0.61004 0
M  V30 727 H 70.0346 0.254915 -2.03812 0
M  V30 728 H 68.2646 2.70422 -2.76422 0
M  V30 729 H 69.9536 2.55362 -3.15508 0
M  V30 730 H 70.7196 0.69324 -4.8002 0
M  V30 731 H 66.5986 1.78854 -4.24891 0
M  V30 732 H 70.1426 -0.33871 -6.96777 0
M  V30 733 H 66.0396 0.762663 -6.40979 0
M  V30 734 H 66.8076 -0.323818 -8.17859 0
M  V30 735 N 69.4707 1.49531 0.497807 0
M  V30 736 C 70.4027 1.62559 1.61578 0
M  V30 737 C 71.4157 0.508134 1.54667 0
M  V30 738 O 72.6047 0.780309 1.60541 0
M  V30 739 C 69.7047 1.56925 3.00379 0
M  V30 740 C 68.8777 2.84257 3.3244 0
M  V30 741 C 67.9367 2.71632 4.50669 0
M  V30 742 O 66.9627 3.4557 4.52294 0
M  V30 743 N 68.1647 1.83391 5.5077 0
M  V30 744 H 70.9297 2.58981 1.50828 0
M  V30 745 H 68.4907 1.4666 0.685743 0
M  V30 746 H 70.4827 1.46129 3.77397 0
M  V30 747 H 69.0527 0.683483 3.05037 0
M  V30 748 H 68.2727 3.09381 2.44289 0
M  V30 749 H 69.5607 3.68666 3.5066 0
M  V30 750 H 68.9587 1.22583 5.52259 0
M  V30 751 H 67.5157 1.78515 6.26878 0
M  V30 752 N 70.9488 -0.749086 1.3866 0
M  V30 753 C 72.1978 -1.50371 1.3443 0
M  V30 754 C 72.5108 -1.95503 -0.0616397 0
M  V30 755 O 73.7168 -2.70554 -0.226489 0
M  V30 756 C 72.1728 -2.71644 2.36088 0
M  V30 757 C 71.7808 -2.3352 3.82325 0
M  V30 758 C 73.5248 -3.49518 2.40909 0
M  V30 759 C 71.4318 -3.51431 4.75658 0
M  V30 760 H 70.3618 -0.564628 0.499712 0
M  V30 761 H 73.0128 -0.818449 1.64237 0
M  V30 762 H 71.3948 -3.42175 1.9933 0
M  V30 763 H 72.5688 -1.70627 4.28046 0
M  V30 764 H 70.8838 -1.6877 3.80665 0
M  V30 765 H 73.4808 -4.37197 3.07836 0
M  V30 766 H 73.8238 -3.90992 1.42937 0
M  V30 767 H 74.3568 -2.86005 2.76489 0
M  V30 768 H 71.0958 -3.15019 5.74842 0
M  V30 769 H 70.6158 -4.13352 4.34627 0
M  V30 770 H 72.2948 -4.17953 4.93887 0
M  V30 771 N 72.4269 -1.23603 -0.977757 0
M  V30 772 C 73.3899 -1.02069 -2.05218 0
M  V30 773 C 74.3899 0.0184305 -1.60789 0
M  V30 774 O 75.5799 -0.221569 -1.72785 0
M  V30 775 C 72.7119 -0.544926 -3.36517 0
M  V30 776 H 73.9049 -1.9742 -2.25755 0
M  V30 777 H 71.4579 -1.05684 -1.15155 0
M  V30 778 H 72.1929 0.412241 -3.21669 0
M  V30 779 H 71.9779 -1.2948 -3.70105 0
M  V30 780 H 73.4679 -0.414985 -4.15533 0
M  V30 781 N 73.905 1.17692 -1.04816 0
M  V30 782 C 75.182 1.83768 -0.669963 0
M  V30 783 C 75.562 1.93232 0.849986 0
M  V30 784 O 74.91 1.46397 1.75443 0
M  V30 785 C 75.12 3.21641 -1.35455 0
M  V30 786 C 76.468 3.97592 -1.49017 0
M  V30 787 O 77.492 3.31107 -1.31326 0
M  V30 788 O 76.351 5.16729 -1.77914 0
M  V30 789 H 73.445 0.792799 -0.235368 0
M  V30 790 H 75.991 1.25021 -1.14751 0
M  V30 791 H 74.763 3.097 -2.39168 0
M  V30 792 H 74.386 3.88052 -0.866107 0
M  V30 793 N 75.3831 0.828654 1.34056 0
M  V30 794 C 76.6311 0.41863 1.97717 0
M  V30 795 C 76.9521 -1.02314 1.66002 0
M  V30 796 O 76.2221 -1.71119 0.953683 0
M  V30 797 H 74.8021 0.151809 0.731412 0
M  V30 798 H 77.4641 1.05936 1.63596 0
M  V30 799 H 76.5601 0.542318 3.07352 0
M  V30 800 N 76.8612 -1.46375 0.584142 0
M  V30 801 C 78.1072 -2.02678 0.0703716 0
M  V30 802 C 78.4402 -1.4545 -1.28678 0
M  V30 803 O 77.7152 -0.62014 -1.84349 0
M  V30 804 C 77.9982 -3.60099 0.00614674 0
M  V30 805 C 77.8512 -4.27709 1.3923 0
M  V30 806 C 79.1702 -4.34598 -0.693742 0
M  V30 807 H 76.2892 -0.736504 0.027047 0
M  V30 808 H 78.9312 -1.74501 0.751615 0
M  V30 809 H 77.0812 -3.84236 -0.574009 0
M  V30 810 H 78.7532 -4.14832 2.01773 0
M  V30 811 H 76.9962 -3.87016 1.95962 0
M  V30 812 H 77.6672 -5.36478 1.29982 0
M  V30 813 H 80.1432 -4.15615 -0.200869 0
M  V30 814 H 79.0192 -5.44318 -0.707714 0
M  V30 815 H 79.2802 -4.05759 -1.75533 0
M  V30 816 N 78.3393 -0.321999 -1.54275 0
M  V30 817 C 79.5853 0.274234 -2.01543 0
M  V30 818 C 79.9403 1.499 -1.20614 0
M  V30 819 O 79.2333 1.89546 -0.279804 0
M  V30 820 C 79.4273 0.661769 -3.5122 0
M  V30 821 C 79.2563 -0.523892 -4.46638 0
M  V30 822 C 78.0263 -1.02251 -4.94846 0
M  V30 823 C 80.2243 -1.37558 -4.95563 0
M  V30 824 N 78.2063 -2.17274 -5.74165 0
M  V30 825 C 79.5773 -2.37301 -5.7279 0
M  V30 826 C 81.6323 -1.40353 -4.77709 0
M  V30 827 C 80.3353 -3.3964 -6.34064 0
M  V30 828 C 82.3613 -2.41562 -5.39817 0
M  V30 829 C 81.7233 -3.40031 -6.16894 0
M  V30 830 H 77.8223 0.0642367 -0.779357 0
M  V30 831 H 80.4063 -0.456683 -1.89268 0
M  V30 832 H 78.5773 1.36182 -3.63743 0
M  V30 833 H 80.3093 1.23934 -3.85256 0
M  V30 834 H 77.0643 -0.594046 -4.6986 0
M  V30 835 H 77.4883 -2.75289 -6.18502 0
M  V30 836 H 82.1303 -0.655907 -4.17681 0
M  V30 837 H 79.8483 -4.15309 -6.93213 0
M  V30 838 H 83.4343 -2.44524 -5.2792 0
M  V30 839 H 82.3143 -4.17063 -6.64099 0
M  V30 840 N 79.8174 1.5752 -0.0501392 0
M  V30 841 C 81.0424 1.97376 0.636997 0
M  V30 842 C 81.4674 0.927466 1.63645 0
M  V30 843 O 80.8254 -0.10941 1.8097 0
M  V30 844 C 80.8734 3.36304 1.30123 0
M  V30 845 O 79.9774 3.34156 2.41689 0
M  V30 846 H 79.3184 0.642998 0.165679 0
M  V30 847 H 81.8484 2.04258 -0.118233 0
M  V30 848 H 81.8584 3.73008 1.65315 0
M  V30 849 H 80.5334 4.11993 0.568746 0
M  V30 850 H 79.1104 3.09196 2.08451 0
M  V30 851 N 81.2955 -0.223234 1.56011 0
M  V30 852 C 82.2455 -1.28008 1.88674 0
M  V30 853 C 83.2295 -1.42369 0.749663 0
M  V30 854 O 84.4215 -1.45212 1.01205 0
M  V30 855 C 81.5505 -2.63084 2.20548 0
M  V30 856 C 80.6365 -2.52632 3.40643 0
M  V30 857 N 81.0275 -2.11829 4.59306 0
M  V30 858 C 79.3255 -2.83594 3.44224 0
M  V30 859 C 80.0265 -2.12587 5.41463 0
M  V30 860 N 79.0025 -2.5301 4.81131 0
M  V30 861 H 82.8045 -0.955487 2.77935 0
M  V30 862 H 80.3185 -0.431801 1.56554 0
M  V30 863 H 82.3155 -3.39385 2.42122 0
M  V30 864 H 80.9755 -2.96391 1.32599 0
M  V30 865 H 81.9865 -1.82988 4.84496 0
M  V30 866 H 78.6635 -3.21284 2.66614 0
M  V30 867 H 80.0535 -1.83179 6.46448 0
M  V30 868 N 82.7736 -1.49793 -0.48987 0
M  V30 869 C 84.0226 -1.59085 -1.23995 0
M  V30 870 C 84.3356 -0.287907 -1.9347 0
M  V30 871 O 85.5416 -0.259506 -2.70257 0
M  V30 872 C 83.9976 -2.80736 -2.252 0
M  V30 873 C 83.6056 -4.17833 -1.61614 0
M  V30 874 C 85.3496 -2.99364 -3.00967 0
M  V30 875 C 83.2566 -5.30693 -2.60996 0
M  V30 876 H 82.1866 -0.592372 -0.466488 0
M  V30 877 H 84.8376 -1.76197 -0.51252 0
M  V30 878 H 83.2196 -2.57142 -3.01154 0
M  V30 879 H 84.3936 -4.51608 -0.915774 0
M  V30 880 H 82.7086 -4.04656 -0.981977 0
M  V30 881 H 85.3056 -3.80851 -3.75308 0
M  V30 882 H 85.6486 -2.10356 -3.59244 0
M  V30 883 H 86.1816 -3.2305 -2.32128 0
M  V30 884 H 82.9206 -6.21796 -2.07485 0
M  V30 885 H 82.4406 -5.01359 -3.2924 0
M  V30 886 H 84.1196 -5.6049 -3.23202 0
M  V30 887 N 84.2517 0.741722 -1.39055 0
M  V30 888 C 85.2147 1.83733 -1.37021 0
M  V30 889 C 86.2147 1.58542 -0.268534 0
M  V30 890 O 87.4047 1.66067 -0.526076 0
M  V30 891 C 84.5367 3.2141 -1.13617 0
M  V30 892 H 85.7297 1.86941 -2.34506 0
M  V30 893 H 83.2827 0.944676 -1.24521 0
M  V30 894 H 84.0177 3.23865 -0.167863 0
M  V30 895 H 83.8027 3.4109 -1.93391 0
M  V30 896 H 85.2927 4.01477 -1.14918 0
M  V30 897 N 85.7298 1.2412 0.971189 0
M  V30 898 C 86.9578 1.10575 1.74874 0
M  V30 899 C 87.3728 -0.342017 1.85676 0
M  V30 900 O 86.7298 -1.23617 1.34258 0
M  V30 901 C 86.7808 1.73579 3.171 0
M  V30 902 O 86.5018 3.12695 3.06844 0
M  V30 903 C 88.0028 1.65598 4.11208 0
M  V30 904 H 85.2228 0.386504 0.548503 0
M  V30 905 H 87.7668 1.64156 1.21955 0
M  V30 906 H 85.9218 1.24009 3.67016 0
M  V30 907 H 86.3358 3.43412 3.96445 0
M  V30 908 H 87.8098 2.1437 5.08674 0
M  V30 909 H 88.2868 0.616532 4.34851 0
M  V30 910 H 88.8928 2.14578 3.67201 0
M  V30 911 N 87.2079 -1.17134 1.05439 0
M  V30 912 C 88.1399 -2.2078 0.615539 0
M  V30 913 C 89.1529 -1.59584 -0.322001 0
M  V30 914 O 90.3419 -1.78133 -0.114344 0
M  V30 915 C 87.4419 -3.38691 -0.118938 0
M  V30 916 C 86.6149 -4.29454 0.829924 0
M  V30 917 C 85.6739 -5.26024 0.136258 0
M  V30 918 O 84.6999 -5.63952 0.77115 0
M  V30 919 N 85.9019 -5.69487 -1.1254 0
M  V30 920 H 88.6669 -2.59052 1.50705 0
M  V30 921 H 86.2279 -1.32058 0.936603 0
M  V30 922 H 88.2199 -4.00329 -0.593179 0
M  V30 923 H 86.7899 -2.98996 -0.91215 0
M  V30 924 H 86.0099 -3.65211 1.48373 0
M  V30 925 H 87.2979 -4.86984 1.47392 0
M  V30 926 H 86.6959 -5.4075 -1.6615 0
M  V30 927 H 85.2529 -6.33257 -1.54366 0
M  V30 928 N 88.686 -0.835752 -1.33615 0
M  V30 929 C 89.911 -0.442389 -2.02627 0
M  V30 930 C 90.336 0.947735 -1.62479 0
M  V30 931 O 89.694 1.61907 -0.815826 0
M  V30 932 C 89.742 -0.567216 -3.56111 0
M  V30 933 O 88.846 0.407799 -4.10379 0
M  V30 934 H 88.187 -0.180278 -0.639059 0
M  V30 935 H 90.717 -1.12972 -1.70583 0
M  V30 936 H 90.727 -0.447708 -4.05536 0
M  V30 937 H 89.402 -1.58103 -3.84677 0
M  V30 938 H 87.979 0.246107 -3.72087 0
M  V30 939 N 90.1641 1.46063 -0.591896 0
M  V30 940 C 91.4111 2.02338 -0.0809991 0
M  V30 941 C 91.7391 1.46228 1.28249 0
M  V30 942 O 90.9941 0.620818 1.85592 0
M  V30 943 C 91.2931 3.57391 0.0249813 0
M  V30 944 C 90.9591 4.32583 -1.27211 0
M  V30 945 C 89.6211 4.52844 -1.62745 0
M  V30 946 C 91.9731 4.75687 -2.13005 0
M  V30 947 C 89.3011 5.13462 -2.83855 0
M  V30 948 C 91.6531 5.37644 -3.3335 0
M  V30 949 C 90.3171 5.5613 -3.69155 0
M  V30 950 H 89.5871 0.740407 -0.0296397 0
M  V30 951 H 92.2341 1.75321 -0.770374 0
M  V30 952 H 90.5391 3.83597 0.797537 0
M  V30 953 H 92.2361 3.98621 0.436184 0
M  V30 954 H 88.8261 4.17116 -0.985499 0
M  V30 955 H 93.0101 4.59782 -1.86855 0
M  V30 956 H 88.2661 5.25965 -3.11722 0
M  V30 957 H 92.4401 5.7 -4.00092 0
M  V30 958 H 90.0671 6.0287 -4.63089 0
M  V30 959 N 91.6422 0.330177 1.54103 0
M  V30 960 C 92.9192 -0.325007 1.92881 0
M  V30 961 C 93.2992 -1.6934 1.26045 0
M  V30 962 O 92.6472 -2.24855 0.406526 0
M  V30 963 C 92.8572 -0.410634 3.46576 0
M  V30 964 C 94.2052 -0.667801 4.19316 0
M  V30 965 O 95.2292 -0.49329 3.52768 0
M  V30 966 O 94.0882 -1.00491 5.37181 0
M  V30 967 H 91.1822 -0.186873 0.80561 0
M  V30 968 H 93.7282 0.380376 1.65382 0
M  V30 969 H 92.5002 0.550164 3.87413 0
M  V30 970 H 92.1232 -1.16333 3.802 0
M  V30 971 N 93.1203 -1.57491 0.0584922 0
M  V30 972 C 94.3683 -1.92597 -0.612436 0
M  V30 973 C 94.6893 -0.938162 -1.70949 0
M  V30 974 O 93.9593 0.0158301 -1.95894 0
M  V30 975 H 92.5393 -0.710964 -0.229214 0
M  V30 976 H 95.2013 -1.94571 0.113218 0
M  V30 977 H 94.2973 -2.94038 -1.04633 0
M  V30 978 N 94.5984 0.214957 -1.56127 0
M  V30 979 C 95.5614 1.24997 -1.92116 0
M  V30 980 C 96.5614 1.39467 -0.800344 0
M  V30 981 O 97.7514 1.37619 -1.06802 0
M  V30 982 C 94.8834 2.62271 -2.17777 0
M  V30 983 H 96.0764 0.942875 -2.84693 0
M  V30 984 H 93.6294 0.455654 -1.49511 0
M  V30 985 H 94.3644 2.98068 -1.27773 0
M  V30 986 H 94.1494 2.53143 -2.99434 0
M  V30 987 H 95.6394 3.36946 -2.46693 0
M  V30 988 N 96.0765 1.50051 0.48192 0
M  V30 989 C 97.3225 1.60736 1.2366 0
M  V30 990 C 97.6555 0.301786 1.91841 0
M  V30 991 O 96.9305 -0.696025 1.8162 0
M  V30 992 C 97.2135 2.78009 2.28874 0
M  V30 993 C 97.0665 4.18416 1.65069 0
M  V30 994 C 98.3855 2.90867 3.30279 0
M  V30 995 H 95.5045 0.585031 0.448228 0
M  V30 996 H 98.1465 1.82402 0.531946 0
M  V30 997 H 96.2965 2.59667 2.88973 0
M  V30 998 H 97.9685 4.48322 1.0865 0
M  V30 999 H 96.2115 4.23177 0.954148 0
M  V30 1000 H 96.8825 4.96381 2.41474 0
M  V30 1001 H 99.3585 3.07623 2.80191 0
M  V30 1002 H 98.2345 3.74566 4.01238 0
M  V30 1003 H 98.4955 2.01021 3.93755 0
M  V30 1004 N 97.5546 -0.734337 1.39446 0
M  V30 1005 C 98.7846 -1.52137 1.39778 0
M  V30 1006 C 99.1926 -1.89198 -0.00929312 0
M  V30 1007 O 98.5356 -1.54666 -0.991168 0
M  V30 1008 C 98.5976 -2.83762 2.20724 0
M  V30 1009 C 98.2616 -2.69131 3.69347 0
M  V30 1010 C 99.2586 -2.37635 4.62413 0
M  V30 1011 C 96.9436 -2.85982 4.1294 0
M  V30 1012 C 98.9376 -2.23172 5.97054 0
M  V30 1013 C 96.6246 -2.71137 5.47657 0
M  V30 1014 C 97.6226 -2.39777 6.39528 0
M  V30 1015 O 97.3106 -2.25026 7.71763 0
M  V30 1016 H 97.0426 -0.476717 0.479288 0
M  V30 1017 H 99.5966 -0.915012 1.83893 0
M  V30 1018 H 97.8266 -3.4666 1.71359 0
M  V30 1019 H 99.5156 -3.45383 2.13226 0
M  V30 1020 H 100.282 -2.24267 4.30034 0
M  V30 1021 H 96.1606 -3.09383 3.41765 0
M  V30 1022 H 99.7046 -1.98617 6.68728 0
M  V30 1023 H 95.6016 -2.84083 5.79626 0
M  V30 1024 H 96.3696 -2.40091 7.82495 0
M  V30 1025 N 99.0327 -1.24633 -0.964593 0
M  V30 1026 C 100.444 -1.08045 -1.5226 0
M  V30 1027 C 100.795 0.347116 -1.93105 0
M  V30 1028 O 99.9197 1.23588 -1.77637 0
M  V30 1029 C 100.515 -1.95514 -2.76695 0
M  V30 1030 C 99.0737 -1.8314 -3.28841 0
M  V30 1031 C 98.2207 -1.90262 -2.01732 0
M  V30 1032 H 101.172 -1.38064 -0.782553 0
M  V30 1033 H 101.193 -1.48925 -3.50145 0
M  V30 1034 H 100.705 -2.99407 -2.46936 0
M  V30 1035 H 98.8057 -0.82092 -3.63444 0
M  V30 1036 H 98.9187 -2.67406 -3.97531 0
M  V30 1037 H 97.2827 -1.34027 -2.16584 0
M  V30 1038 H 98.0657 -2.9574 -1.74334 0
M  V30 1039 N 100.511 1.16574 -1.06058 0
M  V30 1040 C 101.736 1.91493 -0.796562 0
M  V30 1041 C 102.161 1.76773 0.642868 0
M  V30 1042 O 101.519 1.09142 1.44768 0
M  V30 1043 C 101.567 3.40293 -1.19303 0
M  V30 1044 O 100.671 4.11074 -0.330394 0
M  V30 1045 H 100.012 0.596678 -0.291326 0
M  V30 1046 H 102.542 1.47708 -1.41575 0
M  V30 1047 H 102.552 3.91057 -1.16356 0
M  V30 1048 H 101.227 3.50326 -2.24153 0
M  V30 1049 H 99.8038 3.70513 -0.421225 0
M  V30 1050 N 101.989 0.842826 1.3317 0
M  V30 1051 C 102.937 0.267495 2.31057 0
M  V30 1052 C 103.931 -0.602682 1.58316 0
M  V30 1053 O 105.137 -0.491803 1.73151 0
M  V30 1054 H 101.512 0.0677813 0.748939 0
M  V30 1055 H 103.483 1.10754 2.77085 0
M  V30 1056 C 102.232 -0.539331 3.43492 0
M  V30 1057 H 101.555 0.12095 3.99617 0
M  V30 1058 H 102.995 -0.90767 4.14171 0
M  V30 1059 C 101.454 -1.71981 2.89697 0
M  V30 1060 O 101.984 -2.81862 2.86211 0
M  V30 1061 N 100.19 -1.54299 2.46252 0
M  V30 1062 H 99.7369 -0.649143 2.49287 0
M  V30 1063 H 99.6949 -2.33431 2.10612 0
M  V30 1064 N 103.467 -1.45747 0.599634 0
M  V30 1065 C 104.715 -2.01893 0.0915472 0
M  V30 1066 C 105.036 -1.47155 -1.27946 0
M  V30 1067 O 104.306 -0.66273 -1.84349 0
M  V30 1068 H 102.886 -0.746363 0.0308524 0
M  V30 1069 H 105.548 -1.78645 0.779237 0
M  V30 1070 H 104.644 -3.1208 0.0353086 0
M  V30 1071 N 104.945 -0.338344 -1.53925 0
M  V30 1072 C 105.875 0.51328 -2.27789 0
M  V30 1073 C 106.856 1.107 -1.29149 0
M  V30 1074 O 108.041 1.12937 -1.57984 0
M  V30 1075 C 105.171 1.66697 -3.04679 0
M  V30 1076 C 104.125 1.20183 -4.1078 0
M  V30 1077 C 103.451 2.44363 -4.75595 0
M  V30 1078 C 104.751 0.30605 -5.21403 0
M  V30 1079 H 106.445 -0.102883 -2.99223 0
M  V30 1080 H 103.991 -0.0509219 -1.4391 0
M  V30 1081 H 105.944 2.26915 -3.55088 0
M  V30 1082 H 104.668 2.30995 -2.30887 0
M  V30 1083 H 103.327 0.622499 -3.61276 0
M  V30 1084 H 102.975 3.07057 -3.98403 0
M  V30 1085 H 102.675 2.13925 -5.47275 0
M  V30 1086 H 104.199 3.05317 -5.28786 0
M  V30 1087 H 105.613 0.814929 -5.67478 0
M  V30 1088 H 104.01 0.0937929 -6.00027 0
M  V30 1089 H 105.08 -0.65921 -4.80398 0
M  V30 1090 N 106.423 1.57458 -0.0668435 0
M  V30 1091 C 107.672 1.92477 0.602947 0
M  V30 1092 C 107.985 0.948419 1.71068 0
M  V30 1093 O 109.191 1.19124 2.43971 0
M  V30 1094 C 107.647 3.41903 1.12383 0
M  V30 1095 C 107.255 4.47975 0.04737 0
M  V30 1096 C 108.999 3.85931 1.76797 0
M  V30 1097 C 106.906 5.88529 0.582022 0
M  V30 1098 H 105.836 0.718387 0.22899 0
M  V30 1099 H 108.487 1.82978 -0.138276 0
M  V30 1100 H 106.869 3.46459 1.91787 0
M  V30 1101 H 108.043 4.55029 -0.726978 0
M  V30 1102 H 106.358 4.13384 -0.500243 0
M  V30 1103 H 108.955 4.88322 2.17821 0
M  V30 1104 H 109.298 3.23029 2.62599 0
M  V30 1105 H 109.831 3.83958 1.04024 0
M  V30 1106 H 106.57 6.55065 -0.238721 0
M  V30 1107 H 106.09 5.85004 1.324 0
M  V30 1108 H 107.769 6.38258 1.05999 0
M  V30 1109 N 107.901 -0.206675 1.56239 0
M  V30 1110 C 109.147 -0.930218 1.80208 0
M  V30 1111 C 109.48 -1.83387 0.638981 0
M  V30 1112 O 108.755 -1.91119 -0.361066 0
M  V30 1113 C 109.038 -1.75641 3.1436 0
M  V30 1114 C 108.891 -0.878257 4.41142 0
M  V30 1115 C 110.21 -2.73129 3.45092 0
M  V30 1116 H 107.329 -0.336742 0.655571 0
M  V30 1117 H 109.971 -0.198222 1.88963 0
M  V30 1118 H 108.121 -2.38048 3.07027 0
M  V30 1119 H 109.793 -0.269787 4.6051 0
M  V30 1120 H 108.036 -0.184385 4.33408 0
M  V30 1121 H 108.707 -1.49106 5.3148 0
M  V30 1122 H 111.183 -2.20856 3.52649 0
M  V30 1123 H 110.059 -3.28028 4.40101 0
M  V30 1124 H 110.32 -3.51606 2.68003 0
M  V30 1125 N 109.379 -1.50304 -0.473955 0
M  V30 1126 C 110.795 -1.37667 -0.807466 0
M  V30 1127 C 110.995 -0.430555 -1.96846 0
M  V30 1128 O 110.051 0.127874 -2.52176 0
M  V30 1129 C 111.364 -2.78974 -1.12223 0
M  V30 1130 C 112.912 -2.87868 -1.22885 0
M  V30 1131 C 113.387 -4.30003 -1.57676 0
M  V30 1132 N 114.878 -4.3294 -1.64673 0
M  V30 1133 C 115.613 -5.3991 -1.93091 0
M  V30 1134 N 115.109 -6.57092 -2.1955 0
M  V30 1135 N 116.902 -5.27351 -1.94569 0
M  V30 1136 H 109.053 -2.10394 0.291212 0
M  V30 1137 H 111.316 -0.945575 0.0677609 0
M  V30 1138 H 111.022 -3.50031 -0.342229 0
M  V30 1139 H 110.896 -3.16038 -2.05913 0
M  V30 1140 H 113.283 -2.17032 -1.99953 0
M  V30 1141 H 113.364 -2.54352 -0.271814 0
M  V30 1142 H 113.008 -5.01375 -0.81149 0
M  V30 1143 H 112.938 -4.61004 -2.54525 0
M  V30 1144 H 115.429 -3.48441 -1.46277 0
M  V30 1145 H 115.742 -7.34425 -2.405 0
M  V30 1146 H 114.087 -6.60272 -2.16948 0
M  V30 1147 H 117.278 -4.34801 -1.73394 0
M  V30 1148 H 117.451 -6.10805 -2.16381 0
M  V30 1149 N 110.857 0.726932 -1.39834 0
M  V30 1150 C 112.134 1.47902 -1.28001 0
M  V30 1151 C 112.514 2.1083 0.106789 0
M  V30 1152 O 111.862 1.99242 1.11869 0
M  V30 1153 C 112.072 2.52392 -2.41038 0
M  V30 1154 C 113.42 3.18546 -2.80737 0
M  V30 1155 O 114.444 2.62708 -2.40547 0
M  V30 1156 O 113.303 4.19604 -3.50135 0
M  V30 1157 H 110.397 0.657163 -0.502062 0
M  V30 1158 H 112.943 0.760071 -1.51727 0
M  V30 1159 H 111.715 2.04329 -3.33715 0
M  V30 1160 H 111.338 3.31837 -2.19021 0
M  V30 1161 N 112.336 1.25143 0.95797 0
M  V30 1162 C 113.584 1.09476 1.69881 0
M  V30 1163 C 113.905 -0.365502 1.91544 0
M  V30 1164 O 113.175 -1.25985 1.50015 0
M  V30 1165 H 111.755 0.402128 0.629525 0
M  V30 1166 H 114.417 1.57214 1.15194 0
M  V30 1167 H 113.513 1.60046 2.6794 0
M  V30 1168 N 113.814 -1.1601 1.06675 0
M  V30 1169 C 115.091 -1.82679 0.699114 0
M  V30 1170 C 115.471 -1.94559 -0.819137 0
M  V30 1171 O 114.819 -1.49169 -1.73092 0
M  V30 1172 C 115.029 -3.19445 1.40555 0
M  V30 1173 C 116.377 -3.95171 1.55323 0
M  V30 1174 O 117.401 -3.28976 1.36577 0
M  V30 1175 O 116.26 -5.13833 1.86112 0
M  V30 1176 H 113.354 -0.788954 0.247951 0
M  V30 1177 H 115.9 -1.23179 1.16726 0
M  V30 1178 H 114.672 -3.05856 2.44065 0
M  V30 1179 H 114.295 -3.86625 0.927733 0
M  V30 1180 N 115.292 -0.849877 -1.32721 0
M  V30 1181 C 116.202 -0.293791 -2.32753 0
M  V30 1182 C 117.218 0.585906 -1.63839 0
M  V30 1183 O 118.394 0.487413 -1.95413 0
M  V30 1184 C 115.459 0.512752 -3.42887 0
M  V30 1185 C 114.52 -0.39252 -4.27502 0
M  V30 1186 C 113.753 0.375625 -5.32377 0
M  V30 1187 O 113.976 1.60613 -5.4732 0
M  V30 1188 O 112.91 -0.256094 -6.01355 0
M  V30 1189 H 116.736 -1.12242 -2.82197 0
M  V30 1190 H 114.321 -0.612685 -1.36259 0
M  V30 1191 H 116.203 0.970704 -4.10067 0
M  V30 1192 H 114.878 1.31826 -2.95641 0
M  V30 1193 H 113.785 -0.898547 -3.63149 0
M  V30 1194 H 115.118 -1.16309 -4.7826 0
M  V30 1195 N 116.77 1.45427 -0.607355 0
M  V30 1196 C 117.7 2.3329 0.0989352 0
M  V30 1197 C 118.681 1.46816 0.859007 0
M  V30 1198 O 119.866 1.75588 0.829604 0
M  V30 1199 C 116.996 3.29518 1.09705 0
M  V30 1200 C 115.95 4.25626 0.450206 0
M  V30 1201 C 115.276 5.11542 1.55655 0
M  V30 1202 C 116.576 5.18505 -0.628455 0
M  V30 1203 H 118.27 2.92595 -0.634716 0
M  V30 1204 H 115.816 1.40696 -0.306681 0
M  V30 1205 H 117.769 3.89855 1.59971 0
M  V30 1206 H 116.493 2.68372 1.86129 0
M  V30 1207 H 115.152 3.66586 -0.0315886 0
M  V30 1208 H 114.8 4.46765 2.31107 0
M  V30 1209 H 114.5 5.76647 1.12925 0
M  V30 1210 H 116.024 5.74748 2.06148 0
M  V30 1211 H 117.438 5.72916 -0.209877 0
M  V30 1212 H 115.835 5.92085 -0.977489 0
M  V30 1213 H 116.905 4.60948 -1.50514 0
M  V30 1214 N 118.248 0.346503 1.53744 0
M  V30 1215 C 119.178 -0.501193 2.28058 0
M  V30 1216 C 120.159 -1.10014 1.29734 0
M  V30 1217 O 121.344 -1.12097 1.58581 0
M  V30 1218 C 118.474 -1.65078 3.05559 0
M  V30 1219 C 117.428 -1.18003 4.11411 0
M  V30 1220 C 116.754 -2.41837 4.76884 0
M  V30 1221 C 118.054 -0.278394 5.21558 0
M  V30 1222 H 119.748 0.11875 2.99164 0
M  V30 1223 H 117.294 0.0585531 1.43881 0
M  V30 1224 H 119.247 -2.25028 3.56287 0
M  V30 1225 H 117.971 -2.29767 2.32109 0
M  V30 1226 H 116.63 -0.603331 3.61601 0
M  V30 1227 H 116.278 -3.0494 4.00026 0
M  V30 1228 H 115.978 -2.1102 5.48402 0
M  V30 1229 H 117.502 -3.02508 5.30397 0
M  V30 1230 H 118.916 -0.784823 5.67903 0
M  V30 1231 H 117.313 -0.0619707 6.00068 0
M  V30 1232 H 118.383 0.684677 4.80042 0
M  V30 1233 N 119.726 -1.57421 0.075193 0
M  V30 1234 C 120.656 -2.15942 -0.888324 0
M  V30 1235 C 121.637 -1.08737 -1.30806 0
M  V30 1236 O 122.822 -1.36787 -1.37851 0
M  V30 1237 C 119.952 -2.72379 -2.1547 0
M  V30 1238 C 118.906 -3.8478 -1.87425 0
M  V30 1239 C 118.232 -4.27834 -3.20721 0
M  V30 1240 C 119.532 -5.08869 -1.17684 0
M  V30 1241 H 121.226 -2.96705 -0.400799 0
M  V30 1242 H 118.772 -1.42723 -0.191342 0
M  V30 1243 H 120.725 -3.11965 -2.83295 0
M  V30 1244 H 119.449 -1.88841 -2.6647 0
M  V30 1245 H 118.108 -3.45703 -1.22004 0
M  V30 1246 H 117.756 -3.41214 -3.6957 0
M  V30 1247 H 117.456 -5.03605 -3.02746 0
M  V30 1248 H 118.98 -4.70039 -3.89738 0
M  V30 1249 H 120.394 -5.4575 -1.75584 0
M  V30 1250 H 118.791 -5.8994 -1.09956 0
M  V30 1251 H 119.861 -4.84648 -0.156453 0
M  V30 1252 N 121.204 0.198386 -1.56346 0
M  V30 1253 C 122.453 0.917451 -1.79627 0
M  V30 1254 C 122.766 1.8456 -0.64784 0
M  V30 1255 O 123.972 2.60504 -0.764859 0
M  V30 1256 C 122.428 1.68175 -3.18191 0
M  V30 1257 C 122.036 0.798589 -4.40825 0
M  V30 1258 C 123.78 2.39065 -3.50782 0
M  V30 1259 C 121.687 1.56157 -5.70411 0
M  V30 1260 H 120.617 0.346317 -0.669762 0
M  V30 1261 H 123.268 0.170801 -1.82703 0
M  V30 1262 H 121.65 2.47216 -3.09354 0
M  V30 1263 H 122.824 0.0470665 -4.60776 0
M  V30 1264 H 121.139 0.200686 -4.15916 0
M  V30 1265 H 123.736 2.96692 -4.44835 0
M  V30 1266 H 124.079 3.13091 -2.74371 0
M  V30 1267 H 124.612 1.66993 -3.61052 0
M  V30 1268 H 121.351 0.864142 -6.49779 0
M  V30 1269 H 120.871 2.2871 -5.54483 0
M  V30 1270 H 122.55 2.11622 -6.11412 0
M  V30 1271 N 122.682 1.50554 0.465978 0
M  V30 1272 C 123.959 1.5232 1.22712 0
M  V30 1273 C 124.339 0.270807 2.09356 0
M  V30 1274 O 123.687 -0.745541 2.15995 0
M  V30 1275 C 123.897 2.82175 2.05374 0
M  V30 1276 C 125.245 3.33033 2.6339 0
M  V30 1277 O 126.269 2.83531 2.15612 0
M  V30 1278 O 125.128 4.19336 3.50456 0
M  V30 1279 H 122.222 0.611183 0.557122 0
M  V30 1280 H 124.768 1.62847 0.477381 0
M  V30 1281 H 123.54 3.64797 1.41558 0
M  V30 1282 H 123.163 2.74675 2.87471 0
M  V30 1283 N 124.16 -0.719506 1.40217 0
M  V30 1284 C 125.388 -1.50864 1.41589 0
M  V30 1285 C 125.803 -1.88794 0.0145275 0
M  V30 1286 O 125.16 -1.55174 -0.960594 0
M  V30 1287 C 125.211 -2.78646 2.30302 0
M  V30 1288 O 124.932 -2.42321 3.64983 0
M  V30 1289 C 126.433 -3.72569 2.40224 0
M  V30 1290 H 123.653 -0.465709 0.48307 0
M  V30 1291 H 126.197 -0.88785 1.84221 0
M  V30 1292 H 124.352 -3.37019 1.91042 0
M  V30 1293 H 124.766 -3.24514 4.12057 0
M  V30 1294 H 126.24 -4.5908 3.06512 0
M  V30 1295 H 126.717 -4.15403 1.42608 0
M  V30 1296 H 127.323 -3.20109 2.80019 0
M  V30 1297 N 125.638 -1.25649 -0.95132 0
M  V30 1298 C 126.601 -1.06399 -2.03007 0
M  V30 1299 C 127.601 -0.0156794 -1.60792 0
M  V30 1300 O 128.791 -0.25817 -1.72276 0
M  V30 1301 C 125.923 -0.616184 -3.35285 0
M  V30 1302 H 127.116 -2.02164 -2.21517 0
M  V30 1303 H 124.669 -1.08103 -1.12887 0
M  V30 1304 H 125.404 0.343917 -3.22471 0
M  V30 1305 H 125.189 -1.37301 -3.67275 0
M  V30 1306 H 126.679 -0.503032 -4.14559 0
M  V30 1307 N 127.117 1.15442 -1.07289 0
M  V30 1308 C 128.363 1.8672 -0.806679 0
M  V30 1309 C 128.718 1.80723 0.660084 0
M  V30 1310 O 128.011 1.21902 1.47819 0
M  V30 1311 C 128.205 3.3489 -1.24834 0
M  V30 1312 C 128.034 3.55313 -2.7565 0
M  V30 1313 C 126.804 3.7082 -3.4325 0
M  V30 1314 C 129.002 3.53188 -3.73848 0
M  V30 1315 N 126.984 3.7929 -4.82713 0
M  V30 1316 C 128.355 3.67765 -4.99149 0
M  V30 1317 C 130.41 3.36459 -3.67015 0
M  V30 1318 C 129.113 3.6734 -6.18428 0
M  V30 1319 C 131.139 3.37333 -4.85758 0
M  V30 1320 C 130.501 3.52438 -6.09891 0
M  V30 1321 H 126.6 0.700433 -0.347733 0
M  V30 1322 H 129.184 1.38441 -1.36902 0
M  V30 1323 H 127.355 3.81786 -0.713713 0
M  V30 1324 H 129.087 3.93875 -0.929745 0
M  V30 1325 H 125.842 3.71568 -2.93656 0
M  V30 1326 H 126.266 3.8727 -5.55294 0
M  V30 1327 H 130.908 3.237 -2.71989 0
M  V30 1328 H 128.626 3.78878 -7.13777 0
M  V30 1329 H 132.212 3.25617 -4.82146 0
M  V30 1330 H 131.092 3.53047 -7.00234 0
M  V30 1331 N 128.595 0.856903 1.32268 0
M  V30 1332 C 129.843 0.460474 1.96784 0
M  V30 1333 C 130.164 -0.987701 1.68135 0
M  V30 1334 O 129.434 -1.69058 0.989765 0
M  V30 1335 H 128.014 0.167289 0.728027 0
M  V30 1336 H 130.676 1.09383 1.61312 0
M  V30 1337 H 129.772 0.60739 3.06133 0
M  V30 1338 N 130.073 -1.45103 0.615059 0
M  V30 1339 C 131.036 -2.29025 -0.0895485 0
M  V30 1340 C 132.036 -1.40174 -0.787906 0
M  V30 1341 O 133.226 -1.62217 -0.634933 0
M  V30 1342 C 130.358 -3.21376 -1.13711 0
M  V30 1343 H 131.551 -2.92807 0.648382 0
M  V30 1344 H 129.104 -1.51749 0.374444 0
M  V30 1345 H 129.839 -2.6241 -1.90556 0
M  V30 1346 H 129.624 -3.86834 -0.640475 0
M  V30 1347 H 131.114 -3.84459 -1.63036 0
M  V30 1348 N 131.551 -0.354651 -1.53558 0
M  V30 1349 C 132.498 0.496968 -2.25386 0
M  V30 1350 C 133.468 1.0865 -1.25636 0
M  V30 1351 O 134.653 1.12104 -1.54394 0
M  V30 1352 C 131.793 1.63637 -3.03837 0
M  V30 1353 C 130.906 1.07307 -4.18461 0
M  V30 1354 C 130.041 2.18068 -4.84376 0
M  V30 1355 C 129.08 1.59147 -5.91049 0
M  V30 1356 N 128.217 2.63695 -6.50699 0
M  V30 1357 H 133.057 -0.122075 -2.9775 0
M  V30 1358 H 130.594 -0.0720154 -1.46924 0
M  V30 1359 H 132.552 2.30734 -3.47589 0
M  V30 1360 H 131.182 2.22623 -2.33749 0
M  V30 1361 H 130.234 0.292708 -3.79272 0
M  V30 1362 H 131.546 0.602193 -4.95152 0
M  V30 1363 H 130.7 2.93007 -5.31255 0
M  V30 1364 H 129.439 2.68504 -4.07133 0
M  V30 1365 H 128.444 0.827175 -5.43542 0
M  V30 1366 H 129.669 1.09549 -6.70206 0
M  V30 1367 H 127.615 3.13365 -5.76315 0
M  V30 1368 H 127.532 2.21263 -7.22896 0
M  V30 1369 H 128.8 3.3837 -7.02229 0
M  V30 1370 N 133.029 1.57378 -0.0835403 0
M  V30 1371 C 133.977 2.14602 0.89714 0
M  V30 1372 C 134.971 1.08589 1.30018 0
M  V30 1373 O 136.177 1.26952 1.27606 0
M  V30 1374 H 132.552 0.686346 0.3073 0
M  V30 1375 H 134.523 2.95845 0.38969 0
M  V30 1376 C 133.272 2.73188 2.15089 0
M  V30 1377 H 132.595 3.54442 1.84962 0
M  V30 1378 H 134.035 3.1681 2.81793 0
M  V30 1379 C 132.494 1.68517 2.91725 0
M  V30 1380 O 133.024 1.11718 3.85852 0
M  V30 1381 N 131.23 1.39277 2.55049 0
M  V30 1382 H 130.777 1.85655 1.78577 0
M  V30 1383 H 130.735 0.694791 3.06627 0
M  V30 1384 N 134.507 -0.190092 1.56449 0
M  V30 1385 C 135.735 -0.925772 1.85033 0
M  V30 1386 C 136.15 -1.76638 0.666658 0
M  V30 1387 O 135.507 -1.78822 -0.364565 0
M  V30 1388 C 135.558 -1.81786 3.12468 0
M  V30 1389 O 135.279 -1.01118 4.26271 0
M  V30 1390 C 136.78 -2.6648 3.54265 0
M  V30 1391 H 134 -0.269872 0.614337 0
M  V30 1392 H 136.544 -0.195837 2.0356 0
M  V30 1393 H 134.699 -2.50136 2.95822 0
M  V30 1394 H 135.113 -1.61956 4.98869 0
M  V30 1395 H 136.587 -3.24722 4.46385 0
M  V30 1396 H 137.064 -3.40434 2.77491 0
M  V30 1397 H 137.67 -2.03493 3.73458 0
M  V30 1398 N 135.985 -1.50799 -0.457987 0
M  V30 1399 C 136.948 -1.7005 -1.53674 0
M  V30 1400 C 137.948 -0.570881 -1.50325 0
M  V30 1401 O 139.138 -0.838126 -1.52712 0
M  V30 1402 C 136.27 -1.73788 -2.93276 0
M  V30 1403 H 137.463 -2.66306 -1.37917 0
M  V30 1404 H 135.016 -1.40477 -0.685271 0
M  V30 1405 H 135.751 -0.792717 -3.14462 0
M  V30 1406 H 135.536 -2.55864 -2.97113 0
M  V30 1407 H 137.026 -1.90591 -3.71571 0
M  V30 1408 N 137.463 0.71206 -1.40597 0
M  V30 1409 C 138.426 1.80785 -1.40888 0
M  V30 1410 C 139.426 1.57937 -0.302103 0
M  V30 1411 O 140.616 1.64913 -0.561182 0
M  V30 1412 C 137.748 3.18927 -1.20409 0
M  V30 1413 H 138.941 1.81924 -2.38419 0
M  V30 1414 H 136.494 0.91805 -1.26497 0
M  V30 1415 H 137.229 3.23436 -0.236522 0
M  V30 1416 H 137.014 3.36911 -2.00582 0
M  V30 1417 H 138.504 3.98949 -1.23408 0
M  V30 1418 N 138.941 1.26152 0.944643 0
M  V30 1419 C 139.871 1.09902 2.06019 0
M  V30 1420 C 140.852 0.00519538 1.70099 0
M  V30 1421 O 142.037 0.176583 1.93396 0
M  V30 1422 C 139.167 0.727562 3.39594 0
M  V30 1423 C 138.121 1.77274 3.89561 0
M  V30 1424 C 137.447 1.25569 5.19747 0
M  V30 1425 C 138.747 3.17357 4.14827 0
M  V30 1426 H 140.441 2.03217 2.19871 0
M  V30 1427 H 137.987 0.978452 1.05652 0
M  V30 1428 H 139.94 0.600777 4.17095 0
M  V30 1429 H 138.664 -0.241287 3.25707 0
M  V30 1430 H 137.323 1.88814 3.14237 0
M  V30 1431 H 136.971 0.276783 5.02238 0
M  V30 1432 H 136.671 1.95433 5.54148 0
M  V30 1433 H 138.195 1.1415 5.99835 0
M  V30 1434 H 139.609 3.08914 4.82954 0
M  V30 1435 H 138.006 3.84781 4.60504 0
M  V30 1436 H 139.076 3.63673 3.20734 0
M  V30 1437 N 140.419 -1.14872 1.07899 0
M  V30 1438 C 141.349 -2.2193 0.725887 0
M  V30 1439 C 142.33 -1.67622 -0.28927 0
M  V30 1440 O 143.515 -1.93533 -0.160787 0
M  V30 1441 C 140.645 -3.47061 0.128856 0
M  V30 1442 C 139.599 -4.14363 1.07178 0
M  V30 1443 C 138.925 -5.33636 0.337229 0
M  V30 1444 C 140.225 -4.63492 2.40775 0
M  V30 1445 H 141.919 -2.51724 1.62097 0
M  V30 1446 H 139.465 -1.20991 0.780838 0
M  V30 1447 H 141.418 -4.21199 -0.130147 0
M  V30 1448 H 140.142 -3.16617 -0.80134 0
M  V30 1449 H 138.801 -3.42173 1.3158 0
M  V30 1450 H 138.449 -4.99449 -0.596606 0
M  V30 1451 H 138.149 -5.79609 0.965788 0
M  V30 1452 H 139.673 -6.10539 0.0861567 0
M  V30 1453 H 141.087 -5.2913 2.20669 0
M  V30 1454 H 139.484 -5.20148 2.99276 0
M  V30 1455 H 140.554 -3.78834 3.02676 0
M  V30 1456 N 141.898 -0.863906 -1.31812 0
M  V30 1457 C 142.861 -0.320212 -2.26952 0
M  V30 1458 C 143.861 0.525369 -1.51975 0
M  V30 1459 O 145.051 0.335547 -1.70938 0
M  V30 1460 C 142.183 0.545919 -3.365 0
M  V30 1461 H 143.376 -1.16004 -2.76556 0
M  V30 1462 H 140.929 -0.638995 -1.42641 0
M  V30 1463 H 141.664 1.40718 -2.92179 0
M  V30 1464 H 141.449 -0.0594674 -3.92055 0
M  V30 1465 H 142.939 0.918796 -4.07367 0
M  V30 1466 N 143.376 1.44774 -0.622745 0
M  V30 1467 C 144.286 2.34433 0.0886031 0
M  V30 1468 C 145.302 1.52131 0.844529 0
M  V30 1469 O 146.478 1.84886 0.798691 0
M  V30 1470 C 143.543 3.29986 1.0635 0
M  V30 1471 C 142.604 4.28195 0.307873 0
M  V30 1472 C 141.837 5.19183 1.23633 0
M  V30 1473 O 142.06 5.13918 2.47476 0
M  V30 1474 O 140.994 5.97515 0.725189 0
M  V30 1475 H 144.82 2.96693 -0.648599 0
M  V30 1476 H 142.405 1.44408 -0.382957 0
M  V30 1477 H 144.287 3.88825 1.6246 0
M  V30 1478 H 142.962 2.70269 1.78146 0
M  V30 1479 H 141.869 3.72927 -0.296064 0
M  V30 1480 H 143.202 4.90808 -0.3699 0
M  V30 1481 N 144.854 0.36279 1.53368 0
M  V30 1482 C 146.103 -0.22888 2.00397 0
M  V30 1483 C 146.416 -1.50096 1.25421 0
M  V30 1484 O 147.622 -2.17106 1.63025 0
M  V30 1485 C 146.078 -0.458417 3.56969 0
M  V30 1486 C 145.686 0.798877 4.4082 0
M  V30 1487 C 147.43 -1.00789 4.12361 0
M  V30 1488 C 145.337 0.539078 5.88938 0
M  V30 1489 H 144.267 -0.089305 0.748693 0
M  V30 1490 H 146.918 0.481099 1.77081 0
M  V30 1491 H 145.3 -1.22959 3.76427 0
M  V30 1492 H 146.474 1.57262 4.33134 0
M  V30 1493 H 144.789 1.27137 3.96516 0
M  V30 1494 H 147.386 -1.21754 5.20653 0
M  V30 1495 H 147.729 -1.9692 3.66781 0
M  V30 1496 H 148.262 -0.296961 3.9669 0
M  V30 1497 H 145.001 1.47064 6.3879 0
M  V30 1498 H 144.521 -0.196222 5.99479 0
M  V30 1499 H 146.2 0.163542 6.46793 0
M  V30 1500 N 146.332 -1.57332 0.0918853 0
M  V30 1501 C 147.242 -2.17368 -0.882505 0
M  V30 1502 C 148.258 -1.14226 -1.31257 0
M  V30 1503 O 149.434 -1.46582 -1.38115 0
M  V30 1504 C 146.499 -2.73962 -2.12476 0
M  V30 1505 C 145.56 -3.92048 -1.7492 0
M  V30 1506 C 144.793 -4.45933 -2.93223 0
M  V30 1507 O 145.016 -3.98764 -4.07852 0
M  V30 1508 O 143.95 -5.36999 -2.71875 0
M  V30 1509 H 147.776 -3.01031 -0.40172 0
M  V30 1510 H 145.361 -1.48813 -0.132291 0
M  V30 1511 H 147.243 -3.10147 -2.85283 0
M  V30 1512 H 145.918 -1.93347 -2.59613 0
M  V30 1513 H 144.825 -3.6068 -0.993025 0
M  V30 1514 H 146.158 -4.74017 -1.32548 0
M  V30 1515 N 147.81 0.181792 -1.56548 0
M  V30 1516 C 148.757 1.22521 -1.95595 0
M  V30 1517 C 149.727 1.4454 -0.818373 0
M  V30 1518 O 150.912 1.57454 -1.07763 0
M  V30 1519 C 148.052 2.56193 -2.31212 0
M  V30 1520 C 147.165 2.41641 -3.58097 0
M  V30 1521 C 146.3 3.68108 -3.82975 0
M  V30 1522 C 145.339 3.48445 -5.03242 0
M  V30 1523 N 144.476 4.66956 -5.24306 0
M  V30 1524 H 149.316 0.885226 -2.84548 0
M  V30 1525 H 146.853 0.425718 -1.40805 0
M  V30 1526 H 148.811 3.34088 -2.49882 0
M  V30 1527 H 147.441 2.88208 -1.45382 0
M  V30 1528 H 146.493 1.54976 -3.474 0
M  V30 1529 H 147.805 2.23052 -4.46149 0
M  V30 1530 H 146.959 4.54441 -4.01956 0
M  V30 1531 H 145.698 3.89666 -2.93278 0
M  V30 1532 H 144.703 2.60499 -4.8417 0
M  V30 1533 H 145.928 3.2832 -5.9446 0
M  V30 1534 H 143.874 4.88752 -4.37559 0
M  V30 1535 H 143.791 4.51242 -6.06561 0
M  V30 1536 H 145.059 5.54602 -5.47756 0
M  V30 1537 N 149.288 1.51039 0.449983 0
M  V30 1538 C 150.22 1.67617 1.56324 0
M  V30 1539 C 151.233 0.557083 1.52972 0
M  V30 1540 O 152.422 0.830989 1.57977 0
M  V30 1541 C 149.522 1.66402 2.95235 0
M  V30 1542 C 148.695 2.9469 3.23229 0
M  V30 1543 C 147.754 2.85832 4.41799 0
M  V30 1544 O 146.78 3.59785 4.41071 0
M  V30 1545 N 147.982 2.00821 5.44657 0
M  V30 1546 H 150.747 2.63648 1.42512 0
M  V30 1547 H 148.308 1.48767 0.638737 0
M  V30 1548 H 150.3 1.58062 3.72557 0
M  V30 1549 H 148.87 0.780182 3.02708 0
M  V30 1550 H 148.09 3.16996 2.34323 0
M  V30 1551 H 149.378 3.79636 3.38754 0
M  V30 1552 H 148.776 1.40091 5.48079 0
M  V30 1553 H 147.333 1.98368 6.20881 0
M  V30 1554 N 150.766 -0.704594 1.40972 0
M  V30 1555 C 152.015 -1.46018 1.39146 0
M  V30 1556 C 152.328 -1.956 0.000589254 0
M  V30 1557 O 153.534 -2.71137 -0.1403 0
M  V30 1558 C 151.99 -2.63996 2.4461 0
M  V30 1559 C 151.598 -2.21238 3.89561 0
M  V30 1560 C 153.342 -3.41677 2.51907 0
M  V30 1561 C 151.249 -3.3612 4.86598 0
M  V30 1562 H 150.179 -0.548444 0.517422 0
M  V30 1563 H 152.83 -0.765784 1.66757 0
M  V30 1564 H 151.212 -3.3566 2.10115 0
M  V30 1565 H 152.386 -1.56923 4.33257 0
M  V30 1566 H 150.701 -1.56574 3.85841 0
M  V30 1567 H 153.298 -4.27182 3.2159 0
M  V30 1568 H 153.641 -3.86247 1.55303 0
M  V30 1569 H 154.174 -2.77064 2.85448 0
M  V30 1570 H 150.913 -2.96572 5.84573 0
M  V30 1571 H 150.433 -3.99315 4.47557 0
M  V30 1572 H 152.112 -4.02029 5.06934 0
M  V30 1573 N 152.244 -1.26651 -0.937939 0
M  V30 1574 C 153.492 -1.12165 -1.68118 0
M  V30 1575 C 153.813 0.334983 -1.92101 0
M  V30 1576 O 153.083 1.23583 -1.52 0
M  V30 1577 H 151.663 -0.412093 -0.623048 0
M  V30 1578 H 154.325 -1.59027 -1.12678 0
M  V30 1579 H 153.421 -1.64289 -2.6536 0
M  V30 1580 N 153.722 1.14298 -1.08507 0
M  V30 1581 C 154.652 2.21542 -0.737646 0
M  V30 1582 C 155.633 1.67773 0.280377 0
M  V30 1583 O 156.818 1.93616 0.150521 0
M  V30 1584 C 153.948 3.46988 -0.147259 0
M  V30 1585 C 152.902 4.13789 -1.09374 0
M  V30 1586 C 152.228 5.33449 -0.365524 0
M  V30 1587 C 153.528 4.62208 -2.4323 0
M  V30 1588 H 155.222 2.5086 -1.6343 0
M  V30 1589 H 152.768 1.20576 -0.787243 0
M  V30 1590 H 154.721 4.21262 0.107808 0
M  V30 1591 H 153.445 3.17037 0.784538 0
M  V30 1592 H 152.104 3.4147 -1.33393 0
M  V30 1593 H 151.752 4.99759 0.57011 0
M  V30 1594 H 151.452 5.79088 -0.996512 0
M  V30 1595 H 152.976 6.10485 -0.118534 0
M  V30 1596 H 154.39 5.27952 -2.23472 0
M  V30 1597 H 152.787 5.18553 -3.02031 0
M  V30 1598 H 153.857 3.77224 -3.04681 0
M  V30 1599 N 155.201 0.870884 1.31352 0
M  V30 1600 C 156.612 0.534714 1.78879 0
M  V30 1601 C 156.963 -0.948423 1.71754 0
M  V30 1602 O 156.088 -1.74055 1.28584 0
M  V30 1603 C 156.683 0.963839 3.24801 0
M  V30 1604 C 155.242 0.679311 3.70219 0
M  V30 1605 C 154.389 1.15465 2.52117 0
M  V30 1606 H 157.34 1.05651 1.18421 0
M  V30 1607 H 157.361 0.286892 3.79417 0
M  V30 1608 H 156.873 2.04332 3.29955 0
M  V30 1609 H 154.974 -0.388769 3.70566 0
M  V30 1610 H 155.087 1.25698 4.62317 0
M  V30 1611 H 153.451 0.574383 2.48139 0
M  V30 1612 H 154.234 2.24157 2.60016 0
M  V30 1613 N 156.679 -1.44442 0.630414 0
M  V30 1614 C 157.925 -2.02351 0.134816 0
M  V30 1615 C 158.258 -1.4947 -1.23986 0
M  V30 1616 O 157.533 -0.678475 -1.82283 0
M  V30 1617 C 157.816 -3.59898 0.120707 0
M  V30 1618 C 157.669 -4.23063 1.52767 0
M  V30 1619 C 158.988 -4.36585 -0.555127 0
M  V30 1620 H 156.107 -0.73527 0.0504646 0
M  V30 1621 H 158.749 -1.72022 0.806751 0
M  V30 1622 H 156.899 -3.85868 -0.451477 0
M  V30 1623 H 158.571 -4.08202 2.14869 0
M  V30 1624 H 156.814 -3.80586 2.08175 0
M  V30 1625 H 157.485 -5.32071 1.46984 0
M  V30 1626 H 159.961 -4.16044 -0.0685429 0
M  V30 1627 H 158.837 -5.46294 -0.534185 0
M  V30 1628 H 159.098 -4.11138 -1.62535 0
M  V30 1629 N 158.157 -0.370918 -1.53173 0
M  V30 1630 C 159.385 0.217704 -2.05751 0
M  V30 1631 C 159.8 1.42018 -1.24404 0
M  V30 1632 O 159.157 1.80245 -0.286033 0
M  V30 1633 C 159.208 0.605954 -3.56385 0
M  V30 1634 O 158.929 -0.548734 -4.3465 0
M  V30 1635 C 160.43 1.2524 -4.25241 0
M  V30 1636 H 157.65 0.0371659 -0.66997 0
M  V30 1637 H 160.194 -0.530832 -1.9749 0
M  V30 1638 H 158.349 1.3044 -3.6478 0
M  V30 1639 H 158.763 -0.23376 -5.23979 0
M  V30 1640 H 160.237 1.47458 -5.3194 0
M  V30 1641 H 160.714 2.2143 -3.79296 0
M  V30 1642 H 161.32 0.595233 -4.21114 0
M  V30 1643 N 159.635 1.57281 -0.100228 0
M  V30 1644 C 161.051 1.57527 0.256416 0
M  V30 1645 C 161.251 1.11173 1.68056 0
M  V30 1646 O 160.307 0.79053 2.39806 0
M  V30 1647 C 161.62 3.00673 0.0401747 0
M  V30 1648 C 163.168 3.12815 0.107528 0
M  V30 1649 C 163.643 4.57929 -0.0807834 0
M  V30 1650 N 165.134 4.63193 -0.0261207 0
M  V30 1651 C 165.869 5.73212 -0.146999 0
M  V30 1652 N 165.365 6.92047 -0.322999 0
M  V30 1653 N 167.158 5.62031 -0.0879044 0
M  V30 1654 H 159.309 1.85718 -1.03065 0
M  V30 1655 H 161.572 0.857446 -0.404339 0
M  V30 1656 H 161.278 3.38804 -0.943649 0
M  V30 1657 H 161.152 3.69042 0.780262 0
M  V30 1658 H 163.539 2.74554 1.08186 0
M  V30 1659 H 163.62 2.47028 -0.664134 0
M  V30 1660 H 163.264 4.96886 -1.05201 0
M  V30 1661 H 163.194 5.21783 0.710635 0
M  V30 1662 H 165.685 3.77748 0.107161 0
M  V30 1663 H 165.998 7.7173 -0.406608 0
M  V30 1664 H 164.343 6.94074 -0.358733 0
M  V30 1665 H 167.534 4.68075 0.048498 0
M  V30 1666 H 167.707 6.47734 -0.185557 0
M  V30 1667 N 161.113 -0.173488 1.56642 0
M  V30 1668 C 162.076 -1.19859 1.95362 0
M  V30 1669 C 163.076 -1.37296 0.83704 0
M  V30 1670 O 164.266 -1.34739 1.10413 0
M  V30 1671 C 161.398 -2.56405 2.24654 0
M  V30 1672 H 162.591 -0.867062 2.87092 0
M  V30 1673 H 160.144 -0.415853 1.50666 0
M  V30 1674 H 160.879 -2.94576 1.35631 0
M  V30 1675 H 160.664 -2.45115 3.06041 0
M  V30 1676 H 162.154 -3.30287 2.5554 0
M  V30 1677 N 162.591 -1.51276 -0.441967 0
M  V30 1678 C 163.837 -1.63958 -1.19355 0
M  V30 1679 C 164.17 -0.352543 -1.90973 0
M  V30 1680 O 163.445 0.647627 -1.83401 0
M  V30 1681 C 163.728 -2.83979 -2.21422 0
M  V30 1682 C 163.581 -4.22646 -1.53918 0
M  V30 1683 C 164.9 -2.99521 -3.22451 0
M  V30 1684 H 162.019 -0.596709 -0.432559 0
M  V30 1685 H 164.661 -1.83748 -0.483398 0
M  V30 1686 H 162.811 -2.67237 -2.81987 0
M  V30 1687 H 164.483 -4.51045 -0.967256 0
M  V30 1688 H 162.726 -4.25558 -0.841615 0
M  V30 1689 H 163.397 -5.02609 -2.28229 0
M  V30 1690 H 165.873 -3.14944 -2.71937 0
M  V30 1691 H 164.749 -3.85072 -3.91166 0
M  V30 1692 H 165.01 -2.11391 -3.88287 0
M  V30 1693 N 164.069 0.697108 -1.41344 0
M  V30 1694 C 165.294 1.49096 -1.44171 0
M  V30 1695 C 165.719 1.88038 -0.0481568 0
M  V30 1696 O 165.077 1.54525 0.948243 0
M  V30 1697 C 165.125 2.73088 -2.3549 0
M  V30 1698 O 164.229 3.70514 -1.81088 0
M  V30 1699 H 163.57 0.448801 -0.489361 0
M  V30 1700 H 166.1 0.856992 -1.85787 0
M  V30 1701 H 166.11 3.21413 -2.51312 0
M  V30 1702 H 164.785 2.44081 -3.36745 0
M  V30 1703 H 163.362 3.29441 -1.74708 0
M  V30 1704 N 165.547 1.27147 0.931209 0
M  V30 1705 C 166.775 1.16082 1.71267 0
M  V30 1706 C 167.19 -0.282772 1.8667 0
M  V30 1707 O 166.547 -1.19283 1.38122 0
M  V30 1708 C 166.598 1.8358 3.11417 0
M  V30 1709 O 166.319 3.22299 2.96741 0
M  V30 1710 C 167.82 1.78597 4.05732 0
M  V30 1711 H 165.04 0.403758 0.535929 0
M  V30 1712 H 167.584 1.67953 1.16671 0
M  V30 1713 H 165.739 1.35623 3.62885 0
M  V30 1714 H 166.153 3.55851 3.85319 0
M  V30 1715 H 167.627 2.30444 5.01597 0
M  V30 1716 H 168.104 0.754564 4.3267 0
M  V30 1717 H 168.71 2.26152 3.60188 0
M  V30 1718 N 167.025 -1.13721 1.09112 0
M  V30 1719 C 167.975 -2.17082 0.697091 0
M  V30 1720 C 168.959 -1.58321 -0.286923 0
M  V30 1721 O 170.151 -1.7673 -0.0978008 0
M  V30 1722 C 167.28 -3.43105 0.115729 0
M  V30 1723 C 166.366 -4.0888 1.12596 0
M  V30 1724 N 166.757 -4.4987 2.31195 0
M  V30 1725 C 165.055 -4.35471 0.963366 0
M  V30 1726 C 165.756 -5.01094 2.95431 0
M  V30 1727 N 164.732 -4.95751 2.23006 0
M  V30 1728 H 168.534 -2.46524 1.6001 0
M  V30 1729 H 166.048 -1.30481 0.966869 0
M  V30 1730 H 168.045 -4.16491 -0.184555 0
M  V30 1731 H 166.705 -3.15138 -0.78217 0
M  V30 1732 H 167.716 -4.42678 2.68806 0
M  V30 1733 H 164.393 -4.17328 0.119878 0
M  V30 1734 H 165.783 -5.4263 3.96236 0
M  V30 1735 N 168.503 -0.877838 -1.30888 0
M  V30 1736 C 169.75 -0.492696 -1.96415 0
M  V30 1737 C 170.078 0.956671 -1.69346 0
M  V30 1738 O 169.333 1.68993 -0.986913 0
M  V30 1739 C 169.632 -0.705748 -3.50363 0
M  V30 1740 C 169.298 -2.1291 -3.97467 0
M  V30 1741 C 167.96 -2.51834 -4.1004 0
M  V30 1742 C 170.312 -3.05702 -4.22132 0
M  V30 1743 C 167.64 -3.82775 -4.44635 0
M  V30 1744 C 169.992 -4.36166 -4.58194 0
M  V30 1745 C 168.656 -4.74993 -4.68975 0
M  V30 1746 H 167.926 -0.18029 -0.718733 0
M  V30 1747 H 170.573 -1.11233 -1.55883 0
M  V30 1748 H 168.878 -0.00303058 -3.918 0
M  V30 1749 H 170.575 -0.387456 -3.99124 0
M  V30 1750 H 167.165 -1.81694 -3.88182 0
M  V30 1751 H 171.349 -2.76853 -4.11906 0
M  V30 1752 H 166.605 -4.12609 -4.51181 0
M  V30 1753 H 170.779 -5.08111 -4.76231 0
M  V30 1754 H 168.406 -5.76495 -4.95537 0
M  V30 1755 N 169.982 1.44106 -0.638065 0
M  V30 1756 C 170.932 2.27843 0.0847285 0
M  V30 1757 C 171.916 1.39055 0.809471 0
M  V30 1758 O 173.108 1.62808 0.694435 0
M  V30 1759 C 170.237 3.26497 1.06089 0
M  V30 1760 C 169.323 4.22772 0.33541 0
M  V30 1761 N 169.714 5.01737 -0.639787 0
M  V30 1762 C 168.012 4.42227 0.578921 0
M  V30 1763 C 168.713 5.71792 -1.06904 0
M  V30 1764 N 167.689 5.42079 -0.406395 0
M  V30 1765 H 171.491 2.86305 -0.663814 0
M  V30 1766 H 169.005 1.55627 -0.464122 0
M  V30 1767 H 171.002 3.8525 1.59337 0
M  V30 1768 H 169.662 2.69595 1.80966 0
M  V30 1769 H 170.673 5.07799 -1.01789 0
M  V30 1770 H 167.35 3.96415 1.31003 0
M  V30 1771 H 168.74 6.45205 -1.8751 0
M  V30 1772 N 171.46 0.379036 1.52974 0
M  V30 1773 C 172.737 -0.263479 1.93817 0
M  V30 1774 C 173.117 -1.65244 1.31368 0
M  V30 1775 O 172.465 -2.23448 0.477856 0
M  V30 1776 C 172.675 -0.300166 3.47707 0
M  V30 1777 C 174.023 -0.534061 4.21228 0
M  V30 1778 O 175.047 -0.38081 3.54159 0
M  V30 1779 O 173.906 -0.833501 5.40106 0
M  V30 1780 H 171 -0.161149 0.811147 0
M  V30 1781 H 173.546 0.432798 1.64088 0
M  V30 1782 H 172.318 0.673138 3.85467 0
M  V30 1783 H 171.941 -1.04179 3.83709 0
M  V30 1784 N 172.938 -1.57226 0.108567 0
M  V30 1785 C 174.215 -1.86333 -0.594939 0
M  V30 1786 C 174.595 -1.00788 -1.85486 0
M  V30 1787 O 173.943 -0.0839293 -2.28346 0
M  V30 1788 C 174.153 -3.37265 -0.897405 0
M  V30 1789 C 175.501 -4.05629 -1.25501 0
M  V30 1790 O 176.525 -3.42224 -0.987998 0
M  V30 1791 O 175.384 -5.17531 -1.75567 0
M  V30 1792 H 172.478 -0.771018 -0.2991 0
M  V30 1793 H 175.024 -1.69102 0.142283 0
M  V30 1794 H 173.796 -3.913 -0.00413806 0
M  V30 1795 H 173.419 -3.59889 -1.69014 0
M  V30 1796 N 174.416 0.165178 -1.56732 0
M  V30 1797 C 175.832 0.517174 -1.50988 0
M  V30 1798 C 176.032 1.84331 -0.813894 0
M  V30 1799 O 175.088 2.49672 -0.37682 0
M  V30 1800 C 176.401 0.544261 -2.95733 0
M  V30 1801 C 177.949 0.631039 -3.06573 0
M  V30 1802 C 178.424 0.68896 -4.52788 0
M  V30 1803 N 179.915 0.751683 -4.5706 0
M  V30 1804 C 180.65 0.817177 -5.67547 0
M  V30 1805 N 180.146 0.843129 -6.8765 0
M  V30 1806 N 181.939 0.856668 -5.55534 0
M  V30 1807 H 174.09 -0.704318 -2.00382 0
M  V30 1808 H 176.353 -0.254687 -0.913148 0
M  V30 1809 H 176.059 -0.361607 -3.49836 0
M  V30 1810 H 175.933 1.3886 -3.5071 0
M  V30 1811 H 178.32 1.52733 -2.52501 0
M  V30 1812 H 178.401 -0.240095 -2.54671 0
M  V30 1813 H 178.045 -0.2031 -5.07494 0
M  V30 1814 H 177.975 1.57633 -5.02454 0
M  V30 1815 H 180.466 0.739661 -3.70591 0
M  V30 1816 H 180.779 0.894448 -7.67606 0
M  V30 1817 H 179.124 0.811304 -6.90248 0
M  V30 1818 H 182.315 0.833437 -4.60621 0
M  V30 1819 H 182.488 0.904247 -6.4166 0
M  V30 1820 N 175.894 1.51508 0.433938 0
M  V30 1821 C 177.14 1.64588 1.18484 0
M  V30 1822 C 177.473 0.362666 1.90784 0
M  V30 1823 O 176.748 -0.637892 1.83742 0
M  V30 1824 C 177.031 2.85149 2.19913 0
M  V30 1825 C 176.884 4.23456 1.51674 0
M  V30 1826 C 178.203 3.01227 3.20858 0
M  V30 1827 H 175.322 0.598994 0.429389 0
M  V30 1828 H 177.964 1.84002 0.473647 0
M  V30 1829 H 176.114 2.68729 2.80566 0
M  V30 1830 H 177.786 4.51552 0.943322 0
M  V30 1831 H 176.029 4.25998 0.819035 0
M  V30 1832 H 176.7 5.03812 2.2556 0
M  V30 1833 H 179.176 3.16382 2.70263 0
M  V30 1834 H 178.052 3.87141 3.89118 0
M  V30 1835 H 178.313 2.13447 3.8716 0
M  V30 1836 N 177.372 -0.689602 1.41712 0
M  V30 1837 C 178.62 -1.4468 1.4111 0
M  V30 1838 C 178.941 -1.94986 0.0232196 0
M  V30 1839 O 178.211 -1.72097 -0.935913 0
M  V30 1840 H 176.791 -0.536847 0.519427 0
M  V30 1841 H 179.453 -0.815825 1.77004 0
M  V30 1842 H 178.549 -2.30706 2.10193 0
M  V30 1843 N 178.85 -1.27639 -0.924453 0
M  V30 1844 C 180.098 -1.13941 -1.66918 0
M  V30 1845 C 180.419 0.314589 -1.92446 0
M  V30 1846 O 179.689 1.21964 -1.53303 0
M  V30 1847 H 178.269 -0.418678 -0.618642 0
M  V30 1848 H 180.931 -1.60213 -1.10985 0
M  V30 1849 H 180.027 -1.67094 -2.63602 0
M  V30 1850 N 180.328 1.1314 -1.09713 0
M  V30 1851 C 181.574 1.84757 -0.836224 0
M  V30 1852 C 181.907 1.8347 0.636598 0
M  V30 1853 O 181.182 1.27491 1.46889 0
M  V30 1854 C 181.465 3.32782 -1.37578 0
M  V30 1855 C 181.318 3.42567 -2.91493 0
M  V30 1856 C 182.637 4.28307 -1.01198 0
M  V30 1857 H 179.756 0.67082 -0.305236 0
M  V30 1858 H 182.398 1.3278 -1.35903 0
M  V30 1859 H 180.548 3.77177 -0.931097 0
M  V30 1860 H 182.22 3.06862 -3.44432 0
M  V30 1861 H 180.463 2.83349 -3.28475 0
M  V30 1862 H 181.134 4.46674 -3.24324 0
M  V30 1863 H 183.61 3.91999 -1.39556 0
M  V30 1864 H 182.486 5.30307 -1.41653 0
M  V30 1865 H 182.747 4.42029 0.0794833 0
M  V30 1866 N 181.806 0.884767 1.30421 0
M  V30 1867 C 183.083 0.423185 1.90967 0
M  V30 1868 C 183.463 -1.09605 1.80416 0
M  V30 1869 O 182.811 -1.93126 1.22125 0
M  V30 1870 C 183.021 0.921056 3.36627 0
M  V30 1871 C 184.369 0.955903 4.137 0
M  V30 1872 O 185.393 0.867706 3.4547 0
M  V30 1873 O 184.252 1.08614 5.35598 0
M  V30 1874 H 181.346 0.129369 0.816819 0
M  V30 1875 H 183.892 0.973653 1.3899 0
M  V30 1876 H 182.664 1.96489 3.3839 0
M  V30 1877 H 182.287 0.349741 3.96059 0
M  V30 1878 N 183.284 -1.43765 0.645699 0
M  V30 1879 C 184.53 -2.02197 0.156271 0
M  V30 1880 C 184.863 -1.50776 -1.22393 0
M  V30 1881 O 184.138 -0.697771 -1.81553 0
M  V30 1882 C 184.421 -3.59749 0.158872 0
M  V30 1883 C 184.274 -4.21419 1.57245 0
M  V30 1884 C 185.593 -4.37149 -0.50879 0
M  V30 1885 H 182.712 -0.734694 0.0582602 0
M  V30 1886 H 185.354 -1.71157 0.824951 0
M  V30 1887 H 183.504 -3.86325 -0.410525 0
M  V30 1888 H 185.176 -4.059 2.19186 0
M  V30 1889 H 183.419 -3.78356 2.122 0
M  V30 1890 H 184.09 -5.30482 1.52619 0
M  V30 1891 H 186.566 -4.16093 -0.024412 0
M  V30 1892 H 185.442 -5.4683 -0.476213 0
M  V30 1893 H 185.703 -4.12839 -1.58165 0
M  V30 1894 N 184.763 -0.387143 -1.52771 0
M  V30 1895 C 185.693 0.440551 -2.29306 0
M  V30 1896 C 186.674 1.06535 -1.32606 0
M  V30 1897 O 187.859 1.07853 -1.61497 0
M  V30 1898 C 184.989 1.56919 -3.09829 0
M  V30 1899 C 183.943 1.07054 -4.14395 0
M  V30 1900 C 183.269 2.29109 -4.83129 0
M  V30 1901 C 184.569 0.140015 -5.22112 0
M  V30 1902 H 186.263 -0.198026 -2.98744 0
M  V30 1903 H 183.809 -0.09668 -1.43675 0
M  V30 1904 H 185.762 2.15503 -3.62128 0
M  V30 1905 H 184.486 2.23532 -2.3812 0
M  V30 1906 H 183.145 0.507247 -3.63074 0
M  V30 1907 H 182.793 2.94227 -4.0797 0
M  V30 1908 H 182.493 1.96406 -5.53804 0
M  V30 1909 H 184.017 2.88339 -5.38231 0
M  V30 1910 H 185.431 0.633978 -5.69784 0
M  V30 1911 H 183.828 -0.0971485 -6.00021 0
M  V30 1912 H 184.898 -0.811711 -4.78058 0
M  V30 1913 N 186.241 1.57166 -0.116904 0
M  V30 1914 C 187.657 1.5779 0.239693 0
M  V30 1915 C 187.857 1.1295 1.66867 0
M  V30 1916 O 186.913 0.81592 2.38954 0
M  V30 1917 C 188.226 3.00699 0.00828202 0
M  V30 1918 C 189.774 3.12912 0.0743438 0
M  V30 1919 C 190.249 4.57817 -0.129348 0
M  V30 1920 N 191.74 4.63139 -0.075247 0
M  V30 1921 C 192.475 5.73023 -0.207788 0
M  V30 1922 N 191.971 6.91665 -0.396382 0
M  V30 1923 N 193.764 5.61906 -0.14751 0
M  V30 1924 H 185.915 1.84615 -1.05029 0
M  V30 1925 H 188.178 0.85311 -0.41341 0
M  V30 1926 H 187.884 3.37784 -0.979531 0
M  V30 1927 H 187.758 3.69848 0.741077 0
M  V30 1928 H 190.145 2.75686 1.05268 0
M  V30 1929 H 190.226 2.4631 -0.690297 0
M  V30 1930 H 189.87 4.95742 -1.10465 0
M  V30 1931 H 189.8 5.22507 0.655253 0
M  V30 1932 H 192.291 3.7784 0.0670898 0
M  V30 1933 H 192.604 7.71255 -0.488437 0
M  V30 1934 H 190.949 6.93654 -0.432329 0
M  V30 1935 H 194.14 4.681 -0.00115036 0
M  V30 1936 H 194.313 6.47501 -0.254247 0
M  V30 1937 N 187.719 -0.156864 1.56817 0
M  V30 1938 C 188.682 -1.17781 1.96622 0
M  V30 1939 C 189.682 -1.36401 0.851555 0
M  V30 1940 O 190.872 -1.33561 1.11836 0
M  V30 1941 C 188.004 -2.54008 2.27361 0
M  V30 1942 H 189.197 -0.836564 2.87996 0
M  V30 1943 H 186.75 -0.39985 1.51099 0
M  V30 1944 H 187.485 -2.9312 1.38748 0
M  V30 1945 H 187.27 -2.41856 3.08623 0
M  V30 1946 H 188.76 -3.27558 2.59029 0
M  V30 1947 N 189.197 -1.51736 -0.425897 0
M  V30 1948 C 190.16 -1.73271 -1.50032 0
M  V30 1949 C 191.16 -0.602639 -1.4908 0
M  V30 1950 O 192.35 -0.87033 -1.509 0
M  V30 1951 C 189.482 -1.79969 -2.89523 0
M  V30 1952 H 190.675 -2.69172 -1.32237 0
M  V30 1953 H 188.228 -1.41899 -0.65532 0
M  V30 1954 H 188.963 -0.859241 -3.1271 0
M  V30 1955 H 188.748 -2.62109 -2.91619 0
M  V30 1956 H 190.238 -1.9843 -3.67444 0
M  V30 1957 N 190.675 0.682077 -1.42076 0
M  V30 1958 C 191.923 1.4393 -1.41876 0
M  V30 1959 C 192.244 1.94971 -0.0335599 0
M  V30 1960 O 191.514 1.72591 0.926773 0
M  V30 1961 H 190.094 0.534085 -0.522267 0
M  V30 1962 H 192.756 0.806427 -1.77434 0
M  V30 1963 H 191.852 2.29588 -2.11414 0
M  V30 1964 N 192.153 1.28127 0.917671 0
M  V30 1965 C 193.399 1.15223 1.66888 0
M  V30 1966 C 193.732 -0.299293 1.9188 0
M  V30 1967 O 193.007 -1.21805 1.51637 0
M  V30 1968 C 193.29 1.94706 3.02922 0
M  V30 1969 C 193.143 3.47898 2.85109 0
M  V30 1970 C 194.462 1.75939 4.03402 0
M  V30 1971 H 191.581 0.419946 0.605652 0
M  V30 1972 H 194.223 1.57398 1.06423 0
M  V30 1973 H 192.373 1.58864 3.54534 0
M  V30 1974 H 194.045 3.93624 2.40537 0
M  V30 1975 H 192.288 3.7373 2.20246 0
M  V30 1976 H 192.959 3.98765 3.81694 0
M  V30 1977 H 195.435 2.07209 3.60837 0
M  V30 1978 H 194.311 2.33931 4.96556 0
M  V30 1979 H 194.572 0.709877 4.36364 0
M  V30 1980 N 193.631 -1.12557 1.10312 0
M  V30 1981 C 194.594 -2.16434 0.75424 0
M  V30 1982 C 195.594 -1.59278 -0.220685 0
M  V30 1983 O 196.784 -1.742 0.00230591 0
M  V30 1984 C 193.916 -3.40699 0.116987 0
M  V30 1985 H 195.109 -2.48811 1.67431 0
M  V30 1986 H 192.662 -1.27542 0.903475 0
M  V30 1987 H 193.397 -3.13921 -0.813877 0
M  V30 1988 H 193.182 -3.83459 0.818613 0
M  V30 1989 H 194.672 -4.17451 -0.111387 0
M  V30 1990 N 195.109 -0.891671 -1.2995 0
M  V30 1991 C 196.337 -0.52866 -2.00032 0
M  V30 1992 C 196.752 0.884574 -1.66795 0
M  V30 1993 O 196.109 1.5827 -0.908669 0
M  V30 1994 C 196.16 -0.701814 -3.54622 0
M  V30 1995 O 195.881 -2.05942 -3.86678 0
M  V30 1996 C 197.382 -0.342683 -4.41973 0
M  V30 1997 H 194.602 -0.203659 -0.639347 0
M  V30 1998 H 197.146 -1.19881 -1.65677 0
M  V30 1999 H 195.301 -0.0789468 -3.8732 0
M  V30 2000 H 195.715 -2.08291 -4.81368 0
M  V30 2001 H 197.189 -0.514709 -5.49595 0
M  V30 2002 H 197.666 0.71975 -4.33262 0
M  V30 2003 H 198.272 -0.942154 -4.14733 0
M  V30 2004 N 196.587 1.43421 -0.653314 0
M  V30 2005 C 197.817 2.05864 -0.174238 0
M  V30 2006 C 198.225 1.49052 1.16534 0
M  V30 2007 O 197.568 0.616481 1.73047 0
M  V30 2008 C 197.63 3.59499 -0.00875873 0
M  V30 2009 C 197.294 4.38893 -1.27364 0
M  V30 2010 C 198.291 4.70947 -2.20239 0
M  V30 2011 C 195.976 4.789 -1.51525 0
M  V30 2012 C 197.97 5.41916 -3.35568 0
M  V30 2013 C 195.657 5.49614 -2.67147 0
M  V30 2014 C 196.655 5.81044 -3.58994 0
M  V30 2015 O 196.343 6.50313 -4.72597 0
M  V30 2016 H 196.075 0.670345 -0.0872549 0
M  V30 2017 H 198.629 1.84913 -0.894226 0
M  V30 2018 H 196.859 3.79025 0.7666 0
M  V30 2019 H 198.548 4.0364 0.427687 0
M  V30 2020 H 199.314 4.40558 -2.02815 0
M  V30 2021 H 195.193 4.53843 -0.809158 0
M  V30 2022 H 198.737 5.66365 -4.07279 0
M  V30 2023 H 194.634 5.79419 -2.84505 0
M  V30 2024 H 195.402 6.68795 -4.71864 0
M  V30 2025 N 198.065 0.39524 1.52563 0
M  V30 2026 C 199.028 -0.425001 2.25225 0
M  V30 2027 C 200.028 -0.985266 1.27079 0
M  V30 2028 O 201.218 -0.866332 1.5113 0
M  V30 2029 C 198.35 -1.59686 3.01186 0
M  V30 2030 H 199.543 0.211233 2.99155 0
M  V30 2031 H 197.096 0.147472 1.55603 0
M  V30 2032 H 197.831 -2.27035 2.31572 0
M  V30 2033 H 197.616 -1.20176 3.73229 0
M  V30 2034 H 199.106 -2.17743 3.5634 0
M  V30 2035 N 199.544 -1.57102 0.125237 0
M  V30 2036 C 200.769 -2.0019 -0.542101 0
M  V30 2037 C 201.194 -1.00449 -1.59034 0
M  V30 2038 O 200.552 0.0229423 -1.81285 0
M  V30 2039 C 200.6 -3.42129 -1.13929 0
M  V30 2040 O 199.704 -3.45307 -2.2547 0
M  V30 2041 H 199.045 -0.650171 -0.134812 0
M  V30 2042 H 201.575 -2.03461 0.215553 0
M  V30 2043 H 201.585 -3.80471 -1.4733 0
M  V30 2044 H 200.26 -4.14237 -0.371531 0
M  V30 2045 H 198.837 -3.1879 -1.93462 0
M  V30 2046 N 201.022 0.148545 -1.56898 0
M  V30 2047 C 202.433 0.708766 -1.72723 0
M  V30 2048 C 202.784 1.81734 -0.739395 0
M  V30 2049 O 201.909 2.16194 0.0943169 0
M  V30 2050 C 202.504 1.29245 -3.13179 0
M  V30 2051 C 201.063 1.79925 -3.30611 0
M  V30 2052 C 200.21 0.687111 -2.68652 0
M  V30 2053 H 203.161 -0.0771063 -1.58513 0
M  V30 2054 H 203.182 2.16224 -3.13093 0
M  V30 2055 H 202.694 0.485382 -3.85053 0
M  V30 2056 H 200.795 2.63203 -2.63732 0
M  V30 2057 H 200.908 1.92903 -4.38549 0
M  V30 2058 H 199.272 1.11335 -2.29078 0
M  V30 2059 H 200.055 -0.108483 -3.43129 0
M  V30 2060 N 202.5 1.5196 0.417844 0
M  V30 2061 C 203.725 1.69717 1.1921 0
M  V30 2062 C 204.15 0.402148 1.83751 0
M  V30 2063 O 203.508 -0.639593 1.69643 0
M  V30 2064 C 203.556 2.82794 2.2374 0
M  V30 2065 O 202.66 2.47756 3.29683 0
M  V30 2066 H 202.001 0.565263 0.348387 0
M  V30 2067 H 204.531 1.98621 0.490985 0
M  V30 2068 H 204.541 3.07452 2.68212 0
M  V30 2069 H 203.216 3.76756 1.76146 0
M  V30 2070 H 201.793 2.33739 2.90552 0
M  V30 2071 N 203.978 -0.674533 1.42435 0
M  V30 2072 C 205.206 -1.46283 1.46317 0
M  V30 2073 C 205.621 -1.88653 0.0745836 0
M  V30 2074 O 204.978 -1.58151 -0.91074 0
M  V30 2075 C 205.029 -2.71178 2.3905 0
M  V30 2076 O 204.75 -2.30586 3.72507 0
M  V30 2077 C 206.251 -3.64738 2.51955 0
M  V30 2078 H 203.471 -0.450104 0.497642 0
M  V30 2079 H 206.015 -0.828792 1.86953 0
M  V30 2080 H 204.17 -3.3077 2.01667 0
M  V30 2081 H 204.584 -3.11241 4.22172 0
M  V30 2082 H 206.058 -4.49096 3.20962 0
M  V30 2083 H 206.535 -4.10656 1.55752 0
M  V30 2084 H 207.141 -3.11038 2.90061 0
M  V30 2085 N 205.456 -1.28612 -0.910864 0
M  V30 2086 C 206.872 -1.06381 -1.18976 0
M  V30 2087 C 207.072 0.191998 -2.00583 0
M  V30 2088 O 206.128 0.892869 -2.36187 0
M  V30 2089 C 207.441 -2.31295 -1.92154 0
M  V30 2090 C 208.989 -2.36503 -2.05025 0
M  V30 2091 C 209.464 -3.61191 -2.81612 0
M  V30 2092 N 210.955 -3.61847 -2.89172 0
M  V30 2093 C 211.69 -4.55004 -3.4894 0
M  V30 2094 N 211.186 -5.58482 -4.09963 0
M  V30 2095 N 212.979 -4.42594 -3.46506 0
M  V30 2096 H 205.13 -2.09221 -0.366094 0
M  V30 2097 H 207.393 -0.921003 -0.224629 0
M  V30 2098 H 207.099 -3.228 -1.39618 0
M  V30 2099 H 206.973 -2.37934 -2.9269 0
M  V30 2100 H 209.36 -1.45494 -2.5674 0
M  V30 2101 H 209.441 -2.33857 -1.03657 0
M  V30 2102 H 209.085 -4.52545 -2.30576 0
M  V30 2103 H 209.015 -3.61092 -3.83302 0
M  V30 2104 H 211.506 -2.87022 -2.45819 0
M  V30 2105 H 211.819 -6.25704 -4.53557 0
M  V30 2106 H 210.164 -5.62305 -4.08459 0
M  V30 2107 H 213.355 -3.60953 -2.98045 0
M  V30 2108 H 213.528 -5.15381 -3.92793 0
M  V30 2109 N 206.934 1.1197 -1.10907 0
M  V30 2110 C 208.35 1.35591 -0.841852 0
M  V30 2111 C 208.55 1.94233 0.536246 0
M  V30 2112 O 207.606 2.1717 1.28816 0
M  V30 2113 C 208.919 2.29284 -1.94549 0
M  V30 2114 C 210.467 2.42862 -1.97451 0
M  V30 2115 C 210.942 3.39873 -3.07002 0
M  V30 2116 N 212.433 3.47433 -3.06341 0
M  V30 2117 C 213.168 4.22421 -3.87748 0
M  V30 2118 N 212.664 5.00432 -4.79103 0
M  V30 2119 N 214.457 4.17876 -3.75946 0
M  V30 2120 H 206.608 0.722664 -1.99728 0
M  V30 2121 H 208.871 0.380635 -0.868229 0
M  V30 2122 H 208.577 1.93378 -2.93765 0
M  V30 2123 H 208.451 3.29452 -1.83688 0
M  V30 2124 H 210.838 2.78046 -0.988645 0
M  V30 2125 H 210.919 1.42566 -2.12388 0
M  V30 2126 H 210.563 3.05417 -4.05811 0
M  V30 2127 H 210.493 4.40011 -2.89306 0
M  V30 2128 H 212.984 2.91784 -2.40147 0
M  V30 2129 H 213.297 5.55002 -5.37766 0
M  V30 2130 H 211.642 4.99612 -4.83128 0
M  V30 2131 H 214.833 3.56016 -3.03924 0
M  V30 2132 H 215.006 4.76061 -4.39624 0
M  V30 2133 N 208.412 0.89855 1.29475 0
M  V30 2134 C 209.342 0.39201 2.30186 0
M  V30 2135 C 210.323 -0.532359 1.61555 0
M  V30 2136 O 211.508 -0.443331 1.89072 0
M  V30 2137 C 208.638 -0.382353 3.45189 0
M  V30 2138 C 207.592 0.451483 4.25612 0
M  V30 2139 C 206.918 -0.450307 5.328 0
M  V30 2140 C 208.218 1.70079 4.93832 0
M  V30 2141 H 209.912 1.23362 2.72804 0
M  V30 2142 H 207.458 0.594638 1.31149 0
M  V30 2143 H 209.411 -0.747451 4.14718 0
M  V30 2144 H 208.135 -1.25774 3.01411 0
M  V30 2145 H 206.794 0.798897 3.57789 0
M  V30 2146 H 206.442 -1.32379 4.85268 0
M  V30 2147 H 206.142 0.103902 5.87508 0
M  V30 2148 H 207.666 -0.811623 6.05182 0
M  V30 2149 H 209.08 1.40549 5.55805 0
M  V30 2150 H 207.477 2.19623 5.58467 0
M  V30 2151 H 208.547 2.43744 4.19186 0
M  V30 2152 N 209.89 -1.43072 0.660911 0
M  V30 2153 C 210.853 -2.29194 -0.0166406 0
M  V30 2154 C 211.853 -1.42609 -0.742912 0
M  V30 2155 O 213.043 -1.64155 -0.583004 0
M  V30 2156 C 210.175 -3.24831 -1.0343 0
M  V30 2157 H 211.368 -2.90596 0.741208 0
M  V30 2158 H 208.921 -1.5048 0.422532 0
M  V30 2159 H 209.656 -2.68339 -1.82111 0
M  V30 2160 H 209.441 -3.88676 -0.517082 0
M  V30 2161 H 210.931 -3.89451 -1.50723 0
M  V30 2162 N 211.368 -0.403325 -1.52352 0
M  V30 2163 C 212.278 0.432009 -2.30588 0
M  V30 2164 C 213.294 1.05884 -1.38075 0
M  V30 2165 O 214.47 1.06161 -1.71148 0
M  V30 2166 C 211.535 1.53669 -3.10784 0
M  V30 2167 C 210.596 0.933525 -4.19027 0
M  V30 2168 C 209.829 1.98557 -4.9539 0
M  V30 2169 O 210.052 3.20283 -4.71991 0
M  V30 2170 O 208.986 1.59504 -5.80381 0
M  V30 2171 H 212.812 -0.205739 -3.03002 0
M  V30 2172 H 210.397 -0.166675 -1.48467 0
M  V30 2173 H 212.279 2.17814 -3.60742 0
M  V30 2174 H 210.954 2.15915 -2.41169 0
M  V30 2175 H 209.861 0.254954 -3.7323 0
M  V30 2176 H 211.194 0.35508 -4.90918 0
M  V30 2177 N 212.846 1.57033 -0.133567 0
M  V30 2178 C 214.092 1.95976 0.521649 0
M  V30 2179 C 214.425 1.01779 1.65393 0
M  V30 2180 O 213.7 0.0576581 1.94415 0
M  V30 2181 C 213.983 3.44738 1.04057 0
M  V30 2182 C 213.836 4.49711 -0.0892897 0
M  V30 2183 C 215.155 3.95682 1.92675 0
M  V30 2184 H 212.274 0.712579 0.188149 0
M  V30 2185 H 214.916 1.88813 -0.212076 0
M  V30 2186 H 213.066 3.50973 1.66583 0
M  V30 2187 H 214.738 4.55565 -0.725152 0
M  V30 2188 H 212.981 4.27261 -0.750378 0
M  V30 2189 H 213.652 5.51099 0.315284 0
M  V30 2190 H 216.128 3.91841 1.39998 0
M  V30 2191 H 215.004 5.00262 2.25897 0
M  V30 2192 H 215.265 3.37239 2.85872 0
M  V30 2193 N 214.325 -0.140222 1.56975 0
M  V30 2194 C 215.235 -1.19223 2.02047 0
M  V30 2195 C 216.251 -1.46612 0.937062 0
M  V30 2196 O 217.427 -1.58148 1.24704 0
M  V30 2197 C 214.492 -2.50414 2.39778 0
M  V30 2198 C 213.553 -2.30612 3.621 0
M  V30 2199 C 212.786 -3.55547 3.98023 0
M  V30 2200 O 213.009 -4.62004 3.34528 0
M  V30 2201 O 211.943 -3.47808 4.91237 0
M  V30 2202 H 215.769 -0.839559 2.91865 0
M  V30 2203 H 213.354 -0.349453 1.45256 0
M  V30 2204 H 215.236 -3.27747 2.64877 0
M  V30 2205 H 213.911 -2.85198 1.53114 0
M  V30 2206 H 212.818 -1.51207 3.4218 0
M  V30 2207 H 214.151 -2.00741 4.49404 0
M  V30 2208 N 215.803 -1.52179 -0.40978 0
M  V30 2209 C 217.051 -1.65878 -1.15451 0
M  V30 2210 C 217.372 -0.390771 -1.91044 0
M  V30 2211 O 216.642 0.594323 -1.86667 0
M  V30 2212 H 215.222 -0.611405 -0.429177 0
M  V30 2213 H 217.884 -1.89219 -0.467134 0
M  V30 2214 H 216.98 -2.49954 -1.86894 0
M  V30 2215 N 217.281 0.66697 -1.42791 0
M  V30 2216 C 218.229 1.80157 -1.47127 0
M  V30 2217 C 219.223 1.65825 -0.346199 0
M  V30 2218 O 220.429 1.72338 -0.519572 0
M  V30 2219 H 216.804 0.594158 -0.460956 0
M  V30 2220 H 218.775 1.73619 -2.42692 0
M  V30 2221 C 217.524 3.18351 -1.39813 0
M  V30 2222 H 216.847 3.3001 -2.25684 0
M  V30 2223 H 218.287 3.97736 -1.46908 0
M  V30 2224 C 216.746 3.36707 -0.11391 0
M  V30 2225 O 217.276 3.93027 0.830241 0
M  V30 2226 N 215.482 2.90586 -0.0285295 0
M  V30 2227 H 215.029 2.4494 -0.79764 0
M  V30 2228 H 214.987 3.03245 0.830063 0
M  V30 2229 N 218.759 1.29093 0.90403 0
M  V30 2230 C 219.669 1.15727 2.0407 0
M  V30 2231 C 220.685 0.0815308 1.73809 0
M  V30 2232 O 221.861 0.292749 1.99261 0
M  V30 2233 C 218.926 0.830424 3.36608 0
M  V30 2234 C 217.987 1.98955 3.80415 0
M  V30 2235 C 217.22 1.6782 5.06628 0
M  V30 2236 O 217.443 0.597105 5.67266 0
M  V30 2237 O 216.377 2.52486 5.46383 0
M  V30 2238 H 220.203 2.11171 2.18267 0
M  V30 2239 H 217.788 1.08504 1.027 0
M  V30 2240 H 219.67 0.662521 4.16159 0
M  V30 2241 H 218.345 -0.0942678 3.23563 0
M  V30 2242 H 217.252 2.21267 3.01648 0
M  V30 2243 H 218.585 2.89529 3.98037 0
M  V30 2244 N 220.237 -1.11381 1.11499 0
M  V30 2245 C 221.486 -1.82494 0.858993 0
M  V30 2246 C 221.799 -1.85605 -0.617278 0
M  V30 2247 O 223.005 -2.52824 -0.989552 0
M  V30 2248 C 221.461 -3.27745 1.48699 0
M  V30 2249 C 221.069 -3.32961 2.99735 0
M  V30 2250 C 222.813 -4.03754 1.31085 0
M  V30 2251 C 220.72 -4.72612 3.55516 0
M  V30 2252 H 219.65 -0.683802 0.317696 0
M  V30 2253 H 222.301 -1.25331 1.34031 0
M  V30 2254 H 220.683 -3.84844 0.933339 0
M  V30 2255 H 221.857 -2.85741 3.61509 0
M  V30 2256 H 220.172 -2.70433 3.16631 0
M  V30 2257 H 222.769 -5.06891 1.70192 0
M  V30 2258 H 223.112 -4.15527 0.253496 0
M  V30 2259 H 223.645 -3.53043 1.83318 0
M  V30 2260 H 220.384 -4.66036 4.60967 0
M  V30 2261 H 219.904 -5.2024 2.98513 0
M  V30 2262 H 221.583 -5.4157 3.53992 0
M  V30 2263 N 221.715 -0.905404 -1.28997 0
M  V30 2264 C 223.126 -0.581953 -1.77398 0
M  V30 2265 C 223.477 0.902552 -1.74208 0
M  V30 2266 O 222.602 1.70584 -1.33154 0
M  V30 2267 C 223.197 -1.04961 -3.22131 0
M  V30 2268 C 221.756 -0.777229 -3.68288 0
M  V30 2269 C 220.903 -1.22109 -2.48967 0
M  V30 2270 H 223.854 -1.08754 -1.15578 0
M  V30 2271 H 223.875 -0.387387 -3.78523 0
M  V30 2272 H 223.387 -2.13008 -3.24421 0
M  V30 2273 H 221.488 0.290383 -3.71467 0
M  V30 2274 H 221.601 -1.37911 -4.58822 0
M  V30 2275 H 219.965 -0.639971 -2.46529 0
M  V30 2276 H 220.748 -2.30972 -2.53982 0
M  V30 2277 N 223.193 1.4272 -0.668489 0
M  V30 2278 C 224.421 2.05966 -0.196348 0
M  V30 2279 C 224.836 1.50191 1.14403 0
M  V30 2280 O 224.193 0.639208 1.7094 0
M  V30 2281 C 224.244 3.61314 -0.115815 0
M  V30 2282 O 223.965 4.1502 -1.40322 0
M  V30 2283 C 225.466 4.41663 0.380579 0
M  V30 2284 H 222.686 0.663954 -0.0969829 0
M  V30 2285 H 225.23 1.82966 -0.913446 0
M  V30 2286 H 223.385 3.83448 0.551931 0
M  V30 2287 H 223.799 5.08832 -1.27243 0
M  V30 2288 H 225.273 5.5065 0.385848 0
M  V30 2289 H 225.75 4.15792 1.41471 0
M  V30 2290 H 226.356 4.24534 -0.255209 0
M  V30 2291 N 224.671 0.411399 1.52136 0
M  V30 2292 C 225.621 -0.430376 2.23901 0
M  V30 2293 C 226.605 -1.0116 1.25121 0
M  V30 2294 O 227.797 -0.934044 1.50348 0
M  V30 2295 C 224.926 -1.54527 3.06556 0
M  V30 2296 C 224.012 -0.9747 4.12747 0
M  V30 2297 N 224.403 -0.130991 5.0563 0
M  V30 2298 C 222.701 -1.24497 4.28271 0
M  V30 2299 C 223.402 0.186689 5.814 0
M  V30 2300 N 222.378 -0.42304 5.41951 0
M  V30 2301 H 226.18 0.220509 2.93072 0
M  V30 2302 H 223.694 0.221952 1.60876 0
M  V30 2303 H 225.691 -2.16093 3.56524 0
M  V30 2304 H 224.351 -2.19875 2.38925 0
M  V30 2305 H 225.362 0.23349 5.17373 0
M  V30 2306 H 222.039 -1.89787 3.7187 0
M  V30 2307 H 223.429 0.871673 6.66222 0
M  V30 2308 N 226.149 -1.5696 0.141893 0
M  V30 2309 C 227.374 -2.00754 -0.520838 0
M  V30 2310 C 227.799 -1.0213 -1.57959 0
M  V30 2311 O 227.157 0.00371324 -1.813 0
M  V30 2312 C 227.205 -3.43318 -1.10294 0
M  V30 2313 O 226.309 -3.47679 -2.21795 0
M  V30 2314 H 225.65 -0.651564 -0.127908 0
M  V30 2315 H 228.18 -2.03221 0.23712 0
M  V30 2316 H 228.19 -3.82012 -1.43287 0
M  V30 2317 H 226.865 -4.14608 -0.327574 0
M  V30 2318 H 225.442 -3.20824 -1.9007 0
M  V30 2319 N 227.627 0.131896 -1.57047 0
M  V30 2320 C 228.557 1.16384 -2.02428 0
M  V30 2321 C 229.538 1.43936 -0.90644 0
M  V30 2322 O 230.723 1.54599 -1.17528 0
M  V30 2323 C 227.853 2.49328 -2.4177 0
M  V30 2324 C 226.807 2.36266 -3.56879 0
M  V30 2325 C 226.133 3.74057 -3.8208 0
M  V30 2326 C 227.433 1.834 -4.89042 0
M  V30 2327 H 229.127 0.786433 -2.88887 0
M  V30 2328 H 226.673 0.376855 -1.38981 0
M  V30 2329 H 228.626 3.21759 -2.7212 0
M  V30 2330 H 227.35 2.88934 -1.52266 0
M  V30 2331 H 226.009 1.66286 -3.26718 0
M  V30 2332 H 225.657 4.11125 -2.89803 0
M  V30 2333 H 225.357 3.66174 -4.59554 0
M  V30 2334 H 226.881 4.48012 -4.1487 0
M  V30 2335 H 228.295 2.45636 -5.18011 0
M  V30 2336 H 226.692 1.8637 -5.70426 0
M  V30 2337 H 227.762 0.790662 -4.7841 0
M  V30 2338 N 229.106 1.52395 0.401703 0
M  V30 2339 C 230.016 1.7917 1.51444 0
M  V30 2340 C 231.032 0.677691 1.6026 0
M  V30 2341 O 232.208 0.963909 1.76835 0
M  V30 2342 C 229.273 1.94347 2.87107 0
M  V30 2343 C 228.334 3.18257 2.88116 0
M  V30 2344 C 227.567 3.32701 4.17308 0
M  V30 2345 O 227.79 2.52238 5.11598 0
M  V30 2346 O 226.724 4.25891 4.25324 0
M  V30 2347 H 230.55 2.73633 1.31752 0
M  V30 2348 H 228.135 1.3733 0.588296 0
M  V30 2349 H 230.017 2.06109 3.67555 0
M  V30 2350 H 228.692 1.03073 3.06851 0
M  V30 2351 H 227.599 3.11947 2.06494 0
M  V30 2352 H 228.932 4.09336 2.73322 0
M  V30 2353 N 230.584 -0.659388 1.43143 0
M  V30 2354 C 231.832 -1.41654 1.44147 0
M  V30 2355 C 232.153 -1.94893 0.0645739 0
M  V30 2356 O 231.423 -1.74044 -0.899198 0
M  V30 2357 H 230.003 -0.525708 0.530697 0
M  V30 2358 H 232.665 -0.778097 1.78694 0
M  V30 2359 H 231.761 -2.26195 2.1504 0
M  V30 2360 N 232.062 -1.29571 -0.897171 0
M  V30 2361 C 232.992 -1.17473 -2.01798 0
M  V30 2362 C 233.973 -0.068323 -1.69963 0
M  V30 2363 O 235.158 -0.248239 -1.92607 0
M  V30 2364 C 232.288 -0.853099 -3.36659 0
M  V30 2365 C 231.242 -1.9161 -3.82713 0
M  V30 2366 C 230.568 -1.44773 -5.14728 0
M  V30 2367 C 231.868 -3.32535 -4.02763 0
M  V30 2368 H 233.562 -2.11237 -2.12177 0
M  V30 2369 H 231.108 -1.01699 -1.01948 0
M  V30 2370 H 233.061 -0.755165 -4.14578 0
M  V30 2371 H 231.785 0.120236 -3.26379 0
M  V30 2372 H 230.444 -2.00346 -3.07013 0
M  V30 2373 H 230.092 -0.462995 -5.00865 0
M  V30 2374 H 229.792 -2.15865 -5.46513 0
M  V30 2375 H 231.316 -1.36334 -5.95185 0
M  V30 2376 H 232.73 -3.26626 -4.71156 0
M  V30 2377 H 231.127 -4.01607 -4.45905 0
M  V30 2378 H 232.197 -3.75326 -3.07016 0
M  V30 2379 N 233.54 1.10788 -1.12088 0
M  V30 2380 C 234.765 1.87002 -0.896949 0
M  V30 2381 C 235.19 1.79933 0.548261 0
M  V30 2382 O 234.548 1.16662 1.38779 0
M  V30 2383 C 234.596 3.3349 -1.37174 0
M  V30 2384 O 233.7 4.08745 -0.547831 0
M  V30 2385 H 233.041 0.580397 -0.322545 0
M  V30 2386 H 235.571 1.39996 -1.49206 0
M  V30 2387 H 235.581 3.84339 -1.36922 0
M  V30 2388 H 234.256 3.37951 -2.42408 0
M  V30 2389 H 232.833 3.6776 -0.617034 0
M  V30 2390 N 235.018 0.912232 1.28515 0
M  V30 2391 C 236.243 0.559774 1.99703 0
M  V30 2392 C 236.668 -0.851393 1.67729 0
M  V30 2393 O 236.026 -1.56875 0.908834 0
M  V30 2394 C 236.074 0.773874 3.52198 0
M  V30 2395 O 235.178 -0.167842 4.12058 0
M  V30 2396 H 234.519 0.21723 0.627461 0
M  V30 2397 H 237.049 1.22725 1.63706 0
M  V30 2398 H 237.059 0.683386 4.02236 0
M  V30 2399 H 235.734 1.80261 3.74805 0
M  V30 2400 H 234.311 -0.0287509 3.72889 0
M  V30 2401 N 236.496 -1.42363 0.676048 0
M  V30 2402 C 237.721 -2.06377 0.205705 0
M  V30 2403 C 238.146 -1.50463 -1.12883 0
M  V30 2404 O 237.504 -0.623619 -1.70237 0
M  V30 2405 C 237.552 -3.60277 0.152655 0
M  V30 2406 O 236.656 -4.02935 -0.87845 0
M  V30 2407 H 235.997 -0.655588 0.105359 0
M  V30 2408 H 238.527 -1.82475 0.925412 0
M  V30 2409 H 238.537 -4.07993 -0.0230675 0
M  V30 2410 H 237.212 -4.00346 1.12675 0
M  V30 2411 H 235.789 -3.66764 -0.673668 0
M  V30 2412 N 237.974 -0.419461 -1.51915 0
M  V30 2413 C 239.222 0.152637 -2.01523 0
M  V30 2414 C 239.543 1.44762 -1.30649 0
M  V30 2415 O 238.813 1.90997 -0.435535 0
M  V30 2416 H 237.393 0.0593966 -0.744635 0
M  V30 2417 H 240.055 -0.558073 -1.86739 0
M  V30 2418 H 239.151 0.341369 -3.10227 0
M  V30 2419 N 239.452 1.56882 -0.150215 0
M  V30 2420 C 240.729 1.87844 0.545327 0
M  V30 2421 C 241.109 1.0567 1.82749 0
M  V30 2422 O 240.457 0.144442 2.28043 0
M  V30 2423 C 240.667 3.39526 0.80767 0
M  V30 2424 C 242.015 4.08814 1.14703 0
M  V30 2425 O 243.039 3.44723 0.896917 0
M  V30 2426 O 241.898 5.22004 1.61784 0
M  V30 2427 H 238.992 0.778677 0.278553 0
M  V30 2428 H 241.538 1.68666 -0.187068 0
M  V30 2429 H 240.31 3.91173 -0.0996096 0
M  V30 2430 H 239.933 3.64243 1.59413 0
M  V30 2431 N 240.93 -0.123565 1.57115 0
M  V30 2432 C 241.893 -1.13583 1.99076 0
M  V30 2433 C 242.893 -1.34564 0.880296 0
M  V30 2434 O 244.083 -1.31158 1.14644 0
M  V30 2435 C 241.215 -2.49128 2.32698 0
M  V30 2436 H 242.408 -0.775287 2.89706 0
M  V30 2437 H 239.961 -0.36771 1.51913 0
M  V30 2438 H 240.696 -2.90111 1.44934 0
M  V30 2439 H 240.481 -2.35255 3.13684 0
M  V30 2440 H 241.971 -3.2199 2.65918 0
M  V30 2441 N 242.408 -1.52605 -0.393616 0
M  V30 2442 C 243.654 -1.67672 -1.14079 0
M  V30 2443 C 243.987 -0.413121 -1.89755 0
M  V30 2444 O 243.262 0.588952 -1.85369 0
M  V30 2445 C 243.545 -2.9088 -2.12276 0
M  V30 2446 C 243.398 -4.27329 -1.40394 0
M  V30 2447 C 244.717 -3.09628 -3.12759 0
M  V30 2448 H 241.836 -0.610168 -0.413356 0
M  V30 2449 H 244.478 -1.85193 -0.424696 0
M  V30 2450 H 242.628 -2.76073 -2.73342 0
M  V30 2451 H 244.3 -4.53894 -0.82327 0
M  V30 2452 H 242.543 -4.2802 -0.705801 0
M  V30 2453 H 243.214 -5.09615 -2.12123 0
M  V30 2454 H 245.69 -3.23436 -2.61779 0
M  V30 2455 H 244.566 -3.97322 -3.78717 0
M  V30 2456 H 244.827 -2.23637 -3.81365 0
M  V30 2457 N 243.887 0.651787 -1.4349 0
M  V30 2458 C 245.303 0.96762 -1.26922 0
M  V30 2459 C 245.503 2.00602 -0.189982 0
M  V30 2460 O 244.559 2.48793 0.431107 0
M  V30 2461 C 245.872 1.45052 -2.63401 0
M  V30 2462 C 247.42 1.5671 -2.70945 0
M  V30 2463 C 247.895 2.0839 -4.07845 0
M  V30 2464 N 249.386 2.1569 -4.09917 0
M  V30 2465 C 250.121 2.56804 -5.12679 0
M  V30 2466 N 249.617 2.97203 -6.25813 0
M  V30 2467 N 251.41 2.56756 -5.00033 0
M  V30 2468 H 243.561 -0.0353158 -2.12371 0
M  V30 2469 H 245.824 0.0467858 -0.946845 0
M  V30 2470 H 245.53 0.761926 -3.43348 0
M  V30 2471 H 245.404 2.42529 -2.88894 0
M  V30 2472 H 247.791 2.2467 -1.9133 0
M  V30 2473 H 247.872 0.57662 -2.49216 0
M  V30 2474 H 247.516 1.41031 -4.87927 0
M  V30 2475 H 247.446 3.08271 -4.26938 0
M  V30 2476 H 249.937 1.87237 -3.28254 0
M  V30 2477 H 250.25 3.27328 -7.00055 0
M  V30 2478 H 248.595 2.95004 -6.29283 0
M  V30 2479 H 251.786 2.24572 -4.10713 0
M  V30 2480 H 251.959 2.88475 -5.80247 0
M  V30 2481 N 245.365 1.30045 0.890287 0
M  V30 2482 C 246.612 1.18561 1.64163 0
M  V30 2483 C 246.94 -0.260852 1.92743 0
M  V30 2484 O 246.195 -1.20376 1.54299 0
M  V30 2485 C 246.494 1.95409 2.99249 0
M  V30 2486 C 246.16 3.45066 2.90242 0
M  V30 2487 C 244.822 3.85878 2.87492 0
M  V30 2488 C 247.174 4.4039 2.78758 0
M  V30 2489 C 244.502 5.20314 2.7109 0
M  V30 2490 C 246.854 5.74928 2.63894 0
M  V30 2491 C 245.518 6.14986 2.59516 0
M  V30 2492 H 244.788 0.433846 0.600715 0
M  V30 2493 H 247.435 1.61088 1.03552 0
M  V30 2494 H 245.74 1.45501 3.63781 0
M  V30 2495 H 247.437 1.8392 3.56334 0
M  V30 2496 H 244.027 3.12631 2.93189 0
M  V30 2497 H 248.211 4.09806 2.79952 0
M  V30 2498 H 243.467 5.50449 2.66112 0
M  V30 2499 H 247.641 6.48434 2.53981 0
M  V30 2500 H 245.268 7.19104 2.46565 0
M  V30 2501 N 246.843 -1.10192 1.12674 0
M  V30 2502 C 248.091 -1.81845 0.881861 0
M  V30 2503 C 248.412 -1.85737 -0.593867 0
M  V30 2504 O 247.682 -1.33724 -1.4316 0
M  V30 2505 H 246.262 -0.673432 0.323261 0
M  V30 2506 H 248.924 -1.33316 1.42172 0
M  V30 2507 H 248.02 -2.85288 1.2656 0
M  V30 2508 N 248.321 -0.919034 -1.28029 0
M  V30 2509 C 249.732 -0.600735 -1.76771 0
M  V30 2510 C 250.083 0.884024 -1.75156 0
M  V30 2511 O 249.208 1.69163 -1.34956 0
M  V30 2512 C 249.803 -1.08372 -3.21 0
M  V30 2513 C 248.362 -0.816248 -3.67443 0
M  V30 2514 C 247.509 -1.24742 -2.47658 0
M  V30 2515 H 250.46 -1.09974 -1.14418 0
M  V30 2516 H 250.481 -0.427512 -3.78091 0
M  V30 2517 H 249.993 -2.16437 -3.22144 0
M  V30 2518 H 248.094 0.250968 -3.71754 0
M  V30 2519 H 248.207 -1.4277 -4.57333 0
M  V30 2520 H 246.571 -0.666083 -2.45836 0
M  V30 2521 H 247.354 -2.33653 -2.51518 0
M  V30 2522 N 249.799 1.42003 -0.683588 0
M  V30 2523 C 251.045 2.01712 -0.209825 0
M  V30 2524 C 251.378 1.53968 1.18353 0
M  V30 2525 O 250.653 0.745661 1.79639 0
M  V30 2526 C 250.936 3.59202 -0.254197 0
M  V30 2527 C 250.789 4.17102 -1.68363 0
M  V30 2528 C 252.108 4.38344 0.392709 0
M  V30 2529 H 249.227 0.732891 -0.0777189 0
M  V30 2530 H 251.869 1.68909 -0.87004 0
M  V30 2531 H 250.019 3.87278 0.307954 0
M  V30 2532 H 251.691 3.99946 -2.29871 0
M  V30 2533 H 249.934 3.72597 -2.22157 0
M  V30 2534 H 250.605 5.26249 -1.6663 0
M  V30 2535 H 253.081 4.16011 -0.0859162 0
M  V30 2536 H 251.957 5.47901 0.331063 0
M  V30 2537 H 252.218 4.16887 1.47164 0
M  V30 2538 N 251.277 0.427512 1.51691 0
M  V30 2539 C 252.187 -0.39527 2.31246 0
M  V30 2540 C 253.203 -1.03674 1.39742 0
M  V30 2541 O 254.379 -1.03425 1.72816 0
M  V30 2542 C 251.444 -1.48706 3.13189 0
M  V30 2543 C 250.505 -0.866743 4.20459 0
M  V30 2544 C 249.738 -1.90651 4.98486 0
M  V30 2545 O 249.961 -3.12733 4.77026 0
M  V30 2546 O 248.895 -1.5025 5.82845 0
M  V30 2547 H 252.721 0.253918 3.02637 0
M  V30 2548 H 250.306 0.190274 1.48183 0
M  V30 2549 H 252.188 -2.12047 3.64162 0
M  V30 2550 H 250.863 -2.12051 2.44573 0
M  V30 2551 H 249.77 -0.195544 3.73589 0
M  V30 2552 H 251.103 -0.276934 4.9142 0
M  V30 2553 N 252.755 -1.56801 0.158532 0
M  V30 2554 C 253.685 -2.20347 -0.772609 0
M  V30 2555 C 254.666 -1.15518 -1.24859 0
M  V30 2556 O 255.851 -1.43902 -1.30406 0
M  V30 2557 C 252.981 -2.83417 -2.00729 0
M  V30 2558 C 251.935 -3.94174 -1.66765 0
M  V30 2559 C 251.261 -4.44233 -2.97592 0
M  V30 2560 C 252.561 -5.14392 -0.905447 0
M  V30 2561 H 254.255 -2.98413 -0.242959 0
M  V30 2562 H 251.801 -1.43537 -0.115419 0
M  V30 2563 H 253.754 -3.26543 -2.6636 0
M  V30 2564 H 252.478 -2.02701 -2.56086 0
M  V30 2565 H 251.137 -3.51684 -1.03508 0
M  V30 2566 H 250.785 -3.60325 -3.50963 0
M  V30 2567 H 250.485 -5.18945 -2.75626 0
M  V30 2568 H 252.009 -4.90037 -3.64274 0
M  V30 2569 H 253.423 -5.5429 -1.46408 0
M  V30 2570 H 251.82 -5.9494 -0.7853 0
M  V30 2571 H 252.89 -4.84795 0.100668 0
M  V30 2572 N 254.233 0.115231 -1.57178 0
M  V30 2573 C 255.48 0.822351 -1.8505 0
M  V30 2574 C 255.808 1.79701 -0.744168 0
M  V30 2575 O 255.063 1.93909 0.26414 0
M  V30 2576 C 255.362 1.60324 -3.19423 0
M  V30 2577 C 255.028 0.772536 -4.44233 0
M  V30 2578 C 253.69 0.543468 -4.78121 0
M  V30 2579 C 256.042 0.193746 -5.2084 0
M  V30 2580 C 253.37 -0.274583 -5.86057 0
M  V30 2581 C 255.722 -0.611517 -6.29637 0
M  V30 2582 C 254.386 -0.850867 -6.62055 0
M  V30 2583 H 253.656 0.30092 -0.677147 0
M  V30 2584 H 256.303 0.0845802 -1.91313 0
M  V30 2585 H 254.608 2.41203 -3.08753 0
M  V30 2586 H 256.305 2.1544 -3.38211 0
M  V30 2587 H 252.895 0.96117 -4.17683 0
M  V30 2588 H 257.079 0.357926 -4.95008 0
M  V30 2589 H 252.335 -0.469206 -6.09597 0
M  V30 2590 H 256.509 -1.06697 -6.88178 0
M  V30 2591 H 254.136 -1.48657 -7.45523 0
M  V30 2592 N 255.711 1.52812 0.385517 0
M  V30 2593 C 256.941 1.71658 1.14966 0
M  V30 2594 C 257.349 0.436253 1.84102 0
M  V30 2595 O 256.692 -0.599313 1.73649 0
M  V30 2596 C 256.754 2.81309 2.23843 0
M  V30 2597 C 256.418 4.22313 1.74644 0
M  V30 2598 C 257.415 5.05352 1.22129 0
M  V30 2599 C 255.1 4.68648 1.80761 0
M  V30 2600 C 257.094 6.32807 0.763838 0
M  V30 2601 C 254.781 5.96086 1.34627 0
M  V30 2602 C 255.779 6.77996 0.825264 0
M  V30 2603 O 255.467 8.03045 0.370669 0
M  V30 2604 H 255.199 0.578022 0.350523 0
M  V30 2605 H 257.753 2.00263 0.456509 0
M  V30 2606 H 255.983 2.48133 2.96592 0
M  V30 2607 H 257.672 2.88524 2.85497 0
M  V30 2608 H 258.438 4.70736 1.16758 0
M  V30 2609 H 254.317 4.04979 2.20256 0
M  V30 2610 H 257.861 6.96689 0.356494 0
M  V30 2611 H 253.758 6.30205 1.39686 0
M  V30 2612 H 254.526 8.17021 0.491829 0
M  V30 2613 N 257.189 -0.644168 1.43834 0
M  V30 2614 C 258.6 -1.22554 1.40845 0
M  V30 2615 C 258.951 -1.9585 0.117115 0
M  V30 2616 O 258.076 -2.01734 -0.783086 0
M  V30 2617 C 258.671 -2.22907 2.55143 0
M  V30 2618 C 257.23 -2.76501 2.5539 0
M  V30 2619 C 256.377 -1.51287 2.32396 0
M  V30 2620 H 259.328 -0.43563 1.52604 0
M  V30 2621 H 259.349 -3.05259 2.2715 0
M  V30 2622 H 258.861 -1.69533 3.49114 0
M  V30 2623 H 256.962 -3.33914 1.65324 0
M  V30 2624 H 257.075 -3.23429 3.53455 0
M  V30 2625 H 255.439 -1.78957 1.81236 0
M  V30 2626 H 256.222 -0.998336 3.28463 0
M  V30 2627 N 258.668 -1.30515 -0.883378 0
M  V30 2628 C 259.916 -1.19194 -1.63209 0
M  V30 2629 C 260.237 0.253205 -1.93349 0
M  V30 2630 O 259.507 1.17025 -1.57105 0
M  V30 2631 H 258.087 -0.438148 -0.605009 0
M  V30 2632 H 260.749 -1.63663 -1.05832 0
M  V30 2633 H 259.845 -1.75396 -2.58153 0
M  V30 2634 N 260.146 1.09593 -1.13257 0
M  V30 2635 C 261.109 2.14359 -0.811358 0
M  V30 2636 C 262.109 1.59808 0.178377 0
M  V30 2637 O 263.299 1.74132 -0.0484911 0
M  V30 2638 C 260.431 3.40269 -0.207276 0
M  V30 2639 H 261.624 2.44284 -1.73969 0
M  V30 2640 H 259.177 1.25102 -0.936973 0
M  V30 2641 H 259.912 3.15969 0.73036 0
M  V30 2642 H 259.697 3.81154 -0.919992 0
M  V30 2643 H 261.187 4.176 0.000667944 0
M  V30 2644 N 261.624 0.925811 1.2754 0
M  V30 2645 C 262.587 0.428129 2.25166 0
M  V30 2646 C 263.587 -0.452261 1.54309 0
M  V30 2647 O 264.777 -0.253608 1.72344 0
M  V30 2648 C 261.909 -0.384749 3.38722 0
M  V30 2649 H 263.102 1.29066 2.70706 0
M  V30 2650 H 260.655 0.706323 1.3943 0
M  V30 2651 H 261.39 -1.26618 2.98561 0
M  V30 2652 H 261.175 0.246454 3.91325 0
M  V30 2653 H 262.665 -0.723389 4.11287 0
M  V30 2654 N 263.102 -1.41638 0.69111 0
M  V30 2655 C 264.052 -2.28 -0.000107832 0
M  V30 2656 C 265.036 -1.41964 -0.757304 0
M  V30 2657 O 266.228 -1.65274 -0.633532 0
M  V30 2658 C 263.357 -3.30209 -0.938983 0
M  V30 2659 C 262.443 -4.23725 -0.17827 0
M  V30 2660 N 262.834 -4.99017 0.825563 0
M  V30 2661 C 261.132 -4.44071 -0.414392 0
M  V30 2662 C 261.833 -5.67431 1.28052 0
M  V30 2663 N 260.809 -5.40197 0.607304 0
M  V30 2664 H 264.611 -2.83644 0.769617 0
M  V30 2665 H 262.125 -1.53797 0.521562 0
M  V30 2666 H 264.122 -3.90898 -1.44929 0
M  V30 2667 H 262.782 -2.76126 -1.70836 0
M  V30 2668 H 263.793 -5.03671 1.20566 0
M  V30 2669 H 260.47 -4.01004 -1.162 0
M  V30 2670 H 261.86 -6.37801 2.11327 0
M  V30 2671 N 264.58 -0.43555 -1.51462 0
M  V30 2672 C 265.805 0.132627 -2.06976 0
M  V30 2673 C 266.23 1.35848 -1.30104 0
M  V30 2674 O 265.588 1.78112 -0.338493 0
M  V30 2675 C 265.636 0.43523 -3.57964 0
M  V30 2676 O 264.74 1.52198 -3.83288 0
M  V30 2677 H 264.081 0.00265 -0.663995 0
M  V30 2678 H 266.611 -0.616369 -1.95095 0
M  V30 2679 H 266.621 0.686206 -4.02188 0
M  V30 2680 H 265.296 -0.460739 -4.1334 0
M  V30 2681 H 263.873 1.2611 -3.50928 0
M  V30 2682 N 266.058 1.56714 -0.166846 0
M  V30 2683 C 267.286 2.0112 0.485644 0
M  V30 2684 C 267.701 1.04705 1.57106 0
M  V30 2685 O 267.058 0.0471923 1.82439 0
M  V30 2686 C 267.109 3.45361 1.06808 0
M  V30 2687 O 266.83 4.38092 0.0259995 0
M  V30 2688 C 268.331 4.05145 1.79924 0
M  V30 2689 H 265.551 0.65931 0.124704 0
M  V30 2690 H 268.095 2.02746 -0.267262 0
M  V30 2691 H 266.25 3.44524 1.7715 0
M  V30 2692 H 266.664 5.22519 0.455398 0
M  V30 2693 H 268.138 5.08009 2.15942 0
M  V30 2694 H 268.615 3.46982 2.69258 0
M  V30 2695 H 269.221 4.09672 1.14234 0
M  V30 2696 N 267.536 -0.106894 1.57237 0
M  V30 2697 C 268.813 -0.843526 1.76477 0
M  V30 2698 C 269.193 -1.97499 0.745464 0
M  V30 2699 O 268.541 -2.27357 -0.228306 0
M  V30 2700 C 268.751 -1.34903 3.21873 0
M  V30 2701 C 270.099 -1.79654 3.8472 0
M  V30 2702 O 271.123 -1.44554 3.2555 0
M  V30 2703 O 269.982 -2.44515 4.88748 0
M  V30 2704 H 267.076 -0.401468 0.723016 0
M  V30 2705 H 269.622 -0.0896927 1.69463 0
M  V30 2706 H 268.394 -0.53781 3.87586 0
M  V30 2707 H 268.017 -2.16522 3.33473 0
M  V30 2708 N 269.014 -1.53014 -0.377408 0
M  V30 2709 C 269.962 -1.7927 -1.48206 0
M  V30 2710 C 270.956 -0.661195 -1.55963 0
M  V30 2711 O 272.162 -0.843908 -1.58991 0
M  V30 2712 H 268.537 -0.567425 -0.493491 0
M  V30 2713 H 270.508 -2.71753 -1.2326 0
M  V30 2714 C 269.257 -1.98894 -2.85196 0
M  V30 2715 H 268.58 -2.85395 -2.79981 0
M  V30 2716 H 270.02 -2.21249 -3.61698 0
M  V30 2717 C 268.479 -0.764691 -3.28107 0
M  V30 2718 O 269.009 0.0523226 -4.01666 0
M  V30 2719 N 267.215 -0.591493 -2.84517 0
M  V30 2720 H 266.762 -1.25749 -2.24822 0
M  V30 2721 H 266.72 0.226253 -3.13585 0
M  V30 2722 N 270.492 0.636531 -1.44174 0
M  V30 2723 C 271.422 1.76003 -1.53444 0
M  V30 2724 C 272.403 1.65619 -0.387841 0
M  V30 2725 O 273.588 1.84461 -0.607257 0
M  V30 2726 C 270.718 3.14511 -1.4731 0
M  V30 2727 C 269.672 3.39677 -2.60391 0
M  V30 2728 C 268.998 4.78159 -2.39308 0
M  V30 2729 C 270.298 3.32772 -4.02567 0
M  V30 2730 H 271.992 1.68501 -2.47483 0
M  V30 2731 H 269.538 0.809237 -1.19111 0
M  V30 2732 H 271.491 3.92878 -1.52397 0
M  V30 2733 H 270.215 3.22783 -0.49785 0
M  V30 2734 H 268.874 2.63688 -2.54684 0
M  V30 2735 H 268.522 4.83128 -1.39988 0
M  V30 2736 H 268.222 4.95956 -3.15122 0
M  V30 2737 H 269.746 5.58762 -2.46205 0
M  V30 2738 H 271.16 4.01051 -4.09672 0
M  V30 2739 H 269.557 3.62104 -4.7854 0
M  V30 2740 H 270.627 2.30669 -4.2652 0
M  V30 2741 N 271.97 1.30982 0.876444 0
M  V30 2742 C 273.216 1.20474 1.63138 0
M  V30 2743 C 273.549 -0.238096 1.92735 0
M  V30 2744 O 272.824 -1.1692 1.55435 0
M  V30 2745 C 273.107 2.04244 2.96574 0
M  V30 2746 C 272.96 3.56793 2.73896 0
M  V30 2747 C 274.279 1.88684 3.97601 0
M  V30 2748 H 271.398 0.439001 0.591985 0
M  V30 2749 H 274.04 1.60704 1.01361 0
M  V30 2750 H 272.19 1.70063 3.493 0
M  V30 2751 H 273.862 4.01077 2.27892 0
M  V30 2752 H 272.105 3.80548 2.08245 0
M  V30 2753 H 272.776 4.10706 3.68815 0
M  V30 2754 H 275.252 2.18584 3.54062 0
M  V30 2755 H 274.128 2.4961 4.88862 0
M  V30 2756 H 274.389 0.848343 4.33884 0
M  V30 2757 N 273.449 -1.08991 1.13837 0
M  V30 2758 C 274.695 -1.81526 0.90422 0
M  V30 2759 C 275.028 -1.85706 -0.568066 0
M  V30 2760 O 274.303 -1.32855 -1.42056 0
M  V30 2761 C 274.586 -3.27447 1.49835 0
M  V30 2762 C 274.439 -3.31512 3.04006 0
M  V30 2763 C 275.758 -4.24256 1.17025 0
M  V30 2764 H 272.877 -0.659029 0.329923 0
M  V30 2765 H 275.519 -1.27644 1.40737 0
M  V30 2766 H 273.669 -3.73462 1.07044 0
M  V30 2767 H 275.341 -2.93867 3.55584 0
M  V30 2768 H 273.584 -2.70963 3.38765 0
M  V30 2769 H 274.255 -4.34329 3.40679 0
M  V30 2770 H 276.731 -3.86549 1.54009 0
M  V30 2771 H 275.607 -5.24684 1.61237 0
M  V30 2772 H 275.868 -4.42019 0.0846274 0
M  V30 2773 N 274.927 -0.932562 -1.27047 0
M  V30 2774 C 276.157 -0.591173 -1.97961 0
M  V30 2775 C 276.565 0.836219 -1.69717 0
M  V30 2776 O 275.908 1.56801 -0.957036 0
M  V30 2777 C 275.97 -0.743082 -3.51736 0
M  V30 2778 C 275.634 -2.1435 -4.03613 0
M  V30 2779 C 276.631 -3.11815 -4.16014 0
M  V30 2780 C 274.316 -2.46175 -4.37839 0
M  V30 2781 C 276.31 -4.39211 -4.61923 0
M  V30 2782 C 273.997 -3.73806 -4.83438 0
M  V30 2783 C 274.995 -4.70137 -4.95439 0
M  V30 2784 O 274.683 -5.95496 -5.40037 0
M  V30 2785 H 274.415 -0.222375 -0.638377 0
M  V30 2786 H 276.969 -1.25317 -1.62742 0
M  V30 2787 H 275.199 -0.0239739 -3.86693 0
M  V30 2788 H 276.888 -0.40603 -4.03864 0
M  V30 2789 H 277.654 -2.88549 -3.89826 0
M  V30 2790 H 273.533 -1.71936 -4.27737 0
M  V30 2791 H 277.077 -5.14404 -4.71205 0
M  V30 2792 H 272.974 -3.96888 -5.09068 0
M  V30 2793 H 273.742 -5.98554 -5.58279 0
M  V30 2794 N 276.405 1.4127 -0.698611 0
M  V30 2795 C 277.651 2.01478 -0.231207 0
M  V30 2796 C 277.984 1.55215 1.16713 0
M  V30 2797 O 277.259 0.764672 1.78838 0
M  V30 2798 C 277.542 3.58912 -0.292281 0
M  V30 2799 C 277.395 4.15293 -1.72778 0
M  V30 2800 C 278.714 4.38736 0.346194 0
M  V30 2801 H 275.833 0.732025 -0.0854878 0
M  V30 2802 H 278.475 1.67977 -0.887906 0
M  V30 2803 H 276.625 3.87582 0.26686 0
M  V30 2804 H 278.297 3.97486 -2.341 0
M  V30 2805 H 276.54 3.7022 -2.26096 0
M  V30 2806 H 277.211 5.24452 -1.72202 0
M  V30 2807 H 279.687 4.15897 -0.130035 0
M  V30 2808 H 278.563 5.48221 0.272932 0
M  V30 2809 H 278.824 4.18425 1.42734 0
M  V30 2810 N 277.883 0.443576 1.51229 0
M  V30 2811 C 279.294 -0.0180867 1.86691 0
M  V30 2812 C 279.645 -1.41384 1.36033 0
M  V30 2813 O 278.77 -2.04291 0.713722 0
M  V30 2814 C 279.365 -0.039597 3.38777 0
M  V30 2815 C 277.924 -0.445692 3.73752 0
M  V30 2816 C 277.071 0.357584 2.74985 0
M  V30 2817 H 280.022 0.659138 1.44364 0
M  V30 2818 H 280.043 -0.847761 3.70936 0
M  V30 2819 H 279.555 0.976382 3.75617 0
M  V30 2820 H 277.656 -1.46704 3.42503 0
M  V30 2821 H 277.769 -0.166155 4.78812 0
M  V30 2822 H 276.133 -0.184973 2.54027 0
M  V30 2823 H 276.916 1.37256 3.14668 0
M  V30 2824 N 279.361 -1.56624 0.175154 0
M  V30 2825 C 280.586 -2.01813 -0.478137 0
M  V30 2826 C 281.011 -1.05457 -1.55757 0
M  V30 2827 O 280.369 -0.0347439 -1.81267 0
M  V30 2828 C 280.417 -3.45581 -1.02987 0
M  V30 2829 O 279.521 -3.52305 -2.14371 0
M  V30 2830 H 278.862 -0.65413 -0.114059 0
M  V30 2831 H 281.392 -2.02673 0.280173 0
M  V30 2832 H 281.402 -3.84965 -1.35151 0
M  V30 2833 H 280.077 -4.1521 -0.239556 0
M  V30 2834 H 278.654 -3.24783 -1.83222 0
M  V30 2835 N 280.839 0.0985539 -1.57292 0
M  V30 2836 C 281.802 1.10402 -2.00858 0
M  V30 2837 C 282.802 1.33146 -0.901593 0
M  V30 2838 O 283.992 1.29318 -1.16716 0
M  V30 2839 C 281.124 2.45394 -2.36632 0
M  V30 2840 H 282.317 0.729099 -2.90902 0
M  V30 2841 H 279.87 0.343495 -1.52479 0
M  V30 2842 H 280.605 2.87769 -1.49531 0
M  V30 2843 H 280.39 2.30235 -3.17387 0
M  V30 2844 H 281.88 3.17718 -2.71007 0
M  V30 2845 N 282.317 1.53212 0.369288 0
M  V30 2846 C 283.542 1.73423 1.1375 0
M  V30 2847 C 283.967 0.460404 1.82378 0
M  V30 2848 O 283.325 -0.585298 1.71592 0
M  V30 2849 C 283.373 2.89769 2.1463 0
M  V30 2850 O 282.477 2.58119 3.21634 0
M  V30 2851 H 281.818 0.576061 0.330227 0
M  V30 2852 H 284.348 2.00083 0.427547 0
M  V30 2853 H 284.358 3.15829 2.58294 0
M  V30 2854 H 283.033 3.8217 1.64071 0
M  V30 2855 H 281.61 2.42864 2.82969 0
M  V30 2856 N 283.795 -0.628877 1.44509 0
M  V30 2857 C 285.041 -1.39045 1.47629 0
M  V30 2858 C 285.374 -1.93892 0.109343 0
M  V30 2859 O 284.649 -1.7379 -0.87334 0
M  V30 2860 C 284.932 -2.55408 2.53848 0
M  V30 2861 C 284.785 -2.05896 3.99909 0
M  V30 2862 C 286.104 -3.5759 2.56549 0
M  V30 2863 H 283.223 -0.504232 0.537512 0
M  V30 2864 H 285.865 -0.710854 1.76201 0
M  V30 2865 H 284.015 -3.13384 2.29615 0
M  V30 2866 H 285.687 -1.52734 4.35282 0
M  V30 2867 H 283.93 -1.37061 4.11578 0
M  V30 2868 H 284.601 -2.89681 4.69882 0
M  V30 2869 H 287.077 -3.09419 2.78207 0
M  V30 2870 H 285.953 -4.36527 3.32769 0
M  V30 2871 H 286.214 -4.11808 1.60832 0
M  V30 2872 N 285.273 -1.31445 -0.869486 0
M  V30 2873 C 286.203 -1.21727 -1.99261 0
M  V30 2874 C 287.184 -0.104359 -1.6978 0
M  V30 2875 O 288.369 -0.289038 -1.92037 0
M  V30 2876 C 285.499 -0.924317 -3.34774 0
M  V30 2877 C 284.453 -1.99685 -3.78563 0
M  V30 2878 C 283.779 -1.55658 -5.11541 0
M  V30 2879 C 285.079 -3.41003 -3.95619 0
M  V30 2880 H 286.773 -2.1569 -2.07649 0
M  V30 2881 H 284.319 -1.03839 -0.997675 0
M  V30 2882 H 286.272 -0.842934 -4.12883 0
M  V30 2883 H 284.996 0.0509793 -3.2656 0
M  V30 2884 H 283.655 -2.06813 -3.02694 0
M  V30 2885 H 283.303 -0.569132 -4.9977 0
M  V30 2886 H 283.003 -2.27409 -5.41811 0
M  V30 2887 H 284.527 -1.48928 -5.92159 0
M  V30 2888 H 285.941 -3.36547 -4.64122 0
M  V30 2889 H 284.338 -4.10975 -4.37286 0
M  V30 2890 H 285.408 -3.81754 -2.98985 0
M  V30 2891 N 286.751 1.08385 -1.14413 0
M  V30 2892 C 287.981 1.8425 -0.934644 0
M  V30 2893 C 288.389 1.81907 0.520234 0
M  V30 2894 O 287.732 1.22126 1.37226 0
M  V30 2895 C 287.794 3.32853 -1.35828 0
M  V30 2896 C 287.458 3.5893 -2.82875 0
M  V30 2897 C 288.455 3.53756 -3.80989 0
M  V30 2898 C 286.14 3.86934 -3.20293 0
M  V30 2899 C 288.134 3.76216 -5.14529 0
M  V30 2900 C 285.821 4.09047 -4.54008 0
M  V30 2901 C 286.819 4.03682 -5.50936 0
M  V30 2902 O 286.507 4.25214 -6.82238 0
M  V30 2903 H 286.239 0.588502 -0.332628 0
M  V30 2904 H 288.793 1.37792 -1.52324 0
M  V30 2905 H 287.023 3.8007 -0.713019 0
M  V30 2906 H 288.712 3.90154 -1.11957 0
M  V30 2907 H 289.478 3.32135 -3.53428 0
M  V30 2908 H 285.357 3.9023 -2.45442 0
M  V30 2909 H 288.901 3.71943 -5.90173 0
M  V30 2910 H 284.798 4.30151 -4.8129 0
M  V30 2911 H 285.566 4.42619 -6.88499 0
M  V30 2912 N 288.23 0.939286 1.26551 0
M  V30 2913 C 289.478 0.58469 1.93457 0
M  V30 2914 C 289.799 -0.878774 1.74076 0
M  V30 2915 O 289.069 -1.62421 1.09528 0
M  V30 2916 H 287.649 0.21325 0.715914 0
M  V30 2917 H 290.311 1.1942 1.54029 0
M  V30 2918 H 289.407 0.800849 3.0165 0
M  V30 2919 N 289.708 -1.40897 0.706093 0
M  V30 2920 C 290.956 -2.00657 0.241054 0
M  V30 2921 C 291.277 -1.56241 -1.16678 0
M  V30 2922 O 290.547 -0.79765 -1.78926 0
M  V30 2923 H 289.127 -0.742018 0.0861308 0
M  V30 2924 H 291.789 -1.72372 0.909604 0
M  V30 2925 H 290.885 -3.10958 0.266705 0
M  V30 2926 N 291.186 -0.45159 -1.50991 0
M  V30 2927 C 292.426 0.109066 -2.04109 0
M  V30 2928 C 292.79 1.38716 -1.32747 0
M  V30 2929 O 293.991 2.02896 -1.76314 0
M  V30 2930 C 292.262 0.308354 -3.56067 0
M  V30 2931 S 293.821 0.830369 -4.30872 0
M  V30 2932 H 290.639 0.0251531 -0.710555 0
M  V30 2933 H 293.241 -0.614264 -1.85599 0
M  V30 2934 H 291.945 -0.627962 -4.05567 0
M  V30 2935 H 291.476 1.05836 -3.78896 0
M  V30 2936 H 293.491 2.10626 -4.49279 0
M  V30 2937 N 292.664 1.56529 -0.183458 0
M  V30 2938 C 293.627 2.17324 0.728223 0
M  V30 2939 C 294.627 1.12453 1.14939 0
M  V30 2940 O 295.817 1.37902 1.06437 0
M  V30 2941 C 292.949 2.76591 1.99274 0
M  V30 2942 H 294.142 2.99241 0.198772 0
M  V30 2943 H 291.695 1.5616 0.0661391 0
M  V30 2944 H 292.43 1.98441 2.56499 0
M  V30 2945 H 292.215 3.5335 1.69959 0
M  V30 2946 H 293.705 3.23311 2.6431 0
M  V30 2947 N 294.142 -0.090211 1.57342 0
M  V30 2948 C 295.391 -0.791531 1.8552 0
M  V30 2949 C 295.704 -1.79659 0.773441 0
M  V30 2950 O 296.91 -2.54616 0.942497 0
M  V30 2951 C 295.366 -1.45856 3.2902 0
M  V30 2952 C 294.974 -0.493017 4.45279 0
M  V30 2953 C 296.718 -2.14332 3.66418 0
M  V30 2954 C 294.625 -1.16491 5.79814 0
M  V30 2955 H 293.555 -0.299356 0.692027 0
M  V30 2956 H 296.206 -0.0445343 1.83446 0
M  V30 2957 H 294.588 -2.25318 3.2565 0
M  V30 2958 H 295.762 0.270464 4.60006 0
M  V30 2959 H 294.077 0.0863061 4.16311 0
M  V30 2960 H 296.674 -2.65344 4.64216 0
M  V30 2961 H 297.017 -2.93447 2.95287 0
M  V30 2962 H 297.55 -1.41724 3.71698 0
M  V30 2963 H 294.289 -0.41447 6.54188 0
M  V30 2964 H 293.809 -1.8997 5.68921 0
M  V30 2965 H 295.488 -1.69001 6.24538 0
M  V30 2966 N 295.62 -1.53406 -0.361157 0
M  V30 2967 C 296.85 -1.73465 -1.1222 0
M  V30 2968 C 297.258 -0.465486 -1.83384 0
M  V30 2969 O 296.601 0.571611 -1.7458 0
M  V30 2970 C 296.663 -2.84834 -2.19339 0
M  V30 2971 C 296.327 -4.25038 -1.67903 0
M  V30 2972 C 297.324 -5.07231 -1.14074 0
M  V30 2973 C 295.009 -4.71464 -1.73282 0
M  V30 2974 C 297.003 -6.33942 -0.663068 0
M  V30 2975 C 294.69 -5.98153 -1.25127 0
M  V30 2976 C 295.688 -6.79223 -0.717296 0
M  V30 2977 O 295.376 -8.03533 -0.242865 0
M  V30 2978 H 295.108 -0.583526 -0.341283 0
M  V30 2979 H 297.662 -2.00964 -0.424591 0
M  V30 2980 H 295.892 -2.5282 -2.92607 0
M  V30 2981 H 297.581 -2.9303 -2.80871 0
M  V30 2982 H 298.347 -4.72534 -1.09254 0
M  V30 2983 H 294.226 -4.08432 -2.13786 0
M  V30 2984 H 297.77 -6.97167 -0.245612 0
M  V30 2985 H 293.667 -6.32347 -1.29642 0
M  V30 2986 H 294.435 -8.177 -0.361786 0
M  V30 2987 N 297.098 0.621204 -1.44841 0
M  V30 2988 C 298.008 1.7612 -1.5498 0
M  V30 2989 C 299.024 1.68477 -0.434927 0
M  V30 2990 O 300.2 1.89076 -0.693693 0
M  V30 2991 C 297.265 3.1254 -1.50065 0
M  V30 2992 C 296.326 3.31741 -2.72482 0
M  V30 2993 C 295.559 4.61653 -2.67792 0
M  V30 2994 O 295.782 5.431 -1.74352 0
M  V30 2995 O 294.716 4.83271 -3.58794 0
M  V30 2996 H 298.542 1.70518 -2.51311 0
M  V30 2997 H 296.127 0.783643 -1.27198 0
M  V30 2998 H 298.009 3.93844 -1.49882 0
M  V30 2999 H 296.684 3.18663 -0.568806 0
M  V30 3000 H 295.591 2.50077 -2.7823 0
M  V30 3001 H 296.924 3.30486 -3.64746 0
M  V30 3002 N 298.576 1.31904 0.862503 0
M  V30 3003 C 299.506 1.22782 1.98612 0
M  V30 3004 C 300.487 0.113362 1.69722 0
M  V30 3005 O 301.672 0.299218 1.91881 0
M  V30 3006 C 298.802 0.942058 3.34279 0
M  V30 3007 C 297.756 2.0169 3.77499 0
M  V30 3008 C 297.082 1.58369 5.10709 0
M  V30 3009 C 298.382 3.43096 3.93805 0
M  V30 3010 H 300.076 2.16788 2.06502 0
M  V30 3011 H 297.622 1.04366 0.992154 0
M  V30 3012 H 299.575 0.864818 4.1243 0
M  V30 3013 H 298.299 -0.0336603 3.26583 0
M  V30 3014 H 296.958 2.08416 3.01593 0
M  V30 3015 H 296.606 0.595628 4.99461 0
M  V30 3016 H 296.306 2.30279 5.40597 0
M  V30 3017 H 297.83 1.52067 5.91361 0
M  V30 3018 H 299.244 3.39003 4.62331 0
M  V30 3019 H 297.641 4.13288 4.35101 0
M  V30 3020 H 298.711 3.83334 2.96957 0
M  V30 3021 N 300.054 -1.07777 1.14986 0
M  V30 3022 C 301.279 -1.84558 0.946213 0
M  V30 3023 C 301.704 -1.81323 -0.500362 0
M  V30 3024 O 301.062 -1.20301 -1.35637 0
M  V30 3025 C 301.11 -3.29736 1.45968 0
M  V30 3026 O 300.214 -4.07149 0.65601 0
M  V30 3027 H 299.555 -0.571641 0.33782 0
M  V30 3028 H 302.085 -1.35991 1.52865 0
M  V30 3029 H 302.095 -3.80574 1.47063 0
M  V30 3030 H 300.77 -3.31406 2.51283 0
M  V30 3031 H 299.347 -3.65994 0.714322 0
M  V30 3032 N 301.532 -0.945985 -1.26051 0
M  V30 3033 C 302.948 -0.649045 -1.45807 0
M  V30 3034 C 303.148 0.796158 -1.85104 0
M  V30 3035 O 302.204 1.57233 -1.97571 0
M  V30 3036 C 303.517 -1.61458 -2.53677 0
M  V30 3037 C 305.065 -1.62481 -2.67524 0
M  V30 3038 C 305.54 -2.57776 -3.7857 0
M  V30 3039 N 307.031 -2.5609 -3.85969 0
M  V30 3040 C 307.766 -3.26508 -4.7136 0
M  V30 3041 N 307.262 -4.0637 -5.61102 0
M  V30 3042 N 309.055 -3.15437 -4.65248 0
M  V30 3043 H 301.206 -1.88005 -0.988328 0
M  V30 3044 H 303.469 -0.808198 -0.4955 0
M  V30 3045 H 303.175 -2.64644 -2.31638 0
M  V30 3046 H 303.049 -1.37036 -3.51427 0
M  V30 3047 H 305.436 -0.600167 -2.88933 0
M  V30 3048 H 305.517 -1.90958 -1.70202 0
M  V30 3049 H 305.161 -3.60361 -3.57913 0
M  V30 3050 H 305.091 -2.26587 -4.75359 0
M  V30 3051 H 307.582 -1.98105 -3.21812 0
M  V30 3052 H 307.895 -4.57042 -6.23164 0
M  V30 3053 H 306.24 -4.10469 -5.60839 0
M  V30 3054 H 309.431 -2.52525 -3.94143 0
M  V30 3055 H 309.604 -3.70584 -5.31575 0
M  V30 3056 N 303.011 1.40521 -0.713556 0
M  V30 3057 C 304.239 2.05237 -0.261775 0
M  V30 3058 C 304.654 1.53755 1.09567 0
M  V30 3059 O 304.011 0.693268 1.6882 0
M  V30 3060 C 304.062 3.60763 -0.230706 0
M  V30 3061 O 303.783 4.10345 -1.53455 0
M  V30 3062 C 305.284 4.42651 0.239874 0
M  V30 3063 H 302.504 0.660533 -0.118057 0
M  V30 3064 H 305.048 1.79967 -0.971192 0
M  V30 3065 H 303.203 3.8501 0.429661 0
M  V30 3066 H 303.617 5.04526 -1.43366 0
M  V30 3067 H 305.091 5.51599 0.210468 0
M  V30 3068 H 305.568 4.20082 1.28171 0
M  V30 3069 H 306.174 4.23507 -0.390142 0
M  V30 3070 N 304.489 0.459591 1.5075 0
M  V30 3071 C 305.714 -0.0996819 2.0716 0
M  V30 3072 C 306.139 -1.33761 1.32249 0
M  V30 3073 O 305.497 -1.77551 0.366786 0
M  V30 3074 C 305.545 -0.378226 3.58611 0
M  V30 3075 O 304.649 -1.46081 3.85661 0
M  V30 3076 H 303.99 0.00791392 0.663953 0
M  V30 3077 H 306.52 0.647329 1.9409 0
M  V30 3078 H 306.53 -0.622135 4.03229 0
M  V30 3079 H 305.205 0.526439 4.12555 0
M  V30 3080 H 303.782 -1.20511 3.5289 0
M  V30 3081 N 305.967 -1.56429 0.191757 0
M  V30 3082 C 306.93 -2.17707 -0.716688 0
M  V30 3083 C 307.93 -1.13061 -1.14341 0
M  V30 3084 O 309.12 -1.38464 -1.05704 0
M  V30 3085 C 306.252 -2.77644 -1.97804 0
M  V30 3086 H 307.445 -2.99342 -0.1829 0
M  V30 3087 H 304.998 -1.56193 -0.0578566 0
M  V30 3088 H 305.733 -1.99799 -2.55443 0
M  V30 3089 H 305.518 -3.54246 -1.68083 0
M  V30 3090 H 307.008 -3.24708 -2.62592 0
M  V30 3091 N 307.445 0.0818655 -1.57387 0
M  V30 3092 C 308.693 0.781368 -1.86384 0
M  V30 3093 C 309.014 1.78618 -0.782342 0
M  V30 3094 O 308.284 1.94976 0.190061 0
M  V30 3095 H 306.864 0.291562 -0.687751 0
M  V30 3096 H 309.526 0.060348 -1.94807 0
M  V30 3097 H 308.622 1.3038 -2.83562 0
M  V30 3098 N 308.923 1.53595 0.353017 0
M  V30 3099 C 309.871 1.81605 1.45335 0
M  V30 3100 C 310.865 0.685923 1.54892 0
M  V30 3101 O 312.071 0.869095 1.57628 0
M  V30 3102 H 308.446 0.575204 0.484401 0
M  V30 3103 H 310.417 2.73679 1.18921 0
M  V30 3104 C 309.166 2.03406 2.81995 0
M  V30 3105 H 308.489 2.89814 2.75405 0
M  V30 3106 H 309.929 2.26975 3.58132 0
M  V30 3107 C 308.388 0.816794 3.26849 0
M  V30 3108 O 308.918 0.0115856 4.01698 0
M  V30 3109 N 307.124 0.636682 2.8354 0
M  V30 3110 H 306.671 1.2931 2.22793 0
M  V30 3111 H 306.629 -0.176336 3.13905 0
M  V30 3112 N 310.401 -0.613514 1.45168 0
M  V30 3113 C 311.647 -1.37471 1.49096 0
M  V30 3114 C 311.98 -1.93765 0.129901 0
M  V30 3115 O 311.255 -1.74707 -0.854858 0
M  V30 3116 C 311.538 -2.52701 2.56542 0
M  V30 3117 C 311.391 -2.01643 4.0207 0
M  V30 3118 C 312.71 -3.54849 2.60327 0
M  V30 3119 H 309.829 -0.498502 0.54283 0
M  V30 3120 H 312.471 -0.692125 1.76945 0
M  V30 3121 H 310.621 -3.10931 2.32926 0
M  V30 3122 H 312.293 -1.48108 4.36877 0
M  V30 3123 H 310.536 -1.32688 4.13009 0
M  V30 3124 H 311.207 -2.84681 4.72928 0
M  V30 3125 H 313.683 -3.0645 2.81474 0
M  V30 3126 H 312.559 -4.32973 3.37381 0
M  V30 3127 H 312.82 -4.10079 1.6519 0
M  V30 3128 N 311.879 -1.3236 -0.855495 0
M  V30 3129 C 312.842 -1.21164 -1.94556 0
M  V30 3130 C 313.842 -0.134908 -1.60233 0
M  V30 3131 O 315.032 -0.385249 -1.69887 0
M  V30 3132 C 312.164 -0.863192 -3.29791 0
M  V30 3133 H 313.357 -2.18038 -2.05911 0
M  V30 3134 H 310.91 -1.16179 -1.04557 0
M  V30 3135 H 311.645 0.103769 -3.24134 0
M  V30 3136 H 311.43 -1.64166 -3.56078 0
M  V30 3137 H 312.92 -0.809156 -4.09686 0
M  V30 3138 N 313.357 1.07166 -1.15556 0
M  V30 3139 C 314.634 1.76546 -0.842069 0
M  V30 3140 C 315.014 2.00453 0.661939 0
M  V30 3141 O 314.362 1.62452 1.60691 0
M  V30 3142 C 314.572 3.07266 -1.65495 0
M  V30 3143 C 315.92 3.81578 -1.86234 0
M  V30 3144 O 316.944 3.17083 -1.62287 0
M  V30 3145 O 315.803 4.97419 -2.26355 0
M  V30 3146 H 312.897 0.766756 -0.309862 0
M  V30 3147 H 315.443 1.13514 -1.26145 0
M  V30 3148 H 314.215 2.85494 -2.67598 0
M  V30 3149 H 313.838 3.7803 -1.23203 0
M  V30 3150 N 314.835 0.952656 1.25548 0
M  V30 3151 C 315.798 0.475794 2.24207 0
M  V30 3152 C 316.798 -0.419428 1.55234 0
M  V30 3153 O 317.988 -0.216994 1.72843 0
M  V30 3154 C 315.12 -0.312814 3.39462 0
M  V30 3155 H 316.313 1.34779 2.67908 0
M  V30 3156 H 313.866 0.735739 1.37901 0
M  V30 3157 H 314.601 -1.20257 3.01179 0
M  V30 3158 H 314.386 0.329404 3.90714 0
M  V30 3159 H 315.876 -0.635986 4.12729 0
M  V30 3160 N 316.313 -1.40141 0.720998 0
M  V30 3161 C 317.59 -1.94677 0.189757 0
M  V30 3162 C 317.97 -1.65879 -1.30566 0
M  V30 3163 O 317.318 -0.979391 -2.06447 0
M  V30 3164 C 317.528 -3.45279 0.508304 0
M  V30 3165 C 318.876 -4.22209 0.449934 0
M  V30 3166 O 319.9 -3.53413 0.444677 0
M  V30 3167 O 318.759 -5.44788 0.432189 0
M  V30 3168 H 315.853 -0.826459 0.0299026 0
M  V30 3169 H 318.399 -1.49719 0.7989 0
M  V30 3170 H 317.171 -3.59619 1.54239 0
M  V30 3171 H 316.794 -3.97386 -0.130525 0
M  V30 3172 N 317.792 -0.46758 -1.50504 0
M  V30 3173 C 318.722 0.318381 -2.31319 0
M  V30 3174 C 319.703 0.993564 -1.38066 0
M  V30 3175 O 320.888 0.991411 -1.66987 0
M  V30 3176 C 318.018 1.40275 -3.17711 0
M  V30 3177 C 316.972 0.849373 -4.19487 0
M  V30 3178 C 316.298 2.03177 -4.94594 0
M  V30 3179 C 317.598 -0.136942 -5.2212 0
M  V30 3180 H 319.292 -0.356106 -2.97275 0
M  V30 3181 H 316.838 -0.172703 -1.42961 0
M  V30 3182 H 318.791 1.96004 -3.73042 0
M  V30 3183 H 317.515 2.10596 -2.49634 0
M  V30 3184 H 316.174 0.314076 -3.65252 0
M  V30 3185 H 315.822 2.72187 -4.22993 0
M  V30 3186 H 315.522 1.66774 -5.63436 0
M  V30 3187 H 317.046 2.59403 -5.52759 0
M  V30 3188 H 318.46 0.331056 -5.72343 0
M  V30 3189 H 316.857 -0.41507 -5.98663 0
M  V30 3190 H 317.927 -1.06398 -4.73083 0
M  V30 3191 N 319.27 1.56325 -0.20005 0
M  V30 3192 C 320.233 2.18084 0.705132 0
M  V30 3193 C 321.233 1.13666 1.1374 0
M  V30 3194 O 322.423 1.39023 1.04968 0
M  V30 3195 C 319.555 2.78689 1.96329 0
M  V30 3196 H 320.748 2.99435 0.167023 0
M  V30 3197 H 318.301 1.56221 0.0495725 0
M  V30 3198 H 319.036 2.0115 2.5438 0
M  V30 3199 H 318.821 3.55133 1.66202 0
M  V30 3200 H 320.311 3.26096 2.60866 0
M  V30 3201 N 320.748 -0.0735177 1.57428 0
M  V30 3202 C 321.658 -1.10547 2.06922 0
M  V30 3203 C 322.674 -1.42506 0.998402 0
M  V30 3204 O 323.85 -1.52717 1.31299 0
M  V30 3205 C 320.915 -2.40019 2.50184 0
M  V30 3206 C 319.976 -2.15046 3.71556 0
M  V30 3207 C 319.209 -3.38345 4.12745 0
M  V30 3208 O 319.432 -4.47399 3.53822 0
M  V30 3209 O 318.366 -3.2666 5.05546 0
M  V30 3210 H 322.192 -0.715013 2.95163 0
M  V30 3211 H 319.777 -0.287531 1.46607 0
M  V30 3212 H 321.659 -3.16218 2.78539 0
M  V30 3213 H 320.334 -2.78447 1.65072 0
M  V30 3214 H 319.241 -1.36558 3.48285 0
M  V30 3215 H 320.574 -1.81499 4.57514 0
M  V30 3216 N 322.226 -1.5378 -0.344866 0
M  V30 3217 C 323.472 -1.72158 -1.0832 0
M  V30 3218 C 323.827 -0.478218 -1.86362 0
M  V30 3219 O 323.12 0.529152 -1.84148 0
M  V30 3220 C 323.314 -2.92407 -2.05506 0
M  V30 3221 C 323.143 -4.28318 -1.37017 0
M  V30 3222 C 321.913 -4.92832 -1.11558 0
M  V30 3223 C 324.111 -5.08086 -0.797071 0
M  V30 3224 N 322.093 -6.12619 -0.396358 0
M  V30 3225 C 323.464 -6.1965 -0.208336 0
M  V30 3226 C 325.519 -4.92986 -0.697787 0
M  V30 3227 C 324.222 -7.17763 0.470023 0
M  V30 3228 C 326.248 -5.91391 -0.033171 0
M  V30 3229 C 325.61 -7.02292 0.544599 0
M  V30 3230 H 321.709 -0.683017 -0.380805 0
M  V30 3231 H 324.293 -1.91211 -0.366961 0
M  V30 3232 H 322.464 -2.74857 -2.74423 0
M  V30 3233 H 324.196 -2.9951 -2.72169 0
M  V30 3234 H 320.951 -4.52362 -1.40234 0
M  V30 3235 H 321.375 -6.7698 -0.0515119 0
M  V30 3236 H 326.017 -4.07414 -1.13022 0
M  V30 3237 H 323.735 -8.0291 0.914351 0
M  V30 3238 H 327.321 -5.81784 0.0430009 0
M  V30 3239 H 326.201 -7.77129 1.05073 0
M  V30 3240 N 323.704 0.605807 -1.45491 0
M  V30 3241 C 325.115 1.18777 -1.44045 0
M  V30 3242 C 325.466 1.95471 -0.169001 0
M  V30 3243 O 324.591 2.0374 0.729324 0
M  V30 3244 C 325.186 2.16064 -2.60963 0
M  V30 3245 C 323.745 2.69633 -2.62631 0
M  V30 3246 C 322.892 1.45072 -2.36325 0
M  V30 3247 H 325.843 0.395017 -1.53705 0
M  V30 3248 H 325.864 2.9913 -2.35163 0
M  V30 3249 H 325.376 1.60217 -3.53486 0
M  V30 3250 H 323.477 3.29414 -1.74119 0
M  V30 3251 H 323.59 3.13944 -3.61906 0
M  V30 3252 H 321.954 1.74089 -1.85917 0
M  V30 3253 H 322.737 0.910899 -3.30995 0
M  V30 3254 N 325.182 1.32811 0.848464 0
M  V30 3255 C 326.41 1.26739 1.63538 0
M  V30 3256 C 326.825 -0.163484 1.88091 0
M  V30 3257 O 326.182 -1.10258 1.45429 0
M  V30 3258 C 326.233 2.03013 2.99112 0
M  V30 3259 O 325.954 3.40518 2.75643 0
M  V30 3260 C 327.455 2.04038 3.93552 0
M  V30 3261 H 324.675 0.437024 0.509167 0
M  V30 3262 H 327.219 1.75033 1.05753 0
M  V30 3263 H 325.374 1.58426 3.53525 0
M  V30 3264 H 325.788 3.79635 3.61908 0
M  V30 3265 H 327.262 2.61877 4.85926 0
M  V30 3266 H 327.739 1.0282 4.26995 0
M  V30 3267 H 328.345 2.486 3.45077 0
M  V30 3268 N 326.66 -1.06551 1.16123 0
M  V30 3269 C 327.885 -1.83544 0.965735 0
M  V30 3270 C 328.31 -1.81843 -0.481102 0
M  V30 3271 O 327.668 -1.21732 -1.34354 0
M  V30 3272 C 327.716 -3.28169 1.49457 0
M  V30 3273 O 326.82 -4.0643 0.699157 0
M  V30 3274 H 326.161 -0.568026 0.343864 0
M  V30 3275 H 328.691 -1.34362 1.54299 0
M  V30 3276 H 328.701 -3.78992 1.51092 0
M  V30 3277 H 327.376 -3.28722 2.54784 0
M  V30 3278 H 325.953 -3.65216 0.7531 0
M  V30 3279 N 328.138 -0.959301 -1.25041 0
M  V30 3280 C 329.387 -0.612254 -1.92183 0
M  V30 3281 C 329.7 0.855347 -1.75907 0
M  V30 3282 O 330.906 1.31256 -2.37664 0
M  V30 3283 C 329.362 -1.04435 -3.44414 0
M  V30 3284 C 328.97 -2.53482 -3.69393 0
M  V30 3285 C 330.714 -0.770055 -4.17457 0
M  V30 3286 C 328.621 -2.90468 -5.15153 0
M  V30 3287 H 327.551 -0.225279 -0.719559 0
M  V30 3288 H 330.202 -1.16438 -1.41825 0
M  V30 3289 H 328.584 -0.4206 -3.9376 0
M  V30 3290 H 329.758 -3.20916 -3.30681 0
M  V30 3291 H 328.073 -2.78432 -3.0962 0
M  V30 3292 H 330.67 -1.02249 -5.24832 0
M  V30 3293 H 331.013 0.293611 -4.15263 0
M  V30 3294 H 331.546 -1.35437 -3.74034 0
M  V30 3295 H 328.285 -3.95871 -5.22462 0
M  V30 3296 H 327.805 -2.27711 -5.54894 0
M  V30 3297 H 329.484 -2.79914 -5.83315 0
M  V30 3298 N 329.616 1.39756 -0.72842 0
M  V30 3299 C 330.526 2.34444 -0.0855374 0
M  V30 3300 C 331.542 1.57976 0.729356 0
M  V30 3301 O 332.718 1.90301 0.659346 0
M  V30 3302 C 329.783 3.36965 0.815798 0
M  V30 3303 C 328.844 4.29299 -0.0105996 0
M  V30 3304 C 328.077 5.26923 0.84781 0
M  V30 3305 O 328.3 5.30859 2.08673 0
M  V30 3306 O 327.234 6.01249 0.279969 0
M  V30 3307 H 331.06 2.91065 -0.866892 0
M  V30 3308 H 328.645 1.4117 -0.48902 0
M  V30 3309 H 330.527 3.99804 1.33171 0
M  V30 3310 H 329.202 2.82739 1.57608 0
M  V30 3311 H 328.109 3.69703 -0.571877 0
M  V30 3312 H 329.442 4.86712 -0.73295 0
M  V30 3313 N 331.094 0.475555 1.50254 0
M  V30 3314 C 332.51 0.12997 1.5907 0
M  V30 3315 C 332.71 -1.36385 1.48328 0
M  V30 3316 O 331.766 -2.13754 1.34407 0
M  V30 3317 C 333.079 0.684139 2.92814 0
M  V30 3318 C 334.627 0.647965 3.0622 0
M  V30 3319 C 335.102 1.17975 4.42545 0
M  V30 3320 N 336.593 1.13936 4.48969 0
M  V30 3321 C 337.328 1.52129 5.52851 0
M  V30 3322 N 336.824 1.97793 6.63965 0
M  V30 3323 N 338.617 1.43704 5.4342 0
M  V30 3324 H 330.768 1.44706 1.55479 0
M  V30 3325 H 333.031 0.598691 0.735033 0
M  V30 3326 H 332.737 1.73079 3.06164 0
M  V30 3327 H 332.611 0.130204 3.76975 0
M  V30 3328 H 334.998 -0.38979 2.92514 0
M  V30 3329 H 335.079 1.23876 2.23805 0
M  V30 3330 H 334.723 2.21616 4.57 0
M  V30 3331 H 334.653 0.565138 5.23559 0
M  V30 3332 H 337.144 0.804488 3.69238 0
M  V30 3333 H 337.457 2.25072 7.39299 0
M  V30 3334 H 335.802 2.01749 6.65073 0
M  V30 3335 H 338.993 1.07867 4.55502 0
M  V30 3336 H 339.166 1.73794 6.24259 0
M  V30 3337 N 332.573 -1.56217 0.208337 0
M  V30 3338 C 333.822 -1.97124 -0.427204 0
M  V30 3339 C 334.135 -1.09859 -1.61835 0
M  V30 3340 O 335.341 -1.40606 -2.32255 0
M  V30 3341 C 333.797 -3.50633 -0.811442 0
M  V30 3342 C 333.405 -4.46582 0.35615 0
M  V30 3343 C 335.149 -4.00282 -1.41332 0
M  V30 3344 C 333.056 -5.91379 -0.0497852 0
M  V30 3345 H 331.986 -0.736086 -0.163381 0
M  V30 3346 H 334.637 -1.8099 0.302456 0
M  V30 3347 H 333.019 -3.62319 -1.59815 0
M  V30 3348 H 334.193 -4.46636 1.1337 0
M  V30 3349 H 332.508 -4.07202 0.870396 0
M  V30 3350 H 335.105 -5.0595 -1.72972 0
M  V30 3351 H 335.448 -3.45359 -2.32449 0
M  V30 3352 H 335.981 -3.91764 -0.690323 0
M  V30 3353 H 332.72 -6.50255 0.827529 0
M  V30 3354 H 332.24 -5.94549 -0.791926 0
M  V30 3355 H 333.919 -6.45209 -0.481042 0
M  V30 3356 N 334.051 0.0651679 -1.57465 0
M  V30 3357 C 334.983 1.10359 -2.00882 0
M  V30 3358 C 335.996 1.346 -0.915788 0
M  V30 3359 O 337.185 1.32723 -1.1936 0
M  V30 3360 C 334.285 2.45312 -2.33828 0
M  V30 3361 C 333.458 2.40934 -3.65061 0
M  V30 3362 C 332.517 3.58047 -3.85602 0
M  V30 3363 O 331.543 3.39175 -4.57109 0
M  V30 3364 N 332.745 4.78637 -3.28462 0
M  V30 3365 H 335.51 0.733807 -2.90578 0
M  V30 3366 H 333.071 0.253719 -1.599 0
M  V30 3367 H 335.063 3.22314 -2.44737 0
M  V30 3368 H 333.633 2.74267 -1.49988 0
M  V30 3369 H 332.853 1.49273 -3.64844 0
M  V30 3370 H 334.141 2.35117 -4.51218 0
M  V30 3371 H 333.539 4.96872 -2.70433 0
M  V30 3372 H 332.096 5.53127 -3.44809 0
M  V30 3373 N 335.529 1.53961 0.336706 0
M  V30 3374 C 336.461 1.78751 1.4346 0
M  V30 3375 C 337.474 0.669019 1.48418 0
M  V30 3376 O 338.663 0.945884 1.51378 0
M  V30 3377 C 335.763 1.87844 2.82078 0
M  V30 3378 C 334.936 3.17854 3.00479 0
M  V30 3379 C 333.995 3.17816 4.19379 0
M  V30 3380 O 333.021 3.91511 4.13168 0
M  V30 3381 N 334.223 2.40669 5.2826 0
M  V30 3382 H 336.988 2.73493 1.22563 0
M  V30 3383 H 334.549 1.53096 0.526625 0
M  V30 3384 H 336.541 1.85261 3.59806 0
M  V30 3385 H 335.111 1.00257 2.96086 0
M  V30 3386 H 334.331 3.33504 2.10163 0
M  V30 3387 H 335.619 4.03718 3.0966 0
M  V30 3388 H 335.017 1.8036 5.36178 0
M  V30 3389 H 333.574 2.43877 6.04456 0
M  V30 3390 N 337.007 -0.598083 1.45811 0
M  V30 3391 C 337.957 -1.70272 1.51629 0
M  V30 3392 C 338.941 -1.56382 0.378629 0
M  V30 3393 O 340.133 -1.65557 0.626087 0
M  V30 3394 C 337.262 -3.09042 1.49493 0
M  V30 3395 C 336.348 -3.28284 2.68496 0
M  V30 3396 N 336.739 -3.17748 3.93535 0
M  V30 3397 C 335.037 -3.59182 2.64394 0
M  V30 3398 C 335.738 -3.38579 4.7301 0
M  V30 3399 N 334.714 -3.63016 4.04624 0
M  V30 3400 H 338.516 -1.60634 2.46118 0
M  V30 3401 H 336.03 -0.801642 1.41235 0
M  V30 3402 H 338.027 -3.88302 1.51747 0
M  V30 3403 H 336.687 -3.19823 0.560683 0
M  V30 3404 H 337.698 -2.95944 4.25014 0
M  V30 3405 H 334.375 -3.76742 1.79922 0
M  V30 3406 H 335.765 -3.35747 5.82 0
M  V30 3407 N 338.485 -1.33259 -0.841409 0
M  V30 3408 C 339.715 -1.2742 -1.62628 0
M  V30 3409 C 340.123 0.157604 -1.88542 0
M  V30 3410 O 339.466 1.10938 -1.46419 0
M  V30 3411 C 339.528 -1.97797 -3.00194 0
M  V30 3412 C 339.192 -3.47109 -2.97261 0
M  V30 3413 C 340.189 -4.42358 -2.73159 0
M  V30 3414 C 337.874 -3.89247 -3.17478 0
M  V30 3415 C 339.868 -5.77718 -2.69296 0
M  V30 3416 C 337.555 -5.24713 -3.13241 0
M  V30 3417 C 338.553 -6.1876 -2.89181 0
M  V30 3418 O 338.241 -7.51745 -2.84843 0
M  V30 3419 H 337.973 -0.440436 -0.512827 0
M  V30 3420 H 340.527 -1.76153 -1.05638 0
M  V30 3421 H 338.757 -1.43652 -3.59028 0
M  V30 3422 H 340.446 -1.8549 -3.61038 0
M  V30 3423 H 341.212 -4.11127 -2.57294 0
M  V30 3424 H 337.091 -3.16456 -3.35226 0
M  V30 3425 H 340.635 -6.51097 -2.50436 0
M  V30 3426 H 336.532 -5.55569 -3.28654 0
M  V30 3427 H 337.3 -7.61262 -3.00702 0
M  V30 3428 N 339.963 1.05934 -1.16686 0
M  V30 3429 C 341.374 1.60263 -0.957745 0
M  V30 3430 C 341.725 1.89789 0.49745 0
M  V30 3431 O 340.85 1.67401 1.37135 0
M  V30 3432 C 341.445 2.91172 -1.73218 0
M  V30 3433 C 340.004 3.42188 -1.56794 0
M  V30 3434 C 339.151 2.16028 -1.73859 0
M  V30 3435 H 342.102 0.888392 -1.31504 0
M  V30 3436 H 342.123 3.60744 -1.21014 0
M  V30 3437 H 341.635 2.6965 -2.79124 0
M  V30 3438 H 339.736 3.68762 -0.533437 0
M  V30 3439 H 339.849 4.17273 -2.35414 0
M  V30 3440 H 338.213 2.26426 -1.16633 0
M  V30 3441 H 338.996 1.96985 -2.81161 0
M  V30 3442 N 341.441 0.965919 1.2453 0
M  V30 3443 C 342.351 0.502154 2.29163 0
M  V30 3444 C 343.367 -0.436017 1.68448 0
M  V30 3445 O 344.543 -0.309497 1.99008 0
M  V30 3446 C 341.608 -0.201956 3.46111 0
M  V30 3447 C 340.669 0.775821 4.22232 0
M  V30 3448 C 339.902 0.105217 5.33596 0
M  V30 3449 O 340.125 -1.10683 5.59558 0
M  V30 3450 O 339.059 0.796475 5.96607 0
M  V30 3451 H 342.885 1.37194 2.70946 0
M  V30 3452 H 340.47 0.732875 1.30189 0
M  V30 3453 H 342.352 -0.597564 4.17142 0
M  V30 3454 H 341.027 -1.04673 3.06309 0
M  V30 3455 H 339.934 1.22185 3.53584 0
M  V30 3456 H 341.267 1.58896 4.65846 0
M  V30 3457 N 342.919 -1.39368 0.735821 0
M  V30 3458 C 343.882 -2.2896 0.104874 0
M  V30 3459 C 344.882 -1.46347 -0.666274 0
M  V30 3460 O 346.072 -1.67014 -0.49517 0
M  V30 3461 C 343.204 -3.29857 -0.860656 0
M  V30 3462 H 344.397 -2.86259 0.894205 0
M  V30 3463 H 341.95 -1.48029 0.501704 0
M  V30 3464 H 342.685 -2.77615 -1.67631 0
M  V30 3465 H 342.47 -3.9087 -0.310327 0
M  V30 3466 H 343.96 -3.96893 -1.29867 0
M  V30 3467 N 344.397 -0.483516 -1.5 0
M  V30 3468 C 345.329 0.340634 -2.26655 0
M  V30 3469 C 346.342 0.946152 -1.32483 0
M  V30 3470 O 347.531 0.832453 -1.579 0
M  V30 3471 C 344.631 1.4929 -3.04246 0
M  V30 3472 C 343.804 0.997903 -4.25865 0
M  V30 3473 C 342.863 2.02569 -4.85646 0
M  V30 3474 O 341.889 1.60128 -5.46212 0
M  V30 3475 N 343.091 3.3548 -4.73744 0
M  V30 3476 H 345.856 -0.316577 -2.98023 0
M  V30 3477 H 343.417 -0.315024 -1.58806 0
M  V30 3478 H 345.409 2.17766 -3.41116 0
M  V30 3479 H 343.979 2.05458 -2.35597 0
M  V30 3480 H 343.199 0.138617 -3.93956 0
M  V30 3481 H 344.487 0.645305 -5.04691 0
M  V30 3482 H 343.885 3.72661 -4.25605 0
M  V30 3483 H 342.442 3.99718 -5.14848 0
M  V30 3484 N 345.875 1.56104 -0.216619 0
M  V30 3485 C 347.122 1.98172 0.416416 0
M  V30 3486 C 347.45 1.10413 1.60122 0
M  V30 3487 O 346.705 0.147967 1.9514 0
M  V30 3488 C 347.004 3.45923 0.898464 0
M  V30 3489 C 346.67 4.50559 -0.175288 0
M  V30 3490 C 345.332 4.78897 -0.470271 0
M  V30 3491 C 347.684 5.1334 -0.901728 0
M  V30 3492 C 345.012 5.67299 -1.4963 0
M  V30 3493 C 347.364 6.02853 -1.91705 0
M  V30 3494 C 346.028 6.29537 -2.21901 0
M  V30 3495 H 345.298 0.725164 0.152377 0
M  V30 3496 H 347.945 1.88839 -0.318103 0
M  V30 3497 H 346.25 3.52434 1.71165 0
M  V30 3498 H 347.947 3.75841 1.39803 0
M  V30 3499 H 344.537 4.28551 0.0647806 0
M  V30 3500 H 348.721 4.91521 -0.687072 0
M  V30 3501 H 343.977 5.86239 -1.73592 0
M  V30 3502 H 348.151 6.50552 -2.48505 0
M  V30 3503 H 345.778 6.97835 -3.01548 0
M  V30 3504 N 347.353 -0.0568162 1.57498 0
M  V30 3505 C 348.599 -0.75422 1.88253 0
M  V30 3506 C 348.932 -1.76461 0.810865 0
M  V30 3507 O 348.207 -1.93691 -0.177259 0
M  V30 3508 C 348.49 -1.44878 3.2967 0
M  V30 3509 C 348.343 -0.453789 4.47505 0
M  V30 3510 C 349.662 -2.38994 3.69554 0
M  V30 3511 H 346.781 -0.272724 0.684683 0
M  V30 3512 H 349.423 -0.0172113 1.89992 0
M  V30 3513 H 347.573 -2.077 3.28318 0
M  V30 3514 H 349.245 0.170371 4.60985 0
M  V30 3515 H 347.488 0.229552 4.33192 0
M  V30 3516 H 348.159 -0.977699 5.43273 0
M  V30 3517 H 350.635 -1.86239 3.72095 0
M  V30 3518 H 349.511 -2.84587 4.69363 0
M  V30 3519 H 349.772 -3.24461 3.00296 0
M  V30 3520 N 348.832 -1.54138 -0.328536 0
M  V30 3521 C 350.081 -1.71318 -1.06456 0
M  V30 3522 C 350.394 -0.491109 -1.89334 0
M  V30 3523 O 351.6 -0.54416 -2.65991 0
M  V30 3524 C 350.056 -3.03 -1.94214 0
M  V30 3525 C 349.664 -4.32595 -1.16471 0
M  V30 3526 C 351.408 -3.29544 -2.67583 0
M  V30 3527 C 349.315 -5.55341 -2.03347 0
M  V30 3528 H 348.245 -0.638429 -0.401155 0
M  V30 3529 H 350.896 -1.80633 -0.323106 0
M  V30 3530 H 349.278 -2.87579 -2.72239 0
M  V30 3531 H 350.452 -4.58766 -0.432525 0
M  V30 3532 H 348.767 -4.12777 -0.548063 0
M  V30 3533 H 351.364 -4.18444 -3.3288 0
M  V30 3534 H 351.707 -2.47206 -3.34955 0
M  V30 3535 H 352.24 -3.45809 -1.96623 0
M  V30 3536 H 348.979 -6.40268 -1.40491 0
M  V30 3537 H 348.499 -5.33397 -2.74313 0
M  V30 3538 H 350.178 -5.91557 -2.62049 0
M  V30 3539 N 350.31 0.590341 -1.46126 0
M  V30 3540 C 351.721 1.17243 -1.45296 0
M  V30 3541 C 352.072 1.95281 -0.189723 0
M  V30 3542 O 351.197 2.04502 0.707674 0
M  V30 3543 C 351.792 2.13284 -2.6324 0
M  V30 3544 C 350.351 2.66832 -2.65476 0
M  V30 3545 C 349.498 1.42557 -2.3785 0
M  V30 3546 H 352.449 0.378692 -1.54116 0
M  V30 3547 H 352.47 2.96619 -2.38323 0
M  V30 3548 H 351.982 1.56459 -3.55165 0
M  V30 3549 H 350.083 3.27548 -1.77603 0
M  V30 3550 H 350.196 3.10088 -3.65215 0
M  V30 3551 H 348.56 1.72107 -1.87753 0
M  V30 3552 H 349.343 0.875741 -3.31942 0
M  V30 3553 N 351.788 1.33704 0.83433 0
M  V30 3554 C 353.036 1.25169 1.58673 0
M  V30 3555 C 353.357 -0.18127 1.94156 0
M  V30 3556 O 352.627 -1.11113 1.6134 0
M  V30 3557 H 351.207 0.4603 0.58833 0
M  V30 3558 H 353.869 1.67478 0.996847 0
M  V30 3559 H 352.965 1.84856 2.51465 0
M  V30 3560 N 353.266 -1.05314 1.17247 0
M  V30 3561 C 354.216 -2.11313 0.856196 0
M  V30 3562 C 355.2 -1.60013 -0.168694 0
M  V30 3563 O 356.392 -1.76968 0.0335624 0
M  V30 3564 C 353.521 -3.41301 0.369917 0
M  V30 3565 C 352.607 -3.99401 1.42616 0
M  V30 3566 N 352.998 -4.31481 2.63928 0
M  V30 3567 C 351.296 -4.27126 1.28373 0
M  V30 3568 C 351.997 -4.77799 3.31787 0
M  V30 3569 N 350.973 -4.77843 2.59166 0
M  V30 3570 H 354.775 -2.33976 1.77856 0
M  V30 3571 H 352.289 -1.2295 1.06099 0
M  V30 3572 H 354.286 -4.16713 0.124897 0
M  V30 3573 H 352.946 -3.20072 -0.546253 0
M  V30 3574 H 353.957 -4.21519 3.00902 0
M  V30 3575 H 350.634 -4.15289 0.429111 0
M  V30 3576 H 352.024 -5.11743 4.35395 0
M  V30 3577 N 354.744 -0.972509 -1.24016 0
M  V30 3578 C 355.992 -0.635776 -1.91839 0
M  V30 3579 C 356.313 0.832312 -1.76345 0
M  V30 3580 O 355.583 1.5946 -1.13795 0
M  V30 3581 H 354.163 -0.232157 -0.710009 0
M  V30 3582 H 356.825 -1.23462 -1.50809 0
M  V30 3583 H 355.921 -0.880545 -2.99421 0
M  V30 3584 N 356.222 1.38976 -0.743202 0
M  V30 3585 C 357.152 2.33171 -0.123873 0
M  V30 3586 C 358.133 1.54336 0.71516 0
M  V30 3587 O 359.318 1.82696 0.658467 0
M  V30 3588 C 356.448 3.38474 0.777978 0
M  V30 3589 C 355.402 4.27979 0.0424758 0
M  V30 3590 C 354.728 5.2405 1.06189 0
M  V30 3591 C 356.028 5.10155 -1.1198 0
M  V30 3592 H 357.722 2.85213 -0.910709 0
M  V30 3593 H 355.268 1.37133 -0.439388 0
M  V30 3594 H 357.221 4.03328 1.22084 0
M  V30 3595 H 355.945 2.84891 1.59702 0
M  V30 3596 H 354.604 3.64616 -0.380853 0
M  V30 3597 H 354.252 4.66758 1.87472 0
M  V30 3598 H 353.952 5.84785 0.574485 0
M  V30 3599 H 355.476 5.9178 1.50428 0
M  V30 3600 H 356.89 5.68307 -0.75499 0
M  V30 3601 H 355.287 5.80073 -1.53738 0
M  V30 3602 H 356.357 4.44504 -1.93764 0
M  V30 3603 N 357.7 0.491464 1.49741 0
M  V30 3604 C 359.111 0.0413169 1.86654 0
M  V30 3605 C 359.462 -1.36985 1.40462 0
M  V30 3606 O 358.587 -2.01917 0.778354 0
M  V30 3607 C 359.182 0.0682023 3.38731 0
M  V30 3608 C 357.741 -0.32656 3.74981 0
M  V30 3609 C 356.888 0.444888 2.73708 0
M  V30 3610 H 359.839 0.704733 1.42194 0
M  V30 3611 H 359.86 -0.729322 3.73445 0
M  V30 3612 H 359.372 1.09539 3.72321 0
M  V30 3613 H 357.473 -1.35734 3.46997 0
M  V30 3614 H 357.586 -0.013741 4.79098 0
M  V30 3615 H 355.95 -0.104062 2.54487 0
M  V30 3616 H 356.733 1.47197 3.10142 0
M  V30 3617 N 359.178 -1.55987 0.224894 0
M  V30 3618 C 360.426 -1.97998 -0.405099 0
M  V30 3619 C 360.747 -1.11387 -1.60056 0
M  V30 3620 O 360.017 -0.191645 -1.9496 0
M  V30 3621 H 358.597 -0.731235 -0.152658 0
M  V30 3622 H 361.259 -1.92279 0.318567 0
M  V30 3623 H 360.355 -3.03463 -0.729167 0
M  V30 3624 N 360.656 0.0484629 -1.57525 0
M  V30 3625 C 361.904 0.741657 -1.88 0
M  V30 3626 C 362.225 1.76918 -0.820054 0
M  V30 3627 O 361.495 1.95335 0.148661 0
M  V30 3628 H 360.075 0.276908 -0.69378 0
M  V30 3629 H 362.737 0.019013 -1.94891 0
M  V30 3630 H 361.833 1.24336 -2.86264 0
M  V30 3631 N 362.134 1.5431 0.320358 0
M  V30 3632 C 363.064 1.86912 1.3995 0
M  V30 3633 C 364.045 0.726211 1.53819 0
M  V30 3634 O 365.23 0.980233 1.67646 0
M  V30 3635 C 362.36 2.09932 2.7667 0
M  V30 3636 C 361.314 3.25776 2.77586 0
M  V30 3637 C 360.64 3.34173 4.17412 0
M  V30 3638 C 361.94 4.6335 2.41048 0
M  V30 3639 H 363.634 2.77292 1.12914 0
M  V30 3640 H 361.18 1.33421 0.541738 0
M  V30 3641 H 363.133 2.31324 3.52232 0
M  V30 3642 H 361.857 1.16304 3.0519 0
M  V30 3643 H 360.516 3.04276 2.04479 0
M  V30 3644 H 360.164 2.38098 4.43078 0
M  V30 3645 H 359.864 4.12033 4.18931 0
M  V30 3646 H 361.388 3.57803 4.94782 0
M  V30 3647 H 362.802 4.84602 3.06324 0
M  V30 3648 H 361.199 5.43782 2.53813 0
M  V30 3649 H 362.269 4.65381 1.36193 0
M  V30 3650 N 363.613 -0.582584 1.46437 0
M  V30 3651 C 364.89 -1.34276 1.4223 0
M  V30 3652 C 365.27 -2.10835 0.10583 0
M  V30 3653 O 364.618 -2.09485 -0.912596 0
M  V30 3654 C 364.828 -2.26865 2.65204 0
M  V30 3655 C 366.176 -2.88691 3.11356 0
M  V30 3656 O 367.2 -2.37178 2.65753 0
M  V30 3657 O 366.059 -3.82255 3.90568 0
M  V30 3658 H 363.153 -0.603326 0.565621 0
M  V30 3659 H 365.699 -0.603591 1.58603 0
M  V30 3660 H 364.471 -1.69724 3.52576 0
M  V30 3661 H 364.094 -3.08122 2.5129 0
M  V30 3662 N 365.091 -1.34144 -0.827227 0
M  V30 3663 C 366.021 -1.28005 -1.95287 0
M  V30 3664 C 367.002 -0.158321 -1.69362 0
M  V30 3665 O 368.187 -0.349987 -1.9102 0
M  V30 3666 C 365.317 -1.03036 -3.31664 0
M  V30 3667 C 364.271 -2.11628 -3.72019 0
M  V30 3668 C 363.597 -1.71854 -5.0633 0
M  V30 3669 C 364.897 -3.53417 -3.8457 0
M  V30 3670 H 366.591 -2.22187 -2.00682 0
M  V30 3671 H 364.137 -1.0696 -0.964135 0
M  V30 3672 H 366.09 -0.973863 -4.09993 0
M  V30 3673 H 364.814 -0.0529391 -3.26557 0
M  V30 3674 H 363.473 -2.16339 -2.95961 0
M  V30 3675 H 363.121 -0.727841 -4.97706 0
M  V30 3676 H 362.821 -2.44531 -5.34302 0
M  V30 3677 H 364.345 -1.67692 -5.87122 0
M  V30 3678 H 365.759 -3.51142 -4.5318 0
M  V30 3679 H 364.156 -4.24679 -4.2399 0
M  V30 3680 H 365.226 -3.91072 -2.86689 0
M  V30 3681 N 366.569 1.04691 -1.17803 0
M  V30 3682 C 367.499 2.14494 -0.92275 0
M  V30 3683 C 368.48 1.69546 0.137179 0
M  V30 3684 O 369.665 1.94195 -0.0141108 0
M  V30 3685 C 366.795 3.44491 -0.440803 0
M  V30 3686 C 365.749 4.03031 -1.4405 0
M  V30 3687 C 365.075 5.28432 -0.81631 0
M  V30 3688 C 366.375 4.39932 -2.81527 0
M  V30 3689 H 368.069 2.36107 -1.84103 0
M  V30 3690 H 365.615 1.1347 -0.886599 0
M  V30 3691 H 367.568 4.2066 -0.249602 0
M  V30 3692 H 366.292 3.22546 0.513025 0
M  V30 3693 H 364.951 3.28937 -1.61853 0
M  V30 3694 H 364.599 5.02792 0.144511 0
M  V30 3695 H 364.299 5.68559 -1.48371 0
M  V30 3696 H 365.823 6.07284 -0.635496 0
M  V30 3697 H 367.237 5.07113 -2.67412 0
M  V30 3698 H 365.634 4.9109 -3.44892 0
M  V30 3699 H 366.704 3.50045 -3.35554 0
M  V30 3700 N 368.047 0.979072 1.23499 0
M  V30 3701 C 368.994 0.517904 2.24914 0
M  V30 3702 C 369.964 -0.442525 1.60097 0
M  V30 3703 O 371.149 -0.350365 1.87556 0
M  V30 3704 C 368.289 -0.174813 3.44657 0
M  V30 3705 C 367.402 0.825721 4.24035 0
M  V30 3706 C 366.537 0.107946 5.3109 0
M  V30 3707 C 365.576 1.09778 6.02175 0
M  V30 3708 N 364.713 0.40925 7.00906 0
M  V30 3709 H 369.553 1.38751 2.63727 0
M  V30 3710 H 367.09 0.695303 1.2963 0
M  V30 3711 H 369.048 -0.593233 4.12961 0
M  V30 3712 H 367.678 -1.0083 3.06648 0
M  V30 3713 H 366.73 1.36253 3.55161 0
M  V30 3714 H 368.042 1.58005 4.73113 0
M  V30 3715 H 367.196 -0.367904 6.05583 0
M  V30 3716 H 365.935 -0.678994 4.8295 0
M  V30 3717 H 364.94 1.5844 5.26476 0
M  V30 3718 H 366.165 1.88536 6.52404 0
M  V30 3719 H 364.111 -0.358506 6.5502 0
M  V30 3720 H 364.028 1.10226 7.47921 0
M  V30 3721 H 365.296 -0.0442557 7.79487 0
M  V30 3722 N 369.525 -1.3858 0.750561 0
M  V30 3723 C 370.475 -2.27795 0.0965949 0
M  V30 3724 C 371.459 -1.45048 -0.696411 0
M  V30 3725 O 372.651 -1.67812 -0.562863 0
M  V30 3726 C 369.78 -3.33894 -0.798085 0
M  V30 3727 C 368.866 -4.241 0.0016067 0
M  V30 3728 N 369.257 -4.95067 1.03647 0
M  V30 3729 C 367.555 -4.45429 -0.225674 0
M  V30 3730 C 368.256 -5.61489 1.52004 0
M  V30 3731 N 367.232 -5.37135 0.835874 0
M  V30 3732 H 371.034 -2.80125 0.889228 0
M  V30 3733 H 368.548 -1.51446 0.586323 0
M  V30 3734 H 370.545 -3.96693 -1.28219 0
M  V30 3735 H 369.205 -2.83123 -1.5897 0
M  V30 3736 H 370.216 -4.98104 1.41819 0
M  V30 3737 H 366.893 -4.05571 -0.990872 0
M  V30 3738 H 368.283 -6.28264 2.38188 0
M  V30 3739 N 371.003 -0.499398 -1.49478 0
M  V30 3740 C 372.231 0.0425456 -2.06856 0
M  V30 3741 C 372.646 1.30964 -1.35992 0
M  V30 3742 O 372.003 1.77172 -0.437762 0
M  V30 3743 C 372.054 0.301735 -3.60239 0
M  V30 3744 O 371.775 -0.915127 -4.28436 0
M  V30 3745 C 373.276 0.887499 -4.34325 0
M  V30 3746 H 370.496 -0.0197482 -0.670709 0
M  V30 3747 H 373.04 -0.696297 -1.92281 0
M  V30 3748 H 371.195 0.990556 -3.74522 0
M  V30 3749 H 371.609 -0.676993 -5.20113 0
M  V30 3750 H 373.083 1.01845 -5.42523 0
M  V30 3751 H 373.56 1.88488 -3.96698 0
M  V30 3752 H 374.166 0.236196 -4.24644 0
M  V30 3753 N 372.481 1.55866 -0.233164 0
M  V30 3754 C 373.709 2.02998 0.399905 0
M  V30 3755 C 374.124 1.11274 1.52524 0
M  V30 3756 O 373.481 0.124528 1.82075 0
M  V30 3757 C 373.532 3.4958 0.920639 0
M  V30 3758 O 373.253 4.37808 -0.159834 0
M  V30 3759 C 374.754 4.12411 1.62578 0
M  V30 3760 H 371.974 0.664006 0.0966281 0
M  V30 3761 H 374.518 2.0143 -0.353013 0
M  V30 3762 H 372.673 3.51727 1.62379 0
M  V30 3763 H 373.087 5.23981 0.23337 0
M  V30 3764 H 374.561 5.16711 1.94201 0
M  V30 3765 H 375.038 3.5809 2.54299 0
M  V30 3766 H 375.644 4.14148 0.967553 0
M  V30 3767 N 373.959 -0.0401083 1.57549 0
M  V30 3768 C 374.907 -1.06264 2.06908 0
M  V30 3769 C 375.901 -1.38132 0.980608 0
M  V30 3770 O 377.107 -1.37167 1.16556 0
M  V30 3771 H 373.482 -0.360166 0.660139 0
M  V30 3772 H 375.453 -0.620445 2.91878 0
M  V30 3773 C 374.202 -2.35846 2.55483 0
M  V30 3774 H 373.525 -2.12183 3.38849 0
M  V30 3775 H 374.965 -3.05765 2.93741 0
M  V30 3776 C 373.424 -3.0404 1.45126 0
M  V30 3777 O 373.954 -3.93424 0.811216 0
M  V30 3778 N 372.16 -2.65184 1.18852 0
M  V30 3779 H 371.707 -1.92584 1.71083 0
M  V30 3780 H 371.665 -3.1113 0.452244 0
M  V30 3781 N 375.437 -1.54477 -0.31217 0
M  V30 3782 C 376.683 -1.73483 -1.0503 0
M  V30 3783 C 377.016 -0.513125 -1.87298 0
M  V30 3784 O 376.291 0.489864 -1.8823 0
M  V30 3785 C 376.574 -3.01723 -1.96558 0
M  V30 3786 C 376.427 -4.3417 -1.17545 0
M  V30 3787 C 377.746 -3.25772 -2.95907 0
M  V30 3788 H 374.865 -0.631222 -0.380432 0
M  V30 3789 H 377.507 -1.87184 -0.325932 0
M  V30 3790 H 375.657 -2.90174 -2.58324 0
M  V30 3791 H 377.329 -4.5762 -0.581513 0
M  V30 3792 H 375.572 -4.31159 -0.477925 0
M  V30 3793 H 376.243 -5.20143 -1.84811 0
M  V30 3794 H 378.719 -3.36857 -2.44267 0
M  V30 3795 H 377.595 -4.16838 -3.57123 0
M  V30 3796 H 377.856 -2.43537 -3.68974 0
M  V30 3797 N 376.915 0.57481 -1.46744 0
M  V30 3798 C 378.161 1.3347 -1.52688 0
M  V30 3799 C 378.494 1.93353 -0.181229 0
M  V30 3800 O 377.769 1.76912 0.808237 0
M  V30 3801 C 378.052 2.45811 -2.63152 0
M  V30 3802 C 377.905 1.90912 -4.07275 0
M  V30 3803 C 379.224 3.47822 -2.69644 0
M  V30 3804 H 376.343 0.483935 -0.555856 0
M  V30 3805 H 378.985 0.644968 -1.78718 0
M  V30 3806 H 377.135 3.04646 -2.41088 0
M  V30 3807 H 378.807 1.36473 -4.4065 0
M  V30 3808 H 377.05 1.21691 -4.16382 0
M  V30 3809 H 377.721 2.72042 -4.80309 0
M  V30 3810 H 380.197 2.9888 -2.895 0
M  V30 3811 H 379.073 4.23876 -3.48742 0
M  V30 3812 H 379.334 4.05555 -1.76005 0
M  V30 3813 N 378.394 1.34581 0.820102 0
M  V30 3814 C 379.341 1.2639 1.93117 0
M  V30 3815 C 380.311 0.138554 1.65521 0
M  V30 3816 O 381.496 0.320004 1.88097 0
M  V30 3817 C 378.636 1.02812 3.29429 0
M  V30 3818 C 377.749 2.24146 3.693 0
M  V30 3819 C 376.884 1.93829 4.94574 0
M  V30 3820 C 375.923 3.1129 5.27034 0
M  V30 3821 N 375.06 2.80838 6.43486 0
M  V30 3822 H 379.9 2.21408 1.99455 0
M  V30 3823 H 377.437 1.10077 0.975784 0
M  V30 3824 H 379.395 0.871788 4.0799 0
M  V30 3825 H 378.025 0.114612 3.22596 0
M  V30 3826 H 377.077 2.50691 2.86109 0
M  V30 3827 H 378.389 3.11899 3.89257 0
M  V30 3828 H 377.543 1.74948 5.80929 0
M  V30 3829 H 376.282 1.03341 4.76626 0
M  V30 3830 H 375.287 3.30764 4.39175 0
M  V30 3831 H 376.512 4.02561 5.4692 0
M  V30 3832 H 374.458 1.92929 6.26988 0
M  V30 3833 H 374.375 3.62123 6.63629 0
M  V30 3834 H 375.643 2.65467 7.32903 0
M  V30 3835 N 379.872 -1.04064 1.18357 0
M  V30 3836 C 380.835 -2.10243 0.912707 0
M  V30 3837 C 381.835 -1.60477 -0.101928 0
M  V30 3838 O 383.025 -1.73703 0.131517 0
M  V30 3839 C 380.157 -3.38893 0.369387 0
M  V30 3840 H 381.35 -2.35706 1.85426 0
M  V30 3841 H 378.903 -1.20489 0.995594 0
M  V30 3842 H 379.638 -3.19094 -0.578776 0
M  V30 3843 H 379.423 -3.76331 1.1008 0
M  V30 3844 H 380.913 -4.17128 0.198575 0
M  V30 3845 N 381.35 -0.985608 -1.22978 0
M  V30 3846 C 382.3 -0.50118 -2.22423 0
M  V30 3847 C 383.284 0.426649 -1.5514 0
M  V30 3848 O 384.476 0.254656 -1.75159 0
M  V30 3849 C 381.605 0.190003 -3.42774 0
M  V30 3850 C 380.691 -0.757703 -4.17276 0
M  V30 3851 N 381.082 -1.90251 -4.68656 0
M  V30 3852 C 379.38 -0.57209 -4.42316 0
M  V30 3853 C 380.081 -2.49676 -5.25392 0
M  V30 3854 N 379.057 -1.78013 -5.13627 0
M  V30 3855 H 382.859 -1.37441 -2.59783 0
M  V30 3856 H 380.373 -0.846941 -1.38567 0
M  V30 3857 H 382.37 0.55439 -4.13197 0
M  V30 3858 H 381.03 1.05946 -3.06929 0
M  V30 3859 H 382.041 -2.28354 -4.64839 0
M  V30 3860 H 378.718 0.251909 -4.16739 0
M  V30 3861 H 380.108 -3.46384 -5.75732 0
M  V30 3862 N 382.828 1.3818 -0.7579 0
M  V30 3863 C 384.056 2.04301 -0.326937 0
M  V30 3864 C 384.471 1.57163 1.0462 0
M  V30 3865 O 383.828 0.746626 1.66529 0
M  V30 3866 C 383.879 3.59846 -0.345363 0
M  V30 3867 O 383.6 4.05256 -1.66432 0
M  V30 3868 C 385.101 4.4319 0.098927 0
M  V30 3869 H 382.321 0.656443 -0.139012 0
M  V30 3870 H 384.865 1.76786 -1.02796 0
M  V30 3871 H 383.02 3.86182 0.306955 0
M  V30 3872 H 383.434 4.99709 -1.59345 0
M  V30 3873 H 384.908 5.51989 0.0348745 0
M  V30 3874 H 385.385 4.23947 1.14741 0
M  V30 3875 H 385.991 4.22051 -0.52468 0
M  V30 3876 N 384.306 0.507319 1.49211 0
M  V30 3877 C 385.254 -0.281364 2.30892 0
M  V30 3878 C 386.248 -0.95687 1.39787 0
M  V30 3879 O 387.454 -0.883838 1.56807 0
M  V30 3880 H 383.829 -0.109597 0.743971 0
M  V30 3881 H 385.8 0.42744 2.95323 0
M  V30 3882 C 384.549 -1.32918 3.21291 0
M  V30 3883 H 383.872 -0.818799 3.91326 0
M  V30 3884 H 385.312 -1.85288 3.81372 0
M  V30 3885 C 383.771 -2.35074 2.41333 0
M  V30 3886 O 384.301 -3.4108 2.12197 0
M  V30 3887 N 382.507 -2.07705 2.03241 0
M  V30 3888 H 382.054 -1.2152 2.27136 0
M  V30 3889 H 382.012 -2.76283 1.50051 0
M  V30 3890 N 385.784 -1.5574 0.241426 0
M  V30 3891 C 387.2 -1.59196 -0.113548 0
M  V30 3892 C 387.4 -1.25852 -1.57364 0
M  V30 3893 O 386.456 -1.00322 -2.31715 0
M  V30 3894 C 387.769 -2.99814 0.230695 0
M  V30 3895 C 389.317 -3.12513 0.174547 0
M  V30 3896 C 389.792 -4.55342 0.492744 0
M  V30 3897 N 391.283 -4.61076 0.443043 0
M  V30 3898 C 392.018 -5.6956 0.662484 0
M  V30 3899 N 391.514 -6.86328 0.944761 0
M  V30 3900 N 393.307 -5.58957 0.593564 0
M  V30 3901 H 385.458 -1.75685 1.19368 0
M  V30 3902 H 387.721 -0.81756 0.479896 0
M  V30 3903 H 387.427 -3.28932 1.24485 0
M  V30 3904 H 387.301 -3.74568 -0.444833 0
M  V30 3905 H 389.688 -2.83179 -0.830277 0
M  V30 3906 H 389.769 -2.40045 0.883845 0
M  V30 3907 H 389.413 -4.85396 1.4951 0
M  V30 3908 H 389.343 -5.26062 -0.23797 0
M  V30 3909 H 391.834 -3.77179 0.233374 0
M  V30 3910 H 392.147 -7.64935 1.09977 0
M  V30 3911 H 390.492 -6.88025 0.982175 0
M  V30 3912 H 393.683 -4.66611 0.373123 0
M  V30 3913 H 393.856 -6.43433 0.767981 0
M  V30 3914 N 387.262 0.0317525 -1.57568 0
M  V30 3915 C 388.487 0.738664 -1.938 0
M  V30 3916 C 388.912 1.68242 -0.841208 0
M  V30 3917 O 388.27 1.80157 0.203267 0
M  V30 3918 C 388.318 1.47417 -3.29091 0
M  V30 3919 O 387.422 2.5872 -3.2115 0
M  V30 3920 H 386.763 0.198856 -0.633524 0
M  V30 3921 H 389.293 -0.0119713 -2.04596 0
M  V30 3922 H 389.303 1.84468 -3.63917 0
M  V30 3923 H 387.978 0.781988 -4.08482 0
M  V30 3924 H 386.555 2.24231 -2.97951 0
M  V30 3925 N 388.74 1.54641 0.303973 0
M  V30 3926 C 389.986 1.74038 1.04109 0
M  V30 3927 C 390.319 0.523051 1.87024 0
M  V30 3928 O 389.594 -0.479874 1.88487 0
M  V30 3929 C 389.877 3.02761 1.94955 0
M  V30 3930 C 389.73 4.34787 1.1524 0
M  V30 3931 C 391.049 3.27336 2.94175 0
M  V30 3932 H 388.168 0.63323 0.377079 0
M  V30 3933 H 390.81 1.87354 0.316001 0
M  V30 3934 H 388.96 2.9154 2.56782 0
M  V30 3935 H 390.632 4.57922 0.557236 0
M  V30 3936 H 388.875 4.31407 0.455053 0
M  V30 3937 H 389.546 5.21116 1.8205 0
M  V30 3938 H 392.022 3.38148 2.42477 0
M  V30 3939 H 390.898 4.18726 3.54908 0
M  V30 3940 H 391.159 2.45491 3.67677 0
M  V30 3941 N 390.218 -0.567019 1.47046 0
M  V30 3942 C 391.464 -1.32658 1.53394 0
M  V30 3943 C 391.797 -1.93254 0.19148 0
M  V30 3944 O 391.072 -1.77338 -0.798844 0
M  V30 3945 C 391.355 -2.44412 2.64452 0
M  V30 3946 C 391.208 -1.88749 4.08282 0
M  V30 3947 C 392.527 -3.46387 2.71485 0
M  V30 3948 H 389.646 -0.48098 0.558415 0
M  V30 3949 H 392.288 -0.635481 1.79058 0
M  V30 3950 H 390.438 -3.03363 2.427 0
M  V30 3951 H 392.11 -1.34134 4.41368 0
M  V30 3952 H 390.353 -1.19481 4.17021 0
M  V30 3953 H 391.024 -2.69491 4.81745 0
M  V30 3954 H 393.5 -2.9734 2.91081 0
M  V30 3955 H 392.376 -4.2202 3.50985 0
M  V30 3956 H 392.637 -4.04616 1.78153 0
M  V30 3957 N 391.696 -1.35014 -0.812953 0
M  V30 3958 C 392.606 -1.2951 -1.95613 0
M  V30 3959 C 393.622 -0.20107 -1.72834 0
M  V30 3960 O 394.798 -0.42932 -1.96771 0
M  V30 3961 C 391.863 -1.06033 -3.30088 0
M  V30 3962 C 390.924 -2.24688 -3.65805 0
M  V30 3963 C 390.157 -2.02322 -4.93864 0
M  V30 3964 O 390.38 -0.986464 -5.61805 0
M  V30 3965 O 389.314 -2.89525 -5.27692 0
M  V30 3966 H 393.14 -2.25705 -2.03202 0
M  V30 3967 H 390.725 -1.15321 -0.949811 0
M  V30 3968 H 392.607 -0.94763 -4.10607 0
M  V30 3969 H 391.282 -0.128852 -3.23443 0
M  V30 3970 H 390.189 -2.41521 -2.85689 0
M  V30 3971 H 391.522 -3.16261 -3.77147 0
M  V30 3972 O 393.213 0.951708 -1.30479 0
M  V30 3973 H 393.904 1.58029 -1.12012 0
M  V30 END ATOM
M  V30 BEGIN BOND
M  V30 END BOND
M  V30 END CTAB
M  END
$$$$
