drugbank_target|Q9UBN1 Voltage-dependent calcium channel gamma-4 subunit (DB00153; DB00228; DB00421; DB11148; DB13746)
 OpenBabel12092120593D

  0  0  0     0  0            999 V3000
M  V30 BEGIN CTAB
M  V30 COUNTS 5133 5191 0 0 0
M  V30 BEGIN ATOM
M  V30 1 H -0.908 1.98254 -0.117106 0
M  V30 2 N 0 1.576 0 0
M  V30 3 C 0.933 2.03868 1.02534 0
M  V30 4 C 1.911 0.928543 1.3348 0
M  V30 5 O 3.095 1.19667 1.45644 0
M  V30 6 C 0.222 2.43627 2.35294 0
M  V30 7 C -0.732 3.65373 2.2001 0
M  V30 8 S 0.101 5.13292 1.52614 0
M  V30 9 C 1.257 5.56322 2.86805 0
M  V30 10 H 1.49 2.90518 0.631377 0
M  V30 11 H -0.977 1.52953 0.210867 0
M  V30 12 H 0.981 2.67203 3.11629 0
M  V30 13 H -0.358 1.57376 2.7183 0
M  V30 14 H -1.165 3.90944 3.18086 0
M  V30 15 H -1.563 3.418 1.51819 0
M  V30 16 H 0.729 5.58782 3.83104 0
M  V30 17 H 1.672 6.56266 2.65933 0
M  V30 18 H 2.08 4.83886 2.90714 0
M  V30 19 N 1.4781 -0.272755 1.55222 0
M  V30 20 C 2.7241 -1.00581 1.761 0
M  V30 21 C 3.0571 -1.85932 0.560625 0
M  V30 22 O 2.3321 -1.89416 -0.441801 0
M  V30 23 C 2.6151 -1.88816 3.06628 0
M  V30 24 C 2.4681 -1.06457 4.37021 0
M  V30 25 C 3.7871 -2.8752 3.33197 0
M  V30 26 H 0.9061 -0.364244 0.640699 0
M  V30 27 H 3.5481 -0.278189 1.87952 0
M  V30 28 H 1.6981 -2.50856 2.96654 0
M  V30 29 H 3.3701 -0.464863 4.58952 0
M  V30 30 H 1.6131 -0.368043 4.32236 0
M  V30 31 H 2.2841 -1.71514 5.24678 0
M  V30 32 H 4.7601 -2.35615 3.42965 0
M  V30 33 H 3.6361 -3.46399 4.25792 0
M  V30 34 H 3.8971 -3.62657 2.52849 0
M  V30 35 N 2.9562 -1.48159 -0.537278 0
M  V30 36 C 4.3722 -1.34118 -0.865129 0
M  V30 37 C 4.5722 -0.346678 -1.98495 0
M  V30 38 O 3.6282 0.234715 -2.51407 0
M  V30 39 C 4.9412 -2.73963 -1.23954 0
M  V30 40 C 6.4892 -2.82397 -1.34984 0
M  V30 41 C 6.9642 -4.22928 -1.75772 0
M  V30 42 N 8.4552 -4.25566 -1.82887 0
M  V30 43 C 9.1902 -5.31235 -2.15817 0
M  V30 44 N 8.6862 -6.47189 -2.47222 0
M  V30 45 N 10.4792 -5.18624 -2.16761 0
M  V30 46 H 2.6302 -2.1144 0.201715 0
M  V30 47 H 4.8932 -0.947598 0.0275949 0
M  V30 48 H 4.5992 -3.48264 -0.490381 0
M  V30 49 H 4.4732 -3.0702 -2.19132 0
M  V30 50 H 6.8602 -2.08356 -2.08978 0
M  V30 51 H 6.9412 -2.5297 -0.379448 0
M  V30 52 H 6.5852 -4.97482 -1.02341 0
M  V30 53 H 6.5152 -4.49794 -2.73848 0
M  V30 54 H 9.0062 -3.41924 -1.60924 0
M  V30 55 H 9.3192 -7.23564 -2.71433 0
M  V30 56 H 7.6642 -6.50476 -2.44757 0
M  V30 57 H 10.8552 -4.27056 -1.91679 0
M  V30 58 H 11.0282 -6.01078 -2.42093 0
M  V30 59 N 4.4343 0.785586 -1.36625 0
M  V30 60 C 5.6743 1.55678 -1.32453 0
M  V30 61 C 6.0383 1.91769 0.0941089 0
M  V30 62 O 7.2393 2.67536 0.26042 0
M  V30 63 C 5.5103 2.79701 -2.22491 0
M  V30 64 S 7.0693 3.69907 -2.36038 0
M  V30 65 H 3.8873 0.533141 -0.470405 0
M  V30 66 H 6.4893 0.924953 -1.72235 0
M  V30 67 H 5.1933 2.51244 -3.24507 0
M  V30 68 H 4.7243 3.47854 -1.83742 0
M  V30 69 H 6.7393 4.71016 -1.56072 0
M  V30 70 N 5.9124 1.20967 1.01018 0
M  V30 71 C 7.1894 0.93264 1.71934 0
M  V30 72 C 7.5694 -0.55692 2.03621 0
M  V30 73 O 6.9174 -1.52035 1.7058 0
M  V30 74 C 7.1274 1.81233 2.98254 0
M  V30 75 C 8.4754 2.05804 3.71389 0
M  V30 76 O 9.4994 1.78539 3.08225 0
M  V30 77 O 8.3584 2.51888 4.84989 0
M  V30 78 H 5.4524 0.349272 0.749625 0
M  V30 79 H 7.9984 1.31871 1.06808 0
M  V30 80 H 6.7704 2.82067 2.71208 0
M  V30 81 H 6.3934 1.42674 3.7112 0
M  V30 82 N 7.3905 -1.2043 1.01659 0
M  V30 83 C 8.8065 -1.41852 0.731442 0
M  V30 84 C 9.0065 -1.89358 -0.688898 0
M  V30 85 O 8.0625 -2.06247 -1.45666 0
M  V30 86 C 9.3755 -2.44019 1.75714 0
M  V30 87 C 10.9235 -2.57785 1.77527 0
M  V30 88 C 11.3985 -3.63194 2.79023 0
M  V30 89 N 12.8895 -3.70678 2.77763 0
M  V30 90 C 13.6245 -4.51897 3.52954 0
M  V30 91 N 13.1205 -5.36921 4.37821 0
M  V30 92 N 14.9135 -4.4643 3.41551 0
M  V30 93 H 7.0645 -0.879093 1.93354 0
M  V30 94 H 9.3275 -0.448425 0.835236 0
M  V30 95 H 9.0335 -2.1611 2.77469 0
M  V30 96 H 8.9075 -3.43007 1.56927 0
M  V30 97 H 11.2945 -2.85023 0.764569 0
M  V30 98 H 11.3755 -1.58992 2.00387 0
M  V30 99 H 11.0195 -3.36699 3.80258 0
M  V30 100 H 10.9495 -4.61609 2.53425 0
M  V30 101 H 13.4405 -3.09944 2.16201 0
M  V30 102 H 13.7535 -5.95981 4.91962 0
M  V30 103 H 12.0985 -5.36424 4.41899 0
M  V30 104 H 15.2895 -3.79042 2.74672 0
M  V30 105 H 15.4625 -5.09491 4.00404 0
M  V30 106 N 8.8686 -0.792821 -1.36206 0
M  V30 107 C 10.1166 -0.366062 -1.98757 0
M  V30 108 C 10.4376 1.0668 -1.63231 0
M  V30 109 O 9.7076 1.73587 -0.907978 0
M  V30 110 H 8.2876 -0.132364 -0.735179 0
M  V30 111 H 10.9496 -1.01562 -1.66347 0
M  V30 112 H 10.0456 -0.460638 -3.08682 0
M  V30 113 N 10.3467 1.47872 -0.545128 0
M  V30 114 C 11.2767 2.32661 0.197793 0
M  V30 115 C 12.2577 1.43041 0.920504 0
M  V30 116 O 13.4427 1.71912 0.90333 0
M  V30 117 C 10.5727 3.24569 1.23582 0
M  V30 118 C 9.5267 4.23333 0.630323 0
M  V30 119 C 8.8527 5.0448 1.77211 0
M  V30 120 C 10.1527 5.20704 -0.407974 0
M  V30 121 H 11.8467 2.95024 -0.510045 0
M  V30 122 H 9.3927 1.4187 -0.246731 0
M  V30 123 H 11.3457 3.8272 1.76362 0
M  V30 124 H 10.0697 2.60236 1.97344 0
M  V30 125 H 8.7287 3.6639 0.123922 0
M  V30 126 H 8.3767 4.36561 2.49847 0
M  V30 127 H 8.0767 5.71339 1.37281 0
M  V30 128 H 9.6007 5.65487 2.3034 0
M  V30 129 H 11.0147 5.7329 0.033305 0
M  V30 130 H 9.4117 5.95699 -0.725486 0
M  V30 131 H 10.4817 4.66917 -1.30828 0
M  V30 132 N 11.8248 0.280983 1.55075 0
M  V30 133 C 12.7568 -0.637268 2.20163 0
M  V30 134 C 13.7698 -1.11298 1.18813 0
M  V30 135 O 14.9588 -1.03388 1.4551 0
M  V30 136 C 12.0588 -1.88199 2.81841 0
M  V30 137 C 11.2318 -1.55211 4.08936 0
M  V30 138 C 10.2908 -2.64991 4.54606 0
M  V30 139 O 9.3168 -2.30929 5.2025 0
M  V30 140 N 10.5188 -3.95161 4.25238 0
M  V30 141 H 13.2838 -0.0801694 2.99593 0
M  V30 142 H 10.8448 0.102329 1.61576 0
M  V30 143 H 12.8368 -2.60948 3.09335 0
M  V30 144 H 11.4068 -2.34799 2.06369 0
M  V30 145 H 10.6268 -0.658185 3.88666 0
M  V30 146 H 11.9148 -1.30681 4.91732 0
M  V30 147 H 11.3128 -4.25653 3.72607 0
M  V30 148 H 9.8698 -4.6427 4.5749 0
M  V30 149 N 13.3029 -1.57598 0.00835791 0
M  V30 150 C 14.2359 -2.04409 -1.01451 0
M  V30 151 C 15.2139 -0.935609 -1.32985 0
M  V30 152 O 16.3979 -1.20437 -1.45007 0
M  V30 153 C 13.5249 -2.44872 -2.33999 0
M  V30 154 C 12.5709 -3.66535 -2.18069 0
M  V30 155 S 13.4039 -5.14095 -1.4989 0
M  V30 156 C 14.5599 -5.57835 -2.8385 0
M  V30 157 H 14.7929 -2.90849 -0.615961 0
M  V30 158 H 12.3259 -1.53063 -0.202752 0
M  V30 159 H 14.2839 -2.68852 -3.10208 0
M  V30 160 H 12.9449 -1.58815 -2.70992 0
M  V30 161 H 12.1379 -3.92626 -3.16008 0
M  V30 162 H 11.7399 -3.426 -1.50004 0
M  V30 163 H 14.0319 -5.60806 -3.80136 0
M  V30 164 H 14.9749 -6.57667 -2.62449 0
M  V30 165 H 15.3829 -4.85421 -2.88144 0
M  V30 166 N 14.781 0.264519 -1.55364 0
M  V30 167 C 15.711 1.33121 -1.91836 0
M  V30 168 C 16.692 1.51101 -0.781192 0
M  V30 169 O 17.877 1.64003 -1.04003 0
M  V30 170 C 15.007 2.68921 -2.19769 0
M  V30 171 C 13.961 2.65661 -3.35571 0
M  V30 172 C 13.287 4.05093 -3.49004 0
M  V30 173 C 14.587 2.24187 -4.71739 0
M  V30 174 H 16.281 1.02844 -2.81182 0
M  V30 175 H 13.827 0.493286 -1.35287 0
M  V30 176 H 15.78 3.43663 -2.43872 0
M  V30 177 H 14.504 3.00799 -1.27231 0
M  V30 178 H 13.163 1.93377 -3.1145 0
M  V30 179 H 12.811 4.34206 -2.53917 0
M  V30 180 H 12.511 4.03804 -4.26868 0
M  V30 181 H 14.035 4.81561 -3.75408 0
M  V30 182 H 15.449 2.88654 -4.9533 0
M  V30 183 H 13.846 2.34044 -5.52579 0
M  V30 184 H 14.916 1.19327 -4.69988 0
M  V30 185 N 16.2591 1.48442 0.529413 0
M  V30 186 C 17.1891 1.65902 1.64313 0
M  V30 187 C 18.1701 0.507897 1.6234 0
M  V30 188 O 19.3551 0.740503 1.79528 0
M  V30 189 C 16.4851 1.69911 3.02898 0
M  V30 190 C 15.4391 2.8453 3.19729 0
M  V30 191 C 14.7651 2.73629 4.59381 0
M  V30 192 C 16.0651 4.25821 3.02447 0
M  V30 193 H 17.7591 2.5914 1.49955 0
M  V30 194 H 15.3051 1.24709 0.719982 0
M  V30 195 H 17.2581 1.80715 3.80684 0
M  V30 196 H 15.9821 0.732524 3.18279 0
M  V30 197 H 14.6411 2.73283 2.44361 0
M  V30 198 H 14.2891 1.74938 4.71599 0
M  V30 199 H 13.9891 3.50541 4.71588 0
M  V30 200 H 15.5131 2.86401 5.39265 0
M  V30 201 H 16.9271 4.37898 3.70024 0
M  V30 202 H 15.3241 5.03735 3.26146 0
M  V30 203 H 16.3941 4.42244 1.98867 0
M  V30 204 N 17.7372 -0.778329 1.37039 0
M  V30 205 C 18.9652 -1.56734 1.35063 0
M  V30 206 C 19.3802 -1.88686 -0.0655597 0
M  V30 207 O 18.7372 -1.5096 -1.02554 0
M  V30 208 C 18.7882 -2.88163 2.18276 0
M  V30 209 O 18.5092 -2.57583 3.54376 0
M  V30 210 C 20.0102 -3.82422 2.24206 0
M  V30 211 H 17.2302 -0.485778 0.462883 0
M  V30 212 H 19.7742 -0.965185 1.8029 0
M  V30 213 H 17.9292 -3.44818 1.76576 0
M  V30 214 H 18.3432 -3.41699 3.97922 0
M  V30 215 H 19.8172 -4.71667 2.86765 0
M  V30 216 H 20.2942 -4.21078 1.24861 0
M  V30 217 H 20.9002 -3.31697 2.6619 0
M  V30 218 N 19.2153 -1.21501 -1.00376 0
M  V30 219 C 20.4433 -1.059 -1.77744 0
M  V30 220 C 20.8583 0.391125 -1.84704 0
M  V30 221 O 20.2153 1.27133 -1.30933 0
M  V30 222 C 20.2663 -1.65111 -3.21591 0
M  V30 223 O 19.9873 -3.0445 -3.15027 0
M  V30 224 C 21.4883 -1.54637 -4.15454 0
M  V30 225 H 18.7083 -0.371825 -0.558558 0
M  V30 226 H 21.2523 -1.60865 -1.26264 0
M  V30 227 H 19.4073 -1.14235 -3.70175 0
M  V30 228 H 19.8213 -3.3278 -4.0541 0
M  V30 229 H 21.2953 -2.00808 -5.14179 0
M  V30 230 H 21.7723 -0.501022 -4.36333 0
M  V30 231 H 22.3783 -2.04767 -3.72761 0
M  V30 232 N 20.6934 1.19889 -1.02296 0
M  V30 233 C 21.6564 2.21116 -0.603351 0
M  V30 234 C 22.6564 1.5738 0.329884 0
M  V30 235 O 23.8464 1.73802 0.117702 0
M  V30 236 C 20.9784 3.40696 0.117992 0
M  V30 237 H 22.1714 2.59754 -1.49893 0
M  V30 238 H 19.7244 1.33463 -0.813468 0
M  V30 239 H 20.4594 3.07569 1.0282 0
M  V30 240 H 20.2444 3.88188 -0.552511 0
M  V30 241 H 21.7344 4.15692 0.398696 0
M  V30 242 N 22.1715 0.800033 1.35784 0
M  V30 243 C 23.4195 0.376597 1.9856 0
M  V30 244 C 23.7405 -1.05812 1.63795 0
M  V30 245 O 23.0105 -1.73103 0.917171 0
M  V30 246 H 21.5905 0.136261 0.734467 0
M  V30 247 H 24.2525 1.02442 1.65806 0
M  V30 248 H 23.3485 0.477002 3.08433 0
M  V30 249 N 23.6496 -1.47581 0.552962 0
M  V30 250 C 24.6126 -2.28439 -0.186605 0
M  V30 251 C 25.6126 -1.36706 -0.84665 0
M  V30 252 O 26.8026 -1.59378 -0.703164 0
M  V30 253 C 23.9346 -3.16264 -1.2724 0
M  V30 254 H 25.1276 -2.95294 0.523609 0
M  V30 255 H 22.6806 -1.532 0.309745 0
M  V30 256 H 23.4156 -2.54091 -2.01514 0
M  V30 257 H 23.2006 -3.83769 -0.803968 0
M  V30 258 H 24.6906 -3.77198 -1.79196 0
M  V30 259 N 25.1277 -0.289203 -1.54924 0
M  V30 260 C 26.3747 0.323519 -1.99899 0
M  V30 261 C 26.7027 1.54797 -1.17762 0
M  V30 262 O 25.9577 1.94237 -0.238835 0
M  V30 263 C 26.2567 0.736119 -3.49737 0
M  V30 264 C 25.9227 -0.385276 -4.49251 0
M  V30 265 C 24.5847 -0.693156 -4.76181 0
M  V30 266 C 26.9367 -1.14021 -5.08575 0
M  V30 267 C 24.2647 -1.7593 -5.59701 0
M  V30 268 C 26.6167 -2.19619 -5.93254 0
M  V30 269 C 25.2807 -2.51026 -6.185 0
M  V30 270 H 24.5507 0.118384 -0.731482 0
M  V30 271 H 27.1977 -0.405847 -1.8715 0
M  V30 272 H 25.5027 1.54539 -3.60035 0
M  V30 273 H 27.1997 1.22118 -3.81953 0
M  V30 274 H 23.7897 -0.135202 -4.28387 0
M  V30 275 H 27.9737 -0.915611 -4.87781 0
M  V30 276 H 23.2297 -2.0075 -5.77503 0
M  V30 277 H 27.4037 -2.78581 -6.38252 0
M  V30 278 H 25.0307 -3.33772 -6.83008 0
M  V30 279 N 26.6058 1.57591 -0.0167156 0
M  V30 280 C 27.5688 2.08393 0.954204 0
M  V30 281 C 28.5688 0.996531 1.26198 0
M  V30 282 O 29.7588 1.25858 1.20438 0
M  V30 283 C 26.8908 2.5394 2.27436 0
M  V30 284 H 28.0838 2.95455 0.514451 0
M  V30 285 H 25.6368 1.54582 0.231089 0
M  V30 286 H 26.3718 1.70171 2.76066 0
M  V30 287 H 26.1568 3.33371 2.06412 0
M  V30 288 H 27.6468 2.93512 2.97053 0
M  V30 289 N 28.0839 -0.256276 1.55502 0
M  V30 290 C 29.0469 -1.30047 1.88734 0
M  V30 291 C 30.0469 -1.4154 0.763086 0
M  V30 292 O 31.2369 -1.40403 1.03115 0
M  V30 293 C 28.3689 -2.67953 2.10747 0
M  V30 294 H 29.5619 -1.01802 2.82093 0
M  V30 295 H 27.1149 -0.495134 1.4825 0
M  V30 296 H 27.8499 -3.01351 1.19825 0
M  V30 297 H 27.6349 -2.60993 2.92617 0
M  V30 298 H 29.1249 -3.43368 2.37673 0
M  V30 299 N 29.562 -1.4872 -0.521534 0
M  V30 300 C 30.809 -1.57168 -1.27689 0
M  V30 301 C 31.137 -0.249275 -1.92896 0
M  V30 302 O 30.392 0.761162 -1.80291 0
M  V30 303 C 30.691 -2.66497 -2.38148 0
M  V30 304 C 30.357 -4.08664 -1.90538 0
M  V30 305 C 29.019 -4.47357 -1.77271 0
M  V30 306 C 31.371 -4.97724 -1.54663 0
M  V30 307 C 28.699 -5.72905 -1.26478 0
M  V30 308 C 31.051 -6.2377 -1.05329 0
M  V30 309 C 29.715 -6.61311 -0.906861 0
M  V30 310 H 28.985 -0.575117 -0.467249 0
M  V30 311 H 31.632 -1.82472 -0.581051 0
M  V30 312 H 29.937 -2.35085 -3.13437 0
M  V30 313 H 31.634 -2.70246 -2.96257 0
M  V30 314 H 28.224 -3.78111 -2.01816 0
M  V30 315 H 32.408 -4.68501 -1.63768 0
M  V30 316 H 27.664 -6.00709 -1.13835 0
M  V30 317 H 31.838 -6.9217 -0.76644 0
M  V30 318 H 29.465 -7.5848 -0.511083 0
M  V30 319 N 31.0401 0.771051 -1.3745 0
M  V30 320 C 32.2651 1.56529 -1.36065 0
M  V30 321 C 32.6901 1.88029 0.0515859 0
M  V30 322 O 32.0481 1.49282 1.02882 0
M  V30 323 C 32.0961 2.85187 -2.20683 0
M  V30 324 O 31.2001 3.79593 -1.61193 0
M  V30 325 H 30.5411 0.47411 -0.464883 0
M  V30 326 H 33.0711 0.954269 -1.80983 0
M  V30 327 H 33.0811 3.34283 -2.33921 0
M  V30 328 H 31.7561 2.61588 -3.23334 0
M  V30 329 H 30.3331 3.38239 -1.56999 0
M  V30 330 N 32.5182 1.22032 0.997298 0
M  V30 331 C 33.4482 1.01065 2.10495 0
M  V30 332 C 34.4292 -0.0669542 1.69968 0
M  V30 333 O 35.6142 0.0943987 1.9397 0
M  V30 334 C 32.7442 0.582874 3.42374 0
M  V30 335 C 31.6982 1.60592 3.96729 0
M  V30 336 C 31.0242 1.03412 5.24605 0
M  V30 337 C 32.3242 2.99478 4.27914 0
M  V30 338 H 34.0182 1.93708 2.28292 0
M  V30 339 H 31.5642 0.932761 1.09707 0
M  V30 340 H 33.5172 0.423332 4.19268 0
M  V30 341 H 32.2412 -0.379213 3.24391 0
M  V30 342 H 30.9002 1.75316 3.21963 0
M  V30 343 H 30.5482 0.063518 5.0296 0
M  V30 344 H 30.2482 1.71754 5.61938 0
M  V30 345 H 31.7722 0.886066 6.04137 0
M  V30 346 H 33.1862 2.88153 4.95622 0
M  V30 347 H 31.5832 3.64903 4.76409 0
M  V30 348 H 32.6532 3.49742 3.3587 0
M  V30 349 N 33.9963 -1.19345 1.0293 0
M  V30 350 C 34.9293 -2.21347 0.555029 0
M  V30 351 C 35.9073 -1.57492 -0.404351 0
M  V30 352 O 37.0913 -1.85741 -0.321352 0
M  V30 353 C 34.2183 -3.38163 -0.19064 0
M  V30 354 C 33.2643 -4.20375 0.720236 0
M  V30 355 S 34.0973 -4.88371 2.19668 0
M  V30 356 C 35.2533 -6.08597 1.46153 0
M  V30 357 H 35.4863 -2.61235 1.41929 0
M  V30 358 H 33.0193 -1.29598 0.839272 0
M  V30 359 H 34.9773 -4.05871 -0.614724 0
M  V30 360 H 33.6383 -2.9671 -1.03063 0
M  V30 361 H 32.8313 -5.03793 0.14455 0
M  V30 362 H 32.4333 -3.57987 1.08266 0
M  V30 363 H 34.7253 -6.73354 0.748357 0
M  V30 364 H 35.6683 -6.7065 2.27233 0
M  V30 365 H 36.0763 -5.56297 0.958842 0
M  V30 366 N 35.4744 -0.807222 -1.35358 0
M  V30 367 C 36.4374 -0.223665 -2.28106 0
M  V30 368 C 37.4374 0.589354 -1.4961 0
M  V30 369 O 38.6274 0.407745 -1.69361 0
M  V30 370 C 35.7594 0.688149 -3.33882 0
M  V30 371 H 36.9524 -1.04169 -2.81227 0
M  V30 372 H 34.5054 -0.577921 -1.45223 0
M  V30 373 H 35.2404 1.52984 -2.85948 0
M  V30 374 H 35.0254 0.10687 -3.91954 0
M  V30 375 H 36.5154 1.09075 -4.03104 0
M  V30 376 N 36.9525 1.47285 -0.560781 0
M  V30 377 C 38.2015 2.01668 -0.035895 0
M  V30 378 C 38.5145 1.44021 1.32353 0
M  V30 379 O 39.7205 1.90088 1.93853 0
M  V30 380 C 38.1765 3.59897 -0.0136659 0
M  V30 381 C 37.7845 4.26536 -1.37006 0
M  V30 382 C 39.5285 4.22017 0.458425 0
M  V30 383 C 37.4355 5.76782 -1.30675 0
M  V30 384 H 36.3655 0.753938 -0.00964879 0
M  V30 385 H 39.0165 1.69243 -0.709166 0
M  V30 386 H 37.3985 3.89301 0.725325 0
M  V30 387 H 38.5725 4.0877 -2.12705 0
M  V30 388 H 36.8875 3.76419 -1.78038 0
M  V30 389 H 39.4845 5.32124 0.524247 0
M  V30 390 H 39.8275 3.89437 1.4712 0
M  V30 391 H 40.3605 3.97159 -0.225818 0
M  V30 392 H 37.0995 6.13988 -2.29564 0
M  V30 393 H 36.6195 5.96875 -0.591622 0
M  V30 394 H 38.2985 6.39063 -1.01033 0
M  V30 395 N 38.4306 0.297415 1.54768 0
M  V30 396 C 39.3936 -0.567375 2.22066 0
M  V30 397 C 40.3936 -1.06409 1.20556 0
M  V30 398 O 41.5836 -0.960691 1.45315 0
M  V30 399 C 38.7156 -1.78517 2.90421 0
M  V30 400 H 39.9086 0.0205534 2.99893 0
M  V30 401 H 37.4616 0.0482163 1.56226 0
M  V30 402 H 38.1966 -2.41303 2.16664 0
M  V30 403 H 37.9816 -1.43669 3.64831 0
M  V30 404 H 39.4716 -2.39964 3.41771 0
M  V30 405 N 39.9087 -1.5758 0.0250728 0
M  V30 406 C 41.1577 -1.90811 -0.653767 0
M  V30 407 C 41.4707 -0.90273 -1.73523 0
M  V30 408 O 42.6767 -1.12614 -2.47043 0
M  V30 409 C 41.1327 -3.38804 -1.21409 0
M  V30 410 C 40.7407 -4.47692 -0.166126 0
M  V30 411 C 42.4847 -3.81108 -1.86967 0
M  V30 412 C 40.3917 -5.86779 -0.737856 0
M  V30 413 H 39.3217 -0.712063 -0.247956 0
M  V30 414 H 41.9727 -1.83281 0.0897137 0
M  V30 415 H 40.3547 -3.41252 -2.00905 0
M  V30 416 H 41.5287 -4.56797 0.606079 0
M  V30 417 H 39.8437 -4.14565 0.390466 0
M  V30 418 H 42.4407 -4.82375 -2.30692 0
M  V30 419 H 42.7837 -3.15953 -2.71071 0
M  V30 420 H 43.3167 -3.81065 -1.14167 0
M  V30 421 H 40.0557 -6.55468 0.0649577 0
M  V30 422 H 39.5757 -5.81288 -1.47864 0
M  V30 423 H 41.2547 -6.35223 -1.22884 0
M  V30 424 N 41.3868 0.248026 -1.55636 0
M  V30 425 C 42.6348 0.974295 -1.77065 0
M  V30 426 C 42.9558 1.85897 -0.588849 0
M  V30 427 O 42.2258 1.91868 0.395407 0
M  V30 428 H 40.8058 0.362733 -0.653019 0
M  V30 429 H 43.4678 0.266244 -1.93073 0
M  V30 430 H 42.5638 1.59667 -2.68166 0
M  V30 431 N 42.8649 1.48995 0.513639 0
M  V30 432 C 44.0929 1.61531 1.29288 0
M  V30 433 C 44.5079 0.281801 1.86685 0
M  V30 434 O 43.8649 -0.731111 1.67215 0
M  V30 435 C 43.9159 2.67449 2.43215 0
M  V30 436 O 43.6369 3.95626 1.88179 0
M  V30 437 C 45.1379 2.90575 3.34785 0
M  V30 438 H 42.3579 0.544165 0.392588 0
M  V30 439 H 44.9019 1.9494 0.617956 0
M  V30 440 H 43.0569 2.36853 3.0656 0
M  V30 441 H 43.4709 4.53868 2.62876 0
M  V30 442 H 44.9449 3.68449 4.11035 0
M  V30 443 H 45.4219 2.00011 3.91015 0
M  V30 444 H 46.0279 3.22538 2.77218 0
M  V30 445 N 44.343 -0.763751 1.37857 0
M  V30 446 C 45.62 -1.51244 1.24035 0
M  V30 447 C 46 -2.10472 -0.162649 0
M  V30 448 O 45.348 -1.96206 -1.17112 0
M  V30 449 C 45.558 -2.58694 2.34261 0
M  V30 450 C 46.906 -3.25878 2.72193 0
M  V30 451 O 47.93 -2.68993 2.33497 0
M  V30 452 O 46.789 -4.2874 3.38887 0
M  V30 453 H 43.883 -0.670243 0.484462 0
M  V30 454 H 46.429 -0.800031 1.49658 0
M  V30 455 H 45.201 -2.13105 3.2818 0
M  V30 456 H 44.824 -3.37527 2.10146 0
M  V30 457 N 45.8211 -1.22559 -0.990812 0
M  V30 458 C 47.0511 -1.07623 -1.76355 0
M  V30 459 C 47.4591 0.37601 -1.85426 0
M  V30 460 O 46.8021 1.27228 -1.32509 0
M  V30 461 C 46.8641 -1.61507 -3.21179 0
M  V30 462 C 46.5281 -3.10146 -3.35646 0
M  V30 463 C 47.5251 -4.07553 -3.22796 0
M  V30 464 C 45.2101 -3.49644 -3.60631 0
M  V30 465 C 47.2041 -5.42442 -3.34716 0
M  V30 466 C 44.8911 -4.84682 -3.72192 0
M  V30 467 C 45.8891 -5.8089 -3.59243 0
M  V30 468 O 45.5771 -7.13476 -3.70415 0
M  V30 469 H 45.3091 -0.377745 -0.560611 0
M  V30 470 H 47.8631 -1.62658 -1.25425 0
M  V30 471 H 46.0931 -1.00881 -3.73309 0
M  V30 472 H 47.7821 -1.42202 -3.80175 0
M  V30 473 H 48.5481 -3.78381 -3.03403 0
M  V30 474 H 44.4271 -2.75282 -3.69785 0
M  V30 475 H 47.9711 -6.17518 -3.24526 0
M  V30 476 H 43.8681 -5.13534 -3.91092 0
M  V30 477 H 44.6361 -7.21083 -3.87275 0
M  V30 478 N 47.2992 1.18797 -1.03562 0
M  V30 479 C 48.5452 1.89192 -0.746867 0
M  V30 480 C 48.9002 1.78531 0.717245 0
M  V30 481 O 48.1932 1.17137 1.51622 0
M  V30 482 C 48.3872 3.38692 -1.14117 0
M  V30 483 C 48.2162 3.63902 -2.64207 0
M  V30 484 C 46.9862 3.81553 -3.31279 0
M  V30 485 C 49.1842 3.64903 -3.62423 0
M  V30 486 N 47.1662 3.94455 -4.70402 0
M  V30 487 C 48.5372 3.83458 -4.87196 0
M  V30 488 C 50.5922 3.47965 -3.56125 0
M  V30 489 C 49.2952 3.86829 -6.06429 0
M  V30 490 C 51.3212 3.52616 -4.7478 0
M  V30 491 C 50.6832 3.71663 -5.9837 0
M  V30 492 H 46.7822 0.711141 -0.325273 0
M  V30 493 H 49.3662 1.42727 -1.32428 0
M  V30 494 H 47.5372 3.83864 -0.591889 0
M  V30 495 H 49.2692 3.96634 -0.803966 0
M  V30 496 H 46.0242 3.80723 -2.81686 0
M  V30 497 H 46.4482 4.0474 -5.42692 0
M  V30 498 H 51.0902 3.32189 -2.61553 0
M  V30 499 H 48.8082 4.01395 -7.01362 0
M  V30 500 H 52.3942 3.40791 -4.71543 0
M  V30 501 H 51.2742 3.75145 -6.88648 0
M  V30 502 N 48.7773 0.814389 1.34928 0
M  V30 503 C 49.7073 0.244827 2.32213 0
M  V30 504 C 50.6883 -0.634024 1.57842 0
M  V30 505 O 51.8733 -0.562676 1.8587 0
M  V30 506 C 49.0033 -0.601106 3.42058 0
M  V30 507 C 47.9573 0.179896 4.27622 0
M  V30 508 C 47.2833 -0.788237 5.28858 0
M  V30 509 C 48.5833 1.38329 5.03649 0
M  V30 510 H 50.2773 1.05763 2.80097 0
M  V30 511 H 47.8233 0.510029 1.34665 0
M  V30 512 H 49.7763 -1.00968 4.09125 0
M  V30 513 H 48.5003 -1.44688 2.92802 0
M  V30 514 H 47.1593 0.569739 3.62146 0
M  V30 515 H 46.8073 -1.62973 4.75866 0
M  V30 516 H 46.5073 -0.269942 5.8698 0
M  V30 517 H 48.0313 -1.19485 5.98795 0
M  V30 518 H 49.4453 1.04918 5.63618 0
M  V30 519 H 47.8423 1.83662 5.71304 0
M  V30 520 H 48.9123 2.16592 4.33839 0
M  V30 521 N 50.2554 -1.46986 0.568584 0
M  V30 522 C 51.4854 -2.0653 0.0539173 0
M  V30 523 C 51.8934 -1.42004 -1.25026 0
M  V30 524 O 51.2364 -0.514541 -1.76347 0
M  V30 525 C 51.2984 -3.58938 -0.200854 0
M  V30 526 C 50.9624 -4.45572 1.01559 0
M  V30 527 C 51.9594 -4.82986 1.92407 0
M  V30 528 C 49.6444 -4.8692 1.23346 0
M  V30 529 C 51.6384 -5.60559 3.03402 0
M  V30 530 C 49.3254 -5.64255 2.34649 0
M  V30 531 C 50.3234 -6.00986 3.24507 0
M  V30 532 O 50.0114 -6.76761 4.33878 0
M  V30 533 H 49.7434 -0.674292 0.0480234 0
M  V30 534 H 52.2974 -1.89812 0.784896 0
M  V30 535 H 50.5274 -3.73911 -0.986279 0
M  V30 536 H 52.2164 -4.0046 -0.662294 0
M  V30 537 H 52.9824 -4.51633 1.76785 0
M  V30 538 H 48.8614 -4.57789 0.543178 0
M  V30 539 H 52.4054 -5.89147 3.73565 0
M  V30 540 H 48.3024 -5.95021 2.5024 0
M  V30 541 H 49.0704 -6.95168 4.32068 0
M  V30 542 N 51.7335 -0.305618 -1.54608 0
M  V30 543 C 52.9585 0.307562 -2.05107 0
M  V30 544 C 53.3835 1.46385 -1.18123 0
M  V30 545 O 52.7415 1.8034 -0.186324 0
M  V30 546 C 52.7895 0.73704 -3.52987 0
M  V30 547 O 51.8935 1.84134 -3.6901 0
M  V30 548 H 51.2345 0.0589143 -0.661381 0
M  V30 549 H 53.7645 -0.448807 -1.99617 0
M  V30 550 H 53.7745 1.02459 -3.94925 0
M  V30 551 H 52.4495 -0.108773 -4.15758 0
M  V30 552 H 51.0265 1.55398 -3.38978 0
M  V30 553 N 53.2116 1.57565 -0.0334293 0
M  V30 554 C 54.4366 1.96689 0.657895 0
M  V30 555 C 54.8616 0.910057 1.64619 0
M  V30 556 O 54.2196 -0.128598 1.80843 0
M  V30 557 C 54.2676 3.34905 1.33683 0
M  V30 558 O 53.3716 3.31574 2.45219 0
M  V30 559 H 52.7126 0.641205 0.172489 0
M  V30 560 H 55.2426 2.04372 -0.0965621 0
M  V30 561 H 55.2526 3.71234 1.69262 0
M  V30 562 H 53.9276 4.11366 0.612411 0
M  V30 563 H 52.5046 3.06968 2.11719 0
M  V30 564 N 54.6897 -0.239769 1.55765 0
M  V30 565 C 55.6527 -1.28038 1.90103 0
M  V30 566 C 56.6527 -1.40723 0.778055 0
M  V30 567 O 57.8427 -1.39301 1.04599 0
M  V30 568 C 54.9747 -2.65702 2.13577 0
M  V30 569 H 56.1677 -0.988048 2.83157 0
M  V30 570 H 53.7207 -0.479382 1.48767 0
M  V30 571 H 54.4557 -3.00063 1.23015 0
M  V30 572 H 54.2407 -2.57875 2.95369 0
M  V30 573 H 55.7307 -3.40828 2.41301 0
M  V30 574 N 56.1678 -1.49265 -0.50573 0
M  V30 575 C 57.1178 -1.6198 -1.60457 0
M  V30 576 C 58.1018 -0.47568 -1.53708 0
M  V30 577 O 59.2938 -0.728392 -1.61318 0
M  V30 578 C 56.4228 -1.68526 -2.99089 0
M  V30 579 C 55.5088 -2.885 -3.10852 0
M  V30 580 N 55.8998 -4.12635 -2.92517 0
M  V30 581 C 54.1978 -2.86338 -3.41945 0
M  V30 582 C 54.8988 -4.93258 -3.08337 0
M  V30 583 N 53.8748 -4.26533 -3.37003 0
M  V30 584 H 57.6768 -2.55681 -1.44928 0
M  V30 585 H 55.1908 -1.45972 -0.711752 0
M  V30 586 H 57.1878 -1.75732 -3.78053 0
M  V30 587 H 55.8478 -0.759584 -3.1569 0
M  V30 588 H 56.8588 -4.42689 -2.68787 0
M  V30 589 H 53.5358 -2.03129 -3.64753 0
M  V30 590 H 54.9258 -6.01856 -2.98695 0
M  V30 591 N 57.6459 0.756429 -1.3826 0
M  V30 592 C 58.8949 1.51082 -1.3363 0
M  V30 593 C 59.2079 1.95467 0.0720068 0
M  V30 594 O 60.4139 2.7043 0.240834 0
M  V30 595 C 58.8699 2.72893 -2.34644 0
M  V30 596 C 58.4779 2.35544 -3.81081 0
M  V30 597 C 60.2219 3.50791 -2.39052 0
M  V30 598 C 58.1289 3.53948 -4.73787 0
M  V30 599 H 57.0589 0.56727 -0.49671 0
M  V30 600 H 59.7099 0.827147 -1.638 0
M  V30 601 H 58.0919 3.43227 -1.97513 0
M  V30 602 H 59.2659 1.72894 -4.27135 0
M  V30 603 H 57.5809 1.70786 -3.79764 0
M  V30 604 H 60.1779 4.38823 -3.05513 0
M  V30 605 H 60.5209 3.91745 -1.40861 0
M  V30 606 H 61.0539 2.87467 -2.74968 0
M  V30 607 H 57.7929 3.18064 -5.73163 0
M  V30 608 H 57.3129 4.15651 -4.32428 0
M  V30 609 H 58.9919 4.20566 -4.91663 0
M  V30 610 N 59.124 1.23083 0.984299 0
M  V30 611 C 60.364 1.07226 1.74017 0
M  V30 612 C 60.728 -0.384766 1.88105 0
M  V30 613 O 61.929 -0.664411 2.60459 0
M  V30 614 C 60.2 1.77348 3.10294 0
M  V30 615 S 61.759 1.77014 4.01512 0
M  V30 616 H 58.577 0.383819 0.598502 0
M  V30 617 H 61.179 1.56158 1.17622 0
M  V30 618 H 59.883 2.82506 2.97689 0
M  V30 619 H 59.414 1.28682 3.71759 0
M  V30 620 H 61.429 0.825956 4.89277 0
M  V30 621 N 60.6021 -1.18246 1.0419 0
M  V30 622 C 61.5501 -2.23968 0.627792 0
M  V30 623 C 62.5441 -1.65828 -0.346019 0
M  V30 624 O 63.7501 -1.78733 -0.213175 0
M  V30 625 H 60.1251 -0.728939 0.184802 0
M  V30 626 H 62.0961 -2.56202 1.52981 0
M  V30 627 C 60.8451 -3.47699 0.00796591 0
M  V30 628 H 60.1681 -3.92734 0.748347 0
M  V30 629 H 61.6081 -4.23294 -0.24455 0
M  V30 630 C 60.0671 -3.13153 -1.24246 0
M  V30 631 O 60.5971 -3.27003 -2.33307 0
M  V30 632 N 58.8031 -2.67467 -1.13622 0
M  V30 633 H 58.3501 -2.56396 -0.248734 0
M  V30 634 H 58.3081 -2.44724 -1.97377 0
M  V30 635 N 62.0802 -0.821533 -1.34494 0
M  V30 636 C 63.3282 -0.408139 -1.97936 0
M  V30 637 C 63.6492 1.03193 -1.65457 0
M  V30 638 O 62.9192 1.71622 -0.944595 0
M  V30 639 H 61.4992 -0.147928 -0.732206 0
M  V30 640 H 64.1612 -1.05067 -1.64155 0
M  V30 641 H 63.2572 -0.52601 -3.07635 0
M  V30 642 N 63.5583 1.46682 -0.576371 0
M  V30 643 C 64.7863 2.06798 -0.0649635 0
M  V30 644 C 65.2013 1.42612 1.23723 0
M  V30 645 O 64.5583 0.529203 1.74659 0
M  V30 646 C 64.6093 3.6132 0.114202 0
M  V30 647 O 64.3303 4.23104 -1.13644 0
M  V30 648 C 65.8313 4.38349 0.66069 0
M  V30 649 H 63.0513 0.668778 -0.0545616 0
M  V30 650 H 65.5953 1.88404 -0.795237 0
M  V30 651 H 63.7503 3.79162 0.794673 0
M  V30 652 H 64.1643 5.15894 -0.946253 0
M  V30 653 H 65.6383 5.47081 0.73526 0
M  V30 654 H 66.1153 4.05953 1.67627 0
M  V30 655 H 66.7213 4.25297 0.0152951 0
M  V30 656 N 65.0364 0.313813 1.54444 0
M  V30 657 C 65.9844 -0.572171 2.25453 0
M  V30 658 C 66.9784 -1.12657 1.2651 0
M  V30 659 O 68.1844 -1.07573 1.44319 0
M  V30 660 H 64.5594 -0.203146 0.724041 0
M  V30 661 H 66.5304 0.0491145 2.9836 0
M  V30 662 C 65.2794 -1.72626 3.0182 0
M  V30 663 H 64.6024 -1.30891 3.77767 0
M  V30 664 H 66.0424 -2.32199 3.54767 0
M  V30 665 C 64.5014 -2.63806 2.09542 0
M  V30 666 O 65.0314 -3.65256 1.67185 0
M  V30 667 N 63.2374 -2.31824 1.75232 0
M  V30 668 H 62.7844 -1.49368 2.09873 0
M  V30 669 H 62.7424 -2.93095 1.13767 0
M  V30 670 N 66.5145 -1.57545 0.0417849 0
M  V30 671 C 67.4445 -2.14009 -0.933929 0
M  V30 672 C 68.4255 -1.05938 -1.33083 0
M  V30 673 O 69.6105 -1.33833 -1.40721 0
M  V30 674 C 66.7405 -2.67747 -2.21199 0
M  V30 675 C 65.6945 -3.80718 -1.95544 0
M  V30 676 C 65.0205 -4.20935 -3.29724 0
M  V30 677 C 66.3205 -5.06258 -1.28452 0
M  V30 678 H 68.0145 -2.95788 -0.463645 0
M  V30 679 H 65.5605 -1.42285 -0.221573 0
M  V30 680 H 67.5135 -3.05886 -2.89848 0
M  V30 681 H 66.2375 -1.83147 -2.70416 0
M  V30 682 H 64.8965 -3.43037 -1.2931 0
M  V30 683 H 64.5445 -3.33298 -3.76724 0
M  V30 684 H 64.2445 -4.9707 -3.13361 0
M  V30 685 H 65.7685 -4.61666 -3.9962 0
M  V30 686 H 67.1825 -5.41903 -1.8712 0
M  V30 687 H 65.5795 -5.87475 -1.22445 0
M  V30 688 H 66.6495 -4.84207 -0.259219 0
M  V30 689 N 67.9926 0.231505 -1.5589 0
M  V30 690 C 69.2206 0.974505 -1.82513 0
M  V30 691 C 69.6356 1.78344 -0.619591 0
M  V30 692 O 68.9926 1.77792 0.411848 0
M  V30 693 C 69.0436 1.90007 -3.07538 0
M  V30 694 O 68.7646 1.12385 -4.2344 0
M  V30 695 C 70.2656 2.75779 -3.47075 0
M  V30 696 H 67.4856 0.286065 -0.606966 0
M  V30 697 H 70.0296 0.249739 -2.02969 0
M  V30 698 H 68.1846 2.57891 -2.89086 0
M  V30 699 H 68.5986 1.75125 -4.944 0
M  V30 700 H 70.0726 3.36443 -4.37619 0
M  V30 701 H 70.5496 3.47672 -2.68367 0
M  V30 702 H 71.1556 2.13323 -3.67931 0
M  V30 703 N 69.4707 1.49531 0.497807 0
M  V30 704 C 70.4037 1.61043 1.6168 0
M  V30 705 C 71.3817 0.459386 1.55976 0
M  V30 706 O 72.5657 0.675358 1.75986 0
M  V30 707 C 69.6927 1.56833 3.00202 0
M  V30 708 C 68.7387 2.77173 3.24156 0
M  V30 709 S 69.5717 4.38808 3.06933 0
M  V30 710 C 70.7277 4.37248 4.47845 0
M  V30 711 H 70.9607 2.55702 1.51671 0
M  V30 712 H 68.4937 1.38462 0.683201 0
M  V30 713 H 70.4517 1.55089 3.80076 0
M  V30 714 H 69.1127 0.634561 3.07623 0
M  V30 715 H 68.3057 2.70456 4.25288 0
M  V30 716 H 67.9077 2.76346 2.5201 0
M  V30 717 H 70.1997 4.09164 5.39992 0
M  V30 718 H 71.1427 5.38668 4.59612 0
M  V30 719 H 71.5507 3.67286 4.28674 0
M  V30 720 N 70.9488 -0.749086 1.3866 0
M  V30 721 C 72.2258 -1.4992 1.25632 0
M  V30 722 C 72.6058 -2.10633 -0.140317 0
M  V30 723 O 71.9538 -1.97437 -1.15025 0
M  V30 724 C 72.1638 -2.56195 2.36992 0
M  V30 725 C 73.5118 -3.22972 2.75634 0
M  V30 726 O 74.5358 -2.66502 2.36337 0
M  V30 727 O 73.3948 -4.25122 3.43415 0
M  V30 728 H 70.4888 -0.665067 0.491544 0
M  V30 729 H 73.0348 -0.784113 1.50498 0
M  V30 730 H 71.8068 -2.09612 3.30422 0
M  V30 731 H 71.4298 -3.35279 2.13714 0
M  V30 732 N 72.4269 -1.23603 -0.977757 0
M  V30 733 C 73.7039 -0.977897 -1.69401 0
M  V30 734 C 74.0839 0.502738 -2.05026 0
M  V30 735 O 73.4319 1.47459 -1.74551 0
M  V30 736 C 73.6419 -1.89077 -2.93345 0
M  V30 737 C 74.9899 -2.15579 -3.65802 0
M  V30 738 O 76.0139 -1.86648 -3.03383 0
M  V30 739 O 74.8729 -2.64658 -4.78141 0
M  V30 740 H 71.9669 -0.369025 -0.740101 0
M  V30 741 H 74.5129 -1.34657 -1.03274 0
M  V30 742 H 73.2849 -2.89158 -2.63634 0
M  V30 743 H 72.9079 -1.52463 -3.67207 0
M  V30 744 N 73.905 1.17692 -1.04816 0
M  V30 745 C 75.153 1.87488 -0.754497 0
M  V30 746 C 75.474 1.81205 0.720407 0
M  V30 747 O 74.744 1.23544 1.52032 0
M  V30 748 H 73.324 0.694101 -0.276102 0
M  V30 749 H 75.986 1.42793 -1.32651 0
M  V30 750 H 75.082 2.93328 -1.06606 0
M  V30 751 N 75.3831 0.828654 1.34056 0
M  V30 752 C 76.7941 0.477534 1.8049 0
M  V30 753 C 77.1451 -1.00258 1.6865 0
M  V30 754 O 76.2701 -1.78057 1.22982 0
M  V30 755 C 76.8651 0.860018 3.27703 0
M  V30 756 C 75.4241 0.561185 3.72193 0
M  V30 757 C 74.5711 1.07385 2.55663 0
M  V30 758 H 77.5221 1.0183 1.21722 0
M  V30 759 H 77.5431 0.166038 3.80138 0
M  V30 760 H 77.0551 1.93731 3.36288 0
M  V30 761 H 75.1561 -0.506465 3.69142 0
M  V30 762 H 75.2691 1.10926 4.66082 0
M  V30 763 H 73.6331 0.495149 2.49841 0
M  V30 764 H 74.4161 2.15771 2.67016 0
M  V30 765 N 76.8612 -1.46375 0.584142 0
M  V30 766 C 78.2722 -1.86031 0.157959 0
M  V30 767 C 78.6232 -1.48753 -1.27933 0
M  V30 768 O 77.7482 -0.903098 -1.96655 0
M  V30 769 C 78.3432 -3.37642 0.279892 0
M  V30 770 C 76.9022 -3.76289 -0.09143 0
M  V30 771 C 76.0492 -2.7039 0.615178 0
M  V30 772 H 79.0002 -1.37509 0.792274 0
M  V30 773 H 79.0212 -3.77275 -0.494364 0
M  V30 774 H 78.5332 -3.64742 1.32607 0
M  V30 775 H 76.6342 -3.54806 -1.13769 0
M  V30 776 H 76.7472 -4.78246 0.285886 0
M  V30 777 H 75.1112 -2.5464 0.0552833 0
M  V30 778 H 75.8942 -3.0033 1.66303 0
M  V30 779 N 78.3393 -0.321999 -1.54275 0
M  V30 780 C 79.7503 0.166384 -1.85957 0
M  V30 781 C 80.1013 1.51747 -1.24367 0
M  V30 782 O 79.2263 2.09317 -0.549124 0
M  V30 783 C 79.8213 0.308681 -3.37391 0
M  V30 784 C 78.3803 0.741286 -3.69028 0
M  V30 785 C 77.5273 -0.137937 -2.76957 0
M  V30 786 H 80.4783 -0.542335 -1.49146 0
M  V30 787 H 80.4993 1.13984 -3.63026 0
M  V30 788 H 80.0113 -0.674809 -3.82188 0
M  V30 789 H 78.1123 1.73458 -3.29762 0
M  V30 790 H 78.2253 0.546118 -4.75977 0
M  V30 791 H 76.5893 0.386251 -2.51754 0
M  V30 792 H 77.3723 -1.11816 -3.2458 0
M  V30 793 N 79.8174 1.5752 -0.0501392 0
M  V30 794 C 81.2334 1.56631 0.306402 0
M  V30 795 C 81.4334 1.0577 1.71508 0
M  V30 796 O 80.4894 0.713837 2.422 0
M  V30 797 C 81.8024 3.00393 0.135811 0
M  V30 798 C 83.3504 3.12315 0.206993 0
M  V30 799 C 83.8254 4.57954 0.064944 0
M  V30 800 N 85.3164 4.63041 0.121254 0
M  V30 801 C 86.0514 5.73389 0.0354381 0
M  V30 802 N 85.5474 6.92724 -0.102666 0
M  V30 803 N 87.3404 5.62026 0.090946 0
M  V30 804 H 79.4914 1.88903 -0.971046 0
M  V30 805 H 81.7544 0.869876 -0.376855 0
M  V30 806 H 81.4604 3.41635 -0.835384 0
M  V30 807 H 81.3344 3.66373 0.897275 0
M  V30 808 H 83.7214 2.70973 1.16866 0
M  V30 809 H 83.8024 2.49016 -0.585208 0
M  V30 810 H 83.4464 4.99981 -0.893394 0
M  V30 811 H 83.3764 5.19258 0.876277 0
M  V30 812 H 85.8674 3.77216 0.227284 0
M  V30 813 H 86.1804 7.72633 -0.160882 0
M  V30 814 H 84.5254 6.94864 -0.137737 0
M  V30 815 H 87.7164 4.67684 0.197388 0
M  V30 816 H 87.8894 6.47997 0.0206089 0
M  V30 817 N 81.2955 -0.223234 1.56011 0
M  V30 818 C 82.7115 -0.572856 1.48965 0
M  V30 819 C 82.9115 -1.87225 0.74492 0
M  V30 820 O 81.9675 -2.50899 0.283896 0
M  V30 821 C 83.2805 -0.653646 2.9351 0
M  V30 822 C 84.8285 -0.744386 3.0402 0
M  V30 823 C 85.3035 -0.856535 4.49919 0
M  V30 824 N 86.7945 -0.9208 4.53955 0
M  V30 825 C 87.5295 -1.02726 5.64123 0
M  V30 826 N 87.0255 -1.09777 6.84047 0
M  V30 827 N 88.8185 -1.06226 5.51971 0
M  V30 828 H 80.9695 0.629462 2.02858 0
M  V30 829 H 83.2325 0.220621 0.921971 0
M  V30 830 H 82.9385 0.231518 3.50937 0
M  V30 831 H 82.8125 -1.51781 3.45315 0
M  V30 832 H 85.1995 -1.61999 2.46658 0
M  V30 833 H 85.2805 0.14541 2.55386 0
M  V30 834 H 84.9245 0.0146069 5.07898 0
M  V30 835 H 84.8545 -1.76172 4.96257 0
M  V30 836 H 87.3455 -0.876694 3.6759 0
M  V30 837 H 87.6585 -1.17872 7.63758 0
M  V30 838 H 86.0035 -1.06693 6.86762 0
M  V30 839 H 89.1945 -1.00382 4.5721 0
M  V30 840 H 89.3675 -1.14177 6.37862 0
M  V30 841 N 82.7736 -1.49793 -0.48987 0
M  V30 842 C 83.7366 -1.66752 -1.57246 0
M  V30 843 C 84.7366 -0.538867 -1.51502 0
M  V30 844 O 85.9266 -0.805545 -1.54456 0
M  V30 845 C 83.0586 -1.67528 -2.96896 0
M  V30 846 H 84.2516 -2.63321 -1.43534 0
M  V30 847 H 81.8046 -1.38992 -0.714914 0
M  V30 848 H 82.5396 -0.725837 -3.16073 0
M  V30 849 H 82.3246 -2.49504 -3.02473 0
M  V30 850 H 83.8146 -1.82667 -3.7553 0
M  V30 851 N 84.2517 0.741722 -1.39055 0
M  V30 852 C 85.6677 1.04638 -1.20512 0
M  V30 853 C 85.8677 2.01405 -0.0620218 0
M  V30 854 O 84.9237 2.45547 0.588457 0
M  V30 855 C 86.2367 1.6151 -2.53643 0
M  V30 856 C 87.7847 1.73623 -2.6043 0
M  V30 857 C 88.2597 2.33906 -3.93767 0
M  V30 858 N 89.7507 2.41323 -3.9537 0
M  V30 859 C 90.4857 2.88888 -4.95309 0
M  V30 860 N 89.9817 3.36401 -6.05645 0
M  V30 861 N 91.7747 2.88037 -4.82692 0
M  V30 862 H 83.9257 0.0998155 -2.12165 0
M  V30 863 H 86.1887 0.106907 -0.941953 0
M  V30 864 H 85.8947 0.978739 -3.37807 0
M  V30 865 H 85.7687 2.60411 -2.72885 0
M  V30 866 H 88.1557 2.36384 -1.76655 0
M  V30 867 H 88.2367 0.733945 -2.45045 0
M  V30 868 H 87.8807 1.71776 -4.7797 0
M  V30 869 H 87.8107 3.34799 -4.06469 0
M  V30 870 H 90.3017 2.07734 -3.15682 0
M  V30 871 H 90.6147 3.71186 -6.77821 0
M  V30 872 H 88.9597 3.34427 -6.09248 0
M  V30 873 H 92.1507 2.50237 -3.95599 0
M  V30 874 H 92.3237 3.24792 -5.60726 0
M  V30 875 N 85.7298 1.2412 0.971189 0
M  V30 876 C 86.9778 1.07668 1.71032 0
M  V30 877 C 87.2988 -0.385797 1.91146 0
M  V30 878 O 86.5688 -1.27569 1.4867 0
M  V30 879 H 85.1488 0.395429 0.633755 0
M  V30 880 H 87.8108 1.55984 1.16855 0
M  V30 881 H 86.9068 1.57195 2.69622 0
M  V30 882 N 87.2079 -1.17134 1.05439 0
M  V30 883 C 88.4849 -1.83411 0.679699 0
M  V30 884 C 88.8649 -1.9368 -0.839726 0
M  V30 885 O 88.2129 -1.47325 -1.74664 0
M  V30 886 C 88.4229 -3.20918 1.37159 0
M  V30 887 C 89.7709 -3.96796 1.51123 0
M  V30 888 O 90.7949 -3.30406 1.3308 0
M  V30 889 O 89.6539 -5.15778 1.80651 0
M  V30 890 H 86.7479 -0.79154 0.239569 0
M  V30 891 H 89.2939 -1.24411 1.15413 0
M  V30 892 H 88.0659 -3.08428 2.40807 0
M  V30 893 H 87.6889 -3.87587 0.886674 0
M  V30 894 N 88.686 -0.835752 -1.33615 0
M  V30 895 C 89.616 -0.281739 -2.31794 0
M  V30 896 C 90.597 0.608833 -1.58831 0
M  V30 897 O 91.782 0.533035 -1.86741 0
M  V30 898 C 88.912 0.546612 -3.42971 0
M  V30 899 C 87.866 -0.247904 -4.27281 0
M  V30 900 C 87.192 0.704001 -5.30045 0
M  V30 901 C 88.492 -1.46324 -5.01385 0
M  V30 902 H 90.186 -1.10206 -2.78379 0
M  V30 903 H 87.732 -0.531388 -1.33837 0
M  V30 904 H 89.685 0.944467 -4.1068 0
M  V30 905 H 88.409 1.40011 -2.95067 0
M  V30 906 H 87.068 -0.627281 -3.61194 0
M  V30 907 H 86.716 1.55381 -4.78399 0
M  V30 908 H 86.416 0.176524 -5.87335 0
M  V30 909 H 87.94 1.09944 -6.0062 0
M  V30 910 H 89.354 -1.13871 -5.61877 0
M  V30 911 H 87.751 -1.92728 -5.6831 0
M  V30 912 H 88.821 -2.23467 -4.30338 0
M  V30 913 N 90.1641 1.46063 -0.591896 0
M  V30 914 C 91.3921 2.06717 -0.0868936 0
M  V30 915 C 91.8071 1.43916 1.22203 0
M  V30 916 O 91.1641 0.547698 1.74088 0
M  V30 917 C 91.2151 3.6142 0.0758725 0
M  V30 918 O 90.9361 4.21874 -1.18126 0
M  V30 919 C 92.4371 4.39025 0.61416 0
M  V30 920 H 89.6571 0.668162 -0.0616518 0
M  V30 921 H 92.2011 1.8755 -0.815175 0
M  V30 922 H 90.3561 3.79983 0.754413 0
M  V30 923 H 90.7701 5.14861 -1.00092 0
M  V30 924 H 92.2441 5.4783 0.677193 0
M  V30 925 H 92.7211 4.07708 1.63312 0
M  V30 926 H 93.3271 4.2529 -0.0298142 0
M  V30 927 N 91.6422 0.330177 1.54103 0
M  V30 928 C 92.5922 -0.548456 2.21305 0
M  V30 929 C 93.5762 -1.07651 1.19583 0
M  V30 930 O 94.7682 -1.01243 1.45186 0
M  V30 931 C 91.8972 -1.70559 2.97934 0
M  V30 932 C 90.9832 -1.19212 4.07 0
M  V30 933 N 91.3742 -0.398831 5.04225 0
M  V30 934 C 89.6722 -1.47024 4.2107 0
M  V30 935 C 90.3732 -0.121761 5.81573 0
M  V30 936 N 89.3492 -0.709722 5.38947 0
M  V30 937 H 93.1512 0.0648483 2.93828 0
M  V30 938 H 90.6652 0.136363 1.61826 0
M  V30 939 H 92.6622 -2.34688 3.44568 0
M  V30 940 H 91.3222 -2.32231 2.26934 0
M  V30 941 H 92.3332 -0.0410869 5.17884 0
M  V30 942 H 89.0102 -2.09232 3.61287 0
M  V30 943 H 90.4002 0.517298 6.69906 0
M  V30 944 N 93.1203 -1.57491 0.0584922 0
M  V30 945 C 94.3453 -1.97711 -0.62652 0
M  V30 946 C 94.7703 -0.936132 -1.63151 0
M  V30 947 O 94.1283 0.099811 -1.81025 0
M  V30 948 C 94.1763 -3.36989 -1.28338 0
M  V30 949 O 93.2803 -3.35433 -2.39913 0
M  V30 950 H 92.6213 -0.643868 -0.162266 0
M  V30 951 H 95.1513 -2.04193 0.129064 0
M  V30 952 H 95.1613 -3.73879 -1.63335 0
M  V30 953 H 93.8363 -4.12289 -0.546889 0
M  V30 954 H 92.4133 -3.10298 -2.06809 0
M  V30 955 N 94.5984 0.214957 -1.56127 0
M  V30 956 C 95.8464 0.936518 -1.79091 0
M  V30 957 C 96.1674 1.84606 -0.628148 0
M  V30 958 O 95.4374 1.92664 0.35462 0
M  V30 959 H 94.0174 0.3488 -0.660566 0
M  V30 960 H 96.6794 0.22523 -1.93594 0
M  V30 961 H 95.7754 1.53943 -2.71492 0
M  V30 962 N 96.0765 1.50051 0.48192 0
M  V30 963 C 97.0065 1.71046 1.58951 0
M  V30 964 C 97.9875 0.559288 1.60642 0
M  V30 965 O 99.1725 0.797243 1.77081 0
M  V30 966 C 96.3025 1.79462 2.97339 0
M  V30 967 C 95.2565 2.94558 3.10515 0
M  V30 968 C 94.5825 2.88105 4.50444 0
M  V30 969 C 95.8825 4.35227 2.88747 0
M  V30 970 H 97.5765 2.6378 1.41635 0
M  V30 971 H 95.1225 1.26936 0.679942 0
M  V30 972 H 97.0755 1.92734 3.74742 0
M  V30 973 H 95.7995 0.833412 3.15788 0
M  V30 974 H 94.4585 2.80918 2.35543 0
M  V30 975 H 94.1065 1.89853 4.65795 0
M  V30 976 H 93.8065 3.65366 4.60197 0
M  V30 977 H 95.3305 3.03412 5.29881 0
M  V30 978 H 96.7445 4.49449 3.55905 0
M  V30 979 H 95.1415 5.13856 3.09955 0
M  V30 980 H 96.2115 4.48347 1.84696 0
M  V30 981 N 97.5546 -0.734337 1.39446 0
M  V30 982 C 98.8006 -1.49505 1.37913 0
M  V30 983 C 99.1556 -1.92384 -0.0248416 0
M  V30 984 O 98.4486 -1.6395 -0.991506 0
M  V30 985 C 98.6426 -2.74711 2.28623 0
M  V30 986 C 98.4716 -2.44075 3.777 0
M  V30 987 C 97.2416 -2.36338 4.46623 0
M  V30 988 C 99.4396 -2.09574 4.69663 0
M  V30 989 N 97.4216 -1.9818 5.81032 0
M  V30 990 C 98.7926 -1.81865 5.92727 0
M  V30 991 C 100.848 -1.96048 4.57678 0
M  V30 992 C 99.5506 -1.41992 7.05146 0
M  V30 993 C 101.577 -1.57579 5.7002 0
M  V30 994 C 100.939 -1.30754 6.92158 0
M  V30 995 H 97.0376 -0.545896 0.55993 0
M  V30 996 H 99.6216 -0.853373 1.75002 0
M  V30 997 H 97.7926 -3.36657 1.93692 0
M  V30 998 H 99.5246 -3.40916 2.18078 0
M  V30 999 H 96.2796 -2.53456 4.00071 0
M  V30 1000 H 96.7036 -1.81691 6.52163 0
M  V30 1001 H 101.346 -2.15455 3.63784 0
M  V30 1002 H 99.0636 -1.21327 7.9894 0
M  V30 1003 H 102.65 -1.47718 5.62735 0
M  V30 1004 H 101.53 -1.01432 7.77612 0
M  V30 1005 N 99.0327 -1.24633 -0.964593 0
M  V30 1006 C 100.449 -1.01239 -1.2338 0
M  V30 1007 C 100.649 0.2769 -1.99588 0
M  V30 1008 O 99.7047 0.992241 -2.32187 0
M  V30 1009 C 101.018 -2.22937 -2.01791 0
M  V30 1010 C 102.566 -2.27594 -2.14872 0
M  V30 1011 C 103.041 -3.48921 -2.96678 0
M  V30 1012 N 104.532 -3.49257 -3.04259 0
M  V30 1013 C 105.267 -4.39795 -3.67924 0
M  V30 1014 N 104.763 -5.40591 -4.33281 0
M  V30 1015 N 106.556 -4.275 -3.64966 0
M  V30 1016 H 98.7067 -2.0748 -0.454502 0
M  V30 1017 H 100.97 -0.910647 -0.26349 0
M  V30 1018 H 100.676 -3.16587 -1.53184 0
M  V30 1019 H 100.55 -2.25306 -3.02518 0
M  V30 1020 H 102.937 -1.34473 -2.6268 0
M  V30 1021 H 103.018 -2.2925 -1.13482 0
M  V30 1022 H 102.662 -4.42359 -2.49562 0
M  V30 1023 H 102.592 -3.4451 -3.98272 0
M  V30 1024 H 105.083 -2.76337 -2.57771 0
M  V30 1025 H 105.396 -6.05904 -4.79687 0
M  V30 1026 H 103.741 -5.44475 -4.3194 0
M  V30 1027 H 106.932 -3.47987 -3.13086 0
M  V30 1028 H 107.105 -4.98258 -4.14298 0
M  V30 1029 N 100.511 1.16574 -1.06058 0
M  V30 1030 C 101.757 1.87324 -0.777022 0
M  V30 1031 C 102.09 1.81351 0.694645 0
M  V30 1032 O 101.365 1.22753 1.50871 0
M  V30 1033 C 101.648 3.36991 -1.26922 0
M  V30 1034 C 101.501 3.51667 -2.80447 0
M  V30 1035 C 102.82 4.3131 -0.87521 0
M  V30 1036 H 99.9388 0.680191 -0.28374 0
M  V30 1037 H 102.581 1.37036 -1.3161 0
M  V30 1038 H 100.731 3.79949 -0.81063 0
M  V30 1039 H 102.403 3.17664 -3.34495 0
M  V30 1040 H 100.646 2.93656 -3.19294 0
M  V30 1041 H 101.317 4.56766 -3.0995 0
M  V30 1042 H 103.793 3.9624 -1.27014 0
M  V30 1043 H 102.669 5.34545 -1.2471 0
M  V30 1044 H 102.93 4.41552 0.220071 0
M  V30 1045 N 101.989 0.842826 1.3317 0
M  V30 1046 C 103.229 0.446574 1.99462 0
M  V30 1047 C 103.593 -0.976818 1.65295 0
M  V30 1048 O 104.794 -1.477 2.24584 0
M  V30 1049 C 103.065 0.665353 3.51152 0
M  V30 1050 S 104.624 0.364911 4.3728 0
M  V30 1051 H 101.442 0.167803 0.690915 0
M  V30 1052 H 104.044 1.09297 1.62094 0
M  V30 1053 H 102.748 1.7006 3.73507 0
M  V30 1054 H 102.279 0.00494568 3.934 0
M  V30 1055 H 104.294 -0.813761 4.89482 0
M  V30 1056 N 103.467 -1.45747 0.599634 0
M  V30 1057 C 104.707 -2.04181 0.0946309 0
M  V30 1058 C 105.071 -1.45895 -1.24815 0
M  V30 1059 O 106.272 -1.95633 -1.8434 0
M  V30 1060 C 104.543 -3.57368 0.047581 0
M  V30 1061 S 106.102 -4.36997 -0.397387 0
M  V30 1062 H 102.92 -0.70953 0.0456954 0
M  V30 1063 H 105.522 -1.78564 0.795946 0
M  V30 1064 H 104.226 -3.97303 1.02852 0
M  V30 1065 H 103.757 -3.87549 -0.675977 0
M  V30 1066 H 105.772 -4.68012 -1.64862 0
M  V30 1067 N 104.945 -0.338344 -1.53925 0
M  V30 1068 C 106.194 0.260732 -2.00008 0
M  V30 1069 C 106.507 1.52073 -1.23017 0
M  V30 1070 O 107.713 2.19672 -1.5955 0
M  V30 1071 C 106.169 0.51515 -3.56194 0
M  V30 1072 C 105.777 -0.728645 -4.42035 0
M  V30 1073 C 107.521 1.07337 -4.10706 0
M  V30 1074 C 105.428 -0.445315 -5.89721 0
M  V30 1075 H 104.358 0.101205 -0.747177 0
M  V30 1076 H 107.009 -0.452866 -1.77824 0
M  V30 1077 H 105.391 1.28932 -3.74423 0
M  V30 1078 H 106.565 -1.50352 -4.35581 0
M  V30 1079 H 104.88 -1.20813 -3.98489 0
M  V30 1080 H 107.477 1.30022 -5.18651 0
M  V30 1081 H 107.82 2.0273 -3.63602 0
M  V30 1082 H 108.353 0.360034 -3.96167 0
M  V30 1083 H 105.092 -1.36883 -6.41049 0
M  V30 1084 H 104.612 0.291569 -5.99091 0
M  V30 1085 H 106.291 -0.0606218 -6.46972 0
M  V30 1086 N 106.423 1.57458 -0.0668435 0
M  V30 1087 C 107.333 2.15937 0.916975 0
M  V30 1088 C 108.349 1.12123 1.33058 0
M  V30 1089 O 109.525 1.44366 1.40429 0
M  V30 1090 C 106.59 2.70547 2.16807 0
M  V30 1091 C 105.651 3.89215 1.81135 0
M  V30 1092 C 104.884 4.41211 3.0028 0
M  V30 1093 O 105.107 3.92225 4.14144 0
M  V30 1094 O 104.041 5.32605 2.80384 0
M  V30 1095 H 107.867 3.00354 0.449561 0
M  V30 1096 H 105.452 1.48584 0.155949 0
M  V30 1097 H 107.334 3.0557 2.90181 0
M  V30 1098 H 106.009 1.89192 2.62656 0
M  V30 1099 H 104.916 3.59054 1.05028 0
M  V30 1100 H 106.249 4.71848 1.40073 0
M  V30 1101 N 107.901 -0.206675 1.56239 0
M  V30 1102 C 109.149 -0.927007 1.79586 0
M  V30 1103 C 109.47 -1.8427 0.637929 0
M  V30 1104 O 108.74 -1.92849 -0.344398 0
M  V30 1105 H 107.32 -0.345292 0.662407 0
M  V30 1106 H 109.982 -0.21496 1.93711 0
M  V30 1107 H 109.078 -1.52501 2.72305 0
M  V30 1108 N 109.379 -1.50304 -0.473955 0
M  V30 1109 C 110.628 -1.60392 -1.22301 0
M  V30 1110 C 110.941 -0.308411 -1.93153 0
M  V30 1111 O 112.147 -0.288156 -2.69966 0
M  V30 1112 C 110.603 -2.83109 -2.2221 0
M  V30 1113 C 110.211 -4.19524 -1.57173 0
M  V30 1114 C 111.955 -3.0254 -2.97775 0
M  V30 1115 C 109.862 -5.33431 -2.55353 0
M  V30 1116 H 108.792 -0.597286 -0.460179 0
M  V30 1117 H 111.443 -1.76731 -0.493803 0
M  V30 1118 H 109.825 -2.60322 -2.9841 0
M  V30 1119 H 110.999 -4.52554 -0.867824 0
M  V30 1120 H 109.314 -4.05674 -0.939002 0
M  V30 1121 H 111.911 -3.84811 -3.71248 0
M  V30 1122 H 112.254 -2.14154 -3.56992 0
M  V30 1123 H 112.787 -3.25494 -2.28688 0
M  V30 1124 H 109.526 -6.23962 -2.00878 0
M  V30 1125 H 109.046 -5.04823 -3.23904 0
M  V30 1126 H 110.725 -5.63887 -3.17239 0
M  V30 1127 N 110.857 0.726932 -1.39834 0
M  V30 1128 C 112.087 1.51393 -1.40583 0
M  V30 1129 C 112.495 1.892 -0.000740625 0
M  V30 1130 O 111.838 1.55189 0.982951 0
M  V30 1131 C 111.9 2.82588 -2.22226 0
M  V30 1132 C 111.564 2.67169 -3.70769 0
M  V30 1133 C 112.561 2.3518 -4.63666 0
M  V30 1134 C 110.246 2.83788 -4.14451 0
M  V30 1135 C 112.24 2.20002 -5.98229 0
M  V30 1136 C 109.927 2.68229 -5.49087 0
M  V30 1137 C 110.925 2.36382 -6.4079 0
M  V30 1138 O 110.613 2.2093 -7.72946 0
M  V30 1139 H 110.345 0.474168 -0.48181 0
M  V30 1140 H 112.899 0.905247 -1.84376 0
M  V30 1141 H 111.129 3.45746 -1.73195 0
M  V30 1142 H 112.818 3.44247 -2.15055 0
M  V30 1143 H 113.584 2.21984 -4.31217 0
M  V30 1144 H 109.463 3.07566 -3.43401 0
M  V30 1145 H 113.007 1.95067 -6.69772 0
M  V30 1146 H 108.904 2.81006 -5.81125 0
M  V30 1147 H 109.672 2.35937 -7.83757 0
M  V30 1148 N 112.336 1.25143 0.95797 0
M  V30 1149 C 113.283 1.05235 2.05412 0
M  V30 1150 C 114.253 -0.0374561 1.66058 0
M  V30 1151 O 115.438 0.119073 1.90428 0
M  V30 1152 C 112.578 0.673589 3.38462 0
M  V30 1153 C 111.691 1.8379 3.90954 0
M  V30 1154 C 110.826 1.40381 5.12315 0
M  V30 1155 C 109.865 2.53746 5.57027 0
M  V30 1156 N 109.002 2.11136 6.69601 0
M  V30 1157 H 113.842 1.99048 2.21774 0
M  V30 1158 H 111.379 0.991277 1.08683 0
M  V30 1159 H 113.337 0.434964 4.14926 0
M  V30 1160 H 111.967 -0.227554 3.21997 0
M  V30 1161 H 111.019 2.18992 3.11041 0
M  V30 1162 H 112.331 2.68937 4.20089 0
M  V30 1163 H 111.485 1.12464 5.96185 0
M  V30 1164 H 110.224 0.523015 4.84887 0
M  V30 1165 H 109.229 2.82412 4.71724 0
M  V30 1166 H 110.454 3.42398 5.86464 0
M  V30 1167 H 108.4 1.25468 6.4389 0
M  V30 1168 H 108.317 2.89832 6.98236 0
M  V30 1169 H 109.585 1.86385 7.56889 0
M  V30 1170 N 113.814 -1.1601 1.06675 0
M  V30 1171 C 115.062 -1.86264 0.784229 0
M  V30 1172 C 115.383 -1.82328 -0.691488 0
M  V30 1173 O 114.653 -1.25947 -1.50047 0
M  V30 1174 H 113.233 -0.689621 0.28711 0
M  V30 1175 H 115.895 -1.40664 1.34906 0
M  V30 1176 H 114.991 -2.91595 1.11259 0
M  V30 1177 N 115.292 -0.849877 -1.32721 0
M  V30 1178 C 116.242 -0.262892 -2.26479 0
M  V30 1179 C 117.226 0.588493 -1.49752 0
M  V30 1180 O 118.418 0.438659 -1.71478 0
M  V30 1181 C 115.547 0.551818 -3.38836 0
M  V30 1182 C 114.633 -0.311689 -4.22953 0
M  V30 1183 N 115.024 -1.39567 -4.86163 0
M  V30 1184 C 113.322 -0.100611 -4.45887 0
M  V30 1185 C 114.023 -1.92651 -5.48872 0
M  V30 1186 N 112.999 -1.22637 -5.29586 0
M  V30 1187 H 116.801 -1.09166 -2.72873 0
M  V30 1188 H 114.315 -0.695486 -1.46754 0
M  V30 1189 H 116.312 0.988713 -4.05006 0
M  V30 1190 H 114.972 1.37844 -2.93988 0
M  V30 1191 H 115.983 -1.77859 -4.86402 0
M  V30 1192 H 112.66 0.691681 -4.11731 0
M  V30 1193 H 114.05 -2.83487 -6.09167 0
M  V30 1194 N 116.77 1.45427 -0.607355 0
M  V30 1195 C 118.01 2.04128 -0.105458 0
M  V30 1196 C 118.374 1.46555 1.24039 0
M  V30 1197 O 119.575 1.96608 1.833 0
M  V30 1198 C 117.846 3.57338 -0.0665324 0
M  V30 1199 S 119.405 4.37201 0.374207 0
M  V30 1200 H 116.223 0.709278 -0.0494575 0
M  V30 1201 H 118.825 1.78139 -0.805404 0
M  V30 1202 H 117.529 3.96752 -1.04957 0
M  V30 1203 H 117.06 3.87902 0.655415 0
M  V30 1204 H 119.075 4.6888 1.62377 0
M  V30 1205 N 118.248 0.346503 1.53744 0
M  V30 1206 C 119.495 -0.249104 2.00962 0
M  V30 1207 C 119.823 -1.5032 1.23426 0
M  V30 1208 O 119.078 -1.93217 0.310761 0
M  V30 1209 C 119.377 -0.605809 3.52228 0
M  V30 1210 C 119.043 0.551747 4.47512 0
M  V30 1211 C 117.705 0.86941 4.73281 0
M  V30 1212 C 120.057 1.32818 5.03993 0
M  V30 1213 C 117.385 1.96582 5.52786 0
M  V30 1214 C 119.737 2.41486 5.84694 0
M  V30 1215 C 118.401 2.73808 6.08757 0
M  V30 1216 H 117.671 -0.0911538 0.735372 0
M  V30 1217 H 120.318 0.475027 1.85515 0
M  V30 1218 H 118.623 -1.4107 3.65522 0
M  V30 1219 H 120.32 -1.07858 3.86222 0
M  V30 1220 H 116.91 0.294102 4.2759 0
M  V30 1221 H 121.094 1.09602 4.84047 0
M  V30 1222 H 116.35 2.22045 5.69654 0
M  V30 1223 H 120.524 3.02078 6.27473 0
M  V30 1224 H 118.151 3.58892 6.7015 0
M  V30 1225 N 119.726 -1.57421 0.075193 0
M  V30 1226 C 121.142 -1.57099 -0.281444 0
M  V30 1227 C 121.342 -1.08486 -1.69803 0
M  V30 1228 O 120.398 -0.752279 -2.41033 0
M  V30 1229 C 121.711 -3.00571 -0.0880041 0
M  V30 1230 C 123.259 -3.12605 -0.157281 0
M  V30 1231 C 123.734 -4.57999 0.0079207 0
M  V30 1232 N 125.225 -4.63176 -0.0475725 0
M  V30 1233 C 125.96 -5.73373 0.0557876 0
M  V30 1234 N 125.456 -6.92473 0.21286 0
M  V30 1235 N 127.249 -5.621 -0.00152098 0
M  V30 1236 H 119.4 -1.87335 1.00098 0
M  V30 1237 H 121.663 -0.86377 0.390646 0
M  V30 1238 H 121.369 -3.40262 0.889629 0
M  V30 1239 H 121.243 -3.67754 -0.838875 0
M  V30 1240 H 123.63 -2.72798 -1.1254 0
M  V30 1241 H 123.711 -2.48053 0.62475 0
M  V30 1242 H 123.355 -4.98496 0.972824 0
M  V30 1243 H 123.285 -5.20586 -0.793556 0
M  V30 1244 H 125.776 -3.7753 -0.167244 0
M  V30 1245 H 126.089 -7.72279 0.283781 0
M  V30 1246 H 124.434 -6.94556 0.248267 0
M  V30 1247 H 127.625 -4.67938 -0.122958 0
M  V30 1248 H 127.798 -6.47948 0.0824844 0
M  V30 1249 N 121.204 0.198386 -1.56346 0
M  V30 1250 C 122.453 0.917451 -1.79627 0
M  V30 1251 C 122.766 1.8456 -0.64784 0
M  V30 1252 O 123.972 2.60504 -0.764859 0
M  V30 1253 C 122.428 1.68175 -3.18191 0
M  V30 1254 C 122.036 0.798589 -4.40825 0
M  V30 1255 C 123.78 2.39065 -3.50782 0
M  V30 1256 C 121.687 1.56157 -5.70411 0
M  V30 1257 H 120.617 0.346317 -0.669762 0
M  V30 1258 H 123.268 0.170801 -1.82703 0
M  V30 1259 H 121.65 2.47216 -3.09354 0
M  V30 1260 H 122.824 0.0470665 -4.60776 0
M  V30 1261 H 121.139 0.200686 -4.15916 0
M  V30 1262 H 123.736 2.96692 -4.44835 0
M  V30 1263 H 124.079 3.13091 -2.74371 0
M  V30 1264 H 124.612 1.66993 -3.61052 0
M  V30 1265 H 121.351 0.864142 -6.49779 0
M  V30 1266 H 120.871 2.2871 -5.54483 0
M  V30 1267 H 122.55 2.11622 -6.11412 0
M  V30 1268 N 122.682 1.50554 0.465978 0
M  V30 1269 C 123.63 1.70324 1.58406 0
M  V30 1270 C 124.624 0.569139 1.59553 0
M  V30 1271 O 125.83 0.749776 1.63641 0
M  V30 1272 H 122.205 0.537688 0.525734 0
M  V30 1273 H 124.176 2.64104 1.38894 0
M  V30 1274 C 122.925 1.81928 2.96307 0
M  V30 1275 H 122.248 2.68586 2.96144 0
M  V30 1276 H 123.688 1.99784 3.73982 0
M  V30 1277 C 122.147 0.572095 3.32007 0
M  V30 1278 O 122.677 -0.286416 4.00678 0
M  V30 1279 N 120.883 0.424606 2.87481 0
M  V30 1280 H 120.43 1.12427 2.31771 0
M  V30 1281 H 120.388 -0.408697 3.11732 0
M  V30 1282 N 124.16 -0.719506 1.40217 0
M  V30 1283 C 125.11 -1.8251 1.36653 0
M  V30 1284 C 126.094 -1.59028 0.244732 0
M  V30 1285 O 127.286 -1.70268 0.483524 0
M  V30 1286 C 124.415 -3.20599 1.22763 0
M  V30 1287 C 123.501 -3.49858 2.39708 0
M  V30 1288 N 123.892 -3.49957 3.6519 0
M  V30 1289 C 122.19 -3.80297 2.33002 0
M  V30 1290 C 122.891 -3.77449 4.42614 0
M  V30 1291 N 121.867 -3.96002 3.72402 0
M  V30 1292 H 125.669 -1.80914 2.31619 0
M  V30 1293 H 123.183 -0.918455 1.33933 0
M  V30 1294 H 125.18 -3.99766 1.18292 0
M  V30 1295 H 123.84 -3.23424 0.287614 0
M  V30 1296 H 124.851 -3.309 3.98404 0
M  V30 1297 H 121.528 -3.90635 1.47346 0
M  V30 1298 H 122.918 -3.83863 5.51451 0
M  V30 1299 N 125.638 -1.25649 -0.95132 0
M  V30 1300 C 126.885 -1.10594 -1.69633 0
M  V30 1301 C 127.213 0.352515 -1.91279 0
M  V30 1302 O 126.468 1.27601 -1.4838 0
M  V30 1303 C 126.767 -1.80909 -3.08231 0
M  V30 1304 C 126.433 -3.30825 -3.06375 0
M  V30 1305 C 125.095 -3.71722 -3.05576 0
M  V30 1306 C 127.447 -4.26589 -2.99452 0
M  V30 1307 C 124.775 -5.06788 -2.95606 0
M  V30 1308 C 127.127 -5.61683 -2.91024 0
M  V30 1309 C 125.791 -6.01904 -2.88562 0
M  V30 1310 H 125.061 -0.404691 -0.620731 0
M  V30 1311 H 127.708 -1.55964 -1.11119 0
M  V30 1312 H 126.013 -1.27979 -3.70309 0
M  V30 1313 H 127.71 -1.6671 -3.64704 0
M  V30 1314 H 124.3 -2.98287 -3.07771 0
M  V30 1315 H 128.484 -3.95982 -2.99185 0
M  V30 1316 H 123.74 -5.37126 -2.92071 0
M  V30 1317 H 127.914 -6.35578 -2.84629 0
M  V30 1318 H 125.541 -7.06521 -2.80593 0
M  V30 1319 N 127.117 1.15442 -1.07289 0
M  V30 1320 C 128.528 1.67803 -0.818475 0
M  V30 1321 C 128.879 1.8489 0.656507 0
M  V30 1322 O 128.004 1.55176 1.50829 0
M  V30 1323 C 128.599 3.04805 -1.47917 0
M  V30 1324 C 127.158 3.54245 -1.27229 0
M  V30 1325 C 126.305 2.29986 -1.54925 0
M  V30 1326 H 129.256 0.996646 -1.23502 0
M  V30 1327 H 129.277 3.69702 -0.90005 0
M  V30 1328 H 128.789 2.92336 -2.55267 0
M  V30 1329 H 126.89 3.71956 -0.21899 0
M  V30 1330 H 127.003 4.35723 -1.99203 0
M  V30 1331 H 125.367 2.35496 -0.970242 0
M  V30 1332 H 126.15 2.20105 -2.63455 0
M  V30 1333 N 128.595 0.856903 1.32268 0
M  V30 1334 C 129.505 0.306131 2.32594 0
M  V30 1335 C 130.521 -0.577209 1.64147 0
M  V30 1336 O 131.697 -0.477043 1.95669 0
M  V30 1337 C 128.762 -0.494561 3.43154 0
M  V30 1338 C 127.823 0.415186 4.27288 0
M  V30 1339 C 127.056 -0.347387 5.32568 0
M  V30 1340 O 127.279 -1.57708 5.48165 0
M  V30 1341 O 126.213 0.287982 6.01211 0
M  V30 1342 H 130.039 1.13737 2.81598 0
M  V30 1343 H 127.624 0.619902 1.35932 0
M  V30 1344 H 129.506 -0.948944 4.10576 0
M  V30 1345 H 128.181 -1.30257 2.96336 0
M  V30 1346 H 127.088 0.917793 3.62667 0
M  V30 1347 H 128.421 1.18844 4.77637 0
M  V30 1348 N 130.073 -1.45103 0.615059 0
M  V30 1349 C 131.35 -1.95549 0.0448276 0
M  V30 1350 C 131.73 -1.55737 -1.4251 0
M  V30 1351 O 131.078 -0.823556 -2.13143 0
M  V30 1352 C 131.288 -3.48098 0.250785 0
M  V30 1353 C 132.636 -4.24384 0.135509 0
M  V30 1354 O 133.66 -3.55738 0.181299 0
M  V30 1355 O 132.519 -5.46493 0.0268878 0
M  V30 1356 H 129.613 -0.8264 -0.0314845 0
M  V30 1357 H 132.159 -1.55232 0.685642 0
M  V30 1358 H 130.931 -3.7007 1.27139 0
M  V30 1359 H 130.554 -3.95323 -0.424937 0
M  V30 1360 N 131.551 -0.354651 -1.53558 0
M  V30 1361 C 132.499 0.512195 -2.26891 0
M  V30 1362 C 133.493 1.09263 -1.29452 0
M  V30 1363 O 134.699 1.03709 -1.47121 0
M  V30 1364 H 131.074 0.183878 -0.729173 0
M  V30 1365 H 133.045 -0.128202 -2.98124 0
M  V30 1366 C 131.794 1.64563 -3.06291 0
M  V30 1367 H 131.117 1.20829 -3.81104 0
M  V30 1368 H 132.557 2.22711 -3.60799 0
M  V30 1369 C 131.016 2.58158 -2.16462 0
M  V30 1370 O 131.546 3.60695 -1.76811 0
M  V30 1371 N 129.752 2.27096 -1.81317 0
M  V30 1372 H 129.299 1.43751 -2.1376 0
M  V30 1373 H 129.257 2.89975 -1.21498 0
M  V30 1374 N 133.029 1.57378 -0.0835403 0
M  V30 1375 C 134.306 1.85363 0.624507 0
M  V30 1376 C 134.686 0.978239 1.87066 0
M  V30 1377 O 134.034 0.0475908 2.2845 0
M  V30 1378 C 134.244 3.35795 0.950947 0
M  V30 1379 C 135.592 4.03581 1.31939 0
M  V30 1380 O 136.616 3.40609 1.04232 0
M  V30 1381 O 135.475 5.14672 1.83779 0
M  V30 1382 H 132.569 0.766162 0.311329 0
M  V30 1383 H 135.115 1.69307 -0.115362 0
M  V30 1384 H 133.887 3.91244 0.0663899 0
M  V30 1385 H 133.51 3.57154 1.74719 0
M  V30 1386 N 134.507 -0.190092 1.56449 0
M  V30 1387 C 135.737 -0.92443 1.84764 0
M  V30 1388 C 136.145 -1.77146 0.664529 0
M  V30 1389 O 135.488 -1.79812 -0.375957 0
M  V30 1390 C 135.55 -1.86651 3.07248 0
M  V30 1391 C 135.214 -1.20094 4.40938 0
M  V30 1392 C 136.211 -0.575445 5.16706 0
M  V30 1393 C 133.896 -1.2033 4.87674 0
M  V30 1394 C 135.89 0.0388111 6.37388 0
M  V30 1395 C 133.577 -0.585214 6.08291 0
M  V30 1396 C 134.575 0.0347578 6.82991 0
M  V30 1397 O 134.263 0.643147 8.01323 0
M  V30 1398 H 133.995 -0.274974 0.617548 0
M  V30 1399 H 136.549 -0.200788 2.04416 0
M  V30 1400 H 134.779 -2.62998 2.83494 0
M  V30 1401 H 136.468 -2.46907 3.22167 0
M  V30 1402 H 137.234 -0.565728 4.81689 0
M  V30 1403 H 133.113 -1.67526 4.29484 0
M  V30 1404 H 136.657 0.523329 6.95634 0
M  V30 1405 H 132.554 -0.592451 6.42775 0
M  V30 1406 H 133.322 0.540545 8.16713 0
M  V30 1407 N 135.985 -1.50799 -0.457987 0
M  V30 1408 C 137.262 -1.52968 -1.21902 0
M  V30 1409 C 137.642 -0.281906 -2.09209 0
M  V30 1410 O 136.99 0.734076 -2.16388 0
M  V30 1411 C 137.2 -2.8326 -2.03875 0
M  V30 1412 C 138.548 -3.34425 -2.6162 0
M  V30 1413 O 139.572 -2.8467 -2.14106 0
M  V30 1414 O 138.431 -4.21188 -3.48228 0
M  V30 1415 H 135.525 -0.614129 -0.553873 0
M  V30 1416 H 138.071 -1.63098 -0.468739 0
M  V30 1417 H 136.843 -3.65543 -1.39621 0
M  V30 1418 H 136.466 -2.76195 -2.8601 0
M  V30 1419 N 137.463 0.71206 -1.40597 0
M  V30 1420 C 138.413 1.81783 -1.37619 0
M  V30 1421 C 139.397 1.58896 -0.253162 0
M  V30 1422 O 140.589 1.70009 -0.492547 0
M  V30 1423 C 137.718 3.19944 -1.24462 0
M  V30 1424 C 136.804 3.48582 -2.4156 0
M  V30 1425 N 137.195 3.48016 -3.67041 0
M  V30 1426 C 135.493 3.79056 -2.35016 0
M  V30 1427 C 136.194 3.75096 -4.44609 0
M  V30 1428 N 135.17 3.94022 -3.74497 0
M  V30 1429 H 138.972 1.79683 -2.32575 0
M  V30 1430 H 136.486 0.91134 -1.34419 0
M  V30 1431 H 138.483 3.99133 -1.20411 0
M  V30 1432 H 137.143 3.23267 -0.304762 0
M  V30 1433 H 138.154 3.28782 -4.00153 0
M  V30 1434 H 134.831 3.89848 -1.49415 0
M  V30 1435 H 136.221 3.80934 -5.53479 0
M  V30 1436 N 138.941 1.26152 0.944643 0
M  V30 1437 C 140.218 1.02247 1.66748 0
M  V30 1438 C 140.598 -0.448202 2.06287 0
M  V30 1439 O 139.946 -1.42779 1.78399 0
M  V30 1440 C 140.156 1.96788 2.88228 0
M  V30 1441 C 141.504 2.25201 3.59958 0
M  V30 1442 O 142.528 1.94626 2.98327 0
M  V30 1443 O 141.387 2.77242 4.70956 0
M  V30 1444 H 138.481 0.388517 0.730057 0
M  V30 1445 H 141.027 1.37348 0.99668 0
M  V30 1446 H 139.799 2.96047 2.55875 0
M  V30 1447 H 139.422 1.62145 3.63035 0
M  V30 1448 N 140.419 -1.14872 1.07899 0
M  V30 1449 C 141.644 -1.90202 0.826926 0
M  V30 1450 C 142.069 -1.77774 -0.614664 0
M  V30 1451 O 141.427 -1.11431 -1.43013 0
M  V30 1452 C 141.475 -3.38352 1.24702 0
M  V30 1453 O 140.579 -4.10497 0.39575 0
M  V30 1454 H 139.92 -0.591968 0.300782 0
M  V30 1455 H 142.45 -1.45437 1.43907 0
M  V30 1456 H 142.46 -3.89156 1.22563 0
M  V30 1457 H 141.135 -3.46715 2.29698 0
M  V30 1458 H 139.712 -3.69796 0.480117 0
M  V30 1459 N 141.898 -0.863906 -1.31812 0
M  V30 1460 C 143.123 -0.48527 -2.01643 0
M  V30 1461 C 143.548 0.913058 -1.64453 0
M  V30 1462 O 142.906 1.6014 -0.849985 0
M  V30 1463 C 142.954 -0.642625 -3.54828 0
M  V30 1464 O 142.058 0.320659 -4.11151 0
M  V30 1465 H 141.399 -0.193793 -0.635091 0
M  V30 1466 H 143.929 -1.16565 -1.68148 0
M  V30 1467 H 143.939 -0.533628 -4.04495 0
M  V30 1468 H 142.614 -1.66227 -3.81237 0
M  V30 1469 H 141.191 0.167126 -3.72525 0
M  V30 1470 N 143.376 1.44774 -0.622745 0
M  V30 1471 C 144.286 2.34433 0.0886031 0
M  V30 1472 C 145.302 1.52131 0.844529 0
M  V30 1473 O 146.478 1.84886 0.798691 0
M  V30 1474 C 143.543 3.29986 1.0635 0
M  V30 1475 C 142.604 4.28195 0.307873 0
M  V30 1476 C 141.837 5.19183 1.23633 0
M  V30 1477 O 142.06 5.13918 2.47476 0
M  V30 1478 O 140.994 5.97515 0.725189 0
M  V30 1479 H 144.82 2.96693 -0.648599 0
M  V30 1480 H 142.405 1.44408 -0.382957 0
M  V30 1481 H 144.287 3.88825 1.6246 0
M  V30 1482 H 142.962 2.70269 1.78146 0
M  V30 1483 H 141.869 3.72927 -0.296064 0
M  V30 1484 H 143.202 4.90808 -0.3699 0
M  V30 1485 N 144.854 0.36279 1.53368 0
M  V30 1486 C 146.084 -0.228281 2.05335 0
M  V30 1487 C 146.492 -1.43226 1.23625 0
M  V30 1488 O 145.835 -1.81717 0.269206 0
M  V30 1489 C 145.897 -0.688549 3.52845 0
M  V30 1490 C 145.561 0.398362 4.5526 0
M  V30 1491 C 146.558 1.24732 5.04716 0
M  V30 1492 C 144.243 0.557805 4.99193 0
M  V30 1493 C 146.237 2.2411 5.96702 0
M  V30 1494 C 143.924 1.55495 5.90986 0
M  V30 1495 C 144.922 2.39503 6.39631 0
M  V30 1496 O 144.61 3.37517 7.29615 0
M  V30 1497 H 144.342 -0.044395 0.674541 0
M  V30 1498 H 146.896 0.518668 1.98744 0
M  V30 1499 H 145.126 -1.48706 3.56964 0
M  V30 1500 H 146.815 -1.20231 3.87685 0
M  V30 1501 H 147.581 1.13532 4.71525 0
M  V30 1502 H 143.46 -0.0862959 4.60919 0
M  V30 1503 H 147.004 2.89718 6.34594 0
M  V30 1504 H 142.901 1.66744 6.23592 0
M  V30 1505 H 143.669 3.33213 7.47604 0
M  V30 1506 N 146.332 -1.57332 0.0918853 0
M  V30 1507 C 147.262 -2.16872 -0.865371 0
M  V30 1508 C 148.243 -1.10118 -1.29646 0
M  V30 1509 O 149.428 -1.38242 -1.36392 0
M  V30 1510 C 146.558 -2.74649 -2.12569 0
M  V30 1511 C 145.512 -3.86747 -1.83333 0
M  V30 1512 C 144.838 -4.31212 -3.16166 0
M  V30 1513 C 146.138 -5.10089 -1.1228 0
M  V30 1514 H 147.832 -2.97114 -0.369307 0
M  V30 1515 H 145.378 -1.42918 -0.176194 0
M  V30 1516 H 147.331 -3.14952 -2.7997 0
M  V30 1517 H 146.055 -1.91657 -2.64452 0
M  V30 1518 H 144.714 -3.46978 -1.18331 0
M  V30 1519 H 144.362 -3.45115 -3.6593 0
M  V30 1520 H 144.062 -5.06788 -2.97388 0
M  V30 1521 H 145.586 -4.74146 -3.84731 0
M  V30 1522 H 147 -5.47582 -1.69785 0
M  V30 1523 H 145.397 -5.91073 -1.03693 0
M  V30 1524 H 146.467 -4.84786 -0.105041 0
M  V30 1525 N 147.81 0.181792 -1.56548 0
M  V30 1526 C 148.74 1.22765 -1.98623 0
M  V30 1527 C 149.721 1.46747 -0.860189 0
M  V30 1528 O 150.906 1.58259 -1.12551 0
M  V30 1529 C 148.036 2.56894 -2.33715 0
M  V30 1530 C 146.99 2.475 -3.49182 0
M  V30 1531 C 146.316 3.86023 -3.69986 0
M  V30 1532 C 147.616 1.98866 -4.82959 0
M  V30 1533 H 149.31 0.877942 -2.86239 0
M  V30 1534 H 146.856 0.42088 -1.37712 0
M  V30 1535 H 148.809 3.30253 -2.61746 0
M  V30 1536 H 147.533 2.93632 -1.42997 0
M  V30 1537 H 146.192 1.76596 -3.21262 0
M  V30 1538 H 145.84 4.20136 -2.76576 0
M  V30 1539 H 145.54 3.80609 -4.47672 0
M  V30 1540 H 147.064 4.60984 -4.00407 0
M  V30 1541 H 148.478 2.61992 -5.09934 0
M  V30 1542 H 146.875 2.04424 -5.64208 0
M  V30 1543 H 147.945 0.942465 -4.75653 0
M  V30 1544 N 149.288 1.51039 0.449983 0
M  V30 1545 C 150.704 1.38934 0.785462 0
M  V30 1546 C 150.904 0.461817 1.96136 0
M  V30 1547 O 149.96 -0.0877389 2.52348 0
M  V30 1548 C 151.273 2.80724 1.0777 0
M  V30 1549 C 152.821 2.89787 1.1829 0
M  V30 1550 C 153.296 4.32457 1.50815 0
M  V30 1551 N 154.787 4.35505 1.57764 0
M  V30 1552 C 155.522 5.42914 1.84477 0
M  V30 1553 N 155.018 6.60502 2.09068 0
M  V30 1554 N 156.811 5.3038 1.86155 0
M  V30 1555 H 148.962 2.09904 -0.324647 0
M  V30 1556 H 151.225 0.944378 -0.0827957 0
M  V30 1557 H 150.931 3.50531 0.286498 0
M  V30 1558 H 150.805 3.19273 2.00859 0
M  V30 1559 H 153.192 2.20186 1.96474 0
M  V30 1560 H 153.273 2.54752 0.231314 0
M  V30 1561 H 152.917 5.02603 0.731622 0
M  V30 1562 H 152.847 4.64995 2.47158 0
M  V30 1563 H 155.338 3.50724 1.40715 0
M  V30 1564 H 155.651 7.38158 2.28785 0
M  V30 1565 H 153.996 6.63639 2.06416 0
M  V30 1566 H 157.187 4.37505 1.66454 0
M  V30 1567 H 157.36 6.1417 2.06637 0
M  V30 1568 N 150.766 -0.704594 1.40972 0
M  V30 1569 C 152.015 -1.46018 1.39146 0
M  V30 1570 C 152.328 -1.956 0.000589254 0
M  V30 1571 O 153.534 -2.71137 -0.1403 0
M  V30 1572 C 151.99 -2.63996 2.4461 0
M  V30 1573 C 151.598 -2.21238 3.89561 0
M  V30 1574 C 153.342 -3.41677 2.51907 0
M  V30 1575 C 151.249 -3.3612 4.86598 0
M  V30 1576 H 150.179 -0.548444 0.517422 0
M  V30 1577 H 152.83 -0.765784 1.66757 0
M  V30 1578 H 151.212 -3.3566 2.10115 0
M  V30 1579 H 152.386 -1.56923 4.33257 0
M  V30 1580 H 150.701 -1.56574 3.85841 0
M  V30 1581 H 153.298 -4.27182 3.2159 0
M  V30 1582 H 153.641 -3.86247 1.55303 0
M  V30 1583 H 154.174 -2.77064 2.85448 0
M  V30 1584 H 150.913 -2.96572 5.84573 0
M  V30 1585 H 150.433 -3.99315 4.47557 0
M  V30 1586 H 152.112 -4.02029 5.06934 0
M  V30 1587 N 152.244 -1.26651 -0.937939 0
M  V30 1588 C 153.49 -1.12553 -1.687 0
M  V30 1589 C 153.823 0.329782 -1.91379 0
M  V30 1590 O 153.098 1.24202 -1.4968 0
M  V30 1591 C 153.381 -1.89862 -3.05981 0
M  V30 1592 C 153.234 -3.43318 -2.90607 0
M  V30 1593 C 154.553 -1.69499 -4.0615 0
M  V30 1594 H 151.672 -0.410257 -0.612257 0
M  V30 1595 H 154.314 -1.55685 -1.08913 0
M  V30 1596 H 152.464 -1.53204 -3.57017 0
M  V30 1597 H 154.136 -3.89747 -2.46769 0
M  V30 1598 H 152.379 -3.70179 -2.26164 0
M  V30 1599 H 153.05 -3.92642 -3.8799 0
M  V30 1600 H 155.526 -2.01442 -3.64088 0
M  V30 1601 H 154.402 -2.26002 -5.00214 0
M  V30 1602 H 154.663 -0.640365 -4.37438 0
M  V30 1603 N 153.722 1.14298 -1.08507 0
M  V30 1604 C 155.138 1.37347 -0.812901 0
M  V30 1605 C 155.338 1.93052 0.577325 0
M  V30 1606 O 154.394 2.14389 1.33393 0
M  V30 1607 C 155.707 2.33359 -1.89642 0
M  V30 1608 C 157.255 2.46996 -1.92255 0
M  V30 1609 C 157.73 3.46309 -2.99724 0
M  V30 1610 N 159.221 3.53853 -2.98902 0
M  V30 1611 C 159.956 4.3055 -3.787 0
M  V30 1612 N 159.452 5.10482 -4.6838 0
M  V30 1613 N 161.245 4.25757 -3.66998 0
M  V30 1614 H 153.396 0.764867 -1.9815 0
M  V30 1615 H 155.659 0.398966 -0.859959 0
M  V30 1616 H 155.365 1.99565 -2.89597 0
M  V30 1617 H 155.239 3.33274 -1.76659 0
M  V30 1618 H 157.626 2.80081 -0.929445 0
M  V30 1619 H 157.707 1.47039 -2.09316 0
M  V30 1620 H 157.351 3.13957 -3.99241 0
M  V30 1621 H 157.281 4.46049 -2.79907 0
M  V30 1622 H 159.772 2.96812 -2.33904 0
M  V30 1623 H 160.085 5.66284 -5.25873 0
M  V30 1624 H 158.43 5.09747 -4.72422 0
M  V30 1625 H 161.621 3.62383 -2.96304 0
M  V30 1626 H 161.794 4.85279 -4.29427 0
M  V30 1627 N 155.201 0.870884 1.31352 0
M  V30 1628 C 156.164 0.332243 2.26779 0
M  V30 1629 C 157.164 -0.517302 1.52252 0
M  V30 1630 O 158.354 -0.326477 1.71113 0
M  V30 1631 C 155.486 -0.528066 3.36785 0
M  V30 1632 H 156.679 1.17469 2.75937 0
M  V30 1633 H 154.232 0.64655 1.423 0
M  V30 1634 H 154.967 -1.39167 2.92922 0
M  V30 1635 H 154.752 0.0802582 3.92018 0
M  V30 1636 H 156.242 -0.897179 4.07849 0
M  V30 1637 N 156.679 -1.44442 0.630414 0
M  V30 1638 C 157.904 -2.06927 0.139944 0
M  V30 1639 C 158.329 -1.46795 -1.17613 0
M  V30 1640 O 157.687 -0.569144 -1.72135 0
M  V30 1641 C 157.735 -3.6058 0.0379581 0
M  V30 1642 O 156.839 -3.99937 -1.0062 0
M  V30 1643 H 156.18 -0.658608 0.0844483 0
M  V30 1644 H 158.71 -1.85327 0.866891 0
M  V30 1645 H 158.72 -4.07714 -0.152856 0
M  V30 1646 H 157.395 -4.03728 0.998809 0
M  V30 1647 H 155.972 -3.64436 -0.79001 0
M  V30 1648 N 158.157 -0.370918 -1.53173 0
M  V30 1649 C 159.382 0.220293 -2.06227 0
M  V30 1650 C 159.807 1.41243 -1.24225 0
M  V30 1651 O 159.165 1.79387 -0.262645 0
M  V30 1652 C 159.213 0.586663 -3.55796 0
M  V30 1653 O 158.317 1.68317 -3.76488 0
M  V30 1654 H 157.658 0.0308099 -0.663285 0
M  V30 1655 H 160.188 -0.533068 -1.97534 0
M  V30 1656 H 160.198 0.85617 -3.98916 0
M  V30 1657 H 158.873 -0.285013 -4.14922 0
M  V30 1658 H 157.45 1.40881 -3.45264 0
M  V30 1659 N 159.635 1.57281 -0.100228 0
M  V30 1660 C 160.881 1.94826 0.563101 0
M  V30 1661 C 161.214 0.982475 1.67514 0
M  V30 1662 O 160.489 0.0164069 1.94493 0
M  V30 1663 C 160.772 3.42453 1.11346 0
M  V30 1664 C 160.625 4.498 0.00612081 0
M  V30 1665 C 161.944 3.91506 2.01024 0
M  V30 1666 H 159.063 0.708428 0.203221 0
M  V30 1667 H 161.705 1.8922 -0.171979 0
M  V30 1668 H 159.855 3.47361 1.7399 0
M  V30 1669 H 161.527 4.57 -0.628357 0
M  V30 1670 H 159.77 4.28756 -0.659581 0
M  V30 1671 H 160.441 5.50306 0.432109 0
M  V30 1672 H 162.917 3.88784 1.48278 0
M  V30 1673 H 161.793 4.95358 2.36457 0
M  V30 1674 H 162.054 3.31099 2.92961 0
M  V30 1675 N 161.113 -0.173488 1.56642 0
M  V30 1676 C 162.36 -0.890465 1.81871 0
M  V30 1677 C 162.688 -1.82339 0.67696 0
M  V30 1678 O 161.943 -1.92795 -0.335926 0
M  V30 1679 C 162.242 -1.72069 3.13252 0
M  V30 1680 C 161.908 -0.936878 4.41059 0
M  V30 1681 C 160.57 -0.720545 4.75775 0
M  V30 1682 C 162.922 -0.386919 5.19762 0
M  V30 1683 C 160.25 0.0568829 5.86672 0
M  V30 1684 C 162.602 0.37741 6.31473 0
M  V30 1685 C 161.266 0.604563 6.64757 0
M  V30 1686 H 160.536 -0.325844 0.665512 0
M  V30 1687 H 163.183 -0.155527 1.90867 0
M  V30 1688 H 161.488 -2.52496 2.99588 0
M  V30 1689 H 163.185 -2.27844 3.29982 0
M  V30 1690 H 159.775 -1.11553 4.13828 0
M  V30 1691 H 163.959 -0.541398 4.93338 0
M  V30 1692 H 159.215 0.242635 6.10918 0
M  V30 1693 H 163.389 0.810825 6.91664 0
M  V30 1694 H 161.016 1.20885 7.50527 0
M  V30 1695 N 162.591 -1.51276 -0.441967 0
M  V30 1696 C 164.002 -1.56244 -1.02199 0
M  V30 1697 C 164.353 -0.383149 -1.92422 0
M  V30 1698 O 163.478 0.500613 -2.1053 0
M  V30 1699 C 164.073 -2.83162 -1.86024 0
M  V30 1700 C 162.632 -2.90716 -2.39084 0
M  V30 1701 C 161.779 -2.50858 -1.18175 0
M  V30 1702 H 164.73 -1.5712 -0.223416 0
M  V30 1703 H 164.751 -2.66663 -2.71425 0
M  V30 1704 H 164.263 -3.68974 -1.20331 0
M  V30 1705 H 162.364 -2.09323 -3.08244 0
M  V30 1706 H 162.477 -3.94266 -2.72198 0
M  V30 1707 H 160.841 -2.03951 -1.52565 0
M  V30 1708 H 161.624 -3.3901 -0.541001 0
M  V30 1709 N 164.069 0.697108 -1.41344 0
M  V30 1710 C 165.318 1.45279 -1.39918 0
M  V30 1711 C 165.631 1.95597 -0.0109624 0
M  V30 1712 O 166.837 2.71208 0.125919 0
M  V30 1713 C 165.293 2.62695 -2.46007 0
M  V30 1714 C 164.901 2.19169 -3.90729 0
M  V30 1715 C 166.645 3.40336 -2.53715 0
M  V30 1716 C 164.552 3.33535 -4.88373 0
M  V30 1717 H 163.482 0.545692 -0.520323 0
M  V30 1718 H 166.133 0.756929 -1.67161 0
M  V30 1719 H 164.515 3.34541 -2.11892 0
M  V30 1720 H 165.689 1.54623 -4.34083 0
M  V30 1721 H 164.004 1.54525 -3.86666 0
M  V30 1722 H 166.601 4.2547 -3.2385 0
M  V30 1723 H 166.944 3.85418 -1.5735 0
M  V30 1724 H 167.477 2.75546 -2.86913 0
M  V30 1725 H 164.216 2.93468 -5.86137 0
M  V30 1726 H 163.736 3.96936 -4.49668 0
M  V30 1727 H 165.415 3.99335 -5.09059 0
M  V30 1728 N 165.547 1.27147 0.931209 0
M  V30 1729 C 166.477 1.12081 2.04842 0
M  V30 1730 C 167.458 0.0232364 1.70084 0
M  V30 1731 O 168.643 0.197085 1.93197 0
M  V30 1732 C 165.773 0.76354 3.38803 0
M  V30 1733 C 164.727 1.81396 3.87659 0
M  V30 1734 C 164.053 1.31075 5.18385 0
M  V30 1735 C 165.353 3.21739 4.11438 0
M  V30 1736 H 167.047 2.05537 2.17703 0
M  V30 1737 H 164.593 0.989603 1.04608 0
M  V30 1738 H 166.546 0.644982 4.16435 0
M  V30 1739 H 165.27 -0.206727 3.25945 0
M  V30 1740 H 163.929 1.92136 3.12217 0
M  V30 1741 H 163.577 0.330037 5.01916 0
M  V30 1742 H 163.277 2.013 5.52044 0
M  V30 1743 H 164.801 1.20506 5.98591 0
M  V30 1744 H 166.215 3.14019 4.79651 0
M  V30 1745 H 164.612 3.89644 4.56397 0
M  V30 1746 H 165.682 3.67054 3.16859 0
M  V30 1747 N 167.025 -1.13721 1.09112 0
M  V30 1748 C 168.25 -1.89314 0.847053 0
M  V30 1749 C 168.675 -1.78416 -0.595774 0
M  V30 1750 O 168.033 -1.12942 -1.41823 0
M  V30 1751 C 168.081 -3.3701 1.28284 0
M  V30 1752 O 167.185 -4.10054 0.439267 0
M  V30 1753 H 166.526 -0.588745 0.307044 0
M  V30 1754 H 169.056 -1.43902 1.45442 0
M  V30 1755 H 169.066 -3.87834 1.26683 0
M  V30 1756 H 167.741 -3.4426 2.33363 0
M  V30 1757 H 166.318 -3.69266 0.519312 0
M  V30 1758 N 168.503 -0.877838 -1.30888 0
M  V30 1759 C 169.731 -0.507414 -2.00581 0
M  V30 1760 C 170.146 0.902216 -1.65848 0
M  V30 1761 O 169.503 1.59225 -0.891831 0
M  V30 1762 C 169.554 -0.664162 -3.55347 0
M  V30 1763 O 169.275 -2.01829 -3.8884 0
M  V30 1764 C 170.776 -0.295787 -4.42312 0
M  V30 1765 H 167.996 -0.196866 -0.641471 0
M  V30 1766 H 170.54 -1.18117 -1.66939 0
M  V30 1767 H 168.695 -0.0378619 -3.87381 0
M  V30 1768 H 169.109 -2.03174 -4.8355 0
M  V30 1769 H 170.583 -0.456388 -5.5011 0
M  V30 1770 H 171.06 0.765663 -4.32475 0
M  V30 1771 H 171.666 -0.898113 -4.15709 0
M  V30 1772 N 169.982 1.44106 -0.638065 0
M  V30 1773 C 171.231 2.01194 -0.142744 0
M  V30 1774 C 171.544 1.50835 1.24532 0
M  V30 1775 O 172.75 2.00096 1.83504 0
M  V30 1776 C 171.206 3.59319 -0.20442 0
M  V30 1777 C 170.814 4.18674 -1.59423 0
M  V30 1778 C 172.558 4.23854 0.234079 0
M  V30 1779 C 170.465 5.69045 -1.61065 0
M  V30 1780 H 169.395 0.752367 -0.0495998 0
M  V30 1781 H 172.046 1.65246 -0.797881 0
M  V30 1782 H 170.428 3.92598 0.517946 0
M  V30 1783 H 171.602 3.96921 -2.34074 0
M  V30 1784 H 169.917 3.66453 -1.97741 0
M  V30 1785 H 172.514 5.34155 0.241443 0
M  V30 1786 H 172.857 3.96688 1.2627 0
M  V30 1787 H 173.39 3.95403 -0.436025 0
M  V30 1788 H 170.129 6.00956 -2.61787 0
M  V30 1789 H 169.649 5.929 -0.90718 0
M  V30 1790 H 171.328 6.32809 -1.34766 0
M  V30 1791 N 171.46 0.379036 1.52974 0
M  V30 1792 C 172.39 -0.452706 2.29069 0
M  V30 1793 C 173.371 -1.07237 1.32039 0
M  V30 1794 O 174.556 -1.08708 1.60923 0
M  V30 1795 C 171.686 -1.5856 3.08992 0
M  V30 1796 C 170.64 -1.0925 4.13822 0
M  V30 1797 C 169.966 -2.31668 4.81907 0
M  V30 1798 C 171.266 -0.167702 5.22031 0
M  V30 1799 H 172.96 0.182181 2.98845 0
M  V30 1800 H 170.506 0.0890592 1.43724 0
M  V30 1801 H 172.459 -2.1742 3.6098 0
M  V30 1802 H 171.183 -2.24792 2.36931 0
M  V30 1803 H 169.842 -0.526494 3.628 0
M  V30 1804 H 169.49 -2.96386 4.06404 0
M  V30 1805 H 169.19 -1.9934 5.52754 0
M  V30 1806 H 170.714 -2.91189 5.36695 0
M  V30 1807 H 172.128 -0.664186 5.6944 0
M  V30 1808 H 170.525 0.0653265 6.00064 0
M  V30 1809 H 171.595 0.786347 4.78482 0
M  V30 1810 N 172.938 -1.57226 0.108567 0
M  V30 1811 C 173.868 -2.17778 -0.84232 0
M  V30 1812 C 174.849 -1.11487 -1.2847 0
M  V30 1813 O 176.034 -1.39681 -1.34918 0
M  V30 1814 C 173.164 -2.76888 -2.09644 0
M  V30 1815 C 172.118 -3.88669 -1.79221 0
M  V30 1816 C 171.444 -4.34541 -3.11574 0
M  V30 1817 C 172.744 -5.11251 -1.06864 0
M  V30 1818 H 174.438 -2.97489 -0.337774 0
M  V30 1819 H 171.984 -1.43097 -0.161025 0
M  V30 1820 H 173.937 -3.17904 -2.76614 0
M  V30 1821 H 172.661 -1.94451 -2.62405 0
M  V30 1822 H 171.32 -3.48213 -1.14644 0
M  V30 1823 H 170.968 -3.48977 -3.62249 0
M  V30 1824 H 170.668 -5.09914 -2.91996 0
M  V30 1825 H 172.192 -4.782 -3.7968 0
M  V30 1826 H 173.606 -5.49352 -1.63968 0
M  V30 1827 H 172.003 -5.9214 -0.974178 0
M  V30 1828 H 173.073 -4.8487 -0.0536168 0
M  V30 1829 N 174.416 0.165178 -1.56732 0
M  V30 1830 C 175.346 1.20651 -1.99914 0
M  V30 1831 C 176.327 1.45827 -0.875705 0
M  V30 1832 O 177.512 1.57057 -1.14223 0
M  V30 1833 C 174.642 2.54401 -2.36427 0
M  V30 1834 C 173.596 2.43782 -3.51787 0
M  V30 1835 C 172.922 3.82078 -3.7406 0
M  V30 1836 C 174.222 1.93732 -4.85041 0
M  V30 1837 H 175.916 0.847534 -2.87154 0
M  V30 1838 H 173.462 0.40625 -1.38151 0
M  V30 1839 H 175.415 3.27458 -2.65234 0
M  V30 1840 H 174.139 2.92098 -1.46103 0
M  V30 1841 H 172.798 1.73178 -3.23117 0
M  V30 1842 H 172.446 4.17179 -2.81017 0
M  V30 1843 H 172.146 3.7584 -4.51684 0
M  V30 1844 H 173.67 4.56712 -4.05274 0
M  V30 1845 H 175.084 2.56569 -5.12684 0
M  V30 1846 H 173.481 1.98428 -5.66345 0
M  V30 1847 H 174.551 0.891962 -4.76626 0
M  V30 1848 N 175.894 1.51508 0.433938 0
M  V30 1849 C 176.824 1.76016 1.53429 0
M  V30 1850 C 177.805 0.610112 1.58782 0
M  V30 1851 O 178.99 0.853177 1.74455 0
M  V30 1852 C 176.12 1.88831 2.9148 0
M  V30 1853 C 175.074 3.04288 3.00987 0
M  V30 1854 C 174.4 3.0229 4.4105 0
M  V30 1855 C 175.7 4.44193 2.74754 0
M  V30 1856 H 177.394 2.68152 1.33171 0
M  V30 1857 H 174.94 1.29035 0.639214 0
M  V30 1858 H 176.893 2.04559 3.6842 0
M  V30 1859 H 175.617 0.933455 3.12976 0
M  V30 1860 H 174.276 2.8827 2.26486 0
M  V30 1861 H 173.924 2.04576 4.59519 0
M  V30 1862 H 173.624 3.79822 4.4834 0
M  V30 1863 H 175.148 3.20116 5.1996 0
M  V30 1864 H 176.562 4.60544 3.41426 0
M  V30 1865 H 174.959 5.23457 2.9345 0
M  V30 1866 H 176.029 4.53996 1.70339 0
M  V30 1867 N 177.372 -0.689602 1.41712 0
M  V30 1868 C 178.62 -1.4468 1.4111 0
M  V30 1869 C 178.941 -1.94986 0.0232196 0
M  V30 1870 O 178.211 -1.72097 -0.935913 0
M  V30 1871 H 176.791 -0.536847 0.519427 0
M  V30 1872 H 179.453 -0.815825 1.77004 0
M  V30 1873 H 178.549 -2.30706 2.10193 0
M  V30 1874 N 178.85 -1.27639 -0.924453 0
M  V30 1875 C 180.098 -1.13941 -1.66918 0
M  V30 1876 C 180.419 0.314589 -1.92446 0
M  V30 1877 O 179.689 1.21964 -1.53303 0
M  V30 1878 H 178.269 -0.418678 -0.618642 0
M  V30 1879 H 180.931 -1.60213 -1.10985 0
M  V30 1880 H 180.027 -1.67094 -2.63602 0
M  V30 1881 N 180.328 1.1314 -1.09713 0
M  V30 1882 C 181.258 2.20748 -0.761102 0
M  V30 1883 C 182.239 1.68061 0.262566 0
M  V30 1884 O 183.424 1.93765 0.129977 0
M  V30 1885 C 180.554 3.46812 -0.184054 0
M  V30 1886 C 179.508 4.12606 -1.13757 0
M  V30 1887 C 178.834 5.33031 -0.422083 0
M  V30 1888 C 180.134 4.59603 -2.48118 0
M  V30 1889 H 181.828 2.49113 -1.66082 0
M  V30 1890 H 179.374 1.19734 -0.799987 0
M  V30 1891 H 181.327 4.21353 0.0631215 0
M  V30 1892 H 180.051 3.17851 0.750868 0
M  V30 1893 H 178.71 3.40036 -1.37007 0
M  V30 1894 H 178.358 5.00335 0.517072 0
M  V30 1895 H 178.058 5.77999 -1.05788 0
M  V30 1896 H 179.582 6.10325 -0.183277 0
M  V30 1897 H 180.996 5.25552 -2.29059 0
M  V30 1898 H 179.393 5.15321 -3.07514 0
M  V30 1899 H 180.463 3.73971 -3.08665 0
M  V30 1900 N 181.806 0.884767 1.30421 0
M  V30 1901 C 183.046 0.509806 1.9794 0
M  V30 1902 C 183.41 -0.923736 1.68319 0
M  V30 1903 O 184.611 -1.40481 2.29169 0
M  V30 1904 C 182.882 0.776732 3.48858 0
M  V30 1905 S 184.441 0.503843 4.35898 0
M  V30 1906 H 181.259 0.189699 0.685227 0
M  V30 1907 H 183.861 1.14399 1.58535 0
M  V30 1908 H 182.565 1.81857 3.67908 0
M  V30 1909 H 182.096 0.1301 3.93185 0
M  V30 1910 H 184.111 -0.657625 4.91823 0
M  V30 1911 N 183.284 -1.43765 0.645699 0
M  V30 1912 C 184.533 -2.01116 0.153412 0
M  V30 1913 C 184.846 -1.51493 -1.23731 0
M  V30 1914 O 186.052 -2.01067 -1.8244 0
M  V30 1915 C 184.508 -3.59206 0.223473 0
M  V30 1916 C 184.116 -4.17823 1.61642 0
M  V30 1917 C 185.86 -4.23972 -0.211597 0
M  V30 1918 C 183.767 -5.68183 1.64081 0
M  V30 1919 H 182.697 -0.752093 0.0535891 0
M  V30 1920 H 185.348 -1.6482 0.806633 0
M  V30 1921 H 183.73 -3.92867 -0.497118 0
M  V30 1922 H 184.904 -3.95674 2.36176 0
M  V30 1923 H 183.219 -3.65399 1.99681 0
M  V30 1924 H 185.816 -5.34275 -0.213112 0
M  V30 1925 H 186.159 -3.97352 -1.24165 0
M  V30 1926 H 186.692 -3.95166 0.456988 0
M  V30 1927 H 183.431 -5.99559 2.64971 0
M  V30 1928 H 182.951 -5.9241 0.938611 0
M  V30 1929 H 184.63 -6.32085 1.3812 0
M  V30 1930 N 184.763 -0.387143 -1.52771 0
M  V30 1931 C 186.011 0.195349 -2.01154 0
M  V30 1932 C 186.332 1.475 -1.27549 0
M  V30 1933 O 185.602 1.91878 -0.394924 0
M  V30 1934 H 184.182 0.075178 -0.743207 0
M  V30 1935 H 186.844 -0.518337 -1.87881 0
M  V30 1936 H 185.94 0.407096 -3.09434 0
M  V30 1937 N 186.241 1.57166 -0.116904 0
M  V30 1938 C 187.204 2.14039 0.819742 0
M  V30 1939 C 188.204 1.07477 1.19605 0
M  V30 1940 O 189.394 1.33263 1.1219 0
M  V30 1941 C 186.526 2.67891 2.10826 0
M  V30 1942 H 187.719 2.98128 0.325511 0
M  V30 1943 H 185.272 1.55739 0.132312 0
M  V30 1944 H 186.007 1.87384 2.64685 0
M  V30 1945 H 185.792 3.45823 1.84793 0
M  V30 1946 H 187.282 3.11809 2.77785 0
M  V30 1947 N 187.719 -0.156864 1.56817 0
M  V30 1948 C 188.967 -0.869404 1.82444 0
M  V30 1949 C 189.288 -1.82147 0.69623 0
M  V30 1950 O 188.558 -1.93847 -0.28287 0
M  V30 1951 H 187.138 -0.324043 0.673056 0
M  V30 1952 H 189.8 -0.153224 1.94297 0
M  V30 1953 H 188.896 -1.43761 2.77019 0
M  V30 1954 N 189.197 -1.51736 -0.425897 0
M  V30 1955 C 190.613 -1.40166 -0.76326 0
M  V30 1956 C 190.813 -0.492962 -1.95377 0
M  V30 1957 O 189.869 0.0475815 -2.52455 0
M  V30 1958 C 191.182 -2.82403 -1.03291 0
M  V30 1959 C 192.73 -2.91632 -1.13665 0
M  V30 1960 C 193.205 -4.34801 -1.43916 0
M  V30 1961 N 194.696 -4.3796 -1.50816 0
M  V30 1962 C 195.431 -5.4578 -1.75817 0
M  V30 1963 N 194.927 -6.63744 -1.98534 0
M  V30 1964 N 196.72 -5.33274 -1.77694 0
M  V30 1965 H 188.871 -2.09361 0.358 0
M  V30 1966 H 191.134 -0.942941 0.0978094 0
M  V30 1967 H 190.84 -3.50943 -0.230696 0
M  V30 1968 H 190.714 -3.22428 -1.95754 0
M  V30 1969 H 193.101 -2.23284 -1.92947 0
M  V30 1970 H 193.182 -2.55088 -0.190756 0
M  V30 1971 H 192.826 -5.03703 -0.65157 0
M  V30 1972 H 192.756 -4.68868 -2.39729 0
M  V30 1973 H 195.247 -3.52919 -1.35118 0
M  V30 1974 H 195.56 -7.41704 -2.17013 0
M  V30 1975 H 193.905 -6.66839 -1.95832 0
M  V30 1976 H 197.096 -4.40098 -1.59473 0
M  V30 1977 H 197.269 -6.1738 -1.9684 0
M  V30 1978 N 190.675 0.682077 -1.42076 0
M  V30 1979 C 191.924 1.43786 -1.41451 0
M  V30 1980 C 192.237 1.95574 -0.0317074 0
M  V30 1981 O 193.443 2.71326 0.0971462 0
M  V30 1982 C 191.899 2.60071 -2.48779 0
M  V30 1983 C 191.507 2.15013 -3.93031 0
M  V30 1984 C 193.251 3.37626 -2.57311 0
M  V30 1985 C 191.158 3.28336 -4.91883 0
M  V30 1986 H 190.088 0.540143 -0.526082 0
M  V30 1987 H 192.739 0.739157 -1.67955 0
M  V30 1988 H 191.121 3.32275 -2.15429 0
M  V30 1989 H 192.295 1.5001 -4.35699 0
M  V30 1990 H 190.61 1.50416 -3.88284 0
M  V30 1991 H 193.207 4.22012 -3.28345 0
M  V30 1992 H 193.55 3.83727 -1.61429 0
M  V30 1993 H 194.083 2.72488 -2.89819 0
M  V30 1994 H 190.822 2.87234 -5.89217 0
M  V30 1995 H 190.342 3.92145 -4.53853 0
M  V30 1996 H 192.021 3.93913 -5.13265 0
M  V30 1997 N 192.153 1.28127 0.917671 0
M  V30 1998 C 193.383 1.17722 1.6978 0
M  V30 1999 C 193.791 -0.267261 1.87303 0
M  V30 2000 O 193.134 -1.19286 1.39702 0
M  V30 2001 C 193.196 1.79958 3.11216 0
M  V30 2002 C 192.86 3.29187 3.16993 0
M  V30 2003 C 193.857 4.25679 2.98485 0
M  V30 2004 C 191.542 3.70075 3.39632 0
M  V30 2005 C 193.536 5.61035 3.02521 0
M  V30 2006 C 191.223 5.05557 3.433 0
M  V30 2007 C 192.221 6.00847 3.24764 0
M  V30 2008 O 191.909 7.33859 3.28187 0
M  V30 2009 H 191.641 0.409788 0.537634 0
M  V30 2010 H 194.195 1.69694 1.15728 0
M  V30 2011 H 192.425 1.22475 3.66793 0
M  V30 2012 H 194.114 1.64125 3.71238 0
M  V30 2013 H 194.88 3.95426 2.80826 0
M  V30 2014 H 190.759 2.96373 3.53106 0
M  V30 2015 H 194.303 6.35388 2.87971 0
M  V30 2016 H 190.2 5.35462 3.60486 0
M  V30 2017 H 190.968 7.42436 3.44575 0
M  V30 2018 N 193.631 -1.12557 1.10312 0
M  V30 2019 C 194.856 -1.88405 0.867085 0
M  V30 2020 C 195.281 -1.79038 -0.576817 0
M  V30 2021 O 194.639 -1.14439 -1.40618 0
M  V30 2022 C 194.687 -3.3563 1.31851 0
M  V30 2023 O 193.791 -4.09565 0.482734 0
M  V30 2024 H 193.132 -0.585455 0.313271 0
M  V30 2025 H 195.662 -1.42352 1.4696 0
M  V30 2026 H 195.672 -3.86469 1.3079 0
M  V30 2027 H 194.347 -3.41765 2.37001 0
M  V30 2028 H 192.924 -3.68695 0.558448 0
M  V30 2029 N 195.109 -0.891671 -1.2995 0
M  V30 2030 C 196.525 -0.58662 -1.48428 0
M  V30 2031 C 196.725 0.873951 -1.81561 0
M  V30 2032 O 195.781 1.65471 -1.90724 0
M  V30 2033 C 197.094 -1.50553 -2.60296 0
M  V30 2034 C 198.642 -1.50988 -2.74175 0
M  V30 2035 C 199.117 -2.41488 -3.89163 0
M  V30 2036 N 200.608 -2.39489 -3.96483 0
M  V30 2037 C 201.343 -3.06223 -4.84784 0
M  V30 2038 N 200.839 -3.82206 -5.77833 0
M  V30 2039 N 202.632 -2.95421 -4.78208 0
M  V30 2040 H 194.783 -1.83644 -1.06718 0
M  V30 2041 H 197.046 -0.786455 -0.529332 0
M  V30 2042 H 196.752 -2.54581 -2.42654 0
M  V30 2043 H 196.626 -1.22008 -3.56923 0
M  V30 2044 H 199.013 -0.47708 -2.91218 0
M  V30 2045 H 199.094 -1.83567 -1.78148 0
M  V30 2046 H 198.738 -3.44857 -3.72876 0
M  V30 2047 H 198.668 -2.06222 -4.84541 0
M  V30 2048 H 201.159 -1.84278 -3.29924 0
M  V30 2049 H 201.472 -4.302 -6.41988 0
M  V30 2050 H 199.817 -3.86313 -5.77743 0
M  V30 2051 H 203.008 -2.35581 -4.04499 0
M  V30 2052 H 203.181 -3.47704 -5.46814 0
M  V30 2053 N 196.587 1.43421 -0.653314 0
M  V30 2054 C 197.534 2.30768 0.0382271 0
M  V30 2055 C 198.504 1.44755 0.814576 0
M  V30 2056 O 199.689 1.73624 0.791162 0
M  V30 2057 C 196.829 3.30336 0.998599 0
M  V30 2058 C 195.942 4.31448 0.218342 0
M  V30 2059 C 195.077 5.18098 1.17252 0
M  V30 2060 C 194.116 6.10902 0.382702 0
M  V30 2061 N 193.253 6.90176 1.28848 0
M  V30 2062 H 198.093 2.89357 -0.712511 0
M  V30 2063 H 195.63 1.42548 -0.363128 0
M  V30 2064 H 197.588 3.86572 1.56901 0
M  V30 2065 H 196.218 2.73397 1.71621 0
M  V30 2066 H 195.27 3.77506 -0.46836 0
M  V30 2067 H 196.582 4.97227 -0.395812 0
M  V30 2068 H 195.736 5.7896 1.81356 0
M  V30 2069 H 194.475 4.52444 1.82058 0
M  V30 2070 H 193.48 5.49128 -0.27169 0
M  V30 2071 H 194.705 6.78598 -0.260957 0
M  V30 2072 H 192.651 6.27171 1.92334 0
M  V30 2073 H 192.568 7.52478 0.728887 0
M  V30 2074 H 193.836 7.55543 1.91766 0
M  V30 2075 N 198.065 0.39524 1.52563 0
M  V30 2076 C 199.013 -0.451859 2.28169 0
M  V30 2077 C 200.007 -1.05792 1.32304 0
M  V30 2078 O 201.213 -0.997718 1.49818 0
M  V30 2079 H 197.588 -0.164481 0.733792 0
M  V30 2080 H 199.559 0.207199 2.9768 0
M  V30 2081 C 198.308 -1.56385 3.10546 0
M  V30 2082 H 197.631 -1.10682 3.84174 0
M  V30 2083 H 199.071 -2.13067 3.66577 0
M  V30 2084 C 197.53 -2.52328 2.23231 0
M  V30 2085 O 198.06 -3.5588 1.86312 0
M  V30 2086 N 196.266 -2.22209 1.87274 0
M  V30 2087 H 195.813 -1.38033 2.17496 0
M  V30 2088 H 195.771 -2.86652 1.29143 0
M  V30 2089 N 199.544 -1.57102 0.125237 0
M  V30 2090 C 200.492 -2.16905 -0.839927 0
M  V30 2091 C 201.486 -1.11998 -1.27094 0
M  V30 2092 O 202.692 -1.3029 -1.24195 0
M  V30 2093 H 199.067 -0.694252 -0.288995 0
M  V30 2094 H 201.038 -2.96774 -0.311115 0
M  V30 2095 C 199.787 -2.78795 -2.07771 0
M  V30 2096 H 199.11 -3.59221 -1.755 0
M  V30 2097 H 200.55 -3.2417 -2.73295 0
M  V30 2098 C 199.009 -1.76193 -2.87155 0
M  V30 2099 O 199.539 -1.21909 -3.82755 0
M  V30 2100 N 197.745 -1.45991 -2.51267 0
M  V30 2101 H 197.292 -1.90325 -1.73592 0
M  V30 2102 H 197.25 -0.775844 -3.04677 0
M  V30 2103 N 201.022 0.148545 -1.56898 0
M  V30 2104 C 202.271 0.85984 -1.82454 0
M  V30 2105 C 202.584 1.82406 -0.706229 0
M  V30 2106 O 203.79 2.57938 -0.847349 0
M  V30 2107 C 202.246 1.57967 -3.2338 0
M  V30 2108 C 201.854 0.65794 -4.43142 0
M  V30 2109 C 203.598 2.27784 -3.58211 0
M  V30 2110 C 201.505 1.3793 -5.75091 0
M  V30 2111 H 200.435 0.324834 -0.68044 0
M  V30 2112 H 203.086 0.112588 -1.83154 0
M  V30 2113 H 201.468 2.37249 -3.17063 0
M  V30 2114 H 202.642 -0.0995497 -4.60692 0
M  V30 2115 H 200.957 0.0682643 -4.16344 0
M  V30 2116 H 203.554 2.8239 -4.54048 0
M  V30 2117 H 203.897 3.04204 -2.84193 0
M  V30 2118 H 204.43 1.55421 -3.66182 0
M  V30 2119 H 201.169 0.656982 -6.52199 0
M  V30 2120 H 200.689 2.10954 -5.61479 0
M  V30 2121 H 202.368 1.92063 -6.17835 0
M  V30 2122 N 202.5 1.5196 0.417844 0
M  V30 2123 C 203.746 1.65836 1.16732 0
M  V30 2124 C 204.079 0.382881 1.90388 0
M  V30 2125 O 203.354 -0.618368 1.84408 0
M  V30 2126 C 203.637 2.87466 2.16876 0
M  V30 2127 C 203.49 4.25041 1.47174 0
M  V30 2128 C 204.809 3.04613 3.17646 0
M  V30 2129 H 201.928 0.603515 0.423011 0
M  V30 2130 H 204.57 1.84494 0.454105 0
M  V30 2131 H 202.72 2.71689 2.777 0
M  V30 2132 H 204.392 4.52527 0.895376 0
M  V30 2133 H 202.635 4.26843 0.773806 0
M  V30 2134 H 203.306 5.06176 2.20204 0
M  V30 2135 H 205.782 3.1923 2.66892 0
M  V30 2136 H 204.658 3.91247 3.8499 0
M  V30 2137 H 204.919 2.17541 3.84874 0
M  V30 2138 N 203.978 -0.674533 1.42435 0
M  V30 2139 C 204.908 -1.80009 1.48724 0
M  V30 2140 C 205.889 -1.6659 0.343793 0
M  V30 2141 O 207.074 -1.86007 0.558137 0
M  V30 2142 C 204.204 -3.18306 1.38919 0
M  V30 2143 C 203.158 -3.46461 2.51294 0
M  V30 2144 C 202.484 -4.84335 2.26547 0
M  V30 2145 C 203.784 -3.43328 3.93603 0
M  V30 2146 H 205.478 -1.75004 2.42928 0
M  V30 2147 H 203.024 -0.840533 1.16923 0
M  V30 2148 H 204.977 -3.9678 1.41927 0
M  V30 2149 H 203.701 -3.2399 0.412094 0
M  V30 2150 H 202.36 -2.70348 2.47604 0
M  V30 2151 H 202.008 -4.86669 1.2713 0
M  V30 2152 H 201.708 -5.04136 3.01861 0
M  V30 2153 H 203.232 -5.65094 2.31304 0
M  V30 2154 H 204.646 -4.11772 3.98894 0
M  V30 2155 H 203.043 -3.74664 4.68771 0
M  V30 2156 H 204.113 -2.41897 4.20255 0
M  V30 2157 N 205.456 -1.28612 -0.910864 0
M  V30 2158 C 206.681 -1.1891 -1.69927 0
M  V30 2159 C 207.106 0.248372 -1.86453 0
M  V30 2160 O 206.464 1.17961 -1.37676 0
M  V30 2161 C 206.512 -1.89578 -3.06745 0
M  V30 2162 O 205.616 -1.20521 -3.94396 0
M  V30 2163 H 204.957 -0.412632 -0.520222 0
M  V30 2164 H 207.487 -1.69985 -1.1387 0
M  V30 2165 H 207.497 -1.97597 -3.56958 0
M  V30 2166 H 206.172 -2.94136 -2.94035 0
M  V30 2167 H 204.749 -1.20684 -3.52831 0
M  V30 2168 N 206.934 1.1197 -1.10907 0
M  V30 2169 C 207.897 2.16031 -0.765707 0
M  V30 2170 C 208.897 1.59393 0.212235 0
M  V30 2171 O 210.087 1.74196 -0.0115441 0
M  V30 2172 C 207.219 3.40632 -0.135053 0
M  V30 2173 H 208.412 2.47919 -1.68748 0
M  V30 2174 H 205.965 1.27061 -0.910226 0
M  V30 2175 H 206.7 3.14348 0.797218 0
M  V30 2176 H 206.485 3.8302 -0.838937 0
M  V30 2177 H 207.975 4.17505 0.0892469 0
M  V30 2178 N 208.412 0.89855 1.29475 0
M  V30 2179 C 209.66 0.522847 1.9522 0
M  V30 2180 C 209.981 -0.93371 1.71192 0
M  V30 2181 O 209.251 -1.65823 1.04305 0
M  V30 2182 H 207.831 0.190366 0.722336 0
M  V30 2183 H 210.493 1.14459 1.5775 0
M  V30 2184 H 209.589 0.704476 3.04045 0
M  V30 2185 N 209.89 -1.43072 0.660911 0
M  V30 2186 C 211.139 -2.00942 0.174735 0
M  V30 2187 C 211.452 -1.52797 -1.22117 0
M  V30 2188 O 212.658 -2.02991 -1.80297 0
M  V30 2189 C 211.114 -3.58948 0.261559 0
M  V30 2190 C 210.722 -4.16085 1.66064 0
M  V30 2191 C 212.466 -4.24173 -0.166617 0
M  V30 2192 C 210.373 -5.6641 1.70098 0
M  V30 2193 H 209.303 -0.751483 0.0615631 0
M  V30 2194 H 211.954 -1.63955 0.824069 0
M  V30 2195 H 210.336 -3.93372 -0.455421 0
M  V30 2196 H 211.51 -3.93147 2.40359 0
M  V30 2197 H 209.825 -3.6326 2.03546 0
M  V30 2198 H 212.422 -5.34471 -0.156433 0
M  V30 2199 H 212.765 -3.98647 -1.19943 0
M  V30 2200 H 213.298 -3.94659 0.498875 0
M  V30 2201 H 210.037 -5.96715 2.71315 0
M  V30 2202 H 209.557 -5.91382 1.00139 0
M  V30 2203 H 211.236 -6.30585 1.44816 0
M  V30 2204 N 211.368 -0.403325 -1.52352 0
M  V30 2205 C 212.298 0.416205 -2.29761 0
M  V30 2206 C 213.279 1.05123 -1.33728 0
M  V30 2207 O 214.464 1.06134 -1.62632 0
M  V30 2208 C 211.594 1.53624 -3.11475 0
M  V30 2209 C 210.548 1.02653 -4.15507 0
M  V30 2210 C 209.874 2.23971 -4.85532 0
M  V30 2211 C 211.174 0.08463 -5.22231 0
M  V30 2212 H 212.868 -0.229701 -2.98518 0
M  V30 2213 H 210.414 -0.111913 -1.43564 0
M  V30 2214 H 212.367 2.1165 -3.64393 0
M  V30 2215 H 211.091 2.20994 -2.40477 0
M  V30 2216 H 209.75 0.46871 -3.63591 0
M  V30 2217 H 209.398 2.89883 -4.11068 0
M  V30 2218 H 209.098 1.90521 -5.55856 0
M  V30 2219 H 210.622 2.82614 -5.41259 0
M  V30 2220 H 212.036 0.573509 -5.70424 0
M  V30 2221 H 210.433 -0.160783 -5.99885 0
M  V30 2222 H 211.503 -0.86237 -4.7717 0
M  V30 2223 N 212.846 1.57033 -0.133567 0
M  V30 2224 C 214.093 1.95686 0.520877 0
M  V30 2225 C 214.421 1.0177 1.6575 0
M  V30 2226 O 213.676 0.0443195 1.9565 0
M  V30 2227 C 213.975 3.40674 1.08057 0
M  V30 2228 C 213.641 4.50855 0.0637899 0
M  V30 2229 C 212.303 4.80716 -0.215757 0
M  V30 2230 C 214.655 5.17398 -0.62835 0
M  V30 2231 C 211.983 5.74433 -1.19348 0
M  V30 2232 C 214.335 6.12167 -1.5948 0
M  V30 2233 C 212.999 6.40414 -1.88218 0
M  V30 2234 H 212.269 0.716067 0.190602 0
M  V30 2235 H 214.916 1.9026 -0.217556 0
M  V30 2236 H 213.221 3.42865 1.89606 0
M  V30 2237 H 214.918 3.67902 1.59529 0
M  V30 2238 H 211.508 4.27605 0.291855 0
M  V30 2239 H 215.692 4.94472 -0.425562 0
M  V30 2240 H 210.948 5.94616 -1.42272 0
M  V30 2241 H 215.122 6.6281 -2.13671 0
M  V30 2242 H 212.749 7.12838 -2.64133 0
M  V30 2243 N 214.325 -0.140222 1.56975 0
M  V30 2244 C 215.571 -0.852949 1.83991 0
M  V30 2245 C 215.904 -1.80512 0.716187 0
M  V30 2246 O 215.179 -1.92479 -0.279681 0
M  V30 2247 C 215.462 -1.6215 3.21527 0
M  V30 2248 C 215.315 -0.690363 4.4447 0
M  V30 2249 C 216.634 -2.58247 3.56366 0
M  V30 2250 H 213.753 -0.308634 0.669264 0
M  V30 2251 H 216.395 -0.117898 1.89634 0
M  V30 2252 H 214.545 -2.24812 3.16847 0
M  V30 2253 H 216.217 -0.0742264 4.6124 0
M  V30 2254 H 214.46 -0.000396433 4.338 0
M  V30 2255 H 215.131 -1.2643 5.37326 0
M  V30 2256 H 217.607 -2.05701 3.61699 0
M  V30 2257 H 216.483 -3.09067 4.53617 0
M  V30 2258 H 216.744 -3.39923 2.82674 0
M  V30 2259 N 215.803 -1.52179 -0.40978 0
M  V30 2260 C 216.766 -1.74853 -1.48186 0
M  V30 2261 C 217.766 -0.618417 -1.48433 0
M  V30 2262 O 218.956 -0.886286 -1.49969 0
M  V30 2263 C 216.088 -1.8303 -2.87598 0
M  V30 2264 H 217.281 -2.70559 -1.29374 0
M  V30 2265 H 214.834 -1.42586 -0.640233 0
M  V30 2266 H 215.569 -0.89236 -3.11781 0
M  V30 2267 H 215.354 -2.65187 -2.88822 0
M  V30 2268 H 216.844 -2.02316 -3.65319 0
M  V30 2269 N 217.281 0.66697 -1.42791 0
M  V30 2270 C 218.244 1.76211 -1.46568 0
M  V30 2271 C 219.244 1.56896 -0.352196 0
M  V30 2272 O 220.434 1.63044 -0.613364 0
M  V30 2273 C 217.566 3.14935 -1.30494 0
M  V30 2274 H 218.759 1.74247 -2.44086 0
M  V30 2275 H 216.312 0.877342 -1.29354 0
M  V30 2276 H 217.047 3.2252 -0.339301 0
M  V30 2277 H 216.832 3.30359 -2.11199 0
M  V30 2278 H 218.322 3.94821 -1.36038 0
M  V30 2279 N 218.759 1.29093 0.90403 0
M  V30 2280 C 220.007 1.16583 1.65085 0
M  V30 2281 C 220.328 -0.283933 1.92922 0
M  V30 2282 O 219.598 -1.19509 1.55224 0
M  V30 2283 H 218.178 0.428467 0.611903 0
M  V30 2284 H 220.84 1.61959 1.08422 0
M  V30 2285 H 219.936 1.71266 2.6091 0
M  V30 2286 N 220.237 -1.11381 1.11499 0
M  V30 2287 C 221.167 -2.19509 0.796125 0
M  V30 2288 C 222.148 -1.68458 -0.235796 0
M  V30 2289 O 223.333 -1.93947 -0.0991344 0
M  V30 2290 C 220.463 -3.46475 0.239205 0
M  V30 2291 C 219.417 -4.10744 1.20307 0
M  V30 2292 C 218.743 -5.32293 0.50683 0
M  V30 2293 C 220.043 -4.55597 2.55399 0
M  V30 2294 H 221.737 -2.46439 1.70024 0
M  V30 2295 H 219.283 -1.18446 0.818935 0
M  V30 2296 H 221.236 -4.214 0.00392006 0
M  V30 2297 H 219.96 -3.19006 -0.700206 0
M  V30 2298 H 218.619 -3.37813 1.42399 0
M  V30 2299 H 218.267 -5.01095 -0.437408 0
M  V30 2300 H 217.967 -5.76243 1.1497 0
M  V30 2301 H 219.491 -6.09956 0.280351 0
M  V30 2302 H 220.905 -5.21841 2.37391 0
M  V30 2303 H 219.302 -5.10363 3.15673 0
M  V30 2304 H 220.372 -3.69013 3.14575 0
M  V30 2305 N 221.715 -0.905404 -1.28997 0
M  V30 2306 C 222.94 -0.549175 -1.99997 0
M  V30 2307 C 223.365 0.860276 -1.67275 0
M  V30 2308 O 222.723 1.57355 -0.900502 0
M  V30 2309 C 222.771 -0.755185 -3.52604 0
M  V30 2310 O 221.875 0.189692 -4.11964 0
M  V30 2311 H 221.216 -0.213899 -0.628604 0
M  V30 2312 H 223.746 -1.21856 -1.64354 0
M  V30 2313 H 223.756 -0.662045 -4.02593 0
M  V30 2314 H 222.431 -1.78271 -3.75755 0
M  V30 2315 H 221.008 0.0485257 -3.72868 0
M  V30 2316 N 223.193 1.4272 -0.668489 0
M  V30 2317 C 224.141 2.32586 0.0254857 0
M  V30 2318 C 225.135 1.49471 0.797176 0
M  V30 2319 O 226.341 1.65583 0.705853 0
M  V30 2320 H 222.716 0.751514 0.0270339 0
M  V30 2321 H 224.687 2.88823 -0.749936 0
M  V30 2322 C 223.436 3.3397 0.967427 0
M  V30 2323 H 222.759 3.97961 0.383048 0
M  V30 2324 H 224.199 3.9945 1.42181 0
M  V30 2325 C 222.658 2.65744 2.0708 0
M  V30 2326 O 223.188 2.48454 3.15648 0
M  V30 2327 N 221.394 2.2487 1.8407 0
M  V30 2328 H 220.941 2.39132 0.95778 0
M  V30 2329 H 220.899 1.79552 2.58086 0
M  V30 2330 N 224.671 0.411399 1.52136 0
M  V30 2331 C 225.92 -0.165009 2.01024 0
M  V30 2332 C 226.233 -1.4603 1.30133 0
M  V30 2333 O 227.439 -2.1181 1.69849 0
M  V30 2334 C 225.895 -0.344618 3.58246 0
M  V30 2335 C 225.503 0.938716 4.38055 0
M  V30 2336 C 227.247 -0.876195 4.15359 0
M  V30 2337 C 225.154 0.726172 5.86925 0
M  V30 2338 H 224.084 -0.0654407 0.751155 0
M  V30 2339 H 226.735 0.537192 1.75461 0
M  V30 2340 H 225.117 -1.10921 3.80148 0
M  V30 2341 H 226.291 1.70963 4.27912 0
M  V30 2342 H 224.606 1.39688 3.92271 0
M  V30 2343 H 227.203 -1.05128 5.24263 0
M  V30 2344 H 227.546 -1.85152 3.7286 0
M  V30 2345 H 228.079 -0.170607 3.97434 0
M  V30 2346 H 224.818 1.67312 6.33788 0
M  V30 2347 H 224.338 -0.00540283 5.998 0
M  V30 2348 H 226.017 0.369231 6.45946 0
M  V30 2349 N 226.149 -1.5696 0.141893 0
M  V30 2350 C 227.398 -1.95135 -0.510427 0
M  V30 2351 C 227.711 -1.02896 -1.66348 0
M  V30 2352 O 228.917 -1.30629 -2.38009 0
M  V30 2353 C 227.373 -3.46876 -0.959427 0
M  V30 2354 C 226.981 -4.47691 0.166419 0
M  V30 2355 C 228.725 -3.93927 -1.58183 0
M  V30 2356 C 226.632 -5.90636 -0.300565 0
M  V30 2357 H 225.562 -0.728494 -0.194454 0
M  V30 2358 H 228.213 -1.8211 0.22542 0
M  V30 2359 H 226.595 -3.55215 -1.75038 0
M  V30 2360 H 227.769 -4.51043 0.94325 0
M  V30 2361 H 226.084 -4.10527 0.696905 0
M  V30 2362 H 228.681 -4.98158 -1.94275 0
M  V30 2363 H 229.024 -3.3519 -2.46888 0
M  V30 2364 H 229.557 -3.88484 -0.855863 0
M  V30 2365 H 226.296 -6.5318 0.550989 0
M  V30 2366 H 225.816 -5.90655 -1.04338 0
M  V30 2367 H 227.495 -6.42588 -0.754265 0
M  V30 2368 N 227.627 0.131896 -1.57047 0
M  V30 2369 C 228.875 0.840269 -1.83804 0
M  V30 2370 C 229.196 1.81017 -0.72512 0
M  V30 2371 O 228.466 1.94272 0.251995 0
M  V30 2372 H 227.046 0.313294 -0.678127 0
M  V30 2373 H 229.708 0.122294 -1.94516 0
M  V30 2374 H 228.804 1.39335 -2.79271 0
M  V30 2375 N 229.106 1.52395 0.401703 0
M  V30 2376 C 230.355 1.66044 1.14509 0
M  V30 2377 C 230.668 0.400216 1.91462 0
M  V30 2378 O 231.874 0.416632 2.68284 0
M  V30 2379 C 230.33 2.93388 2.0845 0
M  V30 2380 C 229.938 4.26545 1.36978 0
M  V30 2381 C 231.682 3.16402 2.83001 0
M  V30 2382 C 229.589 5.45007 2.29611 0
M  V30 2383 H 228.519 0.618562 0.431158 0
M  V30 2384 H 231.17 1.78886 0.40892 0
M  V30 2385 H 229.552 2.74263 2.8565 0
M  V30 2386 H 230.726 4.56179 0.650916 0
M  V30 2387 H 229.041 4.09692 0.74438 0
M  V30 2388 H 231.638 4.02085 3.52465 0
M  V30 2389 H 231.981 2.30943 3.46368 0
M  V30 2390 H 232.514 3.36034 2.12898 0
M  V30 2391 H 229.253 6.32835 1.70879 0
M  V30 2392 H 228.773 5.19702 2.9945 0
M  V30 2393 H 230.452 5.7838 2.89974 0
M  V30 2394 N 230.584 -0.659388 1.43143 0
M  V30 2395 C 231.833 -1.41518 1.43721 0
M  V30 2396 C 232.146 -1.95499 0.0628176 0
M  V30 2397 O 233.352 -2.71446 -0.0539683 0
M  V30 2398 C 231.808 -2.5608 2.52885 0
M  V30 2399 C 231.416 -2.08733 3.96402 0
M  V30 2400 C 233.16 -3.3349 2.62649 0
M  V30 2401 C 231.067 -3.20469 4.97045 0
M  V30 2402 H 229.997 -0.531705 0.534608 0
M  V30 2403 H 232.648 -0.712343 1.69109 0
M  V30 2404 H 231.03 -3.28805 2.20688 0
M  V30 2405 H 232.204 -1.43059 4.3803 0
M  V30 2406 H 230.519 -1.44219 3.90627 0
M  V30 2407 H 233.116 -4.16734 3.35017 0
M  V30 2408 H 233.459 -3.8111 1.67513 0
M  V30 2409 H 233.992 -2.67842 2.94118 0
M  V30 2410 H 230.731 -2.77824 5.93712 0
M  V30 2411 H 230.251 -3.84874 4.60034 0
M  V30 2412 H 231.93 -3.85698 5.19467 0
M  V30 2413 N 232.062 -1.29571 -0.897171 0
M  V30 2414 C 233.308 -1.17863 -1.65034 0
M  V30 2415 C 233.641 0.268729 -1.92332 0
M  V30 2416 O 232.916 1.19378 -1.53555 0
M  V30 2417 C 233.199 -1.995 -2.99786 0
M  V30 2418 C 233.052 -3.5239 -2.79538 0
M  V30 2419 C 234.371 -1.82335 -4.00552 0
M  V30 2420 H 231.49 -0.429528 -0.598895 0
M  V30 2421 H 234.132 -1.59072 -1.03905 0
M  V30 2422 H 232.282 -1.64485 -3.51962 0
M  V30 2423 H 233.954 -3.97401 -2.34244 0
M  V30 2424 H 232.197 -3.77187 -2.14273 0
M  V30 2425 H 232.868 -4.04787 -3.75302 0
M  V30 2426 H 235.344 -2.12924 -3.57495 0
M  V30 2427 H 234.22 -2.41801 -4.92771 0
M  V30 2428 H 234.481 -0.779209 -4.35179 0
M  V30 2429 N 233.54 1.10788 -1.12088 0
M  V30 2430 C 234.77 1.86191 -0.895351 0
M  V30 2431 C 235.178 1.80763 0.558702 0
M  V30 2432 O 234.521 1.19188 1.39785 0
M  V30 2433 C 234.583 3.35659 -1.28737 0
M  V30 2434 C 234.247 3.64849 -2.75198 0
M  V30 2435 C 235.244 3.61757 -3.734 0
M  V30 2436 C 232.929 3.93641 -3.12013 0
M  V30 2437 C 234.923 3.87045 -5.06434 0
M  V30 2438 C 232.61 4.18585 -4.4523 0
M  V30 2439 C 233.608 4.15277 -5.42249 0
M  V30 2440 O 233.296 4.3959 -6.73065 0
M  V30 2441 H 233.028 0.595425 -0.32007 0
M  V30 2442 H 235.582 1.40992 -1.49367 0
M  V30 2443 H 233.812 3.81497 -0.63224 0
M  V30 2444 H 235.501 3.92441 -1.03656 0
M  V30 2445 H 236.267 3.39557 -3.46303 0
M  V30 2446 H 232.146 3.95348 -2.37109 0
M  V30 2447 H 235.69 3.84378 -5.82151 0
M  V30 2448 H 231.587 4.40264 -4.72057 0
M  V30 2449 H 232.355 4.57123 -6.78956 0
M  V30 2450 N 235.018 0.912232 1.28515 0
M  V30 2451 C 236.267 0.540504 1.94323 0
M  V30 2452 C 236.58 -0.920044 1.72611 0
M  V30 2453 O 237.786 -1.39986 2.32629 0
M  V30 2454 C 236.242 0.915803 3.48053 0
M  V30 2455 C 235.85 2.39598 3.78546 0
M  V30 2456 C 237.594 0.614588 4.20027 0
M  V30 2457 C 235.501 2.71148 5.25578 0
M  V30 2458 H 234.431 0.198418 0.727424 0
M  V30 2459 H 237.082 1.11094 1.46049 0
M  V30 2460 H 235.464 0.274168 3.9505 0
M  V30 2461 H 236.638 3.08422 3.42364 0
M  V30 2462 H 234.953 2.66749 3.1974 0
M  V30 2463 H 237.55 0.827002 5.28266 0
M  V30 2464 H 237.893 -0.447531 4.13887 0
M  V30 2465 H 238.426 1.21462 3.78803 0
M  V30 2466 H 235.165 3.76207 5.36794 0
M  V30 2467 H 234.685 2.0696 5.62963 0
M  V30 2468 H 236.364 2.58072 5.93302 0
M  V30 2469 N 236.496 -1.42363 0.676048 0
M  V30 2470 C 237.721 -2.06377 0.205705 0
M  V30 2471 C 238.146 -1.50463 -1.12883 0
M  V30 2472 O 237.504 -0.623619 -1.70237 0
M  V30 2473 C 237.552 -3.60277 0.152655 0
M  V30 2474 O 236.656 -4.02935 -0.87845 0
M  V30 2475 H 235.997 -0.655588 0.105359 0
M  V30 2476 H 238.527 -1.82475 0.925412 0
M  V30 2477 H 238.537 -4.07993 -0.0230675 0
M  V30 2478 H 237.212 -4.00346 1.12675 0
M  V30 2479 H 235.789 -3.66764 -0.673668 0
M  V30 2480 N 237.974 -0.419461 -1.51915 0
M  V30 2481 C 239.199 0.154572 -2.06823 0
M  V30 2482 C 239.624 1.3722 -1.28656 0
M  V30 2483 O 238.982 1.78461 -0.319583 0
M  V30 2484 C 239.03 0.473172 -3.57482 0
M  V30 2485 O 238.134 1.56255 -3.81652 0
M  V30 2486 H 237.475 0.0096924 -0.663929 0
M  V30 2487 H 240.005 -0.595642 -1.95738 0
M  V30 2488 H 240.015 0.728825 -4.01438 0
M  V30 2489 H 238.69 -0.416873 -4.13805 0
M  V30 2490 H 237.267 1.29825 -3.49571 0
M  V30 2491 N 239.452 1.56882 -0.150215 0
M  V30 2492 C 240.4 2.18214 0.805313 0
M  V30 2493 C 241.394 1.14006 1.25296 0
M  V30 2494 O 242.6 1.3225 1.22107 0
M  V30 2495 H 238.975 0.698762 0.277913 0
M  V30 2496 H 240.946 2.97231 0.263862 0
M  V30 2497 C 239.695 2.82065 2.03309 0
M  V30 2498 H 239.018 3.61968 1.69763 0
M  V30 2499 H 240.458 3.28477 2.68103 0
M  V30 2500 C 238.917 1.80739 2.84315 0
M  V30 2501 O 239.447 1.27983 3.80767 0
M  V30 2502 N 237.653 1.4997 2.48913 0
M  V30 2503 H 237.2 1.93062 1.70542 0
M  V30 2504 H 237.158 0.824217 3.03404 0
M  V30 2505 N 240.93 -0.123565 1.57115 0
M  V30 2506 C 242.158 -0.846461 1.88793 0
M  V30 2507 C 242.573 -1.73652 0.740976 0
M  V30 2508 O 241.93 -1.80207 -0.288393 0
M  V30 2509 C 241.981 -1.6837 3.19897 0
M  V30 2510 O 241.702 -0.829477 4.30176 0
M  V30 2511 C 243.203 -2.51214 3.65248 0
M  V30 2512 H 240.423 -0.243573 0.625231 0
M  V30 2513 H 242.967 -0.109324 2.04208 0
M  V30 2514 H 241.122 -2.37364 3.06165 0
M  V30 2515 H 241.536 -1.40651 5.0529 0
M  V30 2516 H 243.01 -3.05497 4.59756 0
M  V30 2517 H 243.487 -3.28359 2.9168 0
M  V30 2518 H 244.093 -1.8747 3.81752 0
M  V30 2519 N 242.408 -1.52605 -0.393616 0
M  V30 2520 C 243.656 -1.67093 -1.13685 0
M  V30 2521 C 243.977 -0.411011 -1.90619 0
M  V30 2522 O 243.247 0.574491 -1.87287 0
M  V30 2523 H 241.827 -0.615923 -0.422668 0
M  V30 2524 H 244.489 -1.89704 -0.447039 0
M  V30 2525 H 243.585 -2.51922 -1.84232 0
M  V30 2526 N 243.887 0.651787 -1.4349 0
M  V30 2527 C 245.164 1.40909 -1.35661 0
M  V30 2528 C 245.544 2.11099 -0.00511733 0
M  V30 2529 O 244.892 2.04892 1.0115 0
M  V30 2530 C 245.102 2.3926 -2.54078 0
M  V30 2531 C 246.45 3.03217 -2.97228 0
M  V30 2532 O 247.474 2.49588 -2.54135 0
M  V30 2533 O 246.333 4.00455 -3.71885 0
M  V30 2534 H 243.427 0.629625 -0.536191 0
M  V30 2535 H 245.973 0.678575 -1.55542 0
M  V30 2536 H 244.745 1.86352 -3.44076 0
M  V30 2537 H 244.368 3.1976 -2.36303 0
M  V30 2538 N 245.365 1.30045 0.890287 0
M  V30 2539 C 246.776 1.16738 1.45702 0
M  V30 2540 C 247.127 -0.233939 1.948 0
M  V30 2541 O 246.252 -1.13021 1.84541 0
M  V30 2542 C 246.847 2.11313 2.64825 0
M  V30 2543 C 245.406 2.02001 3.17604 0
M  V30 2544 C 244.553 2.01699 1.90296 0
M  V30 2545 H 247.504 1.42392 0.700726 0
M  V30 2546 H 247.525 1.69086 3.40867 0
M  V30 2547 H 247.037 3.13294 2.2906 0
M  V30 2548 H 245.138 1.03142 3.5804 0
M  V30 2549 H 245.251 2.90128 3.81264 0
M  V30 2550 H 243.615 1.46427 2.08402 0
M  V30 2551 H 244.398 3.05402 1.56795 0
M  V30 2552 N 246.843 -1.10192 1.12674 0
M  V30 2553 C 248.068 -1.86523 0.906853 0
M  V30 2554 C 248.493 -1.80221 -0.538711 0
M  V30 2555 O 247.851 -1.17396 -1.38158 0
M  V30 2556 C 247.899 -3.32758 1.3894 0
M  V30 2557 O 247.003 -4.08449 0.5695 0
M  V30 2558 H 246.344 -0.578678 0.325619 0
M  V30 2559 H 248.874 -1.39203 1.49946 0
M  V30 2560 H 248.884 -3.83608 1.38958 0
M  V30 2561 H 247.559 -3.36661 2.44197 0
M  V30 2562 H 246.136 -3.67427 0.636528 0
M  V30 2563 N 248.321 -0.919034 -1.28029 0
M  V30 2564 C 249.598 -0.473668 -1.89778 0
M  V30 2565 C 249.978 1.04783 -1.83259 0
M  V30 2566 O 249.326 1.8982 -1.27202 0
M  V30 2567 C 249.536 -1.00998 -3.34066 0
M  V30 2568 C 250.884 -1.06525 -4.1102 0
M  V30 2569 O 251.908 -0.958996 -3.43048 0
M  V30 2570 O 250.767 -1.22776 -5.3253 0
M  V30 2571 H 247.861 -0.15098 -0.813101 0
M  V30 2572 H 250.407 -1.01016 -1.36359 0
M  V30 2573 H 249.179 -2.05392 -3.33061 0
M  V30 2574 H 248.802 -0.454626 -3.94992 0
M  V30 2575 N 249.799 1.42003 -0.683588 0
M  V30 2576 C 250.746 2.30798 -0.0107309 0
M  V30 2577 C 251.716 1.4645 0.783688 0
M  V30 2578 O 252.901 1.75263 0.754156 0
M  V30 2579 C 250.041 3.3238 0.928306 0
M  V30 2580 C 249.154 4.31814 0.126776 0
M  V30 2581 C 248.289 5.20468 1.06236 0
M  V30 2582 C 247.328 6.11577 0.253035 0
M  V30 2583 N 246.465 6.92754 1.14179 0
M  V30 2584 H 251.305 2.8778 -0.773727 0
M  V30 2585 H 248.842 1.41745 -0.393283 0
M  V30 2586 H 250.8 3.89813 1.48666 0
M  V30 2587 H 249.43 2.76976 1.65783 0
M  V30 2588 H 248.482 3.76427 -0.54833 0
M  V30 2589 H 249.794 4.96276 -0.501192 0
M  V30 2590 H 248.948 5.82677 1.69035 0
M  V30 2591 H 247.687 4.56204 1.7242 0
M  V30 2592 H 246.692 5.48428 -0.388108 0
M  V30 2593 H 247.917 6.77892 -0.404839 0
M  V30 2594 H 245.863 6.3111 1.78987 0
M  V30 2595 H 245.78 7.53855 0.569111 0
M  V30 2596 H 247.048 7.59441 1.75697 0
M  V30 2597 N 251.277 0.427512 1.51691 0
M  V30 2598 C 252.693 0.0792977 1.59403 0
M  V30 2599 C 252.893 -1.41035 1.43914 0
M  V30 2600 O 251.949 -2.17922 1.27539 0
M  V30 2601 C 253.262 0.590636 2.94842 0
M  V30 2602 C 254.81 0.550215 3.08126 0
M  V30 2603 C 255.285 1.03836 4.46074 0
M  V30 2604 N 256.776 0.995943 4.52366 0
M  V30 2605 C 257.511 1.34463 5.57411 0
M  V30 2606 N 257.007 1.76569 6.69922 0
M  V30 2607 N 258.8 1.26343 5.47717 0
M  V30 2608 H 250.951 1.39687 1.60004 0
M  V30 2609 H 253.214 0.575003 0.753708 0
M  V30 2610 H 252.92 1.63251 3.11516 0
M  V30 2611 H 252.794 0.0102061 3.77199 0
M  V30 2612 H 255.181 -0.482654 2.91126 0
M  V30 2613 H 255.262 1.16693 2.27632 0
M  V30 2614 H 254.906 2.06965 4.63819 0
M  V30 2615 H 254.836 0.398286 5.25092 0
M  V30 2616 H 257.327 0.68661 3.7161 0
M  V30 2617 H 257.64 2.01438 7.46085 0
M  V30 2618 H 255.985 1.80488 6.71155 0
M  V30 2619 H 259.176 0.933209 4.58703 0
M  V30 2620 H 259.349 1.53846 6.29472 0
M  V30 2621 N 252.755 -1.56801 0.158532 0
M  V30 2622 C 254.032 -1.88131 -0.535357 0
M  V30 2623 C 254.412 -1.06638 -1.82186 0
M  V30 2624 O 253.76 -0.156533 -2.27963 0
M  V30 2625 C 253.97 -3.39949 -0.789653 0
M  V30 2626 C 255.318 -4.09416 -1.12533 0
M  V30 2627 O 256.342 -3.45194 -0.878622 0
M  V30 2628 O 255.201 -5.22855 -1.59014 0
M  V30 2629 H 252.295 -0.780143 -0.27442 0
M  V30 2630 H 254.841 -1.68564 0.19601 0
M  V30 2631 H 253.613 -3.91115 0.120353 0
M  V30 2632 H 253.236 -3.65084 -1.57479 0
M  V30 2633 N 254.233 0.115231 -1.57178 0
M  V30 2634 C 255.143 1.15994 -2.03918 0
M  V30 2635 C 256.159 1.45103 -0.960268 0
M  V30 2636 O 257.335 1.56144 -1.27204 0
M  V30 2637 C 254.4 2.46568 -2.43732 0
M  V30 2638 C 253.461 2.24822 -3.65723 0
M  V30 2639 C 252.694 3.4917 -4.03629 0
M  V30 2640 O 252.917 4.56623 -3.41835 0
M  V30 2641 O 251.851 3.39949 -4.96708 0
M  V30 2642 H 255.677 0.793019 -2.93164 0
M  V30 2643 H 253.262 0.3263 -1.45793 0
M  V30 2644 H 255.144 3.23492 -2.70057 0
M  V30 2645 H 253.819 2.82726 -1.57631 0
M  V30 2646 H 252.726 1.45744 -3.44542 0
M  V30 2647 H 254.059 1.93566 -4.52541 0
M  V30 2648 N 255.711 1.52812 0.385517 0
M  V30 2649 C 256.988 1.5861 1.14465 0
M  V30 2650 C 257.368 0.381402 2.07626 0
M  V30 2651 O 256.716 -0.629999 2.19643 0
M  V30 2652 C 256.926 2.92664 1.90128 0
M  V30 2653 C 258.274 3.46526 2.45367 0
M  V30 2654 O 259.298 2.94562 2.0028 0
M  V30 2655 O 258.157 4.37323 3.27736 0
M  V30 2656 H 255.251 0.639855 0.523941 0
M  V30 2657 H 257.797 1.65149 0.390389 0
M  V30 2658 H 256.569 3.71788 1.22022 0
M  V30 2659 H 256.192 2.89527 2.72507 0
M  V30 2660 N 257.189 -0.644168 1.43834 0
M  V30 2661 C 258.136 -1.75671 1.49694 0
M  V30 2662 C 259.106 -1.6246 0.345809 0
M  V30 2663 O 260.291 -1.82573 0.554234 0
M  V30 2664 C 257.431 -3.13867 1.43463 0
M  V30 2665 C 256.544 -3.38147 2.6885 0
M  V30 2666 C 255.679 -4.66241 2.54544 0
M  V30 2667 C 254.718 -4.83657 3.75157 0
M  V30 2668 N 253.855 -6.03016 3.59605 0
M  V30 2669 H 258.695 -1.69998 2.44754 0
M  V30 2670 H 256.232 -0.829458 1.21484 0
M  V30 2671 H 258.19 -3.9377 1.37843 0
M  V30 2672 H 256.82 -3.18588 0.519783 0
M  V30 2673 H 255.872 -2.52276 2.84712 0
M  V30 2674 H 257.184 -3.46899 3.58417 0
M  V30 2675 H 256.338 -5.54285 2.46683 0
M  V30 2676 H 255.077 -4.59826 1.62516 0
M  V30 2677 H 254.082 -3.94046 3.83416 0
M  V30 2678 H 255.307 -4.91896 4.68204 0
M  V30 2679 H 253.253 -5.97715 2.7032 0
M  V30 2680 H 253.17 -6.12766 4.42779 0
M  V30 2681 H 254.438 -6.93657 3.55613 0
M  V30 2682 N 258.668 -1.30515 -0.883378 0
M  V30 2683 C 259.615 -1.17032 -1.98927 0
M  V30 2684 C 260.585 -0.0594241 -1.65994 0
M  V30 2685 O 261.77 -0.229895 -1.8941 0
M  V30 2686 C 258.91 -0.869777 -3.33959 0
M  V30 2687 C 258.023 -2.06271 -3.79574 0
M  V30 2688 C 257.158 -1.70011 -5.03259 0
M  V30 2689 C 256.197 -2.8579 -5.41286 0
M  V30 2690 N 255.334 -2.49816 -6.56153 0
M  V30 2691 H 260.174 -2.1164 -2.09792 0
M  V30 2692 H 257.711 -1.05296 -1.02719 0
M  V30 2693 H 259.669 -0.676138 -4.11685 0
M  V30 2694 H 258.299 0.0394332 -3.22776 0
M  V30 2695 H 257.351 -2.36755 -2.97744 0
M  V30 2696 H 258.663 -2.92971 -4.03694 0
M  V30 2697 H 257.817 -1.47032 -5.88614 0
M  V30 2698 H 256.556 -0.804829 -4.81013 0
M  V30 2699 H 255.561 -3.09434 -4.54456 0
M  V30 2700 H 256.786 -3.76008 -5.65504 0
M  V30 2701 H 254.732 -1.62795 -6.35479 0
M  V30 2702 H 254.649 -3.30048 -6.8015 0
M  V30 2703 H 255.917 -2.30197 -7.44735 0
M  V30 2704 N 260.146 1.09593 -1.13257 0
M  V30 2705 C 261.094 2.18271 -0.803783 0
M  V30 2706 C 262.088 1.68054 0.213148 0
M  V30 2707 O 263.294 1.79862 0.0704699 0
M  V30 2708 H 259.669 0.711949 -0.242143 0
M  V30 2709 H 261.64 2.43235 -1.72856 0
M  V30 2710 C 260.389 3.46536 -0.28424 0
M  V30 2711 H 259.712 3.85545 -1.05807 0
M  V30 2712 H 261.152 4.23899 -0.0925945 0
M  V30 2713 C 259.611 3.22036 0.989684 0
M  V30 2714 O 260.141 3.44509 2.06584 0
M  V30 2715 N 258.347 2.7565 0.920086 0
M  V30 2716 H 257.894 2.57562 0.0442019 0
M  V30 2717 H 257.852 2.59635 1.77306 0
M  V30 2718 N 261.624 0.925811 1.2754 0
M  V30 2719 C 262.574 0.394488 2.24561 0
M  V30 2720 C 263.558 -0.500183 1.52928 0
M  V30 2721 O 264.75 -0.337936 1.73744 0
M  V30 2722 C 261.879 -0.353328 3.41477 0
M  V30 2723 C 260.965 0.557752 4.20416 0
M  V30 2724 N 261.356 1.67674 4.77199 0
M  V30 2725 C 259.654 0.360404 4.44541 0
M  V30 2726 C 260.355 2.24324 5.36706 0
M  V30 2727 N 259.331 1.53305 5.21535 0
M  V30 2728 H 263.133 1.2489 2.66045 0
M  V30 2729 H 260.647 0.779864 1.4245 0
M  V30 2730 H 262.644 -0.7509 4.10082 0
M  V30 2731 H 261.304 -1.20469 3.01525 0
M  V30 2732 H 262.315 2.05915 4.75204 0
M  V30 2733 H 258.992 -0.450454 4.15063 0
M  V30 2734 H 260.382 3.18521 5.91603 0
M  V30 2735 N 263.102 -1.41638 0.69111 0
M  V30 2736 C 264.332 -2.0533 0.228758 0
M  V30 2737 C 264.74 -1.52089 -1.12541 0
M  V30 2738 O 264.083 -0.662145 -1.71351 0
M  V30 2739 C 264.145 -3.59349 0.10407 0
M  V30 2740 C 263.809 -4.35362 1.38956 0
M  V30 2741 C 264.806 -4.64942 2.32648 0
M  V30 2742 C 262.491 -4.74714 1.64169 0
M  V30 2743 C 264.485 -5.32828 3.49818 0
M  V30 2744 C 262.172 -5.42338 2.81625 0
M  V30 2745 C 263.17 -5.71322 3.74273 0
M  V30 2746 O 262.858 -6.37554 4.89673 0
M  V30 2747 H 262.59 -0.667796 0.104997 0
M  V30 2748 H 265.144 -1.82477 0.942938 0
M  V30 2749 H 263.374 -3.80924 -0.665839 0
M  V30 2750 H 265.063 -4.04633 -0.320519 0
M  V30 2751 H 265.829 -4.35025 2.14425 0
M  V30 2752 H 261.708 -4.51538 0.929202 0
M  V30 2753 H 265.252 -5.55368 4.22152 0
M  V30 2754 H 261.149 -5.71673 2.99768 0
M  V30 2755 H 261.917 -6.56049 4.8943 0
M  V30 2756 N 264.58 -0.43555 -1.51462 0
M  V30 2757 C 265.528 0.391205 -2.29287 0
M  V30 2758 C 266.522 1.02247 -1.35062 0
M  V30 2759 O 267.728 0.957646 -1.52411 0
M  V30 2760 H 264.103 0.144968 -0.737895 0
M  V30 2761 H 266.074 -0.286051 -2.97026 0
M  V30 2762 C 264.823 1.48096 -3.14583 0
M  V30 2763 H 264.146 1.00457 -3.86973 0
M  V30 2764 H 265.586 2.03273 -3.72097 0
M  V30 2765 C 264.045 2.46321 -2.29843 0
M  V30 2766 O 264.575 3.50815 -1.95682 0
M  V30 2767 N 262.781 2.17166 -1.931 0
M  V30 2768 H 262.328 1.32218 -2.21079 0
M  V30 2769 H 262.286 2.83127 -1.36698 0
M  V30 2770 N 266.058 1.56714 -0.166846 0
M  V30 2771 C 267.288 2.00828 0.48494 0
M  V30 2772 C 267.696 1.04612 1.57648 0
M  V30 2773 O 267.039 0.0383201 1.8366 0
M  V30 2774 C 267.101 3.4137 1.12723 0
M  V30 2775 C 266.765 4.56654 0.177886 0
M  V30 2776 C 267.762 5.16402 -0.60207 0
M  V30 2777 C 265.447 5.02244 0.0750139 0
M  V30 2778 C 267.441 6.20167 -1.47215 0
M  V30 2779 C 265.128 6.05859 -0.798649 0
M  V30 2780 C 266.126 6.64691 -1.57082 0
M  V30 2781 O 265.814 7.66297 -2.42989 0
M  V30 2782 H 265.546 0.663587 0.128953 0
M  V30 2783 H 268.1 2.03692 -0.264365 0
M  V30 2784 H 266.33 3.35406 1.92457 0
M  V30 2785 H 268.019 3.69466 1.68076 0
M  V30 2786 H 268.785 4.82065 -0.53274 0
M  V30 2787 H 264.664 4.56167 0.665812 0
M  V30 2788 H 268.208 6.66016 -2.07531 0
M  V30 2789 H 264.105 6.39621 -0.869199 0
M  V30 2790 H 264.873 7.83601 -2.36455 0
M  V30 2791 N 267.536 -0.106894 1.57237 0
M  V30 2792 C 268.784 -0.810921 1.85117 0
M  V30 2793 C 269.105 -1.7984 0.753827 0
M  V30 2794 O 268.375 -1.94649 -0.221056 0
M  V30 2795 H 266.955 -0.302466 0.683025 0
M  V30 2796 H 269.617 -0.0913324 1.94686 0
M  V30 2797 H 268.713 -1.34875 2.81452 0
M  V30 2798 N 269.014 -1.53014 -0.377408 0
M  V30 2799 C 270.26 -1.69821 -1.11948 0
M  V30 2800 C 270.615 -0.438581 -1.87335 0
M  V30 2801 O 269.908 0.568094 -1.82984 0
M  V30 2802 C 270.102 -2.87982 -2.11663 0
M  V30 2803 C 269.931 -4.25315 -1.46072 0
M  V30 2804 C 268.701 -4.90354 -1.21986 0
M  V30 2805 C 270.899 -5.06281 -0.904664 0
M  V30 2806 N 268.881 -6.11641 -0.526215 0
M  V30 2807 C 270.252 -6.19069 -0.339726 0
M  V30 2808 C 272.307 -4.91395 -0.8022 0
M  V30 2809 C 271.01 -7.18598 0.317669 0
M  V30 2810 C 273.036 -5.91187 -0.158606 0
M  V30 2811 C 272.398 -7.03289 0.39551 0
M  V30 2812 H 268.497 -0.674785 -0.395207 0
M  V30 2813 H 271.081 -1.90389 -0.407437 0
M  V30 2814 H 269.252 -2.68974 -2.80192 0
M  V30 2815 H 270.984 -2.93669 -2.78461 0
M  V30 2816 H 267.739 -4.49286 -1.49798 0
M  V30 2817 H 268.163 -6.76719 -0.195098 0
M  V30 2818 H 272.805 -4.04925 -1.21639 0
M  V30 2819 H 270.523 -8.04669 0.743836 0
M  V30 2820 H 274.109 -5.81744 -0.0804138 0
M  V30 2821 H 272.989 -7.79183 0.885648 0
M  V30 2822 N 270.492 0.636531 -1.44174 0
M  V30 2823 C 271.717 1.42847 -1.50364 0
M  V30 2824 C 272.142 1.87665 -0.127867 0
M  V30 2825 O 271.5 1.58408 0.88185 0
M  V30 2826 C 271.548 2.62854 -2.4686 0
M  V30 2827 O 270.652 3.62501 -1.9664 0
M  V30 2828 H 269.993 0.427642 -0.507955 0
M  V30 2829 H 272.523 0.777422 -1.89255 0
M  V30 2830 H 272.533 3.10465 -2.64718 0
M  V30 2831 H 271.208 2.29578 -3.46795 0
M  V30 2832 H 269.785 3.21735 -1.88523 0
M  V30 2833 N 271.97 1.30982 0.876444 0
M  V30 2834 C 273.217 1.20296 1.62896 0
M  V30 2835 C 273.545 -0.240395 1.93009 0
M  V30 2836 O 272.8 -1.18733 1.55567 0
M  V30 2837 C 273.099 1.98572 2.9716 0
M  V30 2838 C 272.765 3.48125 2.86566 0
M  V30 2839 C 271.427 3.88905 2.83383 0
M  V30 2840 C 273.779 4.43322 2.74071 0
M  V30 2841 C 271.107 5.2316 2.65556 0
M  V30 2842 C 273.459 5.77695 2.57781 0
M  V30 2843 C 272.123 6.17704 2.52979 0
M  V30 2844 H 271.393 0.440193 0.59608 0
M  V30 2845 H 274.04 1.62177 1.01837 0
M  V30 2846 H 272.345 1.49352 3.62217 0
M  V30 2847 H 274.042 1.8769 3.54364 0
M  V30 2848 H 270.632 3.15723 2.89856 0
M  V30 2849 H 274.816 4.12752 2.75589 0
M  V30 2850 H 270.072 5.53241 2.60259 0
M  V30 2851 H 274.246 6.51091 2.47089 0
M  V30 2852 H 271.873 7.21678 2.38924 0
M  V30 2853 N 273.449 -1.08991 1.13837 0
M  V30 2854 C 274.679 -1.84743 0.924859 0
M  V30 2855 C 275.087 -1.81629 -0.529874 0
M  V30 2856 O 274.43 -1.21397 -1.37872 0
M  V30 2857 C 274.492 -3.33568 1.34061 0
M  V30 2858 C 274.156 -3.60425 2.80968 0
M  V30 2859 C 275.153 -3.55771 3.79108 0
M  V30 2860 C 272.838 -3.88627 3.18236 0
M  V30 2861 C 274.832 -3.78939 5.12527 0
M  V30 2862 C 272.519 -4.11449 4.51833 0
M  V30 2863 C 273.517 -4.06598 5.48787 0
M  V30 2864 O 273.205 -4.28826 6.79973 0
M  V30 2865 H 272.937 -0.590258 0.329502 0
M  V30 2866 H 275.491 -1.38598 1.51591 0
M  V30 2867 H 273.721 -3.80442 0.692853 0
M  V30 2868 H 275.41 -3.90743 1.09886 0
M  V30 2869 H 276.176 -3.34005 3.51661 0
M  V30 2870 H 272.055 -3.91526 2.43369 0
M  V30 2871 H 275.599 -3.75068 5.88192 0
M  V30 2872 H 271.496 -4.32698 4.79002 0
M  V30 2873 H 272.264 -4.46264 6.86142 0
M  V30 2874 N 274.927 -0.932562 -1.27047 0
M  V30 2875 C 276.174 -0.575559 -1.94148 0
M  V30 2876 C 276.502 0.883984 -1.73251 0
M  V30 2877 O 275.757 1.64655 -1.0577 0
M  V30 2878 C 276.056 -0.853713 -3.47054 0
M  V30 2879 C 275.722 -2.29577 -3.88079 0
M  V30 2880 C 274.384 -2.68999 -3.9899 0
M  V30 2881 C 276.736 -3.23331 -4.08787 0
M  V30 2882 C 274.064 -4.01289 -4.28 0
M  V30 2883 C 276.416 -4.55207 -4.39282 0
M  V30 2884 C 275.08 -4.94457 -4.48407 0
M  V30 2885 H 274.35 -0.210612 -0.710439 0
M  V30 2886 H 276.997 -1.17744 -1.51025 0
M  V30 2887 H 275.302 -0.169204 -3.91434 0
M  V30 2888 H 276.999 -0.55639 -3.97121 0
M  V30 2889 H 273.589 -1.97994 -3.80127 0
M  V30 2890 H 277.773 -2.94074 -3.99793 0
M  V30 2891 H 273.029 -4.31374 -4.33275 0
M  V30 2892 H 277.203 -5.27852 -4.54252 0
M  V30 2893 H 274.83 -5.96994 -4.7064 0
M  V30 2894 N 276.405 1.4127 -0.698611 0
M  V30 2895 C 277.653 2.00782 -0.230409 0
M  V30 2896 C 277.974 1.5562 1.17505 0
M  V30 2897 O 277.244 0.78815 1.79346 0
M  V30 2898 H 275.824 0.742464 -0.0821944 0
M  V30 2899 H 278.486 1.72852 -0.90045 0
M  V30 2900 H 277.582 3.11095 -0.25021 0
M  V30 2901 N 277.883 0.443576 1.51229 0
M  V30 2902 C 278.846 -0.353132 2.26463 0
M  V30 2903 C 279.846 -0.944338 1.3015 0
M  V30 2904 O 281.036 -0.817813 1.5381 0
M  V30 2905 C 278.168 -1.50023 3.06114 0
M  V30 2906 H 279.361 0.3063 2.98332 0
M  V30 2907 H 276.914 0.196902 1.55055 0
M  V30 2908 H 277.649 -2.19553 2.38677 0
M  V30 2909 H 277.434 -1.08241 3.76864 0
M  V30 2910 H 278.924 -2.06296 3.63087 0
M  V30 2911 N 279.361 -1.56624 0.175154 0
M  V30 2912 C 280.291 -2.21155 -0.749195 0
M  V30 2913 C 281.272 -1.16836 -1.23626 0
M  V30 2914 O 282.457 -1.45277 -1.28873 0
M  V30 2915 C 279.587 -2.8553 -1.97711 0
M  V30 2916 C 278.541 -3.95921 -1.62575 0
M  V30 2917 C 277.867 -4.47365 -2.92864 0
M  V30 2918 C 279.167 -5.15323 -0.850838 0
M  V30 2919 H 280.861 -2.98653 -0.211295 0
M  V30 2920 H 278.407 -1.43651 -0.100188 0
M  V30 2921 H 280.36 -3.2935 -2.62881 0
M  V30 2922 H 279.084 -2.05406 -2.53921 0
M  V30 2923 H 277.743 -3.52762 -0.997719 0
M  V30 2924 H 277.391 -3.64027 -3.47122 0
M  V30 2925 H 277.091 -5.21839 -2.70106 0
M  V30 2926 H 278.615 -4.93873 -3.59056 0
M  V30 2927 H 280.029 -5.55812 -1.40521 0
M  V30 2928 H 278.426 -5.95739 -0.722154 0
M  V30 2929 H 279.496 -4.84661 0.152082 0
M  V30 2930 N 280.839 0.0985539 -1.57292 0
M  V30 2931 C 282.064 0.820196 -1.90493 0
M  V30 2932 C 282.489 1.71658 -0.769094 0
M  V30 2933 O 281.847 1.79133 0.279495 0
M  V30 2934 C 281.895 1.61242 -3.22542 0
M  V30 2935 O 280.999 2.72108 -3.09888 0
M  V30 2936 H 280.34 0.225547 -0.62452 0
M  V30 2937 H 282.87 0.0748159 -2.04463 0
M  V30 2938 H 282.88 1.99737 -3.55766 0
M  V30 2939 H 281.555 0.954535 -4.04798 0
M  V30 2940 H 280.132 2.36667 -2.88172 0
M  V30 2941 N 282.317 1.53212 0.369288 0
M  V30 2942 C 283.564 1.69215 1.11232 0
M  V30 2943 C 283.892 0.442048 1.8941 0
M  V30 2944 O 283.147 -0.575944 1.87033 0
M  V30 2945 C 283.446 2.89101 2.10132 0
M  V30 2946 C 283.112 4.25758 1.48463 0
M  V30 2947 C 281.774 4.6292 1.31372 0
M  V30 2948 C 284.126 5.10757 1.03811 0
M  V30 2949 C 281.454 5.82722 0.68207 0
M  V30 2950 C 283.806 6.31201 0.420487 0
M  V30 2951 C 282.47 6.67079 0.237038 0
M  V30 2952 H 281.74 0.619201 0.407027 0
M  V30 2953 H 284.387 1.87391 0.394552 0
M  V30 2954 H 282.692 2.65421 2.88199 0
M  V30 2955 H 284.389 2.98676 2.6757 0
M  V30 2956 H 280.979 3.96494 1.62758 0
M  V30 2957 H 285.163 4.82599 1.1581 0
M  V30 2958 H 280.419 6.09113 0.528316 0
M  V30 2959 H 284.593 6.96368 0.0662874 0
M  V30 2960 H 282.22 7.59774 -0.254477 0
M  V30 2961 N 283.795 -0.628877 1.44509 0
M  V30 2962 C 285.044 -1.38437 1.4669 0
M  V30 2963 C 285.357 -1.95322 0.104272 0
M  V30 2964 O 286.563 -2.715 0.00362163 0
M  V30 2965 C 285.019 -2.50659 2.5826 0
M  V30 2966 C 284.627 -2.00277 4.0074 0
M  V30 2967 C 286.371 -3.27844 2.69664 0
M  V30 2968 C 284.278 -3.09854 5.0373 0
M  V30 2969 H 283.208 -0.520245 0.545766 0
M  V30 2970 H 285.859 -0.676313 1.70582 0
M  V30 2971 H 284.241 -3.2405 2.27612 0
M  V30 2972 H 285.415 -1.33736 4.40966 0
M  V30 2973 H 283.73 -1.35901 3.93599 0
M  V30 2974 H 286.327 -4.09534 3.43781 0
M  V30 2975 H 286.67 -3.77471 1.75559 0
M  V30 2976 H 287.203 -2.61543 2.99733 0
M  V30 2977 H 283.942 -2.65168 5.99472 0
M  V30 2978 H 283.462 -3.7503 4.68095 0
M  V30 2979 H 285.141 -3.74592 5.27532 0
M  V30 2980 N 285.273 -1.31445 -0.869486 0
M  V30 2981 C 286.519 -1.21337 -1.62496 0
M  V30 2982 C 286.852 0.227872 -1.92858 0
M  V30 2983 O 286.127 1.16094 -1.56053 0
M  V30 2984 C 286.41 -2.05814 -2.95487 0
M  V30 2985 C 286.263 -3.5824 -2.72 0
M  V30 2986 C 287.582 -1.9079 -3.96594 0
M  V30 2987 H 284.701 -0.442135 -0.589649 0
M  V30 2988 H 287.343 -1.6124 -1.00507 0
M  V30 2989 H 285.493 -1.71913 -3.48394 0
M  V30 2990 H 287.165 -4.0228 -2.25762 0
M  V30 2991 H 285.408 -3.81647 -2.06224 0
M  V30 2992 H 286.079 -4.12657 -3.66631 0
M  V30 2993 H 288.555 -2.20459 -3.52898 0
M  V30 2994 H 287.431 -2.52199 -4.87531 0
M  V30 2995 H 287.692 -0.871341 -4.33428 0
M  V30 2996 N 286.751 1.08385 -1.14413 0
M  V30 2997 C 287.714 2.13486 -0.834048 0
M  V30 2998 C 288.714 1.59988 0.161418 0
M  V30 2999 O 289.904 1.74071 -0.0669575 0
M  V30 3000 C 287.036 3.4003 -0.243354 0
M  V30 3001 H 288.229 2.42425 -1.7655 0
M  V30 3002 H 285.782 1.24101 -0.950189 0
M  V30 3003 H 286.517 3.16726 0.696807 0
M  V30 3004 H 286.302 3.80157 -0.960367 0
M  V30 3005 H 287.792 4.17577 -0.0436242 0
M  V30 3006 N 288.23 0.939286 1.26551 0
M  V30 3007 C 289.14 0.453432 2.30176 0
M  V30 3008 C 290.156 -0.471649 1.67486 0
M  V30 3009 O 291.332 -0.35164 1.98306 0
M  V30 3010 C 288.397 -0.275326 3.45605 0
M  V30 3011 C 287.458 0.686084 4.23782 0
M  V30 3012 C 286.691 -0.00798994 5.33699 0
M  V30 3013 O 286.914 -1.22528 5.57085 0
M  V30 3014 O 285.848 0.669746 5.98162 0
M  V30 3015 H 289.674 1.31416 2.73795 0
M  V30 3016 H 287.259 0.705095 1.31715 0
M  V30 3017 H 289.141 -0.685911 4.1578 0
M  V30 3018 H 287.816 -1.11147 3.0402 0
M  V30 3019 H 286.723 1.14658 3.56096 0
M  V30 3020 H 288.056 1.48979 4.69112 0
M  V30 3021 N 289.708 -1.40897 0.706093 0
M  V30 3022 C 290.936 -2.05373 0.250887 0
M  V30 3023 C 291.351 -1.53172 -1.10381 0
M  V30 3024 O 290.708 -0.684305 -1.69185 0
M  V30 3025 C 290.759 -3.6088 0.211571 0
M  V30 3026 O 290.48 -4.11153 1.51276 0
M  V30 3027 C 291.981 -4.42517 -0.263346 0
M  V30 3028 H 289.201 -0.66115 0.114552 0
M  V30 3029 H 291.745 -1.80479 0.961635 0
M  V30 3030 H 289.9 -3.84777 -0.450073 0
M  V30 3031 H 290.314 -5.05279 1.40689 0
M  V30 3032 H 291.788 -5.51479 -0.239718 0
M  V30 3033 H 292.265 -4.19396 -1.30397 0
M  V30 3034 H 292.871 -4.23708 0.367677 0
M  V30 3035 N 291.186 -0.45159 -1.50991 0
M  V30 3036 C 292.432 0.110237 -2.025 0
M  V30 3037 C 292.765 1.41109 -1.33424 0
M  V30 3038 O 292.04 1.89135 -0.453659 0
M  V30 3039 C 292.323 0.314271 -3.58726 0
M  V30 3040 C 292.176 -1.00623 -4.38401 0
M  V30 3041 C 293.495 1.07767 -4.26702 0
M  V30 3042 H 290.614 0.0385897 -0.735989 0
M  V30 3043 H 293.256 -0.593374 -1.80497 0
M  V30 3044 H 291.406 0.913601 -3.77605 0
M  V30 3045 H 293.078 -1.64064 -4.31139 0
M  V30 3046 H 291.321 -1.6075 -4.02917 0
M  V30 3047 H 291.992 -0.817341 -5.45915 0
M  V30 3048 H 294.468 0.56986 -4.12179 0
M  V30 3049 H 293.344 1.18921 -5.35863 0
M  V30 3050 H 293.605 2.10939 -3.88532 0
M  V30 3051 N 292.664 1.56529 -0.183458 0
M  V30 3052 C 293.912 1.96855 0.457452 0
M  V30 3053 C 294.233 1.07104 1.62953 0
M  V30 3054 O 293.503 0.139887 1.954 0
M  V30 3055 H 292.083 0.72693 0.171992 0
M  V30 3056 H 294.745 1.93056 -0.267476 0
M  V30 3057 H 293.841 3.01423 0.809368 0
M  V30 3058 N 294.142 -0.090211 1.57342 0
M  V30 3059 C 295.388 -0.793982 1.86611 0
M  V30 3060 C 295.721 -1.78142 0.773252 0
M  V30 3061 O 294.996 -1.93271 -0.218304 0
M  V30 3062 C 295.279 -1.51839 3.26523 0
M  V30 3063 C 295.132 -0.548609 4.46442 0
M  V30 3064 C 296.451 -2.46779 3.64401 0
M  V30 3065 H 293.57 -0.287186 0.678744 0
M  V30 3066 H 296.212 -0.0575076 1.89913 0
M  V30 3067 H 294.362 -2.14617 3.23839 0
M  V30 3068 H 296.034 0.0725513 4.61243 0
M  V30 3069 H 294.277 0.137614 4.33582 0
M  V30 3070 H 294.948 -1.09271 5.41076 0
M  V30 3071 H 297.424 -1.94089 3.68061 0
M  V30 3072 H 296.3 -2.94479 4.63221 0
M  V30 3073 H 296.561 -3.30758 2.93346 0
M  V30 3074 N 295.62 -1.53406 -0.361157 0
M  V30 3075 C 296.55 -1.83136 -1.44857 0
M  V30 3076 C 297.531 -0.685174 -1.5569 0
M  V30 3077 O 298.716 -0.93544 -1.70186 0
M  V30 3078 C 295.846 -2.02522 -2.82138 0
M  V30 3079 C 294.8 -3.18302 -2.86126 0
M  V30 3080 C 294.126 -3.22989 -4.26125 0
M  V30 3081 C 295.426 -4.56796 -2.53248 0
M  V30 3082 H 297.12 -2.74201 -1.20226 0
M  V30 3083 H 294.666 -1.31938 -0.576922 0
M  V30 3084 H 296.619 -2.21904 -3.58241 0
M  V30 3085 H 295.343 -1.08172 -3.08166 0
M  V30 3086 H 294.002 -2.98747 -2.12475 0
M  V30 3087 H 293.65 -2.26267 -4.49235 0
M  V30 3088 H 293.35 -4.00781 -4.29708 0
M  V30 3089 H 294.874 -3.44559 -5.04094 0
M  V30 3090 H 296.288 -4.7631 -3.19064 0
M  V30 3091 H 294.685 -5.36862 -2.68141 0
M  V30 3092 H 295.755 -4.61606 -1.48484 0
M  V30 3093 N 297.098 0.621204 -1.44841 0
M  V30 3094 C 298.061 1.71459 -1.521 0
M  V30 3095 C 299.061 1.55696 -0.401933 0
M  V30 3096 O 300.251 1.61011 -0.664925 0
M  V30 3097 C 297.383 3.10624 -1.40447 0
M  V30 3098 H 298.576 1.66394 -2.49506 0
M  V30 3099 H 296.129 0.835745 -1.3208 0
M  V30 3100 H 296.864 3.21277 -0.441737 0
M  V30 3101 H 296.649 3.23473 -2.21602 0
M  V30 3102 H 298.139 3.90293 -1.4853 0
M  V30 3103 N 298.576 1.31904 0.862503 0
M  V30 3104 C 299.822 1.22197 1.61851 0
M  V30 3105 C 300.155 -0.217641 1.92977 0
M  V30 3106 O 299.43 -1.15264 1.56666 0
M  V30 3107 C 299.713 2.07378 2.94391 0
M  V30 3108 C 299.566 3.59678 2.70096 0
M  V30 3109 C 300.885 1.92891 3.95577 0
M  V30 3110 H 298.004 0.445255 0.587296 0
M  V30 3111 H 300.646 1.6177 0.99651 0
M  V30 3112 H 298.796 1.73758 3.47477 0
M  V30 3113 H 300.468 4.03472 2.23625 0
M  V30 3114 H 298.711 3.82735 2.04197 0
M  V30 3115 H 299.382 4.14595 3.64438 0
M  V30 3116 H 301.858 2.22327 3.51724 0
M  V30 3117 H 300.734 2.54781 4.86187 0
M  V30 3118 H 300.995 0.894315 4.3296 0
M  V30 3119 N 300.054 -1.07777 1.14986 0
M  V30 3120 C 301.002 -2.16964 0.838406 0
M  V30 3121 C 301.996 -1.68372 -0.186386 0
M  V30 3122 O 303.202 -1.79951 -0.0418465 0
M  V30 3123 H 299.577 -0.708006 0.253439 0
M  V30 3124 H 301.548 -2.40454 1.76704 0
M  V30 3125 C 300.297 -3.4604 0.339335 0
M  V30 3126 H 299.62 -3.83813 1.11927 0
M  V30 3127 H 301.06 -4.23698 0.160021 0
M  V30 3128 C 299.519 -3.23569 -0.938325 0
M  V30 3129 O 300.049 -3.47752 -2.01077 0
M  V30 3130 N 298.255 -2.77079 -0.876117 0
M  V30 3131 H 297.802 -2.576 -0.00322037 0
M  V30 3132 H 297.76 -2.62422 -1.73153 0
M  V30 3133 N 301.532 -0.945985 -1.26051 0
M  V30 3134 C 302.781 -0.591836 -1.92822 0
M  V30 3135 C 303.094 0.873956 -1.7499 0
M  V30 3136 O 304.3 1.33769 -2.36259 0
M  V30 3137 C 302.756 -1.00776 -3.45503 0
M  V30 3138 C 302.364 -2.4955 -3.7206 0
M  V30 3139 C 304.108 -0.725735 -4.1825 0
M  V30 3140 C 302.015 -2.84988 -5.18205 0
M  V30 3141 H 300.945 -0.217635 -0.721908 0
M  V30 3142 H 303.596 -1.14927 -1.43052 0
M  V30 3143 H 301.978 -0.378812 -3.94184 0
M  V30 3144 H 303.152 -3.1739 -3.34066 0
M  V30 3145 H 301.467 -2.75133 -3.12555 0
M  V30 3146 H 304.064 -0.966771 -5.25887 0
M  V30 3147 H 304.407 0.337639 -4.14929 0
M  V30 3148 H 304.94 -1.31463 -3.7545 0
M  V30 3149 H 301.679 -3.90307 -5.26631 0
M  V30 3150 H 301.199 -2.21813 -5.57278 0
M  V30 3151 H 302.878 -2.73712 -5.86252 0
M  V30 3152 N 303.011 1.40521 -0.713556 0
M  V30 3153 C 304.241 2.0494 -0.261395 0
M  V30 3154 C 304.649 1.53861 1.10107 0
M  V30 3155 O 303.992 0.689321 1.70276 0
M  V30 3156 C 304.054 3.59138 -0.161227 0
M  V30 3157 C 303.718 4.33096 -1.45865 0
M  V30 3158 C 304.715 4.61182 -2.40016 0
M  V30 3159 C 302.4 4.72043 -1.71701 0
M  V30 3160 C 304.394 5.27196 -3.58251 0
M  V30 3161 C 302.081 5.37789 -2.90218 0
M  V30 3162 C 303.079 5.65295 -3.83315 0
M  V30 3163 O 302.767 6.29683 -4.99754 0
M  V30 3164 H 302.499 0.666041 -0.115608 0
M  V30 3165 H 305.053 1.80954 -0.971849 0
M  V30 3166 H 303.283 3.81936 0.605153 0
M  V30 3167 H 304.972 4.05091 0.256105 0
M  V30 3168 H 305.738 4.31559 -2.21318 0
M  V30 3169 H 301.617 4.50003 -1.00092 0
M  V30 3170 H 305.161 5.48582 -4.30934 0
M  V30 3171 H 301.058 5.66831 -3.08825 0
M  V30 3172 H 301.826 6.4818 -4.99805 0
M  V30 3173 N 304.489 0.459591 1.5075 0
M  V30 3174 C 305.738 -0.100971 2.01447 0
M  V30 3175 C 306.051 -1.41816 1.34713 0
M  V30 3176 O 307.257 -2.06299 1.76502 0
M  V30 3177 C 305.713 -0.23047 3.59161 0
M  V30 3178 C 305.321 1.0776 4.34847 0
M  V30 3179 C 307.065 -0.743608 4.17936 0
M  V30 3180 C 304.972 0.91253 5.84317 0
M  V30 3181 H 303.902 -0.0415102 0.752856 0
M  V30 3182 H 306.553 0.592742 1.73663 0
M  V30 3183 H 304.935 -0.987703 3.83485 0
M  V30 3184 H 306.109 1.8449 4.22256 0
M  V30 3185 H 304.424 1.52097 3.87628 0
M  V30 3186 H 307.021 -0.883959 5.27343 0
M  V30 3187 H 307.364 -1.73196 3.78562 0
M  V30 3188 H 307.897 -0.04408 3.97776 0
M  V30 3189 H 304.636 1.87391 6.28144 0
M  V30 3190 H 304.156 0.185422 5.99513 0
M  V30 3191 H 305.835 0.574547 6.44444 0
M  V30 3192 N 305.967 -1.56429 0.191757 0
M  V30 3193 C 306.877 -2.22541 -0.742481 0
M  V30 3194 C 307.893 -1.22342 -1.23727 0
M  V30 3195 O 309.069 -1.55069 -1.28513 0
M  V30 3196 C 306.134 -2.8692 -1.94623 0
M  V30 3197 C 305.195 -4.02378 -1.49633 0
M  V30 3198 C 304.428 -4.63678 -2.6427 0
M  V30 3199 O 304.651 -4.23895 -3.81666 0
M  V30 3200 O 303.585 -5.53202 -2.37174 0
M  V30 3201 H 307.411 -3.02977 -0.209462 0
M  V30 3202 H 304.996 -1.49353 -0.0373832 0
M  V30 3203 H 306.878 -3.27663 -2.64982 0
M  V30 3204 H 305.553 -2.09466 -2.46791 0
M  V30 3205 H 304.46 -3.66265 -0.761636 0
M  V30 3206 H 305.793 -4.81487 -1.02134 0
M  V30 3207 N 307.445 0.0818655 -1.57387 0
M  V30 3208 C 308.392 1.09834 -2.0299 0
M  V30 3209 C 309.362 1.39043 -0.908639 0
M  V30 3210 O 310.547 1.50282 -1.17559 0
M  V30 3211 C 307.687 2.40971 -2.47037 0
M  V30 3212 C 306.8 2.18379 -3.7274 0
M  V30 3213 C 305.935 3.43008 -4.0561 0
M  V30 3214 C 304.974 3.15736 -5.24383 0
M  V30 3215 N 304.111 4.32667 -5.52941 0
M  V30 3216 H 308.951 0.702472 -2.89602 0
M  V30 3217 H 306.488 0.33531 -1.43227 0
M  V30 3218 H 308.446 3.1752 -2.70623 0
M  V30 3219 H 307.076 2.78379 -1.63417 0
M  V30 3220 H 306.128 1.32569 -3.56552 0
M  V30 3221 H 307.44 1.94227 -4.59431 0
M  V30 3222 H 306.594 4.27958 -4.30043 0
M  V30 3223 H 305.333 3.70225 -3.17466 0
M  V30 3224 H 304.338 2.2918 -4.99757 0
M  V30 3225 H 305.563 2.8985 -6.14136 0
M  V30 3226 H 303.509 4.59935 -4.67756 0
M  V30 3227 H 303.426 4.11753 -6.34031 0
M  V30 3228 H 304.694 5.18644 -5.81918 0
M  V30 3229 N 308.923 1.53595 0.353017 0
M  V30 3230 C 309.871 1.81605 1.45335 0
M  V30 3231 C 310.865 0.685923 1.54892 0
M  V30 3232 O 312.071 0.869095 1.57628 0
M  V30 3233 H 308.446 0.575204 0.484401 0
M  V30 3234 H 310.417 2.73679 1.18921 0
M  V30 3235 C 309.166 2.03406 2.81995 0
M  V30 3236 H 308.489 2.89814 2.75405 0
M  V30 3237 H 309.929 2.26975 3.58132 0
M  V30 3238 C 308.388 0.816794 3.26849 0
M  V30 3239 O 308.918 0.0115856 4.01698 0
M  V30 3240 N 307.124 0.636682 2.8354 0
M  V30 3241 H 306.671 1.2931 2.22793 0
M  V30 3242 H 306.629 -0.176336 3.13905 0
M  V30 3243 N 310.401 -0.613514 1.45168 0
M  V30 3244 C 311.348 -1.72456 1.53387 0
M  V30 3245 C 312.318 -1.6169 0.380191 0
M  V30 3246 O 313.503 -1.81356 0.592836 0
M  V30 3247 C 310.643 -3.10753 1.50088 0
M  V30 3248 C 309.756 -3.32368 2.75963 0
M  V30 3249 C 308.891 -4.60737 2.64376 0
M  V30 3250 C 307.93 -4.7559 3.85332 0
M  V30 3251 N 307.067 -5.95253 3.72315 0
M  V30 3252 H 311.907 -1.64768 2.48305 0
M  V30 3253 H 309.444 -0.803503 1.23216 0
M  V30 3254 H 311.402 -3.90758 1.46164 0
M  V30 3255 H 310.032 -3.17413 0.587243 0
M  V30 3256 H 309.084 -2.4618 2.89999 0
M  V30 3257 H 310.396 -3.39218 3.65695 0
M  V30 3258 H 309.55 -5.48928 2.58385 0
M  V30 3259 H 308.289 -4.56275 1.72233 0
M  V30 3260 H 307.294 -3.85824 3.91688 0
M  V30 3261 H 308.519 -4.81854 4.78533 0
M  V30 3262 H 306.465 -5.91847 2.82937 0
M  V30 3263 H 306.382 -6.03236 4.55677 0
M  V30 3264 H 307.65 -6.85958 3.70246 0
M  V30 3265 N 311.879 -1.3236 -0.855495 0
M  V30 3266 C 312.789 -1.23221 -1.99634 0
M  V30 3267 C 313.805 -0.145983 -1.73387 0
M  V30 3268 O 314.981 -0.366502 -1.98037 0
M  V30 3269 C 312.046 -0.954782 -3.33294 0
M  V30 3270 C 311.107 -2.12937 -3.72769 0
M  V30 3271 C 310.34 -1.86508 -5.00051 0
M  V30 3272 O 310.563 -0.807231 -5.64659 0
M  V30 3273 O 309.497 -2.72591 -5.36636 0
M  V30 3274 H 313.323 -2.19126 -2.1028 0
M  V30 3275 H 310.908 -1.12241 -0.986018 0
M  V30 3276 H 312.79 -0.816519 -4.13414 0
M  V30 3277 H 311.465 -0.0258854 -3.2369 0
M  V30 3278 H 310.372 -2.3231 -2.93228 0
M  V30 3279 H 311.705 -3.04102 -3.87018 0
M  V30 3280 N 313.357 1.07166 -1.15556 0
M  V30 3281 C 314.287 2.16403 -0.877046 0
M  V30 3282 C 315.268 1.69217 0.173111 0
M  V30 3283 O 316.453 1.94181 0.027084 0
M  V30 3284 C 313.583 3.45349 -0.367632 0
M  V30 3285 C 312.537 4.05995 -1.35468 0
M  V30 3286 C 311.863 5.30045 -0.704038 0
M  V30 3287 C 313.163 4.45804 -2.72132 0
M  V30 3288 H 314.857 2.39959 -1.79053 0
M  V30 3289 H 312.403 1.15325 -0.862331 0
M  V30 3290 H 314.356 4.21095 -0.160317 0
M  V30 3291 H 313.08 3.21385 0.581326 0
M  V30 3292 H 311.739 3.32296 -1.54839 0
M  V30 3293 H 311.387 5.02373 0.251128 0
M  V30 3294 H 311.087 5.71579 -1.36277 0
M  V30 3295 H 312.611 6.08495 -0.50654 0
M  V30 3296 H 314.025 5.12671 -2.56595 0
M  V30 3297 H 312.422 4.98296 -3.34397 0
M  V30 3298 H 313.492 3.57083 -3.28054 0
M  V30 3299 N 314.835 0.952656 1.25548 0
M  V30 3300 C 316.251 0.656769 1.4546 0
M  V30 3301 C 316.451 -0.78633 1.85524 0
M  V30 3302 O 315.507 -1.56183 1.98402 0
M  V30 3303 C 316.82 1.62801 2.52817 0
M  V30 3304 C 318.368 1.63897 2.66659 0
M  V30 3305 C 318.843 2.5978 3.77198 0
M  V30 3306 N 320.334 2.58133 3.84606 0
M  V30 3307 C 321.069 3.29003 4.69621 0
M  V30 3308 N 320.565 4.09339 5.58939 0
M  V30 3309 N 322.358 3.179 4.63569 0
M  V30 3310 H 314.509 1.88526 0.978344 0
M  V30 3311 H 316.772 0.810815 0.491206 0
M  V30 3312 H 316.478 2.65869 2.30232 0
M  V30 3313 H 316.352 1.38898 3.50695 0
M  V30 3314 H 318.739 0.615481 2.8861 0
M  V30 3315 H 318.82 1.91858 1.69187 0
M  V30 3316 H 318.464 3.62254 3.55997 0
M  V30 3317 H 318.394 2.29105 4.7415 0
M  V30 3318 H 320.885 1.99809 3.20757 0
M  V30 3319 H 321.198 4.6034 6.20731 0
M  V30 3320 H 319.543 4.13438 5.58654 0
M  V30 3321 H 322.734 2.54612 3.92798 0
M  V30 3322 H 322.907 3.73398 5.29602 0
M  V30 3323 N 316.313 -1.40141 0.720998 0
M  V30 3324 C 317.56 -2.00787 0.262842 0
M  V30 3325 C 317.888 -1.5718 -1.14563 0
M  V30 3326 O 317.143 -0.785391 -1.79249 0
M  V30 3327 C 317.442 -3.56165 0.296892 0
M  V30 3328 C 317.108 -4.19373 1.65641 0
M  V30 3329 C 315.77 -4.36352 2.02855 0
M  V30 3330 C 318.122 -4.54578 2.54968 0
M  V30 3331 C 315.45 -4.8582 3.28931 0
M  V30 3332 C 317.802 -5.05447 3.80402 0
M  V30 3333 C 316.466 -5.20635 4.17726 0
M  V30 3334 H 315.736 -0.734731 0.0961807 0
M  V30 3335 H 318.383 -1.67673 0.925093 0
M  V30 3336 H 316.688 -3.8922 -0.448932 0
M  V30 3337 H 318.385 -4.00929 -0.0755208 0
M  V30 3338 H 314.975 -4.06549 1.35704 0
M  V30 3339 H 319.159 -4.41091 2.27491 0
M  V30 3340 H 314.415 -4.95764 3.57811 0
M  V30 3341 H 318.589 -5.31663 4.49786 0
M  V30 3342 H 316.216 -5.58728 5.15487 0
M  V30 3343 N 317.792 -0.46758 -1.50504 0
M  V30 3344 C 318.739 0.328413 -2.28452 0
M  V30 3345 C 319.709 0.990313 -1.33349 0
M  V30 3346 O 320.894 1.00343 -1.62284 0
M  V30 3347 C 318.034 1.40648 -3.15138 0
M  V30 3348 C 317.147 0.759709 -4.25267 0
M  V30 3349 C 316.282 1.81537 -4.99217 0
M  V30 3350 C 315.321 1.14866 -6.01226 0
M  V30 3351 N 314.458 2.14702 -6.68467 0
M  V30 3352 H 319.298 -0.342603 -2.96024 0
M  V30 3353 H 316.835 -0.180801 -1.45985 0
M  V30 3354 H 318.793 2.04315 -3.63746 0
M  V30 3355 H 317.423 2.04671 -2.49619 0
M  V30 3356 H 316.475 0.0105671 -3.80399 0
M  V30 3357 H 317.787 0.233243 -4.98254 0
M  V30 3358 H 316.941 2.52793 -5.51526 0
M  V30 3359 H 315.68 2.37564 -4.25928 0
M  V30 3360 H 314.685 0.42171 -5.4818 0
M  V30 3361 H 315.91 0.595334 -6.76485 0
M  V30 3362 H 313.856 2.69752 -5.97972 0
M  V30 3363 H 313.773 1.6703 -7.37317 0
M  V30 3364 H 315.041 2.85348 -7.25394 0
M  V30 3365 N 319.27 1.56325 -0.20005 0
M  V30 3366 C 320.498 2.02105 0.442874 0
M  V30 3367 C 320.913 1.08014 1.5485 0
M  V30 3368 O 320.27 0.0858797 1.82298 0
M  V30 3369 C 320.321 3.47549 0.994583 0
M  V30 3370 O 320.042 4.38049 -0.0669322 0
M  V30 3371 C 321.543 4.0887 1.7129 0
M  V30 3372 H 318.763 0.661807 0.110691 0
M  V30 3373 H 321.307 2.02134 -0.310207 0
M  V30 3374 H 319.462 3.48204 1.69803 0
M  V30 3375 H 319.876 5.23368 0.344462 0
M  V30 3376 H 321.35 5.12475 2.05118 0
M  V30 3377 H 321.827 3.52615 2.61838 0
M  V30 3378 H 322.433 4.12002 1.05518 0
M  V30 3379 N 320.748 -0.0735177 1.57428 0
M  V30 3380 C 321.695 -1.08756 2.0357 0
M  V30 3381 C 322.665 -1.38559 0.916 0
M  V30 3382 O 323.85 -1.49656 1.18354 0
M  V30 3383 C 320.99 -2.39657 2.48311 0
M  V30 3384 C 320.103 -2.16399 3.73892 0
M  V30 3385 C 319.238 -3.40852 4.07423 0
M  V30 3386 C 318.277 -3.1295 5.2605 0
M  V30 3387 N 317.414 -4.29729 5.55228 0
M  V30 3388 H 322.254 -0.687104 2.8997 0
M  V30 3389 H 319.791 -0.327709 1.43403 0
M  V30 3390 H 321.749 -3.16081 2.72303 0
M  V30 3391 H 320.379 -2.77508 1.64891 0
M  V30 3392 H 319.431 -1.30676 3.57251 0
M  V30 3393 H 320.743 -1.91788 4.60455 0
M  V30 3394 H 319.897 -4.25671 4.32306 0
M  V30 3395 H 318.636 -3.68537 3.19425 0
M  V30 3396 H 317.641 -2.26526 5.00965 0
M  V30 3397 H 318.866 -2.86589 6.15665 0
M  V30 3398 H 316.812 -4.57448 4.70188 0
M  V30 3399 H 316.729 -4.08385 6.36206 0
M  V30 3400 H 317.997 -5.1555 5.84661 0
M  V30 3401 N 322.226 -1.5378 -0.344866 0
M  V30 3402 C 323.642 -1.44015 -0.687888 0
M  V30 3403 C 323.842 -0.595834 -1.92489 0
M  V30 3404 O 322.898 -0.0863064 -2.52352 0
M  V30 3405 C 324.211 -2.87481 -0.881758 0
M  V30 3406 C 325.759 -2.97247 -0.980459 0
M  V30 3407 C 326.234 -4.41819 -1.20665 0
M  V30 3408 N 327.725 -4.45339 -1.27389 0
M  V30 3409 C 328.46 -5.54333 -1.46639 0
M  V30 3410 N 327.956 -6.73335 -1.63071 0
M  V30 3411 N 329.749 -5.41944 -1.49176 0
M  V30 3412 H 321.9 -2.07169 0.468475 0
M  V30 3413 H 324.163 -0.93643 0.147655 0
M  V30 3414 H 323.869 -3.51672 -0.0443444 0
M  V30 3415 H 323.743 -3.32352 -1.78388 0
M  V30 3416 H 326.13 -2.33197 -1.8084 0
M  V30 3417 H 326.211 -2.5574 -0.0552713 0
M  V30 3418 H 325.855 -5.06449 -0.383652 0
M  V30 3419 H 325.785 -4.80917 -2.14539 0
M  V30 3420 H 328.276 -3.59585 -1.1622 0
M  V30 3421 H 328.589 -7.52165 -1.77391 0
M  V30 3422 H 326.934 -6.76282 -1.60209 0
M  V30 3423 H 330.125 -4.47932 -1.3592 0
M  V30 3424 H 330.298 -6.26946 -1.63837 0
M  V30 3425 N 323.704 0.605807 -1.45491 0
M  V30 3426 C 324.614 1.74466 -1.56839 0
M  V30 3427 C 325.63 1.68006 -0.452772 0
M  V30 3428 O 326.806 1.8833 -0.713708 0
M  V30 3429 C 323.871 3.10931 -1.53371 0
M  V30 3430 C 322.932 3.28832 -2.75986 0
M  V30 3431 C 322.165 4.58787 -2.72673 0
M  V30 3432 O 322.388 5.4122 -1.80102 0
M  V30 3433 O 321.322 4.79438 -3.63899 0
M  V30 3434 H 325.148 1.67843 -2.53106 0
M  V30 3435 H 322.733 0.770108 -1.28022 0
M  V30 3436 H 324.615 3.92233 -1.54051 0
M  V30 3437 H 323.29 3.18042 -0.602572 0
M  V30 3438 H 322.197 2.47112 -2.80867 0
M  V30 3439 H 323.53 3.26599 -3.68231 0
M  V30 3440 N 325.182 1.32811 0.848464 0
M  V30 3441 C 326.429 1.23724 1.60308 0
M  V30 3442 C 326.757 -0.1994 1.93475 0
M  V30 3443 O 326.012 -1.15406 1.5805 0
M  V30 3444 C 326.311 2.04831 2.92881 0
M  V30 3445 C 325.977 3.54125 2.79117 0
M  V30 3446 C 324.639 3.94829 2.7507 0
M  V30 3447 C 326.991 4.49036 2.64606 0
M  V30 3448 C 324.319 5.28675 2.544 0
M  V30 3449 C 326.671 5.83033 2.4547 0
M  V30 3450 C 325.335 6.22931 2.39819 0
M  V30 3451 H 324.605 0.452737 0.586609 0
M  V30 3452 H 327.252 1.64301 0.983743 0
M  V30 3453 H 325.557 1.57001 3.58968 0
M  V30 3454 H 327.254 1.95164 3.50303 0
M  V30 3455 H 323.844 3.21801 2.83094 0
M  V30 3456 H 328.028 4.18505 2.66772 0
M  V30 3457 H 323.284 5.58637 2.48465 0
M  V30 3458 H 327.458 6.56186 2.33222 0
M  V30 3459 H 325.085 7.26584 2.23562 0
M  V30 3460 N 326.66 -1.06551 1.16123 0
M  V30 3461 C 327.59 -2.15935 0.88851 0
M  V30 3462 C 328.571 -1.69306 -0.164135 0
M  V30 3463 O 329.756 -1.94193 -0.0167857 0
M  V30 3464 C 326.886 -3.45149 0.385942 0
M  V30 3465 C 325.84 -4.05271 1.3762 0
M  V30 3466 C 325.166 -5.29664 0.732137 0
M  V30 3467 C 326.466 -4.44355 2.74493 0
M  V30 3468 H 328.16 -2.39006 1.80323 0
M  V30 3469 H 325.706 -1.14866 0.868435 0
M  V30 3470 H 327.659 -4.21004 0.182647 0
M  V30 3471 H 326.383 -3.21689 -0.564274 0
M  V30 3472 H 325.042 -3.3147 1.56599 0
M  V30 3473 H 324.69 -5.02499 -0.224483 0
M  V30 3474 H 324.39 -5.70848 1.39307 0
M  V30 3475 H 325.914 -6.08218 0.538802 0
M  V30 3476 H 327.328 -5.11303 2.59311 0
M  V30 3477 H 325.725 -4.96515 3.37035 0
M  V30 3478 H 326.795 -3.55339 3.29943 0
M  V30 3479 N 328.138 -0.959301 -1.25041 0
M  V30 3480 C 329.085 -0.482057 -2.2571 0
M  V30 3481 C 330.055 0.467939 -1.59372 0
M  V30 3482 O 331.24 0.380159 -1.86974 0
M  V30 3483 C 328.38 0.229623 -3.44335 0
M  V30 3484 C 327.493 -0.758156 -4.25295 0
M  V30 3485 C 326.628 -0.0234403 -5.31195 0
M  V30 3486 C 325.667 -1.00184 -6.03846 0
M  V30 3487 N 324.804 -0.29769 -7.01469 0
M  V30 3488 H 329.644 -1.34538 -2.65901 0
M  V30 3489 H 327.181 -0.674592 -1.3072 0
M  V30 3490 H 329.139 0.658856 -4.11965 0
M  V30 3491 H 327.769 1.05696 -3.05005 0
M  V30 3492 H 326.821 -1.30586 -3.57284 0
M  V30 3493 H 328.133 -1.50458 -4.75567 0
M  V30 3494 H 327.287 0.464201 -6.04922 0
M  V30 3495 H 326.026 0.755741 -4.81809 0
M  V30 3496 H 325.031 -1.50044 -5.2893 0
M  V30 3497 H 326.256 -1.78133 -6.55321 0
M  V30 3498 H 324.202 0.462668 -6.54366 0
M  V30 3499 H 324.119 -0.983128 -7.4958 0
M  V30 3500 H 325.387 0.16826 -7.79318 0
M  V30 3501 N 329.616 1.39756 -0.72842 0
M  V30 3502 C 330.579 2.29012 -0.0927297 0
M  V30 3503 C 331.579 1.45992 0.674025 0
M  V30 3504 O 332.769 1.66749 0.50402 0
M  V30 3505 C 329.901 3.29396 0.878137 0
M  V30 3506 H 331.094 2.86729 -0.879011 0
M  V30 3507 H 328.647 1.48293 -0.493847 0
M  V30 3508 H 329.382 2.76722 1.69101 0
M  V30 3509 H 329.167 3.907 0.331051 0
M  V30 3510 H 330.657 3.96199 1.3197 0
M  V30 3511 N 331.094 0.475555 1.50254 0
M  V30 3512 C 332.319 -0.0777042 2.07254 0
M  V30 3513 C 332.744 -1.3235 1.3366 0
M  V30 3514 O 332.102 -1.77152 0.385597 0
M  V30 3515 C 332.15 -0.340169 3.58992 0
M  V30 3516 O 331.254 -1.41982 3.87188 0
M  V30 3517 H 330.595 0.0149556 0.663832 0
M  V30 3518 H 333.125 0.667878 1.93392 0
M  V30 3519 H 333.135 -0.579332 4.03866 0
M  V30 3520 H 331.81 0.570167 4.11973 0
M  V30 3521 H 330.387 -1.16762 3.54148 0
M  V30 3522 N 332.573 -1.56217 0.208337 0
M  V30 3523 C 333.798 -2.02782 -0.435222 0
M  V30 3524 C 334.223 -1.08738 -1.53485 0
M  V30 3525 O 333.581 -0.0731855 -1.81152 0
M  V30 3526 C 333.629 -3.47687 -0.956335 0
M  V30 3527 O 332.733 -3.56773 -2.06849 0
M  V30 3528 H 332.074 -0.656403 -0.100158 0
M  V30 3529 H 334.604 -2.02033 0.3231 0
M  V30 3530 H 334.614 -3.87745 -1.26955 0
M  V30 3531 H 333.289 -4.15624 -0.15143 0
M  V30 3532 H 331.866 -3.28597 -1.76292 0
M  V30 3533 N 334.051 0.0651679 -1.57465 0
M  V30 3534 C 335.276 0.779605 -1.9219 0
M  V30 3535 C 335.701 1.69988 -0.805333 0
M  V30 3536 O 335.059 1.79685 0.241435 0
M  V30 3537 C 335.107 1.54364 -3.2589 0
M  V30 3538 O 334.211 2.65474 -3.1559 0
M  V30 3539 H 333.552 0.212249 -0.629163 0
M  V30 3540 H 336.082 0.0314294 -2.04576 0
M  V30 3541 H 336.092 1.92146 -3.59922 0
M  V30 3542 H 334.767 0.868457 -4.06732 0
M  V30 3543 H 333.344 2.30501 -2.93128 0
M  V30 3544 N 335.529 1.53961 0.336706 0
M  V30 3545 C 336.754 1.75797 1.10046 0
M  V30 3546 C 337.179 0.498985 1.81361 0
M  V30 3547 O 336.537 -0.548769 1.72795 0
M  V30 3548 C 336.585 2.94257 2.08436 0
M  V30 3549 O 335.689 2.64883 3.16087 0
M  V30 3550 H 335.03 0.582936 0.317934 0
M  V30 3551 H 337.56 2.00945 0.38501 0
M  V30 3552 H 337.57 3.21237 2.51537 0
M  V30 3553 H 336.245 3.85564 1.55927 0
M  V30 3554 H 334.822 2.48812 2.77753 0
M  V30 3555 N 337.007 -0.598083 1.45811 0
M  V30 3556 C 338.418 -1.18011 1.44673 0
M  V30 3557 C 338.769 -1.95378 0.179364 0
M  V30 3558 O 337.894 -2.04124 -0.718509 0
M  V30 3559 C 338.489 -2.14677 2.62105 0
M  V30 3560 C 337.048 -2.68236 2.64057 0
M  V30 3561 C 336.195 -1.43816 2.37091 0
M  V30 3562 H 339.146 -0.38686 1.53913 0
M  V30 3563 H 339.167 -2.97878 2.36746 0
M  V30 3564 H 338.679 -1.5834 3.5433 0
M  V30 3565 H 336.78 -3.28486 1.75864 0
M  V30 3566 H 336.893 -3.12021 3.63566 0
M  V30 3567 H 335.257 -1.731 1.86838 0
M  V30 3568 H 336.04 -0.893333 3.31473 0
M  V30 3569 N 338.485 -1.33259 -0.841409 0
M  V30 3570 C 339.715 -1.2742 -1.62628 0
M  V30 3571 C 340.123 0.157604 -1.88542 0
M  V30 3572 O 339.466 1.10938 -1.46419 0
M  V30 3573 C 339.528 -1.97797 -3.00194 0
M  V30 3574 C 339.192 -3.47109 -2.97261 0
M  V30 3575 C 340.189 -4.42358 -2.73159 0
M  V30 3576 C 337.874 -3.89247 -3.17478 0
M  V30 3577 C 339.868 -5.77718 -2.69296 0
M  V30 3578 C 337.555 -5.24713 -3.13241 0
M  V30 3579 C 338.553 -6.1876 -2.89181 0
M  V30 3580 O 338.241 -7.51745 -2.84843 0
M  V30 3581 H 337.973 -0.440436 -0.512827 0
M  V30 3582 H 340.527 -1.76153 -1.05638 0
M  V30 3583 H 338.757 -1.43652 -3.59028 0
M  V30 3584 H 340.446 -1.8549 -3.61038 0
M  V30 3585 H 341.212 -4.11127 -2.57294 0
M  V30 3586 H 337.091 -3.16456 -3.35226 0
M  V30 3587 H 340.635 -6.51097 -2.50436 0
M  V30 3588 H 336.532 -5.55569 -3.28654 0
M  V30 3589 H 337.3 -7.61262 -3.00702 0
M  V30 3590 N 339.963 1.05934 -1.16686 0
M  V30 3591 C 340.926 2.11669 -0.879144 0
M  V30 3592 C 341.926 1.60294 0.127445 0
M  V30 3593 O 343.116 1.7389 -0.103865 0
M  V30 3594 C 340.248 3.39438 -0.315425 0
M  V30 3595 H 341.441 2.38626 -1.81653 0
M  V30 3596 H 338.994 1.22058 -0.976299 0
M  V30 3597 H 339.729 3.18132 0.629468 0
M  V30 3598 H 339.514 3.78034 -1.04079 0
M  V30 3599 H 341.004 4.17391 -0.132189 0
M  V30 3600 N 341.441 0.965919 1.2453 0
M  V30 3601 C 342.857 0.67216 1.44756 0
M  V30 3602 C 343.057 -0.766609 1.86347 0
M  V30 3603 O 342.113 -1.5407 2.00047 0
M  V30 3604 C 343.426 1.65473 2.51076 0
M  V30 3605 C 344.974 1.66716 2.64905 0
M  V30 3606 C 345.449 2.63766 3.74421 0
M  V30 3607 N 346.94 2.62198 3.81846 0
M  V30 3608 C 347.675 3.33966 4.66106 0
M  V30 3609 N 347.171 4.15245 5.54566 0
M  V30 3610 N 348.964 3.22799 4.60171 0
M  V30 3611 H 341.115 1.89553 0.958293 0
M  V30 3612 H 343.378 0.815979 0.482579 0
M  V30 3613 H 343.084 2.68296 2.27399 0
M  V30 3614 H 342.958 1.4261 3.49202 0
M  V30 3615 H 345.345 0.646057 2.87941 0
M  V30 3616 H 345.426 1.93642 1.67142 0
M  V30 3617 H 345.07 3.6601 3.52135 0
M  V30 3618 H 345 2.34121 4.71694 0
M  V30 3619 H 347.491 2.032 3.18619 0
M  V30 3620 H 347.804 4.66898 6.15814 0
M  V30 3621 H 346.149 4.1934 5.54237 0
M  V30 3622 H 349.34 2.58764 3.90075 0
M  V30 3623 H 349.513 3.78994 5.25612 0
M  V30 3624 N 342.919 -1.39368 0.735821 0
M  V30 3625 C 343.852 -2.28155 0.0451175 0
M  V30 3626 C 344.83 -1.44433 -0.746852 0
M  V30 3627 O 346.014 -1.73823 -0.729237 0
M  V30 3628 C 343.141 -3.253 -0.943266 0
M  V30 3629 C 342.187 -4.25826 -0.239685 0
M  V30 3630 S 343.02 -5.25166 1.04693 0
M  V30 3631 C 344.176 -6.2587 0.0611639 0
M  V30 3632 H 344.409 -2.86388 0.79807 0
M  V30 3633 H 341.942 -1.45104 0.527653 0
M  V30 3634 H 343.9 -3.81789 -1.50824 0
M  V30 3635 H 342.561 -2.66085 -1.66906 0
M  V30 3636 H 341.754 -4.94229 -0.987596 0
M  V30 3637 H 341.356 -3.73141 0.253274 0
M  V30 3638 H 343.648 -6.73007 -0.778941 0
M  V30 3639 H 344.591 -7.04508 0.712362 0
M  V30 3640 H 344.999 -5.63639 -0.311602 0
M  V30 3641 N 344.397 -0.483516 -1.5 0
M  V30 3642 C 345.808 -0.0314176 -1.86674 0
M  V30 3643 C 346.159 1.37728 -1.39733 0
M  V30 3644 O 345.284 2.02327 -0.767635 0
M  V30 3645 C 345.879 -0.0502376 -3.38763 0
M  V30 3646 C 344.438 0.346442 -3.74802 0
M  V30 3647 C 343.585 -0.430366 -2.7394 0
M  V30 3648 H 346.536 -0.697182 -1.42566 0
M  V30 3649 H 346.557 0.749116 -3.73053 0
M  V30 3650 H 346.069 -1.07563 -3.72897 0
M  V30 3651 H 344.17 1.37572 -3.46273 0
M  V30 3652 H 344.283 0.0391486 -4.79084 0
M  V30 3653 H 342.647 0.117557 -2.54429 0
M  V30 3654 H 343.43 -1.4555 -3.10918 0
M  V30 3655 N 345.875 1.56104 -0.216619 0
M  V30 3656 C 347.1 2.0301 0.424462 0
M  V30 3657 C 347.525 1.0955 1.52907 0
M  V30 3658 O 346.883 0.0827914 1.81111 0
M  V30 3659 C 346.931 3.4819 0.937883 0
M  V30 3660 O 346.035 3.57865 2.04955 0
M  V30 3661 H 345.376 0.656925 0.0966755 0
M  V30 3662 H 347.906 2.01859 -0.33381 0
M  V30 3663 H 347.916 3.88413 1.24897 0
M  V30 3664 H 346.591 4.15699 0.129387 0
M  V30 3665 H 345.168 3.29527 1.74546 0
M  V30 3666 N 347.353 -0.0568162 1.57498 0
M  V30 3667 C 348.583 -0.764515 1.91934 0
M  V30 3668 C 348.991 -1.70877 0.81227 0
M  V30 3669 O 348.334 -1.82351 -0.222213 0
M  V30 3670 C 348.396 -1.5994 3.21962 0
M  V30 3671 C 348.06 -0.822925 4.4953 0
M  V30 3672 C 349.057 -0.135464 5.19723 0
M  V30 3673 C 346.742 -0.785666 4.96117 0
M  V30 3674 C 348.736 0.578861 6.34766 0
M  V30 3675 C 346.423 -0.0675784 6.11063 0
M  V30 3676 C 347.421 0.613471 6.80239 0
M  V30 3677 O 347.109 1.31996 7.92989 0
M  V30 3678 H 346.841 -0.221647 0.63863 0
M  V30 3679 H 349.395 -0.0268218 2.05382 0
M  V30 3680 H 347.625 -2.38026 3.04763 0
M  V30 3681 H 349.314 -2.18715 3.41934 0
M  V30 3682 H 350.08 -0.155458 4.84751 0
M  V30 3683 H 345.959 -1.30524 4.42136 0
M  V30 3684 H 349.503 1.111 6.88696 0
M  V30 3685 H 345.4 -0.0455636 6.45484 0
M  V30 3686 H 346.168 1.23077 8.09194 0
M  V30 3687 N 348.832 -1.54138 -0.328536 0
M  V30 3688 C 350.248 -1.44736 -0.672574 0
M  V30 3689 C 350.448 -0.616217 -1.91846 0
M  V30 3690 O 349.504 -0.113067 -2.52247 0
M  V30 3691 C 350.817 -2.884 -0.851217 0
M  V30 3692 C 352.365 -2.98271 -0.948877 0
M  V30 3693 C 352.84 -4.43074 -1.15973 0
M  V30 3694 N 354.331 -4.46665 -1.22658 0
M  V30 3695 C 355.066 -5.55857 -1.40751 0
M  V30 3696 N 354.562 -6.75026 -1.5592 0
M  V30 3697 N 356.355 -5.43495 -1.4342 0
M  V30 3698 H 348.506 -2.06661 0.490421 0
M  V30 3699 H 350.769 -0.934812 0.157579 0
M  V30 3700 H 350.475 -3.51699 -0.00704236 0
M  V30 3701 H 350.349 -3.34225 -1.74853 0
M  V30 3702 H 352.736 -2.35102 -1.78356 0
M  V30 3703 H 352.817 -2.55785 -0.0281435 0
M  V30 3704 H 352.461 -5.06827 -0.329915 0
M  V30 3705 H 352.391 -4.83165 -2.09426 0
M  V30 3706 H 354.882 -3.60797 -1.124 0
M  V30 3707 H 355.195 -7.54004 -1.69404 0
M  V30 3708 H 353.54 -6.77944 -1.53027 0
M  V30 3709 H 356.731 -4.49349 -1.31162 0
M  V30 3710 H 356.904 -6.28649 -1.57178 0
M  V30 3711 N 350.31 0.590341 -1.46126 0
M  V30 3712 C 351.54 1.37304 -1.54373 0
M  V30 3713 C 351.948 1.88332 -0.181071 0
M  V30 3714 O 351.291 1.63852 0.830559 0
M  V30 3715 C 351.353 2.6012 -2.48149 0
M  V30 3716 C 351.017 2.30613 -3.94546 0
M  V30 3717 C 352.014 1.89915 -4.83971 0
M  V30 3718 C 349.699 2.42993 -4.39613 0
M  V30 3719 C 351.693 1.61981 -6.16475 0
M  V30 3720 C 349.38 2.14672 -5.72153 0
M  V30 3721 C 350.378 1.7423 -6.60404 0
M  V30 3722 O 350.066 1.46251 -7.90485 0
M  V30 3723 H 349.798 0.426086 -0.524811 0
M  V30 3724 H 352.352 0.72539 -1.92165 0
M  V30 3725 H 350.582 3.27664 -2.05361 0
M  V30 3726 H 352.271 3.22182 -2.46887 0
M  V30 3727 H 353.037 1.79872 -4.50412 0
M  V30 3728 H 348.916 2.73435 -3.71153 0
M  V30 3729 H 352.46 1.30341 -6.85315 0
M  V30 3730 H 348.357 2.24337 -6.05263 0
M  V30 3731 H 349.125 1.6016 -8.02677 0
M  V30 3732 N 351.788 1.33704 0.83433 0
M  V30 3733 C 353.204 1.13137 1.12571 0
M  V30 3734 C 353.404 -0.0747261 2.01361 0
M  V30 3735 O 352.46 -0.753647 2.4099 0
M  V30 3736 C 353.773 2.42105 1.78342 0
M  V30 3737 C 355.321 2.48054 1.90888 0
M  V30 3738 C 355.796 3.76995 2.60075 0
M  V30 3739 N 357.287 3.78092 2.67584 0
M  V30 3740 C 358.022 4.74574 3.21818 0
M  V30 3741 N 357.518 5.81434 3.76705 0
M  V30 3742 N 359.311 4.62044 3.20112 0
M  V30 3743 H 351.462 2.11 0.243489 0
M  V30 3744 H 353.725 0.932532 0.17055 0
M  V30 3745 H 353.431 3.30391 1.20561 0
M  V30 3746 H 353.305 2.54594 2.7832 0
M  V30 3747 H 355.692 1.60215 2.47821 0
M  V30 3748 H 355.773 2.39502 0.898459 0
M  V30 3749 H 355.417 4.65219 2.03799 0
M  V30 3750 H 355.347 3.82825 3.61597 0
M  V30 3751 H 357.838 3.00865 2.28667 0
M  V30 3752 H 358.151 6.51084 4.16305 0
M  V30 3753 H 356.496 5.85163 3.7498 0
M  V30 3754 H 359.687 3.77716 2.76493 0
M  V30 3755 H 359.86 5.37406 3.62076 0
M  V30 3756 N 353.266 -1.05314 1.17247 0
M  V30 3757 C 354.682 -1.30452 0.919473 0
M  V30 3758 C 354.882 -1.9703 -0.42209 0
M  V30 3759 O 353.938 -2.24311 -1.15935 0
M  V30 3760 C 355.251 -2.17551 2.07586 0
M  V30 3761 C 356.799 -2.30937 2.11275 0
M  V30 3762 C 357.274 -3.21396 3.26296 0
M  V30 3763 N 358.765 -3.28981 3.26076 0
M  V30 3764 C 359.5 -3.99095 4.11716 0
M  V30 3765 N 358.996 -4.71648 5.07465 0
M  V30 3766 N 360.789 -3.95247 3.9967 0
M  V30 3767 H 352.94 -0.604988 2.03602 0
M  V30 3768 H 355.203 -0.329368 0.888944 0
M  V30 3769 H 354.909 -1.75921 3.0454 0
M  V30 3770 H 354.783 -3.18182 2.02584 0
M  V30 3771 H 357.17 -2.71809 1.14907 0
M  V30 3772 H 357.251 -1.2994 2.20339 0
M  V30 3773 H 356.895 -2.81238 4.22927 0
M  V30 3774 H 356.825 -4.22395 3.14467 0
M  V30 3775 H 359.316 -2.77286 2.5675 0
M  V30 3776 H 359.629 -5.22705 5.6921 0
M  V30 3777 H 357.974 -4.70594 5.11435 0
M  V30 3778 H 361.165 -3.37691 3.24164 0
M  V30 3779 H 361.338 -4.4962 4.66632 0
M  V30 3780 N 354.744 -0.972509 -1.24016 0
M  V30 3781 C 356.16 -0.679827 -1.44397 0
M  V30 3782 C 356.36 0.756716 -1.86751 0
M  V30 3783 O 355.416 1.53007 -2.00861 0
M  V30 3784 C 356.729 -1.66803 -2.50195 0
M  V30 3785 C 358.277 -1.68119 -2.64017 0
M  V30 3786 C 358.752 -2.65748 -3.73017 0
M  V30 3787 N 360.243 -2.64219 -3.8045 0
M  V30 3788 C 360.978 -3.36433 -4.64328 0
M  V30 3789 N 360.474 -4.1818 -5.52356 0
M  V30 3790 N 362.267 -3.25235 -4.58453 0
M  V30 3791 H 354.418 -1.90059 -0.948228 0
M  V30 3792 H 356.681 -0.818527 -0.478245 0
M  V30 3793 H 356.387 -2.69498 -2.25973 0
M  V30 3794 H 356.261 -1.4446 -3.48441 0
M  V30 3795 H 358.648 -0.661319 -2.87594 0
M  V30 3796 H 358.729 -1.94525 -1.66113 0
M  V30 3797 H 358.373 -3.67872 -3.50189 0
M  V30 3798 H 358.303 -2.36619 -4.70446 0
M  V30 3799 H 360.794 -2.04887 -3.17537 0
M  V30 3800 H 361.107 -4.70157 -6.13329 0
M  V30 3801 H 359.452 -4.22273 -5.52006 0
M  V30 3802 H 362.643 -2.60829 -3.88698 0
M  V30 3803 H 362.816 -3.81776 -5.23594 0
M  V30 3804 N 356.222 1.38976 -0.743202 0
M  V30 3805 C 357.638 1.53984 -0.419664 0
M  V30 3806 C 357.838 1.70837 1.0685 0
M  V30 3807 O 356.894 1.7135 1.8546 0
M  V30 3808 C 358.207 2.75287 -1.20985 0
M  V30 3809 C 359.755 2.89129 -1.19889 0
M  V30 3810 C 360.23 4.13381 -1.97181 0
M  V30 3811 N 361.721 4.20437 -1.94389 0
M  V30 3812 C 362.456 5.15547 -2.50996 0
M  V30 3813 N 361.952 6.16395 -3.16274 0
M  V30 3814 N 363.745 5.07822 -2.40984 0
M  V30 3815 H 355.896 1.26285 -1.7078 0
M  V30 3816 H 358.159 0.612689 -0.723406 0
M  V30 3817 H 357.865 2.69204 -2.26323 0
M  V30 3818 H 357.739 3.68184 -0.819759 0
M  V30 3819 H 360.126 2.947 -0.153606 0
M  V30 3820 H 360.207 1.97272 -1.62841 0
M  V30 3821 H 359.851 4.08572 -3.01714 0
M  V30 3822 H 359.781 5.04298 -1.51629 0
M  V30 3823 H 362.272 3.48205 -1.46839 0
M  V30 3824 H 362.585 6.85443 -3.56915 0
M  V30 3825 H 360.93 6.16758 -3.20367 0
M  V30 3826 H 364.121 4.27973 -1.89622 0
M  V30 3827 H 364.294 5.81767 -2.85397 0
M  V30 3828 N 357.7 0.491464 1.49741 0
M  V30 3829 C 358.925 -0.0557177 2.07325 0
M  V30 3830 C 359.35 -1.30925 1.35056 0
M  V30 3831 O 358.708 -1.76733 0.404365 0
M  V30 3832 C 358.756 -0.302074 3.59333 0
M  V30 3833 O 357.86 -1.37868 3.88672 0
M  V30 3834 H 357.201 0.0219956 0.663636 0
M  V30 3835 H 359.731 0.688352 1.92673 0
M  V30 3836 H 359.741 -0.536464 4.04458 0
M  V30 3837 H 358.416 0.61383 4.11345 0
M  V30 3838 H 356.993 -1.12999 3.55367 0
M  V30 3839 N 359.178 -1.55987 0.224894 0
M  V30 3840 C 360.594 -1.59066 -0.130426 0
M  V30 3841 C 360.794 -1.24176 -1.5869 0
M  V30 3842 O 359.85 -0.978592 -2.32766 0
M  V30 3843 C 361.163 -3.00042 0.198883 0
M  V30 3844 C 362.711 -3.1268 0.141391 0
M  V30 3845 C 363.186 -4.55839 0.444422 0
M  V30 3846 N 364.677 -4.6152 0.394115 0
M  V30 3847 C 365.412 -5.70231 0.602038 0
M  V30 3848 N 364.908 -6.87291 0.871914 0
M  V30 3849 N 366.701 -5.59555 0.534245 0
M  V30 3850 H 358.852 -1.76941 1.17497 0
M  V30 3851 H 361.115 -0.822604 0.471197 0
M  V30 3852 H 360.821 -3.30234 1.2099 0
M  V30 3853 H 360.695 -3.74075 -0.484535 0
M  V30 3854 H 363.082 -2.82283 -0.860265 0
M  V30 3855 H 363.163 -2.40969 0.858335 0
M  V30 3856 H 362.807 -4.86954 1.44353 0
M  V30 3857 H 362.737 -5.2578 -0.293752 0
M  V30 3858 H 365.228 -3.77405 0.193356 0
M  V30 3859 H 365.541 -7.66058 1.01858 0
M  V30 3860 H 363.886 -6.89028 0.909145 0
M  V30 3861 H 367.077 -4.6698 0.323612 0
M  V30 3862 H 367.25 -6.44211 0.699693 0
M  V30 3863 N 360.656 0.0484629 -1.57525 0
M  V30 3864 C 361.881 0.759177 -1.93006 0
M  V30 3865 C 362.306 1.69125 -0.823317 0
M  V30 3866 O 361.664 1.79931 0.222364 0
M  V30 3867 C 361.712 1.50899 -3.27509 0
M  V30 3868 O 360.816 2.62112 -3.18388 0
M  V30 3869 H 360.157 0.205564 -0.631379 0
M  V30 3870 H 362.687 0.00972959 -2.04598 0
M  V30 3871 H 362.697 1.88317 -3.6194 0
M  V30 3872 H 361.372 0.825269 -4.0763 0
M  V30 3873 H 359.949 2.27379 -2.95556 0
M  V30 3874 N 362.134 1.5431 0.320358 0
M  V30 3875 C 363.359 1.76954 1.08175 0
M  V30 3876 C 363.784 0.518193 1.80821 0
M  V30 3877 O 363.142 -0.530411 1.73368 0
M  V30 3878 C 363.19 2.96451 2.05303 0
M  V30 3879 O 362.294 2.68221 3.13259 0
M  V30 3880 H 361.635 0.586275 0.311733 0
M  V30 3881 H 364.165 2.01342 0.363676 0
M  V30 3882 H 364.175 3.23887 2.48116 0
M  V30 3883 H 362.85 3.87196 1.51829 0
M  V30 3884 H 361.427 2.51744 2.75099 0
M  V30 3885 N 363.613 -0.582584 1.46437 0
M  V30 3886 C 364.838 -1.37168 1.55563 0
M  V30 3887 C 365.263 -1.87061 0.19743 0
M  V30 3888 O 364.621 -1.61572 -0.822451 0
M  V30 3889 C 364.669 -2.53511 2.56446 0
M  V30 3890 O 363.773 -3.54953 2.09958 0
M  V30 3891 H 363.114 -0.408494 0.523477 0
M  V30 3892 H 365.644 -0.706646 1.9201 0
M  V30 3893 H 365.654 -3.00426 2.76058 0
M  V30 3894 H 364.329 -2.16549 3.55076 0
M  V30 3895 H 362.906 -3.14516 2.00334 0
M  V30 3896 N 365.091 -1.34144 -0.827227 0
M  V30 3897 C 366.507 -1.13732 -1.11969 0
M  V30 3898 C 366.707 0.0640463 -2.01398 0
M  V30 3899 O 365.763 0.740856 -2.41387 0
M  V30 3900 C 367.076 -2.43047 -1.77055 0
M  V30 3901 C 368.624 -2.49063 -1.89569 0
M  V30 3902 C 369.099 -3.78369 -2.58072 0
M  V30 3903 N 370.59 -3.79505 -2.65575 0
M  V30 3904 C 371.325 -4.76274 -3.19297 0
M  V30 3905 N 370.821 -5.83424 -3.73616 0
M  V30 3906 N 372.614 -4.63735 -3.17658 0
M  V30 3907 H 364.765 -2.11126 -0.232296 0
M  V30 3908 H 367.028 -0.933424 -0.165602 0
M  V30 3909 H 366.734 -3.31025 -1.18807 0
M  V30 3910 H 366.608 -2.56066 -2.76966 0
M  V30 3911 H 368.995 -1.61527 -2.46968 0
M  V30 3912 H 369.076 -2.39975 -0.885745 0
M  V30 3913 H 368.72 -4.66293 -2.01329 0
M  V30 3914 H 368.65 -3.84737 -3.59562 0
M  V30 3915 H 371.141 -3.02074 -2.27068 0
M  V30 3916 H 371.454 -6.53282 -4.12846 0
M  V30 3917 H 369.799 -5.87143 -3.71871 0
M  V30 3918 H 372.99 -3.79177 -2.74486 0
M  V30 3919 H 373.163 -5.39318 -3.59221 0
M  V30 3920 N 366.569 1.04691 -1.17803 0
M  V30 3921 C 367.794 1.81984 -0.994813 0
M  V30 3922 C 368.219 1.82586 0.452112 0
M  V30 3923 O 367.577 1.23854 1.324 0
M  V30 3924 C 367.625 3.2575 -1.54659 0
M  V30 3925 O 366.729 4.05267 -0.763728 0
M  V30 3926 H 366.07 0.562483 -0.352857 0
M  V30 3927 H 368.6 1.3189 -1.56417 0
M  V30 3928 H 368.61 3.76541 -1.57102 0
M  V30 3929 H 367.285 3.24627 -2.59981 0
M  V30 3930 H 365.862 3.63972 -0.811108 0
M  V30 3931 N 368.047 0.979072 1.23499 0
M  V30 3932 C 369.275 0.665202 1.95915 0
M  V30 3933 C 369.69 -0.767571 1.72493 0
M  V30 3934 O 369.047 -1.51635 1.01554 0
M  V30 3935 C 369.098 0.944438 3.48945 0
M  V30 3936 O 368.819 2.3209 3.71572 0
M  V30 3937 C 370.32 0.646336 4.38563 0
M  V30 3938 H 367.54 0.247218 0.623798 0
M  V30 3939 H 370.084 1.31009 1.57025 0
M  V30 3940 H 368.239 0.345575 3.85856 0
M  V30 3941 H 368.653 2.40957 4.65876 0
M  V30 3942 H 370.127 0.892091 5.44744 0
M  V30 3943 H 370.604 -0.419575 4.37191 0
M  V30 3944 H 371.21 1.22562 4.07258 0
M  V30 3945 N 369.525 -1.3858 0.750561 0
M  V30 3946 C 370.435 -2.34278 0.122825 0
M  V30 3947 C 371.451 -1.59116 -0.704131 0
M  V30 3948 O 372.627 -1.91326 -0.628987 0
M  V30 3949 C 369.692 -3.38221 -0.762086 0
M  V30 3950 C 368.753 -4.29227 0.078896 0
M  V30 3951 C 367.986 -5.28205 -0.763874 0
M  V30 3952 O 368.209 -5.34112 -2.00201 0
M  V30 3953 O 367.143 -6.01618 -0.18428 0
M  V30 3954 H 370.969 -2.89649 0.913088 0
M  V30 3955 H 368.554 -1.40374 0.511417 0
M  V30 3956 H 370.436 -4.01872 -1.26793 0
M  V30 3957 H 369.111 -2.85211 -1.5309 0
M  V30 3958 H 368.018 -3.68747 0.630621 0
M  V30 3959 H 369.351 -4.85484 0.810289 0
M  V30 3960 N 371.003 -0.499398 -1.49478 0
M  V30 3961 C 371.966 0.268838 -2.27618 0
M  V30 3962 C 372.966 0.895383 -1.33565 0
M  V30 3963 O 374.156 0.760164 -1.56739 0
M  V30 3964 C 371.288 1.38559 -3.11471 0
M  V30 3965 H 372.481 -0.416812 -2.96989 0
M  V30 3966 H 370.034 -0.254313 -1.54217 0
M  V30 3967 H 370.769 2.10544 -2.46661 0
M  V30 3968 H 370.554 0.941797 -3.80621 0
M  V30 3969 H 372.044 1.92678 -3.70493 0
M  V30 3970 N 372.481 1.55866 -0.233164 0
M  V30 3971 C 373.706 2.03449 0.402906 0
M  V30 3972 C 374.131 1.11166 1.51736 0
M  V30 3973 O 373.489 0.101996 1.81013 0
M  V30 3974 C 373.537 3.49165 0.9009 0
M  V30 3975 O 372.641 3.60019 2.01147 0
M  V30 3976 H 371.982 0.657913 0.0897025 0
M  V30 3977 H 374.512 2.01493 -0.355201 0
M  V30 3978 H 374.522 3.89716 1.2077 0
M  V30 3979 H 373.197 4.15813 0.0852889 0
M  V30 3980 H 371.774 3.3136 1.71042 0
M  V30 3981 N 373.959 -0.0401083 1.57549 0
M  V30 3982 C 375.37 -0.588097 1.77196 0
M  V30 3983 C 375.721 -1.76209 0.862832 0
M  V30 3984 O 374.846 -2.16331 0.0548389 0
M  V30 3985 C 375.441 -1.07363 3.21339 0
M  V30 3986 C 374 -1.56723 3.42221 0
M  V30 3987 C 373.147 -0.50041 2.72747 0
M  V30 3988 H 376.098 0.186119 1.57605 0
M  V30 3989 H 376.119 -1.94143 3.27244 0
M  V30 3990 H 375.631 -0.218975 3.87482 0
M  V30 3991 H 373.732 -2.4441 2.81237 0
M  V30 3992 H 373.845 -1.62234 4.50796 0
M  V30 3993 H 372.209 -0.952894 2.36203 0
M  V30 3994 H 372.992 0.344599 3.41566 0
M  V30 3995 N 375.437 -1.54477 -0.31217 0
M  V30 3996 C 376.662 -1.77526 -1.07235 0
M  V30 3997 C 377.087 -0.527775 -1.80544 0
M  V30 3998 O 376.445 0.52121 -1.73646 0
M  V30 3999 C 376.493 -2.97535 -2.03728 0
M  V30 4000 O 375.597 -2.69878 -3.11833 0
M  V30 4001 H 374.938 -0.58792 -0.30862 0
M  V30 4002 H 377.468 -2.01532 -0.352993 0
M  V30 4003 H 377.478 -3.25198 -2.46395 0
M  V30 4004 H 376.153 -3.87996 -1.49774 0
M  V30 4005 H 374.73 -2.53199 -2.7376 0
M  V30 4006 N 376.915 0.57481 -1.46744 0
M  V30 4007 C 378.331 0.898981 -1.31873 0
M  V30 4008 C 378.531 1.99313 -0.29605 0
M  V30 4009 O 377.587 2.50728 0.298621 0
M  V30 4010 C 378.9 1.30886 -2.7072 0
M  V30 4011 C 380.448 1.42127 -2.78871 0
M  V30 4012 C 380.923 1.86478 -4.18318 0
M  V30 4013 N 382.414 1.93658 -4.20774 0
M  V30 4014 C 383.149 2.29267 -5.2557 0
M  V30 4015 N 382.645 2.63612 -6.40688 0
M  V30 4016 N 384.438 2.29889 -5.1294 0
M  V30 4017 H 376.589 -0.147839 -2.11885 0
M  V30 4018 H 378.852 -0.00347013 -0.947994 0
M  V30 4019 H 378.558 0.578853 -3.46904 0
M  V30 4020 H 378.432 2.26874 -3.01343 0
M  V30 4021 H 380.819 2.14213 -2.0297 0
M  V30 4022 H 380.9 0.443705 -2.51922 0
M  V30 4023 H 380.544 1.14968 -4.94717 0
M  V30 4024 H 380.474 2.85207 -4.42679 0
M  V30 4025 H 382.965 1.69574 -3.37718 0
M  V30 4026 H 383.278 2.89759 -7.16421 0
M  V30 4027 H 381.623 2.61232 -6.44036 0
M  V30 4028 H 384.814 2.02485 -4.22039 0
M  V30 4029 H 384.987 2.57312 -5.94722 0
M  V30 4030 N 378.394 1.34581 0.820102 0
M  V30 4031 C 379.671 1.17675 1.56244 0
M  V30 4032 C 380.051 -0.249541 2.0962 0
M  V30 4033 O 379.399 -1.25125 1.91196 0
M  V30 4034 C 379.609 2.23364 2.6816 0
M  V30 4035 C 380.957 2.58485 3.36854 0
M  V30 4036 O 381.981 2.22175 2.78418 0
M  V30 4037 O 380.84 3.20868 4.42386 0
M  V30 4038 H 377.934 0.456333 0.689702 0
M  V30 4039 H 380.48 1.46222 0.861231 0
M  V30 4040 H 379.252 3.19087 2.26493 0
M  V30 4041 H 378.875 1.96009 3.45928 0
M  V30 4042 N 379.872 -1.04064 1.18357 0
M  V30 4043 C 381.118 -1.77528 0.980397 0
M  V30 4044 C 381.451 -1.87948 -0.48879 0
M  V30 4045 O 380.726 -1.3876 -1.36293 0
M  V30 4046 C 381.009 -3.20797 1.63588 0
M  V30 4047 C 380.862 -3.1832 3.17793 0
M  V30 4048 C 382.181 -4.18911 1.34914 0
M  V30 4049 H 379.3 -0.644443 0.357578 0
M  V30 4050 H 381.942 -1.2156 1.46024 0
M  V30 4051 H 380.092 -3.68586 1.22788 0
M  V30 4052 H 381.764 -2.78521 3.67728 0
M  V30 4053 H 380.007 -2.56351 3.49952 0
M  V30 4054 H 380.678 -4.19489 3.58794 0
M  V30 4055 H 383.154 -3.7967 1.70265 0
M  V30 4056 H 382.03 -5.17374 1.83346 0
M  V30 4057 H 382.291 -4.41262 0.272027 0
M  V30 4058 N 381.35 -0.985608 -1.22978 0
M  V30 4059 C 382.575 -0.675254 -1.961 0
M  V30 4060 C 383 0.752154 -1.72407 0
M  V30 4061 O 382.358 1.5131 -0.998751 0
M  V30 4062 C 382.406 -0.977899 -3.47087 0
M  V30 4063 O 381.51 -0.072685 -4.12336 0
M  V30 4064 H 380.851 -0.253443 -0.613728 0
M  V30 4065 H 383.381 -1.32061 -1.56272 0
M  V30 4066 H 383.391 -0.916739 -3.97567 0
M  V30 4067 H 382.066 -2.01807 -3.63657 0
M  V30 4068 H 380.643 -0.188703 -3.72422 0
M  V30 4069 N 382.828 1.3818 -0.7579 0
M  V30 4070 C 384.239 1.82726 -0.383134 0
M  V30 4071 C 384.59 1.63214 1.08884 0
M  V30 4072 O 383.715 1.13566 1.84205 0
M  V30 4073 C 384.31 3.31728 -0.688631 0
M  V30 4074 C 382.869 3.74606 -0.367091 0
M  V30 4075 C 382.016 2.60896 -0.939599 0
M  V30 4076 H 384.967 1.26847 -0.953699 0
M  V30 4077 H 384.988 3.80487 0.0316492 0
M  V30 4078 H 384.5 3.45898 -1.76001 0
M  V30 4079 H 382.601 3.66013 0.697532 0
M  V30 4080 H 382.714 4.71215 -0.865658 0
M  V30 4081 H 381.078 2.52075 -0.3647 0
M  V30 4082 H 381.861 2.77864 -2.0161 0
M  V30 4083 N 384.306 0.507319 1.49211 0
M  V30 4084 C 385.239 -0.314509 2.26022 0
M  V30 4085 C 386.217 -0.964849 1.30879 0
M  V30 4086 O 387.401 -0.993707 1.6018 0
M  V30 4087 C 384.528 -1.44346 3.06402 0
M  V30 4088 C 383.574 -0.90685 4.16748 0
M  V30 4089 S 384.407 0.207392 5.35098 0
M  V30 4090 C 385.563 -0.924573 6.19033 0
M  V30 4091 H 385.796 0.337416 2.95379 0
M  V30 4092 H 383.329 0.292718 1.516 0
M  V30 4093 H 385.287 -2.09029 3.53295 0
M  V30 4094 H 383.948 -2.06702 2.36502 0
M  V30 4095 H 383.141 -1.75309 4.72528 0
M  V30 4096 H 382.743 -0.33712 3.72478 0
M  V30 4097 H 385.035 -1.82839 6.52362 0
M  V30 4098 H 385.978 -0.405248 7.06939 0
M  V30 4099 H 386.386 -1.19476 5.51712 0
M  V30 4100 N 385.784 -1.5574 0.241426 0
M  V30 4101 C 387.032 -1.98417 -0.384075 0
M  V30 4102 C 387.353 -1.13078 -1.58866 0
M  V30 4103 O 386.623 -0.212312 -1.94746 0
M  V30 4104 H 385.203 -0.732813 -0.144894 0
M  V30 4105 H 387.865 -1.9193 0.338943 0
M  V30 4106 H 386.961 -3.04219 -0.696939 0
M  V30 4107 N 387.262 0.0317525 -1.57568 0
M  V30 4108 C 388.192 1.03274 -2.0942 0
M  V30 4109 C 389.173 1.3788 -0.996143 0
M  V30 4110 O 390.358 1.46811 -1.27122 0
M  V30 4111 C 387.488 2.33448 -2.57137 0
M  V30 4112 C 386.442 2.13091 -3.71182 0
M  V30 4113 C 385.768 3.49001 -4.05095 0
M  V30 4114 C 387.068 1.51928 -4.99715 0
M  V30 4115 H 388.762 0.60112 -2.93303 0
M  V30 4116 H 386.308 0.287705 -1.41097 0
M  V30 4117 H 388.261 3.03802 -2.92032 0
M  V30 4118 H 386.985 2.78665 -1.70333 0
M  V30 4119 H 385.644 1.45171 -3.36632 0
M  V30 4120 H 385.292 3.91862 -3.15362 0
M  V30 4121 H 384.992 3.36207 -4.81911 0
M  V30 4122 H 386.516 4.20721 -4.42522 0
M  V30 4123 H 387.93 2.12196 -5.32584 0
M  V30 4124 H 386.327 1.49716 -5.81124 0
M  V30 4125 H 387.397 0.484811 -4.8247 0
M  V30 4126 N 388.74 1.54641 0.303973 0
M  V30 4127 C 389.687 1.85386 1.37479 0
M  V30 4128 C 390.657 0.702528 1.50512 0
M  V30 4129 O 391.842 0.950867 1.65418 0
M  V30 4130 C 388.982 2.10413 2.73533 0
M  V30 4131 C 388.095 3.38049 2.68974 0
M  V30 4132 C 387.23 3.52934 3.97002 0
M  V30 4133 C 386.269 4.74373 3.86829 0
M  V30 4134 N 385.406 4.8608 5.06627 0
M  V30 4135 H 390.246 2.76732 1.1056 0
M  V30 4136 H 387.783 1.37034 0.534805 0
M  V30 4137 H 389.741 2.22919 3.52652 0
M  V30 4138 H 388.371 1.22338 2.98719 0
M  V30 4139 H 387.423 3.3418 1.81736 0
M  V30 4140 H 388.735 4.27288 2.57346 0
M  V30 4141 H 387.889 3.65088 4.84557 0
M  V30 4142 H 386.628 2.61824 4.1146 0
M  V30 4143 H 385.633 4.62255 2.97658 0
M  V30 4144 H 386.858 5.66888 3.73918 0
M  V30 4145 H 384.804 3.97891 5.21554 0
M  V30 4146 H 384.721 5.69315 4.9741 0
M  V30 4147 H 385.989 5.02587 5.95841 0
M  V30 4148 N 390.218 -0.567019 1.47046 0
M  V30 4149 C 391.467 -1.32091 1.5243 0
M  V30 4150 C 391.78 -1.94704 0.187021 0
M  V30 4151 O 392.986 -2.7124 0.118771 0
M  V30 4152 C 391.442 -2.39479 2.68659 0
M  V30 4153 C 391.05 -1.831 4.08874 0
M  V30 4154 C 392.794 -3.16111 2.83327 0
M  V30 4155 C 390.701 -2.8821 5.16419 0
M  V30 4156 H 389.631 -0.496629 0.56734 0
M  V30 4157 H 392.282 -0.603354 1.73297 0
M  V30 4158 H 390.664 -3.14105 2.41152 0
M  V30 4159 H 391.838 -1.14913 4.46242 0
M  V30 4160 H 390.153 -1.19085 3.99008 0
M  V30 4161 H 392.75 -3.94585 3.60842 0
M  V30 4162 H 393.093 -3.69686 1.91411 0
M  V30 4163 H 393.626 -2.48595 3.10556 0
M  V30 4164 H 390.365 -2.39504 6.10179 0
M  V30 4165 H 389.885 -3.54839 4.8358 0
M  V30 4166 H 391.564 -3.51881 5.42945 0
M  V30 4167 N 391.696 -1.35014 -0.812953 0
M  V30 4168 C 392.924 -1.31031 -1.6012 0
M  V30 4169 C 393.339 0.113558 -1.88458 0
M  V30 4170 O 392.696 1.06363 -1.48301 0
M  V30 4171 C 392.747 -2.10872 -2.93624 0
M  V30 4172 O 392.468 -3.47706 -2.66518 0
M  V30 4173 C 393.969 -2.14401 -3.88004 0
M  V30 4174 H 391.189 -0.45037 -0.497401 0
M  V30 4175 H 393.733 -1.77775 -1.01076 0
M  V30 4176 H 391.888 -1.67744 -3.492 0
M  V30 4177 H 392.302 -3.89097 -3.51715 0
M  V30 4178 H 393.776 -2.74669 -4.78812 0
M  V30 4179 H 394.253 -1.14105 -4.24119 0
M  V30 4180 H 394.859 -2.57662 -3.38364 0
M  V30 4181 N 393.175 1.03435 -1.18907 0
M  V30 4182 C 394.423 1.76394 -0.986382 0
M  V30 4183 C 394.744 1.88883 0.484567 0
M  V30 4184 O 394.014 1.41843 1.3512 0
M  V30 4185 H 392.594 0.65344 -0.361975 0
M  V30 4186 H 395.256 1.248 -1.49703 0
M  V30 4187 H 394.352 2.77424 -1.42978 0
M  V30 4188 N 394.653 0.992116 1.22453 0
M  V30 4189 C 395.616 0.546883 2.2258 0
M  V30 4190 C 396.616 -0.369829 1.56489 0
M  V30 4191 O 397.806 -0.161896 1.73446 0
M  V30 4192 C 394.938 -0.204659 3.40285 0
M  V30 4193 H 396.131 1.43234 2.63484 0
M  V30 4194 H 393.684 0.779239 1.3549 0
M  V30 4195 H 394.419 -1.10614 3.04853 0
M  V30 4196 H 394.204 0.45354 3.89468 0
M  V30 4197 H 395.694 -0.504358 4.14543 0
M  V30 4198 N 396.131 -1.37776 0.765217 0
M  V30 4199 C 397.38 -1.99092 0.323307 0
M  V30 4200 C 397.693 -1.61434 -1.10446 0
M  V30 4201 O 398.899 -2.15805 -1.64743 0
M  V30 4202 C 397.355 -3.56019 0.527098 0
M  V30 4203 C 396.963 -4.0262 1.96471 0
M  V30 4204 C 398.707 -4.2424 0.148483 0
M  V30 4205 C 396.614 -5.52233 2.11644 0
M  V30 4206 H 395.544 -0.744846 0.117137 0
M  V30 4207 H 398.195 -1.57391 0.943417 0
M  V30 4208 H 396.577 -3.95667 -0.162372 0
M  V30 4209 H 397.751 -3.74234 2.68859 0
M  V30 4210 H 396.066 -3.47161 2.29931 0
M  V30 4211 H 398.663 -5.34159 0.240456 0
M  V30 4212 H 399.006 -4.06446 -0.900422 0
M  V30 4213 H 399.539 -3.89872 0.79025 0
M  V30 4214 H 396.278 -5.74945 3.1483 0
M  V30 4215 H 395.798 -5.82324 1.4373 0
M  V30 4216 H 397.477 -6.18106 1.91193 0
M  V30 4217 N 397.609 -0.515225 -1.4894 0
M  V30 4218 C 399.02 -0.0710067 -1.86565 0
M  V30 4219 C 399.371 1.34733 -1.42623 0
M  V30 4220 O 398.496 2.00653 -0.810379 0
M  V30 4221 C 399.091 -0.122083 -3.3858 0
M  V30 4222 C 397.65 0.266863 -3.75453 0
M  V30 4223 C 396.797 -0.488376 -2.72966 0
M  V30 4224 H 399.748 -0.727266 -1.41055 0
M  V30 4225 H 399.769 0.669818 -3.74558 0
M  V30 4226 H 399.281 -1.15448 -3.70531 0
M  V30 4227 H 397.382 1.30196 -3.49113 0
M  V30 4228 H 397.495 -0.0624811 -4.79059 0
M  V30 4229 H 395.859 0.0635622 -2.54621 0
M  V30 4230 H 396.642 -1.52113 -3.07761 0
M  V30 4231 N 399.087 1.5561 -0.249682 0
M  V30 4232 C 400.02 2.17537 0.689408 0
M  V30 4233 C 400.998 1.12829 1.17083 0
M  V30 4234 O 402.182 1.41229 1.24846 0
M  V30 4235 C 399.309 2.77828 1.93725 0
M  V30 4236 C 398.355 3.95615 1.59346 0
M  V30 4237 S 399.188 5.30988 0.69367 0
M  V30 4238 C 400.344 5.94734 1.95046 0
M  V30 4239 H 400.577 2.96852 0.163142 0
M  V30 4240 H 398.11 1.54362 -0.0341166 0
M  V30 4241 H 400.068 3.13199 2.65361 0
M  V30 4242 H 398.729 1.98454 2.43465 0
M  V30 4243 H 397.922 4.364 2.52132 0
M  V30 4244 H 397.524 3.61535 0.957512 0
M  V30 4245 H 399.816 6.12419 2.89739 0
M  V30 4246 H 400.759 6.90109 1.58604 0
M  V30 4247 H 401.167 5.23832 2.10381 0
M  V30 4248 N 400.565 -0.0233959 1.57583 0
M  V30 4249 C 401.813 -0.711654 1.89156 0
M  V30 4250 C 402.134 -1.75591 0.848096 0
M  V30 4251 O 401.404 -1.95547 -0.117566 0
M  V30 4252 H 399.984 -0.265835 0.698098 0
M  V30 4253 H 402.646 0.0119948 1.94896 0
M  V30 4254 H 401.742 -1.19766 2.88206 0
M  V30 4255 N 402.043 -1.548 -0.295768 0
M  V30 4256 C 402.953 -1.89177 -1.38742 0
M  V30 4257 C 403.969 -0.786481 -1.55211 0
M  V30 4258 O 405.145 -1.08344 -1.69775 0
M  V30 4259 C 402.21 -2.13663 -2.73036 0
M  V30 4260 C 401.271 -3.37349 -2.65508 0
M  V30 4261 C 400.504 -3.60658 -3.93398 0
M  V30 4262 O 400.727 -2.86882 -4.93006 0
M  V30 4263 O 399.661 -4.54179 -3.94975 0
M  V30 4264 H 403.487 -2.82059 -1.12589 0
M  V30 4265 H 401.072 -1.41056 -0.492295 0
M  V30 4266 H 402.954 -2.3094 -3.52484 0
M  V30 4267 H 401.629 -1.23967 -2.99022 0
M  V30 4268 H 400.536 -3.25431 -1.84514 0
M  V30 4269 H 401.869 -4.27192 -2.44474 0
M  V30 4270 N 403.521 0.559213 -1.47345 0
M  V30 4271 C 404.451 1.67622 -1.62558 0
M  V30 4272 C 405.432 1.63331 -0.475087 0
M  V30 4273 O 406.617 1.80983 -0.704182 0
M  V30 4274 C 403.747 3.0626 -1.63774 0
M  V30 4275 C 402.701 3.25397 -2.7803 0
M  V30 4276 C 402.027 4.64801 -2.64318 0
M  V30 4277 C 403.327 3.10965 -4.19641 0
M  V30 4278 H 405.021 1.55146 -2.56067 0
M  V30 4279 H 402.567 0.744961 -1.23233 0
M  V30 4280 H 404.52 3.84247 -1.73008 0
M  V30 4281 H 403.244 3.1969 -0.66825 0
M  V30 4282 H 401.903 2.49817 -2.68304 0
M  V30 4283 H 401.551 4.75028 -1.65401 0
M  V30 4284 H 401.251 4.78555 -3.40968 0
M  V30 4285 H 402.775 5.44926 -2.75478 0
M  V30 4286 H 404.189 3.78772 -4.30354 0
M  V30 4287 H 402.586 3.36229 -4.97062 0
M  V30 4288 H 403.656 2.07736 -4.38148 0
M  V30 4289 N 404.999 1.35443 0.805782 0
M  V30 4290 C 406.224 1.32037 1.59941 0
M  V30 4291 C 406.649 -0.0994215 1.87837 0
M  V30 4292 O 406.007 -1.06648 1.46615 0
M  V30 4293 C 406.055 2.13354 2.90711 0
M  V30 4294 O 405.159 1.5148 3.83572 0
M  V30 4295 H 404.5 0.452666 0.485787 0
M  V30 4296 H 407.03 1.78496 1.00002 0
M  V30 4297 H 407.04 2.25338 3.40128 0
M  V30 4298 H 405.715 3.16572 2.69732 0
M  V30 4299 H 404.292 1.4834 3.42125 0
M  V30 4300 N 406.477 -1.02803 1.19454 0
M  V30 4301 C 407.41 -2.107 0.876396 0
M  V30 4302 C 408.388 -1.61741 -0.166897 0
M  V30 4303 O 409.572 -1.88451 -0.0430195 0
M  V30 4304 C 406.699 -3.37262 0.311758 0
M  V30 4305 C 405.745 -4.05093 1.33424 0
M  V30 4306 S 406.578 -4.50498 2.89503 0
M  V30 4307 C 407.734 -5.80277 2.34584 0
M  V30 4308 H 407.967 -2.37362 1.79016 0
M  V30 4309 H 405.5 -1.15755 1.02177 0
M  V30 4310 H 407.458 -4.10499 -0.00748752 0
M  V30 4311 H 406.119 -3.08693 -0.58032 0
M  V30 4312 H 405.312 -4.9611 0.888302 0
M  V30 4313 H 404.914 -3.3803 1.60037 0
M  V30 4314 H 407.206 -6.54873 1.73633 0
M  V30 4315 H 408.149 -6.29651 3.23952 0
M  V30 4316 H 408.557 -5.3599 1.77131 0
M  V30 4317 N 407.956 -0.998596 -1.21925 0
M  V30 4318 C 409.186 -0.695276 -1.94549 0
M  V30 4319 C 409.594 0.745079 -1.73911 0
M  V30 4320 O 408.937 1.51507 -1.03881 0
M  V30 4321 C 408.999 -0.928485 -3.47303 0
M  V30 4322 C 408.663 -2.35443 -3.91683 0
M  V30 4323 C 409.66 -3.33428 -3.98901 0
M  V30 4324 C 407.345 -2.69038 -4.24174 0
M  V30 4325 C 409.339 -4.63079 -4.37992 0
M  V30 4326 C 407.026 -3.98906 -4.62944 0
M  V30 4327 C 408.024 -4.95738 -4.69822 0
M  V30 4328 O 407.712 -6.23285 -5.07711 0
M  V30 4329 H 407.444 -0.255902 -0.625692 0
M  V30 4330 H 409.998 -1.33767 -1.5587 0
M  V30 4331 H 408.228 -0.228917 -3.86022 0
M  V30 4332 H 409.917 -0.619539 -4.01144 0
M  V30 4333 H 410.683 -3.08807 -3.73983 0
M  V30 4334 H 406.562 -1.94367 -4.18022 0
M  V30 4335 H 410.106 -5.38658 -4.43275 0
M  V30 4336 H 406.003 -4.23314 -4.87314 0
M  V30 4337 H 406.771 -6.27306 -5.25766 0
M  V30 4338 N 409.434 1.37368 -0.772513 0
M  V30 4339 C 410.662 2.03942 -0.348588 0
M  V30 4340 C 411.077 1.58264 1.02947 0
M  V30 4341 O 410.434 0.764246 1.65727 0
M  V30 4342 C 410.485 3.5946 -0.38351 0
M  V30 4343 O 410.206 4.03468 -1.70721 0
M  V30 4344 C 411.707 4.4327 0.0519152 0
M  V30 4345 H 408.927 0.654931 -0.145966 0
M  V30 4346 H 411.471 1.75686 -1.04665 0
M  V30 4347 H 409.626 3.86486 0.265978 0
M  V30 4348 H 410.04 4.97991 -1.64636 0
M  V30 4349 H 411.514 5.51995 -0.0236733 0
M  V30 4350 H 411.991 4.2514 1.10238 0
M  V30 4351 H 412.597 4.21471 -0.569415 0
M  V30 4352 N 410.912 0.523116 1.48665 0
M  V30 4353 C 411.842 -0.23231 2.32342 0
M  V30 4354 C 412.823 -0.941637 1.41659 0
M  V30 4355 O 414.008 -0.928751 1.70552 0
M  V30 4356 C 411.138 -1.28387 3.22698 0
M  V30 4357 C 410.092 -0.693098 4.22351 0
M  V30 4358 C 409.418 -1.8468 5.01794 0
M  V30 4359 C 410.718 0.33063 5.21252 0
M  V30 4360 H 412.412 0.466192 2.95748 0
M  V30 4361 H 409.958 0.225643 1.42221 0
M  V30 4362 H 411.911 -1.82024 3.80059 0
M  V30 4363 H 410.635 -2.01186 2.57278 0
M  V30 4364 H 409.294 -0.178299 3.66166 0
M  V30 4365 H 408.942 -2.56301 4.32804 0
M  V30 4366 H 408.642 -1.45747 5.69238 0
M  V30 4367 H 410.166 -2.38709 5.62006 0
M  V30 4368 H 411.58 -0.118407 5.73178 0
M  V30 4369 H 409.977 0.636974 5.9671 0
M  V30 4370 H 411.047 1.23883 4.68808 0
M  V30 4371 N 412.39 -1.55475 0.257931 0
M  V30 4372 C 413.615 -2.04064 -0.370488 0
M  V30 4373 C 414.04 -1.13565 -1.49948 0
M  V30 4374 O 413.398 -0.130781 -1.80828 0
M  V30 4375 C 413.446 -3.50554 -0.845237 0
M  V30 4376 O 412.55 -3.63173 -1.95394 0
M  V30 4377 H 411.891 -0.659257 -0.0792243 0
M  V30 4378 H 414.421 -2.00903 0.387212 0
M  V30 4379 H 414.431 -3.91588 -1.14555 0
M  V30 4380 H 413.106 -4.15896 -0.0191259 0
M  V30 4381 H 411.683 -3.34039 -1.65748 0
M  V30 4382 N 413.868 0.0150385 -1.57593 0
M  V30 4383 C 415.284 0.370907 -1.5523 0
M  V30 4384 C 415.484 1.75735 -0.985882 0
M  V30 4385 O 414.54 2.44944 -0.613077 0
M  V30 4386 C 415.853 0.259908 -2.99575 0
M  V30 4387 C 417.401 0.335959 -3.11192 0
M  V30 4388 C 417.876 0.254253 -4.57294 0
M  V30 4389 N 419.367 0.312618 -4.62144 0
M  V30 4390 C 420.102 0.272505 -5.72752 0
M  V30 4391 N 419.598 0.183864 -6.92556 0
M  V30 4392 N 421.391 0.323267 -5.6117 0
M  V30 4393 H 413.542 -0.892104 -1.92757 0
M  V30 4394 H 415.805 -0.340563 -0.884715 0
M  V30 4395 H 415.511 -0.693403 -3.44797 0
M  V30 4396 H 415.385 1.048 -3.62349 0
M  V30 4397 H 417.772 1.27971 -2.65909 0
M  V30 4398 H 417.853 -0.481739 -2.51223 0
M  V30 4399 H 417.497 -0.685887 -5.03247 0
M  V30 4400 H 417.427 1.09024 -5.15191 0
M  V30 4401 H 419.918 0.38307 -3.75953 0
M  V30 4402 H 420.231 0.15874 -7.72637 0
M  V30 4403 H 418.576 0.149708 -6.94839 0
M  V30 4404 H 421.767 0.390607 -4.66467 0
M  V30 4405 H 421.94 0.288539 -6.47357 0
M  V30 4406 N 415.346 1.54954 0.287554 0
M  V30 4407 C 416.256 1.8991 1.37736 0
M  V30 4408 C 417.272 0.794701 1.54792 0
M  V30 4409 O 418.448 1.09243 1.69198 0
M  V30 4410 C 415.513 2.15108 2.71899 0
M  V30 4411 C 414.574 3.38752 2.63715 0
M  V30 4412 C 413.807 3.62739 3.91479 0
M  V30 4413 O 414.03 2.89492 4.91478 0
M  V30 4414 O 412.964 4.56267 3.92561 0
M  V30 4415 H 416.79 2.82652 1.11092 0
M  V30 4416 H 414.375 1.41315 0.484807 0
M  V30 4417 H 416.257 2.32806 3.51254 0
M  V30 4418 H 414.932 1.25551 2.9836 0
M  V30 4419 H 413.839 3.26405 1.82786 0
M  V30 4420 H 415.172 4.28483 2.42205 0
M  V30 4421 N 416.824 -0.551391 1.4764 0
M  V30 4422 C 418.235 -1.13349 1.48354 0
M  V30 4423 C 418.586 -1.94709 0.241432 0
M  V30 4424 O 417.711 -2.06306 -0.653205 0
M  V30 4425 C 418.306 -2.0623 2.68802 0
M  V30 4426 C 416.865 -2.597 2.72457 0
M  V30 4427 C 416.012 -1.36201 2.41546 0
M  V30 4428 H 418.963 -0.337698 1.55065 0
M  V30 4429 H 418.984 -2.90196 2.46103 0
M  V30 4430 H 418.496 -1.46987 3.59188 0
M  V30 4431 H 416.597 -3.22724 1.86225 0
M  V30 4432 H 416.71 -3.00296 3.73308 0
M  V30 4433 H 415.074 -1.67068 1.9225 0
M  V30 4434 H 415.857 -0.787425 3.34147 0
M  V30 4435 N 418.302 -1.35869 -0.798587 0
M  V30 4436 C 419.232 -1.32118 -1.92528 0
M  V30 4437 C 420.213 -0.194209 -1.68988 0
M  V30 4438 O 421.398 -0.390426 -1.90235 0
M  V30 4439 C 418.528 -1.10047 -3.29404 0
M  V30 4440 C 417.482 -2.19471 -3.67446 0
M  V30 4441 C 416.808 -1.82555 -5.02571 0
M  V30 4442 C 418.108 -3.61495 -3.76987 0
M  V30 4443 H 419.802 -2.26394 -1.95924 0
M  V30 4444 H 417.348 -1.08981 -0.94123 0
M  V30 4445 H 419.301 -1.06061 -4.07835 0
M  V30 4446 H 418.025 -0.122195 -3.26371 0
M  V30 4447 H 416.684 -2.22568 -2.91306 0
M  V30 4448 H 416.332 -0.833249 -4.9605 0
M  V30 4449 H 416.032 -2.5581 -5.28995 0
M  V30 4450 H 417.556 -1.80108 -5.83432 0
M  V30 4451 H 418.97 -3.60676 -4.4563 0
M  V30 4452 H 417.367 -4.33577 -4.14887 0
M  V30 4453 H 418.437 -3.97065 -2.78329 0
M  V30 4454 N 419.78 1.02168 -1.19998 0
M  V30 4455 C 420.727 2.10601 -0.944228 0
M  V30 4456 C 421.697 1.65639 0.123664 0
M  V30 4457 O 422.882 1.9079 -0.0199941 0
M  V30 4458 C 420.022 3.41504 -0.496865 0
M  V30 4459 C 419.135 3.99973 -1.63234 0
M  V30 4460 C 418.27 5.18915 -1.13579 0
M  V30 4461 C 417.309 5.69456 -2.24468 0
M  V30 4462 N 416.446 6.79665 -1.76068 0
M  V30 4463 H 421.286 2.31814 -1.8726 0
M  V30 4464 H 418.823 1.13686 -0.933483 0
M  V30 4465 H 420.781 4.16626 -0.218843 0
M  V30 4466 H 419.411 3.2038 0.394508 0
M  V30 4467 H 418.463 3.21997 -2.0254 0
M  V30 4468 H 419.775 4.33492 -2.46752 0
M  V30 4469 H 418.929 6.01222 -0.813429 0
M  V30 4470 H 417.668 4.8695 -0.270434 0
M  V30 4471 H 416.673 4.85757 -2.57526 0
M  V30 4472 H 417.898 6.03459 -3.11472 0
M  V30 4473 H 415.844 6.49538 -0.918516 0
M  V30 4474 H 415.761 7.12349 -2.5317 0
M  V30 4475 H 417.029 7.65549 -1.46817 0
M  V30 4476 N 421.258 1.00505 1.21394 0
M  V30 4477 C 422.504 0.688793 1.90745 0
M  V30 4478 C 422.837 -0.778486 1.77914 0
M  V30 4479 O 422.112 -1.56433 1.15581 0
M  V30 4480 C 422.395 1.11063 3.42545 0
M  V30 4481 C 422.248 2.63737 3.64367 0
M  V30 4482 C 423.567 0.673059 4.34923 0
M  V30 4483 H 420.686 0.251702 0.692687 0
M  V30 4484 H 423.328 1.25074 1.43026 0
M  V30 4485 H 421.478 0.632508 3.83317 0
M  V30 4486 H 423.15 3.19313 3.32922 0
M  V30 4487 H 421.393 3.05248 3.08231 0
M  V30 4488 H 422.064 2.88305 4.70727 0
M  V30 4489 H 424.54 1.08392 4.01734 0
M  V30 4490 H 423.416 0.996383 5.39781 0
M  V30 4491 H 423.677 -0.425808 4.40045 0
M  V30 4492 N 422.737 -1.36956 0.779787 0
M  V30 4493 C 423.965 -2.03755 0.359398 0
M  V30 4494 C 424.38 -1.58807 -1.02106 0
M  V30 4495 O 423.737 -0.773024 -1.6532 0
M  V30 4496 C 423.788 -3.59251 0.402568 0
M  V30 4497 O 423.509 -4.02557 1.72858 0
M  V30 4498 C 425.01 -4.43291 -0.0284068 0
M  V30 4499 H 422.23 -0.654148 0.149437 0
M  V30 4500 H 424.774 -1.75128 1.05595 0
M  V30 4501 H 422.929 -3.86621 -0.245478 0
M  V30 4502 H 423.343 -4.97111 1.67275 0
M  V30 4503 H 424.817 -5.51975 0.0529466 0
M  V30 4504 H 425.294 -4.25719 -1.07982 0
M  V30 4505 H 425.9 -4.21163 0.591758 0
M  V30 4506 N 424.215 -0.530993 -1.48385 0
M  V30 4507 C 425.443 -0.00134122 -2.069 0
M  V30 4508 C 425.858 1.2805 -1.3874 0
M  V30 4509 O 425.215 1.76204 -0.475244 0
M  V30 4510 C 425.266 0.225256 -3.60798 0
M  V30 4511 O 424.987 -1.0058 -4.26398 0
M  V30 4512 C 426.488 0.795172 -4.3611 0
M  V30 4513 H 423.708 -0.0339704 -0.67014 0
M  V30 4514 H 426.252 -0.736926 -1.90761 0
M  V30 4515 H 424.407 0.910891 -3.76539 0
M  V30 4516 H 424.821 -0.787165 -5.1856 0
M  V30 4517 H 426.295 0.903143 -5.44562 0
M  V30 4518 H 426.772 1.80031 -4.00606 0
M  V30 4519 H 427.378 0.146069 -4.25049 0
M  V30 4520 N 425.693 1.55336 -0.266172 0
M  V30 4521 C 426.656 2.20878 0.612001 0
M  V30 4522 C 427.656 1.18388 1.08816 0
M  V30 4523 O 428.846 1.4335 0.989774 0
M  V30 4524 C 425.978 2.86765 1.84332 0
M  V30 4525 H 427.171 2.99873 0.0398718 0
M  V30 4526 H 424.724 1.56291 -0.0167309 0
M  V30 4527 H 425.459 2.11759 2.45619 0
M  V30 4528 H 425.244 3.61862 1.5099 0
M  V30 4529 H 426.734 3.36867 2.46801 0
M  V30 4530 N 427.171 -0.0066808 1.57599 0
M  V30 4531 C 428.134 -0.985035 2.06953 0
M  V30 4532 C 429.134 -1.27663 0.977687 0
M  V30 4533 O 430.324 -1.22293 1.24057 0
M  V30 4534 C 427.456 -2.3118 2.50536 0
M  V30 4535 H 428.649 -0.558255 2.94658 0
M  V30 4536 H 426.202 -0.254011 1.54222 0
M  V30 4537 H 426.937 -2.78561 1.66054 0
M  V30 4538 H 426.722 -2.11338 3.3027 0
M  V30 4539 H 428.212 -3.01377 2.8907 0
M  V30 4540 N 428.649 -1.55105 -0.279332 0
M  V30 4541 C 429.874 -1.7976 -1.03446 0
M  V30 4542 C 430.299 -0.565952 -1.79384 0
M  V30 4543 O 429.657 0.484259 -1.74713 0
M  V30 4544 C 429.705 -3.0179 -1.97371 0
M  V30 4545 O 428.809 -2.76432 -3.06038 0
M  V30 4546 H 428.15 -0.594334 -0.29608 0
M  V30 4547 H 430.68 -2.02235 -0.310165 0
M  V30 4548 H 430.69 -3.30351 -2.39441 0
M  V30 4549 H 429.365 -3.91085 -1.4151 0
M  V30 4550 H 427.942 -2.58949 -2.68328 0
M  V30 4551 N 430.127 0.543554 -1.4793 0
M  V30 4552 C 431.357 1.32324 -1.58663 0
M  V30 4553 C 431.765 1.8766 -0.240896 0
M  V30 4554 O 431.108 1.66411 0.778011 0
M  V30 4555 C 431.17 2.52094 -2.56299 0
M  V30 4556 C 430.834 2.17944 -4.01683 0
M  V30 4557 C 431.831 1.74422 -4.89768 0
M  V30 4558 C 429.516 2.28884 -4.47121 0
M  V30 4559 C 431.51 1.42287 -6.21316 0
M  V30 4560 C 429.197 1.96361 -5.78693 0
M  V30 4561 C 430.195 1.53132 -6.65612 0
M  V30 4562 O 429.883 1.21029 -7.94737 0
M  V30 4563 H 429.615 0.409174 -0.538101 0
M  V30 4564 H 432.169 0.663887 -1.94375 0
M  V30 4565 H 430.399 3.20965 -2.15681 0
M  V30 4566 H 432.088 3.14165 -2.57012 0
M  V30 4567 H 432.854 1.65452 -4.55907 0
M  V30 4568 H 428.733 2.61488 -3.79664 0
M  V30 4569 H 432.277 1.08472 -6.89115 0
M  V30 4570 H 428.174 2.04967 -6.12094 0
M  V30 4571 H 428.942 1.34543 -8.07366 0
M  V30 4572 N 431.605 1.3629 0.791371 0
M  V30 4573 C 432.83 1.33726 1.58531 0
M  V30 4574 C 433.255 -0.0794933 1.87932 0
M  V30 4575 O 432.613 -1.05087 1.47738 0
M  V30 4576 C 432.661 2.16425 2.88431 0
M  V30 4577 O 431.765 1.5554 3.81944 0
M  V30 4578 H 431.106 0.457793 0.480959 0
M  V30 4579 H 433.636 1.79547 0.981031 0
M  V30 4580 H 433.646 2.28933 3.37718 0
M  V30 4581 H 432.321 3.19415 2.66359 0
M  V30 4582 H 430.898 1.51961 3.40532 0
M  V30 4583 N 433.083 -1.0153 1.20538 0
M  V30 4584 C 434.494 -1.56598 1.01657 0
M  V30 4585 C 434.845 -1.91505 -0.426668 0
M  V30 4586 O 433.97 -1.72375 -1.30827 0
M  V30 4587 C 434.565 -2.84542 1.83905 0
M  V30 4588 C 433.124 -3.36133 1.69386 0
M  V30 4589 C 432.271 -2.09427 1.81757 0
M  V30 4590 H 435.222 -0.838974 1.34711 0
M  V30 4591 H 435.243 -3.56004 1.34319 0
M  V30 4592 H 434.755 -2.59105 2.8894 0
M  V30 4593 H 432.856 -3.66528 0.669933 0
M  V30 4594 H 432.969 -4.08248 2.50739 0
M  V30 4595 H 431.333 -2.21941 1.24957 0
M  V30 4596 H 432.116 -1.86414 2.88279 0
M  V30 4597 N 434.561 -1.01147 -1.20859 0
M  V30 4598 C 435.838 -0.613136 -1.85742 0
M  V30 4599 C 436.218 0.909004 -1.90526 0
M  V30 4600 O 435.566 1.79862 -1.40932 0
M  V30 4601 C 435.776 -1.255 -3.25654 0
M  V30 4602 C 437.124 -1.3672 -4.01986 0
M  V30 4603 O 438.148 -1.21082 -3.34989 0
M  V30 4604 O 437.007 -1.6194 -5.21956 0
M  V30 4605 H 434.101 -0.210878 -0.799662 0
M  V30 4606 H 436.647 -1.10853 -1.2849 0
M  V30 4607 H 435.419 -2.29532 -3.16908 0
M  V30 4608 H 435.042 -0.746369 -3.90532 0
M  V30 4609 N 436.039 1.36541 -0.78704 0
M  V30 4610 C 436.971 2.28761 -0.141773 0
M  V30 4611 C 437.984 1.49365 0.647599 0
M  V30 4612 O 439.173 1.71836 0.483173 0
M  V30 4613 C 436.273 3.28771 0.822368 0
M  V30 4614 C 435.446 4.3732 0.0835594 0
M  V30 4615 C 434.505 5.17307 0.963296 0
M  V30 4616 O 433.531 5.67638 0.421419 0
M  V30 4617 N 434.733 5.33515 2.28784 0
M  V30 4618 H 437.498 2.84777 -0.933919 0
M  V30 4619 H 435.059 1.48682 -0.640735 0
M  V30 4620 H 437.051 3.79169 1.41468 0
M  V30 4621 H 435.621 2.73412 1.5154 0
M  V30 4622 H 434.841 3.88118 -0.689809 0
M  V30 4623 H 436.129 5.0701 -0.426358 0
M  V30 4624 H 435.527 4.94234 2.75226 0
M  V30 4625 H 434.084 5.87165 2.82985 0
M  V30 4626 N 437.518 0.538854 1.48102 0
M  V30 4627 C 438.428 -0.222648 2.33541 0
M  V30 4628 C 439.444 -0.930225 1.47047 0
M  V30 4629 O 440.62 -0.903211 1.80011 0
M  V30 4630 C 437.685 -1.25064 3.23357 0
M  V30 4631 C 436.746 -0.552469 4.2573 0
M  V30 4632 C 435.979 -1.53149 5.11254 0
M  V30 4633 O 436.202 -2.76487 4.9891 0
M  V30 4634 O 435.136 -1.06602 5.92385 0
M  V30 4635 H 438.962 0.477707 2.99919 0
M  V30 4636 H 436.547 0.299669 1.46364 0
M  V30 4637 H 438.429 -1.8445 3.78888 0
M  V30 4638 H 437.104 -1.93325 2.59629 0
M  V30 4639 H 436.011 0.082114 3.7401 0
M  V30 4640 H 437.344 0.0883526 4.92121 0
M  V30 4641 N 438.996 -1.55193 0.274407 0
M  V30 4642 C 439.959 -2.212 -0.600279 0
M  V30 4643 C 440.959 -1.18963 -1.08187 0
M  V30 4644 O 442.149 -1.43873 -0.982158 0
M  V30 4645 C 439.281 -2.87739 -1.82809 0
M  V30 4646 H 440.474 -2.9989 -0.0239682 0
M  V30 4647 H 438.027 -1.5628 0.0250192 0
M  V30 4648 H 438.762 -2.13058 -2.44493 0
M  V30 4649 H 438.547 -3.62658 -1.49069 0
M  V30 4650 H 440.037 -3.38171 -2.45011 0
M  V30 4651 N 440.474 -0.00167713 -1.576 0
M  V30 4652 C 441.699 0.69739 -1.95323 0
M  V30 4653 C 442.124 1.6642 -0.876706 0
M  V30 4654 O 441.482 1.80548 0.165007 0
M  V30 4655 C 441.53 1.40403 -3.32144 0
M  V30 4656 O 440.634 2.5185 -3.26566 0
M  V30 4657 H 439.975 0.185373 -0.637599 0
M  V30 4658 H 442.505 -0.0553665 -2.04525 0
M  V30 4659 H 442.515 1.76707 -3.67748 0
M  V30 4660 H 441.19 0.695167 -4.10049 0
M  V30 4661 H 439.767 2.17861 -3.0264 0
M  V30 4662 N 441.952 1.55251 0.271103 0
M  V30 4663 C 443.199 1.75946 1.00245 0
M  V30 4664 C 443.527 0.561611 1.86215 0
M  V30 4665 O 442.782 -0.455832 1.90317 0
M  V30 4666 C 443.081 3.01879 1.91321 0
M  V30 4667 C 442.747 4.34337 1.21086 0
M  V30 4668 C 441.409 4.70338 1.01666 0
M  V30 4669 C 443.761 5.16325 0.71119 0
M  V30 4670 C 441.089 5.8588 0.310099 0
M  V30 4671 C 443.441 6.32597 0.0182157 0
M  V30 4672 C 442.105 6.67236 -0.18768 0
M  V30 4673 H 441.375 0.643833 0.366824 0
M  V30 4674 H 444.022 1.89521 0.27458 0
M  V30 4675 H 442.327 2.83212 2.70736 0
M  V30 4676 H 444.024 3.15088 2.48033 0
M  V30 4677 H 440.614 4.06043 1.37213 0
M  V30 4678 H 444.798 4.88987 0.848844 0
M  V30 4679 H 440.054 6.1124 0.139873 0
M  V30 4680 H 444.228 6.9538 -0.376711 0
M  V30 4681 H 441.855 7.56618 -0.73715 0
M  V30 4682 N 443.43 -0.535701 1.48216 0
M  V30 4683 C 444.36 -1.65014 1.65204 0
M  V30 4684 C 445.341 -1.62554 0.501011 0
M  V30 4685 O 446.526 -1.7984 0.732886 0
M  V30 4686 C 443.656 -3.03616 1.68626 0
M  V30 4687 C 442.61 -3.20932 2.83172 0
M  V30 4688 C 441.936 -4.60537 2.71679 0
M  V30 4689 C 443.236 -3.04249 4.24535 0
M  V30 4690 H 444.93 -1.51053 2.58502 0
M  V30 4691 H 442.476 -0.725262 1.24402 0
M  V30 4692 H 444.429 -3.81446 1.79099 0
M  V30 4693 H 443.153 -3.18587 0.719026 0
M  V30 4694 H 441.812 -2.45517 2.72244 0
M  V30 4695 H 441.46 -4.72336 1.72937 0
M  V30 4696 H 441.16 -4.73069 3.48538 0
M  V30 4697 H 442.684 -5.40475 2.84112 0
M  V30 4698 H 444.098 -3.71877 4.36326 0
M  V30 4699 H 442.495 -3.28278 5.02348 0
M  V30 4700 H 443.565 -2.00739 4.41397 0
M  V30 4701 N 444.908 -1.36708 -0.784132 0
M  V30 4702 C 445.84 -1.27333 -1.90575 0
M  V30 4703 C 446.853 -0.191706 -1.61667 0
M  V30 4704 O 448.042 -0.446854 -1.72816 0
M  V30 4705 C 445.142 -0.943177 -3.25511 0
M  V30 4706 C 444.315 -2.12776 -3.82158 0
M  V30 4707 C 443.374 -1.76983 -4.95544 0
M  V30 4708 O 442.4 -2.49134 -5.11782 0
M  V30 4709 N 443.602 -0.706624 -5.76183 0
M  V30 4710 H 446.367 -2.23974 -1.99138 0
M  V30 4711 H 443.928 -1.30171 -0.962656 0
M  V30 4712 H 445.92 -0.684799 -3.98864 0
M  V30 4713 H 444.49 -0.0657333 -3.12531 0
M  V30 4714 H 443.71 -2.54863 -3.0073 0
M  V30 4715 H 444.998 -2.91904 -4.16737 0
M  V30 4716 H 444.396 -0.107643 -5.65598 0
M  V30 4717 H 442.953 -0.50808 -6.49817 0
M  V30 4718 N 446.386 1.0089 -1.21074 0
M  V30 4719 C 447.632 1.74866 -1.02712 0
M  V30 4720 C 447.965 1.89178 0.438787 0
M  V30 4721 O 447.24 1.42325 1.32567 0
M  V30 4722 C 447.523 3.16347 -1.72036 0
M  V30 4723 C 447.376 3.09782 -3.26121 0
M  V30 4724 C 448.695 4.15187 -1.45973 0
M  V30 4725 H 445.814 0.634736 -0.374539 0
M  V30 4726 H 448.456 1.17646 -1.49196 0
M  V30 4727 H 446.606 3.65201 -1.32517 0
M  V30 4728 H 448.278 2.68673 -3.74983 0
M  V30 4729 H 446.521 2.46982 -3.56626 0
M  V30 4730 H 447.192 4.09829 -3.6979 0
M  V30 4731 H 449.668 3.75022 -1.80272 0
M  V30 4732 H 448.544 5.12331 -1.96999 0
M  V30 4733 H 448.805 4.40386 -0.388924 0
M  V30 4734 N 447.864 1.01787 1.20321 0
M  V30 4735 C 448.814 0.559976 2.21016 0
M  V30 4736 C 449.798 -0.385366 1.56217 0
M  V30 4737 O 450.99 -0.208126 1.75772 0
M  V30 4738 C 448.119 -0.0990553 3.43157 0
M  V30 4739 C 447.205 0.86807 4.15121 0
M  V30 4740 N 447.596 2.0261 4.63447 0
M  V30 4741 C 445.894 0.689162 4.40643 0
M  V30 4742 C 446.595 2.63518 5.18588 0
M  V30 4743 N 445.571 1.91569 5.08726 0
M  V30 4744 H 449.373 1.44281 2.56048 0
M  V30 4745 H 446.887 0.883381 1.36272 0
M  V30 4746 H 448.884 -0.444643 4.14522 0
M  V30 4747 H 447.544 -0.977709 3.0963 0
M  V30 4748 H 448.555 2.40598 4.58621 0
M  V30 4749 H 445.232 -0.14133 4.17261 0
M  V30 4750 H 446.622 3.61527 5.66346 0
M  V30 4751 N 449.342 -1.36122 0.79427 0
M  V30 4752 C 450.619 -1.93398 0.292685 0
M  V30 4753 C 450.999 -1.72567 -1.21589 0
M  V30 4754 O 450.347 -1.08745 -2.00965 0
M  V30 4755 C 450.557 -3.42099 0.690614 0
M  V30 4756 C 451.905 -4.19231 0.673105 0
M  V30 4757 O 452.929 -3.50559 0.631389 0
M  V30 4758 O 451.788 -5.41732 0.720362 0
M  V30 4759 H 448.882 -0.823712 0.0736693 0
M  V30 4760 H 451.428 -1.45273 0.87714 0
M  V30 4761 H 450.2 -3.50938 1.73085 0
M  V30 4762 H 449.823 -3.97519 0.0803036 0
M  V30 4763 N 450.82 -0.546701 -1.47814 0
M  V30 4764 C 452.067 -0.0187407 -2.02491 0
M  V30 4765 C 452.395 1.32685 -1.42215 0
M  V30 4766 O 451.65 1.87413 -0.563454 0
M  V30 4767 C 451.949 0.134869 -3.57145 0
M  V30 4768 C 451.615 -1.13849 -4.3629 0
M  V30 4769 C 450.277 -1.48743 -4.57634 0
M  V30 4770 C 452.629 -1.98277 -4.82012 0
M  V30 4771 C 449.957 -2.67932 -5.21948 0
M  V30 4772 C 452.309 -3.16659 -5.4764 0
M  V30 4773 C 450.973 -3.51879 -5.67219 0
M  V30 4774 H 450.243 -0.0068577 -0.740968 0
M  V30 4775 H 452.89 -0.716097 -1.77607 0
M  V30 4776 H 451.195 0.915118 -3.80963 0
M  V30 4777 H 452.892 0.558556 -3.97091 0
M  V30 4778 H 449.482 -0.856767 -4.19949 0
M  V30 4779 H 453.666 -1.72628 -4.6531 0
M  V30 4780 H 448.922 -2.95401 -5.35302 0
M  V30 4781 H 453.096 -3.82374 -5.82033 0
M  V30 4782 H 450.723 -4.44331 -6.16825 0
M  V30 4783 N 452.299 1.55045 -0.282633 0
M  V30 4784 C 453.546 1.9976 0.33199 0
M  V30 4785 C 453.874 1.17105 1.55295 0
M  V30 4786 O 453.129 0.230599 1.94337 0
M  V30 4787 C 453.428 3.49422 0.750938 0
M  V30 4788 C 453.094 4.4941 -0.366228 0
M  V30 4789 C 451.756 4.76471 -0.672964 0
M  V30 4790 C 454.108 5.09054 -1.11864 0
M  V30 4791 C 451.436 5.60442 -1.73556 0
M  V30 4792 C 453.788 5.9418 -2.17102 0
M  V30 4793 C 452.452 6.19558 -2.48402 0
M  V30 4794 H 451.722 0.730974 0.121484 0
M  V30 4795 H 454.369 1.8732 -0.39791 0
M  V30 4796 H 452.674 3.59377 1.56063 0
M  V30 4797 H 454.371 3.81432 1.23736 0
M  V30 4798 H 450.961 4.2844 -0.117041 0
M  V30 4799 H 455.145 4.88165 -0.894925 0
M  V30 4800 H 450.401 5.78349 -1.983 0
M  V30 4801 H 454.575 6.39427 -2.75873 0
M  V30 4802 H 452.202 6.84417 -3.30874 0
M  V30 4803 N 453.777 0.010035 1.57597 0
M  V30 4804 C 454.709 -1.00649 2.05918 0
M  V30 4805 C 455.722 -1.30077 0.978964 0
M  V30 4806 O 456.911 -1.26878 1.25556 0
M  V30 4807 C 454.011 -2.33876 2.45265 0
M  V30 4808 C 453.184 -2.23242 3.7614 0
M  V30 4809 C 452.243 -3.39242 4.02245 0
M  V30 4810 O 451.269 -3.1698 4.72771 0
M  V30 4811 N 452.471 -4.6242 3.50924 0
M  V30 4812 H 455.236 -0.594333 2.93748 0
M  V30 4813 H 452.797 -0.17714 1.60928 0
M  V30 4814 H 454.789 -3.1027 2.59836 0
M  V30 4815 H 453.359 -2.66799 1.62902 0
M  V30 4816 H 452.579 -1.31696 3.71551 0
M  V30 4817 H 453.867 -2.13321 4.61922 0
M  V30 4818 H 453.265 -4.83404 2.93832 0
M  V30 4819 H 451.822 -5.36046 3.70807 0
M  V30 4820 N 455.255 -1.55392 -0.262866 0
M  V30 4821 C 456.187 -1.85392 -1.34768 0
M  V30 4822 C 457.2 -0.739069 -1.45057 0
M  V30 4823 O 458.389 -1.01703 -1.46693 0
M  V30 4824 C 455.489 -2.01088 -2.72795 0
M  V30 4825 C 454.662 -3.31828 -2.84972 0
M  V30 4826 C 453.721 -3.37464 -4.03738 0
M  V30 4827 O 452.747 -4.10778 -3.94018 0
M  V30 4828 N 453.949 -2.65599 -5.16176 0
M  V30 4829 H 456.714 -2.79029 -1.09375 0
M  V30 4830 H 454.275 -1.55434 -0.452981 0
M  V30 4831 H 456.267 -2.02217 -3.50557 0
M  V30 4832 H 454.837 -1.1427 -2.90966 0
M  V30 4833 H 454.057 -3.43152 -1.94012 0
M  V30 4834 H 455.345 -4.18032 -2.90045 0
M  V30 4835 H 454.743 -2.05736 -5.26962 0
M  V30 4836 H 453.3 -2.72439 -5.92132 0
M  V30 4837 N 456.733 0.527833 -1.48498 0
M  V30 4838 C 458.01 1.28905 -1.47115 0
M  V30 4839 C 458.39 2.10297 -0.184007 0
M  V30 4840 O 457.738 2.12728 0.834218 0
M  V30 4841 C 457.948 2.16866 -2.73441 0
M  V30 4842 C 459.296 2.76936 -3.21857 0
M  V30 4843 O 460.32 2.27152 -2.74373 0
M  V30 4844 O 459.179 3.67496 -4.04486 0
M  V30 4845 H 456.273 0.581918 -0.587623 0
M  V30 4846 H 458.819 0.544311 -1.60734 0
M  V30 4847 H 457.591 1.56521 -3.58632 0
M  V30 4848 H 457.214 2.98583 -2.62553 0
M  V30 4849 N 458.211 1.37122 0.776871 0
M  V30 4850 C 459.141 1.35164 1.90402 0
M  V30 4851 C 460.122 0.221069 1.68657 0
M  V30 4852 O 461.307 0.420642 1.8959 0
M  V30 4853 C 458.437 1.15274 3.27611 0
M  V30 4854 C 457.391 2.25289 3.63908 0
M  V30 4855 C 456.717 1.90527 4.99603 0
M  V30 4856 C 458.017 3.67446 3.71188 0
M  V30 4857 H 459.711 2.29482 1.92297 0
M  V30 4858 H 457.257 1.10465 0.923773 0
M  V30 4859 H 459.21 1.12536 4.06096 0
M  V30 4860 H 457.934 0.174102 3.26136 0
M  V30 4861 H 456.593 2.27174 2.87728 0
M  V30 4862 H 456.241 0.91206 4.94662 0
M  V30 4863 H 455.941 2.64193 5.24858 0
M  V30 4864 H 457.465 1.89367 5.80493 0
M  V30 4865 H 458.879 3.67719 4.39836 0
M  V30 4866 H 457.276 4.40123 4.07936 0
M  V30 4867 H 458.346 4.01443 2.71977 0
M  V30 4868 N 459.689 -1.00246 1.21608 0
M  V30 4869 C 460.636 -2.09073 0.977613 0
M  V30 4870 C 461.606 -1.65815 -0.097297 0
M  V30 4871 O 462.791 -1.90734 0.0503445 0
M  V30 4872 C 459.931 -3.40671 0.551133 0
M  V30 4873 C 459.044 -3.97326 1.69576 0
M  V30 4874 C 458.179 -5.17043 1.2182 0
M  V30 4875 C 457.218 -5.65813 2.335 0
M  V30 4876 N 456.355 -6.76778 1.86859 0
M  V30 4877 H 461.195 -2.28806 1.90924 0
M  V30 4878 H 458.732 -1.12186 0.951452 0
M  V30 4879 H 460.69 -4.16225 0.285097 0
M  V30 4880 H 459.32 -3.20967 -0.343489 0
M  V30 4881 H 458.372 -3.18734 2.07637 0
M  V30 4882 H 459.684 -4.29511 2.53617 0
M  V30 4883 H 458.838 -5.99852 0.908975 0
M  V30 4884 H 457.577 -4.86458 0.347869 0
M  V30 4885 H 456.582 -4.81599 2.65222 0
M  V30 4886 H 457.807 -5.98427 3.21033 0
M  V30 4887 H 455.753 -6.47994 1.02174 0
M  V30 4888 H 455.67 -7.08231 2.64471 0
M  V30 4889 H 456.938 -7.63116 1.58978 0
M  V30 4890 N 461.167 -1.02423 -1.1978 0
M  V30 4891 C 462.077 -0.610919 -2.26506 0
M  V30 4892 C 463.093 0.355152 -1.70337 0
M  V30 4893 O 464.269 0.214195 -2.00258 0
M  V30 4894 C 461.334 0.0365921 -3.46681 0
M  V30 4895 C 460.395 -0.976389 -4.18049 0
M  V30 4896 C 459.628 -0.359683 -5.32487 0
M  V30 4897 O 459.851 0.838601 -5.64202 0
M  V30 4898 O 458.785 -1.08022 -5.92127 0
M  V30 4899 H 462.611 -1.49965 -2.64091 0
M  V30 4900 H 460.196 -0.794156 -1.26545 0
M  V30 4901 H 462.078 0.39786 -4.19518 0
M  V30 4902 H 460.753 0.899398 -3.10954 0
M  V30 4903 H 459.66 -1.38916 -3.47352 0
M  V30 4904 H 460.993 -1.80941 -4.57735 0
M  V30 4905 N 462.645 1.35699 -0.801477 0
M  V30 4906 C 463.893 1.9852 -0.37871 0
M  V30 4907 C 464.214 1.63907 1.05638 0
M  V30 4908 O 463.484 0.919013 1.73006 0
M  V30 4909 H 462.064 0.734322 -0.137042 0
M  V30 4910 H 464.726 1.65697 -1.02619 0
M  V30 4911 H 463.822 3.08382 -0.480284 0
M  V30 4912 N 464.123 0.554532 1.47522 0
M  V30 4913 C 465.37 0.029479 2.02479 0
M  V30 4914 C 465.698 -1.31929 1.42916 0
M  V30 4915 O 464.953 -1.87112 0.573385 0
M  V30 4916 C 465.252 -0.115927 3.57212 0
M  V30 4917 C 464.918 1.16161 4.3568 0
M  V30 4918 C 463.58 1.51168 4.56839 0
M  V30 4919 C 465.932 2.0083 4.80954 0
M  V30 4920 C 463.26 2.70696 5.2052 0
M  V30 4921 C 465.612 3.19559 5.45953 0
M  V30 4922 C 464.276 3.54882 5.65345 0
M  V30 4923 H 463.546 0.0107871 0.740921 0
M  V30 4924 H 466.193 0.725506 1.77225 0
M  V30 4925 H 464.498 -0.894902 3.81443 0
M  V30 4926 H 466.195 -0.53749 3.97381 0
M  V30 4927 H 462.785 0.879026 4.19489 0
M  V30 4928 H 466.969 1.75093 4.64388 0
M  V30 4929 H 462.225 2.98236 5.33728 0
M  V30 4930 H 466.399 3.85456 5.79997 0
M  V30 4931 H 464.026 4.47596 6.1446 0
M  V30 4932 N 465.601 -1.54893 0.290851 0
M  V30 4933 C 466.551 -2.19838 -0.604599 0
M  V30 4934 C 467.535 -1.16805 -1.10659 0
M  V30 4935 O 468.727 -1.42562 -1.04905 0
M  V30 4936 C 465.856 -2.93497 -1.78086 0
M  V30 4937 C 464.942 -4.03835 -1.29531 0
M  V30 4938 N 465.333 -5.03047 -0.527024 0
M  V30 4939 C 463.631 -4.17192 -1.57693 0
M  V30 4940 C 464.332 -5.81074 -0.269728 0
M  V30 4941 N 463.308 -5.36966 -0.846651 0
M  V30 4942 H 467.11 -2.93898 -0.00995032 0
M  V30 4943 H 464.624 -1.62121 0.0951353 0
M  V30 4944 H 466.621 -3.38484 -2.43381 0
M  V30 4945 H 465.281 -2.2095 -2.37931 0
M  V30 4946 H 466.292 -5.17611 -0.172872 0
M  V30 4947 H 462.969 -3.55845 -2.18359 0
M  V30 4948 H 464.359 -6.71005 0.346643 0
M  V30 4949 N 467.08 -0.0183926 -1.57589 0
M  V30 4950 C 468.326 0.663543 -1.91638 0
M  V30 4951 C 468.659 1.72392 -0.894134 0
M  V30 4952 O 467.934 1.94316 0.0846449 0
M  V30 4953 C 468.217 1.28984 -3.36207 0
M  V30 4954 C 468.07 0.239761 -4.49161 0
M  V30 4955 C 469.389 2.2109 -3.80536 0
M  V30 4956 H 466.508 0.239746 -0.696915 0
M  V30 4957 H 469.15 -0.073456 -1.89858 0
M  V30 4958 H 467.3 1.91799 -3.37854 0
M  V30 4959 H 468.972 -0.390119 -4.59647 0
M  V30 4960 H 467.215 -0.435972 -4.31604 0
M  V30 4961 H 467.886 0.717383 -5.47319 0
M  V30 4962 H 470.362 1.68273 -3.80557 0
M  V30 4963 H 469.238 2.61869 -4.82406 0
M  V30 4964 H 469.499 3.09764 -3.15434 0
M  V30 4965 N 468.558 1.5553 0.254621 0
M  V30 4966 C 469.783 1.81383 1.00573 0
M  V30 4967 C 470.208 0.594419 1.78461 0
M  V30 4968 O 469.566 -0.456403 1.75461 0
M  V30 4969 C 469.614 3.04892 1.92545 0
M  V30 4970 O 468.718 2.81266 3.01601 0
M  V30 4971 H 468.059 0.598969 0.286587 0
M  V30 4972 H 470.589 2.02703 0.277952 0
M  V30 4973 H 470.599 3.34119 2.34155 0
M  V30 4974 H 469.274 3.93287 1.3527 0
M  V30 4975 H 467.851 2.63185 2.64174 0
M  V30 4976 N 470.036 -0.519951 1.48776 0
M  V30 4977 C 470.969 -1.64053 1.58625 0
M  V30 4978 C 471.947 -1.5664 0.43618 0
M  V30 4979 O 473.131 -1.76969 0.649159 0
M  V30 4980 C 470.258 -3.02497 1.52359 0
M  V30 4981 C 469.304 -3.28235 2.72331 0
M  V30 4982 S 470.137 -3.13414 4.34203 0
M  V30 4983 C 471.293 -4.54287 4.30551 0
M  V30 4984 H 471.526 -1.5545 2.53422 0
M  V30 4985 H 469.059 -0.703681 1.37433 0
M  V30 4986 H 471.017 -3.82336 1.4943 0
M  V30 4987 H 469.678 -3.08531 0.588824 0
M  V30 4988 H 468.871 -4.29256 2.64113 0
M  V30 4989 H 468.473 -2.56085 2.72574 0
M  V30 4990 H 470.765 -5.46006 4.01103 0
M  V30 4991 H 471.708 -4.67558 5.31785 0
M  V30 4992 H 472.116 -4.34079 3.60881 0
M  V30 4993 N 471.514 -1.37532 -0.769588 0
M  V30 4994 C 472.444 -1.36172 -1.89682 0
M  V30 4995 C 473.425 -0.23001 -1.68538 0
M  V30 4996 O 474.61 -0.43069 -1.89364 0
M  V30 4997 C 471.74 -1.1701 -3.26995 0
M  V30 4998 C 470.694 -2.27216 -3.62708 0
M  V30 4999 C 470.02 -1.93174 -4.98586 0
M  V30 5000 C 471.32 -3.6941 -3.69234 0
M  V30 5001 H 473.014 -2.30499 -1.91078 0
M  V30 5002 H 470.56 -1.10953 -0.917902 0
M  V30 5003 H 472.513 -1.14688 -4.05493 0
M  V30 5004 H 471.237 -0.191395 -3.26039 0
M  V30 5005 H 469.896 -2.28697 -2.86519 0
M  V30 5006 H 469.544 -0.938281 -4.94171 0
M  V30 5007 H 469.244 -2.66973 -5.23449 0
M  V30 5008 H 470.768 -1.92443 -5.79481 0
M  V30 5009 H 472.182 -3.70047 -4.37879 0
M  V30 5010 H 470.579 -4.4228 -4.05597 0
M  V30 5011 H 471.649 -4.0288 -2.69844 0
M  V30 5012 N 472.992 0.995999 -1.22138 0
M  V30 5013 C 473.94 2.10673 -0.985876 0
M  V30 5014 C 474.934 1.69255 0.0699553 0
M  V30 5015 O 476.14 1.79812 -0.0822176 0
M  V30 5016 H 472.515 0.688865 -0.30161 0
M  V30 5017 H 474.486 2.27711 -1.92848 0
M  V30 5018 C 473.235 3.42881 -0.576909 0
M  V30 5019 H 472.558 3.75191 -1.38101 0
M  V30 5020 H 473.998 4.21589 -0.451518 0
M  V30 5021 C 472.457 3.29265 0.713196 0
M  V30 5022 O 472.987 3.60777 1.76643 0
M  V30 5023 N 471.193 2.82456 0.683162 0
M  V30 5024 H 470.74 2.5701 -0.174242 0
M  V30 5025 H 470.698 2.73727 1.54663 0
M  V30 5026 N 474.47 1.03057 1.19235 0
M  V30 5027 C 475.886 0.747947 1.40989 0
M  V30 5028 C 476.086 -0.666752 1.90149 0
M  V30 5029 O 475.142 -1.43249 2.07933 0
M  V30 5030 C 476.455 1.7855 2.41951 0
M  V30 5031 C 478.003 1.80524 2.55695 0
M  V30 5032 C 478.478 2.83243 3.59913 0
M  V30 5033 N 479.969 2.8207 3.67411 0
M  V30 5034 C 480.704 3.58204 4.47747 0
M  V30 5035 N 480.2 4.44057 5.31775 0
M  V30 5036 N 481.993 3.46738 4.42413 0
M  V30 5037 H 474.144 1.94367 0.856468 0
M  V30 5038 H 476.407 0.840412 0.438647 0
M  V30 5039 H 476.113 2.79973 2.12857 0
M  V30 5040 H 475.987 1.6092 3.41152 0
M  V30 5041 H 478.374 0.79778 2.84112 0
M  V30 5042 H 478.455 2.02229 1.56643 0
M  V30 5043 H 478.099 3.84161 3.32239 0
M  V30 5044 H 478.029 2.58795 4.5862 0
M  V30 5045 H 480.52 2.19803 3.074 0
M  V30 5046 H 480.833 4.98884 5.90199 0
M  V30 5047 H 479.178 4.48129 5.3123 0
M  V30 5048 H 482.369 2.79077 3.75811 0
M  V30 5049 H 482.542 4.06322 5.04783 0
M  V30 5050 N 475.948 -1.35272 0.808662 0
M  V30 5051 C 477.364 -1.51806 0.492653 0
M  V30 5052 C 477.564 -1.7574 -0.985778 0
M  V30 5053 O 476.62 -1.80003 -1.77074 0
M  V30 5054 C 477.933 -2.69202 1.33981 0
M  V30 5055 C 479.481 -2.8308 1.33547 0
M  V30 5056 C 479.956 -4.03502 2.16679 0
M  V30 5057 N 481.447 -4.10684 2.14227 0
M  V30 5058 C 482.182 -5.02984 2.75308 0
M  V30 5059 N 481.678 -6.00603 3.45323 0
M  V30 5060 N 483.471 -4.95746 2.64938 0
M  V30 5061 H 475.622 -1.17993 1.76611 0
M  V30 5062 H 477.885 -0.577476 0.751814 0
M  V30 5063 H 477.591 -2.581 2.38909 0
M  V30 5064 H 477.465 -3.63854 0.994491 0
M  V30 5065 H 479.852 -2.93631 0.294036 0
M  V30 5066 H 479.933 -1.89278 1.72068 0
M  V30 5067 H 479.577 -3.93711 3.20864 0
M  V30 5068 H 479.507 -4.96489 1.75517 0
M  V30 5069 H 481.998 -3.40802 1.63285 0
M  V30 5070 H 482.311 -6.67633 3.89212 0
M  V30 5071 H 480.656 -6.0077 3.49428 0
M  V30 5072 H 483.847 -4.18439 2.09825 0
M  V30 5073 H 484.02 -5.67487 3.12829 0
M  V30 5074 N 477.426 -0.562348 -1.47226 0
M  V30 5075 C 478.654 -0.0452275 -2.06851 0
M  V30 5076 C 479.069 1.25078 -1.41424 0
M  V30 5077 O 478.426 1.75156 -0.512513 0
M  V30 5078 C 478.477 0.148674 -3.61194 0
M  V30 5079 O 478.198 -1.09602 -4.24169 0
M  V30 5080 C 479.699 0.702488 -4.37699 0
M  V30 5081 H 476.919 -0.0481775 -0.669268 0
M  V30 5082 H 479.463 -0.777223 -1.89155 0
M  V30 5083 H 477.618 0.830817 -3.78386 0
M  V30 5084 H 478.032 -0.896982 -5.16773 0
M  V30 5085 H 479.506 0.78743 -5.46355 0
M  V30 5086 H 479.983 1.71493 -4.04335 0
M  V30 5087 H 480.589 0.0558772 -4.25263 0
M  V30 5088 N 478.904 1.54736 -0.299062 0
M  V30 5089 C 480.132 2.04512 0.313447 0
M  V30 5090 C 480.547 1.17643 1.47667 0
M  V30 5091 O 479.904 0.20164 1.81383 0
M  V30 5092 C 479.955 3.53171 0.771542 0
M  V30 5093 O 479.676 4.36736 -0.345379 0
M  V30 5094 C 481.177 4.18936 1.4494 0
M  V30 5095 H 478.397 0.667507 0.0683784 0
M  V30 5096 H 480.941 1.99752 -0.438129 0
M  V30 5097 H 479.096 3.58298 1.47314 0
M  V30 5098 H 479.51 5.24499 0.0109219 0
M  V30 5099 H 480.984 5.24482 1.72111 0
M  V30 5100 H 481.461 3.68554 2.38883 0
M  V30 5101 H 482.067 4.17879 0.791028 0
M  V30 5102 N 480.382 0.0267497 1.57577 0
M  V30 5103 C 481.793 -0.512413 1.79531 0
M  V30 5104 C 482.144 -1.72391 0.936791 0
M  V30 5105 O 481.269 -2.15903 0.146543 0
M  V30 5106 C 481.864 -0.936378 3.25603 0
M  V30 5107 C 480.423 -1.42067 3.4856 0
M  V30 5108 C 479.57 -0.384278 2.74624 0
M  V30 5109 H 482.521 0.252797 1.56674 0
M  V30 5110 H 482.542 -1.80088 3.35184 0
M  V30 5111 H 482.054 -0.0544332 3.88062 0
M  V30 5112 H 480.155 -2.32262 2.9135 0
M  V30 5113 H 480.268 -1.42968 4.57271 0
M  V30 5114 H 478.632 -0.851855 2.40032 0
M  V30 5115 H 479.415 0.489159 3.39797 0
M  V30 5116 N 481.861 -1.55662 -0.24637 0
M  V30 5117 C 483.107 -1.77782 -0.975779 0
M  V30 5118 C 483.44 -0.592103 -1.84953 0
M  V30 5119 O 482.715 0.409588 -1.90138 0
M  V30 5120 C 482.998 -3.09788 -1.83584 0
M  V30 5121 C 482.851 -4.38764 -0.990241 0
M  V30 5122 C 484.17 -3.38029 -2.81823 0
M  V30 5123 H 481.289 -0.646789 -0.353317 0
M  V30 5124 H 483.931 -1.88398 -0.246248 0
M  V30 5125 H 482.081 -3.00869 -2.45784 0
M  V30 5126 H 483.753 -4.59675 -0.386897 0
M  V30 5127 H 481.996 -4.32798 -0.294626 0
M  V30 5128 H 482.667 -5.27514 -1.62584 0
M  V30 5129 H 485.143 -3.46915 -2.2976 0
M  V30 5130 H 484.019 -4.3161 -3.39122 0
M  V30 5131 H 484.28 -2.58968 -3.58313 0
M  V30 5132 O 483.378 0.392 -1.5667 0
M  V30 5133 H 484.069 1.04392 -1.63163 0
M  V30 END ATOM
M  V30 BEGIN BOND
M  V30 END BOND
M  V30 END CTAB
M  END
$$$$
