drugbank_target|P38545 GTP-binding nuclear protein Ran (DB11638)
 OpenBabel12092121123D

  0  0  0     0  0            999 V3000
M  V30 BEGIN CTAB
M  V30 COUNTS 3500 3539 0 0 0
M  V30 BEGIN ATOM
M  V30 1 H -0.908 1.98254 -0.117106 0
M  V30 2 N 0 1.576 0 0
M  V30 3 C 0.933 2.03868 1.02534 0
M  V30 4 C 1.911 0.928543 1.3348 0
M  V30 5 O 3.095 1.19667 1.45644 0
M  V30 6 C 0.222 2.43627 2.35294 0
M  V30 7 C -0.732 3.65373 2.2001 0
M  V30 8 S 0.101 5.13292 1.52614 0
M  V30 9 C 1.257 5.56322 2.86805 0
M  V30 10 H 1.49 2.90518 0.631377 0
M  V30 11 H -0.977 1.52953 0.210867 0
M  V30 12 H 0.981 2.67203 3.11629 0
M  V30 13 H -0.358 1.57376 2.7183 0
M  V30 14 H -1.165 3.90944 3.18086 0
M  V30 15 H -1.563 3.418 1.51819 0
M  V30 16 H 0.729 5.58782 3.83104 0
M  V30 17 H 1.672 6.56266 2.65933 0
M  V30 18 H 2.08 4.83886 2.90714 0
M  V30 19 N 1.4781 -0.272755 1.55222 0
M  V30 20 C 2.7551 -1.02562 1.66555 0
M  V30 21 C 3.1351 -2.04282 0.532189 0
M  V30 22 O 2.4831 -2.23662 -0.467717 0
M  V30 23 C 2.6931 -1.6822 3.05782 0
M  V30 24 C 4.0411 -2.19373 3.63539 0
M  V30 25 O 5.0651 -1.78206 3.08417 0
M  V30 26 O 3.9241 -2.94883 4.60115 0
M  V30 27 H 1.0181 -0.475755 0.676451 0
M  V30 28 H 3.5641 -0.268593 1.67561 0
M  V30 29 H 2.3361 -0.945112 3.79715 0
M  V30 30 H 1.9591 -2.50609 3.08676 0
M  V30 31 N 2.9562 -1.48159 -0.537278 0
M  V30 32 C 4.1812 -1.59707 -1.32319 0
M  V30 33 C 4.6062 -0.254859 -1.86365 0
M  V30 34 O 3.9642 0.772378 -1.64024 0
M  V30 35 C 4.0122 -2.6412 -2.45505 0
M  V30 36 O 3.1162 -2.20774 -3.48328 0
M  V30 37 H 2.4572 -0.535791 -0.392204 0
M  V30 38 H 4.9872 -1.94092 -0.647268 0
M  V30 39 H 4.9972 -2.85166 -2.91795 0
M  V30 40 H 3.6722 -3.61567 -2.05528 0
M  V30 41 H 2.2492 -2.09911 -3.08207 0
M  V30 42 N 4.4343 0.785586 -1.36625 0
M  V30 43 C 5.3663 1.90711 -1.2713 0
M  V30 44 C 6.3793 1.61688 -0.189986 0
M  V30 45 O 7.5683 1.72864 -0.445014 0
M  V30 46 C 4.6683 3.25611 -0.939713 0
M  V30 47 C 3.8413 3.82385 -2.12369 0
M  V30 48 C 2.9003 4.95732 -1.76456 0
M  V30 49 O 1.9263 5.12047 -2.48589 0
M  V30 50 N 3.1283 5.76258 -0.700492 0
M  V30 51 H 5.8933 1.99376 -2.23762 0
M  V30 52 H 3.4543 0.964041 -1.30069 0
M  V30 53 H 5.4463 3.98937 -0.680554 0
M  V30 54 H 4.0163 3.12538 -0.0624074 0
M  V30 55 H 3.2363 3.01001 -2.54543 0
M  V30 56 H 4.5243 4.17047 -2.9146 0
M  V30 57 H 3.9223 5.65609 -0.101624 0
M  V30 58 H 2.4793 6.4987 -0.501165 0
M  V30 59 N 5.9124 1.20967 1.01018 0
M  V30 60 C 6.8224 0.980157 2.13143 0
M  V30 61 C 7.8384 -0.0660665 1.73875 0
M  V30 62 O 9.0144 0.122821 2.01025 0
M  V30 63 C 6.0794 0.54216 3.42435 0
M  V30 64 C 5.1404 1.65999 3.95908 0
M  V30 65 C 4.3734 1.2428 5.19028 0
M  V30 66 O 4.5964 0.114196 5.70286 0
M  V30 67 O 3.5304 2.05271 5.65816 0
M  V30 68 H 7.3564 1.91913 2.35379 0
M  V30 69 H 4.9414 0.994099 1.11526 0
M  V30 70 H 6.8234 0.30744 4.20277 0
M  V30 71 H 5.4984 -0.36815 3.216 0
M  V30 72 H 4.4054 1.94906 3.19316 0
M  V30 73 H 5.7384 2.54753 4.21143 0
M  V30 74 N 7.3905 -1.2043 1.01659 0
M  V30 75 C 8.6205 -1.93496 0.724081 0
M  V30 76 C 9.0285 -1.74998 -0.71918 0
M  V30 77 O 8.3715 -1.06118 -1.49949 0
M  V30 78 C 8.4335 -3.45886 0.97994 0
M  V30 79 C 8.0975 -3.88145 2.41232 0
M  V30 80 C 9.0945 -3.93907 3.39313 0
M  V30 81 C 6.7795 -4.20134 2.75305 0
M  V30 82 C 8.7735 -4.31069 4.6953 0
M  V30 83 C 6.4605 -4.56971 4.05735 0
M  V30 84 C 7.4585 -4.62411 5.02658 0
M  V30 85 O 7.1465 -4.98403 6.30754 0
M  V30 86 H 6.8785 -0.621824 0.265162 0
M  V30 87 H 9.4325 -1.53867 1.36066 0
M  V30 88 H 7.6625 -3.85639 0.286198 0
M  V30 89 H 9.3515 -4.0018 0.679021 0
M  V30 90 H 10.1175 -3.69357 3.14325 0
M  V30 91 H 5.9965 -4.1509 2.00551 0
M  V30 92 H 9.5405 -4.3523 5.45179 0
M  V30 93 H 5.4375 -4.80977 4.30502 0
M  V30 94 H 6.2055 -5.16395 6.35042 0
M  V30 95 N 8.8686 -0.792821 -1.36206 0
M  V30 96 C 10.1176 -0.363353 -1.984 0
M  V30 97 C 10.4306 1.07172 -1.63626 0
M  V30 98 O 11.6366 1.60362 -2.19081 0
M  V30 99 C 10.0926 -0.59872 -3.54885 0
M  V30 100 C 9.7006 -2.04543 -3.9858 0
M  V30 101 C 11.4446 -0.233926 -4.23855 0
M  V30 102 C 9.3516 -2.22727 -5.47856 0
M  V30 103 H 8.2816 -0.13212 -0.742334 0
M  V30 104 H 10.9326 -0.974935 -1.55458 0
M  V30 105 H 9.3146 0.0826222 -3.95914 0
M  V30 106 H 10.4886 -2.76345 -3.68741 0
M  V30 107 H 8.8036 -2.36879 -3.42458 0
M  V30 108 H 11.4006 -0.348027 -5.33566 0
M  V30 109 H 11.7436 0.818351 -4.08177 0
M  V30 110 H 12.2766 -0.868639 -3.882 0
M  V30 111 H 9.0156 -3.2635 -5.68486 0
M  V30 112 H 8.5356 -1.55434 -5.7931 0
M  V30 113 H 10.2146 -2.03607 -6.14128 0
M  V30 114 N 10.3467 1.47872 -0.545128 0
M  V30 115 C 11.7577 1.86384 -0.108581 0
M  V30 116 C 12.1087 1.45309 1.31832 0
M  V30 117 O 11.2337 0.850641 1.9898 0
M  V30 118 C 11.8287 3.38265 -0.190274 0
M  V30 119 C 10.3877 3.75914 0.191164 0
M  V30 120 C 9.5347 2.71926 -0.543273 0
M  V30 121 H 12.4857 1.39561 -0.755537 0
M  V30 122 H 12.5067 3.75831 0.594217 0
M  V30 123 H 12.0187 3.6813 -1.2289 0
M  V30 124 H 10.1197 3.51665 1.23136 0
M  V30 125 H 10.2327 4.78836 -0.158987 0
M  V30 126 H 8.5967 2.54697 0.0122495 0
M  V30 127 H 9.3797 3.04634 -1.58282 0
M  V30 128 N 11.8248 0.280983 1.55075 0
M  V30 129 C 12.7568 -0.637268 2.20163 0
M  V30 130 C 13.7698 -1.11298 1.18813 0
M  V30 131 O 14.9588 -1.03388 1.4551 0
M  V30 132 C 12.0588 -1.88199 2.81841 0
M  V30 133 C 11.2318 -1.55211 4.08936 0
M  V30 134 C 10.2908 -2.64991 4.54606 0
M  V30 135 O 9.3168 -2.30929 5.2025 0
M  V30 136 N 10.5188 -3.95161 4.25238 0
M  V30 137 H 13.2838 -0.0801694 2.99593 0
M  V30 138 H 10.8448 0.102329 1.61576 0
M  V30 139 H 12.8368 -2.60948 3.09335 0
M  V30 140 H 11.4068 -2.34799 2.06369 0
M  V30 141 H 10.6268 -0.658185 3.88666 0
M  V30 142 H 11.9148 -1.30681 4.91732 0
M  V30 143 H 11.3128 -4.25653 3.72607 0
M  V30 144 H 9.8698 -4.6427 4.5749 0
M  V30 145 N 13.3029 -1.57598 0.00835791 0
M  V30 146 C 14.5329 -1.94931 -0.684496 0
M  V30 147 C 14.9409 -0.882233 -1.67372 0
M  V30 148 O 14.2839 0.146621 -1.83114 0
M  V30 149 C 14.3459 -3.283 -1.4649 0
M  V30 150 C 14.0099 -4.52548 -0.63634 0
M  V30 151 C 15.0069 -5.19839 0.0795586 0
M  V30 152 C 12.6919 -4.98942 -0.579849 0
M  V30 153 C 14.6859 -6.3183 0.840843 0
M  V30 154 C 12.3729 -6.10819 0.185155 0
M  V30 155 C 13.3709 -6.77121 0.894227 0
M  V30 156 O 13.0589 -7.86853 1.64673 0
M  V30 157 H 12.7909 -0.647249 -0.19505 0
M  V30 158 H 15.3449 -2.05318 0.0581272 0
M  V30 159 H 13.5749 -3.14345 -2.2522 0
M  V30 160 H 15.2639 -3.50685 -2.04389 0
M  V30 161 H 16.0299 -4.84979 0.0451202 0
M  V30 162 H 11.9089 -4.47155 -1.1213 0
M  V30 163 H 15.4529 -6.83513 1.39483 0
M  V30 164 H 11.3499 -6.4512 0.221384 0
M  V30 165 H 12.1179 -8.03412 1.56432 0
M  V30 166 N 14.781 0.264519 -1.55364 0
M  V30 167 C 15.728 1.32717 -1.88825 0
M  V30 168 C 16.698 1.48675 -0.740605 0
M  V30 169 O 17.883 1.62945 -0.992657 0
M  V30 170 C 15.023 2.68089 -2.17307 0
M  V30 171 C 14.136 2.60284 -3.44785 0
M  V30 172 C 13.271 3.87892 -3.62924 0
M  V30 173 C 12.31 3.74631 -4.84064 0
M  V30 174 N 11.447 4.94092 -4.98816 0
M  V30 175 H 16.287 1.03481 -2.79456 0
M  V30 176 H 13.824 0.499757 -1.3835 0
M  V30 177 H 15.782 3.46864 -2.31821 0
M  V30 178 H 14.412 2.95509 -1.299 0
M  V30 179 H 13.464 1.73173 -3.38697 0
M  V30 180 H 14.776 2.46388 -4.33698 0
M  V30 181 H 13.93 4.75109 -3.77302 0
M  V30 182 H 12.669 4.04664 -2.7221 0
M  V30 183 H 11.674 2.85797 -4.69681 0
M  V30 184 H 12.899 3.5937 -5.76221 0
M  V30 185 H 10.845 5.11259 -4.11036 0
M  V30 186 H 10.762 4.8276 -5.81789 0
M  V30 187 H 12.03 5.82857 -5.17588 0
M  V30 188 N 16.2591 1.48442 0.529413 0
M  V30 189 C 17.1891 1.65902 1.64313 0
M  V30 190 C 18.1701 0.507897 1.6234 0
M  V30 191 O 19.3551 0.740503 1.79528 0
M  V30 192 C 16.4851 1.69911 3.02898 0
M  V30 193 C 15.4391 2.8453 3.19729 0
M  V30 194 C 14.7651 2.73629 4.59381 0
M  V30 195 C 16.0651 4.25821 3.02447 0
M  V30 196 H 17.7591 2.5914 1.49955 0
M  V30 197 H 15.3051 1.24709 0.719982 0
M  V30 198 H 17.2581 1.80715 3.80684 0
M  V30 199 H 15.9821 0.732524 3.18279 0
M  V30 200 H 14.6411 2.73283 2.44361 0
M  V30 201 H 14.2891 1.74938 4.71599 0
M  V30 202 H 13.9891 3.50541 4.71588 0
M  V30 203 H 15.5131 2.86401 5.39265 0
M  V30 204 H 16.9271 4.37898 3.70024 0
M  V30 205 H 15.3241 5.03735 3.26146 0
M  V30 206 H 16.3941 4.42244 1.98867 0
M  V30 207 N 17.7372 -0.778329 1.37039 0
M  V30 208 C 18.9862 -1.53189 1.3121 0
M  V30 209 C 19.2992 -1.95328 -0.103095 0
M  V30 210 O 20.5052 -2.70012 -0.283826 0
M  V30 211 C 18.9612 -2.76591 2.30272 0
M  V30 212 C 18.5692 -2.41577 3.77286 0
M  V30 213 C 20.3132 -3.5455 2.33441 0
M  V30 214 C 18.2202 -3.61441 4.68096 0
M  V30 215 H 17.1502 -0.5751 0.487622 0
M  V30 216 H 19.8012 -0.853101 1.62464 0
M  V30 217 H 18.1832 -3.46326 1.92027 0
M  V30 218 H 19.3572 -1.79668 4.2433 0
M  V30 219 H 17.6722 -1.76806 3.76999 0
M  V30 220 H 20.2692 -4.43628 2.98493 0
M  V30 221 H 20.6122 -3.93936 1.34611 0
M  V30 222 H 21.1452 -2.91805 2.7036 0
M  V30 223 H 17.8842 -3.27142 5.6803 0
M  V30 224 H 17.4042 -4.22478 4.25761 0
M  V30 225 H 19.0832 -4.28335 4.8491 0
M  V30 226 N 19.2153 -1.21501 -1.00376 0
M  V30 227 C 20.1453 -0.999478 -2.11028 0
M  V30 228 C 21.1263 0.0759671 -1.6993 0
M  V30 229 O 22.3113 -0.0841106 -1.94018 0
M  V30 230 C 19.4413 -0.564709 -3.42678 0
M  V30 231 C 18.3953 -1.58486 -3.97576 0
M  V30 232 C 17.7213 -1.00628 -5.25146 0
M  V30 233 C 19.0213 -2.97204 -4.29496 0
M  V30 234 H 20.7153 -1.92495 -2.29317 0
M  V30 235 H 18.2613 -0.92693 -1.102 0
M  V30 236 H 20.2143 -0.401091 -4.19487 0
M  V30 237 H 18.9383 0.396411 -3.24185 0
M  V30 238 H 17.5973 -1.73606 -3.22888 0
M  V30 239 H 17.2453 -0.0368439 -5.02987 0
M  V30 240 H 16.9453 -1.68771 -5.62841 0
M  V30 241 H 18.4693 -0.854015 -6.04598 0
M  V30 242 H 19.8833 -2.8552 -4.97143 0
M  V30 243 H 18.2803 -3.62372 -4.78338 0
M  V30 244 H 19.3503 -3.47956 -3.3772 0
M  V30 245 N 20.6934 1.19889 -1.02296 0
M  V30 246 C 21.9394 1.89701 -0.717033 0
M  V30 247 C 22.2724 1.7905 0.751989 0
M  V30 248 O 21.5474 1.17891 1.547 0
M  V30 249 C 21.8304 3.40858 -1.16136 0
M  V30 250 C 21.6834 3.60411 -2.69117 0
M  V30 251 C 23.0024 4.33876 -0.737549 0
M  V30 252 H 20.1214 0.688874 -0.261957 0
M  V30 253 H 22.7634 1.41154 -1.27183 0
M  V30 254 H 20.9134 3.82335 -0.689342 0
M  V30 255 H 22.5854 3.28145 -3.2422 0
M  V30 256 H 20.8284 3.03665 -3.0979 0
M  V30 257 H 21.4994 4.66396 -2.95261 0
M  V30 258 H 23.9754 4.00081 -1.14344 0
M  V30 259 H 22.8514 5.38242 -1.0764 0
M  V30 260 H 23.1124 4.40628 0.360436 0
M  V30 261 N 22.1715 0.800033 1.35784 0
M  V30 262 C 23.4195 0.376597 1.9856 0
M  V30 263 C 23.7405 -1.05812 1.63795 0
M  V30 264 O 23.0105 -1.73103 0.917171 0
M  V30 265 H 21.5905 0.136261 0.734467 0
M  V30 266 H 24.2525 1.02442 1.65806 0
M  V30 267 H 23.3485 0.477002 3.08433 0
M  V30 268 N 23.6496 -1.47581 0.552962 0
M  V30 269 C 24.9266 -1.95563 -0.0381515 0
M  V30 270 C 25.3066 -1.49552 -1.48988 0
M  V30 271 O 24.6546 -0.732414 -2.16444 0
M  V30 272 C 24.8646 -3.48848 0.102919 0
M  V30 273 C 26.2126 -4.24577 -0.0446082 0
M  V30 274 O 27.2366 -3.56187 0.0302548 0
M  V30 275 O 26.0956 -5.46116 -0.204923 0
M  V30 276 H 23.1896 -0.824321 -0.0665067 0
M  V30 277 H 25.7356 -1.58001 0.619186 0
M  V30 278 H 24.5076 -3.75129 1.11328 0
M  V30 279 H 24.1306 -3.93165 -0.592224 0
M  V30 280 N 25.1277 -0.289203 -1.54924 0
M  V30 281 C 26.3757 0.322879 -1.99504 0
M  V30 282 C 26.6967 1.55313 -1.1791 0
M  V30 283 O 25.9667 1.94001 -0.272097 0
M  V30 284 H 24.5467 0.122291 -0.736922 0
M  V30 285 H 27.2087 -0.397802 -1.90797 0
M  V30 286 H 26.3047 0.603061 -3.06218 0
M  V30 287 N 26.6058 1.57591 -0.0167156 0
M  V30 288 C 27.8538 1.90906 0.663285 0
M  V30 289 C 28.1748 0.892509 1.73376 0
M  V30 290 O 27.4448 -0.0677623 1.95783 0
M  V30 291 H 26.0248 0.704637 0.247983 0
M  V30 292 H 28.6868 1.94803 -0.0615909 0
M  V30 293 H 27.7828 2.9116 1.12393 0
M  V30 294 N 28.0839 -0.256276 1.55502 0
M  V30 295 C 29.3299 -0.987079 1.77157 0
M  V30 296 C 29.6629 -1.85327 0.580315 0
M  V30 297 O 28.9379 -1.89874 -0.421686 0
M  V30 298 C 29.2209 -1.85553 3.08613 0
M  V30 299 C 29.0739 -1.01816 4.38125 0
M  V30 300 C 30.3929 -2.8397 3.36228 0
M  V30 301 H 27.5119 -0.357428 0.644526 0
M  V30 302 H 30.1539 -0.258239 1.88237 0
M  V30 303 H 28.3039 -2.47695 2.99298 0
M  V30 304 H 29.9759 -0.416159 4.59419 0
M  V30 305 H 28.2189 -0.322178 4.32602 0
M  V30 306 H 28.8899 -1.65939 5.26468 0
M  V30 307 H 31.3659 -2.31964 3.45445 0
M  V30 308 H 30.2419 -3.41864 4.29442 0
M  V30 309 H 30.5029 -3.59955 2.56681 0
M  V30 310 N 29.562 -1.4872 -0.521534 0
M  V30 311 C 30.81 -1.56857 -1.27437 0
M  V30 312 C 31.131 -0.247982 -1.93417 0
M  V30 313 O 30.401 0.731151 -1.81744 0
M  V30 314 H 28.981 -0.577885 -0.473347 0
M  V30 315 H 31.643 -1.85233 -0.606205 0
M  V30 316 H 30.739 -2.35402 -2.0492 0
M  V30 317 N 31.0401 0.771051 -1.3745 0
M  V30 318 C 31.9871 1.88435 -1.3327 0
M  V30 319 C 32.9571 1.64914 -0.198136 0
M  V30 320 O 34.1421 1.86821 -0.387606 0
M  V30 321 C 31.2821 3.25509 -1.14622 0
M  V30 322 C 30.3951 3.60979 -2.37314 0
M  V30 323 C 29.5301 4.87265 -2.11533 0
M  V30 324 C 28.5691 5.15469 -3.30088 0
M  V30 325 N 27.7061 6.32944 -3.03853 0
M  V30 326 H 32.5461 1.91344 -2.28455 0
M  V30 327 H 30.0831 0.935466 -1.13523 0
M  V30 328 H 32.0411 4.04582 -1.01831 0
M  V30 329 H 30.6711 3.21974 -0.230837 0
M  V30 330 H 29.7231 2.76885 -2.60842 0
M  V30 331 H 31.0351 3.77759 -3.25729 0
M  V30 332 H 30.1891 5.74244 -1.95777 0
M  V30 333 H 28.9281 4.7259 -1.20457 0
M  V30 334 H 27.9331 4.26966 -3.46382 0
M  V30 335 H 29.1581 5.32052 -4.22016 0
M  V30 336 H 27.1041 6.19625 -2.15407 0
M  V30 337 H 27.0211 6.50143 -3.85812 0
M  V30 338 H 28.2891 7.22857 -2.91716 0
M  V30 339 N 32.5182 1.22032 0.997298 0
M  V30 340 C 33.7462 1.06841 1.7718 0
M  V30 341 C 34.1612 -0.381325 1.84909 0
M  V30 342 O 33.5182 -1.26437 1.31605 0
M  V30 343 C 33.5692 1.66814 3.20711 0
M  V30 344 O 33.2902 3.06116 3.13408 0
M  V30 345 C 34.7912 1.56838 4.14628 0
M  V30 346 H 32.0112 0.374782 0.556578 0
M  V30 347 H 34.5552 1.61532 1.2541 0
M  V30 348 H 32.7102 1.16196 3.69564 0
M  V30 349 H 33.1242 3.34926 4.0364 0
M  V30 350 H 34.5982 2.03532 5.13107 0
M  V30 351 H 35.0752 0.524155 4.36061 0
M  V30 352 H 35.6812 2.06741 3.7167 0
M  V30 353 N 33.9963 -1.19345 1.0293 0
M  V30 354 C 35.2243 -1.92997 0.745644 0
M  V30 355 C 35.6393 -1.75519 -0.695589 0
M  V30 356 O 34.9963 -1.07737 -1.47306 0
M  V30 357 C 35.0473 -3.44741 1.08792 0
M  V30 358 O 34.7683 -3.61658 2.47256 0
M  V30 359 C 36.2693 -4.35515 0.827129 0
M  V30 360 H 33.4893 -0.613042 0.272801 0
M  V30 361 H 36.0333 -1.51473 1.3739 0
M  V30 362 H 34.1883 -3.84097 0.504832 0
M  V30 363 H 34.6023 -4.55514 2.60015 0
M  V30 364 H 36.0763 -5.40589 1.11658 0
M  V30 365 H 36.5533 -4.38552 -0.238436 0
M  V30 366 H 37.1593 -4.01841 1.39297 0
M  V30 367 N 35.4744 -0.807222 -1.35358 0
M  V30 368 C 36.7214 -0.387888 -1.9875 0
M  V30 369 C 37.0494 1.04509 -1.64037 0
M  V30 370 O 36.3044 1.73986 -0.895946 0
M  V30 371 C 36.6034 -0.519036 -3.53611 0
M  V30 372 C 36.2694 -1.91542 -4.08194 0
M  V30 373 C 34.9314 -2.29745 -4.22813 0
M  V30 374 C 37.2834 -2.82896 -4.37744 0
M  V30 375 C 34.6114 -3.58668 -4.643 0
M  V30 376 C 36.9634 -4.11265 -4.8067 0
M  V30 377 C 35.6274 -4.49466 -4.93494 0
M  V30 378 H 34.8974 -0.141938 -0.727279 0
M  V30 379 H 37.5444 -1.02814 -1.6156 0
M  V30 380 H 35.8494 0.204658 -3.91265 0
M  V30 381 H 37.5464 -0.175345 -4.00616 0
M  V30 382 H 34.1364 -1.60862 -3.97268 0
M  V30 383 H 38.3204 -2.54629 -4.26002 0
M  V30 384 H 33.5764 -3.88113 -4.72418 0
M  V30 385 H 37.7504 -4.82153 -5.02496 0
M  V30 386 H 35.3774 -5.49418 -5.25399 0
M  V30 387 N 36.9525 1.47285 -0.560781 0
M  V30 388 C 38.1985 2.02764 -0.0381184 0
M  V30 389 C 38.5315 1.43384 1.30976 0
M  V30 390 O 37.8065 0.590733 1.85312 0
M  V30 391 C 38.0895 3.60064 0.0511427 0
M  V30 392 C 37.9425 4.2987 -1.32408 0
M  V30 393 C 39.2615 4.33439 0.762795 0
M  V30 394 H 36.3805 0.736841 -0.0153264 0
M  V30 395 H 39.0225 1.75675 -0.723759 0
M  V30 396 H 37.1725 3.83274 0.635065 0
M  V30 397 H 38.8445 4.17989 -1.95148 0
M  V30 398 H 37.0875 3.90085 -1.8978 0
M  V30 399 H 37.7585 5.38478 -1.21431 0
M  V30 400 H 40.2345 4.15243 0.266965 0
M  V30 401 H 39.1105 5.43124 0.794221 0
M  V30 402 H 39.3715 4.02915 1.81966 0
M  V30 403 N 38.4306 0.297415 1.54768 0
M  V30 404 C 39.3776 -0.580276 2.23386 0
M  V30 405 C 40.3476 -1.13238 1.21517 0
M  V30 406 O 41.5326 -1.17757 1.50126 0
M  V30 407 C 38.6726 -1.74801 2.97555 0
M  V30 408 C 37.7856 -1.22764 4.1419 0
M  V30 409 C 36.9206 -2.35895 4.75949 0
M  V30 410 C 35.9596 -1.80974 5.84735 0
M  V30 411 N 35.0966 -2.87664 6.40464 0
M  V30 412 H 39.9366 0.0114833 2.97998 0
M  V30 413 H 37.4736 0.0174361 1.4709 0
M  V30 414 H 39.4316 -2.43475 3.38786 0
M  V30 415 H 38.0616 -2.31145 2.25326 0
M  V30 416 H 37.1136 -0.433271 3.77924 0
M  V30 417 H 38.4256 -0.785551 4.92575 0
M  V30 418 H 37.5796 -3.12523 5.20014 0
M  V30 419 H 36.3186 -2.83429 3.96887 0
M  V30 420 H 35.3236 -1.02834 5.40097 0
M  V30 421 H 36.5486 -1.34348 6.65678 0
M  V30 422 H 34.4946 -3.34538 5.64287 0
M  V30 423 H 34.4116 -2.4794 7.14186 0
M  V30 424 H 35.6796 -3.642 6.89187 0
M  V30 425 N 39.9087 -1.5758 0.0250728 0
M  V30 426 C 41.3247 -1.56124 -0.331282 0
M  V30 427 C 41.5247 -1.03029 -1.73169 0
M  V30 428 O 40.5807 -0.675215 -2.43305 0
M  V30 429 C 41.8937 -3.00139 -0.183584 0
M  V30 430 C 43.4417 -3.11946 -0.256654 0
M  V30 431 C 43.9167 -4.57793 -0.137792 0
M  V30 432 N 45.4077 -4.6279 -0.194904 0
M  V30 433 C 46.1427 -5.7326 -0.126655 0
M  V30 434 N 45.6387 -6.928 -0.00755288 0
M  V30 435 N 47.4317 -5.61811 -0.180348 0
M  V30 436 H 39.5827 -1.90424 0.94087 0
M  V30 437 H 41.8457 -0.875761 0.362968 0
M  V30 438 H 41.5517 -3.4292 0.780927 0
M  V30 439 H 41.4257 -3.64899 -0.955448 0
M  V30 440 H 43.8127 -2.69079 -1.21162 0
M  V30 441 H 43.8937 -2.49915 0.545517 0
M  V30 442 H 43.5377 -5.01339 0.813739 0
M  V30 443 H 43.4677 -5.17798 -0.958775 0
M  V30 444 H 45.9587 -3.76807 -0.287267 0
M  V30 445 H 46.2717 -7.72791 0.0379428 0
M  V30 446 H 44.6167 -6.94995 0.0271731 0
M  V30 447 H 47.8077 -4.6731 -0.271767 0
M  V30 448 H 47.9807 -6.47882 -0.123697 0
M  V30 449 N 41.3868 0.248026 -1.55636 0
M  V30 450 C 42.3368 1.30994 -1.86614 0
M  V30 451 C 43.3208 1.43543 -0.726918 0
M  V30 452 O 44.5128 1.46804 -0.988818 0
M  V30 453 C 41.6418 2.6656 -2.16335 0
M  V30 454 C 40.7278 2.58019 -3.36581 0
M  V30 455 N 41.1188 2.1911 -4.55878 0
M  V30 456 C 39.4168 2.89035 -3.39669 0
M  V30 457 C 40.1178 2.21174 -5.38012 0
M  V30 458 N 39.0938 2.60632 -4.77045 0
M  V30 459 H 42.8958 0.999583 -2.76379 0
M  V30 460 H 40.4098 0.456652 -1.55848 0
M  V30 461 H 42.4068 3.43194 -2.36692 0
M  V30 462 H 41.0668 2.98463 -1.27867 0
M  V30 463 H 42.0778 1.90672 -4.81523 0
M  V30 464 H 38.7548 3.25485 -2.61469 0
M  V30 465 H 40.1448 1.9344 -6.43452 0
M  V30 466 N 42.8649 1.48995 0.513639 0
M  V30 467 C 43.7949 1.67636 1.62544 0
M  V30 468 C 44.7759 0.525087 1.61793 0
M  V30 469 O 45.9609 0.759502 1.78732 0
M  V30 470 C 43.0909 1.73114 3.01079 0
M  V30 471 C 42.0449 2.87905 3.16693 0
M  V30 472 C 41.3709 2.78486 4.56453 0
M  V30 473 C 42.6709 4.29005 2.97913 0
M  V30 474 H 44.3649 2.60716 1.47198 0
M  V30 475 H 41.9109 1.25465 0.706714 0
M  V30 476 H 43.8639 1.84742 3.78746 0
M  V30 477 H 42.5879 0.766241 3.17484 0
M  V30 478 H 41.2469 2.75859 2.41448 0
M  V30 479 H 40.8949 1.7993 4.69717 0
M  V30 480 H 40.5949 3.55523 4.67843 0
M  V30 481 H 42.1189 2.92104 5.36197 0
M  V30 482 H 43.5329 4.41798 3.65359 0
M  V30 483 H 41.9299 5.07166 3.20785 0
M  V30 484 H 42.9999 4.44329 1.94165 0
M  V30 485 N 44.343 -0.763751 1.37857 0
M  V30 486 C 45.571 -1.55293 1.36718 0
M  V30 487 C 45.986 -1.88745 -0.0455434 0
M  V30 488 O 45.343 -1.52039 -1.00947 0
M  V30 489 C 45.394 -2.85831 2.2132 0
M  V30 490 O 45.115 -2.5381 3.57089 0
M  V30 491 C 46.616 -3.80023 2.28249 0
M  V30 492 H 43.836 -0.480841 0.468009 0
M  V30 493 H 46.38 -0.946009 1.81303 0
M  V30 494 H 44.535 -3.42926 1.80223 0
M  V30 495 H 44.949 -3.37459 4.01524 0
M  V30 496 H 46.423 -4.68599 2.91752 0
M  V30 497 H 46.9 -4.1973 1.2932 0
M  V30 498 H 47.506 -3.28855 2.69693 0
M  V30 499 N 45.8211 -1.22559 -0.990812 0
M  V30 500 C 47.0691 -1.04933 -1.72724 0
M  V30 501 C 47.3901 0.416158 -1.90508 0
M  V30 502 O 46.6601 1.29918 -1.46622 0
M  V30 503 H 45.2401 -0.385296 -0.639965 0
M  V30 504 H 47.9021 -1.54105 -1.19322 0
M  V30 505 H 46.9981 -1.52886 -2.72089 0
M  V30 506 N 47.2992 1.18797 -1.03562 0
M  V30 507 C 48.2092 2.25913 -0.632505 0
M  V30 508 C 49.2252 1.70668 0.338882 0
M  V30 509 O 50.4012 2.00453 0.195076 0
M  V30 510 C 47.4662 3.467 0.00350942 0
M  V30 511 C 46.5272 4.17098 -1.01624 0
M  V30 512 C 45.7602 5.32119 -0.410478 0
M  V30 513 O 45.9832 5.64976 0.784725 0
M  V30 514 O 44.9172 5.9107 -1.13667 0
M  V30 515 H 48.7432 2.62648 -1.52478 0
M  V30 516 H 46.3282 1.25781 -0.806195 0
M  V30 517 H 48.2102 4.19878 0.35781 0
M  V30 518 H 46.8852 3.11798 0.869686 0
M  V30 519 H 45.7922 3.4601 -1.42224 0
M  V30 520 H 47.1252 4.55987 -1.85301 0
M  V30 521 N 48.7773 0.814389 1.34928 0
M  V30 522 C 50.0243 0.398423 1.98542 0
M  V30 523 C 50.3523 -1.03638 1.64589 0
M  V30 524 O 49.6073 -1.73509 0.90516 0
M  V30 525 C 49.9063 0.537781 3.53331 0
M  V30 526 C 49.5723 1.93704 4.07172 0
M  V30 527 C 48.2343 2.31984 4.21589 0
M  V30 528 C 50.5863 2.85213 4.36237 0
M  V30 529 C 47.9143 3.61125 4.62391 0
M  V30 530 C 50.2663 4.13809 4.78482 0
M  V30 531 C 48.9303 4.52077 4.91104 0
M  V30 532 H 48.2003 0.145793 0.726516 0
M  V30 533 H 50.8473 1.03669 1.61012 0
M  V30 534 H 49.1523 -0.183906 3.91368 0
M  V30 535 H 50.8493 0.196588 4.00518 0
M  V30 536 H 47.4393 1.62966 3.96409 0
M  V30 537 H 51.6233 2.56885 4.24645 0
M  V30 538 H 46.8793 3.90612 4.70353 0
M  V30 539 H 51.0533 4.84811 4.99932 0
M  V30 540 H 48.6803 5.52196 5.22478 0
M  V30 541 N 50.2554 -1.46986 0.568584 0
M  V30 542 C 51.1654 -2.33942 -0.17555 0
M  V30 543 C 52.1814 -1.48891 -0.90041 0
M  V30 544 O 53.3574 -1.81794 -0.86676 0
M  V30 545 C 50.4224 -3.25811 -1.18524 0
M  V30 546 C 49.4834 -4.26757 -0.466582 0
M  V30 547 C 48.7164 -5.14236 -1.42817 0
M  V30 548 O 48.9394 -5.04379 -2.66379 0
M  V30 549 O 47.8734 -5.94412 -0.946453 0
M  V30 550 H 51.6994 -2.98896 0.538036 0
M  V30 551 H 49.2844 -1.4573 0.329097 0
M  V30 552 H 51.1664 -3.82527 -1.76779 0
M  V30 553 H 49.8414 -2.63471 -1.88055 0
M  V30 554 H 48.7484 -3.73769 0.157451 0
M  V30 555 H 50.0814 -4.91843 0.187485 0
M  V30 556 N 51.7335 -0.305618 -1.54608 0
M  V30 557 C 52.6805 0.568421 -2.23691 0
M  V30 558 C 53.6505 1.12592 -1.22116 0
M  V30 559 O 54.8355 1.16959 -1.50749 0
M  V30 560 C 51.9755 1.7322 -2.98477 0
M  V30 561 C 51.0885 1.20566 -4.14835 0
M  V30 562 C 50.2235 2.33368 -4.77193 0
M  V30 563 C 49.2625 1.7787 -5.85686 0
M  V30 564 N 48.3995 2.84263 -6.4198 0
M  V30 565 H 53.2395 -0.0272867 -2.97988 0
M  V30 566 H 50.7765 -0.0252363 -1.47078 0
M  V30 567 H 52.7345 2.41675 -3.40072 0
M  V30 568 H 51.3645 2.29947 -2.26548 0
M  V30 569 H 50.4165 0.413223 -3.78149 0
M  V30 570 H 51.7285 0.759417 -4.92985 0
M  V30 571 H 50.8825 3.09761 -5.21664 0
M  V30 572 H 49.6215 2.8132 -3.98385 0
M  V30 573 H 48.6265 0.99968 -5.40635 0
M  V30 574 H 49.8515 1.30816 -6.66381 0
M  V30 575 H 47.7975 3.31541 -5.66053 0
M  V30 576 H 47.7145 2.44149 -7.15491 0
M  V30 577 H 48.9825 3.6054 -6.91109 0
M  V30 578 N 53.2116 1.57565 -0.0334293 0
M  V30 579 C 54.1586 2.10478 0.946981 0
M  V30 580 C 55.1286 1.00787 1.32027 0
M  V30 581 O 56.3136 1.28232 1.41284 0
M  V30 582 C 53.4536 2.63994 2.22263 0
M  V30 583 C 52.5666 3.87709 1.90541 0
M  V30 584 C 51.7016 4.29604 3.12433 0
M  V30 585 C 50.7406 5.46065 2.76549 0
M  V30 586 N 49.8776 5.83096 3.9108 0
M  V30 587 H 54.7176 2.93963 0.488846 0
M  V30 588 H 52.2546 1.45296 0.22969 0
M  V30 589 H 54.2126 2.93114 2.96884 0
M  V30 590 H 52.8426 1.83333 2.65685 0
M  V30 591 H 51.8946 3.65291 1.06144 0
M  V30 592 H 53.2066 4.72403 1.60116 0
M  V30 593 H 52.3606 4.60182 3.9537 0
M  V30 594 H 51.0996 3.43685 3.46023 0
M  V30 595 H 50.1046 5.15176 1.92026 0
M  V30 596 H 51.3296 6.33685 2.44171 0
M  V30 597 H 49.2756 5.00132 4.24504 0
M  V30 598 H 49.1926 6.6244 3.64293 0
M  V30 599 H 50.4606 6.18282 4.74708 0
M  V30 600 N 54.6897 -0.239769 1.55765 0
M  V30 601 C 55.9197 -0.982743 1.8173 0
M  V30 602 C 56.3277 -1.7917 0.607835 0
M  V30 603 O 55.6707 -1.78525 -0.432973 0
M  V30 604 C 55.7327 -1.96332 3.01155 0
M  V30 605 C 55.3967 -1.34062 4.36894 0
M  V30 606 C 56.3937 -0.739539 5.14613 0
M  V30 607 C 54.0787 -1.35784 4.83599 0
M  V30 608 C 56.0727 -0.163989 6.37189 0
M  V30 609 C 53.7597 -0.778441 6.06122 0
M  V30 610 C 54.7577 -0.182548 6.82756 0
M  V30 611 O 54.4457 0.387887 8.02964 0
M  V30 612 H 54.1777 -0.294481 0.608487 0
M  V30 613 H 56.7317 -0.26572 2.03674 0
M  V30 614 H 54.9617 -2.71884 2.74984 0
M  V30 615 H 56.6507 -2.57032 3.14149 0
M  V30 616 H 57.4167 -0.718687 4.79646 0
M  V30 617 H 53.2957 -1.81105 4.23936 0
M  V30 618 H 56.8397 0.301753 6.96947 0
M  V30 619 H 52.7367 -0.796645 6.40565 0
M  V30 620 H 53.5047 0.28044 8.18019 0
M  V30 621 N 56.1678 -1.49265 -0.50573 0
M  V30 622 C 57.4168 -1.57761 -1.25675 0
M  V30 623 C 57.7298 -0.267371 -1.93764 0
M  V30 624 O 58.9358 -0.230827 -2.70517 0
M  V30 625 C 57.3918 -2.78332 -2.28165 0
M  V30 626 C 56.9998 -4.16096 -1.66037 0
M  V30 627 C 58.7438 -2.96155 -3.04125 0
M  V30 628 C 56.6508 -5.27895 -2.6661 0
M  V30 629 H 55.5808 -0.587391 -0.472745 0
M  V30 630 H 58.2318 -1.75644 -0.53118 0
M  V30 631 H 56.6138 -2.53934 -3.03865 0
M  V30 632 H 57.7878 -4.50612 -0.963622 0
M  V30 633 H 56.1028 -4.03591 -1.02484 0
M  V30 634 H 58.6998 -3.76849 -3.79327 0
M  V30 635 H 59.0428 -2.06534 -3.61455 0
M  V30 636 H 59.5758 -3.2057 -2.35541 0
M  V30 637 H 56.3148 -6.1956 -2.14068 0
M  V30 638 H 55.8348 -4.97839 -3.34539 0
M  V30 639 H 57.5138 -5.57031 -3.29129 0
M  V30 640 N 57.6459 0.756429 -1.3826 0
M  V30 641 C 59.0569 1.33359 -1.30661 0
M  V30 642 C 59.4079 1.96161 0.0388875 0
M  V30 643 O 58.5329 1.94874 0.940918 0
M  V30 644 C 59.1279 2.42477 -2.36622 0
M  V30 645 C 57.6869 2.95922 -2.3261 0
M  V30 646 C 56.8339 1.69275 -2.19639 0
M  V30 647 H 59.7849 0.55552 -1.4866 0
M  V30 648 H 59.8059 3.22345 -2.02174 0
M  V30 649 H 59.3179 1.96739 -3.34538 0
M  V30 650 H 57.4189 3.45996 -1.38267 0
M  V30 651 H 57.5319 3.50494 -3.26636 0
M  V30 652 H 55.8959 1.92793 -1.66442 0
M  V30 653 H 56.6789 1.25619 -3.19491 0
M  V30 654 N 59.124 1.23083 0.984299 0
M  V30 655 C 60.352 1.08714 1.76037 0
M  V30 656 C 60.767 -0.361691 1.85303 0
M  V30 657 O 60.124 -1.25034 1.32939 0
M  V30 658 C 60.175 1.70206 3.18923 0
M  V30 659 O 59.896 3.09423 3.10144 0
M  V30 660 C 61.397 1.61227 4.12941 0
M  V30 661 H 58.617 0.380664 0.552572 0
M  V30 662 H 61.161 1.62853 1.23689 0
M  V30 663 H 59.316 1.20109 3.6831 0
M  V30 664 H 59.73 3.39188 4.00065 0
M  V30 665 H 61.204 2.08962 5.10919 0
M  V30 666 H 61.681 0.570375 4.35481 0
M  V30 667 H 62.287 2.10671 3.69456 0
M  V30 668 N 60.6021 -1.18246 1.0419 0
M  V30 669 C 61.5321 -2.24127 0.654914 0
M  V30 670 C 62.5131 -1.66617 -0.342451 0
M  V30 671 O 63.6981 -1.92924 -0.222277 0
M  V30 672 C 60.8281 -3.47295 0.0183757 0
M  V30 673 C 59.7821 -4.17563 0.939414 0
M  V30 674 C 59.1081 -5.34438 0.167286 0
M  V30 675 C 60.4081 -4.70917 2.25908 0
M  V30 676 H 62.1021 -2.56753 1.54007 0
M  V30 677 H 59.6481 -1.23414 0.74195 0
M  V30 678 H 61.6011 -4.20572 -0.264082 0
M  V30 679 H 60.3251 -3.13907 -0.901664 0
M  V30 680 H 58.9841 -3.46186 1.20628 0
M  V30 681 H 58.6321 -4.97298 -0.7552 0
M  V30 682 H 58.3321 -5.82388 0.780901 0
M  V30 683 H 59.8561 -6.10504 -0.108125 0
M  V30 684 H 61.2701 -5.35882 2.03724 0
M  V30 685 H 59.6671 -5.29406 2.82577 0
M  V30 686 H 60.7371 -3.88272 2.9047 0
M  V30 687 N 62.0802 -0.821533 -1.34494 0
M  V30 688 C 63.3282 -0.408139 -1.97936 0
M  V30 689 C 63.6492 1.03193 -1.65457 0
M  V30 690 O 62.9192 1.71622 -0.944595 0
M  V30 691 H 61.4992 -0.147928 -0.732206 0
M  V30 692 H 64.1612 -1.05067 -1.64155 0
M  V30 693 H 63.2572 -0.52601 -3.07635 0
M  V30 694 N 63.5583 1.46682 -0.576371 0
M  V30 695 C 64.8043 2.02712 -0.0596221 0
M  V30 696 C 65.1373 1.44765 1.29448 0
M  V30 697 O 64.4123 0.610355 1.84675 0
M  V30 698 C 64.6953 3.60098 0.0129503 0
M  V30 699 C 64.5483 4.28441 -1.3696 0
M  V30 700 C 65.8673 4.34224 0.71678 0
M  V30 701 H 62.9863 0.736637 -0.0231407 0
M  V30 702 H 65.6283 1.74898 -0.742351 0
M  V30 703 H 63.7783 3.83926 0.594378 0
M  V30 704 H 65.4503 4.15896 -1.9957 0
M  V30 705 H 63.6933 3.8805 -1.93907 0
M  V30 706 H 64.3643 5.3716 -1.27135 0
M  V30 707 H 66.8403 4.15503 0.222908 0
M  V30 708 H 65.7163 5.43936 0.73657 0
M  V30 709 H 65.9773 4.04823 1.77682 0
M  V30 710 N 65.0364 0.313813 1.54444 0
M  V30 711 C 65.9464 -0.565714 2.27677 0
M  V30 712 C 66.9624 -1.13754 1.31666 0
M  V30 713 O 68.1384 -1.15959 1.64668 0
M  V30 714 C 65.2034 -1.71528 3.01296 0
M  V30 715 C 64.2644 -1.17624 4.12872 0
M  V30 716 C 63.4974 -2.27102 4.8297 0
M  V30 717 O 63.7204 -3.47256 4.52514 0
M  V30 718 O 62.6544 -1.9307 5.70094 0
M  V30 719 H 66.4804 0.0287296 3.03686 0
M  V30 720 H 64.0654 0.0798312 1.49187 0
M  V30 721 H 65.9474 -2.38476 3.4743 0
M  V30 722 H 64.6224 -2.29608 2.2817 0
M  V30 723 H 63.5294 -0.472124 3.71109 0
M  V30 724 H 64.8624 -0.640695 4.88012 0
M  V30 725 N 66.5145 -1.57545 0.0417849 0
M  V30 726 C 67.7605 -1.92601 -0.635021 0
M  V30 727 C 68.0935 -0.919627 -1.71045 0
M  V30 728 O 67.3685 0.0557892 -1.9442 0
M  V30 729 C 67.6515 -3.38085 -1.23979 0
M  V30 730 C 67.5045 -4.49467 -0.173057 0
M  V30 731 C 68.8235 -3.83776 -2.15416 0
M  V30 732 H 65.9425 -0.700397 -0.229374 0
M  V30 733 H 68.5845 -1.89728 0.101633 0
M  V30 734 H 66.7345 -3.40664 -1.86762 0
M  V30 735 H 68.4065 -4.59018 0.458312 0
M  V30 736 H 66.6495 -4.30909 0.499996 0
M  V30 737 H 67.3205 -5.48323 -0.636054 0
M  V30 738 H 69.7965 -3.83013 -1.62605 0
M  V30 739 H 68.6725 -4.8624 -2.54679 0
M  V30 740 H 68.9335 -3.19998 -3.05047 0
M  V30 741 N 67.9926 0.231505 -1.5589 0
M  V30 742 C 68.9426 1.29007 -1.87993 0
M  V30 743 C 69.9266 1.42764 -0.742102 0
M  V30 744 O 71.1186 1.45747 -1.00433 0
M  V30 745 C 68.2476 2.6425 -2.1915 0
M  V30 746 C 67.3336 2.54435 -3.39299 0
M  V30 747 N 67.7246 2.14262 -4.58176 0
M  V30 748 C 66.0226 2.85416 -3.42715 0
M  V30 749 C 66.7236 2.15455 -5.40328 0
M  V30 750 N 65.6996 2.55558 -4.79783 0
M  V30 751 H 69.5016 0.970213 -2.77424 0
M  V30 752 H 67.0156 0.440097 -1.56323 0
M  V30 753 H 69.0126 3.40665 -2.40319 0
M  V30 754 H 67.6726 2.9709 -1.31025 0
M  V30 755 H 68.6836 1.85554 -4.83518 0
M  V30 756 H 65.3606 3.22693 -2.64906 0
M  V30 757 H 66.7506 1.86605 -6.45467 0
M  V30 758 N 69.4707 1.49531 0.497807 0
M  V30 759 C 70.8817 1.52344 1.07927 0
M  V30 760 C 71.2327 0.311469 1.93712 0
M  V30 761 O 70.3577 -0.578405 2.08527 0
M  V30 762 C 70.9527 2.76062 1.96405 0
M  V30 763 C 69.5117 2.81643 2.49709 0
M  V30 764 C 68.6587 2.46299 1.27404 0
M  V30 765 H 71.6097 1.56182 0.281576 0
M  V30 766 H 71.6307 2.56405 2.81135 0
M  V30 767 H 71.1427 3.64254 1.33943 0
M  V30 768 H 69.2437 1.97739 3.15801 0
M  V30 769 H 69.3567 3.83891 2.86643 0
M  V30 770 H 67.7207 1.98148 1.60029 0
M  V30 771 H 68.5037 3.36769 0.66645 0
M  V30 772 N 70.9488 -0.749086 1.3866 0
M  V30 773 C 71.8788 -1.8764 1.38973 0
M  V30 774 C 72.8598 -1.68178 0.255004 0
M  V30 775 O 74.0448 -1.88704 0.458754 0
M  V30 776 C 71.1748 -3.25222 1.21851 0
M  V30 777 C 70.1288 -3.59295 2.32575 0
M  V30 778 C 69.4548 -4.95663 2.00555 0
M  V30 779 C 70.7548 -3.63709 3.7485 0
M  V30 780 H 72.4488 -1.87635 2.3331 0
M  V30 781 H 69.9948 -0.901329 1.12303 0
M  V30 782 H 71.9478 -4.03746 1.20695 0
M  V30 783 H 70.6718 -3.25719 0.239775 0
M  V30 784 H 69.3308 -2.83093 2.32925 0
M  V30 785 H 68.9788 -4.92724 1.01154 0
M  V30 786 H 68.6788 -5.19429 2.74714 0
M  V30 787 H 70.2028 -5.7656 2.01024 0
M  V30 788 H 71.6168 -4.32338 3.76506 0
M  V30 789 H 70.0138 -3.98986 4.48252 0
M  V30 790 H 71.0838 -2.63834 4.06841 0
M  V30 791 N 72.4269 -1.23603 -0.977757 0
M  V30 792 C 73.3739 -1.01954 -2.07061 0
M  V30 793 C 74.3439 0.0638697 -1.65977 0
M  V30 794 O 75.5289 -0.0887624 -1.90593 0
M  V30 795 C 72.6689 -0.619658 -3.39491 0
M  V30 796 C 71.7819 -1.77547 -3.93829 0
M  V30 797 C 70.9169 -1.32212 -5.14484 0
M  V30 798 C 69.9559 -2.44852 -5.60994 0
M  V30 799 N 69.0929 -2.00456 -6.72876 0
M  V30 800 H 73.9329 -1.95495 -2.24913 0
M  V30 801 H 71.4699 -0.973861 -1.10247 0
M  V30 802 H 73.4279 -0.368898 -4.15566 0
M  V30 803 H 72.0579 0.278752 -3.21594 0
M  V30 804 H 71.1099 -2.14016 -3.14486 0
M  V30 805 H 72.4219 -2.62219 -4.24314 0
M  V30 806 H 71.5759 -1.02965 -5.97899 0
M  V30 807 H 70.3149 -0.445808 -4.85658 0
M  V30 808 H 69.3199 -2.74871 -4.76157 0
M  V30 809 H 70.5449 -3.33024 -5.91837 0
M  V30 810 H 68.4909 -1.15208 -6.45804 0
M  V30 811 H 68.4079 -2.78687 -7.02759 0
M  V30 812 H 69.6759 -1.7432 -7.59758 0
M  V30 813 N 73.905 1.17692 -1.04816 0
M  V30 814 C 75.152 1.87859 -0.75599 0
M  V30 815 C 75.48 1.80812 0.716752 0
M  V30 816 O 74.735 1.20819 1.53952 0
M  V30 817 C 75.034 3.37462 -1.17703 0
M  V30 818 C 74.7 3.64713 -2.65133 0
M  V30 819 C 73.362 3.71859 -3.05408 0
M  V30 820 C 75.714 3.76492 -3.60421 0
M  V30 821 C 73.042 3.88271 -4.39843 0
M  V30 822 C 75.394 3.94421 -4.94585 0
M  V30 823 C 74.058 3.99806 -5.3452 0
M  V30 824 H 73.328 0.687425 -0.276636 0
M  V30 825 H 75.975 1.39255 -1.31455 0
M  V30 826 H 74.28 3.88097 -0.537395 0
M  V30 827 H 75.977 3.90109 -0.928218 0
M  V30 828 H 72.567 3.59772 -2.32942 0
M  V30 829 H 76.751 3.70295 -3.30447 0
M  V30 830 H 72.007 3.90687 -4.70291 0
M  V30 831 H 76.181 4.02477 -5.68318 0
M  V30 832 H 73.808 4.12276 -6.38696 0
M  V30 833 N 75.3831 0.828654 1.34056 0
M  V30 834 C 76.3151 0.212052 2.28217 0
M  V30 835 C 77.3281 -0.601362 1.51286 0
M  V30 836 O 78.5171 -0.430104 1.73241 0
M  V30 837 C 75.6171 -0.72088 3.31144 0
M  V30 838 C 74.7901 0.0509587 4.3737 0
M  V30 839 C 73.8491 -0.803766 5.20025 0
M  V30 840 O 72.8751 -0.246667 5.68665 0
M  V30 841 N 74.0771 -2.1227 5.40298 0
M  V30 842 H 76.8421 1.02105 2.81771 0
M  V30 843 H 74.4031 0.686153 1.46641 0
M  V30 844 H 76.3951 -1.29742 3.8334 0
M  V30 845 H 74.9651 -1.43061 2.77943 0
M  V30 846 H 74.1851 0.808831 3.85813 0
M  V30 847 H 75.4731 0.582065 5.0546 0
M  V30 848 H 74.8711 -2.59898 5.02464 0
M  V30 849 H 73.4281 -2.64796 5.95589 0
M  V30 850 N 76.8612 -1.46375 0.584142 0
M  V30 851 C 78.0892 -2.06761 0.0759296 0
M  V30 852 C 78.5042 -1.43266 -1.22965 0
M  V30 853 O 77.8612 -0.538458 -1.74376 0
M  V30 854 C 77.9122 -3.61375 -0.0950384 0
M  V30 855 O 77.6332 -4.22495 1.15887 0
M  V30 856 C 79.1342 -4.38693 -0.637434 0
M  V30 857 H 76.3542 -0.668479 0.0581075 0
M  V30 858 H 78.8982 -1.8798 0.805218 0
M  V30 859 H 77.0532 -3.79578 -0.774554 0
M  V30 860 H 77.4672 -5.15385 0.973598 0
M  V30 861 H 78.9412 -5.47464 -0.706237 0
M  V30 862 H 79.4182 -4.06836 -1.65472 0
M  V30 863 H 80.0242 -4.25299 0.00725967 0
M  V30 864 N 78.3393 -0.321999 -1.54275 0
M  V30 865 C 79.2873 0.560206 -2.25753 0
M  V30 866 C 80.2813 1.11984 -1.27106 0
M  V30 867 O 81.4873 1.06806 -1.44888 0
M  V30 868 H 77.8623 0.199304 -0.725108 0
M  V30 869 H 79.8333 -0.0649365 -2.98329 0
M  V30 870 C 78.5823 1.71023 -3.02731 0
M  V30 871 H 77.9053 1.28885 -3.78456 0
M  V30 872 H 79.3453 2.30314 -3.55993 0
M  V30 873 C 77.8043 2.62692 -2.10938 0
M  V30 874 O 78.3343 3.64364 -1.6912 0
M  V30 875 N 76.5403 2.30891 -1.76459 0
M  V30 876 H 76.0873 1.48253 -2.10663 0
M  V30 877 H 76.0453 2.92487 -1.1532 0
M  V30 878 N 79.8174 1.5752 -0.0501392 0
M  V30 879 C 81.0644 1.9265 0.623874 0
M  V30 880 C 81.3924 0.928411 1.70912 0
M  V30 881 O 80.6474 -0.0594525 1.9561 0
M  V30 882 C 80.9464 3.34467 1.25963 0
M  V30 883 C 80.6124 4.49883 0.302689 0
M  V30 884 C 79.2744 4.81184 0.0393636 0
M  V30 885 C 81.6264 5.20002 -0.353205 0
M  V30 886 C 78.9544 5.79951 -0.887308 0
M  V30 887 C 81.3064 6.1976 -1.26806 0
M  V30 888 C 79.9704 6.49491 -1.54007 0
M  V30 889 H 79.2404 0.704957 0.228292 0
M  V30 890 H 81.8874 1.91146 -0.116398 0
M  V30 891 H 80.1924 3.32333 2.07514 0
M  V30 892 H 81.8894 3.58928 1.78806 0
M  V30 893 H 78.4794 4.25457 0.518109 0
M  V30 894 H 82.6634 4.96033 -0.162854 0
M  V30 895 H 77.9194 6.01322 -1.10553 0
M  V30 896 H 82.0934 6.73205 -1.78236 0
M  V30 897 H 79.7204 7.25837 -2.25976 0
M  V30 898 N 81.2955 -0.223234 1.56011 0
M  V30 899 C 82.5435 -0.946003 1.78592 0
M  V30 900 C 82.8645 -1.84936 0.618349 0
M  V30 901 O 82.1345 -1.92473 -0.364833 0
M  V30 902 H 80.7145 -0.352298 0.658707 0
M  V30 903 H 83.3765 -0.235494 1.93472 0
M  V30 904 H 82.4725 -1.55381 2.70672 0
M  V30 905 N 82.7736 -1.49793 -0.48987 0
M  V30 906 C 83.7206 -1.67281 -1.59014 0
M  V30 907 C 84.6906 -0.514177 -1.57941 0
M  V30 908 O 85.8756 -0.742533 -1.75759 0
M  V30 909 C 83.0156 -1.75569 -2.97102 0
M  V30 910 C 82.1286 -3.0281 -3.08107 0
M  V30 911 C 81.2636 -3.02008 -4.36995 0
M  V30 912 C 80.3026 -4.23782 -4.41673 0
M  V30 913 N 79.4396 -4.20826 -5.62005 0
M  V30 914 H 84.2796 -2.61224 -1.43409 0
M  V30 915 H 81.8166 -1.29508 -0.697565 0
M  V30 916 H 83.7746 -1.78354 -3.77155 0
M  V30 917 H 82.4046 -0.850827 -3.11385 0
M  V30 918 H 81.4566 -3.09584 -2.21047 0
M  V30 919 H 82.7686 -3.92801 -3.07423 0
M  V30 920 H 81.9226 -3.03418 -5.25378 0
M  V30 921 H 80.6616 -2.09815 -4.4026 0
M  V30 922 H 79.6666 -4.22604 -3.5169 0
M  V30 923 H 80.8916 -5.17181 -4.40115 0
M  V30 924 H 78.8376 -3.31476 -5.66091 0
M  V30 925 H 78.7546 -5.04564 -5.62984 0
M  V30 926 H 80.0226 -4.26355 -6.52565 0
M  V30 927 N 84.2517 0.741722 -1.39055 0
M  V30 928 C 85.4797 1.53098 -1.39171 0
M  V30 929 C 85.8947 1.88794 0.0155099 0
M  V30 930 O 85.2517 1.53626 0.985159 0
M  V30 931 C 85.3027 2.82274 -2.2584 0
M  V30 932 O 85.0237 2.48097 -3.61081 0
M  V30 933 C 86.5247 3.76343 -2.34266 0
M  V30 934 H 83.7447 0.473335 -0.4756 0
M  V30 935 H 86.2887 0.917045 -1.82785 0
M  V30 936 H 84.4437 3.40015 -1.85656 0
M  V30 937 H 84.8577 3.31029 -4.06842 0
M  V30 938 H 86.3317 4.63898 -2.9917 0
M  V30 939 H 86.8087 4.17619 -1.35982 0
M  V30 940 H 87.4147 3.24523 -2.74891 0
M  V30 941 N 85.7298 1.2412 0.971189 0
M  V30 942 C 86.6618 0.988349 2.06795 0
M  V30 943 C 87.6748 -0.0409541 1.62748 0
M  V30 944 O 88.8638 0.195673 1.77424 0
M  V30 945 C 85.9638 0.469023 3.35639 0
M  V30 946 C 85.1368 1.56065 4.08611 0
M  V30 947 C 84.1958 1.04458 5.15728 0
M  V30 948 O 83.2218 1.73553 5.42096 0
M  V30 949 N 84.4238 -0.122817 5.8037 0
M  V30 950 H 87.1888 1.93265 2.29061 0
M  V30 951 H 84.7498 1.15102 1.13856 0
M  V30 952 H 86.7418 0.108613 4.04554 0
M  V30 953 H 85.3118 -0.380919 3.1027 0
M  V30 954 H 84.5318 2.09341 3.34021 0
M  V30 955 H 85.8198 2.29449 4.54126 0
M  V30 956 H 85.2178 -0.700563 5.61345 0
M  V30 957 H 83.7748 -0.424404 6.50417 0
M  V30 958 N 87.2079 -1.17134 1.05439 0
M  V30 959 C 88.4549 -1.87456 0.765942 0
M  V30 960 C 88.7829 -1.81189 -0.707153 0
M  V30 961 O 88.0379 -1.21633 -1.5331 0
M  V30 962 C 88.3369 -3.36833 1.19491 0
M  V30 963 C 88.0029 -3.63301 2.67063 0
M  V30 964 C 86.6649 -3.70234 3.07376 0
M  V30 965 C 89.0169 -3.74575 3.62413 0
M  V30 966 C 86.3449 -3.85933 4.41896 0
M  V30 967 C 88.6969 -3.91793 4.9667 0
M  V30 968 C 87.3609 -3.96966 5.36633 0
M  V30 969 H 86.6309 -0.685948 0.280278 0
M  V30 970 H 89.2779 -1.38556 1.32192 0
M  V30 971 H 87.5829 -3.87807 0.557969 0
M  V30 972 H 89.2799 -3.89611 0.948893 0
M  V30 973 H 85.8699 -3.58532 2.34846 0
M  V30 974 H 90.0539 -3.68537 3.32406 0
M  V30 975 H 85.3099 -3.88187 4.72357 0
M  V30 976 H 89.4839 -3.99458 5.70444 0
M  V30 977 H 87.1109 -4.08883 6.40874 0
M  V30 978 N 88.686 -0.835752 -1.33615 0
M  V30 979 C 89.634 -0.255238 -2.31195 0
M  V30 980 C 90.628 0.61107 -1.57995 0
M  V30 981 O 91.834 0.500979 -1.72888 0
M  V30 982 H 88.209 -0.0638085 -0.749288 0
M  V30 983 H 90.18 -1.09283 -2.77669 0
M  V30 984 C 88.929 0.55754 -3.43201 0
M  V30 985 H 88.252 -0.0997553 -3.99676 0
M  V30 986 H 89.692 0.929622 -4.13683 0
M  V30 987 C 88.151 1.73515 -2.88781 0
M  V30 988 O 88.681 2.83376 -2.84712 0
M  V30 989 N 86.887 1.55603 -2.4543 0
M  V30 990 H 86.434 0.662354 -2.48939 0
M  V30 991 H 86.392 2.34545 -2.09371 0
M  V30 992 N 90.1641 1.46063 -0.591896 0
M  V30 993 C 91.4101 2.02638 -0.0811191 0
M  V30 994 C 91.7431 1.4613 1.27905 0
M  V30 995 O 91.0181 0.629908 1.84017 0
M  V30 996 C 91.3011 3.60091 -0.0252436 0
M  V30 997 C 91.1541 4.26965 -1.41496 0
M  V30 998 C 92.4731 4.3496 0.670685 0
M  V30 999 H 89.5921 0.73635 -0.0309524 0
M  V30 1000 H 92.2341 1.741 -0.760859 0
M  V30 1001 H 90.3841 3.84535 0.553624 0
M  V30 1002 H 92.0561 4.13756 -2.0397 0
M  V30 1003 H 90.2991 3.85971 -1.98011 0
M  V30 1004 H 90.9701 5.35781 -1.32825 0
M  V30 1005 H 93.4461 4.15716 0.178825 0
M  V30 1006 H 92.3221 5.44686 0.678837 0
M  V30 1007 H 92.5831 4.06685 1.73379 0
M  V30 1008 N 91.6422 0.330177 1.54103 0
M  V30 1009 C 92.8882 -0.263542 2.01685 0
M  V30 1010 C 93.2432 -1.49258 1.21408 0
M  V30 1011 O 92.5362 -1.89395 0.289852 0
M  V30 1012 C 92.7302 -0.643134 3.51566 0
M  V30 1013 C 92.5592 0.547571 4.46354 0
M  V30 1014 C 91.3292 1.04873 4.94297 0
M  V30 1015 C 93.5272 1.40184 4.94826 0
M  V30 1016 N 91.5092 2.20316 5.73005 0
M  V30 1017 C 92.8802 2.40335 5.71524 0
M  V30 1018 C 94.9352 1.42884 4.76958 0
M  V30 1019 C 93.6382 3.42998 6.32254 0
M  V30 1020 C 95.6642 2.44421 5.38528 0
M  V30 1021 C 95.0262 3.43298 6.15082 0
M  V30 1022 H 91.1252 -0.0601026 0.779687 0
M  V30 1023 H 93.7092 0.466714 1.89023 0
M  V30 1024 H 91.8802 -1.34251 3.6446 0
M  V30 1025 H 93.6122 -1.21889 3.85908 0
M  V30 1026 H 90.3672 0.618956 4.69538 0
M  V30 1027 H 90.7912 2.78565 6.17034 0
M  V30 1028 H 95.4332 0.678049 4.17328 0
M  V30 1029 H 93.1512 4.1898 6.91 0
M  V30 1030 H 96.7372 2.4732 5.26616 0
M  V30 1031 H 95.6172 4.20579 6.61878 0
M  V30 1032 N 93.1203 -1.57491 0.0584922 0
M  V30 1033 C 94.3973 -1.84346 -0.653918 0
M  V30 1034 C 94.7773 -0.948355 -1.88599 0
M  V30 1035 O 94.1253 -0.0112403 -2.28497 0
M  V30 1036 C 94.3353 -3.34239 -1.00425 0
M  V30 1037 C 95.6833 -4.01431 -1.38342 0
M  V30 1038 O 96.7073 -3.38907 -1.09637 0
M  V30 1039 O 95.5663 -5.11683 -1.91943 0
M  V30 1040 H 92.6603 -0.761112 -0.323478 0
M  V30 1041 H 95.2063 -1.6947 0.0884125 0
M  V30 1042 H 93.9783 -3.91089 -0.128625 0
M  V30 1043 H 93.6013 -3.54329 -1.80378 0
M  V30 1044 N 94.5984 0.214957 -1.56127 0
M  V30 1045 C 95.8264 0.955092 -1.83536 0
M  V30 1046 C 96.2414 1.77677 -0.638472 0
M  V30 1047 O 95.5984 1.78219 0.392968 0
M  V30 1048 C 95.6494 1.86734 -3.09536 0
M  V30 1049 O 95.3704 1.07887 -4.24608 0
M  V30 1050 C 96.8714 2.72082 -3.4998 0
M  V30 1051 H 94.0914 0.279611 -0.609966 0
M  V30 1052 H 96.6354 0.228197 -2.03223 0
M  V30 1053 H 94.7904 2.5481 -2.91806 0
M  V30 1054 H 95.2044 1.69872 -4.9623 0
M  V30 1055 H 96.6784 3.31782 -4.41163 0
M  V30 1056 H 97.1554 3.44806 -2.7204 0
M  V30 1057 H 97.7614 2.09409 -3.70173 0
M  V30 1058 N 96.0765 1.50051 0.48192 0
M  V30 1059 C 97.0395 1.67584 1.5636 0
M  V30 1060 C 98.0395 0.546894 1.51214 0
M  V30 1061 O 99.2295 0.813725 1.54026 0
M  V30 1062 C 96.3615 1.691 2.96003 0
M  V30 1063 H 97.5545 2.64078 1.42136 0
M  V30 1064 H 95.1075 1.39369 0.707533 0
M  V30 1065 H 95.8425 0.742589 3.15684 0
M  V30 1066 H 95.6275 2.51105 3.01146 0
M  V30 1067 H 97.1175 1.84656 3.74556 0
M  V30 1068 N 97.5546 -0.734337 1.39446 0
M  V30 1069 C 98.8026 -1.49096 1.36436 0
M  V30 1070 C 99.1236 -1.94961 -0.0388255 0
M  V30 1071 O 98.3936 -1.69033 -0.990191 0
M  V30 1072 H 96.9736 -0.5531 0.502085 0
M  V30 1073 H 99.6356 -0.871725 1.74319 0
M  V30 1074 H 98.7316 -2.37276 2.02747 0
M  V30 1075 N 99.0327 -1.24633 -0.964593 0
M  V30 1076 C 99.9647 -0.999302 -2.06268 0
M  V30 1077 C 100.978 0.0323226 -1.62768 0
M  V30 1078 O 102.167 -0.205079 -1.77318 0
M  V30 1079 C 99.2667 -0.486816 -3.35385 0
M  V30 1080 C 98.4397 -1.5823 -4.07777 0
M  V30 1081 C 97.4987 -1.07191 -5.15166 0
M  V30 1082 O 96.5247 -1.76426 -5.41168 0
M  V30 1083 N 97.7267 0.0920373 -5.80427 0
M  V30 1084 H 100.492 -1.94477 -2.28033 0
M  V30 1085 H 98.0527 -1.15704 -1.13244 0
M  V30 1086 H 100.045 -0.130066 -4.04491 0
M  V30 1087 H 98.6147 0.364459 -3.10468 0
M  V30 1088 H 97.8347 -2.11109 -3.32906 0
M  V30 1089 H 99.1227 -2.31854 -4.52903 0
M  V30 1090 H 98.5207 0.670784 -5.61709 0
M  V30 1091 H 97.0777 0.389905 -6.50633 0
M  V30 1092 N 100.511 1.16574 -1.06058 0
M  V30 1093 C 101.421 2.2452 -0.680282 0
M  V30 1094 C 102.437 1.71348 0.302604 0
M  V30 1095 O 103.613 2.00822 0.152513 0
M  V30 1096 C 100.678 3.46629 -0.0700315 0
M  V30 1097 C 99.7388 4.14849 -1.10448 0
M  V30 1098 C 98.9718 5.31129 -0.523256 0
M  V30 1099 O 99.1948 5.66514 0.664709 0
M  V30 1100 O 98.1288 5.88526 -1.26179 0
M  V30 1101 H 101.955 2.59355 -1.58015 0
M  V30 1102 H 99.5398 1.24043 -0.832694 0
M  V30 1103 H 101.422 4.20543 0.268667 0
M  V30 1104 H 100.097 3.13573 0.803353 0
M  V30 1105 H 99.0038 3.42916 -1.49532 0
M  V30 1106 H 100.337 4.51954 -1.94931 0
M  V30 1107 N 101.989 0.842826 1.3317 0
M  V30 1108 C 102.936 0.276885 2.29133 0
M  V30 1109 C 103.906 -0.609527 1.54512 0
M  V30 1110 O 105.091 -0.546955 1.82792 0
M  V30 1111 C 102.231 -0.538707 3.40869 0
M  V30 1112 C 101.344 0.372169 4.30394 0
M  V30 1113 C 100.479 -0.454908 5.29249 0
M  V30 1114 C 99.5179 0.45411 6.10413 0
M  V30 1115 N 98.6549 -0.335075 7.013 0
M  V30 1116 H 103.495 1.10052 2.76934 0
M  V30 1117 H 101.032 0.554161 1.36262 0
M  V30 1118 H 102.99 -1.02709 4.0436 0
M  V30 1119 H 101.62 -1.32727 2.9425 0
M  V30 1120 H 100.672 0.97888 3.6759 0
M  V30 1121 H 101.984 1.0703 4.87182 0
M  V30 1122 H 101.138 -1.00695 5.98285 0
M  V30 1123 H 99.8769 -1.18646 4.73048 0
M  V30 1124 H 98.8819 1.01813 5.40291 0
M  V30 1125 H 100.107 1.18409 6.68697 0
M  V30 1126 H 98.0529 -1.04994 6.47543 0
M  V30 1127 H 97.9699 0.304262 7.55387 0
M  V30 1128 H 99.2379 -0.869224 7.74638 0
M  V30 1129 N 103.467 -1.45747 0.599634 0
M  V30 1130 C 104.714 -2.02292 0.0917284 0
M  V30 1131 C 105.042 -1.46906 -1.27472 0
M  V30 1132 O 104.297 -0.630652 -1.8526 0
M  V30 1133 C 104.596 -3.57399 -0.00602758 0
M  V30 1134 C 104.262 -4.31902 1.29503 0
M  V30 1135 C 102.924 -4.51974 1.65144 0
M  V30 1136 C 105.276 -4.74551 2.15525 0
M  V30 1137 C 102.604 -5.11949 2.86574 0
M  V30 1138 C 104.956 -5.35868 3.36196 0
M  V30 1139 C 103.62 -5.54165 3.72099 0
M  V30 1140 H 102.89 -0.740239 0.0335658 0
M  V30 1141 H 105.537 -1.7491 0.779661 0
M  V30 1142 H 103.842 -3.84014 -0.777183 0
M  V30 1143 H 105.539 -3.98846 -0.415038 0
M  V30 1144 H 102.129 -4.16588 1.00761 0
M  V30 1145 H 106.313 -4.58784 1.8929 0
M  V30 1146 H 101.569 -5.24305 3.14507 0
M  V30 1147 H 105.743 -5.6787 4.03109 0
M  V30 1148 H 103.37 -6.00406 4.6628 0
M  V30 1149 N 104.945 -0.338344 -1.53925 0
M  V30 1150 C 106.193 0.259245 -2.0043 0
M  V30 1151 C 106.514 1.51484 -1.22791 0
M  V30 1152 O 105.784 1.93037 -0.33368 0
M  V30 1153 H 104.364 0.0987845 -0.740439 0
M  V30 1154 H 107.026 -0.458302 -1.89435 0
M  V30 1155 H 106.122 0.505334 -3.07982 0
M  V30 1156 N 106.423 1.57458 -0.0668435 0
M  V30 1157 C 107.671 1.92919 0.602214 0
M  V30 1158 C 107.992 0.947215 1.70449 0
M  V30 1159 O 107.262 -0.00544117 1.95899 0
M  V30 1160 H 105.842 0.71217 0.22544 0
M  V30 1161 H 108.504 1.94508 -0.123535 0
M  V30 1162 H 107.6 2.94589 1.03073 0
M  V30 1163 N 107.901 -0.206675 1.56239 0
M  V30 1164 C 108.831 -1.25909 1.96645 0
M  V30 1165 C 109.812 -1.48097 0.836734 0
M  V30 1166 O 110.997 -1.6003 1.10019 0
M  V30 1167 C 108.127 -2.6058 2.29599 0
M  V30 1168 C 107.081 -2.53024 3.452 0
M  V30 1169 C 106.407 -3.91861 3.63798 0
M  V30 1170 C 107.707 -2.06524 4.79734 0
M  V30 1171 H 109.401 -0.923369 2.84806 0
M  V30 1172 H 106.947 -0.442735 1.37025 0
M  V30 1173 H 108.9 -3.34375 2.56459 0
M  V30 1174 H 107.624 -2.95869 1.38307 0
M  V30 1175 H 106.283 -1.81684 3.18412 0
M  V30 1176 H 105.931 -4.24483 2.69857 0
M  V30 1177 H 105.631 -3.87683 4.4156 0
M  V30 1178 H 107.155 -4.67296 3.93022 0
M  V30 1179 H 108.569 -2.70072 5.05702 0
M  V30 1180 H 106.966 -2.13374 5.60885 0
M  V30 1181 H 108.036 -1.01802 4.74093 0
M  V30 1182 N 109.379 -1.50304 -0.473955 0
M  V30 1183 C 110.795 -1.37667 -0.807466 0
M  V30 1184 C 110.995 -0.430555 -1.96846 0
M  V30 1185 O 110.051 0.127874 -2.52176 0
M  V30 1186 C 111.364 -2.78974 -1.12223 0
M  V30 1187 C 112.912 -2.87868 -1.22885 0
M  V30 1188 C 113.387 -4.30003 -1.57676 0
M  V30 1189 N 114.878 -4.3294 -1.64673 0
M  V30 1190 C 115.613 -5.3991 -1.93091 0
M  V30 1191 N 115.109 -6.57092 -2.1955 0
M  V30 1192 N 116.902 -5.27351 -1.94569 0
M  V30 1193 H 109.053 -2.10394 0.291212 0
M  V30 1194 H 111.316 -0.945575 0.0677609 0
M  V30 1195 H 111.022 -3.50031 -0.342229 0
M  V30 1196 H 110.896 -3.16038 -2.05913 0
M  V30 1197 H 113.283 -2.17032 -1.99953 0
M  V30 1198 H 113.364 -2.54352 -0.271814 0
M  V30 1199 H 113.008 -5.01375 -0.81149 0
M  V30 1200 H 112.938 -4.61004 -2.54525 0
M  V30 1201 H 115.429 -3.48441 -1.46277 0
M  V30 1202 H 115.742 -7.34425 -2.405 0
M  V30 1203 H 114.087 -6.60272 -2.16948 0
M  V30 1204 H 117.278 -4.34801 -1.73394 0
M  V30 1205 H 117.451 -6.10805 -2.16381 0
M  V30 1206 N 110.857 0.726932 -1.39834 0
M  V30 1207 C 112.134 1.47902 -1.28001 0
M  V30 1208 C 112.514 2.1083 0.106789 0
M  V30 1209 O 111.862 1.99242 1.11869 0
M  V30 1210 C 112.072 2.52392 -2.41038 0
M  V30 1211 C 113.42 3.18546 -2.80737 0
M  V30 1212 O 114.444 2.62708 -2.40547 0
M  V30 1213 O 113.303 4.19604 -3.50135 0
M  V30 1214 H 110.397 0.657163 -0.502062 0
M  V30 1215 H 112.943 0.760071 -1.51727 0
M  V30 1216 H 111.715 2.04329 -3.33715 0
M  V30 1217 H 111.338 3.31837 -2.19021 0
M  V30 1218 N 112.336 1.25143 0.95797 0
M  V30 1219 C 113.584 1.09476 1.69881 0
M  V30 1220 C 113.905 -0.365502 1.91544 0
M  V30 1221 O 113.175 -1.25985 1.50015 0
M  V30 1222 H 111.755 0.402128 0.629525 0
M  V30 1223 H 114.417 1.57214 1.15194 0
M  V30 1224 H 113.513 1.60046 2.6794 0
M  V30 1225 N 113.814 -1.1601 1.06675 0
M  V30 1226 C 115.044 -1.90251 0.805497 0
M  V30 1227 C 115.452 -1.77891 -0.64431 0
M  V30 1228 O 114.795 -1.12383 -1.45313 0
M  V30 1229 C 114.857 -3.41419 1.12576 0
M  V30 1230 C 114.521 -3.77564 2.57477 0
M  V30 1231 C 115.518 -3.79161 3.55715 0
M  V30 1232 C 113.203 -4.08079 2.92877 0
M  V30 1233 C 115.197 -4.10767 4.8739 0
M  V30 1234 C 112.884 -4.39351 4.24751 0
M  V30 1235 C 113.882 -4.40675 5.21818 0
M  V30 1236 O 113.57 -4.71202 6.51325 0
M  V30 1237 H 113.302 -0.610018 0.291297 0
M  V30 1238 H 115.856 -1.47958 1.4247 0
M  V30 1239 H 114.086 -3.84079 0.449503 0
M  V30 1240 H 115.775 -3.9694 0.84814 0
M  V30 1241 H 116.541 -3.55693 3.29708 0
M  V30 1242 H 112.42 -4.06211 2.17976 0
M  V30 1243 H 115.964 -4.11715 5.63148 0
M  V30 1244 H 111.861 -4.62285 4.50514 0
M  V30 1245 H 112.629 -4.88996 6.56373 0
M  V30 1246 N 115.292 -0.849877 -1.32721 0
M  V30 1247 C 116.522 -0.46408 -2.0132 0
M  V30 1248 C 116.93 0.94246 -1.64056 0
M  V30 1249 O 116.273 1.6257 -0.855379 0
M  V30 1250 C 116.335 -0.517887 -3.5575 0
M  V30 1251 C 115.999 -1.88248 -4.16427 0
M  V30 1252 C 116.996 -2.84726 -4.35002 0
M  V30 1253 C 114.681 -2.17832 -4.52609 0
M  V30 1254 C 116.675 -4.08945 -4.8892 0
M  V30 1255 C 114.362 -3.42304 -5.06232 0
M  V30 1256 C 115.36 -4.37677 -5.24335 0
M  V30 1257 O 115.048 -5.59946 -5.76815 0
M  V30 1258 H 114.78 -0.181327 -0.651227 0
M  V30 1259 H 117.334 -1.14713 -1.70382 0
M  V30 1260 H 115.564 0.221997 -3.86062 0
M  V30 1261 H 117.253 -0.148366 -4.05629 0
M  V30 1262 H 118.019 -2.63174 -4.07388 0
M  V30 1263 H 113.898 -1.44385 -4.37806 0
M  V30 1264 H 117.442 -4.83396 -5.02966 0
M  V30 1265 H 113.339 -3.63709 -5.33278 0
M  V30 1266 H 114.107 -5.61838 -5.95214 0
M  V30 1267 N 116.77 1.45427 -0.607355 0
M  V30 1268 C 118.019 2.01452 -0.100036 0
M  V30 1269 C 118.332 1.48159 1.27704 0
M  V30 1270 O 119.538 1.96159 1.87707 0
M  V30 1271 C 117.994 3.59672 -0.128158 0
M  V30 1272 C 117.602 4.21962 -1.50507 0
M  V30 1273 C 119.346 4.23262 0.323932 0
M  V30 1274 C 117.253 5.72333 -1.48959 0
M  V30 1275 H 116.183 0.75325 -0.0336299 0
M  V30 1276 H 118.834 1.66901 -0.76265 0
M  V30 1277 H 117.216 3.91411 0.601105 0
M  V30 1278 H 118.39 4.01796 -2.25602 0
M  V30 1279 H 116.705 3.70565 -1.89923 0
M  V30 1280 H 119.302 5.33522 0.354691 0
M  V30 1281 H 119.645 3.93921 1.34656 0
M  V30 1282 H 120.178 3.96239 -0.352056 0
M  V30 1283 H 116.917 6.06373 -2.48981 0
M  V30 1284 H 116.437 5.94691 -0.781214 0
M  V30 1285 H 118.116 6.35525 -1.21313 0
M  V30 1286 N 118.248 0.346503 1.53744 0
M  V30 1287 C 119.195 -0.508914 2.25119 0
M  V30 1288 C 120.165 -1.09315 1.25058 0
M  V30 1289 O 121.35 -1.12921 1.53797 0
M  V30 1290 C 118.49 -1.65246 3.02965 0
M  V30 1291 C 117.603 -1.09525 4.17886 0
M  V30 1292 C 116.738 -2.20634 4.83212 0
M  V30 1293 C 115.777 -1.62279 5.90196 0
M  V30 1294 N 114.914 -2.67143 6.49291 0
M  V30 1295 H 119.754 0.106283 2.9781 0
M  V30 1296 H 117.291 0.0642227 1.4696 0
M  V30 1297 H 119.249 -2.32574 3.4636 0
M  V30 1298 H 117.879 -2.2386 2.32565 0
M  V30 1299 H 116.931 -0.312818 3.79112 0
M  V30 1300 H 118.243 -0.628444 4.94825 0
M  V30 1301 H 117.397 -2.95821 5.29693 0
M  V30 1302 H 116.136 -2.70659 4.05703 0
M  V30 1303 H 115.141 -0.855989 5.43096 0
M  V30 1304 H 116.366 -1.13102 6.69615 0
M  V30 1305 H 114.312 -3.16417 5.74645 0
M  V30 1306 H 114.229 -2.25093 7.21713 0
M  V30 1307 H 115.497 -3.4209 7.00425 0
M  V30 1308 N 119.726 -1.57421 0.075193 0
M  V30 1309 C 120.951 -1.98364 -0.605515 0
M  V30 1310 C 121.376 -0.953383 -1.62149 0
M  V30 1311 O 120.734 0.0806053 -1.81121 0
M  V30 1312 C 120.782 -3.38332 -1.24756 0
M  V30 1313 O 119.886 -3.37959 -2.36342 0
M  V30 1314 H 119.227 -0.645553 -0.155428 0
M  V30 1315 H 121.757 -2.04044 0.150714 0
M  V30 1316 H 121.767 -3.75591 -1.5936 0
M  V30 1317 H 120.442 -4.12846 -0.503129 0
M  V30 1318 H 119.019 -3.12474 -2.03506 0
M  V30 1319 N 121.204 0.198386 -1.56346 0
M  V30 1320 C 122.481 0.944982 -1.71258 0
M  V30 1321 C 122.861 2.0151 -0.629048 0
M  V30 1322 O 122.209 2.25639 0.360473 0
M  V30 1323 C 122.419 1.5344 -3.1346 0
M  V30 1324 C 123.767 2.01778 -3.73591 0
M  V30 1325 O 124.791 1.63288 -3.16568 0
M  V30 1326 O 123.65 2.72594 -4.73661 0
M  V30 1327 H 120.744 0.442939 -0.69838 0
M  V30 1328 H 123.29 0.188342 -1.68652 0
M  V30 1329 H 122.062 0.762869 -3.83792 0
M  V30 1330 H 121.685 2.35596 -3.20282 0
M  V30 1331 N 122.682 1.50554 0.465978 0
M  V30 1332 C 123.922 1.63439 1.22747 0
M  V30 1333 C 124.286 0.329822 1.89146 0
M  V30 1334 O 125.487 0.334161 2.66715 0
M  V30 1335 C 123.758 2.78542 2.2394 0
M  V30 1336 S 125.317 3.11591 3.0896 0
M  V30 1337 H 122.135 0.576113 0.416672 0
M  V30 1338 H 124.737 1.88357 0.523641 0
M  V30 1339 H 123.441 3.71805 1.7375 0
M  V30 1340 H 122.972 2.55726 2.98944 0
M  V30 1341 H 124.987 2.55811 4.25176 0
M  V30 1342 N 124.16 -0.719506 1.40217 0
M  V30 1343 C 125.123 -1.8153 1.39927 0
M  V30 1344 C 126.123 -1.58095 0.293723 0
M  V30 1345 O 127.313 -1.65209 0.552429 0
M  V30 1346 C 124.445 -3.19561 1.18716 0
M  V30 1347 H 125.638 -1.83186 2.37451 0
M  V30 1348 H 123.191 -0.924746 1.26008 0
M  V30 1349 H 123.926 -3.23557 0.219366 0
M  V30 1350 H 123.711 -3.3797 1.98793 0
M  V30 1351 H 125.201 -3.99598 1.21291 0
M  V30 1352 N 125.638 -1.25649 -0.95132 0
M  V30 1353 C 126.887 -1.09988 -1.69073 0
M  V30 1354 C 127.2 0.358355 -1.92289 0
M  V30 1355 O 128.406 0.635466 -2.63958 0
M  V30 1356 C 126.862 -1.92012 -3.044 0
M  V30 1357 C 126.47 -3.42347 -2.88968 0
M  V30 1358 C 128.214 -1.8493 -3.82101 0
M  V30 1359 C 126.121 -4.16655 -4.19705 0
M  V30 1360 H 125.051 -0.407993 -0.63408 0
M  V30 1361 H 127.702 -1.49873 -1.05879 0
M  V30 1362 H 126.084 -1.44952 -3.68517 0
M  V30 1363 H 127.258 -3.97104 -2.33762 0
M  V30 1364 H 125.573 -3.50557 -2.24719 0
M  V30 1365 H 128.17 -2.37739 -4.78941 0
M  V30 1366 H 128.513 -0.817883 -4.08187 0
M  V30 1367 H 129.046 -2.29758 -3.2474 0
M  V30 1368 H 125.785 -5.20224 -3.98807 0
M  V30 1369 H 125.305 -3.66681 -4.74663 0
M  V30 1370 H 126.984 -4.24551 -4.88227 0
M  V30 1371 N 127.117 1.15442 -1.07289 0
M  V30 1372 C 128.366 1.85557 -0.790669 0
M  V30 1373 C 128.679 1.83186 0.685739 0
M  V30 1374 O 129.885 2.48977 1.0827 0
M  V30 1375 C 128.341 3.33038 -1.36433 0
M  V30 1376 C 127.949 3.43856 -2.8717 0
M  V30 1377 C 129.693 4.0834 -1.1601 0
M  V30 1378 C 127.6 4.85482 -3.3773 0
M  V30 1379 H 126.53 0.695122 -0.292098 0
M  V30 1380 H 129.181 1.30219 -1.29287 0
M  V30 1381 H 127.563 3.88043 -0.789864 0
M  V30 1382 H 128.737 2.98961 -3.50655 0
M  V30 1383 H 127.052 2.81998 -3.06376 0
M  V30 1384 H 129.649 5.12859 -1.51262 0
M  V30 1385 H 129.992 4.16182 -0.0991007 0
M  V30 1386 H 130.525 3.59603 -1.70089 0
M  V30 1387 H 127.264 4.82823 -4.43353 0
M  V30 1388 H 126.784 5.30961 -2.78999 0
M  V30 1389 H 128.463 5.54335 -3.33648 0
M  V30 1390 N 128.595 0.856903 1.32268 0
M  V30 1391 C 129.528 0.247937 2.26849 0
M  V30 1392 C 130.506 -0.615382 1.50505 0
M  V30 1393 O 131.69 -0.571689 1.79622 0
M  V30 1394 C 128.817 -0.650093 3.32403 0
M  V30 1395 C 127.863 0.140138 4.2627 0
M  V30 1396 S 128.696 1.51004 5.13769 0
M  V30 1397 C 129.852 0.61778 6.22844 0
M  V30 1398 H 130.085 1.04971 2.78152 0
M  V30 1399 H 127.618 0.654665 1.39834 0
M  V30 1400 H 129.576 -1.16256 3.93694 0
M  V30 1401 H 128.237 -1.4257 2.7988 0
M  V30 1402 H 127.43 -0.543945 5.01056 0
M  V30 1403 H 127.032 0.584267 3.69408 0
M  V30 1404 H 129.324 -0.177053 6.77269 0
M  V30 1405 H 130.267 1.33636 6.95375 0
M  V30 1406 H 130.675 0.191124 5.64176 0
M  V30 1407 N 130.073 -1.45103 0.615059 0
M  V30 1408 C 131.32 -2.02183 0.113179 0
M  V30 1409 C 131.648 -1.48249 -1.25906 0
M  V30 1410 O 130.903 -0.650265 -1.84581 0
M  V30 1411 C 131.202 -3.57386 0.0318797 0
M  V30 1412 C 130.868 -4.30505 1.34077 0
M  V30 1413 C 129.53 -4.50197 1.69929 0
M  V30 1414 C 131.882 -4.72238 2.20546 0
M  V30 1415 C 129.21 -5.08881 2.91988 0
M  V30 1416 C 131.562 -5.32272 3.41861 0
M  V30 1417 C 130.226 -5.50187 3.77956 0
M  V30 1418 H 129.496 -0.739842 0.0414151 0
M  V30 1419 H 132.143 -1.74073 0.798168 0
M  V30 1420 H 130.448 -3.84817 -0.736409 0
M  V30 1421 H 132.145 -3.99264 -0.372712 0
M  V30 1422 H 128.735 -4.15496 1.05173 0
M  V30 1423 H 132.919 -4.56751 1.94146 0
M  V30 1424 H 128.175 -5.20939 3.2005 0
M  V30 1425 H 132.349 -5.63563 4.09109 0
M  V30 1426 H 129.976 -5.95427 4.72622 0
M  V30 1427 N 131.551 -0.354651 -1.53558 0
M  V30 1428 C 132.828 0.294281 -1.93374 0
M  V30 1429 C 133.208 1.67313 -1.28723 0
M  V30 1430 O 132.556 2.24179 -0.442247 0
M  V30 1431 C 132.766 0.355445 -3.47185 0
M  V30 1432 C 134.114 0.601007 -4.20325 0
M  V30 1433 O 135.138 0.437106 -3.53508 0
M  V30 1434 O 133.997 0.919322 -5.38712 0
M  V30 1435 H 131.091 0.174033 -0.808481 0
M  V30 1436 H 133.637 -0.406638 -1.64756 0
M  V30 1437 H 132.409 -0.611729 -3.86489 0
M  V30 1438 H 132.032 1.1027 -3.82003 0
M  V30 1439 N 133.029 1.57378 -0.0835403 0
M  V30 1440 C 134.275 1.94217 0.583733 0
M  V30 1441 C 134.608 0.964653 1.68547 0
M  V30 1442 O 133.883 -0.00422258 1.945 0
M  V30 1443 C 134.166 3.41253 1.14972 0
M  V30 1444 C 134.019 4.49768 0.0538277 0
M  V30 1445 C 135.338 3.89352 2.05166 0
M  V30 1446 H 132.457 0.706233 0.210724 0
M  V30 1447 H 135.099 1.89392 -0.1519 0
M  V30 1448 H 133.249 3.45496 1.77665 0
M  V30 1449 H 134.921 4.57641 -0.579851 0
M  V30 1450 H 133.164 4.29432 -0.614068 0
M  V30 1451 H 133.835 5.49817 0.490452 0
M  V30 1452 H 136.311 3.87189 1.52393 0
M  V30 1453 H 135.187 4.92822 2.41698 0
M  V30 1454 H 135.448 3.27973 2.96456 0
M  V30 1455 N 134.507 -0.190092 1.56449 0
M  V30 1456 C 135.732 -0.929864 1.85387 0
M  V30 1457 C 136.157 -1.7585 0.667704 0
M  V30 1458 O 135.515 -1.77198 -0.383459 0
M  V30 1459 C 135.563 -1.79773 3.12593 0
M  V30 1460 O 134.667 -2.89713 2.93496 0
M  V30 1461 H 134.008 -0.261574 0.610307 0
M  V30 1462 H 136.538 -0.193896 2.03679 0
M  V30 1463 H 136.548 -2.20139 3.43515 0
M  V30 1464 H 135.223 -1.18892 3.98544 0
M  V30 1465 H 133.8 -2.53065 2.73884 0
M  V30 1466 N 135.985 -1.50799 -0.457987 0
M  V30 1467 C 137.21 -1.66496 -1.23668 0
M  V30 1468 C 137.635 -0.353288 -1.84752 0
M  V30 1469 O 136.993 0.684346 -1.67888 0
M  V30 1470 C 137.041 -2.76763 -2.3116 0
M  V30 1471 O 136.145 -2.38928 -3.36136 0
M  V30 1472 H 135.486 -0.555828 -0.363252 0
M  V30 1473 H 138.016 -1.9725 -0.543474 0
M  V30 1474 H 138.026 -3.00232 -2.76269 0
M  V30 1475 H 136.701 -3.71954 -1.86073 0
M  V30 1476 H 135.278 -2.25953 -2.96647 0
M  V30 1477 N 137.463 0.71206 -1.40597 0
M  V30 1478 C 138.879 1.02058 -1.22704 0
M  V30 1479 C 139.079 2.01228 -0.104729 0
M  V30 1480 O 138.135 2.4674 0.53624 0
M  V30 1481 C 139.448 1.56094 -2.57012 0
M  V30 1482 C 140.996 1.6806 -2.64054 0
M  V30 1483 C 141.471 2.25501 -3.9864 0
M  V30 1484 N 142.962 2.32882 -4.004 0
M  V30 1485 C 143.697 2.78317 -5.01325 0
M  V30 1486 N 143.193 3.23478 -6.12645 0
M  V30 1487 N 144.986 2.77733 -4.88693 0
M  V30 1488 H 137.137 0.0547896 -2.12329 0
M  V30 1489 H 139.4 0.0869027 -0.944008 0
M  V30 1490 H 139.106 0.906865 -3.39807 0
M  V30 1491 H 138.98 2.54564 -2.78347 0
M  V30 1492 H 141.367 2.32583 -1.81629 0
M  V30 1493 H 141.448 0.681802 -2.46546 0
M  V30 1494 H 141.092 1.61598 -4.81506 0
M  V30 1495 H 141.022 3.26102 -4.13479 0
M  V30 1496 H 143.513 2.00991 -3.20017 0
M  V30 1497 H 143.826 3.56725 -6.85542 0
M  V30 1498 H 142.171 3.21429 -6.16205 0
M  V30 1499 H 145.362 2.4179 -4.00818 0
M  V30 1500 H 145.535 3.12826 -5.67489 0
M  V30 1501 N 138.941 1.26152 0.944643 0
M  V30 1502 C 140.19 1.10883 1.68487 0
M  V30 1503 C 140.503 -0.348153 1.92477 0
M  V30 1504 O 141.709 -0.621459 2.64292 0
M  V30 1505 C 140.165 1.93624 3.03377 0
M  V30 1506 C 139.773 3.43875 2.87148 0
M  V30 1507 C 141.517 1.86954 3.81115 0
M  V30 1508 C 139.424 4.18875 4.1749 0
M  V30 1509 H 138.354 0.41135 0.631907 0
M  V30 1510 H 141.005 1.50433 1.05082 0
M  V30 1511 H 139.387 1.46904 3.67743 0
M  V30 1512 H 140.561 3.98338 2.31653 0
M  V30 1513 H 138.876 3.51744 2.22856 0
M  V30 1514 H 141.473 2.40275 4.77673 0
M  V30 1515 H 141.816 0.839518 4.07747 0
M  V30 1516 H 142.349 2.31477 3.23517 0
M  V30 1517 H 139.088 5.22332 3.96043 0
M  V30 1518 H 138.608 3.69193 4.72712 0
M  V30 1519 H 140.287 4.27134 4.85968 0
M  V30 1520 N 140.419 -1.14872 1.07899 0
M  V30 1521 C 141.647 -1.89661 0.82683 0
M  V30 1522 C 142.062 -1.78312 -0.620519 0
M  V30 1523 O 141.419 -1.13888 -1.42604 0
M  V30 1524 C 141.47 -3.39817 1.23316 0
M  V30 1525 O 141.191 -3.50845 2.62372 0
M  V30 1526 C 142.692 -4.31615 1.0111 0
M  V30 1527 H 139.912 -0.60092 0.298557 0
M  V30 1528 H 142.456 -1.4551 1.43691 0
M  V30 1529 H 140.611 -3.8161 0.667286 0
M  V30 1530 H 141.025 -4.44076 2.79101 0
M  V30 1531 H 142.499 -5.35367 1.34486 0
M  V30 1532 H 142.976 -4.39169 -0.0522168 0
M  V30 1533 H 143.582 -3.95572 1.56215 0
M  V30 1534 N 141.898 -0.863906 -1.31812 0
M  V30 1535 C 143.128 -0.485406 -2.00817 0
M  V30 1536 C 143.536 0.925007 -1.65046 0
M  V30 1537 O 142.879 1.61653 -0.872574 0
M  V30 1538 C 142.941 -0.555589 -3.55181 0
M  V30 1539 C 142.605 -1.92654 -4.14407 0
M  V30 1540 C 143.602 -2.89324 -4.31958 0
M  V30 1541 C 141.287 -2.2262 -4.50273 0
M  V30 1542 C 143.281 -4.14108 -4.84555 0
M  V30 1543 C 140.968 -3.47654 -5.02573 0
M  V30 1544 C 141.966 -4.43214 -5.19664 0
M  V30 1545 O 141.654 -5.66033 -5.70843 0
M  V30 1546 H 141.386 -0.188224 -0.649267 0
M  V30 1547 H 143.94 -1.16514 -1.69156 0
M  V30 1548 H 142.17 0.181037 -3.86276 0
M  V30 1549 H 143.859 -0.19138 -4.05449 0
M  V30 1550 H 144.625 -2.6748 -4.04573 0
M  V30 1551 H 140.504 -1.4902 -4.3625 0
M  V30 1552 H 144.048 -4.88703 -4.9781 0
M  V30 1553 H 139.945 -3.69345 -5.29391 0
M  V30 1554 H 140.713 -5.6812 -5.89222 0
M  V30 1555 N 143.376 1.44774 -0.622745 0
M  V30 1556 C 144.323 2.30635 0.0871679 0
M  V30 1557 C 145.293 1.42994 0.845097 0
M  V30 1558 O 146.478 1.71907 0.827812 0
M  V30 1559 C 143.618 3.28144 1.06844 0
M  V30 1560 C 142.731 4.30888 0.309809 0
M  V30 1561 C 141.866 5.15494 1.28215 0
M  V30 1562 C 140.905 6.09953 0.512198 0
M  V30 1563 N 140.042 6.87287 1.43458 0
M  V30 1564 H 144.882 2.90803 -0.650974 0
M  V30 1565 H 142.419 1.43286 -0.33281 0
M  V30 1566 H 144.377 3.83157 1.65066 0
M  V30 1567 H 143.007 2.69695 1.77382 0
M  V30 1568 H 142.059 3.78414 -0.388181 0
M  V30 1569 H 143.371 4.97955 -0.290254 0
M  V30 1570 H 142.525 5.74983 1.93596 0
M  V30 1571 H 141.264 4.48481 1.91614 0
M  V30 1572 H 140.269 5.49581 -0.155151 0
M  V30 1573 H 141.494 6.78999 -0.116958 0
M  V30 1574 H 139.44 6.2295 2.05594 0
M  V30 1575 H 139.357 7.50763 0.888335 0
M  V30 1576 H 140.625 7.51306 2.07749 0
M  V30 1577 N 144.854 0.36279 1.53368 0
M  V30 1578 C 145.802 -0.500155 2.27159 0
M  V30 1579 C 146.796 -1.08575 1.3003 0
M  V30 1580 O 148.002 -1.02927 1.47668 0
M  V30 1581 H 144.377 -0.180009 0.730138 0
M  V30 1582 H 146.348 0.14401 2.98052 0
M  V30 1583 C 145.097 -1.62937 3.07159 0
M  V30 1584 H 144.42 -1.18806 3.8174 0
M  V30 1585 H 145.86 -2.20795 3.61975 0
M  V30 1586 C 144.319 -2.57007 2.17829 0
M  V30 1587 O 144.849 -3.59752 1.78721 0
M  V30 1588 N 143.055 -2.26131 1.82518 0
M  V30 1589 H 142.602 -1.42616 2.14519 0
M  V30 1590 H 142.56 -2.89327 1.23034 0
M  V30 1591 N 146.332 -1.57332 0.0918853 0
M  V30 1592 C 147.578 -1.94524 -0.573425 0
M  V30 1593 C 147.911 -0.973578 -1.68033 0
M  V30 1594 O 147.186 -0.00609226 -1.94499 0
M  V30 1595 C 147.469 -3.41858 -1.13161 0
M  V30 1596 C 147.322 -4.4979 -0.0299747 0
M  V30 1597 C 148.641 -3.90435 -2.03098 0
M  V30 1598 H 145.76 -0.70734 -0.206975 0
M  V30 1599 H 148.402 -1.89309 0.161942 0
M  V30 1600 H 146.552 -3.46433 -1.7583 0
M  V30 1601 H 148.224 -4.57327 0.604112 0
M  V30 1602 H 146.467 -4.291 0.636833 0
M  V30 1603 H 147.138 -5.50069 -0.461287 0
M  V30 1604 H 149.614 -3.87992 -1.50338 0
M  V30 1605 H 148.49 -4.94097 -2.39081 0
M  V30 1606 H 148.751 -3.29541 -2.94712 0
M  V30 1607 N 147.81 0.181792 -1.56548 0
M  V30 1608 C 149.221 0.745244 -1.71181 0
M  V30 1609 C 149.572 1.83262 -0.70068 0
M  V30 1610 O 148.697 2.15946 0.140154 0
M  V30 1611 C 149.292 1.35859 -3.10367 0
M  V30 1612 C 147.851 1.86898 -3.2672 0
M  V30 1613 C 146.998 0.743942 -2.67134 0
M  V30 1614 H 149.949 -0.0434661 -1.5864 0
M  V30 1615 H 149.97 2.22817 -3.08436 0
M  V30 1616 H 149.482 0.566948 -3.83937 0
M  V30 1617 H 147.583 2.68738 -2.5809 0
M  V30 1618 H 147.696 2.02162 -4.34359 0
M  V30 1619 H 146.06 1.16169 -2.26665 0
M  V30 1620 H 146.843 -0.035676 -3.43281 0
M  V30 1621 N 149.288 1.51039 0.449983 0
M  V30 1622 C 150.236 1.71995 1.5659 0
M  V30 1623 C 151.23 0.586029 1.5894 0
M  V30 1624 O 152.436 0.76709 1.62837 0
M  V30 1625 H 148.811 0.543233 0.520001 0
M  V30 1626 H 150.782 2.65562 1.36085 0
M  V30 1627 C 149.531 1.8506 2.9436 0
M  V30 1628 H 148.854 2.71712 2.93279 0
M  V30 1629 H 150.294 2.0374 3.71842 0
M  V30 1630 C 148.753 0.607277 3.31382 0
M  V30 1631 O 149.283 -0.243903 4.00959 0
M  V30 1632 N 147.489 0.455073 2.87015 0
M  V30 1633 H 147.036 1.14879 2.30566 0
M  V30 1634 H 146.994 -0.375611 3.12148 0
M  V30 1635 N 150.766 -0.704594 1.40972 0
M  V30 1636 C 152.012 -1.46546 1.41053 0
M  V30 1637 C 152.367 -1.92393 0.0159714 0
M  V30 1638 O 151.66 -1.66017 -0.956506 0
M  V30 1639 C 151.854 -2.698 2.34399 0
M  V30 1640 C 151.683 -2.36008 3.82793 0
M  V30 1641 C 150.453 -2.26812 4.51536 0
M  V30 1642 C 152.651 -1.99565 4.74003 0
M  V30 1643 N 150.633 -1.8581 5.85105 0
M  V30 1644 C 152.004 -1.69251 5.96451 0
M  V30 1645 C 154.059 -1.86296 4.61734 0
M  V30 1646 C 152.762 -1.27003 7.07999 0
M  V30 1647 C 154.788 -1.45452 5.73234 0
M  V30 1648 C 154.15 -1.16043 6.94776 0
M  V30 1649 H 150.249 -0.533896 0.571383 0
M  V30 1650 H 152.833 -0.816061 1.76773 0
M  V30 1651 H 151.004 -3.32473 2.00789 0
M  V30 1652 H 152.736 -3.36214 2.25261 0
M  V30 1653 H 149.491 -2.44913 4.05357 0
M  V30 1654 H 149.915 -1.67817 6.55871 0
M  V30 1655 H 154.557 -2.0769 3.68273 0
M  V30 1656 H 152.275 -1.04353 8.01334 0
M  V30 1657 H 155.861 -1.35748 5.65742 0
M  V30 1658 H 154.741 -0.84915 7.79589 0
M  V30 1659 N 152.244 -1.26651 -0.937939 0
M  V30 1660 C 153.474 -1.15006 -1.71631 0
M  V30 1661 C 153.882 0.297026 -1.86854 0
M  V30 1662 O 153.225 1.21493 -1.37786 0
M  V30 1663 C 153.287 -1.74984 -3.14039 0
M  V30 1664 C 152.951 -3.24103 -3.2219 0
M  V30 1665 C 153.948 -4.20877 -3.05219 0
M  V30 1666 C 151.633 -3.64625 -3.45476 0
M  V30 1667 C 153.627 -5.56151 -3.11408 0
M  V30 1668 C 151.314 -5.00032 -3.513 0
M  V30 1669 C 152.312 -5.95604 -3.34282 0
M  V30 1670 O 152 -7.28545 -3.3982 0
M  V30 1671 H 151.732 -0.401183 -0.544085 0
M  V30 1672 H 154.286 -1.67832 -1.18413 0
M  V30 1673 H 152.516 -1.16624 -3.68695 0
M  V30 1674 H 154.205 -1.58199 -3.73802 0
M  V30 1675 H 154.971 -3.90908 -2.87081 0
M  V30 1676 H 150.85 -2.90718 -3.57777 0
M  V30 1677 H 154.394 -6.30727 -2.98043 0
M  V30 1678 H 150.291 -5.29659 -3.68959 0
M  V30 1679 H 151.059 -7.3686 -3.56343 0
M  V30 1680 N 153.722 1.14298 -1.08507 0
M  V30 1681 C 155.138 1.37347 -0.812901 0
M  V30 1682 C 155.338 1.93052 0.577325 0
M  V30 1683 O 154.394 2.14389 1.33393 0
M  V30 1684 C 155.707 2.33359 -1.89642 0
M  V30 1685 C 157.255 2.46996 -1.92255 0
M  V30 1686 C 157.73 3.46309 -2.99724 0
M  V30 1687 N 159.221 3.53853 -2.98902 0
M  V30 1688 C 159.956 4.3055 -3.787 0
M  V30 1689 N 159.452 5.10482 -4.6838 0
M  V30 1690 N 161.245 4.25757 -3.66998 0
M  V30 1691 H 153.396 0.764867 -1.9815 0
M  V30 1692 H 155.659 0.398966 -0.859959 0
M  V30 1693 H 155.365 1.99565 -2.89597 0
M  V30 1694 H 155.239 3.33274 -1.76659 0
M  V30 1695 H 157.626 2.80081 -0.929445 0
M  V30 1696 H 157.707 1.47039 -2.09316 0
M  V30 1697 H 157.351 3.13957 -3.99241 0
M  V30 1698 H 157.281 4.46049 -2.79907 0
M  V30 1699 H 159.772 2.96812 -2.33904 0
M  V30 1700 H 160.085 5.66284 -5.25873 0
M  V30 1701 H 158.43 5.09747 -4.72422 0
M  V30 1702 H 161.621 3.62383 -2.96304 0
M  V30 1703 H 161.794 4.85279 -4.29427 0
M  V30 1704 N 155.201 0.870884 1.31352 0
M  V30 1705 C 156.478 0.402907 1.91405 0
M  V30 1706 C 156.858 -1.11512 1.79244 0
M  V30 1707 O 156.206 -1.94411 1.2007 0
M  V30 1708 C 156.416 0.885301 3.37585 0
M  V30 1709 C 157.764 0.911971 4.14691 0
M  V30 1710 O 158.788 0.831016 3.46371 0
M  V30 1711 O 157.647 1.02927 5.3672 0
M  V30 1712 H 154.741 0.120698 0.818145 0
M  V30 1713 H 157.287 0.958857 1.40014 0
M  V30 1714 H 156.059 1.92889 3.40455 0
M  V30 1715 H 155.682 0.307714 3.96407 0
M  V30 1716 N 156.679 -1.44442 0.630414 0
M  V30 1717 C 157.928 -2.01267 0.132073 0
M  V30 1718 C 158.241 -1.50172 -1.25331 0
M  V30 1719 O 159.447 -1.9912 -1.84562 0
M  V30 1720 C 157.903 -3.59422 0.185362 0
M  V30 1721 C 157.511 -4.19514 1.57201 0
M  V30 1722 C 159.255 -4.23724 -0.256553 0
M  V30 1723 C 157.162 -5.69891 1.58045 0
M  V30 1724 H 156.092 -0.752619 0.0456092 0
M  V30 1725 H 158.743 -1.65666 0.789106 0
M  V30 1726 H 157.125 -3.92318 -0.538759 0
M  V30 1727 H 158.299 -3.98156 2.31966 0
M  V30 1728 H 156.614 -3.67496 1.95795 0
M  V30 1729 H 159.211 -5.34019 -0.269767 0
M  V30 1730 H 159.554 -3.96013 -1.28372 0
M  V30 1731 H 160.087 -3.95629 0.41505 0
M  V30 1732 H 156.826 -6.02336 2.58597 0
M  V30 1733 H 156.346 -5.93373 0.875725 0
M  V30 1734 H 158.025 -6.33515 1.31408 0
M  V30 1735 N 158.157 -0.370918 -1.53173 0
M  V30 1736 C 159.385 0.217704 -2.05751 0
M  V30 1737 C 159.8 1.42018 -1.24404 0
M  V30 1738 O 159.157 1.80245 -0.286033 0
M  V30 1739 C 159.208 0.605954 -3.56385 0
M  V30 1740 O 158.929 -0.548734 -4.3465 0
M  V30 1741 C 160.43 1.2524 -4.25241 0
M  V30 1742 H 157.65 0.0371659 -0.66997 0
M  V30 1743 H 160.194 -0.530832 -1.9749 0
M  V30 1744 H 158.349 1.3044 -3.6478 0
M  V30 1745 H 158.763 -0.23376 -5.23979 0
M  V30 1746 H 160.237 1.47458 -5.3194 0
M  V30 1747 H 160.714 2.2143 -3.79296 0
M  V30 1748 H 161.32 0.595233 -4.21114 0
M  V30 1749 N 159.635 1.57281 -0.100228 0
M  V30 1750 C 161.051 1.57527 0.256416 0
M  V30 1751 C 161.251 1.11173 1.68056 0
M  V30 1752 O 160.307 0.79053 2.39806 0
M  V30 1753 C 161.62 3.00673 0.0401747 0
M  V30 1754 C 163.168 3.12815 0.107528 0
M  V30 1755 C 163.643 4.57929 -0.0807834 0
M  V30 1756 N 165.134 4.63193 -0.0261207 0
M  V30 1757 C 165.869 5.73212 -0.146999 0
M  V30 1758 N 165.365 6.92047 -0.322999 0
M  V30 1759 N 167.158 5.62031 -0.0879044 0
M  V30 1760 H 159.309 1.85718 -1.03065 0
M  V30 1761 H 161.572 0.857446 -0.404339 0
M  V30 1762 H 161.278 3.38804 -0.943649 0
M  V30 1763 H 161.152 3.69042 0.780262 0
M  V30 1764 H 163.539 2.74554 1.08186 0
M  V30 1765 H 163.62 2.47028 -0.664134 0
M  V30 1766 H 163.264 4.96886 -1.05201 0
M  V30 1767 H 163.194 5.21783 0.710635 0
M  V30 1768 H 165.685 3.77748 0.107161 0
M  V30 1769 H 165.998 7.7173 -0.406608 0
M  V30 1770 H 164.343 6.94074 -0.358733 0
M  V30 1771 H 167.534 4.68075 0.048498 0
M  V30 1772 H 167.707 6.47734 -0.185557 0
M  V30 1773 N 161.113 -0.173488 1.56642 0
M  V30 1774 C 162.359 -0.891784 1.8214 0
M  V30 1775 C 162.692 -1.8199 0.677736 0
M  V30 1776 O 161.967 -1.91842 -0.320446 0
M  V30 1777 C 162.25 -1.68933 3.18015 0
M  V30 1778 C 162.103 -0.784487 4.42906 0
M  V30 1779 C 163.422 -2.65748 3.50808 0
M  V30 1780 H 160.541 -0.322761 0.662567 0
M  V30 1781 H 163.183 -0.158095 1.89341 0
M  V30 1782 H 161.333 -2.31482 3.12007 0
M  V30 1783 H 163.005 -0.172046 4.60979 0
M  V30 1784 H 161.248 -0.0924117 4.33702 0
M  V30 1785 H 161.919 -1.37799 5.34524 0
M  V30 1786 H 164.395 -2.13327 3.57255 0
M  V30 1787 H 163.271 -3.18619 4.4696 0
M  V30 1788 H 163.532 -3.45842 2.75401 0
M  V30 1789 N 162.591 -1.51276 -0.441967 0
M  V30 1790 C 163.831 -1.65372 -1.20132 0
M  V30 1791 C 164.195 -0.359871 -1.88597 0
M  V30 1792 O 165.396 -0.376551 -2.66149 0
M  V30 1793 C 163.667 -2.8207 -2.1948 0
M  V30 1794 S 165.226 -3.16467 -3.03964 0
M  V30 1795 H 162.044 -0.582669 -0.407453 0
M  V30 1796 H 164.646 -1.89166 -0.493609 0
M  V30 1797 H 163.35 -3.74523 -1.67812 0
M  V30 1798 H 162.881 -2.6045 -2.94838 0
M  V30 1799 H 164.896 -2.62543 -4.21053 0
M  V30 1800 N 164.069 0.697108 -1.41344 0
M  V30 1801 C 164.979 1.84088 -1.45427 0
M  V30 1802 C 165.995 1.70545 -0.34501 0
M  V30 1803 O 167.171 1.92488 -0.592492 0
M  V30 1804 C 164.236 3.20056 -1.33286 0
M  V30 1805 C 163.297 3.45718 -2.54514 0
M  V30 1806 C 162.53 4.75199 -2.42944 0
M  V30 1807 O 162.753 5.51579 -1.45318 0
M  V30 1808 O 161.687 5.0161 -3.32672 0
M  V30 1809 H 165.513 1.836 -2.41919 0
M  V30 1810 H 163.098 0.849966 -1.22866 0
M  V30 1811 H 164.98 4.01236 -1.28794 0
M  V30 1812 H 163.655 3.2123 -0.39909 0
M  V30 1813 H 162.562 2.64474 -2.64583 0
M  V30 1814 H 163.895 3.49356 -3.46715 0
M  V30 1815 N 165.547 1.27147 0.931209 0
M  V30 1816 C 166.775 1.16082 1.71267 0
M  V30 1817 C 167.19 -0.282772 1.8667 0
M  V30 1818 O 166.547 -1.19283 1.38122 0
M  V30 1819 C 166.598 1.8358 3.11417 0
M  V30 1820 O 166.319 3.22299 2.96741 0
M  V30 1821 C 167.82 1.78597 4.05732 0
M  V30 1822 H 165.04 0.403758 0.535929 0
M  V30 1823 H 167.584 1.67953 1.16671 0
M  V30 1824 H 165.739 1.35623 3.62885 0
M  V30 1825 H 166.153 3.55851 3.85319 0
M  V30 1826 H 167.627 2.30444 5.01597 0
M  V30 1827 H 168.104 0.754564 4.3267 0
M  V30 1828 H 168.71 2.26152 3.60188 0
M  V30 1829 N 167.025 -1.13721 1.09112 0
M  V30 1830 C 168.274 -1.84275 0.82009 0
M  V30 1831 C 168.587 -1.84253 -0.656509 0
M  V30 1832 O 169.793 -2.50668 -1.04296 0
M  V30 1833 C 168.249 -3.30825 1.41714 0
M  V30 1834 C 167.857 -3.39244 2.92605 0
M  V30 1835 C 169.601 -4.06443 1.22492 0
M  V30 1836 C 167.508 -4.80047 3.45411 0
M  V30 1837 H 166.438 -0.690387 0.30312 0
M  V30 1838 H 169.089 -1.28146 1.31343 0
M  V30 1839 H 167.471 -3.86737 0.851498 0
M  V30 1840 H 168.645 -2.93344 3.55367 0
M  V30 1841 H 166.96 -2.77088 3.10823 0
M  V30 1842 H 169.557 -5.10387 1.59402 0
M  V30 1843 H 169.9 -4.15972 0.165299 0
M  V30 1844 H 170.433 -3.56852 1.75788 0
M  V30 1845 H 167.172 -4.75709 4.50978 0
M  V30 1846 H 166.692 -5.26455 2.87411 0
M  V30 1847 H 168.371 -5.48957 3.42425 0
M  V30 1848 N 168.503 -0.877838 -1.30888 0
M  V30 1849 C 169.914 -0.544193 -1.78593 0
M  V30 1850 C 170.265 0.939301 -1.72254 0
M  V30 1851 O 169.39 1.7337 -1.29505 0
M  V30 1852 C 169.985 -0.98105 -3.24285 0
M  V30 1853 C 168.544 -0.698935 -3.69854 0
M  V30 1854 C 167.691 -1.168 -2.51502 0
M  V30 1855 H 170.642 -1.06278 -1.17859 0
M  V30 1856 H 170.663 -0.307009 -3.79259 0
M  V30 1857 H 170.175 -2.06079 -3.28866 0
M  V30 1858 H 168.276 0.369112 -3.70767 0
M  V30 1859 H 168.389 -1.28148 -4.61644 0
M  V30 1860 H 166.753 -0.587535 -2.47831 0
M  V30 1861 H 167.536 -2.25533 -2.58824 0
M  V30 1862 N 169.982 1.44106 -0.638065 0
M  V30 1863 C 170.915 2.27924 0.112161 0
M  V30 1864 C 171.893 1.38945 0.844574 0
M  V30 1865 O 173.077 1.68386 0.847248 0
M  V30 1866 C 170.204 3.18029 1.16512 0
M  V30 1867 C 169.25 4.23163 0.532458 0
M  V30 1868 S 170.083 5.31131 -0.682666 0
M  V30 1869 C 171.239 6.24805 0.37013 0
M  V30 1870 H 171.472 2.91205 -0.598887 0
M  V30 1871 H 169.005 1.48394 -0.426441 0
M  V30 1872 H 170.963 3.70492 1.76766 0
M  V30 1873 H 169.624 2.53955 1.8484 0
M  V30 1874 H 168.817 4.86252 1.32571 0
M  V30 1875 H 168.419 3.74 0.00437644 0
M  V30 1876 H 170.711 6.66042 1.24071 0
M  V30 1877 H 171.654 7.07741 -0.225349 0
M  V30 1878 H 172.062 5.60154 0.699141 0
M  V30 1879 N 171.46 0.379036 1.52974 0
M  V30 1880 C 172.706 -0.206727 2.01744 0
M  V30 1881 C 173.039 -1.47314 1.26539 0
M  V30 1882 O 172.314 -1.91084 0.362903 0
M  V30 1883 C 172.597 -0.485066 3.56818 0
M  V30 1884 C 172.45 0.795919 4.42702 0
M  V30 1885 C 173.769 -1.28003 4.21074 0
M  V30 1886 H 170.888 -0.0736607 0.73331 0
M  V30 1887 H 173.53 0.506581 1.83122 0
M  V30 1888 H 171.68 -1.09272 3.72816 0
M  V30 1889 H 173.352 1.43307 4.38476 0
M  V30 1890 H 171.595 1.41344 4.10127 0
M  V30 1891 H 172.266 0.555947 5.49193 0
M  V30 1892 H 174.742 -0.765867 4.08991 0
M  V30 1893 H 173.618 -1.44352 5.29579 0
M  V30 1894 H 173.879 -2.29236 3.78026 0
M  V30 1895 N 172.938 -1.57226 0.108567 0
M  V30 1896 C 173.868 -2.17778 -0.84232 0
M  V30 1897 C 174.849 -1.11487 -1.2847 0
M  V30 1898 O 176.034 -1.39681 -1.34918 0
M  V30 1899 C 173.164 -2.76888 -2.09644 0
M  V30 1900 C 172.118 -3.88669 -1.79221 0
M  V30 1901 C 171.444 -4.34541 -3.11574 0
M  V30 1902 C 172.744 -5.11251 -1.06864 0
M  V30 1903 H 174.438 -2.97489 -0.337774 0
M  V30 1904 H 171.984 -1.43097 -0.161025 0
M  V30 1905 H 173.937 -3.17904 -2.76614 0
M  V30 1906 H 172.661 -1.94451 -2.62405 0
M  V30 1907 H 171.32 -3.48213 -1.14644 0
M  V30 1908 H 170.968 -3.48977 -3.62249 0
M  V30 1909 H 170.668 -5.09914 -2.91996 0
M  V30 1910 H 172.192 -4.782 -3.7968 0
M  V30 1911 H 173.606 -5.49352 -1.63968 0
M  V30 1912 H 172.003 -5.9214 -0.974178 0
M  V30 1913 H 173.073 -4.8487 -0.0536168 0
M  V30 1914 N 174.416 0.165178 -1.56732 0
M  V30 1915 C 175.662 0.882112 -1.82611 0
M  V30 1916 C 175.995 1.81628 -0.687378 0
M  V30 1917 O 175.27 1.92009 0.310267 0
M  V30 1918 C 175.553 1.67245 -3.18906 0
M  V30 1919 C 175.406 0.760987 -4.43316 0
M  V30 1920 C 176.725 2.63884 -3.52212 0
M  V30 1921 H 173.844 0.319242 -0.664269 0
M  V30 1922 H 176.486 0.148052 -1.89422 0
M  V30 1923 H 174.636 2.29824 -3.1323 0
M  V30 1924 H 176.308 0.147596 -4.61064 0
M  V30 1925 H 174.551 0.0694102 -4.33744 0
M  V30 1926 H 175.222 1.34962 -5.35247 0
M  V30 1927 H 177.698 2.11429 -3.58381 0
M  V30 1928 H 176.574 3.16245 -4.48643 0
M  V30 1929 H 176.835 3.44377 -2.77231 0
M  V30 1930 N 175.894 1.51508 0.433938 0
M  V30 1931 C 177.142 1.6402 1.18075 0
M  V30 1932 C 177.463 0.360328 1.91642 0
M  V30 1933 O 176.733 -0.623945 1.85698 0
M  V30 1934 H 175.313 0.6045 0.43885 0
M  V30 1935 H 177.975 1.88452 0.497178 0
M  V30 1936 H 177.071 2.46949 1.90847 0
M  V30 1937 N 177.372 -0.689602 1.41712 0
M  V30 1938 C 178.32 -1.82475 1.44242 0
M  V30 1939 C 179.314 -1.66354 0.319774 0
M  V30 1940 O 180.52 -1.73143 0.492089 0
M  V30 1941 H 176.895 -0.601416 0.451445 0
M  V30 1942 H 178.866 -1.77458 2.39899 0
M  V30 1943 C 177.615 -3.20535 1.3473 0
M  V30 1944 H 176.938 -3.33559 2.20405 0
M  V30 1945 H 178.378 -4.00023 1.40562 0
M  V30 1946 C 176.837 -3.36846 0.0603281 0
M  V30 1947 O 177.367 -3.91656 -0.892663 0
M  V30 1948 N 175.573 -2.90595 -0.0177039 0
M  V30 1949 H 175.12 -2.46178 0.758572 0
M  V30 1950 H 175.078 -3.01886 -0.878201 0
M  V30 1951 N 178.85 -1.27639 -0.924453 0
M  V30 1952 C 179.797 -1.10644 -2.0255 0
M  V30 1953 C 180.767 -0.00658438 -1.66099 0
M  V30 1954 O 181.952 -0.16952 -1.90045 0
M  V30 1955 C 179.092 -0.76309 -3.36557 0
M  V30 1956 C 178.205 -1.94091 -3.85944 0
M  V30 1957 C 177.34 -1.53914 -5.08413 0
M  V30 1958 C 176.379 -2.68425 -5.50104 0
M  V30 1959 N 175.516 -2.28815 -6.63768 0
M  V30 1960 H 180.356 -2.04858 -2.16419 0
M  V30 1961 H 177.893 -1.01974 -1.06017 0
M  V30 1962 H 179.851 -0.544822 -4.13627 0
M  V30 1963 H 178.481 0.142102 -3.22487 0
M  V30 1964 H 177.533 -2.27162 -3.05125 0
M  V30 1965 H 178.845 -2.7998 -4.12811 0
M  V30 1966 H 177.999 -1.28231 -5.92994 0
M  V30 1967 H 176.738 -0.651391 -4.8333 0
M  V30 1968 H 175.743 -2.94819 -4.64071 0
M  V30 1969 H 176.968 -3.57826 -5.7718 0
M  V30 1970 H 174.914 -1.42495 -6.40337 0
M  V30 1971 H 174.831 -3.08242 -6.90306 0
M  V30 1972 H 176.099 -2.06387 -7.51681 0
M  V30 1973 N 180.328 1.1314 -1.09713 0
M  V30 1974 C 181.574 1.84757 -0.836224 0
M  V30 1975 C 181.907 1.8347 0.636598 0
M  V30 1976 O 181.182 1.27491 1.46889 0
M  V30 1977 C 181.465 3.32782 -1.37578 0
M  V30 1978 C 181.318 3.42567 -2.91493 0
M  V30 1979 C 182.637 4.28307 -1.01198 0
M  V30 1980 H 179.756 0.67082 -0.305236 0
M  V30 1981 H 182.398 1.3278 -1.35903 0
M  V30 1982 H 180.548 3.77177 -0.931097 0
M  V30 1983 H 182.22 3.06862 -3.44432 0
M  V30 1984 H 180.463 2.83349 -3.28475 0
M  V30 1985 H 181.134 4.46674 -3.24324 0
M  V30 1986 H 183.61 3.91999 -1.39556 0
M  V30 1987 H 182.486 5.30307 -1.41653 0
M  V30 1988 H 182.747 4.42029 0.0794833 0
M  V30 1989 N 181.806 0.884767 1.30421 0
M  V30 1990 C 183.083 0.423185 1.90967 0
M  V30 1991 C 183.463 -1.09605 1.80416 0
M  V30 1992 O 182.811 -1.93126 1.22125 0
M  V30 1993 C 183.021 0.921056 3.36627 0
M  V30 1994 C 184.369 0.955903 4.137 0
M  V30 1995 O 185.393 0.867706 3.4547 0
M  V30 1996 O 184.252 1.08614 5.35598 0
M  V30 1997 H 181.346 0.129369 0.816819 0
M  V30 1998 H 183.892 0.973653 1.3899 0
M  V30 1999 H 182.664 1.96489 3.3839 0
M  V30 2000 H 182.287 0.349741 3.96059 0
M  V30 2001 N 183.284 -1.43765 0.645699 0
M  V30 2002 C 184.53 -2.02197 0.156271 0
M  V30 2003 C 184.863 -1.50776 -1.22393 0
M  V30 2004 O 184.138 -0.697771 -1.81553 0
M  V30 2005 C 184.421 -3.59749 0.158872 0
M  V30 2006 C 184.274 -4.21419 1.57245 0
M  V30 2007 C 185.593 -4.37149 -0.50879 0
M  V30 2008 H 182.712 -0.734694 0.0582602 0
M  V30 2009 H 185.354 -1.71157 0.824951 0
M  V30 2010 H 183.504 -3.86325 -0.410525 0
M  V30 2011 H 185.176 -4.059 2.19186 0
M  V30 2012 H 183.419 -3.78356 2.122 0
M  V30 2013 H 184.09 -5.30482 1.52619 0
M  V30 2014 H 186.566 -4.16093 -0.024412 0
M  V30 2015 H 185.442 -5.4683 -0.476213 0
M  V30 2016 H 185.703 -4.12839 -1.58165 0
M  V30 2017 N 184.763 -0.387143 -1.52771 0
M  V30 2018 C 185.71 0.449048 -2.26389 0
M  V30 2019 C 186.68 1.05961 -1.27912 0
M  V30 2020 O 187.865 1.08804 -1.56737 0
M  V30 2021 C 185.005 1.57155 -3.0724 0
M  V30 2022 C 184.118 0.984066 -4.20643 0
M  V30 2023 C 183.253 2.07745 -4.88892 0
M  V30 2024 C 182.292 1.46574 -5.94292 0
M  V30 2025 N 181.429 2.49834 -6.56146 0
M  V30 2026 H 186.269 -0.185205 -2.97424 0
M  V30 2027 H 183.806 -0.103164 -1.46738 0
M  V30 2028 H 185.764 2.23309 -3.52405 0
M  V30 2029 H 184.394 2.17615 -2.38419 0
M  V30 2030 H 183.446 0.212193 -3.79808 0
M  V30 2031 H 184.758 0.497029 -4.96318 0
M  V30 2032 H 183.912 2.81673 -5.3735 0
M  V30 2033 H 182.651 2.59807 -4.12737 0
M  V30 2034 H 181.656 0.711696 -5.45174 0
M  V30 2035 H 182.881 0.953088 -6.72379 0
M  V30 2036 H 180.827 3.0107 -5.82832 0
M  V30 2037 H 180.744 2.05879 -7.27427 0
M  V30 2038 H 182.012 3.23399 -7.09249 0
M  V30 2039 N 186.241 1.57166 -0.116904 0
M  V30 2040 C 187.518 1.86645 0.585049 0
M  V30 2041 C 187.898 1.0177 1.84949 0
M  V30 2042 O 187.246 0.0960379 2.28298 0
M  V30 2043 C 187.456 3.37736 0.879507 0
M  V30 2044 C 188.804 4.06289 1.23348 0
M  V30 2045 O 189.828 3.42743 0.969836 0
M  V30 2046 O 188.687 5.18455 1.7282 0
M  V30 2047 H 185.781 0.772593 0.295007 0
M  V30 2048 H 188.327 1.69025 -0.151249 0
M  V30 2049 H 187.099 3.91296 -0.0166136 0
M  V30 2050 H 186.722 3.6078 1.67103 0
M  V30 2051 N 187.719 -0.156864 1.56817 0
M  V30 2052 C 189.135 -0.50916 1.5126 0
M  V30 2053 C 189.335 -1.83897 0.823658 0
M  V30 2054 O 188.391 -2.49469 0.390055 0
M  V30 2055 C 189.704 -0.52857 2.96018 0
M  V30 2056 C 191.252 -0.614771 3.06903 0
M  V30 2057 C 191.727 -0.664938 4.53147 0
M  V30 2058 N 193.218 -0.727433 4.57452 0
M  V30 2059 C 193.953 -0.787067 5.67973 0
M  V30 2060 N 193.449 -0.806649 6.88088 0
M  V30 2061 N 195.242 -0.827195 5.5598 0
M  V30 2062 H 187.393 0.714935 2.00006 0
M  V30 2063 H 189.656 0.259526 0.911784 0
M  V30 2064 H 189.362 0.380154 3.49639 0
M  V30 2065 H 189.236 -1.36998 3.51442 0
M  V30 2066 H 191.623 -1.51392 2.53307 0
M  V30 2067 H 191.704 0.253597 2.5454 0
M  V30 2068 H 191.348 0.230011 5.07379 0
M  V30 2069 H 191.278 -1.54966 5.03282 0
M  V30 2070 H 193.769 -0.719998 3.70978 0
M  V30 2071 H 194.082 -0.853727 7.6807 0
M  V30 2072 H 192.427 -0.774687 6.90669 0
M  V30 2073 H 195.618 -0.808998 4.61056 0
M  V30 2074 H 195.791 -0.870206 6.4213 0
M  V30 2075 N 189.197 -1.51736 -0.425897 0
M  V30 2076 C 190.129 -1.70083 -1.53638 0
M  V30 2077 C 191.142 -0.581349 -1.52066 0
M  V30 2078 O 192.331 -0.856017 -1.56635 0
M  V30 2079 C 189.431 -1.71078 -2.9255 0
M  V30 2080 C 188.604 -2.99795 -3.185 0
M  V30 2081 C 187.663 -2.92825 -4.37196 0
M  V30 2082 O 186.689 -3.66756 -4.35291 0
M  V30 2083 N 187.891 -2.0946 -5.41393 0
M  V30 2084 H 190.656 -2.65882 -1.383 0
M  V30 2085 H 188.217 -1.49765 -0.614988 0
M  V30 2086 H 190.209 -1.63969 -3.69995 0
M  V30 2087 H 188.779 -0.828242 -3.01428 0
M  V30 2088 H 187.999 -3.20684 -2.2925 0
M  V30 2089 H 189.287 -3.84977 -3.32671 0
M  V30 2090 H 188.685 -1.48792 -5.45781 0
M  V30 2091 H 187.242 -2.08221 -6.17647 0
M  V30 2092 N 190.675 0.682077 -1.42076 0
M  V30 2093 C 191.921 1.44428 -1.42367 0
M  V30 2094 C 192.254 1.94164 -0.0373056 0
M  V30 2095 O 191.529 1.70429 0.937239 0
M  V30 2096 C 191.812 2.64654 -2.44194 0
M  V30 2097 C 191.665 2.20596 -3.91991 0
M  V30 2098 C 192.984 3.66865 -2.431 0
M  V30 2099 H 190.103 0.523834 -0.518428 0
M  V30 2100 H 192.745 0.77576 -1.73442 0
M  V30 2101 H 190.895 3.2169 -2.17826 0
M  V30 2102 H 192.567 1.68783 -4.29313 0
M  V30 2103 H 190.81 1.52242 -4.06208 0
M  V30 2104 H 191.481 3.06921 -4.58807 0
M  V30 2105 H 193.957 3.19531 -2.66532 0
M  V30 2106 H 192.833 4.48577 -3.16339 0
M  V30 2107 H 193.094 4.17493 -1.45437 0
M  V30 2108 N 192.153 1.28127 0.917671 0
M  V30 2109 C 193.1 1.11717 2.0196 0
M  V30 2110 C 194.07 0.0153929 1.66093 0
M  V30 2111 O 195.255 0.179596 1.89953 0
M  V30 2112 C 192.395 0.780927 3.36148 0
M  V30 2113 C 191.508 1.96135 3.84909 0
M  V30 2114 C 190.643 1.56609 5.0759 0
M  V30 2115 C 189.682 2.71339 5.48673 0
M  V30 2116 N 188.819 2.32332 6.62545 0
M  V30 2117 H 193.659 2.06003 2.15329 0
M  V30 2118 H 191.196 1.02535 1.05475 0
M  V30 2119 H 193.154 0.56675 4.13333 0
M  V30 2120 H 191.784 -0.124998 3.22558 0
M  V30 2121 H 190.836 2.28777 3.03916 0
M  V30 2122 H 192.148 2.82165 4.1132 0
M  V30 2123 H 191.302 1.31374 5.92305 0
M  V30 2124 H 190.041 0.677014 4.82978 0
M  V30 2125 H 189.046 2.97276 4.62501 0
M  V30 2126 H 190.271 3.60882 5.75274 0
M  V30 2127 H 188.217 1.45889 6.39572 0
M  V30 2128 H 188.134 3.11899 6.88662 0
M  V30 2129 H 189.402 2.10371 7.50576 0
M  V30 2130 N 193.631 -1.12557 1.10312 0
M  V30 2131 C 194.856 -1.88405 0.867085 0
M  V30 2132 C 195.281 -1.79038 -0.576817 0
M  V30 2133 O 194.639 -1.14439 -1.40618 0
M  V30 2134 C 194.687 -3.3563 1.31851 0
M  V30 2135 O 193.791 -4.09565 0.482734 0
M  V30 2136 H 193.132 -0.585455 0.313271 0
M  V30 2137 H 195.662 -1.42352 1.4696 0
M  V30 2138 H 195.672 -3.86469 1.3079 0
M  V30 2139 H 194.347 -3.41765 2.37001 0
M  V30 2140 H 192.924 -3.68695 0.558448 0
M  V30 2141 N 195.109 -0.891671 -1.2995 0
M  V30 2142 C 196.525 -0.58662 -1.48428 0
M  V30 2143 C 196.725 0.873951 -1.81561 0
M  V30 2144 O 195.781 1.65471 -1.90724 0
M  V30 2145 C 197.094 -1.50553 -2.60296 0
M  V30 2146 C 198.642 -1.50988 -2.74175 0
M  V30 2147 C 199.117 -2.41488 -3.89163 0
M  V30 2148 N 200.608 -2.39489 -3.96483 0
M  V30 2149 C 201.343 -3.06223 -4.84784 0
M  V30 2150 N 200.839 -3.82206 -5.77833 0
M  V30 2151 N 202.632 -2.95421 -4.78208 0
M  V30 2152 H 194.783 -1.83644 -1.06718 0
M  V30 2153 H 197.046 -0.786455 -0.529332 0
M  V30 2154 H 196.752 -2.54581 -2.42654 0
M  V30 2155 H 196.626 -1.22008 -3.56923 0
M  V30 2156 H 199.013 -0.47708 -2.91218 0
M  V30 2157 H 199.094 -1.83567 -1.78148 0
M  V30 2158 H 198.738 -3.44857 -3.72876 0
M  V30 2159 H 198.668 -2.06222 -4.84541 0
M  V30 2160 H 201.159 -1.84278 -3.29924 0
M  V30 2161 H 201.472 -4.302 -6.41988 0
M  V30 2162 H 199.817 -3.86313 -5.77743 0
M  V30 2163 H 203.008 -2.35581 -4.04499 0
M  V30 2164 H 203.181 -3.47704 -5.46814 0
M  V30 2165 N 196.587 1.43421 -0.653314 0
M  V30 2166 C 197.519 2.29071 0.0769134 0
M  V30 2167 C 198.532 1.42513 0.787017 0
M  V30 2168 O 199.721 1.66449 0.644757 0
M  V30 2169 C 196.821 3.19436 1.13199 0
M  V30 2170 C 195.994 4.34533 0.500006 0
M  V30 2171 C 195.053 5.05771 1.45198 0
M  V30 2172 O 194.079 5.61037 0.960538 0
M  V30 2173 N 195.281 5.0928 2.78594 0
M  V30 2174 H 198.046 2.92382 -0.658235 0
M  V30 2175 H 195.607 1.54112 -0.496104 0
M  V30 2176 H 197.599 3.63958 1.76964 0
M  V30 2177 H 196.169 2.57724 1.7691 0
M  V30 2178 H 195.389 3.92925 -0.316738 0
M  V30 2179 H 196.677 5.08766 0.0588345 0
M  V30 2180 H 196.075 4.65751 3.2108 0
M  V30 2181 H 194.632 5.57519 3.37662 0
M  V30 2182 N 198.065 0.39524 1.52563 0
M  V30 2183 C 199.314 -0.186321 2.00838 0
M  V30 2184 C 199.627 -1.47402 1.28577 0
M  V30 2185 O 200.833 -2.13599 1.67593 0
M  V30 2186 C 199.289 -0.382595 3.57861 0
M  V30 2187 C 198.897 0.892202 4.39026 0
M  V30 2188 C 200.641 -0.9202 4.14406 0
M  V30 2189 C 198.548 0.66388 5.87662 0
M  V30 2190 H 197.478 -0.0734041 0.750418 0
M  V30 2191 H 200.129 0.518552 1.76021 0
M  V30 2192 H 198.511 -1.14946 3.7895 0
M  V30 2193 H 199.685 1.66414 4.29701 0
M  V30 2194 H 198 1.35519 3.9373 0
M  V30 2195 H 200.597 -1.10683 5.23119 0
M  V30 2196 H 200.94 -1.89096 3.70875 0
M  V30 2197 H 201.473 -0.212751 3.97231 0
M  V30 2198 H 198.212 1.6058 6.35527 0
M  V30 2199 H 197.732 -0.0690193 5.9976 0
M  V30 2200 H 199.411 0.300699 6.46301 0
M  V30 2201 N 199.544 -1.57102 0.125237 0
M  V30 2202 C 200.476 -2.12726 -0.853237 0
M  V30 2203 C 201.489 -1.07145 -1.22571 0
M  V30 2204 O 202.678 -1.34497 -1.17358 0
M  V30 2205 C 199.778 -2.61709 -2.15317 0
M  V30 2206 C 198.951 -3.91456 -1.95143 0
M  V30 2207 C 198.01 -4.25973 -3.08923 0
M  V30 2208 O 197.036 -4.94682 -2.81564 0
M  V30 2209 N 198.238 -3.83795 -4.35524 0
M  V30 2210 H 201.003 -2.97307 -0.377964 0
M  V30 2211 H 198.564 -1.61792 -0.0590011 0
M  V30 2212 H 200.556 -2.81826 -2.90441 0
M  V30 2213 H 199.126 -1.81974 -2.54174 0
M  V30 2214 H 198.346 -3.80185 -1.04177 0
M  V30 2215 H 199.634 -4.76283 -1.78976 0
M  V30 2216 H 199.032 -3.2839 -4.60626 0
M  V30 2217 H 197.589 -4.09008 -5.07499 0
M  V30 2218 N 201.022 0.148545 -1.56898 0
M  V30 2219 C 202.269 0.861418 -1.83264 0
M  V30 2220 C 202.597 1.81239 -0.705883 0
M  V30 2221 O 201.852 1.93305 0.305212 0
M  V30 2222 C 202.151 1.67064 -3.1595 0
M  V30 2223 C 201.817 0.866591 -4.42494 0
M  V30 2224 C 200.479 0.644762 -4.76861 0
M  V30 2225 C 202.831 0.30418 -5.20312 0
M  V30 2226 C 200.159 -0.15021 -5.86508 0
M  V30 2227 C 202.511 -0.477824 -6.30793 0
M  V30 2228 C 201.175 -0.710244 -6.63711 0
M  V30 2229 H 200.445 0.315215 -0.670612 0
M  V30 2230 H 203.092 0.125142 -1.91091 0
M  V30 2231 H 201.397 2.47698 -3.03567 0
M  V30 2232 H 203.094 2.22566 -3.33565 0
M  V30 2233 H 199.684 1.04955 -4.15551 0
M  V30 2234 H 203.868 0.462844 -4.94137 0
M  V30 2235 H 199.124 -0.339796 -6.10455 0
M  V30 2236 H 203.298 -0.92076 -6.90286 0
M  V30 2237 H 200.925 -1.3281 -7.48509 0
M  V30 2238 N 202.5 1.5196 0.417844 0
M  V30 2239 C 203.45 1.7106 1.5074 0
M  V30 2240 C 204.434 0.564487 1.50673 0
M  V30 2241 O 205.626 0.821206 1.56797 0
M  V30 2242 C 202.755 1.85677 2.88754 0
M  V30 2243 C 201.841 3.06133 2.93502 0
M  V30 2244 N 202.232 4.28987 2.67962 0
M  V30 2245 C 200.53 3.05787 3.24669 0
M  V30 2246 C 201.231 5.10395 2.79055 0
M  V30 2247 N 200.207 4.45455 3.11561 0
M  V30 2248 H 204.009 2.63696 1.29775 0
M  V30 2249 H 201.523 1.49873 0.625436 0
M  V30 2250 H 203.52 1.97475 3.67164 0
M  V30 2251 H 202.18 0.942348 3.10725 0
M  V30 2252 H 203.191 4.57607 2.4252 0
M  V30 2253 H 199.868 2.2405 3.52289 0
M  V30 2254 H 201.258 6.18247 2.63097 0
M  V30 2255 N 203.978 -0.674533 1.42435 0
M  V30 2256 C 205.394 -0.98769 1.25367 0
M  V30 2257 C 205.594 -2.00879 0.158044 0
M  V30 2258 O 204.65 -2.48075 -0.470633 0
M  V30 2259 C 205.963 -1.49224 2.6106 0
M  V30 2260 C 207.511 -1.61 2.68417 0
M  V30 2261 C 207.986 -2.14852 4.04478 0
M  V30 2262 N 209.477 -2.22185 4.06434 0
M  V30 2263 C 210.212 -2.64928 5.08528 0
M  V30 2264 N 209.708 -3.07121 6.21006 0
M  V30 2265 N 211.501 -2.64679 4.95885 0
M  V30 2266 H 203.652 0.00152503 2.124 0
M  V30 2267 H 205.915 -0.0618434 0.945981 0
M  V30 2268 H 205.621 -0.816453 3.42092 0
M  V30 2269 H 205.495 -2.47094 2.84999 0
M  V30 2270 H 207.882 -2.27686 1.87732 0
M  V30 2271 H 207.963 -0.616195 2.48267 0
M  V30 2272 H 207.607 -1.48775 4.85622 0
M  V30 2273 H 207.537 -3.15024 4.2198 0
M  V30 2274 H 210.028 -1.92435 3.25234 0
M  V30 2275 H 210.341 -3.38423 6.94759 0
M  V30 2276 H 208.686 -3.04978 6.24511 0
M  V30 2277 H 211.877 -2.31078 4.07088 0
M  V30 2278 H 212.05 -2.9767 5.75584 0
M  V30 2279 N 205.456 -1.28612 -0.910864 0
M  V30 2280 C 206.403 -1.12786 -2.01365 0
M  V30 2281 C 207.373 -0.024201 -1.66082 0
M  V30 2282 O 208.558 -0.189667 -1.89855 0
M  V30 2283 C 205.698 -0.798743 -3.35729 0
M  V30 2284 C 204.811 -1.98173 -3.83864 0
M  V30 2285 C 203.946 -1.59298 -5.06752 0
M  V30 2286 C 202.985 -2.74245 -5.47226 0
M  V30 2287 N 202.122 -2.35842 -6.61304 0
M  V30 2288 H 206.962 -2.07142 -2.14234 0
M  V30 2289 H 204.499 -1.03093 -1.0493 0
M  V30 2290 H 206.457 -0.588662 -4.13026 0
M  V30 2291 H 205.087 0.10789 -3.2262 0
M  V30 2292 H 204.139 -2.30386 -3.02699 0
M  V30 2293 H 205.451 -2.84343 -4.09818 0
M  V30 2294 H 204.605 -1.34513 -5.916 0
M  V30 2295 H 203.344 -0.702618 -4.82612 0
M  V30 2296 H 202.349 -2.99725 -4.60918 0
M  V30 2297 H 203.574 -3.63928 -5.73353 0
M  V30 2298 H 201.52 -1.49279 -6.38789 0
M  V30 2299 H 201.437 -3.15546 -6.86998 0
M  V30 2300 H 202.705 -2.14348 -7.4945 0
M  V30 2301 N 206.934 1.1197 -1.10907 0
M  V30 2302 C 208.35 1.35591 -0.841852 0
M  V30 2303 C 208.55 1.94233 0.536246 0
M  V30 2304 O 207.606 2.1717 1.28816 0
M  V30 2305 C 208.919 2.29284 -1.94549 0
M  V30 2306 C 210.467 2.42862 -1.97451 0
M  V30 2307 C 210.942 3.39873 -3.07002 0
M  V30 2308 N 212.433 3.47433 -3.06341 0
M  V30 2309 C 213.168 4.22421 -3.87748 0
M  V30 2310 N 212.664 5.00432 -4.79103 0
M  V30 2311 N 214.457 4.17876 -3.75946 0
M  V30 2312 H 206.608 0.722664 -1.99728 0
M  V30 2313 H 208.871 0.380635 -0.868229 0
M  V30 2314 H 208.577 1.93378 -2.93765 0
M  V30 2315 H 208.451 3.29452 -1.83688 0
M  V30 2316 H 210.838 2.78046 -0.988645 0
M  V30 2317 H 210.919 1.42566 -2.12388 0
M  V30 2318 H 210.563 3.05417 -4.05811 0
M  V30 2319 H 210.493 4.40011 -2.89306 0
M  V30 2320 H 212.984 2.91784 -2.40147 0
M  V30 2321 H 213.297 5.55002 -5.37766 0
M  V30 2322 H 211.642 4.99612 -4.83128 0
M  V30 2323 H 214.833 3.56016 -3.03924 0
M  V30 2324 H 215.006 4.76061 -4.39624 0
M  V30 2325 N 208.412 0.89855 1.29475 0
M  V30 2326 C 209.36 0.365253 2.29714 0
M  V30 2327 C 210.354 -0.534993 1.6073 0
M  V30 2328 O 211.56 -0.417921 1.75081 0
M  V30 2329 H 207.935 0.0994853 0.74539 0
M  V30 2330 H 209.906 1.22406 2.72138 0
M  V30 2331 C 208.655 -0.393159 3.4547 0
M  V30 2332 H 207.978 0.290332 3.98744 0
M  V30 2333 H 209.418 -0.731189 4.17648 0
M  V30 2334 C 207.877 -1.59539 2.9673 0
M  V30 2335 O 208.407 -2.69469 2.97908 0
M  V30 2336 N 206.613 -1.43716 2.52575 0
M  V30 2337 H 206.16 -0.542828 2.51816 0
M  V30 2338 H 206.118 -2.24288 2.20323 0
M  V30 2339 N 209.89 -1.43072 0.660911 0
M  V30 2340 C 210.82 -2.33497 -0.0122829 0
M  V30 2341 C 211.801 -1.49903 -0.803925 0
M  V30 2342 O 212.986 -1.78546 -0.763864 0
M  V30 2343 C 210.116 -3.33363 -0.973994 0
M  V30 2344 C 209.07 -4.27003 -0.291928 0
M  V30 2345 C 208.396 -5.16967 -1.36562 0
M  V30 2346 C 209.696 -5.15816 0.820462 0
M  V30 2347 H 211.39 -2.90038 0.742873 0
M  V30 2348 H 208.936 -1.39461 0.358688 0
M  V30 2349 H 210.889 -3.95524 -1.45392 0
M  V30 2350 H 209.613 -2.75095 -1.7604 0
M  V30 2351 H 208.272 -3.66217 0.167623 0
M  V30 2352 H 207.92 -4.55034 -2.14366 0
M  V30 2353 H 207.62 -5.80441 -0.914454 0
M  V30 2354 H 209.144 -5.82003 -1.84675 0
M  V30 2355 H 210.558 -5.71742 0.422366 0
M  V30 2356 H 208.955 -5.8805 1.19656 0
M  V30 2357 H 210.025 -4.55045 1.67518 0
M  V30 2358 N 211.368 -0.403325 -1.52352 0
M  V30 2359 C 212.3 0.4603 -2.2453 0
M  V30 2360 C 213.313 1.01505 -1.27282 0
M  V30 2361 O 214.502 0.914982 -1.53266 0
M  V30 2362 C 211.602 1.65208 -2.95905 0
M  V30 2363 C 210.775 1.22224 -4.19976 0
M  V30 2364 C 209.834 2.28028 -4.74226 0
M  V30 2365 O 208.86 1.88857 -5.36956 0
M  V30 2366 N 210.062 3.6012 -4.55295 0
M  V30 2367 H 212.827 -0.158156 -2.99282 0
M  V30 2368 H 210.388 -0.230402 -1.60252 0
M  V30 2369 H 212.38 2.35541 -3.29093 0
M  V30 2370 H 210.95 2.17658 -2.24374 0
M  V30 2371 H 210.17 0.34725 -3.92668 0
M  V30 2372 H 211.458 0.911924 -5.00561 0
M  V30 2373 H 210.856 3.94698 -4.05253 0
M  V30 2374 H 209.413 4.26447 -4.92936 0
M  V30 2375 N 212.846 1.57033 -0.133567 0
M  V30 2376 C 214.076 1.99754 0.527429 0
M  V30 2377 C 214.484 1.01245 1.59832 0
M  V30 2378 O 213.827 -0.000645496 1.837 0
M  V30 2379 C 213.889 3.38903 1.19939 0
M  V30 2380 C 213.553 4.56174 0.274709 0
M  V30 2381 C 214.55 5.17563 -0.492398 0
M  V30 2382 C 212.235 5.01972 0.18153 0
M  V30 2383 C 214.229 6.2315 -1.34027 0
M  V30 2384 C 211.916 6.07416 -0.669958 0
M  V30 2385 C 212.914 6.67874 -1.42947 0
M  V30 2386 O 212.602 7.71279 -2.2668 0
M  V30 2387 H 212.334 0.660702 0.142999 0
M  V30 2388 H 214.888 2.04207 -0.221099 0
M  V30 2389 H 213.118 3.31248 1.99528 0
M  V30 2390 H 214.807 3.65818 1.75875 0
M  V30 2391 H 215.573 4.83087 -0.430367 0
M  V30 2392 H 211.452 4.54652 0.762422 0
M  V30 2393 H 214.996 6.70268 -1.93357 0
M  V30 2394 H 210.893 6.41321 -0.73333 0
M  V30 2395 H 211.661 7.88441 -2.1978 0
M  V30 2396 N 214.325 -0.140222 1.56975 0
M  V30 2397 C 215.555 -0.865181 1.87612 0
M  V30 2398 C 215.963 -1.74942 0.72055 0
M  V30 2399 O 215.306 -1.80917 -0.318561 0
M  V30 2400 C 215.368 -1.76782 3.13031 0
M  V30 2401 C 215.032 -1.06005 4.44536 0
M  V30 2402 C 216.029 -0.410768 5.18275 0
M  V30 2403 C 213.714 -1.04754 4.91255 0
M  V30 2404 C 215.708 0.241572 6.36942 0
M  V30 2405 C 213.395 -0.391394 6.09845 0
M  V30 2406 C 214.393 0.252029 6.82535 0
M  V30 2407 O 214.081 0.897757 7.98871 0
M  V30 2408 H 213.813 -0.255188 0.625983 0
M  V30 2409 H 216.367 -0.135653 2.04952 0
M  V30 2410 H 214.597 -2.53846 2.91718 0
M  V30 2411 H 216.286 -2.36533 3.29859 0
M  V30 2412 H 217.052 -0.412195 4.83245 0
M  V30 2413 H 212.931 -1.53777 4.34596 0
M  V30 2414 H 216.475 0.744375 6.93617 0
M  V30 2415 H 212.372 -0.387656 6.44335 0
M  V30 2416 H 213.14 0.800102 8.1458 0
M  V30 2417 N 215.803 -1.52179 -0.40978 0
M  V30 2418 C 217.08 -1.56769 -1.16974 0
M  V30 2419 C 217.46 -0.348322 -2.08206 0
M  V30 2420 O 216.808 0.664862 -2.18613 0
M  V30 2421 C 217.018 -2.89603 -1.9476 0
M  V30 2422 C 218.366 -3.42579 -2.50849 0
M  V30 2423 O 219.39 -2.91338 -2.04941 0
M  V30 2424 O 218.249 -4.32054 -3.34652 0
M  V30 2425 H 215.343 -0.631439 -0.534054 0
M  V30 2426 H 217.889 -1.64507 -0.416613 0
M  V30 2427 H 216.661 -3.698 -1.27921 0
M  V30 2428 H 216.284 -2.85155 -2.77079 0
M  V30 2429 N 217.281 0.66697 -1.42791 0
M  V30 2430 C 218.211 1.79218 -1.49677 0
M  V30 2431 C 219.192 1.66405 -0.352623 0
M  V30 2432 O 220.377 1.85708 -0.567993 0
M  V30 2433 C 217.507 3.17565 -1.40605 0
M  V30 2434 C 216.461 3.45124 -2.53127 0
M  V30 2435 C 215.787 4.83127 -2.29112 0
M  V30 2436 C 217.087 3.41236 -3.95418 0
M  V30 2437 H 218.781 1.73713 -2.43853 0
M  V30 2438 H 216.327 0.83432 -1.17367 0
M  V30 2439 H 218.28 3.96022 -1.44029 0
M  V30 2440 H 217.004 3.23767 -0.429271 0
M  V30 2441 H 215.663 2.69031 -2.49034 0
M  V30 2442 H 215.311 4.85988 -1.29709 0
M  V30 2443 H 215.011 5.02528 -3.04531 0
M  V30 2444 H 216.535 5.63859 -2.34297 0
M  V30 2445 H 217.949 4.09651 -4.01073 0
M  V30 2446 H 216.346 3.72173 -4.70752 0
M  V30 2447 H 217.416 2.39665 -4.21532 0
M  V30 2448 N 218.759 1.29093 0.90403 0
M  V30 2449 C 219.984 1.19809 1.69294 0
M  V30 2450 C 220.409 -0.238481 1.86582 0
M  V30 2451 O 219.767 -1.1723 1.383 0
M  V30 2452 C 219.815 1.91202 3.05736 0
M  V30 2453 O 218.919 1.22611 3.93752 0
M  V30 2454 H 218.26 0.415385 0.518027 0
M  V30 2455 H 220.79 1.70586 1.12967 0
M  V30 2456 H 220.8 1.99487 3.55906 0
M  V30 2457 H 219.475 2.95692 2.92471 0
M  V30 2458 H 218.052 1.22554 3.52186 0
M  V30 2459 N 220.237 -1.11381 1.11499 0
M  V30 2460 C 221.2 -2.15622 0.777153 0
M  V30 2461 C 222.2 -1.59504 -0.203779 0
M  V30 2462 O 223.39 -1.74188 0.020782 0
M  V30 2463 C 220.522 -3.40556 0.153116 0
M  V30 2464 H 221.715 -2.47021 1.70061 0
M  V30 2465 H 219.268 -1.26577 0.916952 0
M  V30 2466 H 220.003 -3.14767 -0.780536 0
M  V30 2467 H 219.788 -3.8257 0.859238 0
M  V30 2468 H 221.278 -4.17546 -0.0671044 0
M  V30 2469 N 221.715 -0.905404 -1.28997 0
M  V30 2470 C 223.131 -0.60233 -1.47798 0
M  V30 2471 C 223.331 0.854645 -1.82478 0
M  V30 2472 O 222.387 1.63439 -1.92468 0
M  V30 2473 C 223.7 -1.53306 -2.58685 0
M  V30 2474 C 225.248 -1.53887 -2.72558 0
M  V30 2475 C 225.723 -2.45602 -3.86579 0
M  V30 2476 N 227.214 -2.43681 -3.93921 0
M  V30 2477 C 227.949 -3.11347 -4.81509 0
M  V30 2478 N 227.445 -3.88313 -5.73746 0
M  V30 2479 N 229.238 -3.00476 -4.75048 0
M  V30 2480 H 221.389 -1.84765 -1.04764 0
M  V30 2481 H 223.652 -0.792025 -0.520961 0
M  V30 2482 H 223.358 -2.57141 -2.39941 0
M  V30 2483 H 223.232 -1.25787 -3.55609 0
M  V30 2484 H 225.619 -0.507941 -2.90696 0
M  V30 2485 H 225.7 -1.85447 -1.76191 0
M  V30 2486 H 225.344 -3.48792 -3.69197 0
M  V30 2487 H 225.274 -2.11349 -4.82327 0
M  V30 2488 H 227.765 -1.87767 -3.27951 0
M  V30 2489 H 228.078 -4.36985 -6.37389 0
M  V30 2490 H 226.423 -3.92419 -5.73614 0
M  V30 2491 H 229.614 -2.39858 -4.01977 0
M  V30 2492 H 229.787 -3.53485 -5.43095 0
M  V30 2493 N 223.193 1.4272 -0.668489 0
M  V30 2494 C 224.418 2.06484 -0.194758 0
M  V30 2495 C 224.843 1.49862 1.13679 0
M  V30 2496 O 224.201 0.614582 1.70565 0
M  V30 2497 C 224.249 3.60353 -0.133546 0
M  V30 2498 O 223.353 4.02464 0.899806 0
M  V30 2499 H 222.694 0.656137 -0.10188 0
M  V30 2500 H 225.224 1.82964 -0.915722 0
M  V30 2501 H 225.234 4.07976 0.0447041 0
M  V30 2502 H 223.909 4.00938 -1.1055 0
M  V30 2503 H 222.486 3.66402 0.693109 0
M  V30 2504 N 224.671 0.411399 1.52136 0
M  V30 2505 C 225.619 -0.427633 2.28635 0
M  V30 2506 C 226.613 -1.04383 1.33419 0
M  V30 2507 O 227.819 -0.981772 1.50868 0
M  V30 2508 H 224.194 -0.156689 0.735495 0
M  V30 2509 H 226.165 0.238761 2.97443 0
M  V30 2510 C 224.914 -1.53082 3.12188 0
M  V30 2511 H 224.237 -1.06601 3.85326 0
M  V30 2512 H 225.677 -2.09167 3.68816 0
M  V30 2513 C 224.136 -2.49946 2.25895 0
M  V30 2514 O 224.666 -3.53884 1.90076 0
M  V30 2515 N 222.872 -2.2021 1.8962 0
M  V30 2516 H 222.419 -1.35719 2.18948 0
M  V30 2517 H 222.377 -2.85266 1.32176 0
M  V30 2518 N 226.149 -1.5696 0.141893 0
M  V30 2519 C 227.379 -2.00031 -0.516828 0
M  V30 2520 C 227.787 -1.02091 -1.59293 0
M  V30 2521 O 227.13 -0.00909657 -1.83698 0
M  V30 2522 C 227.192 -3.39534 -1.1814 0
M  V30 2523 C 226.856 -4.56313 -0.250513 0
M  V30 2524 C 227.853 -5.17295 0.519839 0
M  V30 2525 C 225.538 -5.02061 -0.154907 0
M  V30 2526 C 227.532 -6.2243 1.3733 0
M  V30 2527 C 225.219 -6.07053 0.702161 0
M  V30 2528 C 226.217 -6.67106 1.46487 0
M  V30 2529 O 225.905 -7.70066 2.30767 0
M  V30 2530 H 225.637 -0.661451 -0.139493 0
M  V30 2531 H 228.191 -2.04086 0.231926 0
M  V30 2532 H 226.421 -3.32302 -1.97769 0
M  V30 2533 H 228.11 -3.66745 -1.73933 0
M  V30 2534 H 228.876 -4.82852 0.45598 0
M  V30 2535 H 224.755 -4.5505 -0.7383 0
M  V30 2536 H 228.299 -6.69233 1.96909 0
M  V30 2537 H 224.196 -6.40923 0.76733 0
M  V30 2538 H 224.964 -7.87264 2.23959 0
M  V30 2539 N 227.627 0.131896 -1.57047 0
M  V30 2540 C 228.575 1.18146 -2.0036 0
M  V30 2541 C 229.569 1.43614 -0.898406 0
M  V30 2542 O 230.775 1.43729 -1.08361 0
M  V30 2543 H 227.15 0.398042 -0.638018 0
M  V30 2544 H 229.121 0.789564 -2.87765 0
M  V30 2545 C 227.87 2.50341 -2.41298 0
M  V30 2546 H 227.193 2.31578 -3.25902 0
M  V30 2547 H 228.633 3.22371 -2.75414 0
M  V30 2548 C 227.092 3.11984 -1.27153 0
M  V30 2549 O 227.622 3.97484 -0.580459 0
M  V30 2550 N 225.828 2.71662 -1.03189 0
M  V30 2551 H 225.375 2.02231 -1.59564 0
M  V30 2552 H 225.333 3.13238 -0.270077 0
M  V30 2553 N 229.106 1.52395 0.401703 0
M  V30 2554 C 230.353 1.66817 1.14796 0
M  V30 2555 C 230.681 0.401772 1.90305 0
M  V30 2556 O 229.936 -0.615487 1.85769 0
M  V30 2557 C 230.235 2.84578 2.16217 0
M  V30 2558 C 229.901 4.22513 1.5746 0
M  V30 2559 C 228.563 4.60029 1.41161 0
M  V30 2560 C 230.915 5.0844 1.14622 0
M  V30 2561 C 228.243 5.81144 0.80552 0
M  V30 2562 C 230.595 6.30167 0.55428 0
M  V30 2563 C 229.259 6.66426 0.378482 0
M  V30 2564 H 228.529 0.610428 0.420069 0
M  V30 2565 H 231.176 1.86512 0.434212 0
M  V30 2566 H 229.481 2.59248 2.93764 0
M  V30 2567 H 231.178 2.92933 2.73845 0
M  V30 2568 H 227.768 3.92953 1.71132 0
M  V30 2569 H 231.952 4.80034 1.26021 0
M  V30 2570 H 227.208 6.07855 0.657399 0
M  V30 2571 H 231.382 6.96071 0.213983 0
M  V30 2572 H 229.009 7.60143 -0.0932606 0
M  V30 2573 N 230.584 -0.659388 1.43143 0
M  V30 2574 C 231.494 -1.80167 1.50256 0
M  V30 2575 C 232.51 -1.69571 0.390106 0
M  V30 2576 O 233.686 -1.90849 0.643319 0
M  V30 2577 C 230.751 -3.16409 1.41725 0
M  V30 2578 C 229.812 -3.38848 2.63591 0
M  V30 2579 C 229.045 -4.68591 2.55458 0
M  V30 2580 O 229.268 -5.47532 1.59891 0
M  V30 2581 O 228.202 -4.92614 3.45854 0
M  V30 2582 H 232.028 -1.77121 2.46702 0
M  V30 2583 H 229.613 -0.817092 1.25076 0
M  V30 2584 H 231.495 -3.9768 1.39387 0
M  V30 2585 H 230.17 -3.20059 0.484118 0
M  V30 2586 H 229.077 -2.57366 2.71502 0
M  V30 2587 H 230.41 -3.4004 3.55856 0
M  V30 2588 N 232.062 -1.29571 -0.897171 0
M  V30 2589 C 233.009 -1.14916 -2.00158 0
M  V30 2590 C 233.979 -0.0418149 -1.66047 0
M  V30 2591 O 235.164 -0.209793 -1.89643 0
M  V30 2592 C 232.304 -0.834307 -3.34863 0
M  V30 2593 C 231.417 -2.02234 -3.8174 0
M  V30 2594 C 230.552 -1.64664 -5.05034 0
M  V30 2595 C 229.591 -2.80033 -5.44286 0
M  V30 2596 N 228.728 -2.42843 -6.58765 0
M  V30 2597 H 233.568 -2.09403 -2.12025 0
M  V30 2598 H 231.105 -1.042 -1.0383 0
M  V30 2599 H 233.063 -0.632436 -4.12379 0
M  V30 2600 H 231.693 0.0736656 -3.22716 0
M  V30 2601 H 230.745 -2.33583 -3.00238 0
M  V30 2602 H 232.057 -2.88673 -4.06779 0
M  V30 2603 H 231.211 -1.4078 -5.9014 0
M  V30 2604 H 229.95 -0.753766 -4.8184 0
M  V30 2605 H 228.955 -3.04596 -4.57713 0
M  V30 2606 H 230.18 -3.69989 -5.6946 0
M  V30 2607 H 228.126 -1.56046 -6.3717 0
M  V30 2608 H 228.043 -3.22815 -6.83613 0
M  V30 2609 H 229.311 -2.22285 -7.47134 0
M  V30 2610 N 233.54 1.10788 -1.12088 0
M  V30 2611 C 234.951 1.64181 -0.88891 0
M  V30 2612 C 235.302 1.87508 0.577498 0
M  V30 2613 O 234.427 1.61434 1.44112 0
M  V30 2614 C 235.022 2.98257 -1.60712 0
M  V30 2615 C 233.581 3.4853 -1.42139 0
M  V30 2616 C 232.728 2.23208 -1.6454 0
M  V30 2617 H 235.679 0.943368 -1.27618 0
M  V30 2618 H 235.7 3.65552 -1.05604 0
M  V30 2619 H 235.212 2.81246 -2.67436 0
M  V30 2620 H 233.313 3.70692 -0.376552 0
M  V30 2621 H 233.426 4.26882 -2.17505 0
M  V30 2622 H 231.79 2.31169 -1.06925 0
M  V30 2623 H 232.573 2.08733 -2.72554 0
M  V30 2624 N 235.018 0.912232 1.28515 0
M  V30 2625 C 236.265 0.544599 1.95039 0
M  V30 2626 C 236.593 -0.911435 1.71823 0
M  V30 2627 O 235.848 -1.66317 1.03137 0
M  V30 2628 C 236.147 0.798392 3.48368 0
M  V30 2629 C 235.813 2.23374 3.91682 0
M  V30 2630 C 234.475 2.62617 4.03219 0
M  V30 2631 C 236.827 3.16786 4.13879 0
M  V30 2632 C 234.155 3.94429 4.3433 0
M  V30 2633 C 236.507 4.48161 4.46469 0
M  V30 2634 C 235.171 4.8726 4.56217 0
M  V30 2635 H 234.441 0.199283 0.7137 0
M  V30 2636 H 237.088 1.15327 1.52879 0
M  V30 2637 H 235.393 0.106908 3.91654 0
M  V30 2638 H 237.09 0.493141 3.97956 0
M  V30 2639 H 233.68 1.91922 3.83228 0
M  V30 2640 H 237.864 2.87677 4.0442 0
M  V30 2641 H 233.12 4.24426 4.40082 0
M  V30 2642 H 237.294 5.20559 4.62592 0
M  V30 2643 H 234.921 5.89431 4.80078 0
M  V30 2644 N 236.496 -1.42363 0.676048 0
M  V30 2645 C 237.426 -2.33497 0.0124832 0
M  V30 2646 C 238.407 -1.50748 -0.787981 0
M  V30 2647 O 239.592 -1.79346 -0.744884 0
M  V30 2648 C 236.722 -3.34377 -0.938582 0
M  V30 2649 C 235.676 -4.27289 -0.246622 0
M  V30 2650 C 235.002 -5.18386 -1.31071 0
M  V30 2651 C 236.302 -5.14916 0.875125 0
M  V30 2652 H 237.996 -2.89233 0.773593 0
M  V30 2653 H 235.542 -1.39073 0.37346 0
M  V30 2654 H 237.495 -3.97044 -1.41188 0
M  V30 2655 H 236.219 -2.76947 -1.73113 0
M  V30 2656 H 234.878 -3.66018 0.206456 0
M  V30 2657 H 234.526 -4.57282 -2.09528 0
M  V30 2658 H 234.226 -5.81378 -0.852839 0
M  V30 2659 H 235.75 -5.83929 -1.78492 0
M  V30 2660 H 237.164 -5.71262 0.482983 0
M  V30 2661 H 235.561 -5.86747 1.25887 0
M  V30 2662 H 236.631 -4.53242 1.72335 0
M  V30 2663 N 237.974 -0.419461 -1.51915 0
M  V30 2664 C 239.22 0.145505 -2.02879 0
M  V30 2665 C 239.575 1.41926 -1.29903 0
M  V30 2666 O 238.868 1.87383 -0.399782 0
M  V30 2667 C 239.062 0.437067 -3.54717 0
M  V30 2668 C 238.891 -0.806877 -4.42402 0
M  V30 2669 C 237.661 -1.33514 -4.87342 0
M  V30 2670 C 239.859 -1.68796 -4.85811 0
M  V30 2671 N 237.841 -2.53349 -5.59185 0
M  V30 2672 C 239.212 -2.73247 -5.56539 0
M  V30 2673 C 241.267 -1.70449 -4.67816 0
M  V30 2674 C 239.97 -3.79276 -6.11181 0
M  V30 2675 C 241.996 -2.75403 -5.23361 0
M  V30 2676 C 241.358 -3.78575 -5.9402 0
M  V30 2677 H 237.457 0.0145424 -0.781865 0
M  V30 2678 H 240.041 -0.576126 -1.85981 0
M  V30 2679 H 238.212 1.12774 -3.71667 0
M  V30 2680 H 239.944 0.99182 -3.92358 0
M  V30 2681 H 236.699 -0.891657 -4.65131 0
M  V30 2682 H 237.123 -3.14066 -5.99743 0
M  V30 2683 H 241.765 -0.920209 -4.12664 0
M  V30 2684 H 239.483 -4.58554 -6.65397 0
M  V30 2685 H 243.069 -2.77603 -5.113 0
M  V30 2686 H 241.949 -4.58453 -6.36231 0
M  V30 2687 N 239.452 1.56882 -0.150215 0
M  V30 2688 C 240.382 2.19935 0.784284 0
M  V30 2689 C 241.363 1.14854 1.25469 0
M  V30 2690 O 242.548 1.43209 1.31168 0
M  V30 2691 C 239.678 2.82349 2.02229 0
M  V30 2692 C 238.632 3.93285 1.68853 0
M  V30 2693 C 237.958 4.42649 2.99944 0
M  V30 2694 C 239.258 5.13904 0.932714 0
M  V30 2695 H 240.952 2.9828 0.258781 0
M  V30 2696 H 238.498 1.43473 0.123029 0
M  V30 2697 H 240.451 3.25126 2.68088 0
M  V30 2698 H 239.175 2.0134 2.57157 0
M  V30 2699 H 237.834 3.5113 1.05371 0
M  V30 2700 H 237.482 3.58458 3.52869 0
M  V30 2701 H 237.182 5.17476 2.78374 0
M  V30 2702 H 238.706 4.88099 3.66868 0
M  V30 2703 H 240.12 5.53506 1.49345 0
M  V30 2704 H 238.517 5.94515 0.81684 0
M  V30 2705 H 239.587 4.84842 -0.0749568 0
M  V30 2706 N 240.93 -0.123565 1.57115 0
M  V30 2707 C 241.893 -1.13583 1.99076 0
M  V30 2708 C 242.893 -1.34564 0.880296 0
M  V30 2709 O 244.083 -1.31158 1.14644 0
M  V30 2710 C 241.215 -2.49128 2.32698 0
M  V30 2711 H 242.408 -0.775287 2.89706 0
M  V30 2712 H 239.961 -0.36771 1.51913 0
M  V30 2713 H 240.696 -2.90111 1.44934 0
M  V30 2714 H 240.481 -2.35255 3.13684 0
M  V30 2715 H 241.971 -3.2199 2.65918 0
M  V30 2716 N 242.408 -1.52605 -0.393616 0
M  V30 2717 C 243.824 -1.41753 -0.733357 0
M  V30 2718 C 244.024 -0.534293 -1.94287 0
M  V30 2719 O 243.08 -0.0059787 -2.52499 0
M  V30 2720 C 244.393 -2.84531 -0.972772 0
M  V30 2721 C 245.941 -2.93978 -1.07453 0
M  V30 2722 C 246.416 -4.37756 -1.3466 0
M  V30 2723 N 247.907 -4.4106 -1.41492 0
M  V30 2724 C 248.642 -5.49387 -1.642 0
M  V30 2725 N 248.138 -6.67806 -1.8441 0
M  V30 2726 N 249.931 -5.36923 -1.66342 0
M  V30 2727 H 242.082 -2.08555 0.402328 0
M  V30 2728 H 244.345 -0.940654 0.117789 0
M  V30 2729 H 244.051 -3.51353 -0.156204 0
M  V30 2730 H 243.925 -3.26508 -1.88871 0
M  V30 2731 H 246.312 -2.27326 -1.88167 0
M  V30 2732 H 246.393 -2.55435 -0.136605 0
M  V30 2733 H 246.037 -5.04972 -0.544581 0
M  V30 2734 H 245.967 -4.73848 -2.2973 0
M  V30 2735 H 248.458 -3.55705 -1.27601 0
M  V30 2736 H 248.771 -7.46141 -2.01231 0
M  V30 2737 H 247.116 -6.70843 -1.81644 0
M  V30 2738 H 250.307 -4.43381 -1.50102 0
M  V30 2739 H 250.48 -6.21416 -1.837 0
M  V30 2740 N 243.887 0.651787 -1.4349 0
M  V30 2741 C 245.303 0.96762 -1.26922 0
M  V30 2742 C 245.503 2.00602 -0.189982 0
M  V30 2743 O 244.559 2.48793 0.431107 0
M  V30 2744 C 245.872 1.45052 -2.63401 0
M  V30 2745 C 247.42 1.5671 -2.70945 0
M  V30 2746 C 247.895 2.0839 -4.07845 0
M  V30 2747 N 249.386 2.1569 -4.09917 0
M  V30 2748 C 250.121 2.56804 -5.12679 0
M  V30 2749 N 249.617 2.97203 -6.25813 0
M  V30 2750 N 251.41 2.56756 -5.00033 0
M  V30 2751 H 243.561 -0.0353158 -2.12371 0
M  V30 2752 H 245.824 0.0467858 -0.946845 0
M  V30 2753 H 245.53 0.761926 -3.43348 0
M  V30 2754 H 245.404 2.42529 -2.88894 0
M  V30 2755 H 247.791 2.2467 -1.9133 0
M  V30 2756 H 247.872 0.57662 -2.49216 0
M  V30 2757 H 247.516 1.41031 -4.87927 0
M  V30 2758 H 247.446 3.08271 -4.26938 0
M  V30 2759 H 249.937 1.87237 -3.28254 0
M  V30 2760 H 250.25 3.27328 -7.00055 0
M  V30 2761 H 248.595 2.95004 -6.29283 0
M  V30 2762 H 251.786 2.24572 -4.10713 0
M  V30 2763 H 251.959 2.88475 -5.80247 0
M  V30 2764 N 245.365 1.30045 0.890287 0
M  V30 2765 C 246.295 1.18541 2.01172 0
M  V30 2766 C 247.276 0.0773356 1.69924 0
M  V30 2767 O 248.461 0.25845 1.92473 0
M  V30 2768 C 245.591 0.870941 3.36202 0
M  V30 2769 C 244.545 1.93637 3.81692 0
M  V30 2770 C 243.871 1.475 5.13953 0
M  V30 2771 C 245.171 3.34666 4.00994 0
M  V30 2772 H 246.865 2.12359 2.11054 0
M  V30 2773 H 244.411 1.02238 1.01407 0
M  V30 2774 H 246.364 0.777141 4.14172 0
M  V30 2775 H 245.088 -0.102926 3.26438 0
M  V30 2776 H 243.747 2.01972 3.05946 0
M  V30 2777 H 243.395 0.489551 5.00612 0
M  V30 2778 H 243.095 2.1876 5.4536 0
M  V30 2779 H 244.619 1.39489 5.94454 0
M  V30 2780 H 246.033 3.2912 4.69417 0
M  V30 2781 H 244.43 4.03966 4.43769 0
M  V30 2782 H 245.5 3.76949 3.05021 0
M  V30 2783 N 246.843 -1.10192 1.12674 0
M  V30 2784 C 248.068 -1.86523 0.906853 0
M  V30 2785 C 248.493 -1.80221 -0.538711 0
M  V30 2786 O 247.851 -1.17396 -1.38158 0
M  V30 2787 C 247.899 -3.32758 1.3894 0
M  V30 2788 O 247.003 -4.08449 0.5695 0
M  V30 2789 H 246.344 -0.578678 0.325619 0
M  V30 2790 H 248.874 -1.39203 1.49946 0
M  V30 2791 H 248.884 -3.83608 1.38958 0
M  V30 2792 H 247.559 -3.36661 2.44197 0
M  V30 2793 H 246.136 -3.67427 0.636528 0
M  V30 2794 N 248.321 -0.919034 -1.28029 0
M  V30 2795 C 249.269 -0.401753 -2.29104 0
M  V30 2796 C 250.263 0.509354 -1.61561 0
M  V30 2797 O 251.469 0.390014 -1.75724 0
M  V30 2798 H 247.844 -0.111331 -0.743713 0
M  V30 2799 H 249.815 -1.2672 -2.70156 0
M  V30 2800 C 248.564 0.338148 -3.46052 0
M  V30 2801 H 247.887 -0.353732 -3.98232 0
M  V30 2802 H 249.327 0.664653 -4.18758 0
M  V30 2803 C 247.786 1.54798 -2.99231 0
M  V30 2804 O 248.316 2.64696 -3.02157 0
M  V30 2805 N 246.522 1.3968 -2.54829 0
M  V30 2806 H 246.069 0.502698 -2.52647 0
M  V30 2807 H 246.027 2.20755 -2.23863 0
M  V30 2808 N 249.799 1.42003 -0.683588 0
M  V30 2809 C 250.731 2.29183 0.0283068 0
M  V30 2810 C 251.744 1.4415 0.756611 0
M  V30 2811 O 252.933 1.67779 0.609306 0
M  V30 2812 C 250.033 3.21765 1.06398 0
M  V30 2813 C 249.206 4.35496 0.407723 0
M  V30 2814 C 248.265 5.08737 1.34437 0
M  V30 2815 O 247.291 5.62948 0.841318 0
M  V30 2816 N 248.493 5.15075 2.67728 0
M  V30 2817 H 251.258 2.9092 -0.720105 0
M  V30 2818 H 248.819 1.53025 -0.528682 0
M  V30 2819 H 250.811 3.6763 1.69204 0
M  V30 2820 H 249.381 2.61418 1.71404 0
M  V30 2821 H 248.601 3.92165 -0.400012 0
M  V30 2822 H 249.889 5.08776 -0.0490956 0
M  V30 2823 H 249.287 4.72457 3.11129 0
M  V30 2824 H 247.844 5.64556 3.2576 0
M  V30 2825 N 251.277 0.427512 1.51691 0
M  V30 2826 C 252.688 -0.0378867 1.86662 0
M  V30 2827 C 253.039 -1.42819 1.34525 0
M  V30 2828 O 252.164 -2.05037 0.692014 0
M  V30 2829 C 252.759 -0.0755266 3.38716 0
M  V30 2830 C 251.318 -0.485309 3.73258 0
M  V30 2831 C 250.465 0.328399 2.75349 0
M  V30 2832 H 253.416 0.64379 1.45055 0
M  V30 2833 H 253.437 -0.887056 3.70016 0
M  V30 2834 H 252.949 0.936487 3.76632 0
M  V30 2835 H 251.05 -1.50329 3.40928 0
M  V30 2836 H 251.163 -0.21693 4.78609 0
M  V30 2837 H 249.527 -0.211905 2.53817 0
M  V30 2838 H 250.31 1.3391 3.16106 0
M  V30 2839 N 252.755 -1.56801 0.158532 0
M  V30 2840 C 253.703 -2.18638 -0.793729 0
M  V30 2841 C 254.697 -1.14669 -1.24689 0
M  V30 2842 O 255.903 -1.32895 -1.21403 0
M  V30 2843 H 252.278 -0.700226 -0.274204 0
M  V30 2844 H 254.249 -2.97367 -0.248095 0
M  V30 2845 C 252.998 -2.83139 -2.0181 0
M  V30 2846 H 252.321 -3.62863 -1.67841 0
M  V30 2847 H 253.761 -3.29894 -2.66357 0
M  V30 2848 C 252.22 -1.82244 -2.83353 0
M  V30 2849 O 252.75 -1.3 -3.80083 0
M  V30 2850 N 250.956 -1.51288 -2.48114 0
M  V30 2851 H 250.503 -1.93964 -1.69516 0
M  V30 2852 H 250.461 -0.840296 -3.02963 0
M  V30 2853 N 254.233 0.115231 -1.57178 0
M  V30 2854 C 255.163 1.1423 -2.03651 0
M  V30 2855 C 256.144 1.42967 -0.921655 0
M  V30 2856 O 257.329 1.53343 -1.19162 0
M  V30 2857 C 254.459 2.4675 -2.44401 0
M  V30 2858 C 253.413 2.32467 -3.59365 0
M  V30 2859 C 252.739 3.69984 -3.86026 0
M  V30 2860 C 254.039 1.78203 -4.90959 0
M  V30 2861 H 255.733 0.755749 -2.89705 0
M  V30 2862 H 253.279 0.362093 -1.39373 0
M  V30 2863 H 255.232 3.18854 -2.75517 0
M  V30 2864 H 253.956 2.87302 -1.55322 0
M  V30 2865 H 252.615 1.62811 -3.28463 0
M  V30 2866 H 252.263 4.08028 -2.94147 0
M  V30 2867 H 251.963 3.61279 -4.63412 0
M  V30 2868 H 253.487 4.43587 -4.19599 0
M  V30 2869 H 254.901 2.40128 -5.20587 0
M  V30 2870 H 253.298 1.8031 -5.72371 0
M  V30 2871 H 254.368 0.739876 -4.79222 0
M  V30 2872 N 255.711 1.52812 0.385517 0
M  V30 2873 C 256.957 1.68275 1.13188 0
M  V30 2874 C 257.29 0.423179 1.89533 0
M  V30 2875 O 256.565 -0.579113 1.85679 0
M  V30 2876 C 256.848 2.92001 2.1073 0
M  V30 2877 C 256.701 4.28067 1.38125 0
M  V30 2878 C 258.02 3.11283 3.11113 0
M  V30 2879 H 255.139 0.612352 0.410115 0
M  V30 2880 H 257.781 1.85415 0.414869 0
M  V30 2881 H 255.931 2.77519 2.71874 0
M  V30 2882 H 257.603 4.54324 0.799187 0
M  V30 2883 H 255.846 4.28388 0.683092 0
M  V30 2884 H 256.517 5.10733 2.09417 0
M  V30 2885 H 258.993 3.2482 2.6006 0
M  V30 2886 H 257.869 3.99325 3.76605 0
M  V30 2887 H 258.13 2.25656 3.80173 0
M  V30 2888 N 257.189 -0.644168 1.43834 0
M  V30 2889 C 258.436 -1.40395 1.4593 0
M  V30 2890 C 258.764 -1.94305 0.0869658 0
M  V30 2891 O 258.019 -1.73288 -0.909378 0
M  V30 2892 C 258.318 -2.59615 2.45631 0
M  V30 2893 C 257.984 -2.2407 3.91284 0
M  V30 2894 C 256.646 -2.14089 4.30952 0
M  V30 2895 C 258.998 -1.95775 4.83034 0
M  V30 2896 C 256.326 -1.73981 5.6031 0
M  V30 2897 C 258.678 -1.57163 6.12766 0
M  V30 2898 C 257.342 -1.45713 6.51402 0
M  V30 2899 H 256.612 -0.513741 0.533995 0
M  V30 2900 H 259.259 -0.731724 1.76969 0
M  V30 2901 H 257.564 -3.32011 2.08028 0
M  V30 2902 H 259.261 -3.17834 2.44504 0
M  V30 2903 H 255.851 -2.32753 3.59895 0
M  V30 2904 H 260.035 -2.02403 4.53152 0
M  V30 2905 H 255.291 -1.63709 5.89075 0
M  V30 2906 H 259.465 -1.34303 6.83327 0
M  V30 2907 H 257.092 -1.14406 7.51542 0
M  V30 2908 N 258.668 -1.30515 -0.883378 0
M  V30 2909 C 259.914 -1.19607 -1.63774 0
M  V30 2910 C 260.247 0.248314 -1.92606 0
M  V30 2911 O 259.522 1.17742 -1.54813 0
M  V30 2912 C 259.805 -2.02669 -2.97653 0
M  V30 2913 C 259.658 -3.55335 -2.75784 0
M  V30 2914 C 260.977 -1.86573 -3.98596 0
M  V30 2915 H 258.096 -0.435856 -0.594305 0
M  V30 2916 H 260.738 -1.60165 -1.02212 0
M  V30 2917 H 258.888 -1.68208 -3.50197 0
M  V30 2918 H 260.56 -3.99863 -2.30016 0
M  V30 2919 H 258.803 -3.79438 -2.1026 0
M  V30 2920 H 259.474 -4.08745 -3.70988 0
M  V30 2921 H 261.95 -2.16703 -3.55217 0
M  V30 2922 H 260.826 -2.47014 -4.90179 0
M  V30 2923 H 261.087 -0.825321 -4.34328 0
M  V30 2924 N 260.146 1.09593 -1.13257 0
M  V30 2925 C 261.394 1.81375 -0.891492 0
M  V30 2926 C 261.715 1.86049 0.584009 0
M  V30 2927 O 260.985 1.34481 1.42449 0
M  V30 2928 H 259.565 0.671708 -0.326828 0
M  V30 2929 H 262.227 1.3256 -1.42877 0
M  V30 2930 H 261.323 2.84612 -1.28071 0
M  V30 2931 N 261.624 0.925811 1.2754 0
M  V30 2932 C 262.534 0.428993 2.30644 0
M  V30 2933 C 263.55 -0.489387 1.66976 0
M  V30 2934 O 264.726 -0.372653 1.97922 0
M  V30 2935 C 261.791 -0.311967 3.45294 0
M  V30 2936 C 260.852 0.641098 4.24486 0
M  V30 2937 C 260.085 -0.0645955 5.33661 0
M  V30 2938 O 260.308 -1.28429 5.55754 0
M  V30 2939 O 259.242 0.606265 5.98839 0
M  V30 2940 H 263.068 1.28504 2.75173 0
M  V30 2941 H 260.653 0.691086 1.32455 0
M  V30 2942 H 262.535 -0.729972 4.15029 0
M  V30 2943 H 261.21 -1.14365 3.02824 0
M  V30 2944 H 260.117 1.10874 3.57292 0
M  V30 2945 H 261.45 1.43995 4.70666 0
M  V30 2946 N 263.102 -1.41638 0.69111 0
M  V30 2947 C 264.052 -2.28 -0.000107832 0
M  V30 2948 C 265.036 -1.41964 -0.757304 0
M  V30 2949 O 266.228 -1.65274 -0.633532 0
M  V30 2950 C 263.357 -3.30209 -0.938983 0
M  V30 2951 C 262.443 -4.23725 -0.17827 0
M  V30 2952 N 262.834 -4.99017 0.825563 0
M  V30 2953 C 261.132 -4.44071 -0.414392 0
M  V30 2954 C 261.833 -5.67431 1.28052 0
M  V30 2955 N 260.809 -5.40197 0.607304 0
M  V30 2956 H 264.611 -2.83644 0.769617 0
M  V30 2957 H 262.125 -1.53797 0.521562 0
M  V30 2958 H 264.122 -3.90898 -1.44929 0
M  V30 2959 H 262.782 -2.76126 -1.70836 0
M  V30 2960 H 263.793 -5.03671 1.20566 0
M  V30 2961 H 260.47 -4.01004 -1.162 0
M  V30 2962 H 261.86 -6.37801 2.11327 0
M  V30 2963 N 264.58 -0.43555 -1.51462 0
M  V30 2964 C 265.543 0.365137 -2.26273 0
M  V30 2965 C 266.543 0.951227 -1.29647 0
M  V30 2966 O 267.733 0.825958 -1.53374 0
M  V30 2967 C 264.865 1.51645 -3.05314 0
M  V30 2968 H 266.058 -0.290474 -2.9849 0
M  V30 2969 H 263.611 -0.188676 -1.55157 0
M  V30 2970 H 264.346 2.20816 -2.3751 0
M  V30 2971 H 264.131 1.10238 -3.76284 0
M  V30 2972 H 265.621 2.08218 -3.61987 0
M  V30 2973 N 266.058 1.56714 -0.166846 0
M  V30 2974 C 267.005 2.17746 0.765193 0
M  V30 2975 C 267.975 1.11614 1.23011 0
M  V30 2976 O 269.16 1.39745 1.29908 0
M  V30 2977 C 266.3 2.81882 1.9909 0
M  V30 2978 C 265.413 4.02462 1.56997 0
M  V30 2979 C 264.548 4.54537 2.749 0
M  V30 2980 C 263.587 5.67538 2.29275 0
M  V30 2981 N 262.724 6.14142 3.40255 0
M  V30 2982 H 267.564 2.97048 0.237952 0
M  V30 2983 H 265.101 1.4672 0.105725 0
M  V30 2984 H 267.059 3.17221 2.70974 0
M  V30 2985 H 265.689 2.05191 2.49192 0
M  V30 2986 H 264.741 3.72973 0.748037 0
M  V30 2987 H 266.053 4.84273 1.19503 0
M  V30 2988 H 265.207 4.92035 3.54946 0
M  V30 2989 H 263.946 3.71774 3.1565 0
M  V30 2990 H 262.951 5.29597 1.47674 0
M  V30 2991 H 264.176 6.52099 1.89588 0
M  V30 2992 H 262.122 5.3431 3.8059 0
M  V30 2993 H 262.039 6.9093 3.06841 0
M  V30 2994 H 263.307 6.56289 4.206 0
M  V30 2995 N 267.536 -0.106894 1.57237 0
M  V30 2996 C 268.499 -1.11466 2.0027 0
M  V30 2997 C 269.499 -1.33623 0.894519 0
M  V30 2998 O 270.689 -1.29935 1.16028 0
M  V30 2999 C 267.821 -2.46646 2.35327 0
M  V30 3000 H 269.014 -0.744516 2.90512 0
M  V30 3001 H 266.567 -0.351576 1.52295 0
M  V30 3002 H 267.302 -2.88558 1.48003 0
M  V30 3003 H 267.087 -2.31915 3.16161 0
M  V30 3004 H 268.577 -3.19151 2.69318 0
M  V30 3005 N 269.014 -1.53014 -0.377408 0
M  V30 3006 C 270.425 -1.60438 -0.954798 0
M  V30 3007 C 270.776 -0.464418 -1.90624 0
M  V30 3008 O 269.901 0.41087 -2.12464 0
M  V30 3009 C 270.496 -2.90797 -1.73847 0
M  V30 3010 C 269.055 -3.00595 -2.26538 0
M  V30 3011 C 268.202 -2.55645 -1.07429 0
M  V30 3012 H 271.153 -1.57926 -0.156575 0
M  V30 3013 H 271.174 -2.77935 -2.5987 0
M  V30 3014 H 270.686 -3.73746 -1.04574 0
M  V30 3015 H 268.787 -2.22208 -2.99089 0
M  V30 3016 H 268.9 -4.05456 -2.5523 0
M  V30 3017 H 267.264 -2.10239 -1.43777 0
M  V30 3018 H 268.047 -3.41 -0.396728 0
M  V30 3019 N 270.492 0.636531 -1.44174 0
M  V30 3020 C 271.402 1.77754 -1.53103 0
M  V30 3021 C 272.418 1.68928 -0.417034 0
M  V30 3022 O 273.594 1.89801 -0.6736 0
M  V30 3023 C 270.659 3.14115 -1.46741 0
M  V30 3024 C 269.72 3.34612 -2.68948 0
M  V30 3025 C 268.953 4.64467 -2.6288 0
M  V30 3026 O 269.176 5.44919 -1.68581 0
M  V30 3027 O 268.11 4.87049 -3.53648 0
M  V30 3028 H 271.936 1.73174 -2.49489 0
M  V30 3029 H 269.521 0.79709 -1.2636 0
M  V30 3030 H 271.403 3.95412 -1.45696 0
M  V30 3031 H 270.078 3.19249 -0.534975 0
M  V30 3032 H 268.985 2.53014 -2.75562 0
M  V30 3033 H 270.318 3.34336 -3.61221 0
M  V30 3034 N 271.97 1.30982 0.876444 0
M  V30 3035 C 273.217 1.20296 1.62896 0
M  V30 3036 C 273.545 -0.240395 1.93009 0
M  V30 3037 O 272.8 -1.18733 1.55567 0
M  V30 3038 C 273.099 1.98572 2.9716 0
M  V30 3039 C 272.765 3.48125 2.86566 0
M  V30 3040 C 271.427 3.88905 2.83383 0
M  V30 3041 C 273.779 4.43322 2.74071 0
M  V30 3042 C 271.107 5.2316 2.65556 0
M  V30 3043 C 273.459 5.77695 2.57781 0
M  V30 3044 C 272.123 6.17704 2.52979 0
M  V30 3045 H 271.393 0.440193 0.59608 0
M  V30 3046 H 274.04 1.62177 1.01837 0
M  V30 3047 H 272.345 1.49352 3.62217 0
M  V30 3048 H 274.042 1.8769 3.54364 0
M  V30 3049 H 270.632 3.15723 2.89856 0
M  V30 3050 H 274.816 4.12752 2.75589 0
M  V30 3051 H 270.072 5.53241 2.60259 0
M  V30 3052 H 274.246 6.51091 2.47089 0
M  V30 3053 H 271.873 7.21678 2.38924 0
M  V30 3054 N 273.449 -1.08991 1.13837 0
M  V30 3055 C 274.381 -2.15606 0.777612 0
M  V30 3056 C 275.394 -1.61533 -0.202739 0
M  V30 3057 O 276.583 -1.78491 0.0181055 0
M  V30 3058 C 273.683 -3.3864 0.132623 0
M  V30 3059 C 272.856 -4.22115 1.1462 0
M  V30 3060 C 271.915 -5.23564 0.526074 0
M  V30 3061 O 270.941 -5.56678 1.18735 0
M  V30 3062 N 272.143 -5.76266 -0.699866 0
M  V30 3063 H 274.908 -2.47159 1.69506 0
M  V30 3064 H 272.469 -1.24747 1.03198 0
M  V30 3065 H 274.461 -4.03626 -0.29459 0
M  V30 3066 H 273.031 -3.04938 -0.687849 0
M  V30 3067 H 272.251 -3.53199 1.75055 0
M  V30 3068 H 273.539 -4.74709 1.83109 0
M  V30 3069 H 272.937 -5.51585 -1.25581 0
M  V30 3070 H 271.494 -6.42963 -1.06968 0
M  V30 3071 N 274.927 -0.932562 -1.27047 0
M  V30 3072 C 276.176 -0.571351 -1.93439 0
M  V30 3073 C 276.489 0.892467 -1.74053 0
M  V30 3074 O 277.695 1.36267 -2.34826 0
M  V30 3075 C 276.151 -0.97106 -3.46552 0
M  V30 3076 C 275.759 -2.4559 -3.74686 0
M  V30 3077 C 277.503 -0.681333 -4.18997 0
M  V30 3078 C 275.41 -2.79475 -5.21198 0
M  V30 3079 H 274.34 -0.209966 -0.724176 0
M  V30 3080 H 276.991 -1.13403 -1.44263 0
M  V30 3081 H 275.373 -0.336983 -3.94564 0
M  V30 3082 H 276.547 -3.13829 -3.37414 0
M  V30 3083 H 274.862 -2.71802 -3.15456 0
M  V30 3084 H 277.459 -0.910939 -5.26883 0
M  V30 3085 H 277.802 0.381628 -4.14547 0
M  V30 3086 H 278.335 -1.27473 -3.76823 0
M  V30 3087 H 275.074 -3.847 -5.30741 0
M  V30 3088 H 274.594 -2.1589 -5.596 0
M  V30 3089 H 276.273 -2.67478 -5.89122 0
M  V30 3090 N 276.405 1.4127 -0.698611 0
M  V30 3091 C 277.682 1.94955 -0.158762 0
M  V30 3092 C 278.062 1.63781 1.33188 0
M  V30 3093 O 277.41 0.946423 2.07979 0
M  V30 3094 C 277.62 3.46044 -0.453309 0
M  V30 3095 C 278.968 4.22872 -0.382707 0
M  V30 3096 O 279.992 3.54076 -0.388396 0
M  V30 3097 O 278.851 5.45407 -0.345463 0
M  V30 3098 H 275.945 0.82683 -0.0167505 0
M  V30 3099 H 278.491 1.50971 -0.77498 0
M  V30 3100 H 277.263 3.62028 -1.48498 0
M  V30 3101 H 276.886 3.97128 0.19373 0
M  V30 3102 N 277.883 0.443576 1.51229 0
M  V30 3103 C 278.813 -0.355142 2.30783 0
M  V30 3104 C 279.794 -1.0154 1.36468 0
M  V30 3105 O 280.979 -1.01785 1.65389 0
M  V30 3106 C 278.109 -1.45312 3.15439 0
M  V30 3107 C 277.063 -0.916002 4.18083 0
M  V30 3108 C 276.389 -2.1102 4.91299 0
M  V30 3109 C 277.689 0.0538602 5.22272 0
M  V30 3110 H 279.383 0.308767 2.97804 0
M  V30 3111 H 276.929 0.149937 1.43217 0
M  V30 3112 H 278.882 -2.01914 3.69876 0
M  V30 3113 H 277.606 -2.14541 2.46252 0
M  V30 3114 H 276.265 -0.372145 3.64706 0
M  V30 3115 H 275.913 -2.78882 4.18609 0
M  V30 3116 H 275.613 -1.75717 5.60712 0
M  V30 3117 H 277.137 -2.68164 5.48562 0
M  V30 3118 H 278.551 -0.422069 5.71744 0
M  V30 3119 H 276.948 0.319776 5.99247 0
M  V30 3120 H 278.018 0.98858 4.74716 0
M  V30 3121 N 279.361 -1.56624 0.175154 0
M  V30 3122 C 280.309 -2.19468 -0.770495 0
M  V30 3123 C 281.303 -1.15985 -1.23466 0
M  V30 3124 O 282.509 -1.34176 -1.19987 0
M  V30 3125 H 278.884 -0.703095 -0.266761 0
M  V30 3126 H 280.855 -2.97613 -0.216542 0
M  V30 3127 C 279.604 -2.85264 -1.98796 0
M  V30 3128 H 278.927 -3.64623 -1.63983 0
M  V30 3129 H 280.367 -3.327 -2.62843 0
M  V30 3130 C 278.826 -1.85239 -2.81404 0
M  V30 3131 O 279.356 -1.34024 -3.78682 0
M  V30 3132 N 277.562 -1.53911 -2.46495 0
M  V30 3133 H 277.109 -1.95751 -1.67449 0
M  V30 3134 H 277.067 -0.872382 -3.02054 0
M  V30 3135 N 280.839 0.0985539 -1.57292 0
M  V30 3136 C 282.088 0.801358 -1.85098 0
M  V30 3137 C 282.401 1.80066 -0.763902 0
M  V30 3138 O 283.607 2.55112 -0.928981 0
M  V30 3139 C 282.063 1.47599 -3.28242 0
M  V30 3140 C 281.671 0.516624 -4.45011 0
M  V30 3141 C 283.415 2.16272 -3.65276 0
M  V30 3142 C 281.322 1.19564 -5.79188 0
M  V30 3143 H 280.252 0.303022 -0.69043 0
M  V30 3144 H 282.903 0.0542623 -1.8342 0
M  V30 3145 H 281.285 2.27042 -3.2445 0
M  V30 3146 H 282.459 -0.246065 -4.60143 0
M  V30 3147 H 280.774 -0.064227 -4.1635 0
M  V30 3148 H 283.371 2.67802 -4.62803 0
M  V30 3149 H 283.714 2.95009 -2.93727 0
M  V30 3150 H 284.247 1.43693 -3.70941 0
M  V30 3151 H 280.986 0.449157 -6.53959 0
M  V30 3152 H 280.506 1.92984 -5.67906 0
M  V30 3153 H 282.185 1.7231 -6.23633 0
M  V30 3154 N 282.317 1.53212 0.369288 0
M  V30 3155 C 283.563 1.69466 1.11397 0
M  V30 3156 C 283.896 0.443257 1.89074 0
M  V30 3157 O 283.171 -0.559386 1.86282 0
M  V30 3158 C 283.454 2.9422 2.07621 0
M  V30 3159 C 283.307 4.29508 1.33577 0
M  V30 3160 C 284.626 3.14565 3.07794 0
M  V30 3161 H 281.745 0.616667 0.403597 0
M  V30 3162 H 284.387 1.85845 0.395179 0
M  V30 3163 H 282.537 2.80387 2.68916 0
M  V30 3164 H 284.209 4.55147 0.750955 0
M  V30 3165 H 282.452 4.29088 0.637618 0
M  V30 3166 H 283.123 5.12926 2.03989 0
M  V30 3167 H 285.599 3.2756 2.56601 0
M  V30 3168 H 284.475 4.03297 3.72348 0
M  V30 3169 H 284.736 2.29675 3.77759 0
M  V30 3170 N 283.795 -0.628877 1.44509 0
M  V30 3171 C 285.211 -0.947305 1.28446 0
M  V30 3172 C 285.411 -2.00275 0.221872 0
M  V30 3173 O 284.467 -2.49447 -0.391471 0
M  V30 3174 C 285.78 -1.40843 2.65676 0
M  V30 3175 C 287.328 -1.52379 2.73404 0
M  V30 3176 C 287.803 -2.01875 4.11109 0
M  V30 3177 N 289.294 -2.09142 4.13296 0
M  V30 3178 C 290.029 -2.48615 5.16699 0
M  V30 3179 N 289.525 -2.87209 6.30462 0
M  V30 3180 N 291.318 -2.48768 5.04054 0
M  V30 3181 H 283.469 0.0690977 2.12288 0
M  V30 3182 H 285.732 -0.0317164 0.947469 0
M  V30 3183 H 285.438 -0.707206 3.44516 0
M  V30 3184 H 285.312 -2.37902 2.92716 0
M  V30 3185 H 287.699 -2.21598 1.9488 0
M  V30 3186 H 287.78 -0.536898 2.50102 0
M  V30 3187 H 287.424 -1.3325 4.90109 0
M  V30 3188 H 287.354 -3.0144 4.31789 0
M  V30 3189 H 289.845 -1.81991 3.31191 0
M  V30 3190 H 290.158 -3.16149 7.05174 0
M  V30 3191 H 288.503 -2.84955 6.33897 0
M  V30 3192 H 291.694 -2.18009 4.14234 0
M  V30 3193 H 291.867 -2.79207 5.84763 0
M  V30 3194 N 285.273 -1.31445 -0.869486 0
M  V30 3195 C 286.183 -1.21097 -2.0093 0
M  V30 3196 C 287.199 -0.127584 -1.73532 0
M  V30 3197 O 288.375 -0.345477 -1.98415 0
M  V30 3198 C 285.44 -0.919378 -3.34288 0
M  V30 3199 C 284.501 -2.08971 -3.75006 0
M  V30 3200 C 283.734 -1.81194 -5.02001 0
M  V30 3201 O 283.957 -0.747296 -5.65484 0
M  V30 3202 O 282.891 -2.66883 -5.39497 0
M  V30 3203 H 286.717 -2.16883 -2.12592 0
M  V30 3204 H 284.302 -1.11189 -0.997868 0
M  V30 3205 H 286.184 -0.772625 -4.14257 0
M  V30 3206 H 284.859 0.00844772 -3.23699 0
M  V30 3207 H 283.766 -2.29187 -2.95676 0
M  V30 3208 H 285.099 -2.9998 -3.90221 0
M  V30 3209 N 286.751 1.08385 -1.14413 0
M  V30 3210 C 287.714 2.13486 -0.834048 0
M  V30 3211 C 288.714 1.59988 0.161418 0
M  V30 3212 O 289.904 1.74071 -0.0669575 0
M  V30 3213 C 287.036 3.4003 -0.243354 0
M  V30 3214 H 288.229 2.42425 -1.7655 0
M  V30 3215 H 285.782 1.24101 -0.950189 0
M  V30 3216 H 286.517 3.16726 0.696807 0
M  V30 3217 H 286.302 3.80157 -0.960367 0
M  V30 3218 H 287.792 4.17577 -0.0436242 0
M  V30 3219 N 288.23 0.939286 1.26551 0
M  V30 3220 C 289.14 0.453432 2.30176 0
M  V30 3221 C 290.156 -0.471649 1.67486 0
M  V30 3222 O 291.332 -0.35164 1.98306 0
M  V30 3223 C 288.397 -0.275326 3.45605 0
M  V30 3224 C 287.458 0.686084 4.23782 0
M  V30 3225 C 286.691 -0.00798994 5.33699 0
M  V30 3226 O 286.914 -1.22528 5.57085 0
M  V30 3227 O 285.848 0.669746 5.98162 0
M  V30 3228 H 289.674 1.31416 2.73795 0
M  V30 3229 H 287.259 0.705095 1.31715 0
M  V30 3230 H 289.141 -0.685911 4.1578 0
M  V30 3231 H 287.816 -1.11147 3.0402 0
M  V30 3232 H 286.723 1.14658 3.56096 0
M  V30 3233 H 288.056 1.48979 4.69112 0
M  V30 3234 N 289.708 -1.40897 0.706093 0
M  V30 3235 C 290.655 -2.30751 0.0474474 0
M  V30 3236 C 291.625 -1.47678 -0.76029 0
M  V30 3237 O 292.81 -1.76441 -0.726177 0
M  V30 3238 C 289.95 -3.33815 -0.875309 0
M  V30 3239 C 289.063 -4.31961 -0.0580623 0
M  V30 3240 C 288.198 -5.22093 -0.979425 0
M  V30 3241 C 287.237 -6.11902 -0.155706 0
M  V30 3242 N 286.374 -6.94482 -1.03144 0
M  V30 3243 H 291.214 -2.86513 0.819413 0
M  V30 3244 H 288.751 -1.41102 0.415783 0
M  V30 3245 H 290.709 -3.92129 -1.42446 0
M  V30 3246 H 289.339 -2.79579 -1.61356 0
M  V30 3247 H 288.391 -3.75507 0.608147 0
M  V30 3248 H 289.703 -4.95415 0.580082 0
M  V30 3249 H 288.857 -5.85292 -1.59744 0
M  V30 3250 H 287.596 -4.5889 -1.65141 0
M  V30 3251 H 286.601 -5.47742 0.475309 0
M  V30 3252 H 287.826 -6.77162 0.512635 0
M  V30 3253 H 285.772 -6.33877 -1.68924 0
M  V30 3254 H 285.689 -7.54665 -0.449108 0
M  V30 3255 H 286.957 -7.6214 -1.63593 0
M  V30 3256 N 291.186 -0.45159 -1.50991 0
M  V30 3257 C 292.096 0.358431 -2.31846 0
M  V30 3258 C 293.112 1.01438 -1.41373 0
M  V30 3259 O 294.288 1.00663 -1.74439 0
M  V30 3260 C 291.353 1.43704 -3.15515 0
M  V30 3261 C 290.414 0.799742 -4.21785 0
M  V30 3262 C 289.647 1.82696 -5.01456 0
M  V30 3263 O 289.87 3.05105 -4.81941 0
M  V30 3264 O 288.804 1.40958 -5.85162 0
M  V30 3265 H 292.63 -0.302032 -3.02194 0
M  V30 3266 H 290.215 -0.213825 -1.47862 0
M  V30 3267 H 292.097 2.06227 -3.67489 0
M  V30 3268 H 290.772 2.08133 -2.47916 0
M  V30 3269 H 289.679 0.136084 -3.73852 0
M  V30 3270 H 291.012 0.198718 -4.91799 0
M  V30 3271 N 292.664 1.56529 -0.183458 0
M  V30 3272 C 293.594 2.21549 0.737456 0
M  V30 3273 C 294.575 1.17489 1.23005 0
M  V30 3274 O 295.76 1.45959 1.281 0
M  V30 3275 C 292.89 2.86575 1.96194 0
M  V30 3276 C 291.844 3.96778 1.60473 0
M  V30 3277 C 291.17 4.48911 2.90487 0
M  V30 3278 C 292.47 5.15767 0.823497 0
M  V30 3279 H 294.164 2.98761 0.195453 0
M  V30 3280 H 291.71 1.43702 0.0925686 0
M  V30 3281 H 293.663 3.30739 2.61131 0
M  V30 3282 H 292.387 2.06749 2.52828 0
M  V30 3283 H 291.046 3.53286 0.978997 0
M  V30 3284 H 290.694 3.65862 3.45186 0
M  V30 3285 H 290.394 5.23265 2.67335 0
M  V30 3286 H 291.918 4.95771 3.56432 0
M  V30 3287 H 293.332 5.56549 1.37571 0
M  V30 3288 H 291.729 5.96114 0.690551 0
M  V30 3289 H 292.799 4.84574 -0.177782 0
M  V30 3290 N 294.142 -0.090211 1.57342 0
M  V30 3291 C 295.052 -1.12735 2.05738 0
M  V30 3292 C 296.068 -1.43557 0.983231 0
M  V30 3293 O 297.244 -1.54101 1.29672 0
M  V30 3294 C 294.309 -2.42659 2.47624 0
M  V30 3295 C 293.37 -2.18975 3.69254 0
M  V30 3296 C 292.603 -3.42704 4.09133 0
M  V30 3297 O 292.826 -4.51127 3.49057 0
M  V30 3298 O 291.76 -3.32003 5.02053 0
M  V30 3299 H 295.586 -0.746279 2.94388 0
M  V30 3300 H 293.171 -0.303064 1.46294 0
M  V30 3301 H 295.053 -3.19155 2.7517 0
M  V30 3302 H 293.728 -2.80182 1.62109 0
M  V30 3303 H 292.635 -1.40244 3.46818 0
M  V30 3304 H 293.968 -1.86342 4.55563 0
M  V30 3305 N 295.62 -1.53406 -0.361157 0
M  V30 3306 C 296.552 -1.76446 -1.46286 0
M  V30 3307 C 297.565 -0.645322 -1.49464 0
M  V30 3308 O 298.754 -0.921681 -1.52864 0
M  V30 3309 C 295.854 -1.83332 -2.85031 0
M  V30 3310 C 295.027 -3.13033 -3.05498 0
M  V30 3311 C 294.086 -3.11104 -4.24383 0
M  V30 3312 O 293.112 -3.84888 -4.19344 0
M  V30 3313 N 294.314 -2.32234 -5.32022 0
M  V30 3314 H 297.079 -2.71508 -1.26899 0
M  V30 3315 H 294.64 -1.52238 -0.550915 0
M  V30 3316 H 296.632 -1.79514 -3.62708 0
M  V30 3317 H 295.202 -0.955342 -2.97644 0
M  V30 3318 H 294.422 -3.30119 -2.15442 0
M  V30 3319 H 295.71 -3.9874 -3.16044 0
M  V30 3320 H 295.108 -1.71807 -5.38979 0
M  V30 3321 H 293.665 -2.3423 -6.08259 0
M  V30 3322 N 297.098 0.621204 -1.44841 0
M  V30 3323 C 298.061 1.71459 -1.521 0
M  V30 3324 C 299.061 1.55696 -0.401933 0
M  V30 3325 O 300.251 1.61011 -0.664925 0
M  V30 3326 C 297.383 3.10624 -1.40447 0
M  V30 3327 H 298.576 1.66394 -2.49506 0
M  V30 3328 H 296.129 0.835745 -1.3208 0
M  V30 3329 H 296.864 3.21277 -0.441737 0
M  V30 3330 H 296.649 3.23473 -2.21602 0
M  V30 3331 H 298.139 3.90293 -1.4853 0
M  V30 3332 N 298.576 1.31904 0.862503 0
M  V30 3333 C 299.539 1.20131 1.95195 0
M  V30 3334 C 300.539 0.126409 1.60302 0
M  V30 3335 O 301.729 0.376234 1.70089 0
M  V30 3336 C 298.861 0.845691 3.30244 0
M  V30 3337 H 300.054 2.16943 2.07064 0
M  V30 3338 H 297.607 1.15622 1.05172 0
M  V30 3339 H 298.342 -0.120957 3.24074 0
M  V30 3340 H 298.127 1.62276 3.56944 0
M  V30 3341 H 299.617 0.787418 4.10109 0
M  V30 3342 N 300.054 -1.07777 1.14986 0
M  V30 3343 C 301.017 -2.13041 0.845358 0
M  V30 3344 C 302.017 -1.60071 -0.152931 0
M  V30 3345 O 303.207 -1.74033 0.0761879 0
M  V30 3346 C 300.339 -3.39896 0.261383 0
M  V30 3347 H 301.532 -2.41485 1.77834 0
M  V30 3348 H 299.085 -1.23595 0.956757 0
M  V30 3349 H 299.82 -3.17091 -0.68 0
M  V30 3350 H 299.605 -3.79642 0.980514 0
M  V30 3351 H 301.095 -4.17548 0.0657687 0
M  V30 3352 N 301.532 -0.945985 -1.26051 0
M  V30 3353 C 302.778 -0.597002 -1.93814 0
M  V30 3354 C 303.111 0.862484 -1.73997 0
M  V30 3355 O 302.386 1.61769 -1.07986 0
M  V30 3356 C 302.669 -0.945937 -3.47454 0
M  V30 3357 C 302.522 -2.46052 -3.76535 0
M  V30 3358 C 303.841 -0.464785 -4.37639 0
M  V30 3359 H 300.96 -0.218366 -0.703907 0
M  V30 3360 H 303.602 -1.18107 -1.48831 0
M  V30 3361 H 301.752 -0.448902 -3.85898 0
M  V30 3362 H 303.424 -3.03065 -3.47778 0
M  V30 3363 H 301.667 -2.90194 -3.22444 0
M  V30 3364 H 302.338 -2.65517 -4.83947 0
M  V30 3365 H 304.814 -0.891016 -4.06448 0
M  V30 3366 H 303.69 -0.737712 -5.4392 0
M  V30 3367 H 303.951 0.635274 -4.37512 0
M  V30 3368 N 303.011 1.40521 -0.713556 0
M  V30 3369 C 303.974 2.29098 -0.0684347 0
M  V30 3370 C 304.974 1.45268 0.689472 0
M  V30 3371 O 306.164 1.66205 0.521677 0
M  V30 3372 C 303.296 3.28446 0.913024 0
M  V30 3373 H 304.489 2.87645 -0.84855 0
M  V30 3374 H 302.042 1.48809 -0.47809 0
M  V30 3375 H 302.777 2.74913 1.72027 0
M  V30 3376 H 302.562 3.90327 0.372472 0
M  V30 3377 H 304.052 3.94777 1.36165 0
M  V30 3378 N 304.489 0.459591 1.5075 0
M  V30 3379 C 305.738 -0.100971 2.01447 0
M  V30 3380 C 306.051 -1.41816 1.34713 0
M  V30 3381 O 307.257 -2.06299 1.76502 0
M  V30 3382 C 305.713 -0.23047 3.59161 0
M  V30 3383 C 305.321 1.0776 4.34847 0
M  V30 3384 C 307.065 -0.743608 4.17936 0
M  V30 3385 C 304.972 0.91253 5.84317 0
M  V30 3386 H 303.902 -0.0415102 0.752856 0
M  V30 3387 H 306.553 0.592742 1.73663 0
M  V30 3388 H 304.935 -0.987703 3.83485 0
M  V30 3389 H 306.109 1.8449 4.22256 0
M  V30 3390 H 304.424 1.52097 3.87628 0
M  V30 3391 H 307.021 -0.883959 5.27343 0
M  V30 3392 H 307.364 -1.73196 3.78562 0
M  V30 3393 H 307.897 -0.04408 3.97776 0
M  V30 3394 H 304.636 1.87391 6.28144 0
M  V30 3395 H 304.156 0.185422 5.99513 0
M  V30 3396 H 305.835 0.574547 6.44444 0
M  V30 3397 N 305.967 -1.56429 0.191757 0
M  V30 3398 C 307.244 -1.89224 -0.495332 0
M  V30 3399 C 307.624 -1.10478 -1.79883 0
M  V30 3400 O 306.972 -0.204852 -2.2758 0
M  V30 3401 C 307.182 -3.41548 -0.717367 0
M  V30 3402 C 308.53 -4.11711 -1.03823 0
M  V30 3403 O 309.554 -3.4698 -0.805204 0
M  V30 3404 O 308.413 -5.2611 -1.47887 0
M  V30 3405 H 305.507 -0.785788 -0.25781 0
M  V30 3406 H 308.053 -1.68111 0.231721 0
M  V30 3407 H 306.825 -3.90772 0.203287 0
M  V30 3408 H 306.448 -3.68342 -1.497 0
M  V30 3409 N 307.445 0.0818655 -1.57387 0
M  V30 3410 C 308.355 1.11642 -2.06333 0
M  V30 3411 C 309.371 1.43033 -0.99083 0
M  V30 3412 O 310.547 1.53411 -1.30488 0
M  V30 3413 C 307.612 2.41342 -2.48907 0
M  V30 3414 C 306.673 2.17014 -3.7041 0
M  V30 3415 C 305.906 3.4053 -4.10944 0
M  V30 3416 O 306.129 4.4927 -3.51444 0
M  V30 3417 O 305.063 3.29336 -5.03807 0
M  V30 3418 H 308.889 0.730657 -2.9478 0
M  V30 3419 H 306.474 0.295301 -1.46452 0
M  V30 3420 H 308.356 3.17691 -2.76858 0
M  V30 3421 H 307.031 2.79319 -1.63593 0
M  V30 3422 H 305.938 1.38403 -3.47556 0
M  V30 3423 H 307.271 1.83923 -4.56545 0
M  V30 3424 N 308.923 1.53595 0.353017 0
M  V30 3425 C 309.833 1.83897 1.45667 0
M  V30 3426 C 310.849 0.728334 1.58023 0
M  V30 3427 O 312.025 1.01968 1.73679 0
M  V30 3428 C 309.09 2.03383 2.80778 0
M  V30 3429 C 308.151 3.27262 2.77845 0
M  V30 3430 C 307.384 3.45809 4.06512 0
M  V30 3431 O 307.607 2.68387 5.03314 0
M  V30 3432 O 306.541 4.39207 4.11559 0
M  V30 3433 H 310.367 2.77686 1.2298 0
M  V30 3434 H 307.952 1.39132 0.544308 0
M  V30 3435 H 309.834 2.17698 3.60812 0
M  V30 3436 H 308.509 1.12783 3.03417 0
M  V30 3437 H 307.416 3.18359 1.96465 0
M  V30 3438 H 308.749 4.17824 2.60161 0
M  V30 3439 N 310.401 -0.613514 1.45168 0
M  V30 3440 C 311.678 -1.37263 1.39349 0
M  V30 3441 C 312.058 -2.11012 0.0610848 0
M  V30 3442 O 311.406 -2.07502 -0.956825 0
M  V30 3443 C 311.616 -2.3244 2.60332 0
M  V30 3444 C 312.964 -2.9523 3.05163 0
M  V30 3445 O 313.988 -2.42762 2.60663 0
M  V30 3446 O 312.847 -3.90454 3.82372 0
M  V30 3447 H 309.941 -0.615188 0.552696 0
M  V30 3448 H 312.487 -0.637097 1.57287 0
M  V30 3449 H 311.259 -1.77164 3.48896 0
M  V30 3450 H 310.882 -3.13383 2.44698 0
M  V30 3451 N 311.879 -1.3236 -0.855495 0
M  V30 3452 C 313.128 -1.22226 -1.60448 0
M  V30 3453 C 313.441 0.214733 -1.94418 0
M  V30 3454 O 314.647 0.437917 -2.67945 0
M  V30 3455 C 313.103 -2.14063 -2.89318 0
M  V30 3456 C 312.711 -3.62839 -2.62777 0
M  V30 3457 C 314.455 -2.12764 -3.67331 0
M  V30 3458 C 312.362 -4.4664 -3.87643 0
M  V30 3459 H 311.292 -0.453904 -0.602069 0
M  V30 3460 H 313.943 -1.57314 -0.944698 0
M  V30 3461 H 312.325 -1.71889 -3.5675 0
M  V30 3462 H 313.499 -4.1335 -2.03662 0
M  V30 3463 H 311.814 -3.66261 -1.98096 0
M  V30 3464 H 314.411 -2.72611 -4.59987 0
M  V30 3465 H 314.754 -1.11841 -4.00995 0
M  V30 3466 H 315.287 -2.53214 -3.06802 0
M  V30 3467 H 312.026 -5.48373 -3.5912 0
M  V30 3468 H 311.546 -4.0088 -4.46156 0
M  V30 3469 H 313.225 -4.59597 -4.55389 0
M  V30 3470 N 313.357 1.07166 -1.15556 0
M  V30 3471 C 314.267 2.17947 -0.868116 0
M  V30 3472 C 315.283 1.73297 0.156297 0
M  V30 3473 O 316.459 2.01392 -0.0182327 0
M  V30 3474 C 313.524 3.44789 -0.36355 0
M  V30 3475 C 312.585 4.03996 -1.45209 0
M  V30 3476 C 311.818 5.24783 -0.971508 0
M  V30 3477 O 312.041 5.70109 0.182194 0
M  V30 3478 O 310.975 5.75715 -1.75603 0
M  V30 3479 H 314.801 2.4503 -1.79427 0
M  V30 3480 H 312.386 1.16539 -0.934824 0
M  V30 3481 H 314.268 4.21307 -0.0887113 0
M  V30 3482 H 312.943 3.19253 0.534708 0
M  V30 3483 H 311.85 3.29009 -1.78056 0
M  V30 3484 H 313.183 4.33808 -2.32533 0
M  V30 3485 N 314.835 0.952656 1.25548 0
M  V30 3486 C 315.783 0.462354 2.27958 0
M  V30 3487 C 316.777 -0.46634 1.62855 0
M  V30 3488 O 317.983 -0.343287 1.76696 0
M  V30 3489 H 314.358 0.13101 0.7405 0
M  V30 3490 H 316.329 1.33839 2.66702 0
M  V30 3491 C 315.078 -0.24628 3.46827 0
M  V30 3492 H 314.401 0.459192 3.97154 0
M  V30 3493 H 315.841 -0.553393 4.20373 0
M  V30 3494 C 314.3 -1.4681 3.0323 0
M  V30 3495 O 314.83 -2.56591 3.09069 0
M  V30 3496 N 313.036 -1.32874 2.58443 0
M  V30 3497 H 312.583 -0.435536 2.53891 0
M  V30 3498 H 312.541 -2.14742 2.29637 0
M  V30 3499 O 316.352 -1.36754 0.859105 0
M  V30 3500 H 317.043 -1.8829 0.454606 0
M  V30 END ATOM
M  V30 BEGIN BOND
M  V30 END BOND
M  V30 END CTAB
M  END
$$$$
