drugbank_target|Q9Y271 Cysteinyl leukotriene receptor 1 (DB00471; DB00549; DB00587; DB00716; DB01411; DB08855; DB11858)
 OpenBabel12092119373D

  0  0  0     0  0            999 V3000
M  V30 BEGIN CTAB
M  V30 COUNTS 5508 5576 0 0 0
M  V30 BEGIN ATOM
M  V30 1 H -0.908 1.98254 -0.117106 0
M  V30 2 N 0 1.576 0 0
M  V30 3 C 0.933 2.03868 1.02534 0
M  V30 4 C 1.911 0.928543 1.3348 0
M  V30 5 O 3.095 1.19667 1.45644 0
M  V30 6 C 0.222 2.43627 2.35294 0
M  V30 7 C -0.732 3.65373 2.2001 0
M  V30 8 S 0.101 5.13292 1.52614 0
M  V30 9 C 1.257 5.56322 2.86805 0
M  V30 10 H 1.49 2.90518 0.631377 0
M  V30 11 H -0.977 1.52953 0.210867 0
M  V30 12 H 0.981 2.67203 3.11629 0
M  V30 13 H -0.358 1.57376 2.7183 0
M  V30 14 H -1.165 3.90944 3.18086 0
M  V30 15 H -1.563 3.418 1.51819 0
M  V30 16 H 0.729 5.58782 3.83104 0
M  V30 17 H 1.672 6.56266 2.65933 0
M  V30 18 H 2.08 4.83886 2.90714 0
M  V30 19 N 1.4781 -0.272755 1.55222 0
M  V30 20 C 2.7551 -1.02562 1.66555 0
M  V30 21 C 3.1351 -2.04282 0.532189 0
M  V30 22 O 2.4831 -2.23662 -0.467717 0
M  V30 23 C 2.6931 -1.6822 3.05782 0
M  V30 24 C 4.0411 -2.19373 3.63539 0
M  V30 25 O 5.0651 -1.78206 3.08417 0
M  V30 26 O 3.9241 -2.94883 4.60115 0
M  V30 27 H 1.0181 -0.475755 0.676451 0
M  V30 28 H 3.5641 -0.268593 1.67561 0
M  V30 29 H 2.3361 -0.945112 3.79715 0
M  V30 30 H 1.9591 -2.50609 3.08676 0
M  V30 31 N 2.9562 -1.48159 -0.537278 0
M  V30 32 C 3.8662 -1.64807 -1.6696 0
M  V30 33 C 4.8822 -0.530651 -1.65711 0
M  V30 34 O 6.0582 -0.800784 -1.84796 0
M  V30 35 C 3.1232 -1.67708 -3.03438 0
M  V30 36 C 2.1842 -2.91025 -3.156 0
M  V30 37 C 1.4172 -2.93778 -4.45567 0
M  V30 38 O 1.6402 -2.05153 -5.3223 0
M  V30 39 O 0.5742 -3.85868 -4.61941 0
M  V30 40 H 4.4002 -2.6066 -1.55853 0
M  V30 41 H 1.9852 -1.31475 -0.709549 0
M  V30 42 H 3.8672 -1.7218 -3.84619 0
M  V30 43 H 2.5422 -0.750278 -3.14885 0
M  V30 44 H 1.4492 -2.92089 -2.33741 0
M  V30 45 H 2.7822 -3.83065 -3.09066 0
M  V30 46 N 4.4343 0.785586 -1.36625 0
M  V30 47 C 5.6623 1.57448 -1.3423 0
M  V30 48 C 6.0773 1.88649 0.0755653 0
M  V30 49 O 5.4343 1.50414 1.03354 0
M  V30 50 C 5.4853 2.89316 -2.16745 0
M  V30 51 O 5.2063 2.59459 -3.53005 0
M  V30 52 C 6.7073 3.83606 -2.22174 0
M  V30 53 H 3.9273 0.488226 -0.4603 0
M  V30 54 H 6.4713 0.974733 -1.79775 0
M  V30 55 H 4.6263 3.4575 -1.74745 0
M  V30 56 H 5.0403 3.43804 -3.96105 0
M  V30 57 H 6.5143 4.73181 -2.8426 0
M  V30 58 H 6.9913 4.21734 -1.22627 0
M  V30 59 H 7.5973 3.33104 -2.64427 0
M  V30 60 N 5.9124 1.20967 1.01018 0
M  V30 61 C 7.1604 1.02172 1.74371 0
M  V30 62 C 7.4814 -0.446414 1.89821 0
M  V30 63 O 6.7514 -1.32234 1.44537 0
M  V30 64 H 5.3314 0.375066 0.646014 0
M  V30 65 H 7.9934 1.52187 1.21758 0
M  V30 66 H 7.0894 1.48538 2.74487 0
M  V30 67 N 7.3905 -1.2043 1.01659 0
M  V30 68 C 8.3385 -2.25249 0.580143 0
M  V30 69 C 9.3325 -1.65057 -0.381115 0
M  V30 70 O 10.5385 -1.78241 -0.251039 0
M  V30 71 H 6.9135 -0.732695 0.169299 0
M  V30 72 H 8.8845 -2.59389 1.47512 0
M  V30 73 C 7.6335 -3.47638 -0.065788 0
M  V30 74 H 6.9565 -3.94233 0.664874 0
M  V30 75 H 8.3965 -4.2268 -0.334282 0
M  V30 76 C 6.8555 -3.10447 -1.3086 0
M  V30 77 O 7.3855 -3.21981 -2.4019 0
M  V30 78 N 5.5915 -2.64996 -1.1927 0
M  V30 79 H 5.1385 -2.55811 -0.303064 0
M  V30 80 H 5.0965 -2.40482 -2.02523 0
M  V30 81 N 8.8686 -0.792821 -1.36206 0
M  V30 82 C 9.7986 -0.207853 -2.32573 0
M  V30 83 C 10.7796 0.659055 -1.56813 0
M  V30 84 O 11.9646 0.592176 -1.84951 0
M  V30 85 C 9.0946 0.655449 -3.41059 0
M  V30 86 C 8.0486 -0.111842 -4.27854 0
M  V30 87 C 7.3746 0.872274 -5.27537 0
M  V30 88 C 8.6746 -1.30299 -5.05786 0
M  V30 89 H 10.3686 -1.01294 -2.81744 0
M  V30 90 H 7.9146 -0.48854 -1.3546 0
M  V30 91 H 9.8676 1.07464 -4.07467 0
M  V30 92 H 8.5916 1.49328 -2.90463 0
M  V30 93 H 7.2506 -0.512053 -3.63006 0
M  V30 94 H 6.8986 1.70523 -4.73214 0
M  V30 95 H 6.5986 0.363291 -5.86476 0
M  V30 96 H 8.1226 1.28996 -5.96818 0
M  V30 97 H 9.5366 -0.959379 -5.65216 0
M  V30 98 H 7.9336 -1.7455 -5.74154 0
M  V30 99 H 9.0036 -2.09663 -4.37229 0
M  V30 100 N 10.3467 1.47872 -0.545128 0
M  V30 101 C 11.5747 2.06889 -0.021084 0
M  V30 102 C 11.9897 1.39955 1.2672 0
M  V30 103 O 11.3467 0.492036 1.75742 0
M  V30 104 C 11.3977 3.60996 0.190817 0
M  V30 105 O 11.1187 4.25419 -1.04644 0
M  V30 106 C 12.6197 4.36849 0.753521 0
M  V30 107 H 9.8397 0.669785 -0.0403635 0
M  V30 108 H 12.3837 1.90049 -0.755095 0
M  V30 109 H 10.5387 3.77391 0.87492 0
M  V30 110 H 10.9527 5.17785 -0.836611 0
M  V30 111 H 12.4267 5.45399 0.851139 0
M  V30 112 H 12.9037 4.02306 1.762 0
M  V30 113 H 13.5097 4.25169 0.105503 0
M  V30 114 N 11.8248 0.280983 1.55075 0
M  V30 115 C 13.0708 -0.33461 2.00021 0
M  V30 116 C 13.4038 -1.55063 1.16915 0
M  V30 117 O 12.6788 -1.93006 0.240646 0
M  V30 118 C 12.9618 -0.711007 3.53011 0
M  V30 119 C 12.8148 0.512766 4.46868 0
M  V30 120 C 14.1338 -1.54522 4.12081 0
M  V30 121 H 11.2528 -0.120147 0.727141 0
M  V30 122 H 13.8948 0.389097 1.85973 0
M  V30 123 H 12.0448 -1.32761 3.65112 0
M  V30 124 H 13.7168 1.15131 4.46702 0
M  V30 125 H 11.9598 1.14975 4.18286 0
M  V30 126 H 12.6308 0.205556 5.51617 0
M  V30 127 H 15.1068 -1.02442 4.03293 0
M  V30 128 H 13.9828 -1.77739 5.19327 0
M  V30 129 H 14.2438 -2.52813 3.62682 0
M  V30 130 N 13.3029 -1.57598 0.00835791 0
M  V30 131 C 14.5279 -1.95617 -0.689103 0
M  V30 132 C 14.9529 -0.883753 -1.66046 0
M  V30 133 O 14.3109 0.157352 -1.80616 0
M  V30 134 C 14.3589 -3.32736 -1.38994 0
M  V30 135 O 13.4629 -3.27631 -2.50463 0
M  V30 136 H 12.8039 -0.638379 -0.182668 0
M  V30 137 H 15.3339 -2.045 0.064036 0
M  V30 138 H 15.3439 -3.68494 -1.75147 0
M  V30 139 H 14.0189 -4.1034 -0.677778 0
M  V30 140 H 12.5959 -3.03561 -2.16576 0
M  V30 141 N 14.781 0.264519 -1.55364 0
M  V30 142 C 16.006 1.01726 -1.80739 0
M  V30 143 C 16.431 1.78836 -0.583044 0
M  V30 144 O 15.789 1.75167 0.467566 0
M  V30 145 C 15.837 1.94482 -3.03659 0
M  V30 146 O 14.941 3.03386 -2.7934 0
M  V30 147 H 14.282 0.290395 -0.597132 0
M  V30 148 H 16.812 0.290854 -2.02522 0
M  V30 149 H 16.822 2.36278 -3.32621 0
M  V30 150 H 15.497 1.37772 -3.92418 0
M  V30 151 H 14.074 2.65844 -2.61498 0
M  V30 152 N 16.2591 1.48442 0.529413 0
M  V30 153 C 17.2221 1.62524 1.61612 0
M  V30 154 C 18.2221 0.498509 1.52877 0
M  V30 155 O 19.4121 0.76431 1.56537 0
M  V30 156 C 16.5441 1.59597 3.01233 0
M  V30 157 H 17.7371 2.59423 1.50465 0
M  V30 158 H 15.2901 1.37047 0.751514 0
M  V30 159 H 16.0251 0.641781 3.17886 0
M  V30 160 H 15.8101 2.41397 3.08982 0
M  V30 161 H 17.3001 1.72646 3.80241 0
M  V30 162 N 17.7372 -0.778329 1.37039 0
M  V30 163 C 18.9652 -1.56734 1.35063 0
M  V30 164 C 19.3802 -1.88686 -0.0655597 0
M  V30 165 O 18.7372 -1.5096 -1.02554 0
M  V30 166 C 18.7882 -2.88163 2.18276 0
M  V30 167 O 18.5092 -2.57583 3.54376 0
M  V30 168 C 20.0102 -3.82422 2.24206 0
M  V30 169 H 17.2302 -0.485778 0.462883 0
M  V30 170 H 19.7742 -0.965185 1.8029 0
M  V30 171 H 17.9292 -3.44818 1.76576 0
M  V30 172 H 18.3432 -3.41699 3.97922 0
M  V30 173 H 19.8172 -4.71667 2.86765 0
M  V30 174 H 20.2942 -4.21078 1.24861 0
M  V30 175 H 20.9002 -3.31697 2.6619 0
M  V30 176 N 19.2153 -1.21501 -1.00376 0
M  V30 177 C 20.4553 -1.04444 -1.75701 0
M  V30 178 C 20.8193 0.414644 -1.87469 0
M  V30 179 O 22.0203 0.705763 -2.59369 0
M  V30 180 C 20.2913 -1.72389 -3.13077 0
M  V30 181 S 21.8503 -1.70604 -4.04277 0
M  V30 182 H 18.6683 -0.374249 -0.604532 0
M  V30 183 H 21.2703 -1.54267 -1.20091 0
M  V30 184 H 19.9743 -2.77734 -3.02146 0
M  V30 185 H 19.5053 -1.22751 -3.73759 0
M  V30 186 H 21.5203 -0.748012 -4.9053 0
M  V30 187 N 20.6934 1.19889 -1.02296 0
M  V30 188 C 21.6434 2.20777 -0.56934 0
M  V30 189 C 22.6274 1.56379 0.378741 0
M  V30 190 O 23.8194 1.75859 0.200673 0
M  V30 191 C 20.9484 3.43196 0.0845077 0
M  V30 192 C 20.0344 4.14749 -0.88566 0
M  V30 193 N 20.4254 4.62584 -2.04573 0
M  V30 194 C 18.7234 4.40347 -0.707835 0
M  V30 195 C 19.4244 5.17466 -2.65714 0
M  V30 196 N 18.4004 5.0791 -1.93723 0
M  V30 197 H 22.2024 2.55434 -1.45365 0
M  V30 198 H 19.7164 1.35897 -0.88915 0
M  V30 199 H 21.7134 4.14707 0.427067 0
M  V30 200 H 20.3734 3.10042 0.964574 0
M  V30 201 H 21.3844 4.57597 -2.4254 0
M  V30 202 H 18.0614 4.17317 0.12364 0
M  V30 203 H 19.4514 5.64808 -3.63925 0
M  V30 204 N 22.1715 0.800033 1.35784 0
M  V30 205 C 23.4485 0.30088 1.93272 0
M  V30 206 C 23.8285 -1.20857 1.73081 0
M  V30 207 O 23.1765 -2.00502 1.09596 0
M  V30 208 C 23.3865 0.70511 3.41803 0
M  V30 209 C 24.7345 0.690871 4.18942 0
M  V30 210 O 25.7585 0.646244 3.50289 0
M  V30 211 O 24.6175 0.74332 5.41421 0
M  V30 212 H 21.7115 0.0771605 0.823393 0
M  V30 213 H 24.2575 0.88329 1.449 0
M  V30 214 H 23.0295 1.74571 3.50201 0
M  V30 215 H 22.6525 0.0971541 3.97481 0
M  V30 216 N 23.6496 -1.47581 0.552962 0
M  V30 217 C 24.8776 -2.06875 0.0320556 0
M  V30 218 C 25.2926 -1.40625 -1.25976 0
M  V30 219 O 24.6496 -0.501349 -1.75479 0
M  V30 220 C 24.7006 -3.61092 -0.17167 0
M  V30 221 O 24.4216 -4.24858 1.06899 0
M  V30 222 C 25.9226 -4.37242 -0.730344 0
M  V30 223 H 23.1426 -0.669561 0.043915 0
M  V30 224 H 25.6866 -1.89646 0.765163 0
M  V30 225 H 23.8416 -3.7785 -0.854894 0
M  V30 226 H 24.2556 -5.17334 0.864059 0
M  V30 227 H 25.7296 -5.45842 -0.822203 0
M  V30 228 H 26.2066 -4.03235 -1.74064 0
M  V30 229 H 26.8126 -4.25219 -0.0829543 0
M  V30 230 N 25.1277 -0.289203 -1.54924 0
M  V30 231 C 26.3767 0.324231 -1.99077 0
M  V30 232 C 26.6897 1.5591 -1.18117 0
M  V30 233 O 27.8957 2.24637 -1.52481 0
M  V30 234 C 26.3517 0.628209 -3.54375 0
M  V30 235 C 25.9597 -0.587647 -4.44129 0
M  V30 236 C 27.7037 1.20349 -4.07083 0
M  V30 237 C 25.6107 -0.257475 -5.90839 0
M  V30 238 H 24.5407 0.124924 -0.743579 0
M  V30 239 H 27.1917 -0.396063 -1.79175 0
M  V30 240 H 25.5737 1.40778 -3.70132 0
M  V30 241 H 26.7477 -1.36418 -4.40144 0
M  V30 242 H 25.0627 -1.08074 -4.0213 0
M  V30 243 H 27.6597 1.46456 -5.14252 0
M  V30 244 H 28.0027 2.14195 -3.56968 0
M  V30 245 H 28.5357 0.485889 -3.94821 0
M  V30 246 H 25.2747 -1.16419 -6.45079 0
M  V30 247 H 24.7947 0.482018 -5.9786 0
M  V30 248 H 26.4737 0.145238 -6.46837 0
M  V30 249 N 26.6058 1.57591 -0.0167156 0
M  V30 250 C 27.8828 1.82547 0.702564 0
M  V30 251 C 28.2628 0.898018 1.91047 0
M  V30 252 O 27.6108 -0.0493456 2.28447 0
M  V30 253 C 27.8208 3.31459 1.09251 0
M  V30 254 C 29.1688 3.97622 1.48937 0
M  V30 255 O 30.1928 3.35881 1.18584 0
M  V30 256 O 29.0518 5.06415 2.05442 0
M  V30 257 H 26.1458 0.752268 0.343544 0
M  V30 258 H 28.6918 1.69644 -0.0434495 0
M  V30 259 H 27.4638 3.9061 0.23227 0
M  V30 260 H 27.0868 3.49422 1.89709 0
M  V30 261 N 28.0839 -0.256276 1.55502 0
M  V30 262 C 29.3609 -1.00789 1.67633 0
M  V30 263 C 29.7409 -2.03706 0.553826 0
M  V30 264 O 29.0889 -2.24145 -0.443969 0
M  V30 265 C 29.2989 -1.64968 3.07549 0
M  V30 266 C 30.6469 -2.15505 3.65845 0
M  V30 267 O 31.6709 -1.74925 3.1029 0
M  V30 268 O 30.5299 -2.89986 4.63217 0
M  V30 269 H 27.6239 -0.468553 0.681459 0
M  V30 270 H 30.1699 -0.250806 1.67836 0
M  V30 271 H 28.9419 -0.904785 3.80696 0
M  V30 272 H 28.5649 -2.47321 3.11317 0
M  V30 273 N 29.562 -1.4872 -0.521534 0
M  V30 274 C 30.809 -1.57168 -1.27689 0
M  V30 275 C 31.137 -0.249275 -1.92896 0
M  V30 276 O 30.392 0.761162 -1.80291 0
M  V30 277 C 30.691 -2.66497 -2.38148 0
M  V30 278 C 30.357 -4.08664 -1.90538 0
M  V30 279 C 29.019 -4.47357 -1.77271 0
M  V30 280 C 31.371 -4.97724 -1.54663 0
M  V30 281 C 28.699 -5.72905 -1.26478 0
M  V30 282 C 31.051 -6.2377 -1.05329 0
M  V30 283 C 29.715 -6.61311 -0.906861 0
M  V30 284 H 28.985 -0.575117 -0.467249 0
M  V30 285 H 31.632 -1.82472 -0.581051 0
M  V30 286 H 29.937 -2.35085 -3.13437 0
M  V30 287 H 31.634 -2.70246 -2.96257 0
M  V30 288 H 28.224 -3.78111 -2.01816 0
M  V30 289 H 32.408 -4.68501 -1.63768 0
M  V30 290 H 27.664 -6.00709 -1.13835 0
M  V30 291 H 31.838 -6.9217 -0.76644 0
M  V30 292 H 29.465 -7.5848 -0.511083 0
M  V30 293 N 31.0401 0.771051 -1.3745 0
M  V30 294 C 32.4561 1.07171 -1.18265 0
M  V30 295 C 32.6561 2.01491 -0.019287 0
M  V30 296 O 31.7121 2.44244 0.640408 0
M  V30 297 C 33.0251 1.66854 -2.50161 0
M  V30 298 C 34.5731 1.79109 -2.56689 0
M  V30 299 C 35.0481 2.42205 -3.88717 0
M  V30 300 N 36.5391 2.49655 -3.90162 0
M  V30 301 C 37.2741 2.9933 -4.8907 0
M  V30 302 N 36.7701 3.49172 -5.98374 0
M  V30 303 N 38.5631 2.9821 -4.76474 0
M  V30 304 H 30.7141 0.144796 -2.11906 0
M  V30 305 H 32.9771 0.126863 -0.939473 0
M  V30 306 H 32.6831 1.05017 -3.35655 0
M  V30 307 H 32.5571 2.6614 -2.673 0
M  V30 308 H 34.9441 2.40077 -1.71601 0
M  V30 309 H 35.0251 0.785757 -2.43433 0
M  V30 310 H 34.6691 1.81875 -4.74219 0
M  V30 311 H 34.5991 3.43345 -3.99276 0
M  V30 312 H 37.0901 2.14383 -3.11205 0
M  V30 313 H 37.4031 3.8548 -6.69795 0
M  V30 314 H 35.7481 3.47275 -6.02018 0
M  V30 315 H 38.9391 2.58572 -3.90203 0
M  V30 316 H 39.1121 3.36613 -5.53711 0
M  V30 317 N 32.5182 1.22032 0.997298 0
M  V30 318 C 33.4662 0.983634 2.10778 0
M  V30 319 C 34.4602 -0.0717564 1.69248 0
M  V30 320 O 35.6662 0.080304 1.79821 0
M  V30 321 H 32.0412 0.300877 0.689186 0
M  V30 322 H 34.0122 1.92606 2.27916 0
M  V30 323 C 32.7612 0.57326 3.42942 0
M  V30 324 H 32.0842 1.37702 3.75338 0
M  V30 325 H 33.5242 0.447031 4.21637 0
M  V30 326 C 31.9832 -0.7167 3.29188 0
M  V30 327 O 32.5132 -1.77027 3.60589 0
M  V30 328 N 30.7192 -0.686167 2.82383 0
M  V30 329 H 30.2662 0.171507 2.57028 0
M  V30 330 H 30.2242 -1.54955 2.73562 0
M  V30 331 N 33.9963 -1.19345 1.0293 0
M  V30 332 C 34.9283 -2.22036 0.56857 0
M  V30 333 C 35.9413 -1.58865 -0.355779 0
M  V30 334 O 37.1303 -1.77851 -0.152103 0
M  V30 335 C 34.2303 -3.38363 -0.190752 0
M  V30 336 C 33.4033 -4.31118 0.738643 0
M  V30 337 C 32.4623 -5.26194 0.0246497 0
M  V30 338 O 31.4883 -5.65461 0.651354 0
M  V30 339 N 32.6903 -5.66971 -1.24594 0
M  V30 340 H 35.4553 -2.6219 1.45177 0
M  V30 341 H 33.0163 -1.34015 0.908381 0
M  V30 342 H 35.0083 -3.98981 -0.677961 0
M  V30 343 H 33.5783 -2.96994 -0.975366 0
M  V30 344 H 32.7983 -3.68276 1.40593 0
M  V30 345 H 34.0863 -4.90001 1.37029 0
M  V30 346 H 33.4843 -5.37104 -1.77583 0
M  V30 347 H 32.0413 -6.2984 -1.67764 0
M  V30 348 N 35.4744 -0.807222 -1.35358 0
M  V30 349 C 36.7204 -0.388463 -1.99045 0
M  V30 350 C 37.0534 1.04184 -1.63888 0
M  V30 351 O 36.3284 1.72292 -0.902535 0
M  V30 352 C 36.6114 -0.572783 -3.55515 0
M  V30 353 C 36.4644 -2.04807 -4.00468 0
M  V30 354 C 37.7834 0.00114064 -4.401 0
M  V30 355 H 34.9024 -0.142619 -0.723069 0
M  V30 356 H 37.5444 -1.01687 -1.60498 0
M  V30 357 H 35.6944 -0.0378425 -3.88482 0
M  V30 358 H 37.3664 -2.64544 -3.77908 0
M  V30 359 H 35.6094 -2.54427 -3.51353 0
M  V30 360 H 36.2804 -2.12792 -5.09337 0
M  V30 361 H 38.7564 -0.455716 -4.13597 0
M  V30 362 H 37.6324 -0.157737 -5.48673 0
M  V30 363 H 37.8934 1.09488 -4.28328 0
M  V30 364 N 36.9525 1.47285 -0.560781 0
M  V30 365 C 38.1825 2.06555 -0.0429638 0
M  V30 366 C 38.5905 1.41339 1.25777 0
M  V30 367 O 37.9335 0.505182 1.76617 0
M  V30 368 C 37.9955 3.58827 0.219887 0
M  V30 369 C 37.6595 4.46105 -0.991944 0
M  V30 370 C 38.6565 4.84 -1.89843 0
M  V30 371 C 36.3415 4.87567 -1.20762 0
M  V30 372 C 38.3355 5.6216 -3.00425 0
M  V30 373 C 36.0225 5.65491 -2.31653 0
M  V30 374 C 37.0205 6.02699 -3.21315 0
M  V30 375 O 36.7085 6.79052 -4.30283 0
M  V30 376 H 36.4405 0.674537 -0.0444468 0
M  V30 377 H 38.9945 1.90225 -0.774818 0
M  V30 378 H 37.2245 3.73383 1.00609 0
M  V30 379 H 38.9135 4.00103 0.683522 0
M  V30 380 H 39.6795 4.52564 -1.74387 0
M  V30 381 H 35.5585 4.5807 -0.518893 0
M  V30 382 H 39.1025 5.9112 -3.70436 0
M  V30 383 H 34.9995 5.9634 -2.47081 0
M  V30 384 H 35.7675 6.9745 -4.28376 0
M  V30 385 N 38.4306 0.297415 1.54768 0
M  V30 386 C 39.6556 -0.318435 2.04941 0
M  V30 387 C 40.0806 -1.4701 1.17345 0
M  V30 388 O 39.4386 -1.80436 0.176758 0
M  V30 389 C 39.4866 -0.755749 3.52592 0
M  V30 390 O 38.5906 -1.86088 3.68028 0
M  V30 391 H 37.9316 -0.062421 0.661059 0
M  V30 392 H 40.4616 0.438215 1.99852 0
M  V30 393 H 40.4716 -1.04552 3.94376 0
M  V30 394 H 39.1466 0.0867233 4.1581 0
M  V30 395 H 37.7236 -1.57193 3.38149 0
M  V30 396 N 39.9087 -1.5758 0.0250728 0
M  V30 397 C 41.1367 -1.9593 -0.664747 0
M  V30 398 C 41.5517 -0.901352 -1.65895 0
M  V30 399 O 40.9087 0.117255 -1.82123 0
M  V30 400 C 40.9597 -3.34342 -1.37468 0
M  V30 401 O 40.6807 -4.36079 -0.420324 0
M  V30 402 C 42.1817 -3.873 -2.1567 0
M  V30 403 H 39.4017 -0.645405 -0.183557 0
M  V30 404 H 41.9457 -2.04329 0.0836372 0
M  V30 405 H 40.1007 -3.27175 -2.0745 0
M  V30 406 H 40.5147 -5.16297 -0.923991 0
M  V30 407 H 41.9887 -4.86504 -2.60803 0
M  V30 408 H 42.4657 -3.21331 -2.99405 0
M  V30 409 H 43.0717 -3.97723 -1.50654 0
M  V30 410 N 41.3868 0.248026 -1.55636 0
M  V30 411 C 42.3168 1.31079 -1.93237 0
M  V30 412 C 43.2978 1.50264 -0.797174 0
M  V30 413 O 44.4828 1.62891 -1.05737 0
M  V30 414 C 41.6128 2.66575 -2.22609 0
M  V30 415 C 40.5668 2.62087 -3.3837 0
M  V30 416 C 39.8928 4.01369 -3.53281 0
M  V30 417 C 41.1928 2.19171 -4.7409 0
M  V30 418 H 42.8868 0.998556 -2.82257 0
M  V30 419 H 40.4328 0.47891 -1.35803 0
M  V30 420 H 42.3858 3.41057 -2.47503 0
M  V30 421 H 41.1098 2.99432 -1.30414 0
M  V30 422 H 39.7688 1.90063 -3.13483 0
M  V30 423 H 39.4168 4.31489 -2.58508 0
M  V30 424 H 39.1168 3.99254 -4.31127 0
M  V30 425 H 40.6408 4.77552 -3.80495 0
M  V30 426 H 42.0548 2.83384 -4.98363 0
M  V30 427 H 40.4518 2.2817 -5.5503 0
M  V30 428 H 41.5218 1.14336 -4.71227 0
M  V30 429 N 42.8649 1.48995 0.513639 0
M  V30 430 C 44.0949 1.61297 1.291 0
M  V30 431 C 44.5029 0.278656 1.87137 0
M  V30 432 O 43.8459 -0.744325 1.67945 0
M  V30 433 C 43.9079 2.61326 2.46879 0
M  V30 434 C 43.5719 4.05993 2.09807 0
M  V30 435 C 44.5689 4.93183 1.64519 0
M  V30 436 C 42.2539 4.51642 2.19829 0
M  V30 437 C 44.2479 6.24056 1.2974 0
M  V30 438 C 41.9349 5.82532 1.84662 0
M  V30 439 C 42.9329 6.68562 1.3969 0
M  V30 440 O 42.6209 7.97014 1.04992 0
M  V30 441 H 42.3529 0.546236 0.39825 0
M  V30 442 H 44.9069 1.95673 0.62459 0
M  V30 443 H 43.1369 2.22104 3.16554 0
M  V30 444 H 44.8259 2.6329 3.08923 0
M  V30 445 H 45.5919 4.59147 1.56233 0
M  V30 446 H 41.4709 3.84855 2.53786 0
M  V30 447 H 45.0149 6.91161 0.945659 0
M  V30 448 H 40.9119 6.16099 1.92594 0
M  V30 449 H 41.6799 8.09913 1.18249 0
M  V30 450 N 44.343 -0.763751 1.37857 0
M  V30 451 C 45.568 -1.55805 1.36893 0
M  V30 452 C 45.993 -1.88054 -0.0416135 0
M  V30 453 O 45.351 -1.49825 -1.02089 0
M  V30 454 C 45.399 -2.84012 2.22192 0
M  V30 455 O 44.503 -3.78732 1.63204 0
M  V30 456 H 43.844 -0.471638 0.46739 0
M  V30 457 H 46.374 -0.944657 1.81487 0
M  V30 458 H 46.384 -3.33037 2.35691 0
M  V30 459 H 45.059 -2.59869 3.24716 0
M  V30 460 H 43.636 -3.37402 1.58791 0
M  V30 461 N 45.8211 -1.22559 -0.990812 0
M  V30 462 C 46.7541 -0.940773 -2.07905 0
M  V30 463 C 47.7321 0.117082 -1.62178 0
M  V30 464 O 48.9161 -0.0149506 -1.88494 0
M  V30 465 C 46.0431 -0.415321 -3.36144 0
M  V30 466 C 45.0891 -1.45818 -4.00799 0
M  V30 467 S 45.9221 -3.03219 -4.41382 0
M  V30 468 C 47.0781 -2.52317 -5.72789 0
M  V30 469 H 47.3111 -1.8623 -2.31745 0
M  V30 470 H 44.8441 -1.05688 -1.12558 0
M  V30 471 H 46.8021 -0.118747 -4.10328 0
M  V30 472 H 45.4631 0.485121 -3.10331 0
M  V30 473 H 44.6561 -1.04044 -4.93144 0
M  V30 474 H 44.2581 -1.70356 -3.32949 0
M  V30 475 H 46.5501 -1.93688 -6.49224 0
M  V30 476 H 47.4931 -3.43161 -6.19392 0
M  V30 477 H 47.9011 -1.93529 -5.30289 0
M  V30 478 N 47.2992 1.18797 -1.03562 0
M  V30 479 C 48.5482 1.87978 -0.731235 0
M  V30 480 C 48.8612 1.80911 0.743671 0
M  V30 481 O 50.0672 2.45407 1.16137 0
M  V30 482 C 48.5232 3.3721 -1.25768 0
M  V30 483 C 48.1312 3.52818 -2.76085 0
M  V30 484 C 49.8752 4.11825 -1.0296 0
M  V30 485 C 47.7822 4.9598 -3.22114 0
M  V30 486 H 46.7122 0.704063 -0.269835 0
M  V30 487 H 49.3632 1.34266 -1.25079 0
M  V30 488 H 47.7452 3.90359 -0.666011 0
M  V30 489 H 48.9192 3.09965 -3.40966 0
M  V30 490 H 47.2342 2.91602 -2.97249 0
M  V30 491 H 49.8312 5.17411 -1.34869 0
M  V30 492 H 50.1742 4.16287 0.0333546 0
M  V30 493 H 50.7072 3.64833 -1.58562 0
M  V30 494 H 47.4462 4.96684 -4.27768 0
M  V30 495 H 46.9662 5.39569 -2.61965 0
M  V30 496 H 48.6452 5.6467 -3.15844 0
M  V30 497 N 48.7773 0.814389 1.34928 0
M  V30 498 C 50.0023 0.410097 2.03305 0
M  V30 499 C 50.4273 -0.973464 1.60951 0
M  V30 500 O 49.7853 -1.63185 0.789964 0
M  V30 501 C 49.8333 0.51049 3.56968 0
M  V30 502 O 48.9373 -0.473035 4.09678 0
M  V30 503 H 48.2783 0.170088 0.641846 0
M  V30 504 H 50.8083 1.10244 1.72358 0
M  V30 505 H 50.8183 0.383135 4.06197 0
M  V30 506 H 49.4933 1.51963 3.87144 0
M  V30 507 H 48.0703 -0.305272 3.71648 0
M  V30 508 N 50.2554 -1.46986 0.568584 0
M  V30 509 C 51.5014 -2.02741 0.0488709 0
M  V30 510 C 51.8344 -1.44077 -1.30214 0
M  V30 511 O 51.1094 -0.600552 -1.84996 0
M  V30 512 C 51.3924 -3.60086 -0.032047 0
M  V30 513 C 51.2454 -4.29162 1.34686 0
M  V30 514 C 52.5644 -4.33838 -0.739798 0
M  V30 515 H 49.6834 -0.736749 0.0192338 0
M  V30 516 H 52.3254 -1.75289 0.733065 0
M  V30 517 H 50.4754 -3.83606 -0.61473 0
M  V30 518 H 52.1474 -4.16948 1.97362 0
M  V30 519 H 50.3904 -3.89073 1.91846 0
M  V30 520 H 51.0614 -5.37826 1.24285 0
M  V30 521 H 53.5374 -4.15378 -0.244939 0
M  V30 522 H 52.4134 -5.43537 -0.765406 0
M  V30 523 H 52.6744 -4.03875 -1.79827 0
M  V30 524 N 51.7335 -0.305618 -1.54608 0
M  V30 525 C 52.9795 0.302746 -2.00528 0
M  V30 526 C 53.3125 1.53184 -1.19367 0
M  V30 527 O 52.5875 1.92598 -0.271321 0
M  V30 528 C 52.8705 0.654756 -3.54097 0
M  V30 529 C 52.7235 -0.583793 -4.45995 0
M  V30 530 C 54.0425 1.47947 -4.14487 0
M  V30 531 H 51.1615 0.108564 -0.72896 0
M  V30 532 H 53.8035 -0.418634 -1.85331 0
M  V30 533 H 51.9535 1.26935 -3.67178 0
M  V30 534 H 53.6255 -1.22224 -4.44814 0
M  V30 535 H 51.8685 -1.21615 -4.16404 0
M  V30 536 H 52.5395 -0.293287 -5.5122 0
M  V30 537 H 55.0155 0.96013 -4.04871 0
M  V30 538 H 53.8915 1.69454 -5.22088 0
M  V30 539 H 54.1525 2.47011 -3.66658 0
M  V30 540 N 53.2116 1.57565 -0.0334293 0
M  V30 541 C 54.4596 1.91598 0.642999 0
M  V30 542 C 54.7806 0.910847 1.7242 0
M  V30 543 O 54.0506 -0.0469931 1.95844 0
M  V30 544 H 52.6306 0.707228 0.240496 0
M  V30 545 H 55.2926 1.94726 -0.0822488 0
M  V30 546 H 54.3886 2.92336 1.09298 0
M  V30 547 N 54.6897 -0.239769 1.55765 0
M  V30 548 C 55.9367 -0.966801 1.7793 0
M  V30 549 C 56.2647 -1.85046 0.599015 0
M  V30 550 O 55.5197 -1.91197 -0.417395 0
M  V30 551 C 55.8187 -1.852 3.05672 0
M  V30 552 C 55.4847 -1.1231 4.36689 0
M  V30 553 C 54.1467 -0.921689 4.72291 0
M  V30 554 C 56.4987 -0.607019 5.17653 0
M  V30 555 C 53.8267 -0.191996 5.86386 0
M  V30 556 C 56.1787 0.109241 6.32506 0
M  V30 557 C 54.8427 0.322073 6.66723 0
M  V30 558 H 54.1127 -0.353778 0.651093 0
M  V30 559 H 56.7597 -0.23634 1.90036 0
M  V30 560 H 55.0647 -2.64975 2.8861 0
M  V30 561 H 56.7617 -2.41635 3.20021 0
M  V30 562 H 53.3517 -1.29004 4.08725 0
M  V30 563 H 57.5357 -0.750153 4.90598 0
M  V30 564 H 52.7917 -0.0166949 6.11398 0
M  V30 565 H 56.9657 0.516737 6.9448 0
M  V30 566 H 54.5927 0.88944 7.54979 0
M  V30 567 N 56.1678 -1.49265 -0.50573 0
M  V30 568 C 57.4148 -1.58513 -1.26015 0
M  V30 569 C 57.7428 -0.26972 -1.92621 0
M  V30 570 O 56.9978 0.741997 -1.81088 0
M  V30 571 C 57.2968 -2.69008 -2.35308 0
M  V30 572 C 56.9628 -4.10662 -1.86192 0
M  V30 573 C 55.6248 -4.49212 -1.72516 0
M  V30 574 C 57.9768 -4.99336 -1.49375 0
M  V30 575 C 55.3048 -5.74214 -1.20394 0
M  V30 576 C 57.6568 -6.24852 -0.987072 0
M  V30 577 C 56.3208 -6.62236 -0.836669 0
M  V30 578 H 55.5908 -0.580041 -0.461122 0
M  V30 579 H 58.2378 -1.83078 -0.561665 0
M  V30 580 H 56.5428 -2.38396 -3.10926 0
M  V30 581 H 58.2398 -2.73373 -2.93374 0
M  V30 582 H 54.8298 -3.8023 -1.97795 0
M  V30 583 H 59.0138 -4.70212 -1.5879 0
M  V30 584 H 54.2698 -6.01883 -1.07458 0
M  V30 585 H 58.4438 -6.92944 -0.692983 0
M  V30 586 H 56.0708 -7.58979 -0.430607 0
M  V30 587 N 57.6459 0.756429 -1.3826 0
M  V30 588 C 58.8939 1.51248 -1.34047 0
M  V30 589 C 59.2149 1.94875 0.0698372 0
M  V30 590 O 58.4849 1.67436 1.01696 0
M  V30 591 H 57.0649 0.561018 -0.493222 0
M  V30 592 H 59.7269 0.899347 -1.7291 0
M  V30 593 H 58.8229 2.40472 -1.98947 0
M  V30 594 N 59.124 1.23083 0.984299 0
M  V30 595 C 60.072 1.00593 2.09723 0
M  V30 596 C 61.066 -0.0538014 1.69315 0
M  V30 597 O 62.272 0.0993719 1.79725 0
M  V30 598 H 58.647 0.30817 0.685956 0
M  V30 599 H 60.618 1.95012 2.2586 0
M  V30 600 C 59.367 0.609601 3.42314 0
M  V30 601 H 58.69 1.41675 3.73856 0
M  V30 602 H 60.13 0.491726 4.21139 0
M  V30 603 C 58.589 -0.681745 3.2993 0
M  V30 604 O 59.119 -1.73192 3.62446 0
M  V30 605 N 57.325 -0.656178 2.83095 0
M  V30 606 H 56.872 0.198759 2.56832 0
M  V30 607 H 56.83 -1.52044 2.75191 0
M  V30 608 N 60.6021 -1.18246 1.0419 0
M  V30 609 C 61.8501 -1.87886 0.744543 0
M  V30 610 C 62.1711 -1.8082 -0.730006 0
M  V30 611 O 61.4411 -1.22736 -1.52685 0
M  V30 612 H 60.0211 -0.695556 0.272417 0
M  V30 613 H 62.6831 -1.43494 1.31892 0
M  V30 614 H 61.7791 -2.9389 1.05049 0
M  V30 615 N 62.0802 -0.821533 -1.34494 0
M  V30 616 C 63.3272 -0.408946 -1.98328 0
M  V30 617 C 63.6552 1.02764 -1.65136 0
M  V30 618 O 62.9102 1.73026 -0.914349 0
M  V30 619 C 63.2092 -0.556512 -3.53041 0
M  V30 620 C 62.8752 -1.95861 -4.0614 0
M  V30 621 C 61.5372 -2.34217 -4.20352 0
M  V30 622 C 63.8892 -2.87523 -4.34718 0
M  V30 623 C 61.2172 -3.63572 -4.6047 0
M  V30 624 C 63.5692 -4.1634 -4.76281 0
M  V30 625 C 62.2332 -4.54675 -4.88699 0
M  V30 626 H 61.5032 -0.149644 -0.725732 0
M  V30 627 H 64.1502 -1.04521 -1.6046 0
M  V30 628 H 62.4552 0.163148 -3.9146 0
M  V30 629 H 64.1522 -0.217826 -4.00408 0
M  V30 630 H 60.7422 -1.65066 -3.95539 0
M  V30 631 H 64.9262 -2.59133 -4.23277 0
M  V30 632 H 60.1822 -3.93101 -4.68275 0
M  V30 633 H 64.3562 -4.87455 -4.97354 0
M  V30 634 H 61.9832 -5.54959 -5.19542 0
M  V30 635 N 63.5583 1.46682 -0.576371 0
M  V30 636 C 64.8043 2.02712 -0.0596221 0
M  V30 637 C 65.1373 1.44765 1.29448 0
M  V30 638 O 64.4123 0.610355 1.84675 0
M  V30 639 C 64.6953 3.60098 0.0129503 0
M  V30 640 C 64.5483 4.28441 -1.3696 0
M  V30 641 C 65.8673 4.34224 0.71678 0
M  V30 642 H 62.9863 0.736637 -0.0231407 0
M  V30 643 H 65.6283 1.74898 -0.742351 0
M  V30 644 H 63.7783 3.83926 0.594378 0
M  V30 645 H 65.4503 4.15896 -1.9957 0
M  V30 646 H 63.6933 3.8805 -1.93907 0
M  V30 647 H 64.3643 5.3716 -1.27135 0
M  V30 648 H 66.8403 4.15503 0.222908 0
M  V30 649 H 65.7163 5.43936 0.73657 0
M  V30 650 H 65.9773 4.04823 1.77682 0
M  V30 651 N 65.0364 0.313813 1.54444 0
M  V30 652 C 65.9664 -0.549454 2.26943 0
M  V30 653 C 66.9474 -1.12741 1.27372 0
M  V30 654 O 68.1324 -1.15436 1.56167 0
M  V30 655 C 65.2624 -1.71523 3.01989 0
M  V30 656 C 64.2164 -1.26703 4.08816 0
M  V30 657 C 63.5424 -2.51898 4.71647 0
M  V30 658 C 64.8424 -0.388962 5.2085 0
M  V30 659 H 66.5364 0.0552661 2.99349 0
M  V30 660 H 64.0824 0.0280207 1.43973 0
M  V30 661 H 66.0354 -2.32535 3.51433 0
M  V30 662 H 64.7594 -2.34639 2.27183 0
M  V30 663 H 63.4184 -0.679896 3.6024 0
M  V30 664 H 63.0664 -3.13356 3.93468 0
M  V30 665 H 62.7664 -2.22605 5.43802 0
M  V30 666 H 64.2904 -3.1369 5.23861 0
M  V30 667 H 65.7044 -0.905107 5.6611 0
M  V30 668 H 64.1014 -0.18924 5.99802 0
M  V30 669 H 65.1714 0.582699 4.81386 0
M  V30 670 N 66.5145 -1.57545 0.0417849 0
M  V30 671 C 67.7445 -1.96339 -0.642995 0
M  V30 672 C 68.1525 -0.917536 -1.65463 0
M  V30 673 O 67.4955 0.107747 -1.83384 0
M  V30 674 C 67.5575 -3.31333 -1.39494 0
M  V30 675 C 67.2215 -4.53796 -0.540204 0
M  V30 676 C 68.2185 -5.19553 0.189806 0
M  V30 677 C 65.9035 -5.0006 -0.473886 0
M  V30 678 C 67.8975 -6.29904 0.974674 0
M  V30 679 C 65.5845 -6.10289 0.314677 0
M  V30 680 C 66.5825 -6.75072 1.03765 0
M  V30 681 O 66.2705 -7.83183 1.81327 0
M  V30 682 H 66.0025 -0.651241 -0.181277 0
M  V30 683 H 68.5565 -2.05148 0.101665 0
M  V30 684 H 66.7865 -3.19052 -2.18502 0
M  V30 685 H 68.4755 -3.54942 -1.96904 0
M  V30 686 H 69.2415 -4.84774 0.147981 0
M  V30 687 H 65.1205 -4.49433 -1.0262 0
M  V30 688 H 68.6645 -6.80401 1.5395 0
M  V30 689 H 64.5615 -6.44506 0.358174 0
M  V30 690 H 65.3295 -7.99913 1.73438 0
M  V30 691 N 67.9926 0.231505 -1.5589 0
M  V30 692 C 69.2386 0.95877 -1.78705 0
M  V30 693 C 69.5716 1.8438 -0.609725 0
M  V30 694 O 68.8466 1.90521 0.391426 0
M  V30 695 C 69.1296 1.8062 -3.11526 0
M  V30 696 C 68.9826 0.948328 -4.39689 0
M  V30 697 C 70.3016 2.78585 -3.40703 0
M  V30 698 H 67.4206 0.347129 -0.650131 0
M  V30 699 H 70.0626 0.228259 -1.88624 0
M  V30 700 H 68.2126 2.42902 -3.03201 0
M  V30 701 H 69.8846 0.343016 -4.60023 0
M  V30 702 H 68.1276 0.253314 -4.3306 0
M  V30 703 H 68.7986 1.57543 -5.29041 0
M  V30 704 H 71.2746 2.26439 -3.49091 0
M  V30 705 H 70.1506 3.34988 -4.34826 0
M  V30 706 H 70.4116 3.55825 -2.62375 0
M  V30 707 N 69.4707 1.49531 0.497807 0
M  V30 708 C 70.4007 1.6935 1.60757 0
M  V30 709 C 71.3817 0.542218 1.61227 0
M  V30 710 O 72.5667 0.778417 1.77917 0
M  V30 711 C 69.6967 1.76298 2.99226 0
M  V30 712 C 68.6507 2.91248 3.13622 0
M  V30 713 C 67.9767 2.83312 4.53474 0
M  V30 714 C 69.2767 4.3214 2.93346 0
M  V30 715 H 70.9707 2.62263 1.44425 0
M  V30 716 H 68.5167 1.26208 0.693367 0
M  V30 717 H 70.4697 1.88749 3.76765 0
M  V30 718 H 69.1937 0.799871 3.16654 0
M  V30 719 H 67.8527 2.78404 2.38509 0
M  V30 720 H 67.5007 1.84902 4.67782 0
M  V30 721 H 67.2007 3.60465 4.64046 0
M  V30 722 H 68.7247 2.97775 5.33069 0
M  V30 723 H 70.1387 4.45649 3.60652 0
M  V30 724 H 68.5357 5.1054 3.15387 0
M  V30 725 H 69.6057 4.46363 1.89441 0
M  V30 726 N 70.9488 -0.749086 1.3866 0
M  V30 727 C 72.1978 -1.50371 1.3443 0
M  V30 728 C 72.5108 -1.95503 -0.0616397 0
M  V30 729 O 73.7168 -2.70554 -0.226489 0
M  V30 730 C 72.1728 -2.71644 2.36088 0
M  V30 731 C 71.7808 -2.3352 3.82325 0
M  V30 732 C 73.5248 -3.49518 2.40909 0
M  V30 733 C 71.4318 -3.51431 4.75658 0
M  V30 734 H 70.3618 -0.564628 0.499712 0
M  V30 735 H 73.0128 -0.818449 1.64237 0
M  V30 736 H 71.3948 -3.42175 1.9933 0
M  V30 737 H 72.5688 -1.70627 4.28046 0
M  V30 738 H 70.8838 -1.6877 3.80665 0
M  V30 739 H 73.4808 -4.37197 3.07836 0
M  V30 740 H 73.8238 -3.90992 1.42937 0
M  V30 741 H 74.3568 -2.86005 2.76489 0
M  V30 742 H 71.0958 -3.15019 5.74842 0
M  V30 743 H 70.6158 -4.13352 4.34627 0
M  V30 744 H 72.2948 -4.17953 4.93887 0
M  V30 745 N 72.4269 -1.23603 -0.977757 0
M  V30 746 C 73.3739 -1.01954 -2.07061 0
M  V30 747 C 74.3439 0.0638697 -1.65977 0
M  V30 748 O 75.5289 -0.0887624 -1.90593 0
M  V30 749 C 72.6689 -0.619658 -3.39491 0
M  V30 750 C 71.7819 -1.77547 -3.93829 0
M  V30 751 C 70.9169 -1.32212 -5.14484 0
M  V30 752 C 69.9559 -2.44852 -5.60994 0
M  V30 753 N 69.0929 -2.00456 -6.72876 0
M  V30 754 H 73.9329 -1.95495 -2.24913 0
M  V30 755 H 71.4699 -0.973861 -1.10247 0
M  V30 756 H 73.4279 -0.368898 -4.15566 0
M  V30 757 H 72.0579 0.278752 -3.21594 0
M  V30 758 H 71.1099 -2.14016 -3.14486 0
M  V30 759 H 72.4219 -2.62219 -4.24314 0
M  V30 760 H 71.5759 -1.02965 -5.97899 0
M  V30 761 H 70.3149 -0.445808 -4.85658 0
M  V30 762 H 69.3199 -2.74871 -4.76157 0
M  V30 763 H 70.5449 -3.33024 -5.91837 0
M  V30 764 H 68.4909 -1.15208 -6.45804 0
M  V30 765 H 68.4079 -2.78687 -7.02759 0
M  V30 766 H 69.6759 -1.7432 -7.59758 0
M  V30 767 N 73.905 1.17692 -1.04816 0
M  V30 768 C 75.133 1.91786 -0.776254 0
M  V30 769 C 75.548 1.76604 0.667577 0
M  V30 770 O 74.905 1.10067 1.45573 0
M  V30 771 C 74.956 3.42967 -1.14263 0
M  V30 772 O 74.677 3.57678 -2.52978 0
M  V30 773 C 76.178 4.34144 -0.896311 0
M  V30 774 H 73.398 0.608624 -0.282519 0
M  V30 775 H 75.942 1.49268 -1.39783 0
M  V30 776 H 74.097 3.83245 -0.565874 0
M  V30 777 H 74.511 4.51319 -2.67229 0
M  V30 778 H 75.985 5.38744 -1.20244 0
M  V30 779 H 76.462 4.38876 0.168636 0
M  V30 780 H 77.068 3.99574 -1.45672 0
M  V30 781 N 75.3831 0.828654 1.34056 0
M  V30 782 C 76.6131 0.431993 2.02033 0
M  V30 783 C 77.0211 -0.96844 1.62536 0
M  V30 784 O 76.3641 -1.6391 0.829408 0
M  V30 785 C 76.4261 0.461224 3.56529 0
M  V30 786 C 76.0901 1.81599 4.1937 0
M  V30 787 C 77.0871 2.7777 4.39477 0
M  V30 788 C 74.7721 2.10604 4.56017 0
M  V30 789 C 76.7661 4.01115 4.95364 0
M  V30 790 C 74.4531 3.34207 5.11614 0
M  V30 791 C 75.4511 4.2928 5.31232 0
M  V30 792 O 75.1391 5.50699 5.8565 0
M  V30 793 H 74.8711 0.170943 0.654029 0
M  V30 794 H 77.4251 1.11988 1.72185 0
M  V30 795 H 75.6551 -0.283388 3.8566 0
M  V30 796 H 77.3441 0.0838149 4.05813 0
M  V30 797 H 78.1101 2.56659 4.11523 0
M  V30 798 H 73.9891 1.37402 4.40047 0
M  V30 799 H 77.5331 4.75333 5.10592 0
M  V30 800 H 73.4301 3.55179 5.38997 0
M  V30 801 H 74.1981 5.52298 6.04077 0
M  V30 802 N 76.8612 -1.46375 0.584142 0
M  V30 803 C 77.8112 -2.27371 -0.169232 0
M  V30 804 C 78.7952 -1.35955 -0.860523 0
M  V30 805 O 79.9872 -1.60119 -0.754382 0
M  V30 806 C 77.1162 -3.22334 -1.18134 0
M  V30 807 C 76.2022 -4.21235 -0.492088 0
M  V30 808 N 76.5932 -5.03766 0.453129 0
M  V30 809 C 74.8912 -4.39773 -0.742652 0
M  V30 810 C 75.5922 -5.75366 0.85609 0
M  V30 811 N 74.5682 -5.43214 0.204926 0
M  V30 812 H 78.3702 -2.88572 0.557097 0
M  V30 813 H 75.8842 -1.57242 0.406042 0
M  V30 814 H 77.8812 -3.79071 -1.73525 0
M  V30 815 H 76.5412 -2.62693 -1.90847 0
M  V30 816 H 77.5522 -5.11227 0.828723 0
M  V30 817 H 74.2292 -3.91279 -1.45625 0
M  V30 818 H 75.6192 -6.5172 1.63434 0
M  V30 819 N 78.3393 -0.321999 -1.54275 0
M  V30 820 C 79.2863 0.544664 -2.24281 0
M  V30 821 C 80.2563 1.1129 -1.23303 0
M  V30 822 O 81.4413 1.15354 -1.51981 0
M  V30 823 C 78.5813 1.70045 -3.00298 0
M  V30 824 C 77.6943 1.16159 -4.1609 0
M  V30 825 C 76.8293 2.28293 -4.79641 0
M  V30 826 C 75.8683 1.71648 -5.8754 0
M  V30 827 N 75.0053 2.77438 -6.44959 0
M  V30 828 H 79.8453 -0.0588907 -2.97942 0
M  V30 829 H 77.3823 -0.0408345 -1.47043 0
M  V30 830 H 79.3403 2.38054 -3.42616 0
M  V30 831 H 77.9703 2.27531 -2.28975 0
M  V30 832 H 77.0223 0.373092 -3.78566 0
M  V30 833 H 78.3343 0.707087 -4.93763 0
M  V30 834 H 77.4883 3.0421 -5.2492 0
M  V30 835 H 76.2273 2.77079 -4.01346 0
M  V30 836 H 75.2323 0.942282 -5.41665 0
M  V30 837 H 76.4573 1.23741 -6.67731 0
M  V30 838 H 74.4033 3.25519 -5.69538 0
M  V30 839 H 74.3203 2.36547 -7.1804 0
M  V30 840 H 75.5883 3.53189 -6.94894 0
M  V30 841 N 79.8174 1.5752 -0.0501392 0
M  V30 842 C 80.7644 2.1147 0.924603 0
M  V30 843 C 81.7344 1.02182 1.30951 0
M  V30 844 O 82.9194 1.29723 1.39916 0
M  V30 845 C 80.0594 2.66337 2.19451 0
M  V30 846 C 79.1724 3.89708 1.86418 0
M  V30 847 C 78.3074 4.32893 3.07859 0
M  V30 848 C 77.3464 5.48967 2.70742 0
M  V30 849 N 76.4834 5.87211 3.84874 0
M  V30 850 H 81.3234 2.94465 0.457639 0
M  V30 851 H 78.8604 1.45531 0.214266 0
M  V30 852 H 80.8184 2.96247 2.93758 0
M  V30 853 H 79.4484 1.86141 2.63726 0
M  V30 854 H 78.5004 3.66396 1.02264 0
M  V30 855 H 79.8124 4.74074 1.55096 0
M  V30 856 H 78.9664 4.6435 3.90466 0
M  V30 857 H 77.7054 3.47336 3.42358 0
M  V30 858 H 76.7104 5.17183 1.86551 0
M  V30 859 H 77.9354 6.3624 2.37436 0
M  V30 860 H 75.8814 5.04607 4.19175 0
M  V30 861 H 75.7984 6.66266 3.57247 0
M  V30 862 H 77.0664 6.23282 4.68123 0
M  V30 863 N 81.2955 -0.223234 1.56011 0
M  V30 864 C 82.5205 -0.968978 1.83373 0
M  V30 865 C 82.9455 -1.77227 0.630254 0
M  V30 866 O 82.3035 -1.76345 -0.420959 0
M  V30 867 C 82.3515 -1.86363 3.08709 0
M  V30 868 O 81.4555 -2.95873 2.87285 0
M  V30 869 H 80.7965 -0.274461 0.604622 0
M  V30 870 H 83.3265 -0.237056 2.03222 0
M  V30 871 H 83.3365 -2.27376 3.38768 0
M  V30 872 H 82.0115 -1.27319 3.95933 0
M  V30 873 H 80.5885 -2.58818 2.68454 0
M  V30 874 N 82.7736 -1.49793 -0.48987 0
M  V30 875 C 83.7366 -1.66752 -1.57246 0
M  V30 876 C 84.7366 -0.538867 -1.51502 0
M  V30 877 O 85.9266 -0.805545 -1.54456 0
M  V30 878 C 83.0586 -1.67528 -2.96896 0
M  V30 879 H 84.2516 -2.63321 -1.43534 0
M  V30 880 H 81.8046 -1.38992 -0.714914 0
M  V30 881 H 82.5396 -0.725837 -3.16073 0
M  V30 882 H 82.3246 -2.49504 -3.02473 0
M  V30 883 H 83.8146 -1.82667 -3.7553 0
M  V30 884 N 84.2517 0.741722 -1.39055 0
M  V30 885 C 85.4987 1.50114 -1.35912 0
M  V30 886 C 85.8267 1.94443 0.0470937 0
M  V30 887 O 85.0817 1.66612 1.02659 0
M  V30 888 C 85.3807 2.7592 -2.27163 0
M  V30 889 C 85.0467 2.50493 -3.74919 0
M  V30 890 C 83.7087 2.43267 -4.1518 0
M  V30 891 C 86.0607 2.28585 -4.684 0
M  V30 892 C 83.3887 2.12166 -5.46994 0
M  V30 893 C 85.7407 1.99002 -6.00484 0
M  V30 894 C 84.4047 1.90241 -6.39816 0
M  V30 895 H 83.6747 0.549306 -0.497336 0
M  V30 896 H 86.3217 0.851896 -1.71508 0
M  V30 897 H 84.6267 3.45553 -1.84663 0
M  V30 898 H 86.3237 3.33923 -2.22028 0
M  V30 899 H 82.9137 2.56992 -3.43006 0
M  V30 900 H 87.0977 2.33139 -4.38132 0
M  V30 901 H 82.3537 2.03901 -5.76398 0
M  V30 902 H 86.5277 1.81057 -6.72452 0
M  V30 903 H 84.1547 1.65907 -7.41875 0
M  V30 904 N 85.7298 1.2412 0.971189 0
M  V30 905 C 86.6618 0.988349 2.06795 0
M  V30 906 C 87.6748 -0.0409541 1.62748 0
M  V30 907 O 88.8638 0.195673 1.77424 0
M  V30 908 C 85.9638 0.469023 3.35639 0
M  V30 909 C 85.1368 1.56065 4.08611 0
M  V30 910 C 84.1958 1.04458 5.15728 0
M  V30 911 O 83.2218 1.73553 5.42096 0
M  V30 912 N 84.4238 -0.122817 5.8037 0
M  V30 913 H 87.1888 1.93265 2.29061 0
M  V30 914 H 84.7498 1.15102 1.13856 0
M  V30 915 H 86.7418 0.108613 4.04554 0
M  V30 916 H 85.3118 -0.380919 3.1027 0
M  V30 917 H 84.5318 2.09341 3.34021 0
M  V30 918 H 85.8198 2.29449 4.54126 0
M  V30 919 H 85.2178 -0.700563 5.61345 0
M  V30 920 H 83.7748 -0.424404 6.50417 0
M  V30 921 N 87.2079 -1.17134 1.05439 0
M  V30 922 C 88.4539 -1.87733 0.767077 0
M  V30 923 C 88.7869 -1.8098 -0.704253 0
M  V30 924 O 88.0619 -1.21951 -1.5152 0
M  V30 925 C 88.3449 -3.37659 1.25133 0
M  V30 926 C 88.1979 -3.53149 2.78578 0
M  V30 927 C 89.5169 -4.31768 0.852324 0
M  V30 928 H 86.6359 -0.681687 0.280129 0
M  V30 929 H 89.2779 -1.37732 1.30881 0
M  V30 930 H 87.4279 -3.80373 0.790469 0
M  V30 931 H 89.0999 -3.19434 3.32806 0
M  V30 932 H 87.3429 -2.95345 3.17732 0
M  V30 933 H 88.0139 -4.58403 3.07523 0
M  V30 934 H 90.4899 -3.96909 1.24911 0
M  V30 935 H 89.3659 -5.35199 1.21873 0
M  V30 936 H 89.6269 -4.41429 -0.243485 0
M  V30 937 N 88.686 -0.835752 -1.33615 0
M  V30 938 C 89.916 -0.442701 -2.01801 0
M  V30 939 C 90.324 0.959807 -1.63047 0
M  V30 940 O 89.667 1.63468 -0.838088 0
M  V30 941 C 89.729 -0.480125 -3.56279 0
M  V30 942 C 89.393 -1.8382 -4.18401 0
M  V30 943 C 90.39 -2.80097 -4.37998 0
M  V30 944 C 88.075 -2.13019 -4.54894 0
M  V30 945 C 90.069 -4.03736 -4.9323 0
M  V30 946 C 87.756 -3.36916 -5.09834 0
M  V30 947 C 88.754 -4.32091 -5.28948 0
M  V30 948 O 88.442 -5.53797 -5.82721 0
M  V30 949 H 88.174 -0.17441 -0.653114 0
M  V30 950 H 90.728 -1.129 -1.71589 0
M  V30 951 H 88.958 0.262931 -3.85805 0
M  V30 952 H 90.647 -0.105335 -4.05763 0
M  V30 953 H 91.413 -2.58838 -4.10156 0
M  V30 954 H 87.292 -1.39733 -4.39313 0
M  V30 955 H 90.836 -4.78034 -5.08064 0
M  V30 956 H 86.733 -3.58033 -5.37106 0
M  V30 957 H 87.501 -5.55494 -6.0114 0
M  V30 958 N 90.1641 1.46063 -0.591896 0
M  V30 959 C 91.0971 2.27452 0.184617 0
M  V30 960 C 92.0751 1.36188 0.888351 0
M  V30 961 O 93.2591 1.65606 0.90039 0
M  V30 962 C 90.3861 3.14162 1.26571 0
M  V30 963 C 89.4321 4.21255 0.666814 0
M  V30 964 S 90.2651 5.33034 -0.513345 0
M  V30 965 C 91.4211 6.23311 0.56872 0
M  V30 966 H 91.6541 2.92963 -0.505939 0
M  V30 967 H 89.1871 1.49676 -0.379014 0
M  V30 968 H 91.1451 3.6468 1.88463 0
M  V30 969 H 89.8061 2.47946 1.92826 0
M  V30 970 H 88.9991 4.81788 1.47974 0
M  V30 971 H 88.6011 3.73797 0.123359 0
M  V30 972 H 90.8931 6.61758 1.45198 0
M  V30 973 H 91.8361 7.081 -7.23824e-05 0
M  V30 974 H 92.2441 5.57646 0.876996 0
M  V30 975 N 91.6422 0.330177 1.54103 0
M  V30 976 C 92.8912 -0.271336 1.99867 0
M  V30 977 C 93.2042 -1.52723 1.22209 0
M  V30 978 O 94.4102 -2.20515 1.58383 0
M  V30 979 C 92.8662 -0.534032 3.55916 0
M  V30 980 C 92.4742 0.705193 4.42415 0
M  V30 981 C 94.2182 -1.09514 4.1013 0
M  V30 982 C 92.1252 0.414035 5.89949 0
M  V30 983 H 91.0552 -0.105166 0.74663 0
M  V30 984 H 93.7062 0.443429 1.78062 0
M  V30 985 H 92.0882 -1.30915 3.73734 0
M  V30 986 H 93.2622 1.4804 4.36372 0
M  V30 987 H 91.5772 1.18698 3.99124 0
M  V30 988 H 94.1742 -1.3277 5.17954 0
M  V30 989 H 94.5172 -2.04656 3.62521 0
M  V30 990 H 95.0502 -0.381038 3.95971 0
M  V30 991 H 91.7892 1.33481 6.41766 0
M  V30 992 H 91.3092 -0.323336 5.98928 0
M  V30 993 H 92.9882 0.0263105 6.46995 0
M  V30 994 N 93.1203 -1.57491 0.0584922 0
M  V30 995 C 94.0683 -2.13148 -0.931168 0
M  V30 996 C 95.0623 -1.06507 -1.31729 0
M  V30 997 O 96.2683 -1.24906 -1.29609 0
M  V30 998 H 92.6433 -0.68137 -0.31818 0
M  V30 999 H 94.6143 -2.95187 -0.436707 0
M  V30 1000 C 93.3633 -2.69732 -2.19408 0
M  V30 1001 H 92.6863 -3.51454 -1.90578 0
M  V30 1002 H 94.1263 -3.12287 -2.86798 0
M  V30 1003 C 92.5853 -1.63855 -2.94369 0
M  V30 1004 O 93.1153 -1.05565 -3.87581 0
M  V30 1005 N 91.3213 -1.35202 -2.57233 0
M  V30 1006 H 90.8683 -1.82791 -1.81508 0
M  V30 1007 H 90.8263 -0.645922 -3.07693 0
M  V30 1008 N 94.5984 0.214957 -1.56127 0
M  V30 1009 C 95.5284 1.2695 -1.95974 0
M  V30 1010 C 96.5094 1.48539 -0.828868 0
M  V30 1011 O 97.6944 1.60611 -1.09168 0
M  V30 1012 C 94.8244 2.61794 -2.28214 0
M  V30 1013 C 93.7784 2.54851 -3.43853 0
M  V30 1014 C 93.1044 3.93785 -3.61715 0
M  V30 1015 C 94.4044 2.09065 -4.78632 0
M  V30 1016 H 96.0984 0.93846 -2.84312 0
M  V30 1017 H 93.6444 0.449996 -1.36788 0
M  V30 1018 H 95.5974 3.35731 -2.54682 0
M  V30 1019 H 94.3214 2.96599 -1.36736 0
M  V30 1020 H 92.9804 1.8337 -3.17444 0
M  V30 1021 H 92.6284 4.25908 -2.67602 0
M  V30 1022 H 92.3284 3.90019 -4.39498 0
M  V30 1023 H 93.8524 4.69374 -3.90539 0
M  V30 1024 H 95.2664 2.7275 -5.04262 0
M  V30 1025 H 93.6634 2.16346 -5.59745 0
M  V30 1026 H 94.7334 1.04315 -4.73547 0
M  V30 1027 N 96.0765 1.50051 0.48192 0
M  V30 1028 C 97.0395 1.67584 1.5636 0
M  V30 1029 C 98.0395 0.546894 1.51214 0
M  V30 1030 O 99.2295 0.813725 1.54026 0
M  V30 1031 C 96.3615 1.691 2.96003 0
M  V30 1032 H 97.5545 2.64078 1.42136 0
M  V30 1033 H 95.1075 1.39369 0.707533 0
M  V30 1034 H 95.8425 0.742589 3.15684 0
M  V30 1035 H 95.6275 2.51105 3.01146 0
M  V30 1036 H 97.1175 1.84656 3.74556 0
M  V30 1037 N 97.5546 -0.734337 1.39446 0
M  V30 1038 C 98.8006 -1.49613 1.36908 0
M  V30 1039 C 99.1336 -1.94169 -0.0347829 0
M  V30 1040 O 98.4086 -1.66833 -0.999847 0
M  V30 1041 C 98.6916 -2.73534 2.34203 0
M  V30 1042 C 98.5446 -2.34993 3.83534 0
M  V30 1043 C 99.8636 -3.75635 2.29317 0
M  V30 1044 H 96.9826 -0.542714 0.498629 0
M  V30 1045 H 99.6246 -0.839597 1.70443 0
M  V30 1046 H 97.7746 -3.29553 2.05736 0
M  V30 1047 H 99.4466 -1.84601 4.22753 0
M  V30 1048 H 97.6896 -1.67213 4.00278 0
M  V30 1049 H 98.3606 -3.23738 4.47099 0
M  V30 1050 H 100.837 -3.29203 2.54489 0
M  V30 1051 H 99.7126 -4.60008 2.99472 0
M  V30 1052 H 99.9736 -4.22603 1.29842 0
M  V30 1053 N 99.0327 -1.24633 -0.964593 0
M  V30 1054 C 99.9957 -1.0424 -2.04124 0
M  V30 1055 C 100.996 0.00137563 -1.608 0
M  V30 1056 O 102.186 -0.239883 -1.7254 0
M  V30 1057 C 99.3177 -0.580588 -3.3592 0
M  V30 1058 H 100.511 -1.99803 -2.23649 0
M  V30 1059 H 98.0637 -1.06899 -1.14027 0
M  V30 1060 H 98.7987 0.3781 -3.22088 0
M  V30 1061 H 98.5837 -1.33398 -3.6871 0
M  V30 1062 H 100.074 -0.459034 -4.15069 0
M  V30 1063 N 100.511 1.16574 -1.06058 0
M  V30 1064 C 101.788 1.83048 -0.689416 0
M  V30 1065 C 102.168 1.94122 0.829443 0
M  V30 1066 O 101.516 1.48249 1.7388 0
M  V30 1067 C 101.726 3.20186 -1.38859 0
M  V30 1068 C 103.074 3.95989 -1.53226 0
M  V30 1069 O 104.098 3.29696 -1.3483 0
M  V30 1070 O 102.957 5.14813 -1.83384 0
M  V30 1071 H 100.051 0.790258 -0.243764 0
M  V30 1072 H 102.597 1.23797 -1.16071 0
M  V30 1073 H 101.369 3.07146 -2.4244 0
M  V30 1074 H 100.992 3.87112 -0.907216 0
M  V30 1075 N 101.989 0.842826 1.3317 0
M  V30 1076 C 102.919 0.294028 2.31641 0
M  V30 1077 C 103.9 -0.600401 1.59151 0
M  V30 1078 O 105.085 -0.523124 1.87022 0
M  V30 1079 C 102.215 -0.528416 3.43257 0
M  V30 1080 C 101.169 0.27056 4.27144 0
M  V30 1081 C 100.495 -0.675881 5.30411 0
M  V30 1082 C 101.795 1.48981 5.00602 0
M  V30 1083 H 103.489 1.11681 2.77791 0
M  V30 1084 H 101.035 0.538478 1.33553 0
M  V30 1085 H 102.988 -0.922674 4.11175 0
M  V30 1086 H 101.712 -1.38445 2.95805 0
M  V30 1087 H 100.371 0.646427 3.60856 0
M  V30 1088 H 100.019 -1.52842 4.79216 0
M  V30 1089 H 99.7189 -0.145374 5.8742 0
M  V30 1090 H 101.243 -1.06757 6.01195 0
M  V30 1091 H 102.657 1.16849 5.61266 0
M  V30 1092 H 101.054 1.95739 5.6728 0
M  V30 1093 H 102.124 2.25746 4.29147 0
M  V30 1094 N 103.467 -1.45747 0.599634 0
M  V30 1095 C 104.397 -2.33235 -0.111306 0
M  V30 1096 C 105.378 -1.46359 -0.866781 0
M  V30 1097 O 106.563 -1.75146 -0.838904 0
M  V30 1098 C 103.693 -3.28932 -1.11451 0
M  V30 1099 C 102.647 -4.25381 -0.472772 0
M  V30 1100 C 101.973 -5.1071 -1.58365 0
M  V30 1101 C 103.273 -5.18831 0.600948 0
M  V30 1102 H 104.967 -2.92927 0.61919 0
M  V30 1103 H 102.513 -1.40857 0.299215 0
M  V30 1104 H 104.466 -3.89002 -1.62036 0
M  V30 1105 H 103.19 -2.67381 -1.8755 0
M  V30 1106 H 101.849 -3.66598 0.0121472 0
M  V30 1107 H 101.497 -4.45533 -2.33473 0
M  V30 1108 H 101.197 -5.7604 -1.15982 0
M  V30 1109 H 102.721 -5.73647 -2.09194 0
M  V30 1110 H 104.135 -5.73019 0.179491 0
M  V30 1111 H 102.532 -5.92595 0.946076 0
M  V30 1112 H 103.602 -4.6174 1.48068 0
M  V30 1113 N 104.945 -0.338344 -1.53925 0
M  V30 1114 C 106.185 0.260168 -2.02737 0
M  V30 1115 C 106.549 1.48181 -1.22092 0
M  V30 1116 O 107.75 2.15416 -1.60777 0
M  V30 1117 C 106.021 0.571627 -3.52799 0
M  V30 1118 S 107.58 1.14769 -4.23525 0
M  V30 1119 H 104.398 0.077791 -0.706732 0
M  V30 1120 H 107 -0.474899 -1.89644 0
M  V30 1121 H 105.704 -0.325392 -4.09108 0
M  V30 1122 H 105.235 1.3365 -3.70002 0
M  V30 1123 H 107.25 2.43372 -4.32417 0
M  V30 1124 N 106.423 1.57458 -0.0668435 0
M  V30 1125 C 107.669 1.93587 0.6043 0
M  V30 1126 C 108.002 0.946722 1.69561 0
M  V30 1127 O 107.277 -0.0248516 1.94484 0
M  V30 1128 C 107.56 3.40014 1.18585 0
M  V30 1129 C 107.413 4.49685 0.101529 0
M  V30 1130 C 108.732 3.87154 2.09284 0
M  V30 1131 H 105.851 0.703958 0.218202 0
M  V30 1132 H 108.493 1.89542 -0.131804 0
M  V30 1133 H 106.643 3.43592 1.81319 0
M  V30 1134 H 108.315 4.5823 -0.531279 0
M  V30 1135 H 106.558 4.30059 -0.568487 0
M  V30 1136 H 107.229 5.49266 0.54874 0
M  V30 1137 H 109.705 3.85551 1.56491 0
M  V30 1138 H 108.581 4.90231 2.46911 0
M  V30 1139 H 108.842 3.2481 2.99918 0
M  V30 1140 N 107.901 -0.206675 1.56239 0
M  V30 1141 C 109.141 -0.93574 1.81723 0
M  V30 1142 C 109.505 -1.80927 0.642609 0
M  V30 1143 O 110.706 -2.57323 0.777081 0
M  V30 1144 C 108.977 -1.74012 3.12177 0
M  V30 1145 S 110.536 -2.52279 3.59028 0
M  V30 1146 H 107.354 -0.314065 0.637875 0
M  V30 1147 H 109.956 -0.200071 1.94474 0
M  V30 1148 H 108.66 -1.0888 3.95693 0
M  V30 1149 H 108.191 -2.51782 3.02274 0
M  V30 1150 H 110.206 -3.76209 3.23545 0
M  V30 1151 N 109.379 -1.50304 -0.473955 0
M  V30 1152 C 110.607 -1.64902 -1.24959 0
M  V30 1153 C 111.022 -0.331198 -1.85872 0
M  V30 1154 O 110.379 0.68652 -1.69095 0
M  V30 1155 C 110.43 -2.73803 -2.36038 0
M  V30 1156 O 110.151 -4.00477 -1.77624 0
M  V30 1157 C 111.652 -2.99349 -3.26964 0
M  V30 1158 H 108.872 -0.554383 -0.378022 0
M  V30 1159 H 111.416 -1.9651 -0.566054 0
M  V30 1160 H 109.571 -2.44898 -3.00173 0
M  V30 1161 H 109.985 -4.60678 -2.5075 0
M  V30 1162 H 111.459 -3.79217 -4.01121 0
M  V30 1163 H 111.936 -2.10307 -3.85574 0
M  V30 1164 H 112.542 -3.29774 -2.68569 0
M  V30 1165 N 110.857 0.726932 -1.39834 0
M  V30 1166 C 111.787 1.85405 -1.41941 0
M  V30 1167 C 112.768 1.67751 -0.281728 0
M  V30 1168 O 113.953 1.8795 -0.488717 0
M  V30 1169 C 111.083 3.23243 -1.2701 0
M  V30 1170 C 110.037 3.55549 -2.38262 0
M  V30 1171 C 109.363 4.9241 -2.08415 0
M  V30 1172 C 110.663 3.577 -3.80589 0
M  V30 1173 H 112.357 1.83899 -2.36266 0
M  V30 1174 H 109.903 0.883349 -1.13723 0
M  V30 1175 H 111.856 4.01775 -1.27103 0
M  V30 1176 H 110.58 3.25296 -0.291564 0
M  V30 1177 H 109.239 2.79351 -2.37399 0
M  V30 1178 H 108.887 4.91052 -1.0898 0
M  V30 1179 H 108.587 5.14992 -2.82943 0
M  V30 1180 H 110.111 5.73289 -2.10171 0
M  V30 1181 H 111.525 4.26293 -3.83337 0
M  V30 1182 H 109.922 3.91804 -4.54543 0
M  V30 1183 H 110.992 2.57328 -4.10987 0
M  V30 1184 N 112.336 1.25143 0.95797 0
M  V30 1185 C 113.747 1.08851 1.51685 0
M  V30 1186 C 114.098 -0.33687 1.93286 0
M  V30 1187 O 113.223 -1.22644 1.7829 0
M  V30 1188 C 113.818 1.96978 2.75654 0
M  V30 1189 C 112.377 1.84881 3.27866 0
M  V30 1190 C 111.524 1.91329 2.0072 0
M  V30 1191 H 114.475 1.38478 0.77522 0
M  V30 1192 H 114.496 1.5078 3.4935 0
M  V30 1193 H 114.008 3.00712 2.45345 0
M  V30 1194 H 112.109 0.840182 3.63004 0
M  V30 1195 H 112.222 2.6951 3.96107 0
M  V30 1196 H 110.586 1.35174 2.15871 0
M  V30 1197 H 111.369 2.96661 1.72764 0
M  V30 1198 N 113.814 -1.1601 1.06675 0
M  V30 1199 C 114.744 -2.22688 0.702307 0
M  V30 1200 C 115.725 -1.67306 -0.307032 0
M  V30 1201 O 116.91 -1.93352 -0.181305 0
M  V30 1202 C 114.04 -3.47178 0.092038 0
M  V30 1203 C 112.994 -4.15477 1.02777 0
M  V30 1204 C 112.32 -5.33963 0.28061 0
M  V30 1205 C 113.62 -4.66019 2.35846 0
M  V30 1206 H 115.314 -2.53429 1.59419 0
M  V30 1207 H 112.86 -1.21813 0.767961 0
M  V30 1208 H 114.813 -4.21037 -0.174814 0
M  V30 1209 H 113.537 -3.15749 -0.834877 0
M  V30 1210 H 112.196 -3.43549 1.27944 0
M  V30 1211 H 111.844 -4.98788 -0.649545 0
M  V30 1212 H 111.544 -5.806 0.904258 0
M  V30 1213 H 113.068 -6.10596 0.021396 0
M  V30 1214 H 114.482 -5.3144 2.15045 0
M  V30 1215 H 112.879 -5.23293 2.93743 0
M  V30 1216 H 113.949 -3.82023 2.98641 0
M  V30 1217 N 115.292 -0.849877 -1.32721 0
M  V30 1218 C 116.708 -0.539102 -1.50219 0
M  V30 1219 C 116.908 0.931271 -1.78689 0
M  V30 1220 O 115.964 1.71455 -1.85363 0
M  V30 1221 C 117.277 -1.42196 -2.64954 0
M  V30 1222 C 118.825 -1.42189 -2.78839 0
M  V30 1223 C 119.3 -2.28985 -3.96648 0
M  V30 1224 N 120.791 -2.26754 -4.03902 0
M  V30 1225 C 121.526 -2.90644 -4.94281 0
M  V30 1226 N 121.022 -3.63629 -5.897 0
M  V30 1227 N 122.815 -2.80057 -4.87365 0
M  V30 1228 H 114.966 -1.80156 -1.12506 0
M  V30 1229 H 117.229 -0.769217 -0.554085 0
M  V30 1230 H 116.935 -2.46733 -2.50631 0
M  V30 1231 H 116.809 -1.10591 -3.60624 0
M  V30 1232 H 119.196 -0.38419 -2.92588 0
M  V30 1233 H 119.277 -1.77807 -1.83898 0
M  V30 1234 H 118.921 -3.32819 -3.83658 0
M  V30 1235 H 118.851 -1.90702 -4.90857 0
M  V30 1236 H 121.342 -1.73688 -3.3562 0
M  V30 1237 H 121.655 -4.09558 -6.55349 0
M  V30 1238 H 120 -3.67737 -5.89741 0
M  V30 1239 H 123.191 -2.22593 -4.11789 0
M  V30 1240 H 123.364 -3.30132 -5.57599 0
M  V30 1241 N 116.77 1.45427 -0.607355 0
M  V30 1242 C 118.016 2.0254 -0.102607 0
M  V30 1243 C 118.349 1.47478 1.26348 0
M  V30 1244 O 117.624 0.64939 1.83339 0
M  V30 1245 C 117.907 3.60044 -0.0634347 0
M  V30 1246 C 117.76 4.2544 -1.46017 0
M  V30 1247 C 119.079 4.35646 0.624514 0
M  V30 1248 H 116.198 0.73598 -0.0387607 0
M  V30 1249 H 118.84 1.73284 -0.779282 0
M  V30 1250 H 116.99 3.85101 0.512808 0
M  V30 1251 H 118.662 4.11569 -2.08347 0
M  V30 1252 H 116.905 3.83849 -2.02094 0
M  V30 1253 H 117.576 5.34342 -1.385 0
M  V30 1254 H 120.052 4.15882 0.134723 0
M  V30 1255 H 118.928 5.45376 0.621028 0
M  V30 1256 H 119.189 4.08501 1.69055 0
M  V30 1257 N 118.248 0.346503 1.53744 0
M  V30 1258 C 119.494 -0.249473 2.0126 0
M  V30 1259 C 119.827 -1.49965 1.23386 0
M  V30 1260 O 119.102 -1.91811 0.32229 0
M  V30 1261 C 119.385 -0.560643 3.55709 0
M  V30 1262 C 119.238 0.701836 4.44291 0
M  V30 1263 C 120.557 -1.36905 4.18264 0
M  V30 1264 H 117.676 -0.0891987 0.731582 0
M  V30 1265 H 120.318 0.467624 1.84156 0
M  V30 1266 H 118.468 -1.17156 3.70414 0
M  V30 1267 H 120.14 1.33974 4.41417 0
M  V30 1268 H 118.383 1.32612 4.13033 0
M  V30 1269 H 119.054 0.43933 5.50249 0
M  V30 1270 H 121.53 -0.852448 4.07275 0
M  V30 1271 H 120.406 -1.55553 5.26398 0
M  V30 1272 H 120.667 -2.37203 3.73078 0
M  V30 1273 N 119.726 -1.57421 0.075193 0
M  V30 1274 C 120.956 -1.97659 -0.601203 0
M  V30 1275 C 121.364 -0.952427 -1.63479 0
M  V30 1276 O 120.707 0.0688241 -1.83571 0
M  V30 1277 C 120.769 -3.34218 -1.32434 0
M  V30 1278 C 120.433 -4.5484 -0.443826 0
M  V30 1279 C 121.43 -5.19034 0.299969 0
M  V30 1280 C 119.115 -5.00952 -0.367709 0
M  V30 1281 C 121.109 -6.27695 1.10807 0
M  V30 1282 C 118.796 -6.09484 0.444058 0
M  V30 1283 C 119.794 -6.72719 1.18061 0
M  V30 1284 O 119.482 -7.79161 1.97898 0
M  V30 1285 H 119.214 -0.65494 -0.167422 0
M  V30 1286 H 121.768 -2.04886 0.145157 0
M  V30 1287 H 119.998 -3.23615 -2.11685 0
M  V30 1288 H 121.687 -3.59038 -1.89331 0
M  V30 1289 H 122.453 -4.84351 0.250776 0
M  V30 1290 H 118.332 -4.51509 -0.930638 0
M  V30 1291 H 121.876 -6.76982 1.68347 0
M  V30 1292 H 117.773 -6.43601 0.494803 0
M  V30 1293 H 118.541 -7.96055 1.90367 0
M  V30 1294 N 121.204 0.198386 -1.56346 0
M  V30 1295 C 122.434 0.934215 -1.84271 0
M  V30 1296 C 122.842 1.77496 -0.655125 0
M  V30 1297 O 122.185 1.7961 0.385488 0
M  V30 1298 C 122.247 1.88278 -3.06254 0
M  V30 1299 C 121.911 1.22431 -4.40295 0
M  V30 1300 C 122.908 0.602839 -5.16393 0
M  V30 1301 C 120.593 1.22915 -4.87029 0
M  V30 1302 C 122.587 -0.0050083 -6.374 0
M  V30 1303 C 120.274 0.617465 -6.07973 0
M  V30 1304 C 121.272 0.00146341 -6.83 0
M  V30 1305 O 120.96 -0.600642 -8.01653 0
M  V30 1306 H 120.692 0.278245 -0.616081 0
M  V30 1307 H 123.246 0.211626 -2.04307 0
M  V30 1308 H 121.476 2.64498 -2.82095 0
M  V30 1309 H 123.165 2.48612 -3.20853 0
M  V30 1310 H 123.931 0.591265 -4.81382 0
M  V30 1311 H 119.81 1.69801 -4.28589 0
M  V30 1312 H 123.354 -0.48643 -6.95902 0
M  V30 1313 H 119.251 0.62653 -6.42452 0
M  V30 1314 H 120.019 -0.497225 -8.16988 0
M  V30 1315 N 122.682 1.50554 0.465978 0
M  V30 1316 C 123.928 1.62038 1.21949 0
M  V30 1317 C 124.261 0.322116 1.9151 0
M  V30 1318 O 123.536 -0.676723 1.82348 0
M  V30 1319 C 123.819 2.80421 2.25912 0
M  V30 1320 C 123.672 4.20144 1.60622 0
M  V30 1321 C 124.991 2.94354 3.27176 0
M  V30 1322 H 122.11 0.589752 0.441998 0
M  V30 1323 H 124.752 1.82956 0.51257 0
M  V30 1324 H 122.902 2.62717 2.86203 0
M  V30 1325 H 124.574 4.49449 1.03889 0
M  V30 1326 H 122.817 4.24165 0.909211 0
M  V30 1327 H 123.488 4.98914 2.36196 0
M  V30 1328 H 125.964 3.10578 2.76913 0
M  V30 1329 H 124.84 3.788 3.97242 0
M  V30 1330 H 125.101 2.05186 3.916 0
M  V30 1331 N 124.16 -0.719506 1.40217 0
M  V30 1332 C 125.11 -1.8251 1.36653 0
M  V30 1333 C 126.094 -1.59028 0.244732 0
M  V30 1334 O 127.286 -1.70268 0.483524 0
M  V30 1335 C 124.415 -3.20599 1.22763 0
M  V30 1336 C 123.501 -3.49858 2.39708 0
M  V30 1337 N 123.892 -3.49957 3.6519 0
M  V30 1338 C 122.19 -3.80297 2.33002 0
M  V30 1339 C 122.891 -3.77449 4.42614 0
M  V30 1340 N 121.867 -3.96002 3.72402 0
M  V30 1341 H 125.669 -1.80914 2.31619 0
M  V30 1342 H 123.183 -0.918455 1.33933 0
M  V30 1343 H 125.18 -3.99766 1.18292 0
M  V30 1344 H 123.84 -3.23424 0.287614 0
M  V30 1345 H 124.851 -3.309 3.98404 0
M  V30 1346 H 121.528 -3.90635 1.47346 0
M  V30 1347 H 122.918 -3.83863 5.51451 0
M  V30 1348 N 125.638 -1.25649 -0.95132 0
M  V30 1349 C 126.585 -1.06323 -2.04851 0
M  V30 1350 C 127.555 0.0286491 -1.66075 0
M  V30 1351 O 128.74 -0.12917 -1.90362 0
M  V30 1352 C 125.88 -0.691529 -3.381 0
M  V30 1353 C 124.993 -1.85861 -3.89974 0
M  V30 1354 C 124.128 -1.43096 -5.11563 0
M  V30 1355 C 123.167 -2.56696 -5.55674 0
M  V30 1356 N 122.304 -2.14684 -6.68472 0
M  V30 1357 H 127.144 -2.00222 -2.20715 0
M  V30 1358 H 124.681 -0.997027 -1.08156 0
M  V30 1359 H 126.639 -0.456963 -4.1469 0
M  V30 1360 H 125.269 0.210474 -3.22113 0
M  V30 1361 H 124.321 -2.20639 -3.09875 0
M  V30 1362 H 125.633 -2.71161 -4.18657 0
M  V30 1363 H 124.787 -1.15624 -5.9558 0
M  V30 1364 H 123.526 -0.548722 -4.84603 0
M  V30 1365 H 122.531 -2.84909 -4.7022 0
M  V30 1366 H 123.756 -3.45503 -5.8464 0
M  V30 1367 H 121.702 -1.28881 -6.43215 0
M  V30 1368 H 121.619 -2.9353 -6.96689 0
M  V30 1369 H 122.887 -1.90397 -7.5589 0
M  V30 1370 N 127.117 1.15442 -1.07289 0
M  V30 1371 C 128.365 1.85845 -0.794096 0
M  V30 1372 C 128.686 1.82692 0.681809 0
M  V30 1373 O 127.956 1.26741 1.49377 0
M  V30 1374 H 126.536 0.688089 -0.290763 0
M  V30 1375 H 129.198 1.39947 -1.3565 0
M  V30 1376 H 128.294 2.91001 -1.12804 0
M  V30 1377 N 128.595 0.856903 1.32268 0
M  V30 1378 C 129.844 0.457599 1.96441 0
M  V30 1379 C 130.157 -0.992426 1.68553 0
M  V30 1380 O 131.363 -1.49727 2.26482 0
M  V30 1381 C 129.819 0.767358 3.51624 0
M  V30 1382 C 129.427 2.23326 3.88367 0
M  V30 1383 C 131.171 0.435887 4.22256 0
M  V30 1384 C 129.078 2.48613 5.36606 0
M  V30 1385 H 128.008 0.167387 0.735185 0
M  V30 1386 H 130.659 1.048 1.5063 0
M  V30 1387 H 129.041 0.106367 3.95857 0
M  V30 1388 H 130.215 2.93623 3.55137 0
M  V30 1389 H 128.53 2.52948 3.30766 0
M  V30 1390 H 131.127 0.602202 5.31298 0
M  V30 1391 H 131.47 -0.622672 4.11617 0
M  V30 1392 H 132.003 1.05286 3.83614 0
M  V30 1393 H 128.742 3.53101 5.52268 0
M  V30 1394 H 128.262 1.82896 5.71235 0
M  V30 1395 H 129.941 2.32676 6.03714 0
M  V30 1396 N 130.073 -1.45103 0.615059 0
M  V30 1397 C 131.319 -2.03035 0.121804 0
M  V30 1398 C 131.674 -1.47393 -1.23665 0
M  V30 1399 O 130.967 -0.642061 -1.80522 0
M  V30 1400 C 131.161 -3.57386 0.0318797 0
M  V30 1401 C 130.99 -4.28 1.38007 0
M  V30 1402 C 129.76 -4.65624 1.9627 0
M  V30 1403 C 131.958 -4.5948 2.31047 0
M  V30 1404 N 129.94 -5.21132 3.24492 0
M  V30 1405 C 131.311 -5.159 3.43872 0
M  V30 1406 C 133.366 -4.41423 2.30326 0
M  V30 1407 C 132.069 -5.56165 4.5615 0
M  V30 1408 C 134.095 -4.82726 3.41658 0
M  V30 1409 C 133.457 -5.39245 4.53205 0
M  V30 1410 H 129.556 -0.77702 0.0881159 0
M  V30 1411 H 132.14 -1.76819 0.815044 0
M  V30 1412 H 130.311 -3.83247 -0.630599 0
M  V30 1413 H 132.043 -4.01976 -0.468721 0
M  V30 1414 H 128.798 -4.49421 1.49392 0
M  V30 1415 H 129.222 -5.53377 3.90004 0
M  V30 1416 H 133.864 -3.97033 1.45343 0
M  V30 1417 H 131.582 -5.99517 5.41854 0
M  V30 1418 H 135.168 -4.7048 3.42257 0
M  V30 1419 H 134.048 -5.70616 5.37929 0
M  V30 1420 N 131.551 -0.354651 -1.53558 0
M  V30 1421 C 132.481 0.489091 -2.2832 0
M  V30 1422 C 133.462 1.09324 -1.30316 0
M  V30 1423 O 134.647 1.11255 -1.59173 0
M  V30 1424 C 131.777 1.63456 -3.0643 0
M  V30 1425 C 130.731 1.1582 -4.12031 0
M  V30 1426 C 130.057 2.39305 -4.7816 0
M  V30 1427 C 131.357 0.250731 -5.21698 0
M  V30 1428 H 133.051 -0.134614 -2.99097 0
M  V30 1429 H 130.597 -0.0661826 -1.43848 0
M  V30 1430 H 132.55 2.23136 -3.57475 0
M  V30 1431 H 131.274 2.28533 -2.33325 0
M  V30 1432 H 129.933 0.584146 -3.61916 0
M  V30 1433 H 129.581 3.02814 -4.01637 0
M  V30 1434 H 129.281 2.08109 -5.49513 0
M  V30 1435 H 130.805 2.99691 -5.31994 0
M  V30 1436 H 132.219 0.754695 -5.68311 0
M  V30 1437 H 130.616 0.0301468 -6.00092 0
M  V30 1438 H 131.686 -0.710125 -4.79672 0
M  V30 1439 N 133.029 1.57378 -0.0835403 0
M  V30 1440 C 134.276 1.9393 0.58287 0
M  V30 1441 C 134.604 0.964455 1.68904 0
M  V30 1442 O 133.859 -0.0179474 1.95692 0
M  V30 1443 C 134.158 3.37063 1.1884 0
M  V30 1444 C 133.824 4.50424 0.207194 0
M  V30 1445 C 132.486 4.81159 -0.0627115 0
M  V30 1446 C 134.838 5.19136 -0.463426 0
M  V30 1447 C 132.166 5.77939 -1.01012 0
M  V30 1448 C 134.518 6.16931 -1.39924 0
M  V30 1449 C 133.182 6.46078 -1.67749 0
M  V30 1450 H 132.452 0.70964 0.213287 0
M  V30 1451 H 135.099 1.90856 -0.156916 0
M  V30 1452 H 133.404 3.3666 2.00418 0
M  V30 1453 H 135.101 3.6264 1.71153 0
M  V30 1454 H 131.691 4.2646 0.427747 0
M  V30 1455 H 135.875 4.95576 -0.268034 0
M  V30 1456 H 131.131 5.98842 -1.23283 0
M  V30 1457 H 135.305 6.69273 -1.92476 0
M  V30 1458 H 132.932 7.2088 -2.41321 0
M  V30 1459 N 134.507 -0.190092 1.56449 0
M  V30 1460 C 135.755 -0.907908 1.80559 0
M  V30 1461 C 136.076 -1.83583 0.657438 0
M  V30 1462 O 135.346 -1.93203 -0.323924 0
M  V30 1463 H 133.926 -0.338247 0.666032 0
M  V30 1464 H 136.588 -0.194403 1.93928 0
M  V30 1465 H 135.684 -1.49604 2.73907 0
M  V30 1466 N 135.985 -1.50799 -0.457987 0
M  V30 1467 C 137.262 -1.52968 -1.21902 0
M  V30 1468 C 137.642 -0.281906 -2.09209 0
M  V30 1469 O 136.99 0.734076 -2.16388 0
M  V30 1470 C 137.2 -2.8326 -2.03875 0
M  V30 1471 C 138.548 -3.34425 -2.6162 0
M  V30 1472 O 139.572 -2.8467 -2.14106 0
M  V30 1473 O 138.431 -4.21188 -3.48228 0
M  V30 1474 H 135.525 -0.614129 -0.553873 0
M  V30 1475 H 138.071 -1.63098 -0.468739 0
M  V30 1476 H 136.843 -3.65543 -1.39621 0
M  V30 1477 H 136.466 -2.76195 -2.8601 0
M  V30 1478 N 137.463 0.71206 -1.40597 0
M  V30 1479 C 138.71 1.47197 -1.39065 0
M  V30 1480 C 139.038 1.94499 0.00583891 0
M  V30 1481 O 138.293 1.68752 0.99102 0
M  V30 1482 C 138.592 2.71039 -2.32965 0
M  V30 1483 C 138.258 2.42484 -3.80148 0
M  V30 1484 C 136.92 2.34406 -4.20247 0
M  V30 1485 C 139.272 2.18598 -4.73143 0
M  V30 1486 C 136.6 2.00516 -5.51371 0
M  V30 1487 C 138.952 1.8622 -6.0457 0
M  V30 1488 C 137.616 1.76626 -6.43708 0
M  V30 1489 H 136.886 0.538634 -0.508876 0
M  V30 1490 H 139.533 0.815325 -1.73276 0
M  V30 1491 H 137.838 3.41558 -1.91951 0
M  V30 1492 H 139.535 3.29138 -2.29061 0
M  V30 1493 H 136.125 2.49659 -3.4838 0
M  V30 1494 H 140.309 2.23793 -4.42979 0
M  V30 1495 H 135.565 1.91628 -5.80593 0
M  V30 1496 H 139.739 1.66752 -6.76141 0
M  V30 1497 H 137.366 1.50133 -7.45228 0
M  V30 1498 N 138.941 1.26152 0.944643 0
M  V30 1499 C 139.871 1.09902 2.06019 0
M  V30 1500 C 140.852 0.00519538 1.70099 0
M  V30 1501 O 142.037 0.176583 1.93396 0
M  V30 1502 C 139.167 0.727562 3.39594 0
M  V30 1503 C 138.121 1.77274 3.89561 0
M  V30 1504 C 137.447 1.25569 5.19747 0
M  V30 1505 C 138.747 3.17357 4.14827 0
M  V30 1506 H 140.441 2.03217 2.19871 0
M  V30 1507 H 137.987 0.978452 1.05652 0
M  V30 1508 H 139.94 0.600777 4.17095 0
M  V30 1509 H 138.664 -0.241287 3.25707 0
M  V30 1510 H 137.323 1.88814 3.14237 0
M  V30 1511 H 136.971 0.276783 5.02238 0
M  V30 1512 H 136.671 1.95433 5.54148 0
M  V30 1513 H 138.195 1.1415 5.99835 0
M  V30 1514 H 139.609 3.08914 4.82954 0
M  V30 1515 H 138.006 3.84781 4.60504 0
M  V30 1516 H 139.076 3.63673 3.20734 0
M  V30 1517 N 140.419 -1.14872 1.07899 0
M  V30 1518 C 141.659 -1.8745 0.814965 0
M  V30 1519 C 142.023 -1.80758 -0.64733 0
M  V30 1520 O 143.224 -2.48422 -1.02664 0
M  V30 1521 C 141.495 -3.32286 1.31607 0
M  V30 1522 S 143.054 -4.22537 1.18357 0
M  V30 1523 H 139.872 -0.646833 0.295174 0
M  V30 1524 H 142.474 -1.38555 1.37923 0
M  V30 1525 H 141.178 -3.34703 2.37491 0
M  V30 1526 H 140.709 -3.86238 0.747261 0
M  V30 1527 H 142.724 -4.96044 0.124586 0
M  V30 1528 N 141.898 -0.863906 -1.31812 0
M  V30 1529 C 143.314 -0.555004 -1.49639 0
M  V30 1530 C 143.514 0.912266 -1.79666 0
M  V30 1531 O 142.57 1.69479 -1.87171 0
M  V30 1532 C 143.883 -1.44998 -2.63431 0
M  V30 1533 C 145.431 -1.45138 -2.77316 0
M  V30 1534 C 145.906 -2.33179 -3.94197 0
M  V30 1535 N 147.397 -2.31025 -4.01474 0
M  V30 1536 C 148.132 -2.95871 -4.9117 0
M  V30 1537 N 147.628 -3.69863 -5.8581 0
M  V30 1538 N 149.421 -2.85211 -4.84367 0
M  V30 1539 H 141.572 -1.81339 -1.10589 0
M  V30 1540 H 143.835 -0.77505 -0.545895 0
M  V30 1541 H 143.541 -2.49377 -2.48 0
M  V30 1542 H 143.415 -1.14409 -3.59431 0
M  V30 1543 H 145.802 -0.415201 -2.92164 0
M  V30 1544 H 145.883 -1.79747 -1.82001 0
M  V30 1545 H 145.527 -3.3687 -3.80107 0
M  V30 1546 H 145.457 -1.95897 -4.88807 0
M  V30 1547 H 147.948 -1.77238 -3.33759 0
M  V30 1548 H 148.261 -4.16486 -6.50968 0
M  V30 1549 H 146.606 -3.73971 -5.85808 0
M  V30 1550 H 149.797 -2.26948 -4.09405 0
M  V30 1551 H 149.97 -3.36027 -5.54066 0
M  V30 1552 N 143.376 1.44774 -0.622745 0
M  V30 1553 C 144.306 2.33382 0.0741861 0
M  V30 1554 C 145.287 1.47719 0.843387 0
M  V30 1555 O 146.472 1.76458 0.810934 0
M  V30 1556 C 143.602 3.30663 1.06204 0
M  V30 1557 C 142.556 4.26079 0.405037 0
M  V30 1558 C 141.882 5.13165 1.5022 0
M  V30 1559 C 143.182 5.1781 -0.683414 0
M  V30 1560 H 144.876 2.91905 -0.665713 0
M  V30 1561 H 142.422 1.40363 -0.321587 0
M  V30 1562 H 144.375 3.9153 1.55827 0
M  V30 1563 H 143.099 2.70331 1.83272 0
M  V30 1564 H 141.758 3.66532 -0.0704683 0
M  V30 1565 H 141.406 4.49191 2.26355 0
M  V30 1566 H 141.106 5.77812 1.06803 0
M  V30 1567 H 142.63 5.76902 2.00041 0
M  V30 1568 H 144.044 5.72661 -0.270631 0
M  V30 1569 H 142.441 5.91015 -1.04023 0
M  V30 1570 H 143.511 4.59326 -1.55395 0
M  V30 1571 N 144.854 0.36279 1.53368 0
M  V30 1572 C 146.079 -0.231226 2.06107 0
M  V30 1573 C 146.504 -1.419 1.23474 0
M  V30 1574 O 145.862 -1.79524 0.253128 0
M  V30 1575 C 145.91 -0.605523 3.5548 0
M  V30 1576 O 145.014 -1.70312 3.7559 0
M  V30 1577 H 144.355 -0.034327 0.663112 0
M  V30 1578 H 146.885 0.522584 1.97814 0
M  V30 1579 H 146.895 -0.877314 3.98456 0
M  V30 1580 H 145.57 0.263004 4.15068 0
M  V30 1581 H 144.147 -1.4271 3.44512 0
M  V30 1582 N 146.332 -1.57332 0.0918853 0
M  V30 1583 C 147.56 -1.98574 -0.581048 0
M  V30 1584 C 147.975 -0.970903 -1.61923 0
M  V30 1585 O 147.332 0.0399054 -1.82456 0
M  V30 1586 C 147.383 -3.39872 -1.23164 0
M  V30 1587 O 147.104 -4.37469 -0.234989 0
M  V30 1588 C 148.605 -3.96099 -1.99049 0
M  V30 1589 H 145.825 -0.65261 -0.156018 0
M  V30 1590 H 148.369 -2.0379 0.170225 0
M  V30 1591 H 146.524 -3.35679 -1.93386 0
M  V30 1592 H 146.938 -5.19751 -0.70418 0
M  V30 1593 H 148.412 -4.97127 -2.39934 0
M  V30 1594 H 148.889 -3.3374 -2.85507 0
M  V30 1595 H 149.495 -4.03755 -1.3365 0
M  V30 1596 N 147.81 0.181792 -1.56548 0
M  V30 1597 C 149.04 0.914618 -1.85252 0
M  V30 1598 C 149.448 1.76791 -0.673914 0
M  V30 1599 O 148.791 1.80009 0.366416 0
M  V30 1600 C 148.853 1.85019 -3.08234 0
M  V30 1601 C 148.517 1.17754 -4.41569 0
M  V30 1602 C 149.514 0.548035 -5.17003 0
M  V30 1603 C 147.199 1.17742 -4.88305 0
M  V30 1604 C 149.193 -0.0726128 -6.37359 0
M  V30 1605 C 146.88 0.552946 -6.08593 0
M  V30 1606 C 147.878 -0.070978 -6.82963 0
M  V30 1607 O 147.566 -0.685635 -8.00971 0
M  V30 1608 H 147.298 0.271695 -0.618998 0
M  V30 1609 H 149.852 0.189944 -2.0452 0
M  V30 1610 H 148.082 2.61491 -2.84885 0
M  V30 1611 H 149.771 2.45195 -3.23472 0
M  V30 1612 H 150.537 0.540174 -4.81982 0
M  V30 1613 H 146.416 1.65246 -4.30366 0
M  V30 1614 H 149.96 -0.560213 -6.95347 0
M  V30 1615 H 145.857 0.558354 -6.43081 0
M  V30 1616 H 146.625 -0.58385 -8.16415 0
M  V30 1617 N 149.288 1.51039 0.449983 0
M  V30 1618 C 150.251 1.70863 1.5277 0
M  V30 1619 C 151.251 0.578846 1.5002 0
M  V30 1620 O 152.441 0.846213 1.52266 0
M  V30 1621 C 149.573 1.75341 2.9235 0
M  V30 1622 H 150.766 2.67034 1.36502 0
M  V30 1623 H 148.319 1.40838 0.677812 0
M  V30 1624 H 149.054 0.809383 3.14037 0
M  V30 1625 H 148.839 2.57436 2.95752 0
M  V30 1626 H 150.329 1.92559 3.70555 0
M  V30 1627 N 150.766 -0.704594 1.40972 0
M  V30 1628 C 151.696 -1.83124 1.44872 0
M  V30 1629 C 152.677 -1.67281 0.30838 0
M  V30 1630 O 153.862 -1.87149 0.518556 0
M  V30 1631 C 150.992 -3.21181 1.32136 0
M  V30 1632 C 149.946 -3.51714 2.43888 0
M  V30 1633 C 149.272 -4.89032 2.16222 0
M  V30 1634 C 150.572 -3.516 3.86232 0
M  V30 1635 H 152.266 -1.80117 2.39161 0
M  V30 1636 H 149.812 -0.865145 1.15114 0
M  V30 1637 H 151.765 -3.99702 1.33479 0
M  V30 1638 H 150.489 -3.24791 0.343279 0
M  V30 1639 H 149.148 -2.75539 2.41813 0
M  V30 1640 H 148.796 -4.89256 1.16778 0
M  V30 1641 H 148.496 -5.10426 2.911 0
M  V30 1642 H 150.02 -5.69873 2.19265 0
M  V30 1643 H 151.434 -4.2014 3.9007 0
M  V30 1644 H 149.831 -3.84523 4.60719 0
M  V30 1645 H 150.901 -2.50757 4.15029 0
M  V30 1646 N 152.244 -1.26651 -0.937939 0
M  V30 1647 C 153.474 -1.15006 -1.71631 0
M  V30 1648 C 153.882 0.297026 -1.86854 0
M  V30 1649 O 153.225 1.21493 -1.37786 0
M  V30 1650 C 153.287 -1.74984 -3.14039 0
M  V30 1651 C 152.951 -3.24103 -3.2219 0
M  V30 1652 C 153.948 -4.20877 -3.05219 0
M  V30 1653 C 151.633 -3.64625 -3.45476 0
M  V30 1654 C 153.627 -5.56151 -3.11408 0
M  V30 1655 C 151.314 -5.00032 -3.513 0
M  V30 1656 C 152.312 -5.95604 -3.34282 0
M  V30 1657 O 152 -7.28545 -3.3982 0
M  V30 1658 H 151.732 -0.401183 -0.544085 0
M  V30 1659 H 154.286 -1.67832 -1.18413 0
M  V30 1660 H 152.516 -1.16624 -3.68695 0
M  V30 1661 H 154.205 -1.58199 -3.73802 0
M  V30 1662 H 154.971 -3.90908 -2.87081 0
M  V30 1663 H 150.85 -2.90718 -3.57777 0
M  V30 1664 H 154.394 -6.30727 -2.98043 0
M  V30 1665 H 150.291 -5.29659 -3.68959 0
M  V30 1666 H 151.059 -7.3686 -3.56343 0
M  V30 1667 N 153.722 1.14298 -1.08507 0
M  V30 1668 C 154.968 1.85633 -0.816581 0
M  V30 1669 C 155.301 1.82784 0.656021 0
M  V30 1670 O 154.576 1.25926 1.48233 0
M  V30 1671 C 154.859 3.34223 -1.34041 0
M  V30 1672 C 154.712 3.45639 -2.87843 0
M  V30 1673 C 156.031 4.29356 -0.9665 0
M  V30 1674 H 153.15 0.67402 -0.298104 0
M  V30 1675 H 155.792 1.34214 -1.34487 0
M  V30 1676 H 153.942 3.78144 -0.89104 0
M  V30 1677 H 155.614 3.10498 -3.41158 0
M  V30 1678 H 153.857 2.86817 -3.25451 0
M  V30 1679 H 154.528 4.50089 -3.19569 0
M  V30 1680 H 157.004 3.93457 -1.35391 0
M  V30 1681 H 155.88 5.3178 -1.3602 0
M  V30 1682 H 156.141 4.41919 0.126362 0
M  V30 1683 N 155.201 0.870884 1.31352 0
M  V30 1684 C 156.149 0.316445 2.30437 0
M  V30 1685 C 157.143 -0.568965 1.59559 0
M  V30 1686 O 158.349 -0.454964 1.74155 0
M  V30 1687 H 154.724 0.0836521 0.747333 0
M  V30 1688 H 156.695 1.16606 2.74673 0
M  V30 1689 C 155.444 -0.46635 3.44558 0
M  V30 1690 H 154.767 0.205687 3.99271 0
M  V30 1691 H 156.207 -0.819614 4.16003 0
M  V30 1692 C 154.666 -1.65797 2.9328 0
M  V30 1693 O 155.196 -2.75728 2.92125 0
M  V30 1694 N 153.402 -1.49041 2.4947 0
M  V30 1695 H 152.949 -0.59612 2.50608 0
M  V30 1696 H 152.907 -2.28911 2.15516 0
M  V30 1697 N 156.679 -1.44442 0.630414 0
M  V30 1698 C 157.609 -2.33418 -0.0618083 0
M  V30 1699 C 158.59 -1.48165 -0.835541 0
M  V30 1700 O 159.775 -1.76886 -0.801564 0
M  V30 1701 C 156.905 -3.31222 -1.04449 0
M  V30 1702 C 155.859 -4.26288 -0.382436 0
M  V30 1703 C 155.185 -5.13954 -1.47497 0
M  V30 1704 C 156.485 -5.1744 0.710865 0
M  V30 1705 H 158.179 -2.91548 0.681184 0
M  V30 1706 H 155.725 -1.40191 0.329026 0
M  V30 1707 H 157.678 -3.92351 -1.53748 0
M  V30 1708 H 156.402 -2.71299 -1.81836 0
M  V30 1709 H 155.061 -3.6649 0.0899054 0
M  V30 1710 H 154.709 -4.50385 -2.2397 0
M  V30 1711 H 154.409 -5.7837 -1.03737 0
M  V30 1712 H 155.933 -5.77955 -1.96979 0
M  V30 1713 H 157.347 -5.72509 0.300996 0
M  V30 1714 H 155.744 -5.90455 1.07156 0
M  V30 1715 H 156.814 -4.58496 1.57829 0
M  V30 1716 N 158.157 -0.370918 -1.53173 0
M  V30 1717 C 159.387 0.217389 -2.05453 0
M  V30 1718 C 159.795 1.42568 -1.24382 0
M  V30 1719 O 159.138 1.81571 -0.278839 0
M  V30 1720 C 159.2 0.669827 -3.53205 0
M  V30 1721 C 158.864 -0.4225 -4.55043 0
M  V30 1722 C 159.861 -1.27407 -5.04047 0
M  V30 1723 C 157.546 -0.58427 -4.9889 0
M  V30 1724 C 159.54 -2.27271 -5.95505 0
M  V30 1725 C 157.227 -1.58627 -5.90153 0
M  V30 1726 C 158.225 -2.42892 -6.38351 0
M  V30 1727 O 157.913 -3.41382 -7.27814 0
M  V30 1728 H 157.645 0.0408171 -0.674767 0
M  V30 1729 H 160.199 -0.5292 -1.98466 0
M  V30 1730 H 158.429 1.4681 -3.57748 0
M  V30 1731 H 160.118 1.18173 -3.88317 0
M  V30 1732 H 160.884 -1.16031 -4.70916 0
M  V30 1733 H 156.763 0.061851 -4.60959 0
M  V30 1734 H 160.307 -2.93079 -6.33049 0
M  V30 1735 H 156.204 -1.70048 -6.22699 0
M  V30 1736 H 156.972 -3.37173 -7.45826 0
M  V30 1737 N 159.635 1.57281 -0.100228 0
M  V30 1738 C 160.875 1.96419 0.56558 0
M  V30 1739 C 161.239 0.981265 1.65031 0
M  V30 1740 O 162.44 1.26133 2.37369 0
M  V30 1741 C 160.711 3.39996 1.10171 0
M  V30 1742 S 162.27 4.01134 1.77867 0
M  V30 1743 H 159.088 0.68667 0.184406 0
M  V30 1744 H 161.69 1.94662 -0.180851 0
M  V30 1745 H 160.394 4.09296 0.300803 0
M  V30 1746 H 159.925 3.45361 1.88385 0
M  V30 1747 H 161.94 3.90358 3.06326 0
M  V30 1748 N 161.113 -0.173488 1.56642 0
M  V30 1749 C 162.338 -0.910149 1.86363 0
M  V30 1750 C 162.763 -1.75132 0.686318 0
M  V30 1751 O 162.121 -1.77595 -0.364643 0
M  V30 1752 C 162.169 -1.76447 3.14482 0
M  V30 1753 O 161.273 -2.86584 2.96553 0
M  V30 1754 H 160.614 -0.255086 0.613047 0
M  V30 1755 H 163.144 -0.172283 2.03873 0
M  V30 1756 H 163.154 -2.16483 3.45831 0
M  V30 1757 H 161.829 -1.14658 3.99783 0
M  V30 1758 H 160.406 -2.50146 2.76553 0
M  V30 1759 N 162.591 -1.51276 -0.441967 0
M  V30 1760 C 163.84 -1.6295 -1.18871 0
M  V30 1761 C 164.153 -0.349312 -1.92456 0
M  V30 1762 O 165.359 -0.345355 -2.69295 0
M  V30 1763 C 163.815 -2.87759 -2.16155 0
M  V30 1764 C 163.423 -4.22764 -1.48239 0
M  V30 1765 C 165.167 -3.08788 -2.91291 0
M  V30 1766 C 163.074 -5.38728 -2.4398 0
M  V30 1767 H 162.004 -0.606913 -0.447406 0
M  V30 1768 H 164.655 -1.77739 -0.456205 0
M  V30 1769 H 163.037 -2.66593 -2.92821 0
M  V30 1770 H 164.211 -4.54293 -0.771635 0
M  V30 1771 H 162.526 -4.07575 -0.852741 0
M  V30 1772 H 165.123 -3.92599 -3.63002 0
M  V30 1773 H 165.466 -2.21679 -3.5237 0
M  V30 1774 H 165.999 -3.30272 -2.21733 0
M  V30 1775 H 162.738 -6.28082 -1.87598 0
M  V30 1776 H 162.258 -5.1158 -3.13123 0
M  V30 1777 H 163.937 -5.70489 -3.05207 0
M  V30 1778 N 164.069 0.697108 -1.41344 0
M  V30 1779 C 165.316 1.45714 -1.40619 0
M  V30 1780 C 165.644 1.94494 -0.0147907 0
M  V30 1781 O 164.899 1.69794 0.973066 0
M  V30 1782 C 165.198 2.68553 -2.35826 0
M  V30 1783 C 164.864 2.38438 -3.82698 0
M  V30 1784 C 163.526 2.29936 -4.22709 0
M  V30 1785 C 165.878 2.13567 -4.75435 0
M  V30 1786 C 163.206 1.94656 -5.53467 0
M  V30 1787 C 165.558 1.79797 -6.06511 0
M  V30 1788 C 164.222 1.69789 -6.45545 0
M  V30 1789 H 163.492 0.533206 -0.51456 0
M  V30 1790 H 166.139 0.796901 -1.74131 0
M  V30 1791 H 164.444 3.39503 -1.95563 0
M  V30 1792 H 166.141 3.2669 -2.32539 0
M  V30 1793 H 162.731 2.4595 -3.51008 0
M  V30 1794 H 166.915 2.19082 -4.45328 0
M  V30 1795 H 162.171 1.8546 -5.82593 0
M  V30 1796 H 166.345 1.59572 -6.77872 0
M  V30 1797 H 163.972 1.4222 -7.46778 0
M  V30 1798 N 165.547 1.27147 0.931209 0
M  V30 1799 C 166.794 1.13278 1.67852 0
M  V30 1800 C 167.122 -0.32204 1.91815 0
M  V30 1801 O 166.377 -1.25224 1.50391 0
M  V30 1802 C 166.676 1.8579 3.05314 0
M  V30 1803 C 166.342 3.35657 3.01073 0
M  V30 1804 C 165.004 3.76536 2.99623 0
M  V30 1805 C 167.356 4.31299 2.92627 0
M  V30 1806 C 164.684 5.11426 2.87506 0
M  V30 1807 C 167.036 5.66242 2.82051 0
M  V30 1808 C 165.7 6.06418 2.7895 0
M  V30 1809 H 164.97 0.414515 0.614214 0
M  V30 1810 H 167.617 1.57712 1.08624 0
M  V30 1811 H 165.922 1.33854 3.68226 0
M  V30 1812 H 167.619 1.72491 3.62005 0
M  V30 1813 H 164.209 3.03146 3.02986 0
M  V30 1814 H 168.393 4.00692 2.92848 0
M  V30 1815 H 163.649 5.41705 2.83489 0
M  V30 1816 H 167.823 6.40026 2.74481 0
M  V30 1817 H 165.45 7.10895 2.69318 0
M  V30 1818 N 167.025 -1.13721 1.09112 0
M  V30 1819 C 167.958 -2.18094 0.67158 0
M  V30 1820 C 168.936 -1.59414 -0.320299 0
M  V30 1821 O 170.12 -1.87183 -0.222444 0
M  V30 1822 C 167.247 -3.38698 -0.0111189 0
M  V30 1823 C 166.293 -4.15966 0.942055 0
M  V30 1824 S 167.126 -4.7604 2.45246 0
M  V30 1825 C 168.282 -5.99994 1.78208 0
M  V30 1826 H 168.515 -2.53344 1.55577 0
M  V30 1827 H 166.048 -1.24967 0.906789 0
M  V30 1828 H 168.006 -4.08559 -0.398716 0
M  V30 1829 H 166.667 -3.01756 -0.871905 0
M  V30 1830 H 165.86 -5.02318 0.411396 0
M  V30 1831 H 165.462 -3.51745 1.2709 0
M  V30 1832 H 167.754 -6.68441 1.10424 0
M  V30 1833 H 168.697 -6.57662 2.62463 0
M  V30 1834 H 169.105 -5.50432 1.25238 0
M  V30 1835 N 168.503 -0.877838 -1.30888 0
M  V30 1836 C 169.731 -0.507414 -2.00581 0
M  V30 1837 C 170.146 0.902216 -1.65848 0
M  V30 1838 O 169.503 1.59225 -0.891831 0
M  V30 1839 C 169.554 -0.664162 -3.55347 0
M  V30 1840 O 169.275 -2.01829 -3.8884 0
M  V30 1841 C 170.776 -0.295787 -4.42312 0
M  V30 1842 H 167.996 -0.196866 -0.641471 0
M  V30 1843 H 170.54 -1.18117 -1.66939 0
M  V30 1844 H 168.695 -0.0378619 -3.87381 0
M  V30 1845 H 169.109 -2.03174 -4.8355 0
M  V30 1846 H 170.583 -0.456388 -5.5011 0
M  V30 1847 H 171.06 0.765663 -4.32475 0
M  V30 1848 H 171.666 -0.898113 -4.15709 0
M  V30 1849 N 169.982 1.44106 -0.638065 0
M  V30 1850 C 170.945 2.29138 0.0531013 0
M  V30 1851 C 171.945 1.41409 0.765506 0
M  V30 1852 O 173.135 1.63206 0.609046 0
M  V30 1853 C 170.267 3.23144 1.08584 0
M  V30 1854 H 171.46 2.91739 -0.694883 0
M  V30 1855 H 169.013 1.51134 -0.398538 0
M  V30 1856 H 169.748 2.65408 1.86357 0
M  V30 1857 H 169.533 3.87804 0.578852 0
M  V30 1858 H 171.023 3.87004 1.56899 0
M  V30 1859 N 171.46 0.379036 1.52974 0
M  V30 1860 C 172.393 -0.504932 2.22544 0
M  V30 1861 C 173.371 -1.0723 1.22231 0
M  V30 1862 O 174.555 -1.12589 1.51182 0
M  V30 1863 C 171.682 -1.69794 2.93066 0
M  V30 1864 C 170.728 -1.25678 4.07563 0
M  V30 1865 S 171.561 -0.246852 5.34931 0
M  V30 1866 C 172.717 -1.44588 6.08971 0
M  V30 1867 H 172.95 0.0858666 2.97176 0
M  V30 1868 H 170.483 0.163183 1.53535 0
M  V30 1869 H 172.441 -2.38219 3.34308 0
M  V30 1870 H 171.102 -2.26002 2.18133 0
M  V30 1871 H 170.295 -2.14725 4.5597 0
M  V30 1872 H 169.897 -0.651584 3.6828 0
M  V30 1873 H 172.189 -2.37469 6.34519 0
M  V30 1874 H 173.132 -1.00292 7.00962 0
M  V30 1875 H 173.54 -1.65804 5.39601 0
M  V30 1876 N 172.938 -1.57226 0.108567 0
M  V30 1877 C 174.163 -1.99604 -0.563303 0
M  V30 1878 C 174.588 -0.987563 -1.6009 0
M  V30 1879 O 173.946 0.0421687 -1.81251 0
M  V30 1880 C 173.994 -3.40902 -1.17552 0
M  V30 1881 O 173.098 -3.42896 -2.2912 0
M  V30 1882 H 172.439 -0.648704 -0.1417 0
M  V30 1883 H 174.969 -2.03679 0.193961 0
M  V30 1884 H 174.979 -3.78886 -1.51357 0
M  V30 1885 H 173.654 -4.1382 -0.415445 0
M  V30 1886 H 172.231 -3.1672 -1.96832 0
M  V30 1887 N 174.416 0.165178 -1.56732 0
M  V30 1888 C 175.663 0.880807 -1.8234 0
M  V30 1889 C 175.991 1.81977 -0.686621 0
M  V30 1890 O 175.246 1.92971 0.325697 0
M  V30 1891 C 175.545 1.70405 -3.1416 0
M  V30 1892 C 175.211 0.913475 -4.4155 0
M  V30 1893 C 173.873 0.695303 -4.7615 0
M  V30 1894 C 176.225 0.359349 -5.1996 0
M  V30 1895 C 173.553 -0.0879947 -5.86634 0
M  V30 1896 C 175.905 -0.410893 -6.31264 0
M  V30 1897 C 174.569 -0.639808 -6.64427 0
M  V30 1898 H 173.839 0.32231 -0.667231 0
M  V30 1899 H 176.486 0.145402 -1.90947 0
M  V30 1900 H 174.791 2.50903 -3.00923 0
M  V30 1901 H 176.488 2.26091 -3.31186 0
M  V30 1902 H 173.078 1.09357 -4.14414 0
M  V30 1903 H 177.262 0.515228 -4.93618 0
M  V30 1904 H 172.518 -0.27503 -6.10781 0
M  V30 1905 H 176.692 -0.847494 -6.91224 0
M  V30 1906 H 174.319 -1.24864 -7.49875 0
M  V30 1907 N 175.894 1.51508 0.433938 0
M  V30 1908 C 177.141 1.64345 1.18309 0
M  V30 1909 C 177.469 0.361315 1.91115 0
M  V30 1910 O 176.724 -0.654753 1.84422 0
M  V30 1911 C 177.023 2.79928 2.22205 0
M  V30 1912 C 176.689 4.19078 1.66387 0
M  V30 1913 C 175.351 4.56932 1.50887 0
M  V30 1914 C 177.703 5.05894 1.25381 0
M  V30 1915 C 175.031 5.79305 0.928608 0
M  V30 1916 C 177.383 6.2885 0.687823 0
M  V30 1917 C 176.047 6.65473 0.519755 0
M  V30 1918 H 175.317 0.601381 0.432923 0
M  V30 1919 H 177.964 1.85549 0.473676 0
M  V30 1920 H 176.269 2.52959 2.99197 0
M  V30 1921 H 177.966 2.87059 2.79997 0
M  V30 1922 H 174.556 3.89234 1.79428 0
M  V30 1923 H 178.74 4.77253 1.36175 0
M  V30 1924 H 173.996 6.06324 0.786186 0
M  V30 1925 H 178.17 6.95461 0.361581 0
M  V30 1926 H 175.797 7.6017 0.0679979 0
M  V30 1927 N 177.372 -0.689602 1.41712 0
M  V30 1928 C 178.788 -1.00093 1.24312 0
M  V30 1929 C 178.988 -2.01036 0.136729 0
M  V30 1930 O 178.044 -2.47562 -0.496918 0
M  V30 1931 C 179.357 -1.51985 2.59463 0
M  V30 1932 C 180.905 -1.63838 2.66695 0
M  V30 1933 C 181.38 -2.1913 4.02177 0
M  V30 1934 N 182.871 -2.26483 4.04054 0
M  V30 1935 C 183.606 -2.70306 5.0569 0
M  V30 1936 N 183.102 -3.13691 6.17713 0
M  V30 1937 N 184.895 -2.69923 4.9305 0
M  V30 1938 H 177.046 -0.0210029 2.1239 0
M  V30 1939 H 179.309 -0.0718733 0.945272 0
M  V30 1940 H 179.015 -0.85269 3.41207 0
M  V30 1941 H 178.889 -2.50103 2.82362 0
M  V30 1942 H 181.276 -2.29664 1.85306 0
M  V30 1943 H 181.357 -0.642492 2.476 0
M  V30 1944 H 181.001 -1.53918 4.84016 0
M  V30 1945 H 180.931 -3.19482 4.18615 0
M  V30 1946 H 183.422 -1.95874 3.23174 0
M  V30 1947 H 183.735 -3.45773 6.9113 0
M  V30 1948 H 182.08 -3.11585 6.21241 0
M  V30 1949 H 185.271 -2.35382 4.04614 0
M  V30 1950 H 185.444 -3.03758 5.72394 0
M  V30 1951 N 178.85 -1.27639 -0.924453 0
M  V30 1952 C 180.09 -1.15407 -1.68703 0
M  V30 1953 C 180.454 0.294581 -1.89727 0
M  V30 1954 O 181.655 0.539385 -2.63333 0
M  V30 1955 C 179.926 -1.9195 -3.0148 0
M  V30 1956 S 181.485 -1.95969 -3.92609 0
M  V30 1957 H 178.303 -0.411937 -0.579507 0
M  V30 1958 H 180.905 -1.61592 -1.10038 0
M  V30 1959 H 179.609 -2.96387 -2.83871 0
M  V30 1960 H 179.14 -1.46272 -3.65196 0
M  V30 1961 H 181.155 -1.05846 -4.84779 0
M  V30 1962 N 180.328 1.1314 -1.09713 0
M  V30 1963 C 181.577 1.83838 -0.829851 0
M  V30 1964 C 181.89 1.84599 0.646728 0
M  V30 1965 O 183.096 2.51218 1.02965 0
M  V30 1966 C 181.552 3.30069 -1.43466 0
M  V30 1967 C 181.16 3.37688 -2.94399 0
M  V30 1968 C 182.904 4.05788 -1.24645 0
M  V30 1969 C 180.811 4.78209 -3.47952 0
M  V30 1970 H 179.741 0.68877 -0.306777 0
M  V30 1971 H 182.392 1.27448 -1.3202 0
M  V30 1972 H 180.774 3.8628 -0.871996 0
M  V30 1973 H 181.948 2.91456 -3.56918 0
M  V30 1974 H 180.263 2.75436 -3.12289 0
M  V30 1975 H 182.86 5.09535 -1.62107 0
M  V30 1976 H 183.203 4.15878 -0.187357 0
M  V30 1977 H 183.736 3.55915 -1.77678 0
M  V30 1978 H 180.475 4.73311 -4.53495 0
M  V30 1979 H 179.995 5.24924 -2.90198 0
M  V30 1980 H 181.674 5.47133 -3.45332 0
M  V30 1981 N 181.806 0.884767 1.30421 0
M  V30 1982 C 182.769 0.356277 2.26414 0
M  V30 1983 C 183.769 -0.501124 1.52792 0
M  V30 1984 O 184.959 -0.30831 1.7145 0
M  V30 1985 C 182.091 -0.492316 3.37326 0
M  V30 1986 H 183.284 1.20389 2.74675 0
M  V30 1987 H 180.837 0.661607 1.41607 0
M  V30 1988 H 181.572 -1.36052 2.94381 0
M  V30 1989 H 181.357 0.121832 3.91911 0
M  V30 1990 H 182.847 -0.853871 4.08777 0
M  V30 1991 N 183.284 -1.43765 0.645699 0
M  V30 1992 C 184.533 -2.01116 0.153412 0
M  V30 1993 C 184.846 -1.51493 -1.23731 0
M  V30 1994 O 186.052 -2.01067 -1.8244 0
M  V30 1995 C 184.508 -3.59206 0.223473 0
M  V30 1996 C 184.116 -4.17823 1.61642 0
M  V30 1997 C 185.86 -4.23972 -0.211597 0
M  V30 1998 C 183.767 -5.68183 1.64081 0
M  V30 1999 H 182.697 -0.752093 0.0535891 0
M  V30 2000 H 185.348 -1.6482 0.806633 0
M  V30 2001 H 183.73 -3.92867 -0.497118 0
M  V30 2002 H 184.904 -3.95674 2.36176 0
M  V30 2003 H 183.219 -3.65399 1.99681 0
M  V30 2004 H 185.816 -5.34275 -0.213112 0
M  V30 2005 H 186.159 -3.97352 -1.24165 0
M  V30 2006 H 186.692 -3.95166 0.456988 0
M  V30 2007 H 183.431 -5.99559 2.64971 0
M  V30 2008 H 182.951 -5.9241 0.938611 0
M  V30 2009 H 184.63 -6.32085 1.3812 0
M  V30 2010 N 184.763 -0.387143 -1.52771 0
M  V30 2011 C 186.009 0.196025 -2.0185 0
M  V30 2012 C 186.342 1.46641 -1.27319 0
M  V30 2013 O 185.617 1.90889 -0.373032 0
M  V30 2014 C 185.9 0.466136 -3.5707 0
M  V30 2015 C 185.753 -0.819385 -4.42274 0
M  V30 2016 C 187.072 1.25768 -4.21747 0
M  V30 2017 H 184.191 0.0697708 -0.73369 0
M  V30 2018 H 186.833 -0.516286 -1.82851 0
M  V30 2019 H 184.983 1.07293 -3.7339 0
M  V30 2020 H 186.655 -1.4563 -4.37709 0
M  V30 2021 H 184.898 -1.43517 -4.09372 0
M  V30 2022 H 185.569 -0.585065 -5.48891 0
M  V30 2023 H 188.045 0.744167 -4.09391 0
M  V30 2024 H 186.921 1.41541 -5.30337 0
M  V30 2025 H 187.182 2.27228 -3.79236 0
M  V30 2026 N 186.241 1.57166 -0.116904 0
M  V30 2027 C 187.488 1.95123 0.541603 0
M  V30 2028 C 187.816 1.00006 1.6682 0
M  V30 2029 O 187.071 0.0235658 1.95686 0
M  V30 2030 C 187.37 3.39508 1.11664 0
M  V30 2031 C 187.036 4.50762 0.111606 0
M  V30 2032 C 185.698 4.80918 -0.164758 0
M  V30 2033 C 188.05 5.18036 -0.573438 0
M  V30 2034 C 185.378 5.75666 -1.13249 0
M  V30 2035 C 187.73 6.13824 -1.52978 0
M  V30 2036 C 186.394 6.42374 -1.81415 0
M  V30 2037 H 185.664 0.714005 0.198187 0
M  V30 2038 H 188.311 1.9048 -0.197365 0
M  V30 2039 H 186.616 3.40835 1.93232 0
M  V30 2040 H 188.313 3.66189 1.63422 0
M  V30 2041 H 184.903 4.27272 0.337192 0
M  V30 2042 H 189.087 4.94896 -0.373092 0
M  V30 2043 H 184.343 5.96092 -1.35958 0
M  V30 2044 H 188.517 6.65039 -2.06629 0
M  V30 2045 H 186.144 7.15599 -2.56557 0
M  V30 2046 N 187.719 -0.156864 1.56817 0
M  V30 2047 C 189.13 -0.717916 1.72345 0
M  V30 2048 C 189.481 -1.82124 0.729747 0
M  V30 2049 O 188.606 -2.16141 -0.105781 0
M  V30 2050 C 189.201 -1.30904 3.12489 0
M  V30 2051 C 187.76 -1.81676 3.29653 0
M  V30 2052 C 186.907 -0.701349 2.68284 0
M  V30 2053 H 189.858 0.0686989 1.58551 0
M  V30 2054 H 189.879 -2.17882 3.11942 0
M  V30 2055 H 189.391 -0.505796 3.8479 0
M  V30 2056 H 187.492 -2.64598 2.62333 0
M  V30 2057 H 187.605 -1.95226 4.3752 0
M  V30 2058 H 185.969 -1.12548 2.28484 0
M  V30 2059 H 186.752 0.0902846 3.43181 0
M  V30 2060 N 189.197 -1.51736 -0.425897 0
M  V30 2061 C 190.443 -1.65214 -1.1761 0
M  V30 2062 C 190.776 -0.372778 -1.90589 0
M  V30 2063 O 190.051 0.628139 -1.84078 0
M  V30 2064 C 190.334 -2.86312 -2.18398 0
M  V30 2065 C 190.187 -4.24254 -1.49426 0
M  V30 2066 C 191.506 -3.02925 -3.19256 0
M  V30 2067 H 188.625 -0.601263 -0.426206 0
M  V30 2068 H 191.267 -1.8425 -0.463882 0
M  V30 2069 H 189.417 -2.70213 -2.79137 0
M  V30 2070 H 191.089 -4.52046 -0.919362 0
M  V30 2071 H 189.332 -4.26426 -0.796432 0
M  V30 2072 H 190.003 -5.05001 -2.22885 0
M  V30 2073 H 192.479 -3.1781 -2.68581 0
M  V30 2074 H 191.355 -3.89199 -3.8706 0
M  V30 2075 H 191.616 -2.15497 -3.86023 0
M  V30 2076 N 190.675 0.682077 -1.42076 0
M  V30 2077 C 191.607 1.80755 -1.40926 0
M  V30 2078 C 192.62 1.59833 -0.309398 0
M  V30 2079 O 193.809 1.69087 -0.572014 0
M  V30 2080 C 190.909 3.17744 -1.17865 0
M  V30 2081 C 190.082 3.65578 -2.40149 0
M  V30 2082 C 189.141 4.81277 -2.12742 0
M  V30 2083 O 188.167 4.92197 -2.85887 0
M  V30 2084 N 189.369 5.69474 -1.12602 0
M  V30 2085 H 192.134 1.82229 -2.37935 0
M  V30 2086 H 189.695 0.864903 -1.36861 0
M  V30 2087 H 191.687 3.9279 -0.9746 0
M  V30 2088 H 190.257 3.11214 -0.294068 0
M  V30 2089 H 189.477 2.81291 -2.76169 0
M  V30 2090 H 190.765 3.94278 -3.21593 0
M  V30 2091 H 190.163 5.63297 -0.520899 0
M  V30 2092 H 188.72 6.44363 -0.981842 0
M  V30 2093 N 192.153 1.28127 0.917671 0
M  V30 2094 C 193.101 1.11569 2.04096 0
M  V30 2095 C 194.095 0.0360242 1.69362 0
M  V30 2096 O 195.301 0.194501 1.78946 0
M  V30 2097 H 191.676 0.344097 0.668656 0
M  V30 2098 H 193.647 2.06711 2.15205 0
M  V30 2099 C 192.396 0.790197 3.38602 0
M  V30 2100 H 191.719 1.61293 3.6582 0
M  V30 2101 H 193.159 0.714271 4.1794 0
M  V30 2102 C 191.618 -0.505897 3.3308 0
M  V30 2103 O 192.148 -1.53736 3.71117 0
M  V30 2104 N 190.354 -0.505193 2.86175 0
M  V30 2105 H 189.901 0.334621 2.55417 0
M  V30 2106 H 189.859 -1.37243 2.82863 0
M  V30 2107 N 193.631 -1.12557 1.10312 0
M  V30 2108 C 194.88 -1.83395 0.839588 0
M  V30 2109 C 195.193 -1.84939 -0.636929 0
M  V30 2110 O 196.399 -2.51761 -1.01631 0
M  V30 2111 C 194.855 -3.29303 1.45215 0
M  V30 2112 C 194.463 -3.36122 2.96186 0
M  V30 2113 C 196.207 -4.05121 1.26796 0
M  V30 2114 C 194.114 -4.76357 3.50483 0
M  V30 2115 H 193.044 -0.687133 0.310425 0
M  V30 2116 H 195.695 -1.26746 1.32694 0
M  V30 2117 H 194.077 -3.85812 0.892469 0
M  V30 2118 H 195.251 -2.89559 3.58458 0
M  V30 2119 H 193.566 -2.73776 3.13745 0
M  V30 2120 H 196.163 -5.08668 1.64806 0
M  V30 2121 H 196.506 -4.15773 0.209409 0
M  V30 2122 H 197.039 -3.54967 1.79563 0
M  V30 2123 H 193.778 -4.70899 4.55998 0
M  V30 2124 H 193.298 -5.23377 2.92978 0
M  V30 2125 H 194.977 -5.45294 3.48228 0
M  V30 2126 N 195.109 -0.891671 -1.2995 0
M  V30 2127 C 196.057 -0.353066 -2.29905 0
M  V30 2128 C 197.051 0.543509 -1.60444 0
M  V30 2129 O 198.257 0.4272 -1.74857 0
M  V30 2130 H 194.632 -0.095531 -0.745907 0
M  V30 2131 H 196.603 -1.20961 -2.72784 0
M  V30 2132 C 195.352 0.411475 -3.45257 0
M  V30 2133 H 194.675 -0.269182 -3.98893 0
M  V30 2134 H 196.115 0.753328 -4.17254 0
M  V30 2135 C 194.574 1.6111 -2.9588 0
M  V30 2136 O 195.104 2.71045 -2.96475 0
M  V30 2137 N 193.31 1.45054 -2.51809 0
M  V30 2138 H 192.857 0.556175 -2.51524 0
M  V30 2139 H 192.815 2.25453 -2.1913 0
M  V30 2140 N 196.587 1.43421 -0.653314 0
M  V30 2141 C 197.517 2.33487 0.0246656 0
M  V30 2142 C 198.498 1.49475 0.811863 0
M  V30 2143 O 199.683 1.78139 0.773322 0
M  V30 2144 C 196.813 3.32841 0.99166 0
M  V30 2145 C 195.767 4.26842 0.314568 0
M  V30 2146 C 195.093 5.16236 1.39302 0
M  V30 2147 C 196.393 5.16243 -0.793095 0
M  V30 2148 H 198.087 2.90427 -0.727481 0
M  V30 2149 H 195.633 1.39649 -0.351287 0
M  V30 2150 H 197.586 3.94747 1.47487 0
M  V30 2151 H 196.31 2.74158 1.77497 0
M  V30 2152 H 194.969 3.663 -0.148199 0
M  V30 2153 H 194.617 4.53891 2.16776 0
M  V30 2154 H 194.317 5.79948 0.945223 0
M  V30 2155 H 195.841 5.81015 1.87759 0
M  V30 2156 H 197.255 5.71958 -0.392039 0
M  V30 2157 H 195.652 5.88676 -1.16536 0
M  V30 2158 H 196.722 4.55927 -1.65103 0
M  V30 2159 N 198.065 0.39524 1.52563 0
M  V30 2160 C 199.311 -0.185318 2.01952 0
M  V30 2161 C 199.644 -1.45964 1.28095 0
M  V30 2162 O 198.919 -1.90689 0.38315 0
M  V30 2163 C 199.202 -0.447193 3.57312 0
M  V30 2164 C 199.055 0.842828 4.41833 0
M  V30 2165 C 200.374 -1.23529 4.22408 0
M  V30 2166 H 197.493 -0.0658788 0.73405 0
M  V30 2167 H 200.135 0.525975 1.82575 0
M  V30 2168 H 198.285 -1.05312 3.73954 0
M  V30 2169 H 199.957 1.4795 4.36931 0
M  V30 2170 H 198.2 1.45686 4.08605 0
M  V30 2171 H 198.871 0.614165 5.48573 0
M  V30 2172 H 201.347 -0.722445 4.0978 0
M  V30 2173 H 200.223 -1.38727 5.3108 0
M  V30 2174 H 200.484 -2.25213 3.80436 0
M  V30 2175 N 199.544 -1.57102 0.125237 0
M  V30 2176 C 200.772 -1.99761 -0.538797 0
M  V30 2177 C 201.187 -1.00503 -1.59827 0
M  V30 2178 O 200.544 0.00119474 -1.825 0
M  V30 2179 C 200.595 -3.42408 -1.15927 0
M  V30 2180 O 200.316 -4.37869 -0.142143 0
M  V30 2181 C 201.817 -4.00232 -1.90602 0
M  V30 2182 H 199.037 -0.655772 -0.14214 0
M  V30 2183 H 201.581 -2.03383 0.213413 0
M  V30 2184 H 199.736 -3.39706 -1.86223 0
M  V30 2185 H 200.15 -5.21128 -0.593775 0
M  V30 2186 H 201.624 -5.02105 -2.29335 0
M  V30 2187 H 202.101 -3.39721 -2.78363 0
M  V30 2188 H 202.707 -4.06499 -1.25055 0
M  V30 2189 N 201.022 0.148545 -1.56898 0
M  V30 2190 C 201.954 1.20852 -1.9475 0
M  V30 2191 C 202.967 1.39265 -0.843152 0
M  V30 2192 O 204.156 1.38864 -1.12156 0
M  V30 2193 C 201.256 2.57362 -2.20495 0
M  V30 2194 C 200.429 2.59947 -3.51776 0
M  V30 2195 C 199.488 3.77984 -3.6608 0
M  V30 2196 O 198.514 3.62929 -4.38487 0
M  V30 2197 N 199.716 4.95375 -3.02629 0
M  V30 2198 H 202.481 0.886804 -2.86279 0
M  V30 2199 H 200.042 0.338121 -1.5833 0
M  V30 2200 H 202.034 3.34833 -2.27307 0
M  V30 2201 H 200.604 2.81832 -1.35238 0
M  V30 2202 H 199.824 1.68403 -3.56419 0
M  V30 2203 H 201.112 2.58704 -4.38121 0
M  V30 2204 H 200.51 5.10509 -2.43715 0
M  V30 2205 H 199.067 5.70627 -3.15004 0
M  V30 2206 N 202.5 1.5196 0.417844 0
M  V30 2207 C 203.447 1.74678 1.50852 0
M  V30 2208 C 204.417 0.588947 1.55308 0
M  V30 2209 O 205.602 0.825544 1.72016 0
M  V30 2210 C 202.742 1.89544 2.88387 0
M  V30 2211 C 201.855 3.17166 2.93309 0
M  V30 2212 C 200.99 3.22513 4.22088 0
M  V30 2213 C 200.029 4.44372 4.20951 0
M  V30 2214 N 199.166 4.47161 5.41287 0
M  V30 2215 H 204.006 2.67768 1.30783 0
M  V30 2216 H 201.543 1.32689 0.63498 0
M  V30 2217 H 203.501 1.96146 3.68216 0
M  V30 2218 H 202.131 0.998424 3.06971 0
M  V30 2219 H 201.183 3.19778 2.06024 0
M  V30 2220 H 202.495 4.07021 2.88332 0
M  V30 2221 H 201.649 3.28139 5.10303 0
M  V30 2222 H 200.388 2.30581 4.29748 0
M  V30 2223 H 199.393 4.38902 3.31127 0
M  V30 2224 H 200.618 5.3759 4.14938 0
M  V30 2225 H 198.564 3.58108 5.49632 0
M  V30 2226 H 198.481 5.3085 5.3827 0
M  V30 2227 H 199.749 4.57005 6.3148 0
M  V30 2228 N 203.978 -0.674533 1.42435 0
M  V30 2229 C 204.925 -1.78807 1.45934 0
M  V30 2230 C 205.895 -1.63157 0.311271 0
M  V30 2231 O 207.08 -1.83707 0.515383 0
M  V30 2232 C 204.22 -3.16839 1.36773 0
M  V30 2233 C 203.333 -3.43774 2.61617 0
M  V30 2234 C 202.468 -4.71536 2.44597 0
M  V30 2235 C 201.507 -4.91505 3.64814 0
M  V30 2236 N 200.644 -6.10508 3.46734 0
M  V30 2237 H 205.484 -1.75151 2.41093 0
M  V30 2238 H 203.021 -0.85504 1.19697 0
M  V30 2239 H 204.979 -3.96606 1.29459 0
M  V30 2240 H 203.609 -3.19619 0.452089 0
M  V30 2241 H 202.661 -2.58259 2.79297 0
M  V30 2242 H 203.973 -3.54423 3.50978 0
M  V30 2243 H 203.127 -5.59393 2.3487 0
M  V30 2244 H 201.866 -4.6317 1.52726 0
M  V30 2245 H 200.871 -4.0209 3.74972 0
M  V30 2246 H 202.096 -5.01716 4.57665 0
M  V30 2247 H 200.042 -6.03315 2.5758 0
M  V30 2248 H 199.959 -6.2202 4.29682 0
M  V30 2249 H 201.227 -7.01044 3.40819 0
M  V30 2250 N 205.456 -1.28612 -0.910864 0
M  V30 2251 C 206.419 -1.12803 -1.9952 0
M  V30 2252 C 207.419 -0.0668264 -1.60661 0
M  V30 2253 O 208.609 -0.312847 -1.71368 0
M  V30 2254 C 205.741 -0.72254 -3.33155 0
M  V30 2255 H 206.934 -2.09109 -2.14973 0
M  V30 2256 H 204.487 -1.11639 -1.09391 0
M  V30 2257 H 205.222 0.241152 -3.23402 0
M  V30 2258 H 205.007 -1.48916 -3.62721 0
M  V30 2259 H 206.497 -0.634666 -4.12749 0
M  V30 2260 N 206.934 1.1197 -1.10907 0
M  V30 2261 C 208.35 1.35591 -0.841852 0
M  V30 2262 C 208.55 1.94233 0.536246 0
M  V30 2263 O 207.606 2.1717 1.28816 0
M  V30 2264 C 208.919 2.29284 -1.94549 0
M  V30 2265 C 210.467 2.42862 -1.97451 0
M  V30 2266 C 210.942 3.39873 -3.07002 0
M  V30 2267 N 212.433 3.47433 -3.06341 0
M  V30 2268 C 213.168 4.22421 -3.87748 0
M  V30 2269 N 212.664 5.00432 -4.79103 0
M  V30 2270 N 214.457 4.17876 -3.75946 0
M  V30 2271 H 206.608 0.722664 -1.99728 0
M  V30 2272 H 208.871 0.380635 -0.868229 0
M  V30 2273 H 208.577 1.93378 -2.93765 0
M  V30 2274 H 208.451 3.29452 -1.83688 0
M  V30 2275 H 210.838 2.78046 -0.988645 0
M  V30 2276 H 210.919 1.42566 -2.12388 0
M  V30 2277 H 210.563 3.05417 -4.05811 0
M  V30 2278 H 210.493 4.40011 -2.89306 0
M  V30 2279 H 212.984 2.91784 -2.40147 0
M  V30 2280 H 213.297 5.55002 -5.37766 0
M  V30 2281 H 211.642 4.99612 -4.83128 0
M  V30 2282 H 214.833 3.56016 -3.03924 0
M  V30 2283 H 215.006 4.76061 -4.39624 0
M  V30 2284 N 208.412 0.89855 1.29475 0
M  V30 2285 C 209.659 0.523882 1.95606 0
M  V30 2286 C 209.987 -0.929608 1.70847 0
M  V30 2287 O 209.242 -1.67401 1.01367 0
M  V30 2288 C 209.541 0.761398 3.49195 0
M  V30 2289 C 209.207 2.19207 3.94029 0
M  V30 2290 C 207.869 2.58326 4.05982 0
M  V30 2291 C 210.221 3.12379 4.17216 0
M  V30 2292 C 207.549 3.898 4.38489 0
M  V30 2293 C 209.901 4.43401 4.51197 0
M  V30 2294 C 208.565 4.82394 4.61359 0
M  V30 2295 H 207.835 0.191702 0.715773 0
M  V30 2296 H 210.482 1.13699 1.54094 0
M  V30 2297 H 208.787 0.0653622 3.91745 0
M  V30 2298 H 210.484 0.450904 3.98457 0
M  V30 2299 H 207.074 1.87846 3.85242 0
M  V30 2300 H 211.258 2.83371 4.07449 0
M  V30 2301 H 206.514 4.19734 4.44559 0
M  V30 2302 H 210.688 5.15623 4.68087 0
M  V30 2303 H 208.315 5.84306 4.86303 0
M  V30 2304 N 209.89 -1.43072 0.660911 0
M  V30 2305 C 211.136 -2.0202 0.177708 0
M  V30 2306 C 211.469 -1.52066 -1.20787 0
M  V30 2307 O 210.744 -0.716987 -1.80802 0
M  V30 2308 C 211.027 -3.59561 0.197019 0
M  V30 2309 C 210.88 -4.19727 1.61706 0
M  V30 2310 C 212.199 -4.37664 -0.462396 0
M  V30 2311 H 209.318 -0.734034 0.0660494 0
M  V30 2312 H 211.96 -1.70272 0.843058 0
M  V30 2313 H 210.11 -3.86739 -0.369527 0
M  V30 2314 H 211.782 -4.03553 2.23479 0
M  V30 2315 H 210.025 -3.76084 2.16201 0
M  V30 2316 H 210.696 -5.28834 1.58237 0
M  V30 2317 H 213.172 -4.16095 0.0197215 0
M  V30 2318 H 212.048 -5.47305 -0.418188 0
M  V30 2319 H 212.309 -4.14493 -1.53778 0
M  V30 2320 N 211.368 -0.403325 -1.52352 0
M  V30 2321 C 212.608 0.173946 -2.03659 0
M  V30 2322 C 212.972 1.42869 -1.28267 0
M  V30 2323 O 214.173 2.08403 -1.69769 0
M  V30 2324 C 212.444 0.421478 -3.54906 0
M  V30 2325 S 214.003 0.967027 -4.28012 0
M  V30 2326 H 210.821 0.0477461 -0.709395 0
M  V30 2327 H 213.423 -0.554906 -1.87459 0
M  V30 2328 H 212.127 -0.498616 -4.0736 0
M  V30 2329 H 211.658 1.17837 -3.75337 0
M  V30 2330 H 213.673 2.24812 -4.4235 0
M  V30 2331 N 212.846 1.57033 -0.133567 0
M  V30 2332 C 214.092 1.95976 0.521649 0
M  V30 2333 C 214.425 1.01779 1.65393 0
M  V30 2334 O 213.7 0.0576581 1.94415 0
M  V30 2335 C 213.983 3.44738 1.04057 0
M  V30 2336 C 213.836 4.49711 -0.0892897 0
M  V30 2337 C 215.155 3.95682 1.92675 0
M  V30 2338 H 212.274 0.712579 0.188149 0
M  V30 2339 H 214.916 1.88813 -0.212076 0
M  V30 2340 H 213.066 3.50973 1.66583 0
M  V30 2341 H 214.738 4.55565 -0.725152 0
M  V30 2342 H 212.981 4.27261 -0.750378 0
M  V30 2343 H 213.652 5.51099 0.315284 0
M  V30 2344 H 216.128 3.91841 1.39998 0
M  V30 2345 H 215.004 5.00262 2.25897 0
M  V30 2346 H 215.265 3.37239 2.85872 0
M  V30 2347 N 214.325 -0.140222 1.56975 0
M  V30 2348 C 215.573 -0.850005 1.83356 0
M  V30 2349 C 215.894 -1.81399 0.71551 0
M  V30 2350 O 215.164 -1.94136 -0.262294 0
M  V30 2351 H 213.744 -0.316886 0.676456 0
M  V30 2352 H 216.406 -0.132608 1.94448 0
M  V30 2353 H 215.502 -1.40814 2.78528 0
M  V30 2354 N 215.803 -1.52179 -0.40978 0
M  V30 2355 C 217.052 -1.65434 -1.15388 0
M  V30 2356 C 217.365 -0.390056 -1.91671 0
M  V30 2357 O 218.571 -0.402399 -2.68501 0
M  V30 2358 C 217.027 -2.92279 -2.10003 0
M  V30 2359 C 216.635 -4.25813 -1.39239 0
M  V30 2360 C 218.379 -3.14897 -2.84675 0
M  V30 2361 C 216.286 -5.43782 -2.32498 0
M  V30 2362 H 215.216 -0.616267 -0.434432 0
M  V30 2363 H 217.867 -1.78666 -0.418401 0
M  V30 2364 H 216.249 -2.72744 -2.871 0
M  V30 2365 H 217.423 -4.55828 -0.675099 0
M  V30 2366 H 215.738 -4.09292 -0.766097 0
M  V30 2367 H 218.335 -4.0021 -3.54593 0
M  V30 2368 H 218.678 -2.29103 -3.47588 0
M  V30 2369 H 219.211 -3.34901 -2.14677 0
M  V30 2370 H 215.95 -6.3192 -1.74233 0
M  V30 2371 H 215.47 -5.18106 -3.02201 0
M  V30 2372 H 217.149 -5.76834 -2.93038 0
M  V30 2373 N 217.281 0.66697 -1.42791 0
M  V30 2374 C 218.527 1.42754 -1.44889 0
M  V30 2375 C 218.882 1.92283 -0.0669755 0
M  V30 2376 O 218.175 1.68494 0.912154 0
M  V30 2377 C 218.369 2.6349 -2.4147 0
M  V30 2378 C 218.198 2.25776 -3.88915 0
M  V30 2379 C 216.968 2.1476 -4.57391 0
M  V30 2380 C 219.166 1.86927 -4.79127 0
M  V30 2381 N 217.148 1.70232 -5.89826 0
M  V30 2382 C 218.519 1.53378 -6.00729 0
M  V30 2383 C 220.574 1.73989 -4.66511 0
M  V30 2384 C 219.277 1.08187 -7.11117 0
M  V30 2385 C 221.303 1.30203 -5.76889 0
M  V30 2386 C 220.665 0.975818 -6.97608 0
M  V30 2387 H 216.764 0.518559 -0.585338 0
M  V30 2388 H 219.348 0.768906 -1.78874 0
M  V30 2389 H 217.519 3.27033 -2.09533 0
M  V30 2390 H 219.251 3.30123 -2.34096 0
M  V30 2391 H 216.006 2.3408 -4.11708 0
M  V30 2392 H 216.43 1.50369 -6.6009 0
M  V30 2393 H 221.072 1.97853 -3.7365 0
M  V30 2394 H 218.79 0.830701 -8.03819 0
M  V30 2395 H 222.376 1.20701 -5.69142 0
M  V30 2396 H 221.256 0.642157 -7.81566 0
M  V30 2397 N 218.759 1.29093 0.90403 0
M  V30 2398 C 220.008 1.16187 1.64874 0
M  V30 2399 C 220.321 -0.286742 1.93487 0
M  V30 2400 O 221.527 -0.537062 2.66135 0
M  V30 2401 C 219.983 2.03177 2.97064 0
M  V30 2402 C 219.591 3.52836 2.76062 0
M  V30 2403 C 221.335 1.98984 3.74974 0
M  V30 2404 C 219.242 4.31945 4.03952 0
M  V30 2405 H 218.172 0.431246 0.618501 0
M  V30 2406 H 220.823 1.53699 1.00243 0
M  V30 2407 H 219.205 1.5853 3.62883 0
M  V30 2408 H 220.379 4.05507 2.18863 0
M  V30 2409 H 218.694 3.58656 2.11553 0
M  V30 2410 H 221.291 2.55351 4.69787 0
M  V30 2411 H 221.634 0.968815 4.0487 0
M  V30 2412 H 222.167 2.41652 3.15989 0
M  V30 2413 H 218.906 5.34667 3.79225 0
M  V30 2414 H 218.426 3.84045 4.60727 0
M  V30 2415 H 220.105 4.42379 4.72133 0
M  V30 2416 N 220.237 -1.11381 1.11499 0
M  V30 2417 C 221.484 -1.83132 0.864231 0
M  V30 2418 C 221.812 -1.84683 -0.610114 0
M  V30 2419 O 221.067 -1.29589 -1.46646 0
M  V30 2420 C 221.366 -3.30026 1.37177 0
M  V30 2421 C 221.032 -3.48634 2.85946 0
M  V30 2422 C 219.694 -3.53421 3.26569 0
M  V30 2423 C 222.046 -3.54837 3.81759 0
M  V30 2424 C 219.374 -3.61967 4.61733 0
M  V30 2425 C 221.726 -3.64915 5.1674 0
M  V30 2426 C 220.39 -3.67962 5.5692 0
M  V30 2427 H 219.66 -0.670127 0.316245 0
M  V30 2428 H 222.307 -1.31354 1.3935 0
M  V30 2429 H 220.612 -3.84304 0.762753 0
M  V30 2430 H 222.309 -3.84034 1.15408 0
M  V30 2431 H 218.899 -3.45579 2.53521 0
M  V30 2432 H 223.083 -3.50399 3.51474 0
M  V30 2433 H 218.339 -3.62603 4.92269 0
M  V30 2434 H 222.513 -3.68658 5.90816 0
M  V30 2435 H 220.14 -3.74336 6.61647 0
M  V30 2436 N 221.715 -0.905404 -1.28997 0
M  V30 2437 C 222.961 -0.535039 -1.95615 0
M  V30 2438 C 223.294 0.917404 -1.71165 0
M  V30 2439 O 222.569 1.65123 -1.02785 0
M  V30 2440 C 222.852 -0.834918 -3.50287 0
M  V30 2441 C 222.705 -2.33948 -3.84172 0
M  V30 2442 C 224.024 -0.325318 -4.38896 0
M  V30 2443 H 221.143 -0.195861 -0.710498 0
M  V30 2444 H 223.785 -1.13313 -1.52513 0
M  V30 2445 H 221.935 -0.325904 -3.87131 0
M  V30 2446 H 223.607 -2.91847 -3.57243 0
M  V30 2447 H 221.85 -2.79789 -3.31513 0
M  V30 2448 H 222.521 -2.49987 -4.92149 0
M  V30 2449 H 224.997 -0.761256 -4.09077 0
M  V30 2450 H 223.873 -0.564295 -5.45992 0
M  V30 2451 H 224.134 0.774144 -4.35269 0
M  V30 2452 N 223.193 1.4272 -0.668489 0
M  V30 2453 C 224.442 2.00846 -0.185389 0
M  V30 2454 C 224.755 1.53442 1.21305 0
M  V30 2455 O 225.961 2.03944 1.79218 0
M  V30 2456 C 224.417 3.58805 -0.280591 0
M  V30 2457 C 224.025 4.15198 -1.68268 0
M  V30 2458 C 225.769 4.24255 0.14412 0
M  V30 2459 C 223.676 5.655 -1.73099 0
M  V30 2460 H 222.606 0.751145 -0.0655475 0
M  V30 2461 H 225.257 1.63516 -0.832752 0
M  V30 2462 H 223.639 3.93608 0.434553 0
M  V30 2463 H 224.813 3.91866 -2.42441 0
M  V30 2464 H 223.128 3.62176 -2.05469 0
M  V30 2465 H 225.725 5.34547 0.128086 0
M  V30 2466 H 226.068 3.99277 1.17827 0
M  V30 2467 H 226.601 3.94389 -0.519798 0
M  V30 2468 H 223.34 5.95268 -2.74475 0
M  V30 2469 H 222.86 5.90842 -1.03274 0
M  V30 2470 H 224.539 6.29808 -1.48158 0
M  V30 2471 N 224.671 0.411399 1.52136 0
M  V30 2472 C 225.601 -0.404015 2.29978 0
M  V30 2473 C 226.582 -1.04412 1.34284 0
M  V30 2474 O 227.767 -1.0527 1.63192 0
M  V30 2475 C 224.897 -1.5197 3.12286 0
M  V30 2476 C 223.851 -1.00448 4.16046 0
M  V30 2477 C 223.177 -2.21393 4.86712 0
M  V30 2478 C 224.477 -0.0569336 5.22269 0
M  V30 2479 H 226.171 0.245529 2.98392 0
M  V30 2480 H 223.717 0.119525 1.43503 0
M  V30 2481 H 225.67 -2.09715 3.6551 0
M  V30 2482 H 224.394 -2.19716 2.41646 0
M  V30 2483 H 223.053 -0.449421 3.63835 0
M  V30 2484 H 222.701 -2.87699 4.12599 0
M  V30 2485 H 222.401 -1.87571 5.56858 0
M  V30 2486 H 223.925 -2.7974 5.4275 0
M  V30 2487 H 225.339 -0.54325 5.7072 0
M  V30 2488 H 223.736 0.192594 5.99791 0
M  V30 2489 H 224.806 0.887663 4.76706 0
M  V30 2490 N 226.149 -1.5696 0.141893 0
M  V30 2491 C 227.377 -2.00322 -0.517579 0
M  V30 2492 C 227.792 -1.02193 -1.58752 0
M  V30 2493 O 227.149 -0.0181619 -1.82491 0
M  V30 2494 C 227.2 -3.43618 -1.12289 0
M  V30 2495 O 226.921 -4.37995 -0.0956929 0
M  V30 2496 C 228.422 -4.02231 -1.86347 0
M  V30 2497 H 225.642 -0.657243 -0.135177 0
M  V30 2498 H 228.186 -2.03146 0.234973 0
M  V30 2499 H 226.341 -3.41662 -1.82609 0
M  V30 2500 H 226.755 -5.21729 -0.538469 0
M  V30 2501 H 228.229 -5.04509 -2.23997 0
M  V30 2502 H 228.706 -3.42655 -2.74744 0
M  V30 2503 H 229.312 -4.07802 -1.20737 0
M  V30 2504 N 227.627 0.131896 -1.57047 0
M  V30 2505 C 228.852 0.860418 -1.8871 0
M  V30 2506 C 229.277 1.73251 -0.73251 0
M  V30 2507 O 228.635 1.785 0.317429 0
M  V30 2508 C 228.683 1.68047 -3.19049 0
M  V30 2509 O 227.787 2.7862 -3.04047 0
M  V30 2510 H 227.128 0.238743 -0.619595 0
M  V30 2511 H 229.658 0.118169 -2.04258 0
M  V30 2512 H 229.668 2.07238 -3.51449 0
M  V30 2513 H 228.343 1.04018 -4.02682 0
M  V30 2514 H 226.92 2.42726 -2.83088 0
M  V30 2515 N 229.106 1.52395 0.401703 0
M  V30 2516 C 230.331 1.70972 1.17403 0
M  V30 2517 C 230.756 0.421615 1.83314 0
M  V30 2518 O 230.114 -0.621564 1.70312 0
M  V30 2519 C 230.162 2.85151 2.20728 0
M  V30 2520 O 229.266 2.51238 3.27037 0
M  V30 2521 H 228.607 0.568927 0.342372 0
M  V30 2522 H 231.137 1.99131 0.469891 0
M  V30 2523 H 231.147 3.10279 2.64936 0
M  V30 2524 H 229.822 3.78603 1.7214 0
M  V30 2525 H 228.399 2.36808 2.88057 0
M  V30 2526 N 230.584 -0.659388 1.43143 0
M  V30 2527 C 231.995 -1.24041 1.39537 0
M  V30 2528 C 232.346 -1.95963 0.0963364 0
M  V30 2529 O 231.471 -2.00892 -0.804438 0
M  V30 2530 C 232.066 -2.25601 2.52764 0
M  V30 2531 C 230.625 -2.79195 2.52443 0
M  V30 2532 C 229.772 -1.53743 2.30778 0
M  V30 2533 H 232.723 -0.451792 1.52133 0
M  V30 2534 H 232.744 -3.07651 2.23899 0
M  V30 2535 H 232.256 -1.73226 3.47296 0
M  V30 2536 H 230.357 -3.35649 1.61773 0
M  V30 2537 H 230.47 -3.2716 3.50004 0
M  V30 2538 H 228.834 -1.80869 1.79328 0
M  V30 2539 H 229.617 -1.03312 3.27386 0
M  V30 2540 N 232.062 -1.29571 -0.897171 0
M  V30 2541 C 233.309 -1.17689 -1.6479 0
M  V30 2542 C 233.637 0.27107 -1.92602 0
M  V30 2543 O 232.892 1.21193 -1.53658 0
M  V30 2544 C 233.191 -1.9382 -3.00281 0
M  V30 2545 C 232.857 -3.43522 -2.92068 0
M  V30 2546 C 231.519 -3.84348 -2.89535 0
M  V30 2547 C 233.871 -4.38906 -2.81089 0
M  V30 2548 C 231.199 -5.18869 -2.73846 0
M  V30 2549 C 233.551 -5.73521 -2.66939 0
M  V30 2550 C 232.215 -6.13601 -2.62774 0
M  V30 2551 H 231.485 -0.430654 -0.603008 0
M  V30 2552 H 234.132 -1.60536 -1.04404 0
M  V30 2553 H 232.437 -1.4357 -3.64547 0
M  V30 2554 H 234.134 -1.82028 -3.57305 0
M  V30 2555 H 230.724 -3.11072 -2.94842 0
M  V30 2556 H 234.908 -4.08315 -2.82121 0
M  V30 2557 H 230.164 -5.4903 -2.69027 0
M  V30 2558 H 234.338 -6.47078 -2.57416 0
M  V30 2559 H 231.965 -7.17786 -2.50375 0
M  V30 2560 N 233.54 1.10788 -1.12088 0
M  V30 2561 C 234.47 2.19083 -0.807755 0
M  V30 2562 C 235.451 1.6858 0.226859 0
M  V30 2563 O 236.636 1.93997 0.0888475 0
M  V30 2564 C 233.766 3.46344 -0.257576 0
M  V30 2565 C 232.72 4.101 -1.22483 0
M  V30 2566 C 232.046 5.32016 -0.535052 0
M  V30 2567 C 233.346 4.54236 -2.57811 0
M  V30 2568 H 235.04 2.45534 -1.71328 0
M  V30 2569 H 232.586 1.1801 -0.825205 0
M  V30 2570 H 234.539 4.21392 -0.0262679 0
M  V30 2571 H 233.263 3.19373 0.683278 0
M  V30 2572 H 231.922 3.37054 -1.44189 0
M  V30 2573 H 231.57 5.01319 0.410827 0
M  V30 2574 H 231.27 5.75625 -1.18024 0
M  V30 2575 H 232.794 6.09799 -0.312695 0
M  V30 2576 H 234.208 5.20575 -2.40155 0
M  V30 2577 H 232.605 5.08682 -3.18375 0
M  V30 2578 H 233.675 3.6734 -3.16528 0
M  V30 2579 N 235.018 0.912232 1.28515 0
M  V30 2580 C 235.951 0.343928 2.25593 0
M  V30 2581 C 236.929 -0.550994 1.5298 0
M  V30 2582 O 238.113 -0.494991 1.81885 0
M  V30 2583 C 235.24 -0.508525 3.34861 0
M  V30 2584 C 234.286 0.320808 4.25292 0
M  V30 2585 S 235.119 1.72658 5.06902 0
M  V30 2586 C 236.275 0.881394 6.19663 0
M  V30 2587 H 236.508 1.16674 2.73449 0
M  V30 2588 H 234.041 0.713384 1.36931 0
M  V30 2589 H 235.999 -0.994539 3.9827 0
M  V30 2590 H 234.66 -1.30571 2.85675 0
M  V30 2591 H 233.853 -0.330941 5.02912 0
M  V30 2592 H 233.455 0.74042 3.66598 0
M  V30 2593 H 235.747 0.110359 6.7741 0
M  V30 2594 H 236.69 1.63009 6.89082 0
M  V30 2595 H 237.098 0.430239 5.62858 0
M  V30 2596 N 236.496 -1.42363 0.676048 0
M  V30 2597 C 237.459 -2.29199 0.00766941 0
M  V30 2598 C 238.459 -1.43389 -0.727745 0
M  V30 2599 O 239.649 -1.64764 -0.56556 0
M  V30 2600 C 236.781 -3.2591 -0.999785 0
M  V30 2601 H 237.974 -2.89794 0.771988 0
M  V30 2602 H 235.527 -1.50024 0.438468 0
M  V30 2603 H 236.262 -2.70256 -1.79255 0
M  V30 2604 H 236.047 -3.89202 -0.475829 0
M  V30 2605 H 237.537 -3.91028 -1.46583 0
M  V30 2606 N 237.974 -0.419461 -1.51915 0
M  V30 2607 C 238.921 0.400927 -2.27291 0
M  V30 2608 C 239.891 1.03224 -1.30131 0
M  V30 2609 O 241.076 1.05455 -1.59009 0
M  V30 2610 C 238.216 1.50603 -3.10504 0
M  V30 2611 C 237.329 0.89462 -4.22635 0
M  V30 2612 C 236.464 1.97328 -4.93189 0
M  V30 2613 C 235.503 1.33935 -5.97267 0
M  V30 2614 N 234.64 2.3586 -6.61298 0
M  V30 2615 H 239.48 -0.248251 -2.96964 0
M  V30 2616 H 237.017 -0.134266 -1.46486 0
M  V30 2617 H 238.975 2.15783 -3.57062 0
M  V30 2618 H 237.605 2.12509 -2.42981 0
M  V30 2619 H 236.657 0.131583 -3.80172 0
M  V30 2620 H 237.969 0.391641 -4.9726 0
M  V30 2621 H 237.123 2.70211 -5.43204 0
M  V30 2622 H 235.862 2.50994 -4.18155 0
M  V30 2623 H 234.867 0.595896 -5.46561 0
M  V30 2624 H 236.092 0.810252 -6.74249 0
M  V30 2625 H 234.038 2.88639 -5.89087 0
M  V30 2626 H 233.955 1.90403 -7.3163 0
M  V30 2627 H 235.223 3.08282 -7.15949 0
M  V30 2628 N 239.452 1.56882 -0.150215 0
M  V30 2629 C 240.863 1.82995 0.370076 0
M  V30 2630 C 241.214 1.06907 1.64515 0
M  V30 2631 O 240.339 0.315369 2.1409 0
M  V30 2632 C 240.934 3.31942 0.678208 0
M  V30 2633 C 239.493 3.58625 1.14301 0
M  V30 2634 C 238.64 2.76792 0.167778 0
M  V30 2635 H 241.591 1.54209 -0.374858 0
M  V30 2636 H 241.612 3.48272 1.53254 0
M  V30 2637 H 241.124 3.87294 -0.249991 0
M  V30 2638 H 239.225 3.08664 2.08704 0
M  V30 2639 H 239.338 4.67073 1.06676 0
M  V30 2640 H 237.702 2.45972 0.661037 0
M  V30 2641 H 238.485 3.34916 -0.754069 0
M  V30 2642 N 240.93 -0.123565 1.57115 0
M  V30 2643 C 241.862 -1.17739 1.96648 0
M  V30 2644 C 242.875 -1.37906 0.865201 0
M  V30 2645 O 244.064 -1.37062 1.14351 0
M  V30 2646 C 241.164 -2.53821 2.24562 0
M  V30 2647 C 240.337 -2.54317 3.55867 0
M  V30 2648 C 239.396 -3.72112 3.72047 0
M  V30 2649 O 238.422 -3.55907 4.44206 0
M  V30 2650 N 239.624 -4.90498 3.10471 0
M  V30 2651 H 242.389 -0.841147 2.87654 0
M  V30 2652 H 239.95 -0.31289 1.58848 0
M  V30 2653 H 241.942 -3.31175 2.32606 0
M  V30 2654 H 240.512 -2.79645 1.39705 0
M  V30 2655 H 239.732 -1.62711 3.59053 0
M  V30 2656 H 241.02 -2.51701 4.42181 0
M  V30 2657 H 240.418 -5.06567 2.51806 0
M  V30 2658 H 238.975 -5.65544 3.24043 0
M  V30 2659 N 242.408 -1.52605 -0.393616 0
M  V30 2660 C 243.355 -1.77055 -1.48054 0
M  V30 2661 C 244.325 -0.61358 -1.54352 0
M  V30 2662 O 245.51 -0.852806 -1.70681 0
M  V30 2663 C 242.65 -1.94108 -2.85335 0
M  V30 2664 C 241.763 -3.21792 -2.88226 0
M  V30 2665 C 240.898 -3.29188 -4.16904 0
M  V30 2666 C 239.937 -4.51013 -4.13828 0
M  V30 2667 N 239.074 -4.55716 -5.34105 0
M  V30 2668 H 243.914 -2.69815 -1.26506 0
M  V30 2669 H 241.451 -1.33683 -0.61379 0
M  V30 2670 H 243.409 -2.01979 -3.65049 0
M  V30 2671 H 242.039 -1.04713 -3.05344 0
M  V30 2672 H 241.091 -3.23015 -2.00911 0
M  V30 2673 H 242.403 -4.11557 -2.8182 0
M  V30 2674 H 241.557 -3.36216 -5.05018 0
M  V30 2675 H 240.296 -2.37389 -4.26026 0
M  V30 2676 H 239.301 -4.44115 -3.24102 0
M  V30 2677 H 240.526 -5.44123 -4.06333 0
M  V30 2678 H 238.472 -3.66807 -5.43865 0
M  V30 2679 H 238.389 -5.39346 -5.29756 0
M  V30 2680 H 239.657 -4.66993 -6.2413 0
M  V30 2681 N 243.887 0.651787 -1.4349 0
M  V30 2682 C 245.164 1.40909 -1.35661 0
M  V30 2683 C 245.544 2.11099 -0.00511733 0
M  V30 2684 O 244.892 2.04892 1.0115 0
M  V30 2685 C 245.102 2.3926 -2.54078 0
M  V30 2686 C 246.45 3.03217 -2.97228 0
M  V30 2687 O 247.474 2.49588 -2.54135 0
M  V30 2688 O 246.333 4.00455 -3.71885 0
M  V30 2689 H 243.427 0.629625 -0.536191 0
M  V30 2690 H 245.973 0.678575 -1.55542 0
M  V30 2691 H 244.745 1.86352 -3.44076 0
M  V30 2692 H 244.368 3.1976 -2.36303 0
M  V30 2693 N 245.365 1.30045 0.890287 0
M  V30 2694 C 246.275 1.17885 2.02831 0
M  V30 2695 C 247.291 0.0999609 1.73713 0
M  V30 2696 O 248.467 0.313867 1.98939 0
M  V30 2697 C 245.532 0.866079 3.35708 0
M  V30 2698 C 244.593 2.02979 3.78283 0
M  V30 2699 C 243.826 1.73184 5.0482 0
M  V30 2700 O 244.049 0.657237 5.66601 0
M  V30 2701 O 242.983 2.58267 5.43674 0
M  V30 2702 H 246.809 2.13474 2.16015 0
M  V30 2703 H 244.394 1.09587 1.01543 0
M  V30 2704 H 246.276 0.706623 4.15433 0
M  V30 2705 H 244.951 -0.0599443 3.23644 0
M  V30 2706 H 243.858 2.24454 2.99285 0
M  V30 2707 H 245.191 2.93734 3.94944 0
M  V30 2708 N 246.843 -1.10192 1.12674 0
M  V30 2709 C 247.79 -2.16606 0.796906 0
M  V30 2710 C 248.76 -1.64394 -0.237476 0
M  V30 2711 O 249.945 -1.90474 -0.111484 0
M  V30 2712 C 247.085 -3.44116 0.26043 0
M  V30 2713 C 246.198 -4.10268 1.35293 0
M  V30 2714 C 245.333 -5.25507 0.775621 0
M  V30 2715 C 244.372 -5.83567 1.84706 0
M  V30 2716 N 243.509 -6.90179 1.28829 0
M  V30 2717 H 248.349 -2.44163 1.70846 0
M  V30 2718 H 245.886 -1.19846 0.85295 0
M  V30 2719 H 247.844 -4.17143 -0.0686814 0
M  V30 2720 H 246.474 -3.16901 -0.614274 0
M  V30 2721 H 245.526 -3.35184 1.79877 0
M  V30 2722 H 246.838 -4.4946 2.16303 0
M  V30 2723 H 245.992 -6.05398 0.397327 0
M  V30 2724 H 244.731 -4.87656 -0.0656581 0
M  V30 2725 H 243.736 -5.02344 2.23452 0
M  V30 2726 H 244.961 -6.23482 2.69161 0
M  V30 2727 H 242.907 -6.54322 0.468881 0
M  V30 2728 H 242.824 -7.28097 2.03497 0
M  V30 2729 H 244.092 -7.73844 0.937311 0
M  V30 2730 N 248.321 -0.919034 -1.28029 0
M  V30 2731 C 249.269 -0.401753 -2.29104 0
M  V30 2732 C 250.263 0.509354 -1.61561 0
M  V30 2733 O 251.469 0.390014 -1.75724 0
M  V30 2734 H 247.844 -0.111331 -0.743713 0
M  V30 2735 H 249.815 -1.2672 -2.70156 0
M  V30 2736 C 248.564 0.338148 -3.46052 0
M  V30 2737 H 247.887 -0.353732 -3.98232 0
M  V30 2738 H 249.327 0.664653 -4.18758 0
M  V30 2739 C 247.786 1.54798 -2.99231 0
M  V30 2740 O 248.316 2.64696 -3.02157 0
M  V30 2741 N 246.522 1.3968 -2.54829 0
M  V30 2742 H 246.069 0.502698 -2.52647 0
M  V30 2743 H 246.027 2.20755 -2.23863 0
M  V30 2744 N 249.799 1.42003 -0.683588 0
M  V30 2745 C 250.747 2.326 0.000815408 0
M  V30 2746 C 251.741 1.50308 0.781278 0
M  V30 2747 O 252.947 1.66322 0.688251 0
M  V30 2748 H 249.322 0.751758 0.0190616 0
M  V30 2749 H 251.293 2.88011 -0.780528 0
M  V30 2750 C 250.042 3.34978 0.93195 0
M  V30 2751 H 249.365 3.98345 0.340817 0
M  V30 2752 H 250.805 4.00936 1.37936 0
M  V30 2753 C 249.264 2.67925 2.04249 0
M  V30 2754 O 249.794 2.51788 3.12995 0
M  V30 2755 N 248 2.2681 1.81675 0
M  V30 2756 H 247.547 2.40135 0.932363 0
M  V30 2757 H 247.505 1.8228 2.56167 0
M  V30 2758 N 251.277 0.427512 1.51691 0
M  V30 2759 C 252.505 -0.141191 2.06418 0
M  V30 2760 C 252.92 -1.37303 1.29589 0
M  V30 2761 O 252.277 -1.79059 0.352732 0
M  V30 2762 C 252.328 -0.473266 3.58389 0
M  V30 2763 O 252.049 0.709673 4.32314 0
M  V30 2764 C 253.55 -1.09371 4.29596 0
M  V30 2765 H 250.77 -0.0122747 0.670888 0
M  V30 2766 H 253.314 0.603764 1.95384 0
M  V30 2767 H 251.469 -1.16812 3.69369 0
M  V30 2768 H 251.883 0.42807 5.2275 0
M  V30 2769 H 253.357 -1.27613 5.37046 0
M  V30 2770 H 253.834 -2.072 3.87253 0
M  V30 2771 H 254.44 -0.43853 4.23033 0
M  V30 2772 N 252.755 -1.56801 0.158532 0
M  V30 2773 C 253.702 -2.17337 -0.776729 0
M  V30 2774 C 254.672 -1.1096 -1.23601 0
M  V30 2775 O 255.857 -1.39054 -1.30647 0
M  V30 2776 C 252.997 -2.80822 -2.00582 0
M  V30 2777 C 252.11 -4.01624 -1.59129 0
M  V30 2778 C 251.245 -4.53072 -2.77306 0
M  V30 2779 C 250.284 -5.66314 -2.32282 0
M  V30 2780 N 249.421 -6.12329 -3.43508 0
M  V30 2781 H 254.261 -2.96918 -0.253701 0
M  V30 2782 H 251.798 -1.46661 -0.113504 0
M  V30 2783 H 253.756 -3.15779 -2.72652 0
M  V30 2784 H 252.386 -2.03866 -2.50277 0
M  V30 2785 H 251.438 -3.72571 -0.767806 0
M  V30 2786 H 252.75 -4.83633 -1.2207 0
M  V30 2787 H 251.904 -4.90145 -3.57551 0
M  V30 2788 H 250.643 -3.70095 -3.17617 0
M  V30 2789 H 249.648 -5.28806 -1.5048 0
M  V30 2790 H 250.873 -6.51085 -1.93043 0
M  V30 2791 H 248.819 -5.32284 -3.83418 0
M  V30 2792 H 248.736 -6.89293 -3.105 0
M  V30 2793 H 250.004 -6.5405 -4.24075 0
M  V30 2794 N 254.233 0.115231 -1.57178 0
M  V30 2795 C 255.473 0.828199 -1.8687 0
M  V30 2796 C 255.837 1.76873 -0.747002 0
M  V30 2797 O 257.038 2.52354 -0.925785 0
M  V30 2798 C 255.309 1.55515 -3.21792 0
M  V30 2799 S 256.868 2.30917 -3.73125 0
M  V30 2800 H 253.686 0.27634 -0.655101 0
M  V30 2801 H 256.288 0.0863469 -1.95309 0
M  V30 2802 H 254.992 0.856248 -4.01368 0
M  V30 2803 H 254.523 2.3373 -3.16439 0
M  V30 2804 H 256.538 3.56705 -3.44929 0
M  V30 2805 N 255.711 1.52812 0.385517 0
M  V30 2806 C 256.958 1.68026 1.1302 0
M  V30 2807 C 257.286 0.421934 1.89868 0
M  V30 2808 O 256.541 -0.595749 1.86412 0
M  V30 2809 C 256.84 2.86856 2.13187 0
M  V30 2810 C 256.506 4.24159 1.5297 0
M  V30 2811 C 255.168 4.61501 1.36274 0
M  V30 2812 C 257.52 5.09627 1.09223 0
M  V30 2813 C 254.848 5.81966 0.743837 0
M  V30 2814 C 257.2 6.30719 0.487411 0
M  V30 2815 C 255.864 6.6679 0.307777 0
M  V30 2816 H 255.134 0.614849 0.413571 0
M  V30 2817 H 257.781 1.86962 0.414405 0
M  V30 2818 H 256.086 2.6235 2.90998 0
M  V30 2819 H 257.783 2.95821 2.70722 0
M  V30 2820 H 254.373 3.94746 1.66954 0
M  V30 2821 H 258.557 4.81343 1.20922 0
M  V30 2822 H 253.813 6.08519 0.592891 0
M  V30 2823 H 257.987 6.96259 0.140143 0
M  V30 2824 H 255.614 7.60001 -0.173879 0
M  V30 2825 N 257.189 -0.644168 1.43834 0
M  V30 2826 C 258.099 -1.78563 1.52159 0
M  V30 2827 C 259.115 -1.69147 0.408069 0
M  V30 2828 O 260.291 -1.90156 0.663524 0
M  V30 2829 C 257.356 -3.14888 1.45073 0
M  V30 2830 C 256.417 -3.36034 2.6717 0
M  V30 2831 C 255.65 -4.65855 2.60413 0
M  V30 2832 O 255.873 -5.45805 1.65689 0
M  V30 2833 O 254.807 -4.88918 3.5106 0
M  V30 2834 H 258.633 -1.74494 2.48567 0
M  V30 2835 H 256.218 -0.80378 1.25935 0
M  V30 2836 H 258.1 -3.96179 1.43597 0
M  V30 2837 H 256.775 -3.19528 0.518037 0
M  V30 2838 H 255.682 -2.54472 2.74217 0
M  V30 2839 H 257.015 -3.36247 3.59442 0
M  V30 2840 N 258.668 -1.30515 -0.883378 0
M  V30 2841 C 260.079 -1.17509 -1.45081 0
M  V30 2842 C 260.43 0.223605 -1.94922 0
M  V30 2843 O 259.555 1.12041 -1.85137 0
M  V30 2844 C 260.15 -2.12715 -2.63701 0
M  V30 2845 C 258.709 -2.03682 -3.16529 0
M  V30 2846 C 257.856 -2.02706 -1.89224 0
M  V30 2847 H 260.807 -1.42762 -0.693165 0
M  V30 2848 H 260.828 -1.70891 -3.39965 0
M  V30 2849 H 260.34 -3.14505 -2.27395 0
M  V30 2850 H 258.441 -1.05039 -3.57488 0
M  V30 2851 H 258.554 -2.92146 -3.7972 0
M  V30 2852 H 256.918 -1.4753 -2.07622 0
M  V30 2853 H 257.701 -3.06229 -1.55174 0
M  V30 2854 N 260.146 1.09593 -1.13257 0
M  V30 2855 C 261.557 1.63229 -0.906274 0
M  V30 2856 C 261.908 1.8811 0.557578 0
M  V30 2857 O 261.033 1.62953 1.42391 0
M  V30 2858 C 261.628 2.96535 -1.63867 0
M  V30 2859 C 260.187 3.47003 -1.45828 0
M  V30 2860 C 259.334 2.2145 -1.66898 0
M  V30 2861 H 262.285 0.92978 -1.28611 0
M  V30 2862 H 262.306 3.64411 -1.09476 0
M  V30 2863 H 261.818 2.78394 -2.70404 0
M  V30 2864 H 259.919 3.70272 -0.415848 0
M  V30 2865 H 260.032 4.24551 -2.2202 0
M  V30 2866 H 258.396 2.30022 -1.09371 0
M  V30 2867 H 259.179 2.0583 -2.74752 0
M  V30 2868 N 261.624 0.925811 1.2754 0
M  V30 2869 C 262.556 0.380753 2.26015 0
M  V30 2870 C 263.569 -0.487485 1.5533 0
M  V30 2871 O 264.758 -0.300413 1.75954 0
M  V30 2872 C 261.858 -0.473259 3.35579 0
M  V30 2873 C 261.031 0.375249 4.35787 0
M  V30 2874 C 260.09 -0.415809 5.24555 0
M  V30 2875 O 259.116 0.175834 5.68928 0
M  V30 2876 N 260.318 -1.71607 5.54555 0
M  V30 2877 H 263.083 1.22725 2.73421 0
M  V30 2878 H 260.644 0.793037 1.41147 0
M  V30 2879 H 262.636 -1.00949 3.91907 0
M  V30 2880 H 261.206 -1.2205 2.87789 0
M  V30 2881 H 260.426 1.09279 3.7875 0
M  V30 2882 H 261.714 0.955399 4.99749 0
M  V30 2883 H 261.112 -2.2191 5.20358 0
M  V30 2884 H 259.669 -2.19887 6.1359 0
M  V30 2885 N 263.102 -1.41638 0.69111 0
M  V30 2886 C 264.379 -1.95036 0.148421 0
M  V30 2887 C 264.759 -1.63072 -1.34055 0
M  V30 2888 O 264.107 -0.93538 -2.08478 0
M  V30 2889 C 264.317 -3.46279 0.434951 0
M  V30 2890 C 265.665 -4.23069 0.360275 0
M  V30 2891 O 266.689 -3.54277 0.369613 0
M  V30 2892 O 265.548 -5.45583 0.316534 0
M  V30 2893 H 262.642 -0.826908 0.0123654 0
M  V30 2894 H 265.188 -1.5138 0.766963 0
M  V30 2895 H 263.96 -3.6281 1.46576 0
M  V30 2896 H 263.583 -3.97019 -0.214787 0
M  V30 2897 N 264.58 -0.43555 -1.51462 0
M  V30 2898 C 265.528 0.391205 -2.29287 0
M  V30 2899 C 266.522 1.02247 -1.35062 0
M  V30 2900 O 267.728 0.957646 -1.52411 0
M  V30 2901 H 264.103 0.144968 -0.737895 0
M  V30 2902 H 266.074 -0.286051 -2.97026 0
M  V30 2903 C 264.823 1.48096 -3.14583 0
M  V30 2904 H 264.146 1.00457 -3.86973 0
M  V30 2905 H 265.586 2.03273 -3.72097 0
M  V30 2906 C 264.045 2.46321 -2.29843 0
M  V30 2907 O 264.575 3.50815 -1.95682 0
M  V30 2908 N 262.781 2.17166 -1.931 0
M  V30 2909 H 262.328 1.32218 -2.21079 0
M  V30 2910 H 262.286 2.83127 -1.36698 0
M  V30 2911 N 266.058 1.56714 -0.166846 0
M  V30 2912 C 266.99 2.14914 0.796537 0
M  V30 2913 C 268.003 1.10357 1.19688 0
M  V30 2914 O 269.192 1.37561 1.13751 0
M  V30 2915 C 266.292 2.67326 2.08303 0
M  V30 2916 C 265.465 3.96493 1.84696 0
M  V30 2917 C 264.524 4.34014 2.97521 0
M  V30 2918 O 263.55 5.01973 2.6835 0
M  V30 2919 N 264.752 3.95208 4.25196 0
M  V30 2920 H 267.517 2.98205 0.299006 0
M  V30 2921 H 265.078 1.61892 0.0160839 0
M  V30 2922 H 267.07 2.89428 2.82867 0
M  V30 2923 H 265.64 1.88649 2.4926 0
M  V30 2924 H 264.86 3.82814 0.940602 0
M  V30 2925 H 266.148 4.8086 1.66285 0
M  V30 2926 H 265.546 3.40487 4.51758 0
M  V30 2927 H 264.103 4.2232 4.96477 0
M  V30 2928 N 267.536 -0.106894 1.57237 0
M  V30 2929 C 268.764 -0.826389 1.8968 0
M  V30 2930 C 269.179 -1.72856 0.759353 0
M  V30 2931 O 268.536 -1.80503 -0.269263 0
M  V30 2932 C 268.587 -1.64967 3.21665 0
M  V30 2933 O 268.308 -0.783804 4.31031 0
M  V30 2934 C 269.809 -2.47326 3.67892 0
M  V30 2935 H 267.029 -0.236927 0.627779 0
M  V30 2936 H 269.573 -0.0876593 2.04312 0
M  V30 2937 H 267.728 -2.34103 3.08666 0
M  V30 2938 H 268.142 -1.35284 5.06753 0
M  V30 2939 H 269.616 -3.00604 4.6297 0
M  V30 2940 H 270.093 -3.25247 2.95146 0
M  V30 2941 H 270.699 -1.83411 3.83719 0
M  V30 2942 N 269.014 -1.53014 -0.377408 0
M  V30 2943 C 269.961 -1.78616 -1.46168 0
M  V30 2944 C 270.931 -0.629917 -1.53692 0
M  V30 2945 O 272.116 -0.870861 -1.69766 0
M  V30 2946 C 269.256 -1.97123 -2.8326 0
M  V30 2947 C 268.369 -3.24831 -2.84796 0
M  V30 2948 C 267.504 -3.33591 -4.13389 0
M  V30 2949 C 266.543 -4.55377 -4.09021 0
M  V30 2950 N 265.68 -4.61355 -5.29241 0
M  V30 2951 H 270.52 -2.71142 -1.23637 0
M  V30 2952 H 268.057 -1.34326 -0.599577 0
M  V30 2953 H 270.015 -2.05839 -3.62886 0
M  V30 2954 H 268.645 -1.07946 -3.04216 0
M  V30 2955 H 267.697 -3.25128 -1.97474 0
M  V30 2956 H 269.009 -4.14523 -2.77439 0
M  V30 2957 H 268.163 -3.41554 -5.01424 0
M  V30 2958 H 266.902 -2.41894 -4.23484 0
M  V30 2959 H 265.907 -4.47527 -3.19373 0
M  V30 2960 H 267.132 -5.48402 -4.00539 0
M  V30 2961 H 265.078 -3.72554 -5.39944 0
M  V30 2962 H 264.995 -5.44935 -5.24006 0
M  V30 2963 H 266.263 -4.73586 -6.19141 0
M  V30 2964 N 270.492 0.636531 -1.44174 0
M  V30 2965 C 271.44 1.76995 -1.50915 0
M  V30 2966 C 272.434 1.65053 -0.381295 0
M  V30 2967 O 273.64 1.71197 -0.55601 0
M  V30 2968 H 270.015 0.584247 -0.473455 0
M  V30 2969 H 271.986 1.68432 -2.4632 0
M  V30 2970 C 270.735 3.15314 -1.46534 0
M  V30 2971 H 270.058 3.25149 -2.32633 0
M  V30 2972 H 271.498 3.9453 -1.55312 0
M  V30 2973 C 269.957 3.3639 -0.185305 0
M  V30 2974 O 270.487 3.94699 0.746688 0
M  V30 2975 N 268.693 2.9046 -0.0901606 0
M  V30 2976 H 268.24 2.43193 -0.849416 0
M  V30 2977 H 268.198 3.04937 0.765553 0
M  V30 2978 N 271.97 1.30982 0.876444 0
M  V30 2979 C 272.92 1.14688 1.97055 0
M  V30 2980 C 273.904 0.0596593 1.60789 0
M  V30 2981 O 275.096 0.283892 1.74708 0
M  V30 2982 C 272.225 0.849627 3.3262 0
M  V30 2983 C 271.311 1.97752 3.75173 0
M  V30 2984 N 271.702 3.22384 3.89746 0
M  V30 2985 C 270 1.8758 4.04635 0
M  V30 2986 C 270.701 3.96121 4.25985 0
M  V30 2987 N 269.677 3.24237 4.36315 0
M  V30 2988 H 273.479 2.09204 2.06424 0
M  V30 2989 H 270.993 1.22445 1.06682 0
M  V30 2990 H 272.99 0.713895 4.10742 0
M  V30 2991 H 271.65 -0.087376 3.24582 0
M  V30 2992 H 272.661 3.57575 3.74647 0
M  V30 2993 H 269.338 1.01303 4.05024 0
M  V30 2994 H 270.728 5.03491 4.44911 0
M  V30 2995 N 273.449 -1.08991 1.13837 0
M  V30 2996 C 274.695 -1.81526 0.90422 0
M  V30 2997 C 275.028 -1.85706 -0.568066 0
M  V30 2998 O 274.303 -1.32855 -1.42056 0
M  V30 2999 C 274.586 -3.27447 1.49835 0
M  V30 3000 C 274.439 -3.31512 3.04006 0
M  V30 3001 C 275.758 -4.24256 1.17025 0
M  V30 3002 H 272.877 -0.659029 0.329923 0
M  V30 3003 H 275.519 -1.27644 1.40737 0
M  V30 3004 H 273.669 -3.73462 1.07044 0
M  V30 3005 H 275.341 -2.93867 3.55584 0
M  V30 3006 H 273.584 -2.70963 3.38765 0
M  V30 3007 H 274.255 -4.34329 3.40679 0
M  V30 3008 H 276.731 -3.86549 1.54009 0
M  V30 3009 H 275.607 -5.24684 1.61237 0
M  V30 3010 H 275.868 -4.42019 0.0846274 0
M  V30 3011 N 274.927 -0.932562 -1.27047 0
M  V30 3012 C 275.857 -0.452902 -2.29066 0
M  V30 3013 C 276.838 0.489338 -1.62909 0
M  V30 3014 O 278.023 0.393046 -1.90181 0
M  V30 3015 C 275.153 0.290698 -3.46081 0
M  V30 3016 C 274.107 -0.564168 -4.24265 0
M  V30 3017 C 273.433 0.308886 -5.33807 0
M  V30 3018 C 274.733 -1.83112 -4.89149 0
M  V30 3019 H 276.427 -1.30552 -2.69437 0
M  V30 3020 H 273.973 -0.629201 -1.29526 0
M  V30 3021 H 275.926 0.637233 -4.16554 0
M  V30 3022 H 274.65 1.17738 -3.0464 0
M  V30 3023 H 273.309 -0.893477 -3.55545 0
M  V30 3024 H 272.957 1.19467 -4.88607 0
M  V30 3025 H 272.657 -0.259633 -5.87026 0
M  V30 3026 H 274.181 0.650884 -6.07121 0
M  V30 3027 H 275.595 -1.55236 -5.51883 0
M  V30 3028 H 273.992 -2.34353 -5.52448 0
M  V30 3029 H 275.062 -2.54772 -4.12576 0
M  V30 3030 N 276.405 1.4127 -0.698611 0
M  V30 3031 C 277.651 2.01478 -0.231207 0
M  V30 3032 C 277.984 1.55215 1.16713 0
M  V30 3033 O 277.259 0.764672 1.78838 0
M  V30 3034 C 277.542 3.58912 -0.292281 0
M  V30 3035 C 277.395 4.15293 -1.72778 0
M  V30 3036 C 278.714 4.38736 0.346194 0
M  V30 3037 H 275.833 0.732025 -0.0854878 0
M  V30 3038 H 278.475 1.67977 -0.887906 0
M  V30 3039 H 276.625 3.87582 0.26686 0
M  V30 3040 H 278.297 3.97486 -2.341 0
M  V30 3041 H 276.54 3.7022 -2.26096 0
M  V30 3042 H 277.211 5.24452 -1.72202 0
M  V30 3043 H 279.687 4.15897 -0.130035 0
M  V30 3044 H 278.563 5.48221 0.272932 0
M  V30 3045 H 278.824 4.18425 1.42734 0
M  V30 3046 N 277.883 0.443576 1.51229 0
M  V30 3047 C 278.813 -0.355142 2.30783 0
M  V30 3048 C 279.794 -1.0154 1.36468 0
M  V30 3049 O 280.979 -1.01785 1.65389 0
M  V30 3050 C 278.109 -1.45312 3.15439 0
M  V30 3051 C 277.063 -0.916002 4.18083 0
M  V30 3052 C 276.389 -2.1102 4.91299 0
M  V30 3053 C 277.689 0.0538602 5.22272 0
M  V30 3054 H 279.383 0.308767 2.97804 0
M  V30 3055 H 276.929 0.149937 1.43217 0
M  V30 3056 H 278.882 -2.01914 3.69876 0
M  V30 3057 H 277.606 -2.14541 2.46252 0
M  V30 3058 H 276.265 -0.372145 3.64706 0
M  V30 3059 H 275.913 -2.78882 4.18609 0
M  V30 3060 H 275.613 -1.75717 5.60712 0
M  V30 3061 H 277.137 -2.68164 5.48562 0
M  V30 3062 H 278.551 -0.422069 5.71744 0
M  V30 3063 H 276.948 0.319776 5.99247 0
M  V30 3064 H 278.018 0.98858 4.74716 0
M  V30 3065 N 279.361 -1.56624 0.175154 0
M  V30 3066 C 280.311 -2.14747 -0.766004 0
M  V30 3067 C 281.295 -1.08275 -1.19018 0
M  V30 3068 O 282.487 -1.34388 -1.15191 0
M  V30 3069 C 279.616 -2.79478 -1.99366 0
M  V30 3070 C 278.702 -3.93114 -1.5913 0
M  V30 3071 N 279.093 -4.97752 -0.89872 0
M  V30 3072 C 277.391 -4.04345 -1.88204 0
M  V30 3073 C 278.092 -5.77473 -0.700012 0
M  V30 3074 N 277.068 -5.29207 -1.24263 0
M  V30 3075 H 280.87 -2.93015 -0.22793 0
M  V30 3076 H 278.384 -1.6238 -0.0253843 0
M  V30 3077 H 280.381 -3.19498 -2.67818 0
M  V30 3078 H 279.041 -2.02692 -2.53665 0
M  V30 3079 H 280.052 -5.14903 -0.556347 0
M  V30 3080 H 276.729 -3.38667 -2.44153 0
M  V30 3081 H 278.119 -6.71728 -0.152047 0
M  V30 3082 N 280.839 0.0985539 -1.57292 0
M  V30 3083 C 282.069 0.815135 -1.8984 0
M  V30 3084 C 282.477 1.7297 -0.766679 0
M  V30 3085 O 281.82 1.81698 0.270483 0
M  V30 3086 C 281.882 1.6842 -3.17608 0
M  V30 3087 C 281.546 0.94182 -4.4719 0
M  V30 3088 C 282.543 0.273212 -5.19182 0
M  V30 3089 C 280.228 0.916927 -4.9386 0
M  V30 3090 C 282.222 -0.410361 -6.36078 0
M  V30 3091 C 279.909 0.229567 -6.10669 0
M  V30 3092 C 280.907 -0.432902 -6.81627 0
M  V30 3093 O 280.595 -1.10925 -7.9621 0
M  V30 3094 H 280.327 0.238501 -0.632529 0
M  V30 3095 H 282.881 0.0812659 -2.05239 0
M  V30 3096 H 281.111 2.46022 -2.98345 0
M  V30 3097 H 282.8 2.27704 -3.36015 0
M  V30 3098 H 283.566 0.283927 -4.84168 0
M  V30 3099 H 279.445 1.42201 -4.3852 0
M  V30 3100 H 282.989 -0.928013 -6.914 0
M  V30 3101 H 278.886 0.216686 -6.45136 0
M  V30 3102 H 279.654 -1.01579 -8.12172 0
M  V30 3103 N 282.317 1.53212 0.369288 0
M  V30 3104 C 283.563 1.69466 1.11397 0
M  V30 3105 C 283.896 0.443257 1.89074 0
M  V30 3106 O 283.171 -0.559386 1.86282 0
M  V30 3107 C 283.454 2.9422 2.07621 0
M  V30 3108 C 283.307 4.29508 1.33577 0
M  V30 3109 C 284.626 3.14565 3.07794 0
M  V30 3110 H 281.745 0.616667 0.403597 0
M  V30 3111 H 284.387 1.85845 0.395179 0
M  V30 3112 H 282.537 2.80387 2.68916 0
M  V30 3113 H 284.209 4.55147 0.750955 0
M  V30 3114 H 282.452 4.29088 0.637618 0
M  V30 3115 H 283.123 5.12926 2.03989 0
M  V30 3116 H 285.599 3.2756 2.56601 0
M  V30 3117 H 284.475 4.03297 3.72348 0
M  V30 3118 H 284.736 2.29675 3.77759 0
M  V30 3119 N 283.795 -0.628877 1.44509 0
M  V30 3120 C 285.02 -1.42048 1.5112 0
M  V30 3121 C 285.445 -1.87594 0.137818 0
M  V30 3122 O 284.803 -1.58873 -0.873437 0
M  V30 3123 C 284.851 -2.61541 2.48251 0
M  V30 3124 O 283.955 -3.61453 1.98559 0
M  V30 3125 H 283.296 -0.424942 0.510216 0
M  V30 3126 H 285.826 -0.767374 1.89664 0
M  V30 3127 H 285.836 -3.09057 2.66361 0
M  V30 3128 H 284.511 -2.27736 3.48007 0
M  V30 3129 H 283.088 -3.20731 1.90227 0
M  V30 3130 N 285.273 -1.31445 -0.869486 0
M  V30 3131 C 286.203 -1.21727 -1.99261 0
M  V30 3132 C 287.184 -0.104359 -1.6978 0
M  V30 3133 O 288.369 -0.289038 -1.92037 0
M  V30 3134 C 285.499 -0.924317 -3.34774 0
M  V30 3135 C 284.453 -1.99685 -3.78563 0
M  V30 3136 C 283.779 -1.55658 -5.11541 0
M  V30 3137 C 285.079 -3.41003 -3.95619 0
M  V30 3138 H 286.773 -2.1569 -2.07649 0
M  V30 3139 H 284.319 -1.03839 -0.997675 0
M  V30 3140 H 286.272 -0.842934 -4.12883 0
M  V30 3141 H 284.996 0.0509793 -3.2656 0
M  V30 3142 H 283.655 -2.06813 -3.02694 0
M  V30 3143 H 283.303 -0.569132 -4.9977 0
M  V30 3144 H 283.003 -2.27409 -5.41811 0
M  V30 3145 H 284.527 -1.48928 -5.92159 0
M  V30 3146 H 285.941 -3.36547 -4.64122 0
M  V30 3147 H 284.338 -4.10975 -4.37286 0
M  V30 3148 H 285.408 -3.81754 -2.98985 0
M  V30 3149 N 286.751 1.08385 -1.14413 0
M  V30 3150 C 287.998 1.80776 -0.912482 0
M  V30 3151 C 288.326 1.86236 0.560934 0
M  V30 3152 O 287.581 1.33431 1.43159 0
M  V30 3153 C 287.88 3.26273 -1.45879 0
M  V30 3154 C 287.546 3.4093 -2.95089 0
M  V30 3155 C 286.208 3.44638 -3.35824 0
M  V30 3156 C 288.56 3.44591 -3.91033 0
M  V30 3157 C 285.888 3.49597 -4.71167 0
M  V30 3158 C 288.24 3.51086 -5.26233 0
M  V30 3159 C 286.904 3.53067 -5.6648 0
M  V30 3160 H 286.174 0.661507 -0.333901 0
M  V30 3161 H 288.821 1.27613 -1.42784 0
M  V30 3162 H 287.126 3.82146 -0.864376 0
M  V30 3163 H 288.823 3.80839 -1.2555 0
M  V30 3164 H 285.413 3.38736 -2.62594 0
M  V30 3165 H 289.597 3.40957 -3.60641 0
M  V30 3166 H 284.853 3.49424 -5.0171 0
M  V30 3167 H 289.027 3.52864 -6.00383 0
M  V30 3168 H 286.654 3.56662 -6.71339 0
M  V30 3169 N 288.23 0.939286 1.26551 0
M  V30 3170 C 289.476 0.586715 1.94128 0
M  V30 3171 C 289.809 -0.8717 1.73537 0
M  V30 3172 O 289.084 -1.62339 1.07127 0
M  V30 3173 C 289.367 0.927497 3.4795 0
M  V30 3174 C 289.22 2.44052 3.77834 0
M  V30 3175 C 290.539 0.441569 4.37879 0
M  V30 3176 H 287.658 0.21463 0.705055 0
M  V30 3177 H 290.3 1.17316 1.49455 0
M  V30 3178 H 288.45 0.428431 3.8613 0
M  V30 3179 H 290.122 3.01216 3.4938 0
M  V30 3180 H 288.365 2.8848 3.23978 0
M  V30 3181 H 289.036 2.62947 4.85348 0
M  V30 3182 H 291.512 0.869448 4.06915 0
M  V30 3183 H 290.388 0.708856 5.44304 0
M  V30 3184 H 290.649 -0.658467 4.37169 0
M  V30 3185 N 289.708 -1.40897 0.706093 0
M  V30 3186 C 290.956 -2.00657 0.241054 0
M  V30 3187 C 291.277 -1.56241 -1.16678 0
M  V30 3188 O 290.547 -0.79765 -1.78926 0
M  V30 3189 H 289.127 -0.742018 0.0861308 0
M  V30 3190 H 291.789 -1.72372 0.909604 0
M  V30 3191 H 290.885 -3.10958 0.266705 0
M  V30 3192 N 291.186 -0.45159 -1.50991 0
M  V30 3193 C 292.433 0.110074 -2.02201 0
M  V30 3194 C 292.761 1.4146 -1.33489 0
M  V30 3195 O 292.016 1.90617 -0.443125 0
M  V30 3196 C 292.315 0.361728 -3.55565 0
M  V30 3197 C 291.981 -0.858717 -4.42648 0
M  V30 3198 C 290.643 -1.19338 -4.66167 0
M  V30 3199 C 292.995 -1.67221 -4.93646 0
M  V30 3200 C 290.323 -2.34195 -5.37931 0
M  V30 3201 C 292.675 -2.8119 -5.6667 0
M  V30 3202 C 291.339 -3.15094 -5.88449 0
M  V30 3203 H 290.609 0.040279 -0.739904 0
M  V30 3204 H 293.256 -0.601696 -1.81802 0
M  V30 3205 H 291.561 1.15554 -3.74372 0
M  V30 3206 H 293.258 0.80996 -3.92735 0
M  V30 3207 H 289.848 -0.58796 -4.24548 0
M  V30 3208 H 294.032 -1.42686 -4.75347 0
M  V30 3209 H 289.288 -2.6076 -5.53005 0
M  V30 3210 H 293.462 -3.44585 -6.05173 0
M  V30 3211 H 291.089 -4.04204 -6.43835 0
M  V30 3212 N 292.664 1.56529 -0.183458 0
M  V30 3213 C 293.913 1.96419 0.458511 0
M  V30 3214 C 294.226 1.0727 1.63562 0
M  V30 3215 O 295.432 1.36893 2.34462 0
M  V30 3216 C 293.888 3.49298 0.867122 0
M  V30 3217 C 293.496 4.47092 -0.285057 0
M  V30 3218 C 295.24 3.97983 1.47683 0
M  V30 3219 C 293.147 5.91225 0.143862 0
M  V30 3220 H 292.077 0.733394 0.175071 0
M  V30 3221 H 294.728 1.81448 -0.273624 0
M  V30 3222 H 293.11 3.59731 1.65559 0
M  V30 3223 H 294.284 4.48383 -1.0625 0
M  V30 3224 H 292.599 4.08535 -0.805503 0
M  V30 3225 H 295.196 5.03134 1.80999 0
M  V30 3226 H 295.539 3.41618 2.37914 0
M  V30 3227 H 296.072 3.90617 0.752562 0
M  V30 3228 H 292.811 6.5149 -0.723974 0
M  V30 3229 H 292.331 5.93214 0.886413 0
M  V30 3230 H 294.01 6.44362 0.583628 0
M  V30 3231 N 294.142 -0.090211 1.57342 0
M  V30 3232 C 295.391 -0.791531 1.8552 0
M  V30 3233 C 295.704 -1.79659 0.773441 0
M  V30 3234 O 296.91 -2.54616 0.942497 0
M  V30 3235 C 295.366 -1.45856 3.2902 0
M  V30 3236 C 294.974 -0.493017 4.45279 0
M  V30 3237 C 296.718 -2.14332 3.66418 0
M  V30 3238 C 294.625 -1.16491 5.79814 0
M  V30 3239 H 293.555 -0.299356 0.692027 0
M  V30 3240 H 296.206 -0.0445343 1.83446 0
M  V30 3241 H 294.588 -2.25318 3.2565 0
M  V30 3242 H 295.762 0.270464 4.60006 0
M  V30 3243 H 294.077 0.0863061 4.16311 0
M  V30 3244 H 296.674 -2.65344 4.64216 0
M  V30 3245 H 297.017 -2.93447 2.95287 0
M  V30 3246 H 297.55 -1.41724 3.71698 0
M  V30 3247 H 294.289 -0.41447 6.54188 0
M  V30 3248 H 293.809 -1.8997 5.68921 0
M  V30 3249 H 295.488 -1.69001 6.24538 0
M  V30 3250 N 295.62 -1.53406 -0.361157 0
M  V30 3251 C 297.031 -1.61442 -0.937728 0
M  V30 3252 C 297.382 -0.48461 -1.90121 0
M  V30 3253 O 296.507 0.388312 -2.12888 0
M  V30 3254 C 297.102 -2.92624 -1.70753 0
M  V30 3255 C 295.661 -3.02981 -2.23337 0
M  V30 3256 C 294.808 -2.5677 -1.04712 0
M  V30 3257 H 297.759 -1.58083 -0.139816 0
M  V30 3258 H 297.78 -2.80675 -2.56908 0
M  V30 3259 H 297.292 -3.74834 -1.00604 0
M  V30 3260 H 295.393 -2.25368 -2.96715 0
M  V30 3261 H 295.506 -4.0814 -2.50916 0
M  V30 3262 H 293.87 -2.11752 -1.41539 0
M  V30 3263 H 294.653 -3.41402 -0.360539 0
M  V30 3264 N 297.098 0.621204 -1.44841 0
M  V30 3265 C 298.345 1.38055 -1.48145 0
M  V30 3266 C 298.673 1.94143 -0.117867 0
M  V30 3267 O 297.928 1.74713 0.881694 0
M  V30 3268 C 298.227 2.55675 -2.4973 0
M  V30 3269 C 297.893 2.17817 -3.94799 0
M  V30 3270 C 296.555 2.07205 -4.34303 0
M  V30 3271 C 298.907 1.88065 -4.86087 0
M  V30 3272 C 296.235 1.65045 -5.63007 0
M  V30 3273 C 298.587 1.47394 -6.15189 0
M  V30 3274 C 297.251 1.35331 -6.53637 0
M  V30 3275 H 296.521 0.505181 -0.542101 0
M  V30 3276 H 299.168 0.703477 -1.78111 0
M  V30 3277 H 297.473 3.2866 -2.13284 0
M  V30 3278 H 299.17 3.13904 -2.4953 0
M  V30 3279 H 295.76 2.26998 -3.63552 0
M  V30 3280 H 299.944 1.95168 -4.56315 0
M  V30 3281 H 295.2 1.54317 -5.91605 0
M  V30 3282 H 299.374 1.23415 -6.85377 0
M  V30 3283 H 297.001 1.02435 -7.53267 0
M  V30 3284 N 298.576 1.31904 0.862503 0
M  V30 3285 C 299.822 1.22197 1.61851 0
M  V30 3286 C 300.155 -0.217641 1.92977 0
M  V30 3287 O 299.43 -1.15264 1.56666 0
M  V30 3288 C 299.713 2.07378 2.94391 0
M  V30 3289 C 299.566 3.59678 2.70096 0
M  V30 3290 C 300.885 1.92891 3.95577 0
M  V30 3291 H 298.004 0.445255 0.587296 0
M  V30 3292 H 300.646 1.6177 0.99651 0
M  V30 3293 H 298.796 1.73758 3.47477 0
M  V30 3294 H 300.468 4.03472 2.23625 0
M  V30 3295 H 298.711 3.82735 2.04197 0
M  V30 3296 H 299.382 4.14595 3.64438 0
M  V30 3297 H 301.858 2.22327 3.51724 0
M  V30 3298 H 300.734 2.54781 4.86187 0
M  V30 3299 H 300.995 0.894315 4.3296 0
M  V30 3300 N 300.054 -1.07777 1.14986 0
M  V30 3301 C 301.303 -1.79669 0.916617 0
M  V30 3302 C 301.616 -1.87474 -0.557917 0
M  V30 3303 O 302.822 -2.55845 -0.908617 0
M  V30 3304 C 301.278 -3.22848 1.59051 0
M  V30 3305 C 300.886 -3.23257 3.10176 0
M  V30 3306 C 302.63 -3.99379 1.43864 0
M  V30 3307 C 300.537 -4.61063 3.70372 0
M  V30 3308 H 299.467 -0.673349 0.33929 0
M  V30 3309 H 302.118 -1.21003 1.37951 0
M  V30 3310 H 300.5 -3.8168 1.0553 0
M  V30 3311 H 301.674 -2.74095 3.70417 0
M  V30 3312 H 299.989 -2.60222 3.25074 0
M  V30 3313 H 302.586 -5.0122 1.86232 0
M  V30 3314 H 302.929 -4.14511 0.385564 0
M  V30 3315 H 303.462 -3.47032 1.94457 0
M  V30 3316 H 300.201 -4.51135 4.7556 0
M  V30 3317 H 299.721 -5.1048 3.14913 0
M  V30 3318 H 301.4 -5.30034 3.71043 0
M  V30 3319 N 301.532 -0.945985 -1.26051 0
M  V30 3320 C 302.781 -0.591836 -1.92822 0
M  V30 3321 C 303.094 0.873956 -1.7499 0
M  V30 3322 O 304.3 1.33769 -2.36259 0
M  V30 3323 C 302.756 -1.00776 -3.45503 0
M  V30 3324 C 302.364 -2.4955 -3.7206 0
M  V30 3325 C 304.108 -0.725735 -4.1825 0
M  V30 3326 C 302.015 -2.84988 -5.18205 0
M  V30 3327 H 300.945 -0.217635 -0.721908 0
M  V30 3328 H 303.596 -1.14927 -1.43052 0
M  V30 3329 H 301.978 -0.378812 -3.94184 0
M  V30 3330 H 303.152 -3.1739 -3.34066 0
M  V30 3331 H 301.467 -2.75133 -3.12555 0
M  V30 3332 H 304.064 -0.966771 -5.25887 0
M  V30 3333 H 304.407 0.337639 -4.14929 0
M  V30 3334 H 304.94 -1.31463 -3.7545 0
M  V30 3335 H 301.679 -3.90307 -5.26631 0
M  V30 3336 H 301.199 -2.21813 -5.57278 0
M  V30 3337 H 302.878 -2.73712 -5.86252 0
M  V30 3338 N 303.011 1.40521 -0.713556 0
M  V30 3339 C 304.26 2.00155 -0.249192 0
M  V30 3340 C 304.573 1.57224 1.16362 0
M  V30 3341 O 305.779 2.09542 1.72639 0
M  V30 3342 C 304.235 3.5773 -0.3946 0
M  V30 3343 C 303.843 4.09635 -1.81392 0
M  V30 3344 C 305.587 4.24499 0.00907364 0
M  V30 3345 C 303.494 5.59707 -1.91003 0
M  V30 3346 H 302.424 0.74868 -0.0894114 0
M  V30 3347 H 305.075 1.60784 -0.884352 0
M  V30 3348 H 303.457 3.94792 0.30911 0
M  V30 3349 H 304.631 3.83955 -2.54785 0
M  V30 3350 H 302.946 3.55456 -2.16888 0
M  V30 3351 H 305.543 5.34683 -0.0420404 0
M  V30 3352 H 305.886 4.02824 1.05065 0
M  V30 3353 H 306.419 3.92536 -0.645007 0
M  V30 3354 H 303.158 5.86234 -2.93275 0
M  V30 3355 H 302.678 5.87258 -1.22019 0
M  V30 3356 H 304.357 6.24776 -1.6812 0
M  V30 3357 N 304.489 0.459591 1.5075 0
M  V30 3358 C 305.735 -0.0994966 2.02556 0
M  V30 3359 C 306.068 -1.40399 1.3417 0
M  V30 3360 O 305.343 -1.88892 0.463683 0
M  V30 3361 C 305.626 -0.295242 3.58888 0
M  V30 3362 C 305.479 1.02947 4.37861 0
M  V30 3363 C 306.798 -1.05502 4.27267 0
M  V30 3364 H 303.917 -0.034686 0.736183 0
M  V30 3365 H 306.559 0.602938 1.8018 0
M  V30 3366 H 304.709 -0.893563 3.78084 0
M  V30 3367 H 306.381 1.66348 4.30263 0
M  V30 3368 H 304.624 1.62885 4.02058 0
M  V30 3369 H 305.295 0.846281 5.45474 0
M  V30 3370 H 307.771 -0.547993 4.12476 0
M  V30 3371 H 306.647 -1.16077 5.36486 0
M  V30 3372 H 306.908 -2.08875 3.89645 0
M  V30 3373 N 305.967 -1.56429 0.191757 0
M  V30 3374 C 307.207 -1.99383 -0.450099 0
M  V30 3375 C 307.571 -1.07581 -1.59029 0
M  V30 3376 O 308.772 -1.39758 -2.29611 0
M  V30 3377 C 307.043 -3.45841 -0.901611 0
M  V30 3378 S 308.602 -4.10822 -1.54177 0
M  V30 3379 H 305.42 -0.696253 -0.144057 0
M  V30 3380 H 308.022 -1.93276 0.294036 0
M  V30 3381 H 306.726 -4.10354 -0.0616596 0
M  V30 3382 H 306.257 -3.55757 -1.67929 0
M  V30 3383 H 308.272 -4.07553 -2.83046 0
M  V30 3384 N 307.445 0.0818655 -1.57387 0
M  V30 3385 C 308.675 0.794954 -1.90694 0
M  V30 3386 C 309.083 1.72147 -0.784982 0
M  V30 3387 O 308.426 1.81974 0.251196 0
M  V30 3388 C 308.488 1.65042 -3.19376 0
M  V30 3389 C 308.152 0.894337 -4.48164 0
M  V30 3390 C 309.149 0.21813 -5.19442 0
M  V30 3391 C 306.834 0.864495 -4.94805 0
M  V30 3392 C 308.828 -0.477802 -6.35607 0
M  V30 3393 C 306.515 0.164785 -6.10878 0
M  V30 3394 C 307.513 -0.505173 -6.81129 0
M  V30 3395 O 307.201 -1.19363 -7.94989 0
M  V30 3396 H 306.933 0.231779 -0.635023 0
M  V30 3397 H 309.487 0.059493 -2.05314 0
M  V30 3398 H 307.717 2.42844 -3.00938 0
M  V30 3399 H 309.406 2.24127 -3.38411 0
M  V30 3400 H 310.172 0.232558 -4.84442 0
M  V30 3401 H 306.051 1.37542 -4.40004 0
M  V30 3402 H 309.595 -1.00129 -6.90377 0
M  V30 3403 H 305.492 0.148249 -6.4533 0
M  V30 3404 H 306.26 -1.10188 -8.11049 0
M  V30 3405 N 308.923 1.53595 0.353017 0
M  V30 3406 C 310.151 1.74311 1.1146 0
M  V30 3407 C 310.566 0.477854 1.82653 0
M  V30 3408 O 309.923 -0.549977 1.74016 0
M  V30 3409 C 309.974 2.91694 2.13534 0
M  V30 3410 O 309.695 4.13325 1.45238 0
M  V30 3411 C 311.196 3.24384 3.02142 0
M  V30 3412 H 308.416 0.582669 0.332773 0
M  V30 3413 H 310.96 2.00386 0.408107 0
M  V30 3414 H 309.115 2.67977 2.79763 0
M  V30 3415 H 309.529 4.79148 2.13349 0
M  V30 3416 H 311.003 4.09893 3.69718 0
M  V30 3417 H 311.48 2.40282 3.67643 0
M  V30 3418 H 312.086 3.50073 2.41514 0
M  V30 3419 N 310.401 -0.613514 1.45168 0
M  V30 3420 C 311.334 -1.73809 1.47871 0
M  V30 3421 C 312.312 -1.59097 0.33568 0
M  V30 3422 O 313.496 -1.8074 0.535299 0
M  V30 3423 C 310.623 -3.11574 1.32813 0
M  V30 3424 C 309.669 -3.4489 2.50905 0
M  V30 3425 S 310.502 -3.40393 4.13392 0
M  V30 3426 C 311.658 -4.80749 4.00789 0
M  V30 3427 H 311.891 -1.71252 2.43023 0
M  V30 3428 H 309.424 -0.789658 1.32679 0
M  V30 3429 H 311.382 -3.91065 1.24812 0
M  V30 3430 H 310.043 -3.11652 0.391418 0
M  V30 3431 H 309.236 -4.45183 2.36279 0
M  V30 3432 H 308.838 -2.72901 2.55736 0
M  V30 3433 H 311.13 -5.7041 3.65567 0
M  V30 3434 H 312.073 -5.00431 5.00974 0
M  V30 3435 H 312.481 -4.56151 3.32545 0
M  V30 3436 N 311.879 -1.3236 -0.855495 0
M  V30 3437 C 313.128 -1.22226 -1.60448 0
M  V30 3438 C 313.441 0.214733 -1.94418 0
M  V30 3439 O 314.647 0.437917 -2.67945 0
M  V30 3440 C 313.103 -2.14063 -2.89318 0
M  V30 3441 C 312.711 -3.62839 -2.62777 0
M  V30 3442 C 314.455 -2.12764 -3.67331 0
M  V30 3443 C 312.362 -4.4664 -3.87643 0
M  V30 3444 H 311.292 -0.453904 -0.602069 0
M  V30 3445 H 313.943 -1.57314 -0.944698 0
M  V30 3446 H 312.325 -1.71889 -3.5675 0
M  V30 3447 H 313.499 -4.1335 -2.03662 0
M  V30 3448 H 311.814 -3.66261 -1.98096 0
M  V30 3449 H 314.411 -2.72611 -4.59987 0
M  V30 3450 H 314.754 -1.11841 -4.00995 0
M  V30 3451 H 315.287 -2.53214 -3.06802 0
M  V30 3452 H 312.026 -5.48373 -3.5912 0
M  V30 3453 H 311.546 -4.0088 -4.46156 0
M  V30 3454 H 313.225 -4.59597 -4.55389 0
M  V30 3455 N 313.357 1.07166 -1.15556 0
M  V30 3456 C 314.606 1.79181 -0.926132 0
M  V30 3457 C 314.919 1.87768 0.547967 0
M  V30 3458 O 316.125 2.56323 0.895036 0
M  V30 3459 C 314.581 3.22 -1.60761 0
M  V30 3460 C 314.189 3.21607 -3.11886 0
M  V30 3461 C 315.933 3.9861 -1.4598 0
M  V30 3462 C 313.84 4.59092 -3.72812 0
M  V30 3463 H 312.77 0.67154 -0.342856 0
M  V30 3464 H 315.421 1.2027 -1.3859 0
M  V30 3465 H 313.803 3.81115 -1.07553 0
M  V30 3466 H 314.977 2.72127 -3.71865 0
M  V30 3467 H 313.292 2.58495 -3.2645 0
M  V30 3468 H 315.889 5.00225 -1.88888 0
M  V30 3469 H 316.232 4.143 -0.407541 0
M  V30 3470 H 316.765 3.45996 -1.96295 0
M  V30 3471 H 313.504 4.48606 -4.77946 0
M  V30 3472 H 313.024 5.08803 -3.17616 0
M  V30 3473 H 314.703 5.28059 -3.73848 0
M  V30 3474 N 314.835 0.952656 1.25548 0
M  V30 3475 C 315.765 0.489287 2.28316 0
M  V30 3476 C 316.746 -0.463359 1.63667 0
M  V30 3477 O 317.931 -0.36274 1.90782 0
M  V30 3478 C 315.061 -0.235603 3.465 0
M  V30 3479 C 314.015 0.631593 4.23314 0
M  V30 3480 C 313.341 -0.223923 5.34231 0
M  V30 3481 C 314.641 1.90871 4.86174 0
M  V30 3482 H 316.335 1.34822 2.67326 0
M  V30 3483 H 313.881 0.649728 1.28509 0
M  V30 3484 H 315.834 -0.570882 4.17515 0
M  V30 3485 H 314.558 -1.12877 3.06474 0
M  V30 3486 H 313.217 0.949929 3.54079 0
M  V30 3487 H 312.865 -1.11678 4.90446 0
M  V30 3488 H 312.565 0.35299 5.86539 0
M  V30 3489 H 314.089 -0.554214 6.0808 0
M  V30 3490 H 315.503 1.63997 5.49343 0
M  V30 3491 H 313.9 2.43112 5.4865 0
M  V30 3492 H 314.97 2.61304 4.08471 0
M  V30 3493 N 316.313 -1.40141 0.720998 0
M  V30 3494 C 317.541 -2.05096 0.272656 0
M  V30 3495 C 317.956 -1.54334 -1.0875 0
M  V30 3496 O 317.313 -0.702211 -1.6845 0
M  V30 3497 C 317.364 -3.60636 0.249835 0
M  V30 3498 O 317.085 -4.09526 1.55629 0
M  V30 3499 C 318.586 -4.42772 -0.216396 0
M  V30 3500 H 315.806 -0.659897 0.121558 0
M  V30 3501 H 318.35 -1.79449 0.980723 0
M  V30 3502 H 316.505 -3.85232 -0.409237 0
M  V30 3503 H 316.919 -5.03758 1.4604 0
M  V30 3504 H 318.393 -5.51702 -0.181212 0
M  V30 3505 H 318.87 -4.20756 -1.25941 0
M  V30 3506 H 319.476 -4.23294 0.412596 0
M  V30 3507 N 317.792 -0.46758 -1.50504 0
M  V30 3508 C 318.722 0.318381 -2.31319 0
M  V30 3509 C 319.703 0.993564 -1.38066 0
M  V30 3510 O 320.888 0.991411 -1.66987 0
M  V30 3511 C 318.018 1.40275 -3.17711 0
M  V30 3512 C 316.972 0.849373 -4.19487 0
M  V30 3513 C 316.298 2.03177 -4.94594 0
M  V30 3514 C 317.598 -0.136942 -5.2212 0
M  V30 3515 H 319.292 -0.356106 -2.97275 0
M  V30 3516 H 316.838 -0.172703 -1.42961 0
M  V30 3517 H 318.791 1.96004 -3.73042 0
M  V30 3518 H 317.515 2.10596 -2.49634 0
M  V30 3519 H 316.174 0.314076 -3.65252 0
M  V30 3520 H 315.822 2.72187 -4.22993 0
M  V30 3521 H 315.522 1.66774 -5.63436 0
M  V30 3522 H 317.046 2.59403 -5.52759 0
M  V30 3523 H 318.46 0.331056 -5.72343 0
M  V30 3524 H 316.857 -0.41507 -5.98663 0
M  V30 3525 H 317.927 -1.06398 -4.73083 0
M  V30 3526 N 319.27 1.56325 -0.20005 0
M  V30 3527 C 320.2 2.22318 0.713916 0
M  V30 3528 C 321.181 1.18788 1.21752 0
M  V30 3529 O 322.366 1.47309 1.26545 0
M  V30 3530 C 319.496 2.88639 1.93144 0
M  V30 3531 C 318.45 3.98457 1.56255 0
M  V30 3532 C 317.776 4.51967 2.85709 0
M  V30 3533 C 319.076 5.16612 0.768747 0
M  V30 3534 H 320.77 2.98952 0.163755 0
M  V30 3535 H 318.316 1.43792 0.0773219 0
M  V30 3536 H 320.269 3.33491 2.57608 0
M  V30 3537 H 318.993 2.09419 2.50621 0
M  V30 3538 H 317.652 3.54305 0.941471 0
M  V30 3539 H 317.3 3.69503 3.41287 0
M  V30 3540 H 317 5.26071 2.6177 0
M  V30 3541 H 318.524 4.99523 3.51154 0
M  V30 3542 H 319.938 5.57977 1.3166 0
M  V30 3543 H 318.335 5.96812 0.627286 0
M  V30 3544 H 319.405 4.84358 -0.229168 0
M  V30 3545 N 320.748 -0.0735177 1.57428 0
M  V30 3546 C 321.695 -1.08756 2.0357 0
M  V30 3547 C 322.665 -1.38559 0.916 0
M  V30 3548 O 323.85 -1.49656 1.18354 0
M  V30 3549 C 320.99 -2.39657 2.48311 0
M  V30 3550 C 320.103 -2.16399 3.73892 0
M  V30 3551 C 319.238 -3.40852 4.07423 0
M  V30 3552 C 318.277 -3.1295 5.2605 0
M  V30 3553 N 317.414 -4.29729 5.55228 0
M  V30 3554 H 322.254 -0.687104 2.8997 0
M  V30 3555 H 319.791 -0.327709 1.43403 0
M  V30 3556 H 321.749 -3.16081 2.72303 0
M  V30 3557 H 320.379 -2.77508 1.64891 0
M  V30 3558 H 319.431 -1.30676 3.57251 0
M  V30 3559 H 320.743 -1.91788 4.60455 0
M  V30 3560 H 319.897 -4.25671 4.32306 0
M  V30 3561 H 318.636 -3.68537 3.19425 0
M  V30 3562 H 317.641 -2.26526 5.00965 0
M  V30 3563 H 318.866 -2.86589 6.15665 0
M  V30 3564 H 316.812 -4.57448 4.70188 0
M  V30 3565 H 316.729 -4.08385 6.36206 0
M  V30 3566 H 317.997 -5.1555 5.84661 0
M  V30 3567 N 322.226 -1.5378 -0.344866 0
M  V30 3568 C 323.173 -1.81676 -1.42346 0
M  V30 3569 C 324.143 -0.662376 -1.52321 0
M  V30 3570 O 325.328 -0.906675 -1.67881 0
M  V30 3571 C 322.468 -2.03087 -2.79015 0
M  V30 3572 C 321.581 -3.30799 -2.77842 0
M  V30 3573 C 320.716 -3.42285 -4.0622 0
M  V30 3574 C 319.755 -4.6395 -3.9927 0
M  V30 3575 N 318.892 -4.72477 -5.19336 0
M  V30 3576 H 323.732 -2.73703 -1.17858 0
M  V30 3577 H 321.269 -1.35568 -0.570949 0
M  V30 3578 H 323.227 -2.1349 -3.58438 0
M  V30 3579 H 321.857 -1.14375 -3.01858 0
M  V30 3580 H 320.909 -3.29244 -1.90533 0
M  V30 3581 H 322.221 -4.20314 -2.68584 0
M  V30 3582 H 321.375 -3.52113 -4.94066 0
M  V30 3583 H 320.114 -2.50823 -4.18258 0
M  V30 3584 H 319.119 -4.54201 -3.09809 0
M  V30 3585 H 320.344 -5.56775 -3.88817 0
M  V30 3586 H 318.29 -3.83924 -5.3192 0
M  V30 3587 H 318.207 -5.55927 -5.12329 0
M  V30 3588 H 319.475 -4.86613 -6.08957 0
M  V30 3589 N 323.704 0.605807 -1.45491 0
M  V30 3590 C 324.929 1.39625 -1.53361 0
M  V30 3591 C 325.354 1.87351 -0.167645 0
M  V30 3592 O 324.712 1.60243 0.848051 0
M  V30 3593 C 324.76 2.57559 -2.5238 0
M  V30 3594 O 323.864 3.58248 -2.04285 0
M  V30 3595 H 323.205 0.416771 -0.516912 0
M  V30 3596 H 325.735 0.737103 -1.90861 0
M  V30 3597 H 325.745 3.0478 -2.71244 0
M  V30 3598 H 324.42 2.22171 -3.51586 0
M  V30 3599 H 322.997 3.17664 -1.95305 0
M  V30 3600 N 325.182 1.32811 0.848464 0
M  V30 3601 C 326.115 1.16601 1.96162 0
M  V30 3602 C 327.093 0.0638855 1.62474 0
M  V30 3603 O 328.277 0.224348 1.8716 0
M  V30 3604 C 325.404 0.786333 3.29446 0
M  V30 3605 C 324.45 1.89459 3.8211 0
M  V30 3606 S 325.283 3.50395 4.04949 0
M  V30 3607 C 326.439 3.14413 5.41198 0
M  V30 3608 H 326.672 2.10832 2.09612 0
M  V30 3609 H 324.205 1.17543 1.00115 0
M  V30 3610 H 326.163 0.574044 4.06466 0
M  V30 3611 H 324.824 -0.137218 3.138 0
M  V30 3612 H 324.017 1.58207 4.78526 0
M  V30 3613 H 323.619 2.06304 3.11953 0
M  V30 3614 H 325.911 2.64642 6.23675 0
M  V30 3615 H 326.854 4.09874 5.77416 0
M  V30 3616 H 327.262 2.51266 5.05495 0
M  V30 3617 N 326.66 -1.06551 1.16123 0
M  V30 3618 C 327.607 -2.13961 0.865414 0
M  V30 3619 C 328.577 -1.65066 -0.185055 0
M  V30 3620 O 329.762 -1.90732 -0.05083 0
M  V30 3621 C 326.902 -3.43113 0.369776 0
M  V30 3622 C 326.015 -4.05756 1.48276 0
M  V30 3623 C 325.15 -5.22773 0.942414 0
M  V30 3624 C 324.189 -5.77395 2.03179 0
M  V30 3625 N 323.326 -6.85731 1.50721 0
M  V30 3626 H 328.166 -2.38605 1.78527 0
M  V30 3627 H 325.703 -1.17072 0.890646 0
M  V30 3628 H 327.661 -4.17151 0.0640643 0
M  V30 3629 H 326.291 -3.18695 -0.513143 0
M  V30 3630 H 325.343 -3.29292 1.9045 0
M  V30 3631 H 326.655 -4.42351 2.30493 0
M  V30 3632 H 325.809 -6.03827 0.589729 0
M  V30 3633 H 324.548 -4.87618 0.0895191 0
M  V30 3634 H 323.553 -4.94981 2.3932 0
M  V30 3635 H 324.778 -6.14603 2.8886 0
M  V30 3636 H 322.724 -6.52499 0.676811 0
M  V30 3637 H 322.641 -7.21254 2.26557 0
M  V30 3638 H 323.909 -7.7047 1.18303 0
M  V30 3639 N 328.138 -0.959301 -1.25041 0
M  V30 3640 C 329.085 -0.482057 -2.2571 0
M  V30 3641 C 330.055 0.467939 -1.59372 0
M  V30 3642 O 331.24 0.380159 -1.86974 0
M  V30 3643 C 328.38 0.229623 -3.44335 0
M  V30 3644 C 327.493 -0.758156 -4.25295 0
M  V30 3645 C 326.628 -0.0234403 -5.31195 0
M  V30 3646 C 325.667 -1.00184 -6.03846 0
M  V30 3647 N 324.804 -0.29769 -7.01469 0
M  V30 3648 H 329.644 -1.34538 -2.65901 0
M  V30 3649 H 327.181 -0.674592 -1.3072 0
M  V30 3650 H 329.139 0.658856 -4.11965 0
M  V30 3651 H 327.769 1.05696 -3.05005 0
M  V30 3652 H 326.821 -1.30586 -3.57284 0
M  V30 3653 H 328.133 -1.50458 -4.75567 0
M  V30 3654 H 327.287 0.464201 -6.04922 0
M  V30 3655 H 326.026 0.755741 -4.81809 0
M  V30 3656 H 325.031 -1.50044 -5.2893 0
M  V30 3657 H 326.256 -1.78133 -6.55321 0
M  V30 3658 H 324.202 0.462668 -6.54366 0
M  V30 3659 H 324.119 -0.983128 -7.4958 0
M  V30 3660 H 325.387 0.16826 -7.79318 0
M  V30 3661 N 329.616 1.39756 -0.72842 0
M  V30 3662 C 330.564 2.32485 -0.0731849 0
M  V30 3663 C 331.558 1.52717 0.733063 0
M  V30 3664 O 332.764 1.68428 0.634988 0
M  V30 3665 H 329.139 0.751984 -0.00486469 0
M  V30 3666 H 331.11 2.85382 -0.871761 0
M  V30 3667 C 329.859 3.37773 0.824908 0
M  V30 3668 H 329.182 3.99227 0.213915 0
M  V30 3669 H 330.622 4.05121 1.25111 0
M  V30 3670 C 329.081 2.74287 1.95622 0
M  V30 3671 O 329.611 2.61618 3.04826 0
M  V30 3672 N 327.817 2.32475 1.74367 0
M  V30 3673 H 327.364 2.4298 0.855494 0
M  V30 3674 H 327.322 1.90337 2.50238 0
M  V30 3675 N 331.094 0.475555 1.50254 0
M  V30 3676 C 332.024 -0.30611 2.31485 0
M  V30 3677 C 333.005 -0.986228 1.38591 0
M  V30 3678 O 334.19 -0.982541 1.67511 0
M  V30 3679 C 331.32 -1.38588 3.1845 0
M  V30 3680 C 330.274 -0.827115 4.19932 0
M  V30 3681 C 329.6 -2.00551 4.95665 0
M  V30 3682 C 330.9 0.16463 5.2204 0
M  V30 3683 H 332.594 0.371866 2.97082 0
M  V30 3684 H 330.14 0.180282 1.42867 0
M  V30 3685 H 332.093 -1.94023 3.74076 0
M  V30 3686 H 330.817 -2.09269 2.50747 0
M  V30 3687 H 329.476 -0.294702 3.65414 0
M  V30 3688 H 329.124 -2.6994 4.2443 0
M  V30 3689 H 328.824 -1.63784 5.64313 0
M  V30 3690 H 330.348 -2.56468 5.54127 0
M  V30 3691 H 331.762 -0.300699 5.72511 0
M  V30 3692 H 330.159 0.446813 5.98434 0
M  V30 3693 H 331.229 1.08905 4.72512 0
M  V30 3694 N 332.573 -1.56217 0.208337 0
M  V30 3695 C 333.798 -2.02782 -0.435222 0
M  V30 3696 C 334.223 -1.08738 -1.53485 0
M  V30 3697 O 333.581 -0.0731855 -1.81152 0
M  V30 3698 C 333.629 -3.47687 -0.956335 0
M  V30 3699 O 332.733 -3.56773 -2.06849 0
M  V30 3700 H 332.074 -0.656403 -0.100158 0
M  V30 3701 H 334.604 -2.02033 0.3231 0
M  V30 3702 H 334.614 -3.87745 -1.26955 0
M  V30 3703 H 333.289 -4.15624 -0.15143 0
M  V30 3704 H 331.866 -3.28597 -1.76292 0
M  V30 3705 N 334.051 0.0651679 -1.57465 0
M  V30 3706 C 335.276 0.779605 -1.9219 0
M  V30 3707 C 335.701 1.69988 -0.805333 0
M  V30 3708 O 335.059 1.79685 0.241435 0
M  V30 3709 C 335.107 1.54364 -3.2589 0
M  V30 3710 O 334.211 2.65474 -3.1559 0
M  V30 3711 H 333.552 0.212249 -0.629163 0
M  V30 3712 H 336.082 0.0314294 -2.04576 0
M  V30 3713 H 336.092 1.92146 -3.59922 0
M  V30 3714 H 334.767 0.868457 -4.06732 0
M  V30 3715 H 333.344 2.30501 -2.93128 0
M  V30 3716 N 335.529 1.53961 0.336706 0
M  V30 3717 C 336.479 1.7881 1.41461 0
M  V30 3718 C 337.463 0.643561 1.47469 0
M  V30 3719 O 338.655 0.903166 1.52223 0
M  V30 3720 C 335.784 2.00722 2.78506 0
M  V30 3721 C 334.87 3.2126 2.76862 0
M  V30 3722 N 335.261 4.42588 2.44845 0
M  V30 3723 C 333.559 3.22568 3.08004 0
M  V30 3724 C 334.26 5.2447 2.51607 0
M  V30 3725 N 333.236 4.61344 2.87511 0
M  V30 3726 H 337.038 2.70205 1.15615 0
M  V30 3727 H 334.552 1.52978 0.545112 0
M  V30 3728 H 336.549 2.1666 3.5618 0
M  V30 3729 H 335.209 1.10573 3.05293 0
M  V30 3730 H 336.22 4.69819 2.17922 0
M  V30 3731 H 332.897 2.42409 3.39918 0
M  V30 3732 H 334.287 6.31324 2.29955 0
M  V30 3733 N 337.007 -0.598083 1.45811 0
M  V30 3734 C 337.954 -1.7082 1.55207 0
M  V30 3735 C 338.924 -1.61278 0.39732 0
M  V30 3736 O 340.109 -1.80717 0.612038 0
M  V30 3737 C 337.249 -3.09144 1.53376 0
M  V30 3738 C 336.362 -3.29423 2.79472 0
M  V30 3739 C 335.497 -4.57907 2.69248 0
M  V30 3740 C 334.536 -4.71476 3.90354 0
M  V30 3741 N 333.673 -5.9127 3.78608 0
M  V30 3742 H 338.513 -1.62125 2.50039 0
M  V30 3743 H 336.05 -0.790389 1.24062 0
M  V30 3744 H 338.008 -3.89186 1.50301 0
M  V30 3745 H 336.638 -3.16773 0.620876 0
M  V30 3746 H 335.69 -2.43091 2.92594 0
M  V30 3747 H 337.002 -3.3532 3.69272 0
M  V30 3748 H 336.156 -5.46157 2.64192 0
M  V30 3749 H 334.895 -4.54423 1.77063 0
M  V30 3750 H 333.9 -3.81648 3.95759 0
M  V30 3751 H 335.125 -4.76751 4.83617 0
M  V30 3752 H 333.071 -5.88813 2.89199 0
M  V30 3753 H 332.988 -5.98369 4.6205 0
M  V30 3754 H 334.256 -6.81992 3.77501 0
M  V30 3755 N 338.485 -1.33259 -0.841409 0
M  V30 3756 C 339.432 -1.23302 -1.95103 0
M  V30 3757 C 340.402 -0.112204 -1.65721 0
M  V30 3758 O 341.587 -0.290038 -1.88583 0
M  V30 3759 C 338.727 -0.975583 -3.31023 0
M  V30 3760 C 337.84 -2.18243 -3.72819 0
M  V30 3761 C 336.975 -1.85936 -4.97595 0
M  V30 3762 C 336.014 -3.02866 -5.3192 0
M  V30 3763 N 335.151 -2.70565 -6.47873 0
M  V30 3764 H 339.991 -2.18207 -2.02952 0
M  V30 3765 H 337.528 -1.0851 -0.993173 0
M  V30 3766 H 339.486 -0.80677 -4.09325 0
M  V30 3767 H 338.116 -0.0632755 -3.22738 0
M  V30 3768 H 337.168 -2.46107 -2.90061 0
M  V30 3769 H 338.48 -3.05666 -3.94169 0
M  V30 3770 H 337.634 -1.65684 -5.83638 0
M  V30 3771 H 336.373 -0.957452 -4.78209 0
M  V30 3772 H 335.378 -3.23736 -4.44382 0
M  V30 3773 H 336.603 -3.93809 -5.53255 0
M  V30 3774 H 334.549 -1.8293 -6.29978 0
M  V30 3775 H 334.466 -3.51519 -6.69306 0
M  V30 3776 H 335.734 -2.53774 -7.37034 0
M  V30 3777 N 339.963 1.05934 -1.16686 0
M  V30 3778 C 340.926 2.11669 -0.879144 0
M  V30 3779 C 341.926 1.60294 0.127445 0
M  V30 3780 O 343.116 1.7389 -0.103865 0
M  V30 3781 C 340.248 3.39438 -0.315425 0
M  V30 3782 H 341.441 2.38626 -1.81653 0
M  V30 3783 H 338.994 1.22058 -0.976299 0
M  V30 3784 H 339.729 3.18132 0.629468 0
M  V30 3785 H 339.514 3.78034 -1.04079 0
M  V30 3786 H 341.004 4.17391 -0.132189 0
M  V30 3787 N 341.441 0.965919 1.2453 0
M  V30 3788 C 342.69 0.622437 1.91856 0
M  V30 3789 C 343.003 -0.846006 1.76358 0
M  V30 3790 O 344.209 -1.29993 2.38357 0
M  V30 3791 C 342.665 1.0626 3.43856 0
M  V30 3792 C 342.273 2.55437 3.68043 0
M  V30 3793 C 344.017 0.792183 4.17043 0
M  V30 3794 C 341.924 2.93196 5.13605 0
M  V30 3795 H 340.854 0.229092 0.718354 0
M  V30 3796 H 343.505 1.17189 1.41206 0
M  V30 3797 H 341.887 0.441476 3.93531 0
M  V30 3798 H 343.061 3.22665 3.28974 0
M  V30 3799 H 341.376 2.8007 3.08139 0
M  V30 3800 H 343.973 1.05031 5.24283 0
M  V30 3801 H 344.316 -0.271584 4.15413 0
M  V30 3802 H 344.849 1.37419 3.73311 0
M  V30 3803 H 341.588 3.98636 5.20355 0
M  V30 3804 H 341.108 2.30651 5.53679 0
M  V30 3805 H 342.787 2.83004 5.81823 0
M  V30 3806 N 342.919 -1.39368 0.735821 0
M  V30 3807 C 344.167 -2.00101 0.283562 0
M  V30 3808 C 344.488 -1.5868 -1.13338 0
M  V30 3809 O 343.758 -0.835423 -1.77193 0
M  V30 3810 H 342.338 -0.740024 0.101851 0
M  V30 3811 H 345 -1.70404 0.945962 0
M  V30 3812 H 344.096 -3.10323 0.332604 0
M  V30 3813 N 344.397 -0.483516 -1.5 0
M  V30 3814 C 345.33 0.350427 -2.25493 0
M  V30 3815 C 346.308 0.985549 -1.29328 0
M  V30 3816 O 347.492 1.01906 -1.58579 0
M  V30 3817 C 344.619 1.49202 -3.04066 0
M  V30 3818 C 343.665 0.973036 -4.15252 0
M  V30 3819 S 344.498 -0.122237 -5.3536 0
M  V30 3820 C 345.654 1.02294 -6.17484 0
M  V30 3821 H 345.887 -0.290381 -2.95878 0
M  V30 3822 H 343.42 -0.268562 -1.52046 0
M  V30 3823 H 345.378 2.14623 -3.49925 0
M  V30 3824 H 344.039 2.10438 -2.33183 0
M  V30 3825 H 343.232 1.82804 -4.69679 0
M  V30 3826 H 342.834 0.396335 -3.71894 0
M  V30 3827 H 345.126 1.93195 -6.49371 0
M  V30 3828 H 346.069 0.517664 -7.06205 0
M  V30 3829 H 346.477 1.28238 -5.49741 0
M  V30 3830 N 345.875 1.56104 -0.216619 0
M  V30 3831 C 347.124 1.97348 0.416744 0
M  V30 3832 C 347.437 1.10715 1.6125 0
M  V30 3833 O 348.643 1.41836 2.31506 0
M  V30 3834 C 347.099 3.51059 0.792835 0
M  V30 3835 C 346.707 4.46387 -0.379828 0
M  V30 3836 C 348.451 4.01026 1.39208 0
M  V30 3837 C 346.358 5.91397 0.0184223 0
M  V30 3838 H 345.288 0.736942 0.159475 0
M  V30 3839 H 347.939 1.80827 -0.31205 0
M  V30 3840 H 346.321 3.63162 1.57891 0
M  V30 3841 H 347.495 4.46029 -1.15737 0
M  V30 3842 H 345.81 4.06734 -0.891979 0
M  V30 3843 H 348.407 5.0686 1.70286 0
M  V30 3844 H 348.75 3.46587 2.30614 0
M  V30 3845 H 349.283 3.92125 0.669537 0
M  V30 3846 H 346.022 6.49807 -0.862002 0
M  V30 3847 H 345.542 5.94961 0.760384 0
M  V30 3848 H 347.221 6.45455 0.446818 0
M  V30 3849 N 347.353 -0.0568162 1.57498 0
M  V30 3850 C 348.286 -1.09817 2.00039 0
M  V30 3851 C 349.264 -1.3674 0.879819 0
M  V30 3852 O 350.448 -1.49863 1.14338 0
M  V30 3853 C 347.575 -2.43924 2.34986 0
M  V30 3854 C 346.621 -2.33039 3.57204 0
M  V30 3855 S 347.454 -1.7102 5.07457 0
M  V30 3856 C 348.61 -3.06674 5.45621 0
M  V30 3857 H 348.843 -0.735701 2.88053 0
M  V30 3858 H 346.376 -0.265871 1.52094 0
M  V30 3859 H 348.334 -3.2106 2.55795 0
M  V30 3860 H 346.995 -2.77327 1.47474 0
M  V30 3861 H 346.188 -3.31973 3.79223 0
M  V30 3862 H 345.79 -1.64043 3.36104 0
M  V30 3863 H 348.082 -4.03 5.44608 0
M  V30 3864 H 349.025 -2.8942 6.46252 0
M  V30 3865 H 349.433 -3.07969 4.73091 0
M  V30 3866 N 348.832 -1.54138 -0.328536 0
M  V30 3867 C 350.078 -1.7236 -1.06865 0
M  V30 3868 C 350.411 -0.493231 -1.87832 0
M  V30 3869 O 349.686 0.5098 -1.877 0
M  V30 3870 C 349.969 -2.99621 -1.99747 0
M  V30 3871 C 349.822 -4.32899 -1.22143 0
M  V30 3872 C 351.141 -3.22615 -2.99345 0
M  V30 3873 H 348.26 -0.627151 -0.387105 0
M  V30 3874 H 350.902 -1.86827 -0.345767 0
M  V30 3875 H 349.052 -2.87418 -2.61387 0
M  V30 3876 H 350.724 -4.56978 -0.630017 0
M  V30 3877 H 348.967 -4.30628 -0.523628 0
M  V30 3878 H 349.638 -5.18154 -1.90318 0
M  V30 3879 H 352.114 -3.34248 -2.47826 0
M  V30 3880 H 350.99 -4.13027 -3.61524 0
M  V30 3881 H 351.251 -2.3961 -3.71536 0
M  V30 3882 N 350.31 0.590341 -1.46126 0
M  V30 3883 C 351.556 1.35082 -1.51264 0
M  V30 3884 C 351.889 1.93534 -0.160711 0
M  V30 3885 O 351.164 1.76045 0.826956 0
M  V30 3886 C 351.447 2.48588 -2.6053 0
M  V30 3887 C 351.3 1.95221 -4.05227 0
M  V30 3888 C 352.619 3.50662 -2.6594 0
M  V30 3889 H 349.738 0.489803 -0.550692 0
M  V30 3890 H 352.38 0.663887 -1.78024 0
M  V30 3891 H 350.53 3.07186 -2.37843 0
M  V30 3892 H 352.202 1.41139 -4.39178 0
M  V30 3893 H 350.445 1.26101 -4.15068 0
M  V30 3894 H 351.116 2.77121 -4.77397 0
M  V30 3895 H 353.592 3.01934 -2.86313 0
M  V30 3896 H 352.468 4.27551 -3.44226 0
M  V30 3897 H 352.729 4.07399 -1.71694 0
M  V30 3898 N 351.788 1.33704 0.83433 0
M  V30 3899 C 353.016 1.28467 1.62185 0
M  V30 3900 C 353.431 -0.143526 1.88254 0
M  V30 3901 O 352.788 -1.08709 1.4659 0
M  V30 3902 C 352.839 2.06174 2.96942 0
M  V30 3903 O 352.56 3.43422 2.72016 0
M  V30 3904 C 354.061 2.08201 3.91366 0
M  V30 3905 H 351.281 0.4424 0.504503 0
M  V30 3906 H 353.825 1.76145 1.03891 0
M  V30 3907 H 351.98 1.62167 3.51825 0
M  V30 3908 H 352.394 3.83453 3.57861 0
M  V30 3909 H 353.868 2.67017 4.83121 0
M  V30 3910 H 354.345 1.07343 4.2588 0
M  V30 3911 H 354.951 2.52246 3.42421 0
M  V30 3912 N 353.266 -1.05314 1.17247 0
M  V30 3913 C 354.229 -2.112 0.890357 0
M  V30 3914 C 355.229 -1.60359 -0.118943 0
M  V30 3915 O 356.419 -1.73833 0.113086 0
M  V30 3916 C 353.551 -3.39266 0.333422 0
M  V30 3917 H 354.744 -2.37659 1.82916 0
M  V30 3918 H 352.297 -1.21538 0.982758 0
M  V30 3919 H 353.032 -3.18462 -0.612587 0
M  V30 3920 H 352.817 -3.77477 1.06082 0
M  V30 3921 H 354.307 -4.17315 0.154322 0
M  V30 3922 N 354.744 -0.972509 -1.24016 0
M  V30 3923 C 355.707 -0.511403 -2.23422 0
M  V30 3924 C 356.707 0.394679 -1.55881 0
M  V30 3925 O 357.897 0.189469 -1.73167 0
M  V30 3926 C 355.029 0.258769 -3.39916 0
M  V30 3927 H 356.222 -1.39024 -2.6573 0
M  V30 3928 H 353.775 -0.757585 -1.36713 0
M  V30 3929 H 354.51 1.1545 -3.03054 0
M  V30 3930 H 354.295 -0.391522 -3.9014 0
M  V30 3931 H 355.785 0.570244 -4.13688 0
M  V30 3932 N 356.222 1.38976 -0.743202 0
M  V30 3933 C 357.469 2.00343 -0.294752 0
M  V30 3934 C 357.797 1.58983 1.12047 0
M  V30 3935 O 357.052 0.813809 1.77977 0
M  V30 3936 C 357.351 3.55647 -0.353517 0
M  V30 3937 C 357.017 4.16685 -1.72292 0
M  V30 3938 C 355.679 4.3307 -2.09771 0
M  V30 3939 C 358.031 4.50464 -2.62168 0
M  V30 3940 C 355.359 4.80526 -3.36618 0
M  V30 3941 C 357.711 4.99332 -3.88395 0
M  V30 3942 C 356.375 5.13924 -4.25956 0
M  V30 3943 H 355.645 0.733108 -0.107857 0
M  V30 3944 H 358.292 1.6618 -0.951651 0
M  V30 3945 H 356.597 3.89884 0.386954 0
M  V30 3946 H 358.294 4.00998 0.0117269 0
M  V30 3947 H 354.884 4.04339 -1.42155 0
M  V30 3948 H 359.068 4.37416 -2.3448 0
M  V30 3949 H 354.324 4.90008 -3.65653 0
M  V30 3950 H 358.498 5.2444 -4.58187 0
M  V30 3951 H 356.125 5.50457 -5.2431 0
M  V30 3952 N 357.7 0.491464 1.49741 0
M  V30 3953 C 358.63 -0.28154 2.31796 0
M  V30 3954 C 359.611 -0.971473 1.3963 0
M  V30 3955 O 360.796 -0.964719 1.68543 0
M  V30 3956 C 357.926 -1.35203 3.19902 0
M  V30 3957 C 356.88 -0.782529 4.20786 0
M  V30 3958 C 356.206 -1.95283 4.97764 0
M  V30 3959 C 357.506 0.21999 5.21837 0
M  V30 3960 H 359.2 0.403355 2.96671 0
M  V30 3961 H 356.746 0.195425 1.42668 0
M  V30 3962 H 358.699 -1.90045 3.76113 0
M  V30 3963 H 357.423 -2.06598 2.52953 0
M  V30 3964 H 356.082 -0.255928 3.65706 0
M  V30 3965 H 355.73 -2.65423 4.2727 0
M  V30 3966 H 355.43 -1.57789 5.66018 0
M  V30 3967 H 356.954 -2.50577 5.56816 0
M  V30 3968 H 358.368 -0.23996 5.72798 0
M  V30 3969 H 356.765 0.51026 5.97927 0
M  V30 3970 H 357.835 1.13911 4.7133 0
M  V30 3971 N 359.178 -1.55987 0.224894 0
M  V30 3972 C 360.424 -1.98684 -0.406502 0
M  V30 3973 C 360.757 -1.11248 -1.59177 0
M  V30 3974 O 360.032 -0.170909 -1.93748 0
M  V30 3975 C 360.315 -3.50218 -0.837808 0
M  V30 3976 C 360.168 -4.48426 0.351332 0
M  V30 3977 C 361.487 -4.06243 -1.69278 0
M  V30 3978 H 358.606 -0.722337 -0.146283 0
M  V30 3979 H 361.248 -1.87255 0.321799 0
M  V30 3980 H 359.398 -3.60089 -1.45837 0
M  V30 3981 H 361.07 -4.50562 0.989526 0
M  V30 3982 H 359.313 -4.22159 0.998207 0
M  V30 3983 H 359.984 -5.52 0.00655905 0
M  V30 3984 H 362.46 -3.99337 -1.16914 0
M  V30 3985 H 361.336 -5.12581 -1.96346 0
M  V30 3986 H 361.597 -3.53332 -2.65723 0
M  V30 3987 N 360.656 0.0484629 -1.57525 0
M  V30 3988 C 361.881 0.759177 -1.93006 0
M  V30 3989 C 362.306 1.69125 -0.823317 0
M  V30 3990 O 361.664 1.79931 0.222364 0
M  V30 3991 C 361.712 1.50899 -3.27509 0
M  V30 3992 O 360.816 2.62112 -3.18388 0
M  V30 3993 H 360.157 0.205564 -0.631379 0
M  V30 3994 H 362.687 0.00972959 -2.04598 0
M  V30 3995 H 362.697 1.88317 -3.6194 0
M  V30 3996 H 361.372 0.825269 -4.0763 0
M  V30 3997 H 359.949 2.27379 -2.95556 0
M  V30 3998 N 362.134 1.5431 0.320358 0
M  V30 3999 C 363.381 1.72668 1.05792 0
M  V30 4000 C 363.709 0.502084 1.87908 0
M  V30 4001 O 362.964 -0.516149 1.88771 0
M  V30 4002 C 363.263 2.95639 2.00828 0
M  V30 4003 C 362.929 4.30265 1.34843 0
M  V30 4004 C 361.591 4.66865 1.16578 0
M  V30 4005 C 363.943 5.13801 0.875095 0
M  V30 4006 C 361.271 5.84597 0.496336 0
M  V30 4007 C 363.623 6.32219 0.219463 0
M  V30 4008 C 362.287 6.67495 0.0246915 0
M  V30 4009 H 361.557 0.631837 0.387121 0
M  V30 4010 H 364.204 1.88552 0.334735 0
M  V30 4011 H 362.509 2.74456 2.79609 0
M  V30 4012 H 364.206 3.07038 2.57932 0
M  V30 4013 H 360.796 4.01472 1.50061 0
M  V30 4014 H 364.98 4.86039 1.00398 0
M  V30 4015 H 360.236 6.10486 0.334264 0
M  V30 4016 H 364.41 6.96227 -0.155291 0
M  V30 4017 H 362.037 7.5858 -0.496065 0
M  V30 4018 N 363.613 -0.582584 1.46437 0
M  V30 4019 C 364.546 -1.70633 1.51524 0
M  V30 4020 C 365.524 -1.58349 0.369351 0
M  V30 4021 O 366.708 -1.79563 0.573516 0
M  V30 4022 C 363.835 -3.08687 1.39392 0
M  V30 4023 C 362.881 -3.3949 2.58164 0
M  V30 4024 S 363.714 -3.31548 4.20519 0
M  V30 4025 C 364.87 -4.72139 4.10896 0
M  V30 4026 H 365.103 -1.66058 2.46601 0
M  V30 4027 H 362.636 -0.761337 1.34324 0
M  V30 4028 H 364.594 -3.8833 1.33079 0
M  V30 4029 H 363.255 -3.10751 0.457436 0
M  V30 4030 H 362.448 -4.40071 2.45669 0
M  V30 4031 H 362.05 -2.67415 2.61468 0
M  V30 4032 H 364.342 -5.62527 3.77584 0
M  V30 4033 H 365.285 -4.89692 5.11476 0
M  V30 4034 H 365.693 -4.48995 3.42146 0
M  V30 4035 N 365.091 -1.34144 -0.827227 0
M  V30 4036 C 366.502 -1.23557 -1.39966 0
M  V30 4037 C 366.853 0.140731 -1.95695 0
M  V30 4038 O 365.978 1.04087 -1.89723 0
M  V30 4039 C 366.573 -2.23708 -2.54441 0
M  V30 4040 C 365.132 -2.16924 -3.07605 0
M  V30 4041 C 364.279 -2.10549 -1.80456 0
M  V30 4042 H 367.23 -1.45573 -0.631991 0
M  V30 4043 H 367.251 -1.85157 -3.32411 0
M  V30 4044 H 366.763 -3.23866 -2.13851 0
M  V30 4045 H 364.864 -1.20107 -3.52711 0
M  V30 4046 H 364.977 -3.07988 -3.66988 0
M  V30 4047 H 363.341 -1.56203 -2.01178 0
M  V30 4048 H 364.124 -3.12535 -1.42046 0
M  V30 4049 N 366.569 1.04691 -1.17803 0
M  V30 4050 C 367.799 1.81183 -0.992788 0
M  V30 4051 C 368.207 1.8347 0.462098 0
M  V30 4052 O 367.55 1.2643 1.33271 0
M  V30 4053 C 367.612 3.28363 -1.46349 0
M  V30 4054 C 367.276 3.49749 -2.94151 0
M  V30 4055 C 368.273 3.41456 -3.92051 0
M  V30 4056 C 365.958 3.76548 -3.32441 0
M  V30 4057 C 367.952 3.59656 -5.26238 0
M  V30 4058 C 365.639 3.94396 -4.66792 0
M  V30 4059 C 366.637 3.8595 -5.635 0
M  V30 4060 O 366.325 4.03294 -6.9542 0
M  V30 4061 H 366.057 0.577622 -0.351182 0
M  V30 4062 H 368.611 1.32876 -1.5663 0
M  V30 4063 H 366.841 3.77609 -0.833574 0
M  V30 4064 H 368.53 3.86395 -1.24313 0
M  V30 4065 H 369.296 3.20723 -3.63815 0
M  V30 4066 H 365.175 3.82224 -2.57732 0
M  V30 4067 H 368.719 3.52979 -6.01707 0
M  V30 4068 H 364.616 4.14622 -4.94731 0
M  V30 4069 H 365.384 4.2049 -7.02232 0
M  V30 4070 N 368.047 0.979072 1.23499 0
M  V30 4071 C 368.997 0.489378 2.22686 0
M  V30 4072 C 369.981 -0.434871 1.54912 0
M  V30 4073 O 371.173 -0.263941 1.75021 0
M  V30 4074 C 368.302 -0.208178 3.42668 0
M  V30 4075 C 367.388 0.735563 4.17672 0
M  V30 4076 N 367.779 1.87763 4.69658 0
M  V30 4077 C 366.077 0.548625 4.42613 0
M  V30 4078 C 366.778 2.46886 5.26709 0
M  V30 4079 N 365.754 1.75287 5.14563 0
M  V30 4080 H 369.556 1.36062 2.60508 0
M  V30 4081 H 367.07 0.83958 1.39014 0
M  V30 4082 H 369.067 -0.576295 4.12898 0
M  V30 4083 H 367.727 -1.07572 3.06363 0
M  V30 4084 H 368.738 2.25885 4.66043 0
M  V30 4085 H 365.415 -0.274006 4.166 0
M  V30 4086 H 366.805 3.43326 5.77561 0
M  V30 4087 N 369.525 -1.3858 0.750561 0
M  V30 4088 C 370.774 -1.99424 0.302172 0
M  V30 4089 C 371.087 -1.60254 -1.12152 0
M  V30 4090 O 372.293 -2.14046 -1.67023 0
M  V30 4091 C 370.749 -3.56558 0.489307 0
M  V30 4092 C 370.357 -4.04682 1.92189 0
M  V30 4093 C 372.101 -4.24374 0.103478 0
M  V30 4094 C 370.008 -5.54446 2.05775 0
M  V30 4095 H 368.938 -0.746046 0.10923 0
M  V30 4096 H 371.589 -1.58383 0.92667 0
M  V30 4097 H 369.971 -3.95472 -0.204329 0
M  V30 4098 H 371.145 -3.77065 2.64875 0
M  V30 4099 H 369.46 -3.4958 2.26236 0
M  V30 4100 H 372.057 -5.34384 0.183787 0
M  V30 4101 H 372.4 -4.05468 -0.943481 0
M  V30 4102 H 372.933 -3.90688 0.748854 0
M  V30 4103 H 369.672 -5.78252 3.08714 0
M  V30 4104 H 369.192 -5.83816 1.37546 0
M  V30 4105 H 370.871 -6.20099 1.84626 0
M  V30 4106 N 371.003 -0.499398 -1.49478 0
M  V30 4107 C 371.935 0.316575 -2.27003 0
M  V30 4108 C 372.948 0.932047 -1.33479 0
M  V30 4109 O 374.137 0.815658 -1.58774 0
M  V30 4110 C 371.237 1.46055 -3.05812 0
M  V30 4111 C 370.41 0.952679 -4.26899 0
M  V30 4112 C 369.469 1.97407 -4.87767 0
M  V30 4113 O 368.495 1.54326 -5.4788 0
M  V30 4114 N 369.697 3.30436 -4.77276 0
M  V30 4115 H 372.462 -0.348168 -2.97671 0
M  V30 4116 H 370.023 -0.33185 -1.58463 0
M  V30 4117 H 372.015 2.14135 -3.43407 0
M  V30 4118 H 370.585 2.02948 -2.37762 0
M  V30 4119 H 369.805 0.0968248 -3.94081 0
M  V30 4120 H 371.093 0.59174 -5.05347 0
M  V30 4121 H 370.491 3.68126 -4.29534 0
M  V30 4122 H 369.048 3.94235 -5.19059 0
M  V30 4123 N 372.481 1.55866 -0.233164 0
M  V30 4124 C 373.897 1.59133 0.121988 0
M  V30 4125 C 374.097 1.25016 1.58029 0
M  V30 4126 O 373.153 0.990922 2.32243 0
M  V30 4127 C 374.466 2.99932 -0.214792 0
M  V30 4128 C 376.014 3.12601 -0.157971 0
M  V30 4129 C 376.489 4.55597 -0.46859 0
M  V30 4130 N 377.98 4.61305 -0.418585 0
M  V30 4131 C 378.715 5.69903 -0.63227 0
M  V30 4132 N 378.211 6.86819 -0.90835 0
M  V30 4133 N 380.004 5.59264 -0.563913 0
M  V30 4134 H 372.155 1.76315 -1.18434 0
M  V30 4135 H 374.418 0.820093 -0.475553 0
M  V30 4136 H 374.124 3.29588 -1.22739 0
M  V30 4137 H 373.998 3.74327 0.464691 0
M  V30 4138 H 376.385 2.82735 0.845283 0
M  V30 4139 H 376.466 2.40511 -0.871102 0
M  V30 4140 H 376.11 4.86182 -1.46934 0
M  V30 4141 H 376.04 5.25928 0.265865 0
M  V30 4142 H 378.531 3.77297 -0.213368 0
M  V30 4143 H 378.844 7.65507 -1.05919 0
M  V30 4144 H 377.189 6.88536 -0.945673 0
M  V30 4145 H 380.38 4.66802 -0.348372 0
M  V30 4146 H 380.553 6.43831 -0.733847 0
M  V30 4147 N 373.959 -0.0401083 1.57549 0
M  V30 4148 C 375.187 -0.745196 1.93014 0
M  V30 4149 C 375.602 -1.6948 0.831984 0
M  V30 4150 O 374.959 -1.81482 -0.192463 0
M  V30 4151 C 375.01 -1.51176 3.28372 0
M  V30 4152 O 374.731 -0.600284 4.33968 0
M  V30 4153 C 376.232 -2.315 3.78051 0
M  V30 4154 H 373.452 -0.210088 0.637263 0
M  V30 4155 H 375.996 -0.000924689 2.045 0
M  V30 4156 H 374.151 -2.20801 3.18317 0
M  V30 4157 H 374.565 -1.13669 5.12035 0
M  V30 4158 H 376.039 -2.80697 4.75303 0
M  V30 4159 H 376.516 -3.12436 3.08675 0
M  V30 4160 H 377.122 -1.66971 3.91153 0
M  V30 4161 N 375.437 -1.54477 -0.31217 0
M  V30 4162 C 376.686 -1.72438 -1.04633 0
M  V30 4163 C 376.999 -0.511163 -1.88803 0
M  V30 4164 O 378.205 -0.572341 -2.65399 0
M  V30 4165 C 376.661 -3.05043 -1.9099 0
M  V30 4166 C 376.269 -4.33806 -1.11877 0
M  V30 4167 C 378.013 -3.32364 -2.64073 0
M  V30 4168 C 375.92 -5.57467 -1.97445 0
M  V30 4169 H 374.85 -0.642647 -0.394361 0
M  V30 4170 H 377.501 -1.80966 -0.303929 0
M  V30 4171 H 375.883 -2.90451 -2.69173 0
M  V30 4172 H 377.057 -4.59199 -0.383843 0
M  V30 4173 H 375.372 -4.13336 -0.504252 0
M  V30 4174 H 377.969 -4.21951 -3.28423 0
M  V30 4175 H 378.312 -2.50745 -3.32314 0
M  V30 4176 H 378.845 -3.47875 -1.92944 0
M  V30 4177 H 375.584 -6.41722 -1.33692 0
M  V30 4178 H 375.104 -5.36277 -2.6864 0
M  V30 4179 H 376.783 -5.94303 -2.5576 0
M  V30 4180 N 376.915 0.57481 -1.46744 0
M  V30 4181 C 377.865 1.67838 -1.54319 0
M  V30 4182 C 378.849 1.55759 -0.40346 0
M  V30 4183 O 380.041 1.6454 -0.652347 0
M  V30 4184 C 377.17 3.06624 -1.5439 0
M  V30 4185 C 376.256 3.23971 -2.73685 0
M  V30 4186 N 376.647 3.11447 -3.9854 0
M  V30 4187 C 374.945 3.5493 -2.70075 0
M  V30 4188 C 375.646 3.31011 -4.78337 0
M  V30 4189 N 374.622 3.56533 -4.10348 0
M  V30 4190 H 378.424 1.56698 -2.48642 0
M  V30 4191 H 375.938 0.779071 -1.42493 0
M  V30 4192 H 377.935 3.85839 -1.57905 0
M  V30 4193 H 376.595 3.1889 -0.611493 0
M  V30 4194 H 377.606 2.89145 -4.29669 0
M  V30 4195 H 374.283 3.73832 -1.85893 0
M  V30 4196 H 375.673 3.26445 -5.87268 0
M  V30 4197 N 378.394 1.34581 0.820102 0
M  V30 4198 C 379.324 1.29038 1.94606 0
M  V30 4199 C 380.305 0.1673 1.69275 0
M  V30 4200 O 381.49 0.360112 1.90832 0
M  V30 4201 C 378.62 1.04793 3.31113 0
M  V30 4202 C 377.574 2.13597 3.70891 0
M  V30 4203 C 376.9 1.74537 5.05412 0
M  V30 4204 C 378.2 3.55451 3.8269 0
M  V30 4205 H 379.894 2.23248 1.99501 0
M  V30 4206 H 377.44 1.0747 0.958449 0
M  V30 4207 H 379.393 0.995592 4.0947 0
M  V30 4208 H 378.117 0.0702565 3.26524 0
M  V30 4209 H 376.776 2.17905 2.9481 0
M  V30 4210 H 376.424 0.754226 4.97313 0
M  V30 4211 H 376.124 2.47361 5.32997 0
M  V30 4212 H 377.648 1.70803 5.86224 0
M  V30 4213 H 379.062 3.5354 4.51312 0
M  V30 4214 H 377.459 4.26922 4.21732 0
M  V30 4215 H 378.529 3.92587 2.84611 0
M  V30 4216 N 379.872 -1.04064 1.18357 0
M  V30 4217 C 380.822 -2.10393 0.878561 0
M  V30 4218 C 381.806 -1.60183 -0.151713 0
M  V30 4219 O 382.998 -1.76923 0.0523303 0
M  V30 4220 C 380.127 -3.4089 0.406096 0
M  V30 4221 C 379.213 -3.97866 1.46844 0
M  V30 4222 N 379.604 -4.28657 2.68489 0
M  V30 4223 C 377.902 -4.2574 1.32896 0
M  V30 4224 C 378.603 -4.74253 3.36836 0
M  V30 4225 N 377.579 -4.75068 2.64219 0
M  V30 4226 H 381.381 -2.32076 1.80327 0
M  V30 4227 H 378.895 -1.21818 1.07397 0
M  V30 4228 H 380.892 -4.16557 0.169088 0
M  V30 4229 H 379.552 -3.20633 -0.512275 0
M  V30 4230 H 380.563 -4.18304 3.05356 0
M  V30 4231 H 377.24 -4.1481 0.473134 0
M  V30 4232 H 378.63 -5.07096 4.40798 0
M  V30 4233 N 381.35 -0.985608 -1.22978 0
M  V30 4234 C 382.597 -0.657386 -1.91532 0
M  V30 4235 C 382.925 0.809707 -1.76845 0
M  V30 4236 O 382.18 1.60021 -1.12658 0
M  V30 4237 C 382.479 -1.00014 -3.43121 0
M  V30 4238 C 382.145 -2.4583 -3.77993 0
M  V30 4239 C 380.807 -2.85679 -3.87222 0
M  V30 4240 C 383.159 -3.40378 -3.94705 0
M  V30 4241 C 380.487 -4.19081 -4.10595 0
M  V30 4242 C 382.839 -4.73429 -4.1958 0
M  V30 4243 C 381.503 -5.1303 -4.27032 0
M  V30 4244 H 380.773 -0.240555 -0.700867 0
M  V30 4245 H 383.42 -1.24044 -1.45895 0
M  V30 4246 H 381.725 -0.335072 -3.90365 0
M  V30 4247 H 383.422 -0.724322 -3.94404 0
M  V30 4248 H 380.012 -2.13939 -3.71387 0
M  V30 4249 H 384.196 -3.10766 -3.8696 0
M  V30 4250 H 379.452 -4.49362 -4.14589 0
M  V30 4251 H 383.626 -5.46644 -4.31455 0
M  V30 4252 H 381.253 -6.16418 -4.44896 0
M  V30 4253 N 382.828 1.3818 -0.7579 0
M  V30 4254 C 383.758 2.33027 -0.148597 0
M  V30 4255 C 384.739 1.55085 0.69875 0
M  V30 4256 O 385.924 1.83384 0.639053 0
M  V30 4257 C 383.054 3.3928 0.742034 0
M  V30 4258 C 382.008 4.28 -0.00291946 0
M  V30 4259 C 381.334 5.25146 1.00625 0
M  V30 4260 C 382.634 5.08938 -1.17385 0
M  V30 4261 H 384.328 2.84231 -0.940909 0
M  V30 4262 H 381.874 1.36659 -0.453908 0
M  V30 4263 H 383.827 4.046 1.17799 0
M  V30 4264 H 382.551 2.86569 1.56671 0
M  V30 4265 H 381.21 3.64192 -0.419504 0
M  V30 4266 H 380.858 4.68721 1.8251 0
M  V30 4267 H 380.558 5.85361 0.512428 0
M  V30 4268 H 382.082 5.93342 1.44143 0
M  V30 4269 H 383.496 5.67474 -0.815224 0
M  V30 4270 H 381.893 5.7841 -1.59882 0
M  V30 4271 H 382.963 4.42424 -1.98468 0
M  V30 4272 N 384.306 0.507319 1.49211 0
M  V30 4273 C 385.256 -0.287112 2.26185 0
M  V30 4274 C 386.24 -0.929983 1.31302 0
M  V30 4275 O 387.432 -0.836538 1.55984 0
M  V30 4276 C 384.561 -1.34718 3.15763 0
M  V30 4277 C 383.647 -0.710235 4.18111 0
M  V30 4278 N 384.038 0.190836 5.0544 0
M  V30 4279 C 382.336 -0.97009 4.35322 0
M  V30 4280 C 383.037 0.55606 5.79036 0
M  V30 4281 N 382.013 -0.0775232 5.43545 0
M  V30 4282 H 385.815 0.406445 2.91076 0
M  V30 4283 H 383.329 0.323814 1.59139 0
M  V30 4284 H 385.326 -1.92982 3.69545 0
M  V30 4285 H 383.986 -2.04235 2.52424 0
M  V30 4286 H 384.997 0.562047 5.14841 0
M  V30 4287 H 381.674 -1.65753 3.83187 0
M  V30 4288 H 383.064 1.2936 6.5933 0
M  V30 4289 N 385.784 -1.5574 0.241426 0
M  V30 4290 C 386.732 -2.22538 -0.676718 0
M  V30 4291 C 387.726 -1.21117 -1.18436 0
M  V30 4292 O 388.932 -1.39144 -1.14188 0
M  V30 4293 H 385.307 -0.713776 -0.236701 0
M  V30 4294 H 387.278 -2.98264 -0.0901187 0
M  V30 4295 C 386.027 -2.93439 -1.86518 0
M  V30 4296 H 385.35 -3.7125 -1.4837 0
M  V30 4297 H 386.79 -3.43549 -2.48495 0
M  V30 4298 C 385.249 -1.97008 -2.73294 0
M  V30 4299 O 385.779 -1.49965 -3.72657 0
M  V30 4300 N 383.985 -1.64227 -2.39745 0
M  V30 4301 H 383.532 -2.02677 -1.58996 0
M  V30 4302 H 383.49 -0.999708 -2.98083 0
M  V30 4303 N 387.262 0.0317525 -1.57568 0
M  V30 4304 C 388.172 1.05021 -2.0978 0
M  V30 4305 C 389.188 1.39809 -1.03583 0
M  V30 4306 O 390.364 1.49182 -1.35302 0
M  V30 4307 C 387.429 2.33301 -2.56459 0
M  V30 4308 C 386.49 2.0512 -3.77127 0
M  V30 4309 C 385.723 3.27283 -4.2157 0
M  V30 4310 O 385.946 4.37861 -3.65559 0
M  V30 4311 O 384.88 3.13141 -5.14029 0
M  V30 4312 H 388.706 0.636505 -2.96955 0
M  V30 4313 H 386.291 0.248559 -1.47318 0
M  V30 4314 H 388.173 3.08722 -2.86825 0
M  V30 4315 H 386.848 2.73973 -1.72397 0
M  V30 4316 H 385.755 1.27276 -3.51784 0
M  V30 4317 H 387.088 1.69305 -4.62165 0
M  V30 4318 N 388.74 1.54641 0.303973 0
M  V30 4319 C 389.968 1.77768 1.05858 0
M  V30 4320 C 390.383 0.535722 1.8104 0
M  V30 4321 O 389.74 -0.494337 1.75677 0
M  V30 4322 C 389.791 2.9834 2.04146 0
M  V30 4323 O 389.512 4.17736 1.32015 0
M  V30 4324 C 391.013 3.33832 2.91669 0
M  V30 4325 H 388.233 0.592961 0.314067 0
M  V30 4326 H 390.777 2.01583 0.344149 0
M  V30 4327 H 388.932 2.76742 2.71096 0
M  V30 4328 H 389.346 4.85693 1.97998 0
M  V30 4329 H 390.82 4.21448 3.56491 0
M  V30 4330 H 391.297 2.51857 3.59812 0
M  V30 4331 H 391.903 3.57579 2.30254 0
M  V30 4332 N 390.218 -0.567019 1.47046 0
M  V30 4333 C 391.165 -1.67489 1.58796 0
M  V30 4334 C 392.135 -1.60399 0.43144 0
M  V30 4335 O 393.32 -1.79378 0.650233 0
M  V30 4336 C 390.46 -3.05821 1.59899 0
M  V30 4337 C 389.573 -3.2342 2.86397 0
M  V30 4338 C 388.708 -4.52093 2.789 0
M  V30 4339 C 387.747 -4.6309 4.00267 0
M  V30 4340 N 386.884 -5.83106 3.91064 0
M  V30 4341 H 391.724 -1.56785 2.53422 0
M  V30 4342 H 389.261 -0.763896 1.2571 0
M  V30 4343 H 391.219 -3.8591 1.58522 0
M  V30 4344 H 389.849 -3.15384 0.687929 0
M  V30 4345 H 388.901 -2.3683 2.97684 0
M  V30 4346 H 390.213 -3.27412 3.76301 0
M  V30 4347 H 389.367 -5.4043 2.75718 0
M  V30 4348 H 388.106 -4.50565 1.86662 0
M  V30 4349 H 387.111 -3.73168 4.03765 0
M  V30 4350 H 388.336 -4.66386 4.93621 0
M  V30 4351 H 386.282 -5.82546 3.01623 0
M  V30 4352 H 386.199 -5.88434 4.74638 0
M  V30 4353 H 387.467 -6.73831 3.91882 0
M  V30 4354 N 391.696 -1.35014 -0.812953 0
M  V30 4355 C 393.107 -1.25035 -1.38648 0
M  V30 4356 C 393.458 0.119967 -1.95833 0
M  V30 4357 O 392.583 1.02069 -1.90816 0
M  V30 4358 C 393.178 -2.26394 -2.52054 0
M  V30 4359 C 391.737 -2.20175 -3.05287 0
M  V30 4360 C 390.884 -2.12451 -1.78213 0
M  V30 4361 H 393.835 -1.46235 -0.616516 0
M  V30 4362 H 393.856 -1.88672 -3.30429 0
M  V30 4363 H 393.368 -3.26116 -2.10404 0
M  V30 4364 H 391.469 -1.23841 -3.51417 0
M  V30 4365 H 391.582 -3.11863 -3.63701 0
M  V30 4366 H 389.946 -1.58328 -1.9951 0
M  V30 4367 H 390.729 -3.14024 -1.38723 0
M  V30 4368 N 393.175 1.03435 -1.18907 0
M  V30 4369 C 394.415 1.78302 -0.999391 0
M  V30 4370 C 394.779 1.86353 0.462219 0
M  V30 4371 O 395.98 2.57489 0.771543 0
M  V30 4372 C 394.251 3.17362 -1.64365 0
M  V30 4373 S 395.81 4.08488 -1.6026 0
M  V30 4374 H 392.628 0.613861 -0.358742 0
M  V30 4375 H 395.23 1.23979 -1.51161 0
M  V30 4376 H 393.934 3.09116 -2.69955 0
M  V30 4377 H 393.465 3.76762 -1.13199 0
M  V30 4378 H 395.48 4.92274 -0.622932 0
M  V30 4379 N 394.653 0.992116 1.22453 0
M  V30 4380 C 395.93 0.583508 1.86694 0
M  V30 4381 C 396.31 -0.9392 1.89056 0
M  V30 4382 O 395.658 -1.82081 1.38053 0
M  V30 4383 C 395.868 1.20304 3.2761 0
M  V30 4384 C 397.216 1.30308 4.0411 0
M  V30 4385 O 398.24 1.15737 3.36873 0
M  V30 4386 O 397.099 1.53615 5.24466 0
M  V30 4387 H 394.193 0.198129 0.802916 0
M  V30 4388 H 396.739 1.08794 1.30238 0
M  V30 4389 H 395.511 2.24461 3.2052 0
M  V30 4390 H 395.134 0.684144 3.9167 0
M  V30 4391 N 396.131 -1.37776 0.765217 0
M  V30 4392 C 397.356 -2.04651 0.336537 0
M  V30 4393 C 397.781 -1.57337 -1.03086 0
M  V30 4394 O 397.139 -0.730621 -1.65927 0
M  V30 4395 C 397.187 -3.58577 0.381468 0
M  V30 4396 O 396.291 -4.07706 -0.62042 0
M  V30 4397 H 395.632 -0.64756 0.146838 0
M  V30 4398 H 398.162 -1.76221 1.03959 0
M  V30 4399 H 398.172 -4.07314 0.236448 0
M  V30 4400 H 396.847 -3.9237 1.37907 0
M  V30 4401 H 395.424 -3.70306 -0.439056 0
M  V30 4402 N 397.609 -0.515225 -1.4894 0
M  V30 4403 C 398.855 0.0242508 -2.02785 0
M  V30 4404 C 399.188 1.35323 -1.39289 0
M  V30 4405 O 398.463 1.87041 -0.533469 0
M  V30 4406 C 398.746 0.16184 -3.59736 0
M  V30 4407 C 398.599 -1.19127 -4.33738 0
M  V30 4408 C 399.918 0.895719 -4.30888 0
M  V30 4409 H 397.037 0.00733914 -0.736963 0
M  V30 4410 H 399.679 -0.669395 -1.77818 0
M  V30 4411 H 397.829 0.752624 -3.8114 0
M  V30 4412 H 399.501 -1.82202 -4.23792 0
M  V30 4413 H 397.744 -1.77695 -3.95736 0
M  V30 4414 H 398.415 -1.04815 -5.41957 0
M  V30 4415 H 400.891 0.394528 -4.14225 0
M  V30 4416 H 399.767 0.960859 -5.40425 0
M  V30 4417 H 400.028 1.9427 -3.97129 0
M  V30 4418 N 399.087 1.5561 -0.249682 0
M  V30 4419 C 400.017 2.24477 0.642826 0
M  V30 4420 C 400.998 1.22601 1.17911 0
M  V30 4421 O 402.183 1.5126 1.21795 0
M  V30 4422 C 399.313 2.94638 1.83863 0
M  V30 4423 C 398.267 4.03227 1.435 0
M  V30 4424 C 397.593 4.60828 2.71186 0
M  V30 4425 C 398.893 5.18796 0.604002 0
M  V30 4426 H 400.587 2.99321 0.0685625 0
M  V30 4427 H 398.133 1.43965 0.0315363 0
M  V30 4428 H 400.086 3.41517 2.46868 0
M  V30 4429 H 398.81 2.17287 2.43832 0
M  V30 4430 H 397.469 3.57121 0.828275 0
M  V30 4431 H 397.117 3.80174 3.29358 0
M  V30 4432 H 396.817 5.34132 2.44901 0
M  V30 4433 H 398.341 5.10442 3.35084 0
M  V30 4434 H 399.755 5.61883 1.13842 0
M  V30 4435 H 398.152 5.98506 0.437097 0
M  V30 4436 H 399.222 4.83384 -0.383147 0
M  V30 4437 N 400.565 -0.0233959 1.57583 0
M  V30 4438 C 401.981 -0.379134 1.55031 0
M  V30 4439 C 402.181 -1.76255 0.976548 0
M  V30 4440 O 401.237 -2.45266 0.600078 0
M  V30 4441 C 402.55 -0.275792 2.99433 0
M  V30 4442 C 404.098 -0.352458 3.11009 0
M  V30 4443 C 404.573 -0.278501 4.57152 0
M  V30 4444 N 406.064 -0.337123 4.61972 0
M  V30 4445 C 406.799 -0.302876 5.726 0
M  V30 4446 N 406.295 -0.220589 6.92449 0
M  V30 4447 N 408.088 -0.353023 5.6099 0
M  V30 4448 H 400.239 0.881869 1.93227 0
M  V30 4449 H 402.502 0.335867 0.886509 0
M  V30 4450 H 402.208 0.675108 3.4516 0
M  V30 4451 H 402.082 -1.06721 3.61788 0
M  V30 4452 H 404.469 -1.29379 2.65226 0
M  V30 4453 H 404.55 0.468409 2.51475 0
M  V30 4454 H 404.194 0.659189 5.03604 0
M  V30 4455 H 404.124 -1.11755 5.14605 0
M  V30 4456 H 406.615 -0.403002 3.75745 0
M  V30 4457 H 406.928 -0.199713 7.72542 0
M  V30 4458 H 405.273 -0.186555 6.9475 0
M  V30 4459 H 408.464 -0.415339 4.66254 0
M  V30 4460 H 408.637 -0.322866 6.47195 0
M  V30 4461 N 402.043 -1.548 -0.295768 0
M  V30 4462 C 402.976 -1.81003 -1.38972 0
M  V30 4463 C 403.954 -0.661544 -1.48534 0
M  V30 4464 O 405.138 -0.902074 -1.65514 0
M  V30 4465 C 402.265 -1.95141 -2.76835 0
M  V30 4466 C 401.311 -3.17592 -2.84671 0
M  V30 4467 S 402.144 -4.75531 -2.46232 0
M  V30 4468 C 403.3 -4.92613 -3.86114 0
M  V30 4469 H 403.533 -2.73507 -1.16537 0
M  V30 4470 H 401.066 -1.46278 -0.494168 0
M  V30 4471 H 403.024 -2.03972 -3.56238 0
M  V30 4472 H 401.685 -1.03565 -2.96535 0
M  V30 4473 H 400.878 -3.24303 -3.85803 0
M  V30 4474 H 400.48 -3.07235 -2.13267 0
M  V30 4475 H 402.772 -4.76957 -4.81164 0
M  V30 4476 H 403.715 -5.94698 -3.8437 0
M  V30 4477 H 404.123 -4.2073 -3.76359 0
M  V30 4478 N 403.521 0.559213 -1.47345 0
M  V30 4479 C 404.453 1.68161 -1.55738 0
M  V30 4480 C 405.466 1.56636 -0.443744 0
M  V30 4481 O 406.655 1.6363 -0.713258 0
M  V30 4482 C 403.755 3.06611 -1.4437 0
M  V30 4483 C 402.928 3.4391 -2.70268 0
M  V30 4484 C 401.987 4.61515 -2.52765 0
M  V30 4485 O 401.013 4.66197 -3.26572 0
M  V30 4486 N 402.215 5.57883 -1.6046 0
M  V30 4487 H 404.98 1.61408 -2.52522 0
M  V30 4488 H 402.541 0.7458 -1.43699 0
M  V30 4489 H 404.533 3.83117 -1.30398 0
M  V30 4490 H 403.103 3.07602 -0.556766 0
M  V30 4491 H 402.323 2.56873 -2.99015 0
M  V30 4492 H 403.611 3.65605 -3.53851 0
M  V30 4493 H 403.009 5.56855 -0.996422 0
M  V30 4494 H 401.566 6.33723 -1.52441 0
M  V30 4495 N 404.999 1.35443 0.805782 0
M  V30 4496 C 405.946 1.28431 1.91766 0
M  V30 4497 C 406.916 0.156102 1.65365 0
M  V30 4498 O 408.101 0.339936 1.87747 0
M  V30 4499 C 405.241 1.06301 3.2832 0
M  V30 4500 C 404.354 2.2805 3.66902 0
M  V30 4501 C 403.489 1.99064 4.92491 0
M  V30 4502 C 402.528 3.16863 5.23703 0
M  V30 4503 N 401.665 2.87647 6.40471 0
M  V30 4504 H 406.505 2.23511 1.97096 0
M  V30 4505 H 404.042 1.11105 0.964054 0
M  V30 4506 H 406 0.915012 4.07042 0
M  V30 4507 H 404.63 0.148822 3.22457 0
M  V30 4508 H 403.682 2.53711 2.83434 0
M  V30 4509 H 404.994 3.1601 3.85927 0
M  V30 4510 H 404.148 1.81099 5.7904 0
M  V30 4511 H 402.887 1.0839 4.75503 0
M  V30 4512 H 401.892 3.35404 4.35642 0
M  V30 4513 H 403.117 4.08339 5.4262 0
M  V30 4514 H 401.063 1.99568 6.24907 0
M  V30 4515 H 400.98 3.69141 6.59751 0
M  V30 4516 H 402.248 2.73226 7.30047 0
M  V30 4517 N 406.477 -1.02803 1.19454 0
M  V30 4518 C 407.702 -1.80378 1.02364 0
M  V30 4519 C 408.127 -1.83282 -0.423007 0
M  V30 4520 O 407.485 -1.25945 -1.30413 0
M  V30 4521 C 407.533 -3.23248 1.59821 0
M  V30 4522 O 406.637 -4.04 0.828105 0
M  V30 4523 H 405.978 -0.556799 0.361761 0
M  V30 4524 H 408.508 -1.29385 1.58495 0
M  V30 4525 H 408.518 -3.73994 1.63073 0
M  V30 4526 H 407.193 -3.2045 2.65113 0
M  V30 4527 H 405.77 -3.62635 0.86891 0
M  V30 4528 N 407.956 -0.998596 -1.21925 0
M  V30 4529 C 409.202 -0.678667 -1.91107 0
M  V30 4530 C 409.535 0.78791 -1.77498 0
M  V30 4531 O 408.81 1.57043 -1.1475 0
M  V30 4532 C 409.093 -1.09245 -3.43129 0
M  V30 4533 C 408.946 -2.61801 -3.6576 0
M  V30 4534 C 410.265 -0.649984 -4.35274 0
M  V30 4535 H 407.384 -0.248025 -0.694012 0
M  V30 4536 H 410.026 -1.24314 -1.43688 0
M  V30 4537 H 408.176 -0.612171 -3.83647 0
M  V30 4538 H 409.848 -3.17543 -3.34611 0
M  V30 4539 H 408.091 -3.03609 -3.09845 0
M  V30 4540 H 408.762 -2.85804 -4.7225 0
M  V30 4541 H 411.238 -1.0626 -4.02303 0
M  V30 4542 H 410.114 -0.967743 -5.40302 0
M  V30 4543 H 410.375 0.449139 -4.39813 0
M  V30 4544 N 409.434 1.37368 -0.772513 0
M  V30 4545 C 410.68 1.99969 -0.337681 0
M  V30 4546 C 411.013 1.61184 1.08321 0
M  V30 4547 O 410.288 0.858395 1.74533 0
M  V30 4548 C 410.571 3.56858 -0.482121 0
M  V30 4549 C 410.424 4.0555 -1.94549 0
M  V30 4550 C 411.743 4.39955 0.113143 0
M  V30 4551 H 408.862 0.726464 -0.124171 0
M  V30 4552 H 411.504 1.63034 -0.975699 0
M  V30 4553 H 409.654 3.88452 0.0610361 0
M  V30 4554 H 411.326 3.84518 -2.54841 0
M  V30 4555 H 409.569 3.57715 -2.45403 0
M  V30 4556 H 410.24 5.14587 -1.9976 0
M  V30 4557 H 412.716 4.14623 -0.35031 0
M  V30 4558 H 411.592 5.48897 -0.0180514 0
M  V30 4559 H 411.853 4.25403 1.20354 0
M  V30 4560 N 410.912 0.523116 1.48665 0
M  V30 4561 C 412.161 -0.01544 2.01694 0
M  V30 4562 C 412.474 -1.35975 1.40606 0
M  V30 4563 O 413.68 -1.98627 1.85093 0
M  V30 4564 C 412.136 -0.0779303 3.59816 0
M  V30 4565 C 411.744 1.26107 4.29885 0
M  V30 4566 C 413.488 -0.565678 4.20714 0
M  V30 4567 C 411.395 1.15954 5.79921 0
M  V30 4568 H 410.325 -0.00954163 0.75394 0
M  V30 4569 H 412.976 0.665865 1.70993 0
M  V30 4570 H 411.358 -0.824165 3.87329 0
M  V30 4571 H 412.532 2.02233 4.14051 0
M  V30 4572 H 410.847 1.68401 3.80828 0
M  V30 4573 H 413.444 -0.6595 5.30617 0
M  V30 4574 H 413.787 -1.56984 3.85567 0
M  V30 4575 H 414.32 0.12467 3.97605 0
M  V30 4576 H 411.059 2.13864 6.19631 0
M  V30 4577 H 410.579 0.439529 5.98187 0
M  V30 4578 H 412.258 0.847361 6.41427 0
M  V30 4579 N 412.39 -1.55475 0.257931 0
M  V30 4580 C 413.618 -2.03609 -0.367559 0
M  V30 4581 C 414.033 -1.13687 -1.50734 0
M  V30 4582 O 413.39 -0.153479 -1.81853 0
M  V30 4583 C 413.441 -3.51001 -0.864908 0
M  V30 4584 O 413.162 -4.37499 0.229465 0
M  V30 4585 C 414.663 -4.14946 -1.55997 0
M  V30 4586 H 411.883 -0.665459 -0.0860521 0
M  V30 4587 H 414.427 -2.00843 0.385014 0
M  V30 4588 H 412.582 -3.54266 -1.56762 0
M  V30 4589 H 412.996 -5.24286 -0.14998 0
M  V30 4590 H 414.47 -5.19735 -1.85956 0
M  V30 4591 H 414.947 -3.6209 -2.4857 0
M  V30 4592 H 415.553 -4.15635 -0.901543 0
M  V30 4593 N 413.868 0.0150385 -1.57593 0
M  V30 4594 C 414.798 1.01047 -2.10503 0
M  V30 4595 C 415.779 1.36816 -1.01071 0
M  V30 4596 O 416.964 1.45455 -1.28672 0
M  V30 4597 C 414.094 2.30708 -2.59598 0
M  V30 4598 C 413.048 2.09142 -3.73421 0
M  V30 4599 C 412.374 3.44685 -4.08774 0
M  V30 4600 C 413.674 1.46619 -5.01298 0
M  V30 4601 H 415.368 0.569978 -2.93925 0
M  V30 4602 H 412.914 0.272724 -1.41394 0
M  V30 4603 H 414.867 3.00687 -2.95238 0
M  V30 4604 H 413.591 2.76843 -1.73279 0
M  V30 4605 H 412.25 1.41592 -3.38153 0
M  V30 4606 H 411.898 3.88495 -3.195 0
M  V30 4607 H 411.598 3.31077 -4.8545 0
M  V30 4608 H 413.122 4.16004 -4.4696 0
M  V30 4609 H 414.536 2.06535 -5.34805 0
M  V30 4610 H 412.933 1.43544 -5.82679 0
M  V30 4611 H 414.003 0.433611 -4.82957 0
M  V30 4612 N 415.346 1.54954 0.287554 0
M  V30 4613 C 416.571 1.79209 1.04397 0
M  V30 4614 C 416.996 0.556431 1.79682 0
M  V30 4615 O 416.354 -0.493518 1.74454 0
M  V30 4616 C 416.402 3.00739 1.98969 0
M  V30 4617 O 415.506 2.74805 3.075 0
M  V30 4618 H 414.847 0.592755 0.299227 0
M  V30 4619 H 417.377 2.02068 0.320886 0
M  V30 4620 H 417.387 3.29077 2.4119 0
M  V30 4621 H 416.062 3.90329 1.43582 0
M  V30 4622 H 414.639 2.57523 2.69697 0
M  V30 4623 N 416.824 -0.551391 1.4764 0
M  V30 4624 C 417.754 -1.66757 1.63445 0
M  V30 4625 C 418.735 -1.63077 0.483742 0
M  V30 4626 O 419.92 -1.80607 0.71377 0
M  V30 4627 C 417.05 -3.05387 1.65396 0
M  V30 4628 C 416.004 -3.23918 2.79752 0
M  V30 4629 C 415.33 -4.63393 2.66779 0
M  V30 4630 C 416.63 -3.08735 4.21284 0
M  V30 4631 H 418.324 -1.53786 2.56886 0
M  V30 4632 H 415.87 -0.738415 1.23626 0
M  V30 4633 H 417.823 -3.83325 1.75043 0
M  V30 4634 H 416.547 -3.19332 0.685195 0
M  V30 4635 H 415.206 -2.48391 2.69625 0
M  V30 4636 H 414.854 -4.74144 1.67918 0
M  V30 4637 H 414.554 -4.7674 3.43501 0
M  V30 4638 H 416.078 -5.43458 2.78364 0
M  V30 4639 H 417.492 -3.76484 4.32357 0
M  V30 4640 H 415.889 -3.33588 4.98838 0
M  V30 4641 H 416.959 -2.0541 4.39243 0
M  V30 4642 N 418.302 -1.35869 -0.798587 0
M  V30 4643 C 419.265 -1.29307 -1.89242 0
M  V30 4644 C 420.265 -0.202747 -1.59517 0
M  V30 4645 O 421.455 -0.456957 -1.681 0
M  V30 4646 C 418.587 -1.00229 -3.25833 0
M  V30 4647 H 419.78 -2.26576 -1.96478 0
M  V30 4648 H 417.333 -1.20509 -0.995358 0
M  V30 4649 H 418.068 -0.033801 -3.24282 0
M  V30 4650 H 417.853 -1.79121 -3.48795 0
M  V30 4651 H 419.343 -0.98219 -4.05885 0
M  V30 4652 N 419.78 1.02168 -1.19998 0
M  V30 4653 C 420.743 2.08765 -0.94604 0
M  V30 4654 C 421.743 1.60618 0.0763846 0
M  V30 4655 O 422.933 1.73472 -0.159135 0
M  V30 4656 C 420.065 3.38262 -0.423255 0
M  V30 4657 H 421.258 2.32726 -1.89153 0
M  V30 4658 H 418.811 1.1889 -1.01464 0
M  V30 4659 H 419.546 3.19974 0.527938 0
M  V30 4660 H 419.331 3.74532 -1.16053 0
M  V30 4661 H 420.821 4.16759 -0.264911 0
M  V30 4662 N 421.258 1.00505 1.21394 0
M  V30 4663 C 422.483 0.706367 1.95001 0
M  V30 4664 C 422.908 -0.72463 1.73582 0
M  V30 4665 O 422.266 -1.49702 1.0227 0
M  V30 4666 C 422.314 1.03299 3.45487 0
M  V30 4667 O 421.418 0.138275 4.12168 0
M  V30 4668 H 420.759 0.263175 0.609619 0
M  V30 4669 H 423.289 1.34531 1.54151 0
M  V30 4670 H 423.299 0.979872 3.96059 0
M  V30 4671 H 421.974 2.07567 3.60401 0
M  V30 4672 H 420.551 0.247928 3.72075 0
M  V30 4673 N 422.737 -1.36956 0.779787 0
M  V30 4674 C 423.685 -2.32053 0.15942 0
M  V30 4675 C 424.679 -1.55333 -0.675878 0
M  V30 4676 O 425.885 -1.70668 -0.57204 0
M  V30 4677 H 422.26 -0.751286 0.0327707 0
M  V30 4678 H 424.231 -2.8195 0.977078 0
M  V30 4679 C 422.98 -3.40602 -0.698977 0
M  V30 4680 H 422.303 -3.99746 -0.0655966 0
M  V30 4681 H 423.743 -4.09486 -1.09989 0
M  V30 4682 C 422.202 -2.81359 -1.85307 0
M  V30 4683 O 422.732 -2.72751 -2.94906 0
M  V30 4684 N 420.938 -2.38786 -1.65619 0
M  V30 4685 H 420.485 -2.45987 -0.764725 0
M  V30 4686 H 420.443 -1.99493 -2.43002 0
M  V30 4687 N 424.215 -0.530993 -1.48385 0
M  V30 4688 C 425.455 0.000718982 -2.044 0
M  V30 4689 C 425.819 1.31485 -1.39913 0
M  V30 4690 O 427.02 1.93265 -1.86821 0
M  V30 4691 C 425.291 0.119177 -3.57201 0
M  V30 4692 S 426.85 0.600806 -4.34667 0
M  V30 4693 H 423.668 -0.0125473 -0.710889 0
M  V30 4694 H 426.27 -0.711783 -1.82082 0
M  V30 4695 H 424.974 -0.842061 -4.01668 0
M  V30 4696 H 424.505 0.856026 -3.83974 0
M  V30 4697 H 426.52 1.86514 -4.59812 0
M  V30 4698 N 425.693 1.55336 -0.266172 0
M  V30 4699 C 426.933 2.01303 0.354459 0
M  V30 4700 C 427.297 1.15046 1.53715 0
M  V30 4701 O 428.498 1.50554 2.22681 0
M  V30 4702 C 426.769 3.49748 0.735579 0
M  V30 4703 S 428.328 4.1771 1.34401 0
M  V30 4704 H 425.146 0.702333 0.110674 0
M  V30 4705 H 427.748 1.91653 -0.385916 0
M  V30 4706 H 426.452 4.10181 -0.134196 0
M  V30 4707 H 425.983 3.63364 1.50764 0
M  V30 4708 H 427.998 4.20594 2.63278 0
M  V30 4709 N 427.171 -0.0066808 1.57599 0
M  V30 4710 C 428.418 -0.69292 1.90276 0
M  V30 4711 C 428.746 -1.74148 0.866192 0
M  V30 4712 O 428.001 -1.95268 -0.129933 0
M  V30 4713 C 428.3 -1.37939 3.29708 0
M  V30 4714 C 427.966 -0.464679 4.48499 0
M  V30 4715 C 426.628 -0.212809 4.80729 0
M  V30 4716 C 428.98 0.16551 5.20937 0
M  V30 4717 C 426.308 0.677653 5.82773 0
M  V30 4718 C 428.66 1.04381 6.23929 0
M  V30 4719 C 427.324 1.30492 6.54621 0
M  V30 4720 H 426.594 -0.253558 0.696268 0
M  V30 4721 H 429.241 0.0474123 1.91441 0
M  V30 4722 H 427.546 -2.1936 3.24636 0
M  V30 4723 H 429.243 -1.9163 3.52249 0
M  V30 4724 H 425.833 -0.671153 4.23313 0
M  V30 4725 H 430.017 -0.0160756 4.96297 0
M  V30 4726 H 425.273 0.88803 6.04917 0
M  V30 4727 H 429.447 1.53851 6.79193 0
M  V30 4728 H 427.074 1.99662 7.33512 0
M  V30 4729 N 428.649 -1.55105 -0.279332 0
M  V30 4730 C 429.926 -1.66119 -1.03267 0
M  V30 4731 C 430.306 -0.523525 -2.04505 0
M  V30 4732 O 429.654 0.477194 -2.23462 0
M  V30 4733 C 429.864 -3.05067 -1.69515 0
M  V30 4734 C 431.212 -3.62606 -2.20912 0
M  V30 4735 O 432.236 -3.07659 -1.79512 0
M  V30 4736 O 431.095 -4.58861 -2.96831 0
M  V30 4737 H 428.189 -0.674429 -0.478618 0
M  V30 4738 H 430.735 -1.67446 -0.275694 0
M  V30 4739 H 429.507 -3.79311 -0.9612 0
M  V30 4740 H 429.13 -3.07611 -2.51915 0
M  V30 4741 N 430.127 0.543554 -1.4793 0
M  V30 4742 C 431.538 1.12561 -1.48953 0
M  V30 4743 C 431.889 1.94578 -0.251754 0
M  V30 4744 O 431.014 2.0665 0.642255 0
M  V30 4745 C 431.609 2.04801 -2.69892 0
M  V30 4746 C 430.168 2.58251 -2.73831 0
M  V30 4747 C 429.315 1.34918 -2.42265 0
M  V30 4748 H 432.266 0.32947 -1.55242 0
M  V30 4749 H 432.287 2.88886 -2.47639 0
M  V30 4750 H 431.799 1.4508 -3.59963 0
M  V30 4751 H 429.9 3.21732 -1.87934 0
M  V30 4752 H 430.013 2.98312 -3.74895 0
M  V30 4753 H 428.377 1.66046 -1.93134 0
M  V30 4754 H 429.16 0.769693 -3.3456 0
M  V30 4755 N 431.605 1.3629 0.791371 0
M  V30 4756 C 432.535 1.33137 1.91825 0
M  V30 4757 C 433.516 0.203168 1.68882 0
M  V30 4758 O 434.701 0.400509 1.90025 0
M  V30 4759 C 431.831 1.11793 3.28816 0
M  V30 4760 C 430.785 2.21417 3.66277 0
M  V30 4761 C 430.111 1.85218 5.01596 0
M  V30 4762 C 431.411 3.63489 3.75064 0
M  V30 4763 H 433.105 2.2743 1.9472 0
M  V30 4764 H 430.651 1.09479 0.935437 0
M  V30 4765 H 432.604 1.08222 4.07266 0
M  V30 4766 H 431.328 0.139501 3.26302 0
M  V30 4767 H 429.987 2.2411 2.90121 0
M  V30 4768 H 429.635 0.859544 4.95602 0
M  V30 4769 H 429.335 2.58611 5.27631 0
M  V30 4770 H 430.859 1.832 5.82469 0
M  V30 4771 H 432.273 3.63034 4.43711 0
M  V30 4772 H 430.67 4.35771 4.12582 0
M  V30 4773 H 431.74 3.98536 2.76219 0
M  V30 4774 N 433.083 -1.0153 1.20538 0
M  V30 4775 C 434.013 -2.11972 0.979295 0
M  V30 4776 C 434.994 -1.6985 -0.0921787 0
M  V30 4777 O 436.179 -1.94089 0.0655932 0
M  V30 4778 C 433.309 -3.43201 0.531984 0
M  V30 4779 C 432.263 -3.9907 1.54685 0
M  V30 4780 C 431.589 -5.26082 0.956127 0
M  V30 4781 C 432.889 -4.32313 2.93092 0
M  V30 4782 H 434.583 -2.31143 1.90298 0
M  V30 4783 H 432.129 -1.11079 0.916372 0
M  V30 4784 H 434.082 -4.1985 0.361044 0
M  V30 4785 H 432.806 -3.23792 -0.427327 0
M  V30 4786 H 431.465 -3.2453 1.70517 0
M  V30 4787 H 431.113 -5.02999 -0.0111538 0
M  V30 4788 H 430.813 -5.64426 1.63393 0
M  V30 4789 H 432.337 -6.05386 0.796284 0
M  V30 4790 H 433.751 -4.99845 2.80763 0
M  V30 4791 H 432.148 -4.81774 3.57791 0
M  V30 4792 H 433.218 -3.41025 3.44717 0
M  V30 4793 N 434.561 -1.01147 -1.20859 0
M  V30 4794 C 435.791 -0.715872 -1.93801 0
M  V30 4795 C 436.199 0.726592 -1.74692 0
M  V30 4796 O 435.542 1.50397 -1.05482 0
M  V30 4797 C 435.604 -0.965269 -3.46299 0
M  V30 4798 C 435.268 -2.39584 -3.89164 0
M  V30 4799 C 436.265 -3.3764 -3.95342 0
M  V30 4800 C 433.95 -2.73522 -4.21297 0
M  V30 4801 C 435.944 -4.67698 -4.33056 0
M  V30 4802 C 433.631 -4.03794 -4.58687 0
M  V30 4803 C 434.629 -5.00693 -4.64538 0
M  V30 4804 O 434.317 -6.28635 -5.01072 0
M  V30 4805 H 434.049 -0.262524 -0.622942 0
M  V30 4806 H 436.603 -1.35413 -1.54443 0
M  V30 4807 H 434.833 -0.269847 -3.85757 0
M  V30 4808 H 436.522 -0.662051 -4.00464 0
M  V30 4809 H 437.288 -3.12757 -3.70686 0
M  V30 4810 H 433.167 -1.9879 -4.15937 0
M  V30 4811 H 436.711 -5.4333 -4.37537 0
M  V30 4812 H 432.608 -4.28459 -4.82797 0
M  V30 4813 H 433.376 -6.32847 -5.19083 0
M  V30 4814 N 436.039 1.36541 -0.78704 0
M  V30 4815 C 437.286 1.99304 -0.358341 0
M  V30 4816 C 437.614 1.62467 1.06933 0
M  V30 4817 O 436.869 0.870019 1.75297 0
M  V30 4818 C 437.168 3.54343 -0.466485 0
M  V30 4819 C 436.834 4.10993 -1.85461 0
M  V30 4820 C 435.496 4.26177 -2.23443 0
M  V30 4821 C 437.848 4.41895 -2.76366 0
M  V30 4822 C 435.176 4.69573 -3.51736 0
M  V30 4823 C 437.528 4.86722 -4.04084 0
M  V30 4824 C 436.192 5.00112 -4.42091 0
M  V30 4825 H 435.462 0.729306 -0.131126 0
M  V30 4826 H 438.109 1.63068 -1.00404 0
M  V30 4827 H 436.414 3.90918 0.262719 0
M  V30 4828 H 438.111 4.00833 -0.115854 0
M  V30 4829 H 434.701 3.99612 -1.54946 0
M  V30 4830 H 438.885 4.29735 -2.48277 0
M  V30 4831 H 434.141 4.78127 -3.81057 0
M  V30 4832 H 438.315 5.09598 -4.7464 0
M  V30 4833 H 435.942 5.33498 -5.41557 0
M  V30 4834 N 437.518 0.538854 1.48102 0
M  V30 4835 C 438.765 0.0080018 2.02498 0
M  V30 4836 C 439.093 -1.33437 1.41509 0
M  V30 4837 O 438.348 -1.87709 0.553507 0
M  V30 4838 C 438.647 -0.153808 3.57069 0
M  V30 4839 C 438.313 1.11533 4.36888 0
M  V30 4840 C 436.975 1.46314 4.58417 0
M  V30 4841 C 439.327 1.95718 4.83057 0
M  V30 4842 C 436.655 2.6516 5.23361 0
M  V30 4843 C 439.007 3.13751 5.49312 0
M  V30 4844 C 437.671 3.48866 5.69077 0
M  V30 4845 H 436.941 0.00292807 0.740994 0
M  V30 4846 H 439.588 0.706668 1.77984 0
M  V30 4847 H 437.893 -0.935309 3.80472 0
M  V30 4848 H 439.59 -0.579607 3.96789 0
M  V30 4849 H 436.18 0.834484 4.20398 0
M  V30 4850 H 440.364 1.70158 4.66219 0
M  V30 4851 H 435.62 2.92558 5.36861 0
M  V30 4852 H 439.794 3.79282 5.84053 0
M  V30 4853 H 437.421 4.41054 6.19173 0
M  V30 4854 N 438.996 -1.55193 0.274407 0
M  V30 4855 C 440.221 -2.04446 -0.348824 0
M  V30 4856 C 440.646 -1.15149 -1.48735 0
M  V30 4857 O 440.004 -0.149952 -1.80679 0
M  V30 4858 C 440.052 -3.51431 -0.808009 0
M  V30 4859 O 439.156 -3.65225 -1.91531 0
M  V30 4860 H 438.497 -0.66006 -0.0722276 0
M  V30 4861 H 441.027 -2.00481 0.408498 0
M  V30 4862 H 441.037 -3.92781 -1.10395 0
M  V30 4863 H 439.712 -4.15892 0.0249865 0
M  V30 4864 H 438.289 -3.35778 -1.62196 0
M  V30 4865 N 440.474 -0.00167713 -1.576 0
M  V30 4866 C 441.722 0.681471 -1.90264 0
M  V30 4867 C 442.043 1.7422 -0.875924 0
M  V30 4868 O 441.313 1.95709 0.0864412 0
M  V30 4869 H 439.893 0.254696 -0.702239 0
M  V30 4870 H 442.555 -0.0429996 -1.94853 0
M  V30 4871 H 441.651 1.15166 -2.90075 0
M  V30 4872 N 441.952 1.55251 0.271103 0
M  V30 4873 C 443.2 1.75599 1.00047 0
M  V30 4874 C 443.521 0.561188 1.8675 0
M  V30 4875 O 442.791 -0.423846 1.9126 0
M  V30 4876 H 441.371 0.647562 0.372387 0
M  V30 4877 H 444.033 1.92656 0.294876 0
M  V30 4878 H 443.129 2.65766 1.6363 0
M  V30 4879 N 443.43 -0.535701 1.48216 0
M  V30 4880 C 444.378 -1.66179 1.62749 0
M  V30 4881 C 445.372 -1.62034 0.49409 0
M  V30 4882 O 446.578 -1.6696 0.672624 0
M  V30 4883 H 442.953 -0.550244 0.512578 0
M  V30 4884 H 444.924 -1.51063 2.57337 0
M  V30 4885 C 443.673 -3.04471 1.67907 0
M  V30 4886 H 442.996 -3.08351 2.54479 0
M  V30 4887 H 444.436 -3.82894 1.82121 0
M  V30 4888 C 442.895 -3.34314 0.416596 0
M  V30 4889 O 443.425 -3.98905 -0.473014 0
M  V30 4890 N 441.631 -2.89149 0.290038 0
M  V30 4891 H 441.178 -2.36764 1.01493 0
M  V30 4892 H 441.136 -3.09486 -0.55367 0
M  V30 4893 N 444.908 -1.36708 -0.784132 0
M  V30 4894 C 446.155 -1.31231 -1.54222 0
M  V30 4895 C 446.483 0.106864 -1.94206 0
M  V30 4896 O 445.738 1.07734 -1.63376 0
M  V30 4897 C 446.037 -2.18571 -2.82774 0
M  V30 4898 C 445.703 -3.67039 -2.61903 0
M  V30 4899 C 444.365 -4.07503 -2.55919 0
M  V30 4900 C 446.717 -4.61149 -2.4288 0
M  V30 4901 C 444.045 -5.40211 -2.28886 0
M  V30 4902 C 446.397 -5.94081 -2.17373 0
M  V30 4903 C 445.061 -6.33664 -2.09825 0
M  V30 4904 H 444.331 -0.48021 -0.56434 0
M  V30 4905 H 446.978 -1.68807 -0.904233 0
M  V30 4906 H 445.283 -1.73949 -3.51068 0
M  V30 4907 H 446.98 -2.11655 -3.40592 0
M  V30 4908 H 443.57 -3.34941 -2.67418 0
M  V30 4909 H 447.754 -4.30756 -2.46501 0
M  V30 4910 H 443.01 -5.69855 -2.21529 0
M  V30 4911 H 447.184 -6.66566 -2.01649 0
M  V30 4912 H 444.811 -7.36423 -1.88641 0
M  V30 4913 N 446.386 1.0089 -1.21074 0
M  V30 4914 C 447.802 1.2695 -0.967257 0
M  V30 4915 C 448.002 1.9846 0.348673 0
M  V30 4916 O 447.058 2.28459 1.0753 0
M  V30 4917 C 448.371 2.09697 -2.15517 0
M  V30 4918 C 449.919 2.22937 -2.197 0
M  V30 4919 C 450.394 3.09064 -3.37999 0
M  V30 4920 N 451.885 3.16653 -3.38061 0
M  V30 4921 C 452.62 3.8354 -4.26245 0
M  V30 4922 N 452.116 4.52488 -5.2462 0
M  V30 4923 N 453.909 3.80141 -4.14064 0
M  V30 4924 H 446.06 0.529005 -2.05707 0
M  V30 4925 H 448.323 0.296148 -0.900556 0
M  V30 4926 H 448.029 1.64497 -3.10859 0
M  V30 4927 H 447.903 3.10444 -2.14253 0
M  V30 4928 H 450.29 2.67357 -1.24916 0
M  V30 4929 H 450.371 1.21673 -2.2501 0
M  V30 4930 H 450.015 2.65347 -4.33074 0
M  V30 4931 H 449.945 4.10433 -3.29928 0
M  V30 4932 H 452.436 2.67566 -2.66865 0
M  V30 4933 H 452.749 5.01219 -5.88217 0
M  V30 4934 H 451.094 4.51288 -5.28549 0
M  V30 4935 H 454.285 3.25427 -3.36474 0
M  V30 4936 H 454.458 4.31992 -4.82998 0
M  V30 4937 N 447.864 1.01787 1.20321 0
M  V30 4938 C 448.811 0.589197 2.23153 0
M  V30 4939 C 449.781 -0.391367 1.61423 0
M  V30 4940 O 450.966 -0.290518 1.88575 0
M  V30 4941 C 448.106 -0.0650747 3.45039 0
M  V30 4942 C 447.219 0.960207 4.21194 0
M  V30 4943 C 446.354 0.276854 5.30478 0
M  V30 4944 C 445.393 1.2888 5.98378 0
M  V30 4945 N 444.53 0.632031 6.99249 0
M  V30 4946 H 449.37 1.47071 2.59179 0
M  V30 4947 H 446.907 0.736192 1.27352 0
M  V30 4948 H 448.865 -0.461552 4.14639 0
M  V30 4949 H 447.495 -0.910233 3.09701 0
M  V30 4950 H 446.547 1.47484 3.50646 0
M  V30 4951 H 447.859 1.72977 4.67847 0
M  V30 4952 H 447.013 -0.175056 6.06447 0
M  V30 4953 H 445.752 -0.525004 4.84866 0
M  V30 4954 H 444.757 1.75109 5.21169 0
M  V30 4955 H 445.982 2.09196 6.46076 0
M  V30 4956 H 443.928 -0.149935 6.55829 0
M  V30 4957 H 443.845 1.33964 7.44036 0
M  V30 4958 H 445.113 0.203755 7.79234 0
M  V30 4959 N 449.342 -1.36122 0.79427 0
M  V30 4960 C 450.758 -1.5232 0.476525 0
M  V30 4961 C 450.958 -1.74685 -1.00436 0
M  V30 4962 O 450.014 -1.78115 -1.78973 0
M  V30 4963 C 451.327 -2.70607 1.31119 0
M  V30 4964 C 452.875 -2.8448 1.30537 0
M  V30 4965 C 453.35 -4.05778 2.12387 0
M  V30 4966 N 454.841 -4.12933 2.09859 0
M  V30 4967 C 455.576 -5.05876 2.69957 0
M  V30 4968 N 455.072 -6.04232 3.38934 0
M  V30 4969 N 456.865 -4.98528 2.59665 0
M  V30 4970 H 449.016 -1.1986 1.75349 0
M  V30 4971 H 451.279 -0.585418 0.745647 0
M  V30 4972 H 450.985 -2.60619 2.36158 0
M  V30 4973 H 450.859 -3.64888 0.955843 0
M  V30 4974 H 453.246 -2.93927 0.262876 0
M  V30 4975 H 453.327 -1.91093 1.70051 0
M  V30 4976 H 452.971 -3.97092 3.1667 0
M  V30 4977 H 452.901 -4.98323 1.70242 0
M  V30 4978 H 455.392 -3.42515 1.59662 0
M  V30 4979 H 455.705 -6.71724 3.82109 0
M  V30 4980 H 454.05 -6.04443 3.43036 0
M  V30 4981 H 457.241 -4.20641 2.05375 0
M  V30 4982 H 457.414 -5.70773 3.06793 0
M  V30 4983 N 450.82 -0.546701 -1.47814 0
M  V30 4984 C 451.75 0.195317 -2.32682 0
M  V30 4985 C 452.731 0.918981 -1.43139 0
M  V30 4986 O 453.916 0.901501 -1.72008 0
M  V30 4987 C 451.046 1.23237 -3.247 0
M  V30 4988 C 450 0.625818 -4.234 0
M  V30 4989 C 449.326 1.76674 -5.04669 0
M  V30 4990 C 450.626 -0.413515 -5.2066 0
M  V30 4991 H 452.32 -0.513184 -2.94969 0
M  V30 4992 H 449.866 -0.248241 -1.41844 0
M  V30 4993 H 451.819 1.75955 -3.82907 0
M  V30 4994 H 450.543 1.97067 -2.60446 0
M  V30 4995 H 449.202 0.120023 -3.66403 0
M  V30 4996 H 448.85 2.49383 -4.36826 0
M  V30 4997 H 448.55 1.36673 -5.71484 0
M  V30 4998 H 450.074 2.29738 -5.65732 0
M  V30 4999 H 451.488 0.0272042 -5.73294 0
M  V30 5000 H 449.885 -0.731825 -5.95621 0
M  V30 5001 H 450.955 -1.31325 -4.66778 0
M  V30 5002 N 452.299 1.55045 -0.282633 0
M  V30 5003 C 453.524 2.04628 0.337977 0
M  V30 5004 C 453.949 1.15937 1.48123 0
M  V30 5005 O 453.307 0.159532 1.80597 0
M  V30 5006 C 453.355 3.51854 0.78936 0
M  V30 5007 O 452.459 3.66236 1.89592 0
M  V30 5008 H 451.8 0.660434 0.0687261 0
M  V30 5009 H 454.33 2.00261 -0.419124 0
M  V30 5010 H 454.34 3.93361 1.08311 0
M  V30 5011 H 453.015 4.15873 -0.0470419 0
M  V30 5012 H 451.592 3.36633 1.60413 0
M  V30 5013 N 453.777 0.010035 1.57597 0
M  V30 5014 C 455.005 -0.683413 1.95287 0
M  V30 5015 C 455.42 -1.66747 0.885481 0
M  V30 5016 O 454.777 -1.82003 -0.134629 0
M  V30 5017 C 454.828 -1.40652 3.33015 0
M  V30 5018 O 454.549 -0.461916 4.35658 0
M  V30 5019 C 456.05 -2.19356 3.85225 0
M  V30 5020 H 453.27 -0.189708 0.643624 0
M  V30 5021 H 455.814 0.0641359 2.04399 0
M  V30 5022 H 453.969 -2.10562 3.2518 0
M  V30 5023 H 454.383 -0.973215 5.15392 0
M  V30 5024 H 455.857 -2.65433 4.83993 0
M  V30 5025 H 456.334 -3.02457 3.18459 0
M  V30 5026 H 456.94 -1.54442 3.96267 0
M  V30 5027 N 455.255 -1.55392 -0.262866 0
M  V30 5028 C 456.502 -1.76476 -0.993109 0
M  V30 5029 C 456.83 -0.571479 -1.85915 0
M  V30 5030 O 456.085 0.445733 -1.90556 0
M  V30 5031 C 456.384 -3.02889 -1.89718 0
M  V30 5032 C 456.05 -4.34974 -1.18781 0
M  V30 5033 C 454.712 -4.7087 -0.991699 0
M  V30 5034 C 457.064 -5.16695 -0.683798 0
M  V30 5035 C 454.392 -5.86036 -0.279024 0
M  V30 5036 C 456.744 -6.32598 0.0153327 0
M  V30 5037 C 455.408 -6.67127 0.223062 0
M  V30 5038 H 454.678 -0.64577 -0.363404 0
M  V30 5039 H 457.325 -1.89664 -0.264525 0
M  V30 5040 H 455.63 -2.84644 -2.6923 0
M  V30 5041 H 457.327 -3.16399 -2.46359 0
M  V30 5042 H 453.917 -4.06765 -1.35058 0
M  V30 5043 H 458.101 -4.8943 -0.8229 0
M  V30 5044 H 453.357 -6.11306 -0.107456 0
M  V30 5045 H 457.531 -6.95171 0.413584 0
M  V30 5046 H 455.158 -7.56216 0.777265 0
M  V30 5047 N 456.733 0.527833 -1.48498 0
M  V30 5048 C 458.149 0.856571 -1.34666 0
M  V30 5049 C 458.349 1.98271 -0.35931 0
M  V30 5050 O 457.405 2.51551 0.218703 0
M  V30 5051 C 458.718 1.22207 -2.74747 0
M  V30 5052 C 460.266 1.33183 -2.83251 0
M  V30 5053 C 460.741 1.73075 -4.24039 0
M  V30 5054 N 462.232 1.80174 -4.26722 0
M  V30 5055 C 462.967 2.1243 -5.32598 0
M  V30 5056 N 462.463 2.43096 -6.4875 0
M  V30 5057 N 464.256 2.13454 -5.19994 0
M  V30 5058 H 456.407 -0.215174 -2.11307 0
M  V30 5059 H 458.67 -0.0336281 -0.947403 0
M  V30 5060 H 458.376 0.468195 -3.4857 0
M  V30 5061 H 458.25 2.17173 -3.08409 0
M  V30 5062 H 460.637 2.07647 -2.09683 0
M  V30 5063 H 460.718 0.363333 -2.53206 0
M  V30 5064 H 460.362 0.991712 -4.98124 0
M  V30 5065 H 460.292 2.70979 -4.51529 0
M  V30 5066 H 462.783 1.58744 -3.42942 0
M  V30 5067 H 463.096 2.6682 -7.25277 0
M  V30 5068 H 461.441 2.40611 -6.52021 0
M  V30 5069 H 464.632 1.88956 -4.28268 0
M  V30 5070 H 464.805 2.38261 -6.02608 0
M  V30 5071 N 458.211 1.37122 0.776871 0
M  V30 5072 C 459.158 1.3247 1.88998 0
M  V30 5073 C 460.128 0.191143 1.64997 0
M  V30 5074 O 461.313 0.379683 1.86984 0
M  V30 5075 C 458.453 1.13241 3.25992 0
M  V30 5076 C 457.566 2.35782 3.61982 0
M  V30 5077 C 456.701 2.09465 4.88158 0
M  V30 5078 C 455.74 3.279 5.16864 0
M  V30 5079 N 454.877 3.01167 6.34226 0
M  V30 5080 H 459.717 2.27642 1.9231 0
M  V30 5081 H 457.254 1.13125 0.94027 0
M  V30 5082 H 459.212 1.00115 4.0501 0
M  V30 5083 H 457.842 0.217186 3.22069 0
M  V30 5084 H 456.894 2.59666 2.77989 0
M  V30 5085 H 458.206 3.24125 3.79137 0
M  V30 5086 H 457.36 1.93341 5.75069 0
M  V30 5087 H 456.099 1.18452 4.73097 0
M  V30 5088 H 455.104 3.44569 4.2843 0
M  V30 5089 H 456.329 4.19757 5.33836 0
M  V30 5090 H 454.275 2.12779 6.20533 0
M  V30 5091 H 454.192 3.83052 6.51772 0
M  V30 5092 H 455.46 2.88649 7.24087 0
M  V30 5093 N 459.689 -1.00246 1.21608 0
M  V30 5094 C 460.639 -2.07492 0.945051 0
M  V30 5095 C 461.623 -1.60585 -0.100675 0
M  V30 5096 O 462.815 -1.76667 0.10859 0
M  V30 5097 C 459.944 -3.39425 0.514342 0
M  V30 5098 C 459.03 -3.92993 1.59428 0
M  V30 5099 N 459.421 -4.19898 2.81991 0
M  V30 5100 C 457.719 -4.21297 1.46374 0
M  V30 5101 C 458.42 -4.63297 3.51754 0
M  V30 5102 N 457.396 -4.66421 2.79199 0
M  V30 5103 H 461.198 -2.26222 1.87619 0
M  V30 5104 H 458.712 -1.18339 1.11219 0
M  V30 5105 H 460.709 -4.15808 0.301527 0
M  V30 5106 H 459.369 -3.22101 -0.410008 0
M  V30 5107 H 460.38 -4.08377 3.1851 0
M  V30 5108 H 457.057 -4.13095 0.604863 0
M  V30 5109 H 458.447 -4.92816 4.56708 0
M  V30 5110 N 461.167 -1.02423 -1.1978 0
M  V30 5111 C 462.392 -0.7373 -1.93852 0
M  V30 5112 C 462.817 0.696923 -1.74713 0
M  V30 5113 O 462.175 1.48056 -1.04638 0
M  V30 5114 C 462.223 -1.08783 -3.438 0
M  V30 5115 O 461.327 -0.20383 -4.11896 0
M  V30 5116 H 460.668 -0.27284 -0.605355 0
M  V30 5117 H 463.198 -1.36966 -1.51992 0
M  V30 5118 H 463.208 -1.04276 -3.9445 0
M  V30 5119 H 461.883 -2.13274 -3.57053 0
M  V30 5120 H 460.46 -0.307091 -3.71633 0
M  V30 5121 N 462.645 1.35699 -0.801477 0
M  V30 5122 C 463.575 2.32436 -0.222658 0
M  V30 5123 C 464.556 1.5723 0.649057 0
M  V30 5124 O 465.741 1.85324 0.580387 0
M  V30 5125 C 462.871 3.41469 0.633719 0
M  V30 5126 C 461.825 4.27774 -0.139083 0
M  V30 5127 C 461.151 5.28082 0.838666 0
M  V30 5128 C 462.451 5.04946 -1.33517 0
M  V30 5129 H 464.145 2.81094 -1.03086 0
M  V30 5130 H 461.691 1.35146 -0.497155 0
M  V30 5131 H 463.644 4.08143 1.04868 0
M  V30 5132 H 462.368 2.91408 1.47475 0
M  V30 5133 H 461.027 3.62673 -0.535156 0
M  V30 5134 H 460.675 4.7429 1.67506 0
M  V30 5135 H 460.375 5.86695 0.32594 0
M  V30 5136 H 461.899 5.97628 1.25194 0
M  V30 5137 H 463.313 5.64593 -0.995349 0
M  V30 5138 H 461.71 5.7303 -1.78202 0
M  V30 5139 H 462.78 4.35886 -2.12442 0
M  V30 5140 N 464.123 0.554532 1.47522 0
M  V30 5141 C 465.348 0.0322661 2.07375 0
M  V30 5142 C 465.773 -1.25079 1.40488 0
M  V30 5143 O 465.131 -1.74859 0.47896 0
M  V30 5144 C 465.179 -0.149397 3.6029 0
M  V30 5145 O 464.283 -1.21259 3.9417 0
M  V30 5146 H 463.624 0.0501228 0.662106 0
M  V30 5147 H 466.154 0.769452 1.8958 0
M  V30 5148 H 466.164 -0.364437 4.06369 0
M  V30 5149 H 464.839 0.787743 4.08372 0
M  V30 5150 H 463.416 -0.97825 3.5984 0
M  V30 5151 N 465.601 -1.54893 0.290851 0
M  V30 5152 C 466.826 -2.04804 -0.32712 0
M  V30 5153 C 467.251 -1.16721 -1.47506 0
M  V30 5154 O 466.609 -0.169107 -1.8051 0
M  V30 5155 C 466.657 -3.52268 -0.770689 0
M  V30 5156 O 465.761 -3.67236 -1.87647 0
M  V30 5157 H 465.102 -0.660789 -0.0652227 0
M  V30 5158 H 467.632 -2.00036 0.429739 0
M  V30 5159 H 467.642 -3.9393 -1.06223 0
M  V30 5160 H 466.317 -4.15843 0.069096 0
M  V30 5161 H 464.894 -3.37479 -1.58626 0
M  V30 5162 N 467.08 -0.0183926 -1.57589 0
M  V30 5163 C 468.326 0.663543 -1.91638 0
M  V30 5164 C 468.659 1.72392 -0.894134 0
M  V30 5165 O 467.934 1.94316 0.0846449 0
M  V30 5166 C 468.217 1.28984 -3.36207 0
M  V30 5167 C 468.07 0.239761 -4.49161 0
M  V30 5168 C 469.389 2.2109 -3.80536 0
M  V30 5169 H 466.508 0.239746 -0.696915 0
M  V30 5170 H 469.15 -0.073456 -1.89858 0
M  V30 5171 H 467.3 1.91799 -3.37854 0
M  V30 5172 H 468.972 -0.390119 -4.59647 0
M  V30 5173 H 467.215 -0.435972 -4.31604 0
M  V30 5174 H 467.886 0.717383 -5.47319 0
M  V30 5175 H 470.362 1.68273 -3.80557 0
M  V30 5176 H 469.238 2.61869 -4.82406 0
M  V30 5177 H 469.499 3.09764 -3.15434 0
M  V30 5178 N 468.558 1.5553 0.254621 0
M  V30 5179 C 469.786 1.81046 1.00149 0
M  V30 5180 C 470.201 0.593047 1.79244 0
M  V30 5181 O 469.558 -0.438196 1.77161 0
M  V30 5182 C 469.609 3.04684 1.94551 0
M  V30 5183 O 469.33 4.21725 1.18658 0
M  V30 5184 C 470.831 3.42943 2.80901 0
M  V30 5185 H 468.051 0.602653 0.295044 0
M  V30 5186 H 470.595 2.02576 0.279842 0
M  V30 5187 H 468.75 2.85226 2.62154 0
M  V30 5188 H 469.164 4.91746 1.82445 0
M  V30 5189 H 470.638 4.32576 3.42902 0
M  V30 5190 H 471.115 2.63176 3.51617 0
M  V30 5191 H 471.721 3.64724 2.18762 0
M  V30 5192 N 470.036 -0.519951 1.48776 0
M  V30 5193 C 471.266 -1.29783 1.60748 0
M  V30 5194 C 471.674 -1.87253 0.27072 0
M  V30 5195 O 471.017 -1.67628 -0.751438 0
M  V30 5196 C 471.079 -2.47984 2.60277 0
M  V30 5197 C 470.743 -2.11526 4.051 0
M  V30 5198 C 471.74 -1.66608 4.92481 0
M  V30 5199 C 469.425 -2.21742 4.50706 0
M  V30 5200 C 471.419 -1.32384 6.23501 0
M  V30 5201 C 469.106 -1.87129 5.81744 0
M  V30 5202 C 470.104 -1.42523 6.67964 0
M  V30 5203 O 469.792 -1.0837 7.96562 0
M  V30 5204 H 469.524 -0.400562 0.544542 0
M  V30 5205 H 472.078 -0.632879 1.95407 0
M  V30 5206 H 470.308 -3.17493 2.2076 0
M  V30 5207 H 471.997 -3.10036 2.61978 0
M  V30 5208 H 472.763 -1.58178 4.58481 0
M  V30 5209 H 468.642 -2.55415 3.83776 0
M  V30 5210 H 472.186 -0.974949 6.90754 0
M  V30 5211 H 468.083 -1.95204 6.15277 0
M  V30 5212 H 468.851 -1.21681 8.09405 0
M  V30 5213 N 471.514 -1.37532 -0.769588 0
M  V30 5214 C 472.76 -1.33057 -1.53048 0
M  V30 5215 C 473.093 0.0841865 -1.94017 0
M  V30 5216 O 472.368 1.04198 -1.64235 0
M  V30 5217 C 472.651 -2.27166 -2.79406 0
M  V30 5218 C 472.504 -3.77429 -2.44677 0
M  V30 5219 C 473.823 -2.19683 -3.81349 0
M  V30 5220 H 470.942 -0.484655 -0.555228 0
M  V30 5221 H 473.584 -1.68251 -0.882702 0
M  V30 5222 H 471.734 -1.97283 -3.34682 0
M  V30 5223 H 473.406 -4.17918 -1.953 0
M  V30 5224 H 471.649 -3.95892 -1.77346 0
M  V30 5225 H 472.32 -4.38716 -3.35011 0
M  V30 5226 H 474.796 -2.46029 -3.35573 0
M  V30 5227 H 473.672 -2.87668 -4.67481 0
M  V30 5228 H 473.933 -1.19045 -4.25771 0
M  V30 5229 N 472.992 0.995999 -1.22138 0
M  V30 5230 C 474.403 1.54961 -1.04135 0
M  V30 5231 C 474.754 1.92159 0.396147 0
M  V30 5232 O 473.879 1.74435 1.28069 0
M  V30 5233 C 474.474 2.81581 -1.88408 0
M  V30 5234 C 473.033 3.33396 -1.74712 0
M  V30 5235 C 472.18 2.06509 -1.85066 0
M  V30 5236 H 475.131 0.817436 -1.36028 0
M  V30 5237 H 475.152 3.53822 -1.39966 0
M  V30 5238 H 474.664 2.54476 -2.93025 0
M  V30 5239 H 472.765 3.65416 -0.728159 0
M  V30 5240 H 472.878 4.04208 -2.57202 0
M  V30 5241 H 471.242 2.19925 -1.28472 0
M  V30 5242 H 472.025 1.81804 -2.91208 0
M  V30 5243 N 474.47 1.03057 1.19235 0
M  V30 5244 C 475.886 0.747947 1.40989 0
M  V30 5245 C 476.086 -0.666752 1.90149 0
M  V30 5246 O 475.142 -1.43249 2.07933 0
M  V30 5247 C 476.455 1.7855 2.41951 0
M  V30 5248 C 478.003 1.80524 2.55695 0
M  V30 5249 C 478.478 2.83243 3.59913 0
M  V30 5250 N 479.969 2.8207 3.67411 0
M  V30 5251 C 480.704 3.58204 4.47747 0
M  V30 5252 N 480.2 4.44057 5.31775 0
M  V30 5253 N 481.993 3.46738 4.42413 0
M  V30 5254 H 474.144 1.94367 0.856468 0
M  V30 5255 H 476.407 0.840412 0.438647 0
M  V30 5256 H 476.113 2.79973 2.12857 0
M  V30 5257 H 475.987 1.6092 3.41152 0
M  V30 5258 H 478.374 0.79778 2.84112 0
M  V30 5259 H 478.455 2.02229 1.56643 0
M  V30 5260 H 478.099 3.84161 3.32239 0
M  V30 5261 H 478.029 2.58795 4.5862 0
M  V30 5262 H 480.52 2.19803 3.074 0
M  V30 5263 H 480.833 4.98884 5.90199 0
M  V30 5264 H 479.178 4.48129 5.3123 0
M  V30 5265 H 482.369 2.79077 3.75811 0
M  V30 5266 H 482.542 4.06322 5.04783 0
M  V30 5267 N 475.948 -1.35272 0.808662 0
M  V30 5268 C 476.895 -2.29764 0.218482 0
M  V30 5269 C 477.865 -1.52911 -0.648652 0
M  V30 5270 O 479.05 -1.81341 -0.593297 0
M  V30 5271 C 476.19 -3.39388 -0.625282 0
M  V30 5272 C 475.303 -4.31202 0.262516 0
M  V30 5273 C 474.438 -5.27919 -0.589451 0
M  V30 5274 C 473.477 -6.11371 0.298617 0
M  V30 5275 N 472.614 -7.0022 -0.513443 0
M  V30 5276 H 477.454 -2.79645 1.02968 0
M  V30 5277 H 474.991 -1.37629 0.519303 0
M  V30 5278 H 476.949 -4.01615 -1.12966 0
M  V30 5279 H 475.579 -2.90777 -1.40173 0
M  V30 5280 H 474.631 -3.69962 0.885013 0
M  V30 5281 H 475.943 -4.89748 0.945971 0
M  V30 5282 H 475.097 -5.95529 -1.15888 0
M  V30 5283 H 473.836 -4.69875 -1.30647 0
M  V30 5284 H 472.841 -5.42707 0.880301 0
M  V30 5285 H 474.066 -6.71494 1.01352 0
M  V30 5286 H 472.012 -6.44662 -1.21439 0
M  V30 5287 H 471.929 -7.55917 0.111922 0
M  V30 5288 H 473.197 -7.72175 -1.06608 0
M  V30 5289 N 477.426 -0.562348 -1.47226 0
M  V30 5290 C 478.373 0.182461 -2.30078 0
M  V30 5291 C 479.343 0.903503 -1.39377 0
M  V30 5292 O 480.528 0.898188 -1.68337 0
M  V30 5293 C 477.668 1.20322 -3.23445 0
M  V30 5294 C 476.781 0.487717 -4.29238 0
M  V30 5295 C 475.916 1.49422 -5.09752 0
M  V30 5296 C 474.955 0.763976 -6.07314 0
M  V30 5297 N 474.092 1.71755 -6.80768 0
M  V30 5298 H 478.932 -0.530169 -2.93246 0
M  V30 5299 H 476.469 -0.273276 -1.44539 0
M  V30 5300 H 478.427 1.80768 -3.76004 0
M  V30 5301 H 477.057 1.88382 -2.6213 0
M  V30 5302 H 476.109 -0.231374 -3.79696 0
M  V30 5303 H 477.421 -0.0841003 -4.98729 0
M  V30 5304 H 476.575 2.17206 -5.66486 0
M  V30 5305 H 475.314 2.09995 -4.40174 0
M  V30 5306 H 474.319 0.0722344 -5.49753 0
M  V30 5307 H 475.544 0.16391 -6.78902 0
M  V30 5308 H 473.49 2.31177 -6.13916 0
M  V30 5309 H 473.407 1.19802 -7.46447 0
M  V30 5310 H 474.675 2.38638 -7.42073 0
M  V30 5311 N 478.904 1.54736 -0.299062 0
M  V30 5312 C 479.867 2.22127 0.565012 0
M  V30 5313 C 480.867 1.20669 1.06281 0
M  V30 5314 O 482.057 1.45417 0.959145 0
M  V30 5315 C 479.189 2.90611 1.78208 0
M  V30 5316 H 480.382 2.99891 -0.0237448 0
M  V30 5317 H 477.935 1.5622 -0.0498788 0
M  V30 5318 H 478.67 2.16921 2.41072 0
M  V30 5319 H 478.455 3.64984 1.43281 0
M  V30 5320 H 479.945 3.42026 2.396 0
M  V30 5321 N 480.382 0.0267497 1.57577 0
M  V30 5322 C 481.607 -0.666227 1.96408 0
M  V30 5323 C 482.032 -1.65004 0.903071 0
M  V30 5324 O 481.39 -1.80787 -0.136263 0
M  V30 5325 C 481.438 -1.35101 3.34335 0
M  V30 5326 O 480.542 -2.46623 3.30531 0
M  V30 5327 H 479.883 -0.175206 0.640468 0
M  V30 5328 H 482.413 0.0878977 2.04411 0
M  V30 5329 H 482.423 -1.70834 3.70513 0
M  V30 5330 H 481.098 -0.629844 4.11103 0
M  V30 5331 H 479.675 -2.13019 3.06068 0
M  V30 5332 N 481.861 -1.55662 -0.24637 0
M  V30 5333 C 482.791 -1.93377 -1.30873 0
M  V30 5334 C 483.772 -0.798773 -1.50179 0
M  V30 5335 O 484.957 -1.0591 -1.62778 0
M  V30 5336 C 482.087 -2.22893 -2.66338 0
M  V30 5337 C 481.041 -3.38649 -2.61727 0
M  V30 5338 C 480.367 -3.53708 -4.00992 0
M  V30 5339 C 481.667 -4.74323 -2.18666 0
M  V30 5340 H 483.361 -2.82363 -0.995552 0
M  V30 5341 H 480.907 -1.35854 -0.477464 0
M  V30 5342 H 482.86 -2.47866 -3.40794 0
M  V30 5343 H 481.584 -1.30733 -2.99293 0
M  V30 5344 H 480.243 -3.13685 -1.89729 0
M  V30 5345 H 479.891 -2.58967 -4.31214 0
M  V30 5346 H 479.591 -4.31551 -3.98795 0
M  V30 5347 H 481.115 -3.81003 -4.77147 0
M  V30 5348 H 482.529 -4.98665 -2.82854 0
M  V30 5349 H 480.926 -5.55273 -2.27579 0
M  V30 5350 H 481.996 -4.71349 -1.13834 0
M  V30 5351 N 483.339 0.512053 -1.4905 0
M  V30 5352 C 484.75 1.09376 -1.51307 0
M  V30 5353 C 485.101 1.94 -0.292971 0
M  V30 5354 O 484.226 2.07965 0.598277 0
M  V30 5355 C 484.821 1.99031 -2.74176 0
M  V30 5356 C 483.38 2.52385 -2.79247 0
M  V30 5357 C 482.527 1.29749 -2.45073 0
M  V30 5358 H 485.478 0.296467 -1.55906 0
M  V30 5359 H 485.499 2.83569 -2.53711 0
M  V30 5360 H 485.011 1.37412 -3.62959 0
M  V30 5361 H 483.112 3.17673 -1.94716 0
M  V30 5362 H 483.225 2.90293 -3.81139 0
M  V30 5363 H 481.589 1.61912 -1.96612 0
M  V30 5364 H 482.372 0.698555 -3.36118 0
M  V30 5365 N 484.817 1.37938 0.762283 0
M  V30 5366 C 485.727 1.36681 1.90671 0
M  V30 5367 C 486.743 0.265078 1.71969 0
M  V30 5368 O 487.919 0.502055 1.95042 0
M  V30 5369 C 484.984 1.18211 3.25925 0
M  V30 5370 C 484.045 2.3811 3.57214 0
M  V30 5371 C 483.278 2.20512 4.86014 0
M  V30 5372 O 483.501 1.19429 5.57757 0
M  V30 5373 O 482.435 3.08911 5.16583 0
M  V30 5374 H 486.261 2.33091 1.94685 0
M  V30 5375 H 483.846 1.18767 0.906356 0
M  V30 5376 H 485.728 1.09937 4.06807 0
M  V30 5377 H 484.403 0.248807 3.22742 0
M  V30 5378 H 483.31 2.51958 2.76529 0
M  V30 5379 H 484.643 3.30041 3.65149 0
M  V30 5380 N 486.295 -0.989507 1.22664 0
M  V30 5381 C 487.242 -2.08024 0.999733 0
M  V30 5382 C 488.212 -1.65909 -0.0797047 0
M  V30 5383 O 489.397 -1.90669 0.0705715 0
M  V30 5384 C 486.537 -3.40067 0.587234 0
M  V30 5385 C 485.65 -3.95505 1.73781 0
M  V30 5386 C 484.785 -5.15722 1.27297 0
M  V30 5387 C 483.824 -5.63305 2.39488 0
M  V30 5388 N 482.961 -6.74758 1.94026 0
M  V30 5389 H 487.801 -2.26768 1.9334 0
M  V30 5390 H 485.338 -1.11171 0.963297 0
M  V30 5391 H 487.296 -4.15899 0.329227 0
M  V30 5392 H 485.926 -3.21314 -0.309426 0
M  V30 5393 H 484.978 -3.16513 2.11006 0
M  V30 5394 H 486.29 -4.26797 2.58158 0
M  V30 5395 H 485.444 -5.98854 0.972546 0
M  V30 5396 H 484.183 -4.86061 0.399445 0
M  V30 5397 H 483.188 -4.78759 2.70315 0
M  V30 5398 H 484.413 -5.94988 3.27362 0
M  V30 5399 H 482.359 -6.46874 1.09041 0
M  V30 5400 H 482.276 -7.05386 2.71968 0
M  V30 5401 H 483.544 -7.61387 1.67062 0
M  V30 5402 N 487.773 -1.03688 -1.18687 0
M  V30 5403 C 489.021 -0.736572 -1.88199 0
M  V30 5404 C 489.342 0.737665 -1.80509 0
M  V30 5405 O 488.612 1.53204 -1.22088 0
M  V30 5406 H 487.192 -0.269466 -0.696704 0
M  V30 5407 H 489.854 -1.31282 -1.44052 0
M  V30 5408 H 488.95 -1.03802 -2.94332 0
M  V30 5409 N 489.251 1.34841 -0.815825 0
M  V30 5410 C 490.161 2.33425 -0.234462 0
M  V30 5411 C 491.177 1.62295 0.627413 0
M  V30 5412 O 492.353 1.94109 0.536987 0
M  V30 5413 C 489.418 3.41471 0.599849 0
M  V30 5414 C 488.479 4.28362 -0.283596 0
M  V30 5415 C 487.712 5.31248 0.51099 0
M  V30 5416 O 487.935 5.43056 1.7449 0
M  V30 5417 O 486.869 6.01812 -0.10297 0
M  V30 5418 H 490.695 2.84962 -1.05024 0
M  V30 5419 H 488.28 1.37774 -0.577809 0
M  V30 5420 H 490.162 4.07464 1.07475 0
M  V30 5421 H 488.837 2.9219 1.39308 0
M  V30 5422 H 487.744 3.65318 -0.805836 0
M  V30 5423 H 489.077 4.81066 -1.041 0
M  V30 5424 N 490.729 0.570148 1.46925 0
M  V30 5425 C 491.639 -0.173061 2.33961 0
M  V30 5426 C 492.655 -0.898825 1.48987 0
M  V30 5427 O 493.831 -0.864825 1.81887 0
M  V30 5428 C 490.896 -1.18177 3.25937 0
M  V30 5429 C 489.957 -0.462041 4.26806 0
M  V30 5430 C 489.19 -1.4227 5.14388 0
M  V30 5431 O 489.413 -2.65842 5.04662 0
M  V30 5432 O 488.347 -0.940127 5.94513 0
M  V30 5433 H 492.173 0.541216 2.98839 0
M  V30 5434 H 489.758 0.330647 1.45695 0
M  V30 5435 H 491.64 -1.76372 3.82715 0
M  V30 5436 H 490.315 -1.87774 2.63671 0
M  V30 5437 H 489.222 0.161429 3.73752 0
M  V30 5438 H 490.555 0.192719 4.91823 0
M  V30 5439 N 492.207 -1.54576 0.307264 0
M  V30 5440 C 493.456 -1.99442 -0.300976 0
M  V30 5441 C 493.769 -1.19928 -1.5452 0
M  V30 5442 O 494.975 -1.55092 -2.22842 0
M  V30 5443 C 493.431 -3.55084 -0.586809 0
M  V30 5444 C 493.039 -4.43413 0.639438 0
M  V30 5445 C 494.783 -4.0846 -1.1559 0
M  V30 5446 C 492.69 -5.90499 0.326411 0
M  V30 5447 H 491.62 -0.744986 -0.116238 0
M  V30 5448 H 494.271 -1.787 0.416947 0
M  V30 5449 H 492.653 -3.71749 -1.36449 0
M  V30 5450 H 493.827 -4.38522 1.41545 0
M  V30 5451 H 492.142 -4.00842 1.1276 0
M  V30 5452 H 494.739 -5.15926 -1.40445 0
M  V30 5453 H 495.082 -3.59443 -2.10015 0
M  V30 5454 H 495.615 -3.95362 -0.439778 0
M  V30 5455 H 492.354 -6.43676 1.23939 0
M  V30 5456 H 491.874 -5.98382 -0.412212 0
M  V30 5457 H 493.553 -6.46962 -0.0697393 0
M  V30 5458 N 493.685 -0.035106 -1.57561 0
M  V30 5459 C 494.925 0.646316 -1.93913 0
M  V30 5460 C 495.289 1.68947 -0.912185 0
M  V30 5461 O 496.49 2.42381 -1.1621 0
M  V30 5462 C 494.761 1.24136 -3.35149 0
M  V30 5463 S 496.32 1.94302 -3.93436 0
M  V30 5464 H 493.138 0.212642 -0.678457 0
M  V30 5465 H 495.74 -0.100203 -1.95243 0
M  V30 5466 H 494.444 0.46979 -4.07702 0
M  V30 5467 H 493.975 2.02505 -3.37276 0
M  V30 5468 H 495.99 3.22205 -3.77357 0
M  V30 5469 N 495.163 1.55791 0.238111 0
M  V30 5470 C 496.11 1.9105 1.29493 0
M  V30 5471 C 497.08 0.765733 1.47397 0
M  V30 5472 O 498.265 1.02017 1.61236 0
M  V30 5473 C 495.405 2.21826 2.64362 0
M  V30 5474 C 494.518 3.49153 2.54394 0
M  V30 5475 C 493.653 3.69455 3.81676 0
M  V30 5476 C 492.692 4.90353 3.66361 0
M  V30 5477 N 491.829 5.07131 4.85554 0
M  V30 5478 H 496.669 2.81172 0.987233 0
M  V30 5479 H 494.206 1.39179 0.476203 0
M  V30 5480 H 496.164 2.37675 3.4288 0
M  V30 5481 H 494.794 1.34897 2.93262 0
M  V30 5482 H 493.846 3.41587 1.67399 0
M  V30 5483 H 495.158 4.37818 2.38991 0
M  V30 5484 H 494.312 3.85311 4.68636 0
M  V30 5485 H 493.051 2.7904 3.99985 0
M  V30 5486 H 492.056 4.74464 2.77784 0
M  V30 5487 H 493.281 5.82237 3.49538 0
M  V30 5488 H 491.227 4.19654 5.04209 0
M  V30 5489 H 491.144 5.89899 4.72816 0
M  V30 5490 H 492.412 5.27407 5.73988 0
M  V30 5491 N 496.642 -0.504142 1.49319 0
M  V30 5492 C 497.888 -1.26033 1.58882 0
M  V30 5493 C 498.221 -1.92268 0.273274 0
M  V30 5494 O 497.496 -1.80567 -0.72291 0
M  V30 5495 C 497.779 -2.32976 2.7458 0
M  V30 5496 C 497.632 -1.71263 4.1592 0
M  V30 5497 C 498.951 -3.34561 2.85932 0
M  V30 5498 H 496.07 -0.456863 0.578312 0
M  V30 5499 H 498.712 -0.558965 1.81592 0
M  V30 5500 H 496.862 -2.92796 2.55348 0
M  V30 5501 H 498.534 -1.15294 4.4666 0
M  V30 5502 H 496.777 -1.01686 4.21714 0
M  V30 5503 H 497.448 -2.48816 4.92742 0
M  V30 5504 H 499.924 -2.84727 3.0343 0
M  V30 5505 H 498.8 -4.06754 3.68568 0
M  V30 5506 H 499.061 -3.96695 1.95154 0
M  V30 5507 O 498.159 -1.47868 -0.649398 0
M  V30 5508 H 498.85 -1.43327 -1.30297 0
M  V30 END ATOM
M  V30 BEGIN BOND
M  V30 END BOND
M  V30 END CTAB
M  END
$$$$
