drugbank_target|P10614 Lanosterol 14-alpha demethylase (DB06890; DB07560; DB07568; DB07569; DB07572; DB07635)
 OpenBabel12092119583D

  0  0  0     0  0            999 V3000
M  V30 BEGIN CTAB
M  V30 COUNTS 8573 8690 0 0 0
M  V30 BEGIN ATOM
M  V30 1 H -0.908 1.98254 -0.117106 0
M  V30 2 N 0 1.576 0 0
M  V30 3 C 0.933 2.03868 1.02534 0
M  V30 4 C 1.911 0.928543 1.3348 0
M  V30 5 O 3.095 1.19667 1.45644 0
M  V30 6 C 0.222 2.43627 2.35294 0
M  V30 7 C -0.732 3.65373 2.2001 0
M  V30 8 S 0.101 5.13292 1.52614 0
M  V30 9 C 1.257 5.56322 2.86805 0
M  V30 10 H 1.49 2.90518 0.631377 0
M  V30 11 H -0.977 1.52953 0.210867 0
M  V30 12 H 0.981 2.67203 3.11629 0
M  V30 13 H -0.358 1.57376 2.7183 0
M  V30 14 H -1.165 3.90944 3.18086 0
M  V30 15 H -1.563 3.418 1.51819 0
M  V30 16 H 0.729 5.58782 3.83104 0
M  V30 17 H 1.672 6.56266 2.65933 0
M  V30 18 H 2.08 4.83886 2.90714 0
M  V30 19 N 1.4781 -0.272755 1.55222 0
M  V30 20 C 2.7031 -1.02683 1.80197 0
M  V30 21 C 3.1281 -1.79142 0.573551 0
M  V30 22 O 2.4861 -1.74917 -0.476849 0
M  V30 23 C 2.5341 -1.9609 3.02624 0
M  V30 24 O 1.6381 -3.04863 2.77727 0
M  V30 25 H 0.9791 -0.293557 0.595584 0
M  V30 26 H 3.5091 -0.30159 2.02365 0
M  V30 27 H 3.5191 -2.38039 3.31363 0
M  V30 28 H 2.1941 -1.39851 3.91682 0
M  V30 29 H 0.7711 -2.67228 2.60084 0
M  V30 30 N 2.9562 -1.48159 -0.537278 0
M  V30 31 C 3.9192 -1.61665 -1.62472 0
M  V30 32 C 4.9192 -0.490395 -1.5314 0
M  V30 33 O 6.1092 -0.755998 -1.5694 0
M  V30 34 C 3.2412 -1.57997 -3.02076 0
M  V30 35 H 4.4342 -2.58621 -1.51839 0
M  V30 36 H 1.9872 -1.36647 -0.758771 0
M  V30 37 H 2.7222 -0.624913 -3.18222 0
M  V30 38 H 2.5072 -2.39755 -3.10258 0
M  V30 39 H 3.9972 -1.70627 -3.81151 0
M  V30 40 N 4.4343 0.785586 -1.36625 0
M  V30 41 C 5.6623 1.57448 -1.3423 0
M  V30 42 C 6.0773 1.88649 0.0755653 0
M  V30 43 O 5.4343 1.50414 1.03354 0
M  V30 44 C 5.4853 2.89316 -2.16745 0
M  V30 45 O 5.2063 2.59459 -3.53005 0
M  V30 46 C 6.7073 3.83606 -2.22174 0
M  V30 47 H 3.9273 0.488226 -0.4603 0
M  V30 48 H 6.4713 0.974733 -1.79775 0
M  V30 49 H 4.6263 3.4575 -1.74745 0
M  V30 50 H 5.0403 3.43804 -3.96105 0
M  V30 51 H 6.5143 4.73181 -2.8426 0
M  V30 52 H 6.9913 4.21734 -1.22627 0
M  V30 53 H 7.5973 3.33104 -2.64427 0
M  V30 54 N 5.9124 1.20967 1.01018 0
M  V30 55 C 6.8594 0.964281 2.09691 0
M  V30 56 C 7.8294 -0.107853 1.65749 0
M  V30 57 O 9.0144 0.0381987 1.90762 0
M  V30 58 C 6.1544 0.52943 3.41015 0
M  V30 59 C 5.2674 1.67043 3.98398 0
M  V30 60 C 4.4024 1.18525 5.17808 0
M  V30 61 C 3.4414 2.29892 5.67288 0
M  V30 62 N 2.5784 1.82546 6.77954 0
M  V30 63 H 7.4184 1.89463 2.30017 0
M  V30 64 H 4.9554 0.944289 1.1279 0
M  V30 65 H 6.9134 0.258588 4.16398 0
M  V30 66 H 5.5434 -0.363919 3.20742 0
M  V30 67 H 4.5954 2.05603 3.20049 0
M  V30 68 H 5.9074 2.50877 4.31117 0
M  V30 69 H 5.0614 0.870762 6.00419 0
M  V30 70 H 3.8004 0.316887 4.86669 0
M  V30 71 H 2.8054 2.6215 4.83278 0
M  V30 72 H 4.0304 3.17216 6.00459 0
M  V30 73 H 1.9764 0.980454 6.48632 0
M  V30 74 H 1.8934 2.59956 7.09901 0
M  V30 75 H 3.1614 1.54115 7.64113 0
M  V30 76 N 7.3905 -1.2043 1.01659 0
M  V30 77 C 8.6155 -1.94318 0.724942 0
M  V30 78 C 9.0405 -1.74266 -0.708034 0
M  V30 79 O 8.3985 -1.03694 -1.48719 0
M  V30 80 C 8.4465 -3.44486 1.06591 0
M  V30 81 O 7.5505 -4.12017 0.177599 0
M  V30 82 H 6.8915 -0.60708 0.26898 0
M  V30 83 H 9.4215 -1.52861 1.35995 0
M  V30 84 H 9.4315 -3.95106 1.01762 0
M  V30 85 H 8.1065 -3.58404 2.10997 0
M  V30 86 H 6.6835 -3.71821 0.283421 0
M  V30 87 N 8.8686 -0.792821 -1.36206 0
M  V30 88 C 10.1176 -0.363353 -1.984 0
M  V30 89 C 10.4306 1.07172 -1.63626 0
M  V30 90 O 11.6366 1.60362 -2.19081 0
M  V30 91 C 10.0926 -0.59872 -3.54885 0
M  V30 92 C 9.7006 -2.04543 -3.9858 0
M  V30 93 C 11.4446 -0.233926 -4.23855 0
M  V30 94 C 9.3516 -2.22727 -5.47856 0
M  V30 95 H 8.2816 -0.13212 -0.742334 0
M  V30 96 H 10.9326 -0.974935 -1.55458 0
M  V30 97 H 9.3146 0.0826222 -3.95914 0
M  V30 98 H 10.4886 -2.76345 -3.68741 0
M  V30 99 H 8.8036 -2.36879 -3.42458 0
M  V30 100 H 11.4006 -0.348027 -5.33566 0
M  V30 101 H 11.7436 0.818351 -4.08177 0
M  V30 102 H 12.2766 -0.868639 -3.882 0
M  V30 103 H 9.0156 -3.2635 -5.68486 0
M  V30 104 H 8.5356 -1.55434 -5.7931 0
M  V30 105 H 10.2146 -2.03607 -6.14128 0
M  V30 106 N 10.3467 1.47872 -0.545128 0
M  V30 107 C 11.5927 2.02793 -0.0166104 0
M  V30 108 C 11.9257 1.41987 1.32489 0
M  V30 109 O 11.2007 0.571045 1.85928 0
M  V30 110 C 11.4837 3.59989 0.0893294 0
M  V30 111 C 11.3367 4.3125 -1.27841 0
M  V30 112 C 12.6557 4.32606 0.808724 0
M  V30 113 H 9.7747 0.736962 -0.00751035 0
M  V30 114 H 12.4167 1.76433 -0.705085 0
M  V30 115 H 10.5667 3.82579 0.675681 0
M  V30 116 H 12.2387 4.20035 -1.90704 0
M  V30 117 H 10.4817 3.92076 -1.85632 0
M  V30 118 H 11.1527 5.39736 -1.15713 0
M  V30 119 H 13.6287 4.14936 0.310992 0
M  V30 120 H 12.5047 5.42251 0.851782 0
M  V30 121 H 12.7657 4.00963 1.86229 0
M  V30 122 N 11.8248 0.280983 1.55075 0
M  V30 123 C 13.0728 -0.333455 1.9933 0
M  V30 124 C 13.3938 -1.55937 1.17085 0
M  V30 125 O 12.6638 -1.94143 0.261805 0
M  V30 126 H 11.2438 -0.126197 0.736263 0
M  V30 127 H 13.9058 0.387678 1.91005 0
M  V30 128 H 13.0018 -0.619292 3.05894 0
M  V30 129 N 13.3029 -1.57598 0.00835791 0
M  V30 130 C 14.2129 -2.12385 -0.996487 0
M  V30 131 C 15.2289 -1.07108 -1.37127 0
M  V30 132 O 16.4049 -1.39055 -1.4569 0
M  V30 133 C 13.4699 -2.62314 -2.26699 0
M  V30 134 C 12.5309 -3.82225 -1.95456 0
M  V30 135 C 11.7639 -4.29763 -3.16449 0
M  V30 136 O 11.9869 -3.76584 -4.28416 0
M  V30 137 O 10.9209 -5.21832 -2.99958 0
M  V30 138 H 14.7469 -2.98479 -0.560725 0
M  V30 139 H 12.3319 -1.47903 -0.210987 0
M  V30 140 H 14.2139 -2.94589 -3.01322 0
M  V30 141 H 12.8889 -1.79313 -2.69497 0
M  V30 142 H 11.7959 -3.54909 -1.18282 0
M  V30 143 H 13.1289 -4.66324 -1.57489 0
M  V30 144 N 14.781 0.264519 -1.55364 0
M  V30 145 C 15.744 1.31046 -1.88042 0
M  V30 146 C 16.744 1.41943 -0.755569 0
M  V30 147 O 17.934 1.40947 -1.02369 0
M  V30 148 C 15.066 2.69067 -2.09323 0
M  V30 149 H 16.259 1.03297 -2.81549 0
M  V30 150 H 13.812 0.502989 -1.47986 0
M  V30 151 H 14.547 3.01982 -1.18226 0
M  V30 152 H 14.332 2.62542 -2.91229 0
M  V30 153 H 15.822 3.44623 -2.35848 0
M  V30 154 N 16.2591 1.48442 0.529413 0
M  V30 155 C 17.1891 1.65902 1.64313 0
M  V30 156 C 18.1701 0.507897 1.6234 0
M  V30 157 O 19.3551 0.740503 1.79528 0
M  V30 158 C 16.4851 1.69911 3.02898 0
M  V30 159 C 15.4391 2.8453 3.19729 0
M  V30 160 C 14.7651 2.73629 4.59381 0
M  V30 161 C 16.0651 4.25821 3.02447 0
M  V30 162 H 17.7591 2.5914 1.49955 0
M  V30 163 H 15.3051 1.24709 0.719982 0
M  V30 164 H 17.2581 1.80715 3.80684 0
M  V30 165 H 15.9821 0.732524 3.18279 0
M  V30 166 H 14.6411 2.73283 2.44361 0
M  V30 167 H 14.2891 1.74938 4.71599 0
M  V30 168 H 13.9891 3.50541 4.71588 0
M  V30 169 H 15.5131 2.86401 5.39265 0
M  V30 170 H 16.9271 4.37898 3.70024 0
M  V30 171 H 15.3241 5.03735 3.26146 0
M  V30 172 H 16.3941 4.42244 1.98867 0
M  V30 173 N 17.7372 -0.778329 1.37039 0
M  V30 174 C 18.6472 -1.92253 1.34446 0
M  V30 175 C 19.6632 -1.72267 0.244991 0
M  V30 176 O 20.8392 -1.95615 0.479258 0
M  V30 177 C 17.9042 -3.27282 1.144 0
M  V30 178 C 16.9652 -3.59969 2.33925 0
M  V30 179 C 16.1982 -4.88555 2.14825 0
M  V30 180 O 16.4212 -5.59113 1.12912 0
M  V30 181 O 15.3552 -5.20153 3.02861 0
M  V30 182 H 19.1812 -1.97392 2.30803 0
M  V30 183 H 16.7662 -0.920154 1.17701 0
M  V30 184 H 18.6482 -4.08062 1.05182 0
M  V30 185 H 17.3232 -3.23011 0.211124 0
M  V30 186 H 16.2302 -2.7945 2.48714 0
M  V30 187 H 17.5632 -3.68976 3.25757 0
M  V30 188 N 19.2153 -1.21501 -1.00376 0
M  V30 189 C 20.4453 -1.05746 -1.77486 0
M  V30 190 C 20.8533 0.395655 -1.85017 0
M  V30 191 O 20.1963 1.28626 -1.31152 0
M  V30 192 C 20.2583 -1.58092 -3.22873 0
M  V30 193 C 19.9223 -3.06568 -3.38917 0
M  V30 194 C 20.9193 -4.04106 -3.271 0
M  V30 195 C 18.6043 -3.45799 -3.64319 0
M  V30 196 C 20.5983 -5.38862 -3.40451 0
M  V30 197 C 18.2853 -4.80707 -3.77311 0
M  V30 198 C 19.2833 -5.77047 -3.65384 0
M  V30 199 O 18.9713 -7.09507 -3.77961 0
M  V30 200 H 18.7033 -0.371778 -0.564586 0
M  V30 201 H 21.2573 -1.61319 -1.27143 0
M  V30 202 H 19.4873 -0.969163 -3.74358 0
M  V30 203 H 21.1763 -1.38162 -3.81662 0
M  V30 204 H 21.9423 -3.75141 -3.07399 0
M  V30 205 H 17.8213 -2.71344 -3.72684 0
M  V30 206 H 21.3653 -6.14041 -3.31058 0
M  V30 207 H 17.2623 -5.09357 -3.96517 0
M  V30 208 H 18.0303 -7.16935 -3.94901 0
M  V30 209 N 20.6934 1.19889 -1.02296 0
M  V30 210 C 21.9394 1.89701 -0.717033 0
M  V30 211 C 22.2724 1.7905 0.751989 0
M  V30 212 O 21.5474 1.17891 1.547 0
M  V30 213 C 21.8304 3.40858 -1.16136 0
M  V30 214 C 21.6834 3.60411 -2.69117 0
M  V30 215 C 23.0024 4.33876 -0.737549 0
M  V30 216 H 20.1214 0.688874 -0.261957 0
M  V30 217 H 22.7634 1.41154 -1.27183 0
M  V30 218 H 20.9134 3.82335 -0.689342 0
M  V30 219 H 22.5854 3.28145 -3.2422 0
M  V30 220 H 20.8284 3.03665 -3.0979 0
M  V30 221 H 21.4994 4.66396 -2.95261 0
M  V30 222 H 23.9754 4.00081 -1.14344 0
M  V30 223 H 22.8514 5.38242 -1.0764 0
M  V30 224 H 23.1124 4.40628 0.360436 0
M  V30 225 N 22.1715 0.800033 1.35784 0
M  V30 226 C 23.1195 0.193851 2.31791 0
M  V30 227 C 24.1135 -0.652744 1.56319 0
M  V30 228 O 25.3195 -0.546641 1.71499 0
M  V30 229 H 21.6945 0.04392 0.750716 0
M  V30 230 H 23.6655 1.01883 2.80468 0
M  V30 231 C 22.4145 -0.648338 3.41602 0
M  V30 232 H 21.7375 -0.00624665 3.998 0
M  V30 233 H 23.1775 -1.03898 4.11073 0
M  V30 234 C 21.6365 -1.8111 2.84079 0
M  V30 235 O 22.1665 -2.90825 2.77099 0
M  V30 236 N 20.3725 -1.62056 2.41218 0
M  V30 237 H 19.9195 -0.728123 2.47095 0
M  V30 238 H 19.8775 -2.40013 2.03079 0
M  V30 239 N 23.6496 -1.47581 0.552962 0
M  V30 240 C 24.8986 -2.01684 0.0251995 0
M  V30 241 C 25.2116 -1.43317 -1.33115 0
M  V30 242 O 26.4176 -1.89057 -1.94858 0
M  V30 243 C 24.8736 -3.599 -0.00542052 0
M  V30 244 C 24.4816 -4.27257 1.34742 0
M  V30 245 C 26.2256 -4.21768 -0.4808 0
M  V30 246 C 24.1326 -5.77467 1.27614 0
M  V30 247 H 23.0626 -0.753979 0.00565033 0
M  V30 248 H 25.7136 -1.69616 0.70018 0
M  V30 249 H 24.0956 -3.88911 -0.745961 0
M  V30 250 H 25.2696 -4.09893 2.10534 0
M  V30 251 H 23.5846 -3.77358 1.76039 0
M  V30 252 H 26.1816 -5.31838 -0.55246 0
M  V30 253 H 26.5246 -3.88651 -1.49184 0
M  V30 254 H 27.0576 -3.97273 0.204752 0
M  V30 255 H 23.7966 -6.15196 2.26304 0
M  V30 256 H 23.3166 -5.9718 0.55996 0
M  V30 257 H 24.9956 -6.3959 0.976421 0
M  V30 258 N 25.1277 -0.289203 -1.54924 0
M  V30 259 C 26.3757 0.322879 -1.99504 0
M  V30 260 C 26.6967 1.55313 -1.1791 0
M  V30 261 O 25.9667 1.94001 -0.272097 0
M  V30 262 H 24.5467 0.122291 -0.736922 0
M  V30 263 H 27.2087 -0.397802 -1.90797 0
M  V30 264 H 26.3047 0.603061 -3.06218 0
M  V30 265 N 26.6058 1.57591 -0.0167156 0
M  V30 266 C 27.5358 2.12496 0.967858 0
M  V30 267 C 28.5168 1.03807 1.34752 0
M  V30 268 O 29.7018 1.31577 1.42833 0
M  V30 269 C 26.8318 2.64194 2.25431 0
M  V30 270 C 25.7858 3.77559 2.01576 0
M  V30 271 C 25.1118 4.15636 3.36379 0
M  V30 272 C 26.4118 5.04151 1.36489 0
M  V30 273 H 28.1058 2.95013 0.510643 0
M  V30 274 H 25.6518 1.41915 0.244181 0
M  V30 275 H 27.6048 3.01236 2.94678 0
M  V30 276 H 26.3288 1.78821 2.73296 0
M  V30 277 H 24.9878 3.40937 1.34751 0
M  V30 278 H 24.6358 3.27263 3.81979 0
M  V30 279 H 24.3358 4.92022 3.21229 0
M  V30 280 H 25.8598 4.5525 4.06915 0
M  V30 281 H 27.2738 5.38857 1.95718 0
M  V30 282 H 25.6708 5.85453 1.31776 0
M  V30 283 H 26.7408 4.83733 0.336219 0
M  V30 284 N 28.0839 -0.256276 1.55502 0
M  V30 285 C 29.3089 -1.00766 1.81276 0
M  V30 286 C 29.7339 -1.78524 0.59252 0
M  V30 287 O 29.0919 -1.75413 -0.45827 0
M  V30 288 C 29.1399 -1.92869 3.04687 0
M  V30 289 O 28.2439 -3.019 2.80945 0
M  V30 290 H 27.5849 -0.287224 0.598664 0
M  V30 291 H 30.1149 -0.280109 2.02674 0
M  V30 292 H 30.1249 -2.34511 3.33869 0
M  V30 293 H 28.7999 -1.35689 3.93143 0
M  V30 294 H 27.3769 -2.64454 2.62904 0
M  V30 295 N 29.562 -1.4872 -0.521534 0
M  V30 296 C 30.512 -1.60269 -1.62166 0
M  V30 297 C 31.496 -0.45935 -1.54204 0
M  V30 298 O 32.688 -0.711241 -1.62081 0
M  V30 299 C 29.817 -1.65344 -3.00859 0
M  V30 300 C 28.903 -2.85187 -3.13894 0
M  V30 301 N 29.294 -4.09509 -2.96877 0
M  V30 302 C 27.592 -2.82695 -3.44963 0
M  V30 303 C 28.293 -4.89959 -3.13552 0
M  V30 304 N 27.269 -4.22934 -3.41508 0
M  V30 305 H 31.071 -2.5413 -1.47632 0
M  V30 306 H 28.585 -1.45209 -0.727194 0
M  V30 307 H 30.582 -1.71713 -3.79895 0
M  V30 308 H 29.242 -0.726058 -3.16478 0
M  V30 309 H 30.253 -4.39814 -2.73467 0
M  V30 310 H 26.93 -1.99249 -3.66887 0
M  V30 311 H 28.32 -5.98654 -3.05061 0
M  V30 312 N 31.0401 0.771051 -1.3745 0
M  V30 313 C 32.2871 1.52963 -1.32697 0
M  V30 314 C 32.6151 1.94299 0.0883274 0
M  V30 315 O 31.8701 1.64397 1.0617 0
M  V30 316 C 32.1691 2.80676 -2.2126 0
M  V30 317 C 31.8351 2.58389 -3.69521 0
M  V30 318 C 30.4971 2.52019 -4.09927 0
M  V30 319 C 32.8491 2.38469 -4.63446 0
M  V30 320 C 30.1771 2.23721 -5.42371 0
M  V30 321 C 32.5291 2.11694 -5.96128 0
M  V30 322 C 31.1931 2.03769 -6.35637 0
M  V30 323 H 30.4631 0.559732 -0.485573 0
M  V30 324 H 33.1101 0.888083 -1.69662 0
M  V30 325 H 31.4151 3.49392 -1.77291 0
M  V30 326 H 33.1121 3.38557 -2.14895 0
M  V30 327 H 29.7021 2.6421 -3.37478 0
M  V30 328 H 33.8861 2.4238 -4.33089 0
M  V30 329 H 29.1421 2.16081 -5.71943 0
M  V30 330 H 33.3161 1.9528 -6.6846 0
M  V30 331 H 30.9431 1.81606 -7.38189 0
M  V30 332 N 32.5182 1.22032 0.997298 0
M  V30 333 C 33.4482 1.01065 2.10495 0
M  V30 334 C 34.4292 -0.0669542 1.69968 0
M  V30 335 O 35.6142 0.0943987 1.9397 0
M  V30 336 C 32.7442 0.582874 3.42374 0
M  V30 337 C 31.6982 1.60592 3.96729 0
M  V30 338 C 31.0242 1.03412 5.24605 0
M  V30 339 C 32.3242 2.99478 4.27914 0
M  V30 340 H 34.0182 1.93708 2.28292 0
M  V30 341 H 31.5642 0.932761 1.09707 0
M  V30 342 H 33.5172 0.423332 4.19268 0
M  V30 343 H 32.2412 -0.379213 3.24391 0
M  V30 344 H 30.9002 1.75316 3.21963 0
M  V30 345 H 30.5482 0.063518 5.0296 0
M  V30 346 H 30.2482 1.71754 5.61938 0
M  V30 347 H 31.7722 0.886066 6.04137 0
M  V30 348 H 33.1862 2.88153 4.95622 0
M  V30 349 H 31.5832 3.64903 4.76409 0
M  V30 350 H 32.6532 3.49742 3.3587 0
M  V30 351 N 33.9963 -1.19345 1.0293 0
M  V30 352 C 34.9593 -2.20793 0.615069 0
M  V30 353 C 35.9593 -1.57553 -0.321533 0
M  V30 354 O 37.1493 -1.73862 -0.108483 0
M  V30 355 C 34.2813 -3.40754 -0.0999222 0
M  V30 356 H 35.4743 -2.58955 1.51269 0
M  V30 357 H 33.0273 -1.3303 0.820534 0
M  V30 358 H 33.7623 -3.0811 -1.01187 0
M  V30 359 H 33.5473 -3.87889 0.57309 0
M  V30 360 H 35.0373 -4.15898 -0.376645 0
M  V30 361 N 35.4744 -0.807222 -1.35358 0
M  V30 362 C 36.4044 -0.232509 -2.3234 0
M  V30 363 C 37.3854 0.642386 -1.57504 0
M  V30 364 O 38.5704 0.572526 -1.85569 0
M  V30 365 C 35.7004 0.619238 -3.41735 0
M  V30 366 C 34.6544 -0.157215 -4.27711 0
M  V30 367 C 33.9804 0.816273 -5.28433 0
M  V30 368 C 35.2804 -1.35656 -5.04376 0
M  V30 369 H 36.9744 -1.04276 -2.80654 0
M  V30 370 H 34.5204 -0.50288 -1.34934 0
M  V30 371 H 36.4734 1.03137 -4.08584 0
M  V30 372 H 35.1974 1.46239 -2.92031 0
M  V30 373 H 33.8564 -0.550525 -3.62443 0
M  V30 374 H 33.5044 1.65494 -4.74996 0
M  V30 375 H 33.2044 0.301067 -5.86828 0
M  V30 376 H 34.7284 1.22659 -5.98153 0
M  V30 377 H 36.1424 -1.01927 -5.64166 0
M  V30 378 H 34.5394 -1.8063 -5.7227 0
M  V30 379 H 35.6094 -2.14288 -4.34981 0
M  V30 380 N 36.9525 1.47285 -0.560781 0
M  V30 381 C 38.3635 1.86258 -0.128343 0
M  V30 382 C 38.7145 1.46699 1.30284 0
M  V30 383 O 37.8395 0.871698 1.98067 0
M  V30 384 C 38.4345 3.38044 -0.22614 0
M  V30 385 C 36.9935 3.76096 0.151283 0
M  V30 386 C 36.1405 2.71335 -0.572084 0
M  V30 387 H 39.0915 1.38752 -0.770297 0
M  V30 388 H 39.1125 3.76441 0.554322 0
M  V30 389 H 38.6245 3.66806 -1.26788 0
M  V30 390 H 36.7255 3.52951 1.19399 0
M  V30 391 H 36.8385 4.78641 -0.209765 0
M  V30 392 H 35.2025 2.54696 -0.0147653 0
M  V30 393 H 35.9855 3.02938 -1.61504 0
M  V30 394 N 38.4306 0.297415 1.54768 0
M  V30 395 C 39.3606 -0.573494 2.26348 0
M  V30 396 C 40.3416 -1.14085 1.26169 0
M  V30 397 O 41.5266 -1.17086 1.54934 0
M  V30 398 C 38.6566 -1.74716 3.00153 0
M  V30 399 C 37.6106 -1.31032 4.07449 0
M  V30 400 C 36.9366 -2.56887 4.68949 0
M  V30 401 C 38.2366 -0.444183 5.20408 0
M  V30 402 H 39.9306 0.0235131 2.99391 0
M  V30 403 H 37.4766 0.0127488 1.43994 0
M  V30 404 H 39.4296 -2.3625 3.48947 0
M  V30 405 H 38.1536 -2.37035 2.24682 0
M  V30 406 H 36.8126 -0.718066 3.59499 0
M  V30 407 H 36.4606 -3.17512 3.90122 0
M  V30 408 H 36.1606 -2.2836 5.41411 0
M  V30 409 H 37.6846 -3.19229 5.20505 0
M  V30 410 H 39.0986 -0.9651 5.65118 0
M  V30 411 H 37.4956 -0.252846 5.99567 0
M  V30 412 H 38.5656 0.531609 4.81977 0
M  V30 413 N 39.9087 -1.5758 0.0250728 0
M  V30 414 C 40.8717 -2.08896 -0.943139 0
M  V30 415 C 41.8717 -1.00321 -1.25668 0
M  V30 416 O 43.0617 -1.26495 -1.19769 0
M  V30 417 C 40.1937 -2.55143 -2.26086 0
M  V30 418 H 41.3867 -2.95723 -0.498775 0
M  V30 419 H 38.9397 -1.54703 -0.222888 0
M  V30 420 H 39.6747 -1.71633 -2.75159 0
M  V30 421 H 39.4597 -3.34461 -2.04641 0
M  V30 422 H 40.9497 -2.95083 -2.95492 0
M  V30 423 N 41.3868 0.248026 -1.55636 0
M  V30 424 C 42.3188 1.32993 -1.8667 0
M  V30 425 C 43.3318 1.44345 -0.752877 0
M  V30 426 O 44.5208 1.45715 -1.03098 0
M  V30 427 C 41.6208 2.70863 -2.03682 0
M  V30 428 C 40.7938 2.81792 -3.34532 0
M  V30 429 C 39.8528 4.005 -3.41301 0
M  V30 430 O 38.8788 3.9008 -4.14519 0
M  V30 431 N 40.0808 5.13618 -2.70512 0
M  V30 432 H 42.8458 1.06707 -2.8006 0
M  V30 433 H 40.4068 0.438129 -1.55859 0
M  V30 434 H 42.3988 3.48612 -2.05553 0
M  V30 435 H 40.9688 2.89862 -1.17041 0
M  V30 436 H 40.1888 1.90729 -3.44987 0
M  V30 437 H 41.4768 2.86043 -4.20781 0
M  V30 438 H 40.8748 5.24975 -2.10755 0
M  V30 439 H 39.4318 5.89505 -2.78077 0
M  V30 440 N 42.8649 1.48995 0.513639 0
M  V30 441 C 44.2809 1.35478 0.843682 0
M  V30 442 C 44.4809 0.378213 1.97919 0
M  V30 443 O 43.5369 -0.194689 2.51748 0
M  V30 444 C 44.8499 2.75901 1.1958 0
M  V30 445 C 46.3979 2.84509 1.30474 0
M  V30 446 C 46.8729 4.25671 1.69021 0
M  V30 447 N 48.3639 4.28422 1.76094 0
M  V30 448 C 49.0989 5.34601 2.07338 0
M  V30 449 N 48.5949 6.5104 2.36894 0
M  V30 450 N 50.3879 5.22007 2.08483 0
M  V30 451 H 42.5389 2.11092 -0.235328 0
M  V30 452 H 44.8019 0.947039 -0.0426669 0
M  V30 453 H 44.5079 3.49001 0.434913 0
M  V30 454 H 44.3819 3.10467 2.1422 0
M  V30 455 H 46.7689 2.11655 2.05637 0
M  V30 456 H 46.8499 2.53542 0.339155 0
M  V30 457 H 46.4939 4.99048 0.944135 0
M  V30 458 H 46.4239 4.54094 2.66658 0
M  V30 459 H 48.9149 3.44441 1.55464 0
M  V30 460 H 49.2279 7.2779 2.59887 0
M  V30 461 H 47.5729 6.54287 2.34378 0
M  V30 462 H 50.7639 4.30051 1.84861 0
M  V30 463 H 50.9369 6.04854 2.325 0
M  V30 464 N 44.343 -0.763751 1.37857 0
M  V30 465 C 45.592 -1.51789 1.32827 0
M  V30 466 C 45.905 -1.95426 -0.0823719 0
M  V30 467 O 47.111 -2.70298 -0.255172 0
M  V30 468 C 45.567 -2.74133 2.33193 0
M  V30 469 C 45.175 -2.37562 3.79827 0
M  V30 470 C 46.919 -3.52054 2.37188 0
M  V30 471 C 44.826 -3.56456 4.71904 0
M  V30 472 H 43.756 -0.569896 0.493695 0
M  V30 473 H 46.407 -0.835822 1.63359 0
M  V30 474 H 44.789 -3.4427 1.9569 0
M  V30 475 H 45.963 -1.75157 4.26212 0
M  V30 476 H 44.278 -1.72798 3.78853 0
M  V30 477 H 46.875 -4.40437 3.03182 0
M  V30 478 H 47.218 -3.92486 1.38782 0
M  V30 479 H 47.751 -2.88921 2.7344 0
M  V30 480 H 44.49 -3.21099 5.71468 0
M  V30 481 H 44.01 -4.17938 4.30218 0
M  V30 482 H 45.689 -4.23168 4.89426 0
M  V30 483 N 45.8211 -1.22559 -0.990812 0
M  V30 484 C 47.0461 -1.07862 -1.77145 0
M  V30 485 C 47.4711 0.366447 -1.84496 0
M  V30 486 O 46.8291 1.26478 -1.29896 0
M  V30 487 C 46.8771 -1.69686 -3.18181 0
M  V30 488 O 45.9811 -0.951946 -4.01263 0
M  V30 489 H 45.3221 -0.378712 -0.545411 0
M  V30 490 H 47.8521 -1.62399 -1.2445 0
M  V30 491 H 47.8621 -1.74496 -3.68802 0
M  V30 492 H 46.5371 -2.74841 -3.12146 0
M  V30 493 H 45.1141 -0.980011 -3.59792 0
M  V30 494 N 47.2992 1.18797 -1.03562 0
M  V30 495 C 48.2292 2.24472 -0.643019 0
M  V30 496 C 49.2102 1.66433 0.351283 0
M  V30 497 O 50.3952 1.92803 0.232505 0
M  V30 498 C 47.5252 3.473 4.24935e-05 0
M  V30 499 C 46.4792 4.18055 -0.917257 0
M  V30 500 C 45.8052 5.34519 -0.138941 0
M  V30 501 C 47.1052 4.72109 -2.23407 0
M  V30 502 H 48.7992 2.57566 -1.52643 0
M  V30 503 H 46.3452 1.23806 -0.735394 0
M  V30 504 H 48.2982 4.20426 0.286383 0
M  V30 505 H 47.0222 3.13424 0.918299 0
M  V30 506 H 45.6812 3.46821 -1.1879 0
M  V30 507 H 45.3292 4.96891 0.781562 0
M  V30 508 H 45.0292 5.82794 -0.750005 0
M  V30 509 H 46.5532 6.10438 0.1405 0
M  V30 510 H 47.9672 5.36955 -2.00879 0
M  V30 511 H 46.3642 5.30897 -2.79765 0
M  V30 512 H 47.4342 3.89807 -2.88407 0
M  V30 513 N 48.7773 0.814389 1.34928 0
M  V30 514 C 50.0263 0.394871 1.97797 0
M  V30 515 C 50.3393 -1.04555 1.65311 0
M  V30 516 O 51.5453 -1.56856 2.21604 0
M  V30 517 C 50.0013 0.655103 3.53888 0
M  V30 518 C 49.6093 2.10858 3.95276 0
M  V30 519 C 51.3533 0.301329 4.23429 0
M  V30 520 C 49.2603 2.31415 5.44244 0
M  V30 521 H 48.1903 0.143913 0.740139 0
M  V30 522 H 50.8413 0.999544 1.53888 0
M  V30 523 H 49.2233 -0.0196253 3.95995 0
M  V30 524 H 50.3973 2.82176 3.64298 0
M  V30 525 H 48.7123 2.42297 3.38646 0
M  V30 526 H 51.3093 0.432869 5.32945 0
M  V30 527 H 51.6523 -0.75331 4.09428 0
M  V30 528 H 52.1853 0.930288 3.86769 0
M  V30 529 H 48.9243 3.35353 5.63222 0
M  V30 530 H 48.4443 1.6463 5.76764 0
M  V30 531 H 50.1233 2.13352 6.10811 0
M  V30 532 N 50.2554 -1.46986 0.568584 0
M  V30 533 C 51.5044 -2.01646 0.0465894 0
M  V30 534 C 51.8174 -1.44721 -1.31587 0
M  V30 535 O 53.0234 -1.91113 -1.92842 0
M  V30 536 C 51.4794 -3.59885 0.032752 0
M  V30 537 C 51.0874 -4.25804 1.39266 0
M  V30 538 C 52.8314 -4.22255 -0.436038 0
M  V30 539 C 50.7384 -5.76081 1.33732 0
M  V30 540 H 49.6684 -0.753876 0.013647 0
M  V30 541 H 52.3194 -1.68864 0.718131 0
M  V30 542 H 50.7014 -3.8968 -0.704669 0
M  V30 543 H 51.8754 -4.07637 2.1487 0
M  V30 544 H 50.1904 -3.7547 1.80032 0
M  V30 545 H 52.7874 -5.32394 -0.49602 0
M  V30 546 H 53.1304 -3.90212 -1.45053 0
M  V30 547 H 53.6634 -3.97033 0.246877 0
M  V30 548 H 50.4024 -6.12761 2.32817 0
M  V30 549 H 49.9224 -5.96553 0.623267 0
M  V30 550 H 51.6014 -6.38518 1.0442 0
M  V30 551 N 51.7335 -0.305618 -1.54608 0
M  V30 552 C 52.9825 0.303098 -1.9941 0
M  V30 553 C 53.2955 1.54648 -1.19764 0
M  V30 554 O 54.5015 2.23007 -1.54855 0
M  V30 555 C 52.9575 0.590588 -3.55021 0
M  V30 556 C 52.5655 -0.634719 -4.43481 0
M  V30 557 C 54.3095 1.16025 -4.08336 0
M  V30 558 C 52.2165 -0.320126 -5.90533 0
M  V30 559 H 51.1465 0.117031 -0.744862 0
M  V30 560 H 53.7975 -0.415045 -1.78745 0
M  V30 561 H 52.1795 1.36845 -3.71604 0
M  V30 562 H 53.3535 -1.41079 -4.38672 0
M  V30 563 H 51.6685 -1.12333 -4.00962 0
M  V30 564 H 54.2655 1.40994 -5.15776 0
M  V30 565 H 54.6085 2.10397 -3.5922 0
M  V30 566 H 55.1415 0.443985 -3.95315 0
M  V30 567 H 51.8805 -1.23254 -6.43808 0
M  V30 568 H 51.4005 0.418579 -5.98338 0
M  V30 569 H 53.0795 0.0766241 -6.46955 0
M  V30 570 N 53.2116 1.57565 -0.0334293 0
M  V30 571 C 54.4606 1.91155 0.643639 0
M  V30 572 C 54.7736 0.91192 1.73042 0
M  V30 573 O 55.9796 1.13923 2.46442 0
M  V30 574 C 54.4356 3.39443 1.1961 0
M  V30 575 C 54.0436 4.47774 0.142381 0
M  V30 576 C 55.7876 3.82094 1.84944 0
M  V30 577 C 53.6946 5.87162 0.706727 0
M  V30 578 H 52.6246 0.713368 0.244176 0
M  V30 579 H 55.2756 1.8323 -0.0994323 0
M  V30 580 H 53.6576 3.42313 1.99092 0
M  V30 581 H 54.8316 4.56469 -0.630296 0
M  V30 582 H 53.1466 4.14352 -0.412446 0
M  V30 583 H 55.7436 4.83591 2.2813 0
M  V30 584 H 56.0866 3.17386 2.69392 0
M  V30 585 H 56.6196 3.81665 1.12145 0
M  V30 586 H 53.3586 6.55424 -0.0997178 0
M  V30 587 H 52.8786 5.82064 1.44779 0
M  V30 588 H 54.5576 6.35866 1.19514 0
M  V30 589 N 54.6897 -0.239769 1.55765 0
M  V30 590 C 56.1007 -0.808263 1.68297 0
M  V30 591 C 56.4517 -1.85736 0.632181 0
M  V30 592 O 55.5767 -2.15277 -0.220204 0
M  V30 593 C 56.1717 -1.47284 3.05111 0
M  V30 594 C 54.7307 -1.98895 3.19559 0
M  V30 595 C 53.8777 -0.842575 2.64189 0
M  V30 596 H 56.8287 -0.0154422 1.58692 0
M  V30 597 H 56.8497 -2.34111 2.99954 0
M  V30 598 H 56.3617 -0.709053 3.81568 0
M  V30 599 H 54.4627 -2.78132 2.47938 0
M  V30 600 H 54.5757 -2.18143 4.26556 0
M  V30 601 H 52.9397 -1.24501 2.22197 0
M  V30 602 H 53.7227 -0.0917552 3.43177 0
M  V30 603 N 56.1678 -1.49265 -0.50573 0
M  V30 604 C 57.4148 -1.58513 -1.26015 0
M  V30 605 C 57.7428 -0.26972 -1.92621 0
M  V30 606 O 56.9978 0.741997 -1.81088 0
M  V30 607 C 57.2968 -2.69008 -2.35308 0
M  V30 608 C 56.9628 -4.10662 -1.86192 0
M  V30 609 C 55.6248 -4.49212 -1.72516 0
M  V30 610 C 57.9768 -4.99336 -1.49375 0
M  V30 611 C 55.3048 -5.74214 -1.20394 0
M  V30 612 C 57.6568 -6.24852 -0.987072 0
M  V30 613 C 56.3208 -6.62236 -0.836669 0
M  V30 614 H 55.5908 -0.580041 -0.461122 0
M  V30 615 H 58.2378 -1.83078 -0.561665 0
M  V30 616 H 56.5428 -2.38396 -3.10926 0
M  V30 617 H 58.2398 -2.73373 -2.93374 0
M  V30 618 H 54.8298 -3.8023 -1.97795 0
M  V30 619 H 59.0138 -4.70212 -1.5879 0
M  V30 620 H 54.2698 -6.01883 -1.07458 0
M  V30 621 H 58.4438 -6.92944 -0.692983 0
M  V30 622 H 56.0708 -7.58979 -0.430607 0
M  V30 623 N 57.6459 0.756429 -1.3826 0
M  V30 624 C 58.8949 1.51082 -1.3363 0
M  V30 625 C 59.2079 1.95467 0.0720068 0
M  V30 626 O 60.4139 2.7043 0.240834 0
M  V30 627 C 58.8699 2.72893 -2.34644 0
M  V30 628 C 58.4779 2.35544 -3.81081 0
M  V30 629 C 60.2219 3.50791 -2.39052 0
M  V30 630 C 58.1289 3.53948 -4.73787 0
M  V30 631 H 57.0589 0.56727 -0.49671 0
M  V30 632 H 59.7099 0.827147 -1.638 0
M  V30 633 H 58.0919 3.43227 -1.97513 0
M  V30 634 H 59.2659 1.72894 -4.27135 0
M  V30 635 H 57.5809 1.70786 -3.79764 0
M  V30 636 H 60.1779 4.38823 -3.05513 0
M  V30 637 H 60.5209 3.91745 -1.40861 0
M  V30 638 H 61.0539 2.87467 -2.74968 0
M  V30 639 H 57.7929 3.18064 -5.73163 0
M  V30 640 H 57.3129 4.15651 -4.32428 0
M  V30 641 H 58.9919 4.20566 -4.91663 0
M  V30 642 N 59.124 1.23083 0.984299 0
M  V30 643 C 60.354 1.08556 1.75781 0
M  V30 644 C 60.762 -0.366171 1.85623 0
M  V30 645 O 60.105 -1.26524 1.33182 0
M  V30 646 C 60.167 1.63208 3.20318 0
M  V30 647 C 59.831 3.11922 3.33997 0
M  V30 648 C 60.828 4.09259 3.2063 0
M  V30 649 C 58.513 3.51552 3.58771 0
M  V30 650 C 60.507 5.4421 3.31835 0
M  V30 651 C 58.194 4.86649 3.69616 0
M  V30 652 C 59.192 5.82787 3.56157 0
M  V30 653 O 58.88 7.15431 3.66626 0
M  V30 654 H 58.612 0.380713 0.5586 0
M  V30 655 H 61.166 1.63321 1.2456 0
M  V30 656 H 59.396 1.0286 3.72769 0
M  V30 657 H 61.085 1.44216 3.79416 0
M  V30 658 H 61.851 3.79984 3.01392 0
M  V30 659 H 57.73 2.77239 3.6832 0
M  V30 660 H 61.274 6.1923 3.21247 0
M  V30 661 H 57.171 5.15601 3.88363 0
M  V30 662 H 57.939 7.23127 3.83445 0
M  V30 663 N 60.6021 -1.18246 1.0419 0
M  V30 664 C 61.5501 -2.23968 0.627792 0
M  V30 665 C 62.5441 -1.65828 -0.346019 0
M  V30 666 O 63.7501 -1.78733 -0.213175 0
M  V30 667 H 60.1251 -0.728939 0.184802 0
M  V30 668 H 62.0961 -2.56202 1.52981 0
M  V30 669 C 60.8451 -3.47699 0.00796591 0
M  V30 670 H 60.1681 -3.92734 0.748347 0
M  V30 671 H 61.6081 -4.23294 -0.24455 0
M  V30 672 C 60.0671 -3.13153 -1.24246 0
M  V30 673 O 60.5971 -3.27003 -2.33307 0
M  V30 674 N 58.8031 -2.67467 -1.13622 0
M  V30 675 H 58.3501 -2.56396 -0.248734 0
M  V30 676 H 58.3081 -2.44724 -1.97377 0
M  V30 677 N 62.0802 -0.821533 -1.34494 0
M  V30 678 C 63.3292 -0.405355 -1.97585 0
M  V30 679 C 63.6422 1.03677 -1.65863 0
M  V30 680 O 64.8482 1.55679 -2.22433 0
M  V30 681 C 63.3042 -0.673861 -3.53535 0
M  V30 682 C 62.9122 -2.12951 -3.94152 0
M  V30 683 C 64.6562 -0.32378 -4.23263 0
M  V30 684 C 62.5632 -2.34298 -5.43009 0
M  V30 685 H 61.4932 -0.147836 -0.739365 0
M  V30 686 H 64.1442 -1.00769 -1.53355 0
M  V30 687 H 62.5262 -0.00137554 -3.96 0
M  V30 688 H 63.7002 -2.84104 -3.62797 0
M  V30 689 H 62.0152 -2.44089 -3.37356 0
M  V30 690 H 64.6122 -0.461126 -5.32708 0
M  V30 691 H 64.9552 0.731586 -4.09821 0
M  V30 692 H 65.4882 -0.950786 -3.8627 0
M  V30 693 H 62.2272 -3.38335 -5.61435 0
M  V30 694 H 61.7472 -1.67687 -5.75883 0
M  V30 695 H 63.4262 -2.16588 -6.09671 0
M  V30 696 N 63.5583 1.46682 -0.576371 0
M  V30 697 C 64.8043 2.02712 -0.0596221 0
M  V30 698 C 65.1373 1.44765 1.29448 0
M  V30 699 O 64.4123 0.610355 1.84675 0
M  V30 700 C 64.6953 3.60098 0.0129503 0
M  V30 701 C 64.5483 4.28441 -1.3696 0
M  V30 702 C 65.8673 4.34224 0.71678 0
M  V30 703 H 62.9863 0.736637 -0.0231407 0
M  V30 704 H 65.6283 1.74898 -0.742351 0
M  V30 705 H 63.7783 3.83926 0.594378 0
M  V30 706 H 65.4503 4.15896 -1.9957 0
M  V30 707 H 63.6933 3.8805 -1.93907 0
M  V30 708 H 64.3643 5.3716 -1.27135 0
M  V30 709 H 66.8403 4.15503 0.222908 0
M  V30 710 H 65.7163 5.43936 0.73657 0
M  V30 711 H 65.9773 4.04823 1.77682 0
M  V30 712 N 65.0364 0.313813 1.54444 0
M  V30 713 C 66.2824 -0.284918 2.01395 0
M  V30 714 C 66.6374 -1.50537 1.19818 0
M  V30 715 O 65.9304 -1.89692 0.269748 0
M  V30 716 C 66.1244 -0.680386 3.50864 0
M  V30 717 C 65.9534 0.500198 4.4691 0
M  V30 718 C 64.7234 0.996248 4.95382 0
M  V30 719 C 66.9214 1.34928 4.96285 0
M  V30 720 N 64.9034 2.14226 5.75309 0
M  V30 721 C 66.2744 2.3426 5.7404 0
M  V30 722 C 68.3294 1.37818 4.78446 0
M  V30 723 C 67.0324 3.36272 6.35856 0
M  V30 724 C 69.0584 2.38695 5.4109 0
M  V30 725 C 68.4204 3.36755 6.18688 0
M  V30 726 H 64.5194 -0.0683689 0.779006 0
M  V30 727 H 67.1034 0.44664 1.89508 0
M  V30 728 H 65.2744 -1.38109 3.63016 0
M  V30 729 H 67.0064 -1.25975 3.84594 0
M  V30 730 H 63.7614 0.56912 4.70168 0
M  V30 731 H 64.1854 2.72005 6.19953 0
M  V30 732 H 68.8274 0.633747 4.18023 0
M  V30 733 H 66.5454 4.11627 6.95405 0
M  V30 734 H 70.1314 2.41721 5.29209 0
M  V30 735 H 69.0114 4.13535 6.66302 0
M  V30 736 N 66.5145 -1.57545 0.0417849 0
M  V30 737 C 67.4465 -2.07904 -0.964799 0
M  V30 738 C 68.4595 -1.00497 -1.28079 0
M  V30 739 O 69.6485 -1.28087 -1.24322 0
M  V30 740 C 66.7485 -2.49928 -2.28887 0
M  V30 741 C 65.9215 -3.80562 -2.15619 0
M  V30 742 C 64.9805 -4.08999 -3.31069 0
M  V30 743 O 64.0065 -4.79061 -3.0739 0
M  V30 744 N 65.2085 -3.6017 -4.55256 0
M  V30 745 H 67.9735 -2.94886 -0.535029 0
M  V30 746 H 65.5345 -1.61252 -0.144681 0
M  V30 747 H 67.5265 -2.66034 -3.04972 0
M  V30 748 H 66.0965 -1.68245 -2.63463 0
M  V30 749 H 65.3165 -3.74129 -1.24183 0
M  V30 750 H 66.6045 -4.66126 -2.03971 0
M  V30 751 H 66.0025 -3.03512 -4.77386 0
M  V30 752 H 64.5595 -3.81532 -5.28466 0
M  V30 753 N 67.9926 0.231505 -1.5589 0
M  V30 754 C 68.9226 1.29022 -1.94617 0
M  V30 755 C 69.9036 1.4941 -0.813067 0
M  V30 756 O 71.0886 1.6176 -1.07459 0
M  V30 757 C 68.2186 2.64199 -2.25424 0
M  V30 758 C 67.1726 2.58484 -3.41131 0
M  V30 759 C 66.4986 3.97599 -3.57518 0
M  V30 760 C 67.7986 2.1413 -4.76388 0
M  V30 761 H 69.4926 0.968563 -2.83301 0
M  V30 762 H 67.0386 0.464479 -1.36303 0
M  V30 763 H 68.9916 3.38413 -2.51107 0
M  V30 764 H 67.7156 2.98032 -1.33583 0
M  V30 765 H 66.3746 1.86727 -3.15481 0
M  V30 766 H 66.0226 4.28723 -2.6307 0
M  V30 767 H 65.7226 3.94659 -4.35337 0
M  V30 768 H 67.2466 4.7349 -3.85538 0
M  V30 769 H 68.6606 2.78083 -5.01341 0
M  V30 770 H 67.0576 2.2227 -5.57419 0
M  V30 771 H 68.1276 1.09331 -4.72414 0
M  V30 772 N 69.4707 1.49531 0.497807 0
M  V30 773 C 70.4007 1.6935 1.60757 0
M  V30 774 C 71.3817 0.542218 1.61227 0
M  V30 775 O 72.5667 0.778417 1.77917 0
M  V30 776 C 69.6967 1.76298 2.99226 0
M  V30 777 C 68.6507 2.91248 3.13622 0
M  V30 778 C 67.9767 2.83312 4.53474 0
M  V30 779 C 69.2767 4.3214 2.93346 0
M  V30 780 H 70.9707 2.62263 1.44425 0
M  V30 781 H 68.5167 1.26208 0.693367 0
M  V30 782 H 70.4697 1.88749 3.76765 0
M  V30 783 H 69.1937 0.799871 3.16654 0
M  V30 784 H 67.8527 2.78404 2.38509 0
M  V30 785 H 67.5007 1.84902 4.67782 0
M  V30 786 H 67.2007 3.60465 4.64046 0
M  V30 787 H 68.7247 2.97775 5.33069 0
M  V30 788 H 70.1387 4.45649 3.60652 0
M  V30 789 H 68.5357 5.1054 3.15387 0
M  V30 790 H 69.6057 4.46363 1.89441 0
M  V30 791 N 70.9488 -0.749086 1.3866 0
M  V30 792 C 72.1788 -1.53611 1.38157 0
M  V30 793 C 72.5868 -1.89177 -0.0293595 0
M  V30 794 O 71.9298 -1.53606 -1.00752 0
M  V30 795 C 71.9918 -2.86087 2.17702 0
M  V30 796 C 71.6558 -2.73034 3.66472 0
M  V30 797 C 72.6528 -2.42526 4.59866 0
M  V30 798 C 70.3378 -2.90345 4.09884 0
M  V30 799 C 72.3318 -2.29492 5.94653 0
M  V30 800 C 70.0188 -2.7693 5.4475 0
M  V30 801 C 71.0168 -2.46547 6.36949 0
M  V30 802 O 70.7048 -2.33199 7.69333 0
M  V30 803 H 70.4368 -0.481773 0.474205 0
M  V30 804 H 72.9908 -0.934465 1.82912 0
M  V30 805 H 71.2208 -3.48458 1.67672 0
M  V30 806 H 72.9098 -3.47625 2.09551 0
M  V30 807 H 73.6758 -2.28816 4.27631 0
M  V30 808 H 69.5548 -3.1299 3.38464 0
M  V30 809 H 73.0988 -2.05698 6.66584 0
M  V30 810 H 68.9958 -2.90215 5.76581 0
M  V30 811 H 69.7638 -2.48376 7.79905 0
M  V30 812 N 72.4269 -1.23603 -0.977757 0
M  V30 813 C 73.6519 -1.09735 -1.75991 0
M  V30 814 C 74.0769 0.346858 -1.84874 0
M  V30 815 O 73.4349 1.25093 -1.3123 0
M  V30 816 C 73.4829 -1.73051 -3.16363 0
M  V30 817 O 72.5869 -0.994452 -4.0023 0
M  V30 818 H 71.9279 -0.384476 -0.541364 0
M  V30 819 H 74.4579 -1.6371 -1.2272 0
M  V30 820 H 74.4679 -1.78398 -3.66931 0
M  V30 821 H 73.1429 -2.78137 -3.09213 0
M  V30 822 H 71.7199 -1.01812 -3.58732 0
M  V30 823 N 73.905 1.17692 -1.04816 0
M  V30 824 C 74.835 2.23777 -0.666791 0
M  V30 825 C 75.816 1.66796 0.33361 0
M  V30 826 O 77.001 1.93039 0.212042 0
M  V30 827 C 74.131 3.47281 -0.0367933 0
M  V30 828 C 73.085 4.17059 -0.961546 0
M  V30 829 C 72.411 5.34342 -0.195626 0
M  V30 830 C 73.711 4.69713 -2.28402 0
M  V30 831 H 75.405 2.55933 -1.55367 0
M  V30 832 H 72.951 1.23019 -0.748484 0
M  V30 833 H 74.904 4.20706 0.241775 0
M  V30 834 H 73.628 3.14381 0.885004 0
M  V30 835 H 72.287 3.45541 -1.22462 0
M  V30 836 H 71.935 4.97692 0.728816 0
M  V30 837 H 71.635 5.81966 -0.811775 0
M  V30 838 H 73.159 6.10553 0.0757473 0
M  V30 839 H 74.573 5.34794 -2.06563 0
M  V30 840 H 72.97 5.279 -2.8538 0
M  V30 841 H 74.04 3.86726 -2.92525 0
M  V30 842 N 75.3831 0.828654 1.34056 0
M  V30 843 C 76.7991 0.515135 1.51058 0
M  V30 844 C 76.9991 -0.959581 1.77184 0
M  V30 845 O 76.0551 -1.74382 1.82612 0
M  V30 846 C 77.3681 1.37963 2.67183 0
M  V30 847 C 78.9161 1.37735 2.81066 0
M  V30 848 C 79.3911 2.22645 4.00241 0
M  V30 849 N 80.8821 2.203 4.07458 0
M  V30 850 C 81.6171 2.82744 4.98842 0
M  V30 851 N 81.1131 3.54201 5.9541 0
M  V30 852 N 82.9061 2.72268 4.91759 0
M  V30 853 H 75.0571 1.78343 1.15358 0
M  V30 854 H 77.3201 0.760304 0.566252 0
M  V30 855 H 77.0261 2.42714 2.54525 0
M  V30 856 H 76.9001 1.0484 3.62338 0
M  V30 857 H 79.2871 0.337593 2.93163 0
M  V30 858 H 79.3681 1.74859 1.86703 0
M  V30 859 H 79.0121 3.26674 3.88905 0
M  V30 860 H 78.9421 1.82869 4.93829 0
M  V30 861 H 81.4331 1.68327 3.38341 0
M  V30 862 H 81.7461 3.9908 6.61782 0
M  V30 863 H 80.0911 3.58308 5.95517 0
M  V30 864 H 83.2821 2.16014 4.15278 0
M  V30 865 H 83.4551 3.21219 5.62781 0
M  V30 866 N 76.8612 -1.46375 0.584142 0
M  V30 867 C 77.8082 -2.30323 -0.148286 0
M  V30 868 C 78.7782 -1.40703 -0.882713 0
M  V30 869 O 79.9632 -1.69651 -0.873099 0
M  V30 870 C 77.1032 -3.25196 -1.15507 0
M  V30 871 C 76.2162 -4.29915 -0.423943 0
M  V30 872 C 75.3512 -5.11914 -1.41838 0
M  V30 873 C 74.3902 -6.08381 -0.673736 0
M  V30 874 N 73.5272 -6.83242 -1.6163 0
M  V30 875 H 78.3672 -2.92427 0.573644 0
M  V30 876 H 75.9042 -1.44118 0.294703 0
M  V30 877 H 77.8622 -3.78646 -1.75166 0
M  V30 878 H 76.4922 -2.64898 -1.8447 0
M  V30 879 H 75.5442 -3.7931 0.287714 0
M  V30 880 H 76.8562 -4.98549 0.158128 0
M  V30 881 H 76.0102 -5.69648 -2.08773 0
M  V30 882 H 74.7492 -4.43243 -2.03438 0
M  V30 883 H 73.7542 -5.49799 0.00938483 0
M  V30 884 H 74.9792 -6.79071 -0.0631082 0
M  V30 885 H 72.9252 -6.1728 -2.22038 0
M  V30 886 H 72.8422 -7.48144 -1.08707 0
M  V30 887 H 74.1102 -7.45534 -2.27596 0
M  V30 888 N 78.3393 -0.321999 -1.54275 0
M  V30 889 C 79.6163 0.335232 -1.92706 0
M  V30 890 C 79.9963 1.70006 -1.25145 0
M  V30 891 O 79.3443 2.25067 -0.394596 0
M  V30 892 C 79.5543 0.429008 -3.46353 0
M  V30 893 C 80.9023 0.690029 -4.18956 0
M  V30 894 O 81.9263 0.511992 -3.52501 0
M  V30 895 O 80.7853 1.03338 -5.36641 0
M  V30 896 H 77.8793 0.191143 -0.804608 0
M  V30 897 H 80.4253 -0.3716 -1.65581 0
M  V30 898 H 79.1973 -0.529611 -3.87699 0
M  V30 899 H 78.8203 1.18348 -3.79578 0
M  V30 900 N 79.8174 1.5752 -0.0501392 0
M  V30 901 C 81.2334 1.56631 0.306402 0
M  V30 902 C 81.4334 1.0577 1.71508 0
M  V30 903 O 80.4894 0.713837 2.422 0
M  V30 904 C 81.8024 3.00393 0.135811 0
M  V30 905 C 83.3504 3.12315 0.206993 0
M  V30 906 C 83.8254 4.57954 0.064944 0
M  V30 907 N 85.3164 4.63041 0.121254 0
M  V30 908 C 86.0514 5.73389 0.0354381 0
M  V30 909 N 85.5474 6.92724 -0.102666 0
M  V30 910 N 87.3404 5.62026 0.090946 0
M  V30 911 H 79.4914 1.88903 -0.971046 0
M  V30 912 H 81.7544 0.869876 -0.376855 0
M  V30 913 H 81.4604 3.41635 -0.835384 0
M  V30 914 H 81.3344 3.66373 0.897275 0
M  V30 915 H 83.7214 2.70973 1.16866 0
M  V30 916 H 83.8024 2.49016 -0.585208 0
M  V30 917 H 83.4464 4.99981 -0.893394 0
M  V30 918 H 83.3764 5.19258 0.876277 0
M  V30 919 H 85.8674 3.77216 0.227284 0
M  V30 920 H 86.1804 7.72633 -0.160882 0
M  V30 921 H 84.5254 6.94864 -0.137737 0
M  V30 922 H 87.7164 4.67684 0.197388 0
M  V30 923 H 87.8894 6.47997 0.0206089 0
M  V30 924 N 81.2955 -0.223234 1.56011 0
M  V30 925 C 82.7065 -0.790368 1.69145 0
M  V30 926 C 83.0575 -1.85055 0.651845 0
M  V30 927 O 82.1825 -2.15498 -0.197359 0
M  V30 928 C 82.7775 -1.4404 3.06656 0
M  V30 929 C 81.3365 -1.95494 3.2165 0
M  V30 930 C 80.4835 -0.814506 2.65068 0
M  V30 931 H 83.4345 0.00139011 1.587 0
M  V30 932 H 83.4555 -2.30916 3.0242 0
M  V30 933 H 82.9675 -0.668543 3.82298 0
M  V30 934 H 81.0685 -2.75487 2.50874 0
M  V30 935 H 81.1815 -2.13607 4.28846 0
M  V30 936 H 79.5455 -1.22137 2.23505 0
M  V30 937 H 80.3285 -0.0553515 3.43255 0
M  V30 938 N 82.7736 -1.49793 -0.48987 0
M  V30 939 C 84.1846 -1.52914 -1.07118 0
M  V30 940 C 84.5356 -0.321738 -1.93544 0
M  V30 941 O 83.6606 0.567338 -2.08831 0
M  V30 942 C 84.2556 -2.771 -1.94938 0
M  V30 943 C 82.8146 -2.82963 -2.48212 0
M  V30 944 C 81.9616 -2.46972 -1.26096 0
M  V30 945 H 84.9126 -1.56329 -0.273289 0
M  V30 946 H 84.9336 -2.57892 -2.79771 0
M  V30 947 H 84.4456 -3.64959 -1.32009 0
M  V30 948 H 82.5466 -1.99411 -3.14748 0
M  V30 949 H 82.6596 -3.85406 -2.84603 0
M  V30 950 H 81.0236 -1.98994 -1.58976 0
M  V30 951 H 81.8066 -3.37118 -0.648581 0
M  V30 952 N 84.2517 0.741722 -1.39055 0
M  V30 953 C 85.1817 1.869 -1.39966 0
M  V30 954 C 86.1627 1.6804 -0.26392 0
M  V30 955 O 87.3477 1.88458 -0.468755 0
M  V30 956 C 84.4777 3.24572 -1.23574 0
M  V30 957 C 83.4317 3.58056 -2.34477 0
M  V30 958 C 82.7577 4.94593 -2.0318 0
M  V30 959 C 84.0577 3.61716 -3.76774 0
M  V30 960 H 85.7517 1.86395 -2.34302 0
M  V30 961 H 83.2977 0.895361 -1.1278 0
M  V30 962 H 85.2507 4.031 -1.22834 0
M  V30 963 H 83.9747 3.25587 -0.257045 0
M  V30 964 H 82.6337 2.81854 -2.34423 0
M  V30 965 H 82.2817 4.92181 -1.03765 0
M  V30 966 H 81.9817 5.17964 -2.77465 0
M  V30 967 H 83.5057 5.75486 -2.04079 0
M  V30 968 H 84.9197 4.30335 -3.78794 0
M  V30 969 H 83.3167 3.96603 -4.50362 0
M  V30 970 H 84.3867 2.61672 -4.08235 0
M  V30 971 N 85.7298 1.2412 0.971189 0
M  V30 972 C 86.9758 1.08041 1.71625 0
M  V30 973 C 87.3088 -0.380407 1.90438 0
M  V30 974 O 86.5838 -1.28127 1.46334 0
M  V30 975 C 86.8668 1.81682 3.10908 0
M  V30 976 C 86.7198 3.35493 2.99608 0
M  V30 977 C 88.0388 1.58671 4.10501 0
M  V30 978 H 85.1578 0.39388 0.622919 0
M  V30 979 H 87.7998 1.52743 1.13003 0
M  V30 980 H 85.9498 1.43684 3.60953 0
M  V30 981 H 87.6218 3.83068 2.57015 0
M  V30 982 H 85.8648 3.64052 2.35899 0
M  V30 983 H 86.5358 3.82217 3.98264 0
M  V30 984 H 89.0118 1.91719 3.69301 0
M  V30 985 H 87.8878 2.1266 5.06031 0
M  V30 986 H 88.1488 0.524161 4.38982 0
M  V30 987 N 87.2079 -1.17134 1.05439 0
M  V30 988 C 88.4549 -1.87456 0.765942 0
M  V30 989 C 88.7829 -1.81189 -0.707153 0
M  V30 990 O 88.0379 -1.21633 -1.5331 0
M  V30 991 C 88.3369 -3.36833 1.19491 0
M  V30 992 C 88.0029 -3.63301 2.67063 0
M  V30 993 C 86.6649 -3.70234 3.07376 0
M  V30 994 C 89.0169 -3.74575 3.62413 0
M  V30 995 C 86.3449 -3.85933 4.41896 0
M  V30 996 C 88.6969 -3.91793 4.9667 0
M  V30 997 C 87.3609 -3.96966 5.36633 0
M  V30 998 H 86.6309 -0.685948 0.280278 0
M  V30 999 H 89.2779 -1.38556 1.32192 0
M  V30 1000 H 87.5829 -3.87807 0.557969 0
M  V30 1001 H 89.2799 -3.89611 0.948893 0
M  V30 1002 H 85.8699 -3.58532 2.34846 0
M  V30 1003 H 90.0539 -3.68537 3.32406 0
M  V30 1004 H 85.3099 -3.88187 4.72357 0
M  V30 1005 H 89.4839 -3.99458 5.70444 0
M  V30 1006 H 87.1109 -4.08883 6.40874 0
M  V30 1007 N 88.686 -0.835752 -1.33615 0
M  V30 1008 C 89.916 -0.442701 -2.01801 0
M  V30 1009 C 90.324 0.959807 -1.63047 0
M  V30 1010 O 89.667 1.63468 -0.838088 0
M  V30 1011 C 89.729 -0.480125 -3.56279 0
M  V30 1012 C 89.393 -1.8382 -4.18401 0
M  V30 1013 C 90.39 -2.80097 -4.37998 0
M  V30 1014 C 88.075 -2.13019 -4.54894 0
M  V30 1015 C 90.069 -4.03736 -4.9323 0
M  V30 1016 C 87.756 -3.36916 -5.09834 0
M  V30 1017 C 88.754 -4.32091 -5.28948 0
M  V30 1018 O 88.442 -5.53797 -5.82721 0
M  V30 1019 H 88.174 -0.17441 -0.653114 0
M  V30 1020 H 90.728 -1.129 -1.71589 0
M  V30 1021 H 88.958 0.262931 -3.85805 0
M  V30 1022 H 90.647 -0.105335 -4.05763 0
M  V30 1023 H 91.413 -2.58838 -4.10156 0
M  V30 1024 H 87.292 -1.39733 -4.39313 0
M  V30 1025 H 90.836 -4.78034 -5.08064 0
M  V30 1026 H 86.733 -3.58033 -5.37106 0
M  V30 1027 H 87.501 -5.55494 -6.0114 0
M  V30 1028 N 90.1641 1.46063 -0.591896 0
M  V30 1029 C 91.4101 2.03203 -0.0894879 0
M  V30 1030 C 91.7651 1.45407 1.25994 0
M  V30 1031 O 91.0581 0.61326 1.8152 0
M  V30 1032 C 91.2521 3.57391 0.0249813 0
M  V30 1033 C 91.0811 4.30142 -1.3118 0
M  V30 1034 C 89.8511 4.68688 -1.88838 0
M  V30 1035 C 92.0491 4.63098 -2.23708 0
M  V30 1036 N 90.0311 5.26228 -3.1616 0
M  V30 1037 C 91.4021 5.21305 -3.3562 0
M  V30 1038 C 93.4571 4.45031 -2.23274 0
M  V30 1039 C 92.1601 5.63351 -4.47245 0
M  V30 1040 C 94.1861 4.881 -3.33935 0
M  V30 1041 C 93.5481 5.46386 -4.44569 0
M  V30 1042 H 89.6471 0.778323 -0.0757431 0
M  V30 1043 H 92.2311 1.78094 -0.78681 0
M  V30 1044 H 90.4021 3.82195 0.69149 0
M  V30 1045 H 92.1341 4.0118 0.532613 0
M  V30 1046 H 88.8891 4.5174 -1.42223 0
M  V30 1047 H 89.3131 5.59512 -3.8115 0
M  V30 1048 H 93.9551 3.99295 -1.39008 0
M  V30 1049 H 91.6731 6.08061 -5.32247 0
M  V30 1050 H 95.2591 4.75866 -3.34728 0
M  V30 1051 H 94.1391 5.79102 -5.28782 0
M  V30 1052 N 91.6422 0.330177 1.54103 0
M  V30 1053 C 92.8912 -0.271336 1.99867 0
M  V30 1054 C 93.2042 -1.52723 1.22209 0
M  V30 1055 O 94.4102 -2.20515 1.58383 0
M  V30 1056 C 92.8662 -0.534032 3.55916 0
M  V30 1057 C 92.4742 0.705193 4.42415 0
M  V30 1058 C 94.2182 -1.09514 4.1013 0
M  V30 1059 C 92.1252 0.414035 5.89949 0
M  V30 1060 H 91.0552 -0.105166 0.74663 0
M  V30 1061 H 93.7062 0.443429 1.78062 0
M  V30 1062 H 92.0882 -1.30915 3.73734 0
M  V30 1063 H 93.2622 1.4804 4.36372 0
M  V30 1064 H 91.5772 1.18698 3.99124 0
M  V30 1065 H 94.1742 -1.3277 5.17954 0
M  V30 1066 H 94.5172 -2.04656 3.62521 0
M  V30 1067 H 95.0502 -0.381038 3.95971 0
M  V30 1068 H 91.7892 1.33481 6.41766 0
M  V30 1069 H 91.3092 -0.323336 5.98928 0
M  V30 1070 H 92.9882 0.0263105 6.46995 0
M  V30 1071 N 93.1203 -1.57491 0.0584922 0
M  V30 1072 C 94.5313 -1.80526 -0.476138 0
M  V30 1073 C 94.8823 -0.971334 -1.70469 0
M  V30 1074 O 94.0073 -0.190012 -2.15564 0
M  V30 1075 C 94.6023 -3.27424 -0.870587 0
M  V30 1076 C 93.1613 -3.51351 -1.35015 0
M  V30 1077 C 92.3083 -2.75343 -0.32887 0
M  V30 1078 H 95.2593 -1.56133 0.284312 0
M  V30 1079 H 95.2803 -3.38745 -1.73299 0
M  V30 1080 H 94.7923 -3.88093 0.0237627 0
M  V30 1081 H 92.8933 -2.95971 -2.26345 0
M  V30 1082 H 93.0063 -4.60059 -1.33726 0
M  V30 1083 H 91.3703 -2.417 -0.803321 0
M  V30 1084 H 92.1533 -3.38743 0.557521 0
M  V30 1085 N 94.5984 0.214957 -1.56127 0
M  V30 1086 C 95.8444 0.935325 -1.80619 0
M  V30 1087 C 96.1994 1.81706 -0.632507 0
M  V30 1088 O 95.4924 1.87931 0.373182 0
M  V30 1089 C 95.6864 1.80314 -3.0858 0
M  V30 1090 C 95.5154 1.00691 -4.38282 0
M  V30 1091 C 94.2854 0.699211 -5.00439 0
M  V30 1092 C 96.4834 0.369057 -5.12974 0
M  V30 1093 N 94.4654 -0.117734 -6.13787 0
M  V30 1094 C 95.8364 -0.310981 -6.1922 0
M  V30 1095 C 97.8914 0.282759 -4.97096 0
M  V30 1096 C 96.5944 -1.06907 -7.11311 0
M  V30 1097 C 98.6204 -0.461881 -5.89594 0
M  V30 1098 C 97.9824 -1.13044 -6.9527 0
M  V30 1099 H 94.0814 0.322307 -0.71249 0
M  V30 1100 H 96.6654 0.205649 -1.93611 0
M  V30 1101 H 94.8364 2.50458 -2.96859 0
M  V30 1102 H 96.5684 2.46148 -3.21237 0
M  V30 1103 H 93.3234 1.01884 -4.62511 0
M  V30 1104 H 93.7474 -0.515235 -6.75037 0
M  V30 1105 H 98.3894 0.785292 -4.15443 0
M  V30 1106 H 96.1074 -1.5831 -7.92442 0
M  V30 1107 H 99.6934 -0.529746 -5.79383 0
M  V30 1108 H 98.5734 -1.69742 -7.65609 0
M  V30 1109 N 96.0765 1.50051 0.48192 0
M  V30 1110 C 97.3225 1.60736 1.2366 0
M  V30 1111 C 97.6555 0.301786 1.91841 0
M  V30 1112 O 96.9305 -0.696025 1.8162 0
M  V30 1113 C 97.2135 2.78009 2.28874 0
M  V30 1114 C 97.0665 4.18416 1.65069 0
M  V30 1115 C 98.3855 2.90867 3.30279 0
M  V30 1116 H 95.5045 0.585031 0.448228 0
M  V30 1117 H 98.1465 1.82402 0.531946 0
M  V30 1118 H 96.2965 2.59667 2.88973 0
M  V30 1119 H 97.9685 4.48322 1.0865 0
M  V30 1120 H 96.2115 4.23177 0.954148 0
M  V30 1121 H 96.8825 4.96381 2.41474 0
M  V30 1122 H 99.3585 3.07623 2.80191 0
M  V30 1123 H 98.2345 3.74566 4.01238 0
M  V30 1124 H 98.4955 2.01021 3.93755 0
M  V30 1125 N 97.5546 -0.734337 1.39446 0
M  V30 1126 C 98.8026 -1.49096 1.36436 0
M  V30 1127 C 99.1236 -1.94961 -0.0388255 0
M  V30 1128 O 98.3936 -1.69033 -0.990191 0
M  V30 1129 H 96.9736 -0.5531 0.502085 0
M  V30 1130 H 99.6356 -0.871725 1.74319 0
M  V30 1131 H 98.7316 -2.37276 2.02747 0
M  V30 1132 N 99.0327 -1.24633 -0.964593 0
M  V30 1133 C 100.258 -1.11596 -1.74818 0
M  V30 1134 C 100.683 0.32723 -1.85232 0
M  V30 1135 O 100.041 1.23695 -1.32549 0
M  V30 1136 C 100.089 -1.76397 -3.1451 0
M  V30 1137 O 99.1927 -1.03685 -3.99153 0
M  V30 1138 H 98.5337 -0.390196 -0.537255 0
M  V30 1139 H 101.064 -1.65002 -1.20977 0
M  V30 1140 H 101.074 -1.8228 -3.65018 0
M  V30 1141 H 99.7487 -2.81401 -3.06246 0
M  V30 1142 H 98.3257 -1.05611 -3.57632 0
M  V30 1143 N 100.511 1.16574 -1.06058 0
M  V30 1144 C 101.474 2.19085 -0.673392 0
M  V30 1145 C 102.474 1.5835 0.279648 0
M  V30 1146 O 103.664 1.74088 0.0623488 0
M  V30 1147 C 100.796 3.40899 0.00954234 0
M  V30 1148 H 101.989 2.54853 -1.58081 0
M  V30 1149 H 99.5418 1.30808 -0.855516 0
M  V30 1150 H 100.277 3.10684 0.929826 0
M  V30 1151 H 100.062 3.86233 -0.67573 0
M  V30 1152 H 101.552 4.1675 0.266245 0
M  V30 1153 N 101.989 0.842826 1.3317 0
M  V30 1154 C 103.235 0.441099 1.97945 0
M  V30 1155 C 103.568 -0.998024 1.66593 0
M  V30 1156 O 102.843 -1.69839 0.947898 0
M  V30 1157 C 103.126 0.666841 3.53872 0
M  V30 1158 C 102.979 2.15352 3.94897 0
M  V30 1159 C 104.298 0.115544 4.39948 0
M  V30 1160 H 101.417 0.161739 0.719034 0
M  V30 1161 H 104.059 1.05907 1.57746 0
M  V30 1162 H 102.209 0.140828 3.88245 0
M  V30 1163 H 103.881 2.7447 3.70761 0
M  V30 1164 H 102.124 2.63653 3.44484 0
M  V30 1165 H 102.795 2.26221 5.03516 0
M  V30 1166 H 105.271 0.565213 4.12243 0
M  V30 1167 H 104.147 0.303152 5.48062 0
M  V30 1168 H 104.408 -0.980935 4.3108 0
M  V30 1169 N 103.467 -1.45747 0.599634 0
M  V30 1170 C 104.713 -2.02592 0.0918643 0
M  V30 1171 C 105.046 -1.46806 -1.27128 0
M  V30 1172 O 104.321 -0.639658 -1.83681 0
M  V30 1173 C 104.604 -3.60073 0.0443398 0
M  V30 1174 C 104.457 -4.26208 1.43759 0
M  V30 1175 C 105.776 -4.35309 -0.647608 0
M  V30 1176 H 102.895 -0.736175 0.034857 0
M  V30 1177 H 105.537 -1.73694 0.770081 0
M  V30 1178 H 103.687 -3.84823 -0.533224 0
M  V30 1179 H 105.359 -4.12668 2.06162 0
M  V30 1180 H 103.602 -3.84916 2.00056 0
M  V30 1181 H 104.273 -5.35069 1.35665 0
M  V30 1182 H 106.749 -4.15805 -0.156776 0
M  V30 1183 H 105.625 -5.45038 -0.649942 0
M  V30 1184 H 105.886 -4.07598 -1.71219 0
M  V30 1185 N 104.945 -0.338344 -1.53925 0
M  V30 1186 C 106.175 0.260919 -2.04946 0
M  V30 1187 C 106.583 1.45174 -1.2133 0
M  V30 1188 O 105.926 1.82122 -0.240262 0
M  V30 1189 C 105.988 0.744596 -3.51704 0
M  V30 1190 C 105.652 -0.325883 -4.55837 0
M  V30 1191 C 106.649 -1.16687 -5.06636 0
M  V30 1192 C 104.334 -0.478317 -5.00017 0
M  V30 1193 C 106.328 -2.14588 -6.00192 0
M  V30 1194 C 104.015 -1.46073 -5.93385 0
M  V30 1195 C 105.013 -2.29297 -6.4336 0
M  V30 1196 O 104.701 -3.25867 -7.34892 0
M  V30 1197 H 104.433 0.0551207 -0.673749 0
M  V30 1198 H 106.987 -0.486984 -1.99544 0
M  V30 1199 H 105.217 1.54366 -3.54553 0
M  V30 1200 H 106.906 1.26383 -3.85723 0
M  V30 1201 H 107.672 -1.06016 -4.73271 0
M  V30 1202 H 103.551 0.159613 -4.60724 0
M  V30 1203 H 107.095 -2.79585 -6.39123 0
M  V30 1204 H 102.992 -1.56802 -6.26166 0
M  V30 1205 H 103.76 -3.21278 -7.5281 0
M  V30 1206 N 106.423 1.57458 -0.0668435 0
M  V30 1207 C 107.671 1.92919 0.602214 0
M  V30 1208 C 107.992 0.947215 1.70449 0
M  V30 1209 O 107.262 -0.00544117 1.95899 0
M  V30 1210 H 105.842 0.71217 0.22544 0
M  V30 1211 H 108.504 1.94508 -0.123535 0
M  V30 1212 H 107.6 2.94589 1.03073 0
M  V30 1213 N 107.901 -0.206675 1.56239 0
M  V30 1214 C 108.834 -1.28383 1.88661 0
M  V30 1215 C 109.812 -1.44504 0.745481 0
M  V30 1216 O 110.996 -1.60079 0.995336 0
M  V30 1217 C 108.123 -2.65211 2.10667 0
M  V30 1218 C 107.169 -2.66025 3.33366 0
M  V30 1219 S 108.002 -2.18609 4.88846 0
M  V30 1220 C 109.158 -3.57283 5.13906 0
M  V30 1221 H 109.391 -1.00691 2.7973 0
M  V30 1222 H 106.924 -0.409627 1.48867 0
M  V30 1223 H 108.882 -3.43979 2.24029 0
M  V30 1224 H 107.543 -2.90121 1.20369 0
M  V30 1225 H 106.736 -3.66607 3.45855 0
M  V30 1226 H 106.338 -1.95331 3.18938 0
M  V30 1227 H 108.63 -4.53074 5.03717 0
M  V30 1228 H 109.573 -3.49699 6.15724 0
M  V30 1229 H 109.981 -3.51659 4.41583 0
M  V30 1230 N 109.379 -1.50304 -0.473955 0
M  V30 1231 C 110.326 -1.68959 -1.57231 0
M  V30 1232 C 111.296 -0.530899 -1.57387 0
M  V30 1233 O 112.481 -0.761133 -1.74961 0
M  V30 1234 C 109.621 -1.7871 -2.95223 0
M  V30 1235 C 108.734 -3.06061 -3.04878 0
M  V30 1236 C 107.869 -3.06626 -4.33767 0
M  V30 1237 C 106.908 -4.28443 -4.37154 0
M  V30 1238 N 106.045 -4.26763 -5.5751 0
M  V30 1239 H 110.885 -2.6273 -1.40631 0
M  V30 1240 H 108.422 -1.30241 -0.683789 0
M  V30 1241 H 110.38 -1.82344 -3.75242 0
M  V30 1242 H 109.01 -0.883806 -3.10465 0
M  V30 1243 H 108.062 -3.11911 -2.17751 0
M  V30 1244 H 109.374 -3.96039 -3.0324 0
M  V30 1245 H 108.528 -3.08973 -5.22131 0
M  V30 1246 H 107.267 -2.14473 -4.3801 0
M  V30 1247 H 106.272 -4.2631 -3.47188 0
M  V30 1248 H 107.497 -5.2182 -4.34605 0
M  V30 1249 H 105.443 -3.37462 -5.62544 0
M  V30 1250 H 105.36 -5.10507 -5.57601 0
M  V30 1251 H 106.628 -4.33253 -6.48006 0
M  V30 1252 N 110.857 0.726932 -1.39834 0
M  V30 1253 C 112.268 1.30558 -1.3346 0
M  V30 1254 C 112.619 1.962 -0.00273003 0
M  V30 1255 O 111.744 1.96826 0.899371 0
M  V30 1256 C 112.339 2.37404 -2.41713 0
M  V30 1257 C 110.898 2.90921 -2.38835 0
M  V30 1258 C 110.045 1.64578 -2.2318 0
M  V30 1259 H 112.996 0.523862 -1.49804 0
M  V30 1260 H 113.017 3.17984 -2.08966 0
M  V30 1261 H 112.529 1.89599 -3.38635 0
M  V30 1262 H 110.63 3.42985 -1.45575 0
M  V30 1263 H 110.743 3.43487 -3.33997 0
M  V30 1264 H 109.107 1.89219 -1.70494 0
M  V30 1265 H 109.89 1.18814 -3.22084 0
M  V30 1266 N 112.336 1.25143 0.95797 0
M  V30 1267 C 113.566 1.12261 1.73439 0
M  V30 1268 C 113.974 -0.326715 1.86358 0
M  V30 1269 O 113.317 -1.2367 1.35836 0
M  V30 1270 C 113.379 1.69966 3.16784 0
M  V30 1271 C 113.043 3.18936 3.27305 0
M  V30 1272 C 114.04 4.15968 3.11877 0
M  V30 1273 C 111.725 3.59083 3.51234 0
M  V30 1274 C 113.719 5.51126 3.20217 0
M  V30 1275 C 111.406 4.9438 3.5921 0
M  V30 1276 C 112.404 5.90211 3.43716 0
M  V30 1277 O 112.092 7.23046 3.51368 0
M  V30 1278 H 111.824 0.392476 0.550399 0
M  V30 1279 H 114.378 1.65927 1.21068 0
M  V30 1280 H 112.608 1.10744 3.70503 0
M  V30 1281 H 114.297 1.52232 3.76272 0
M  V30 1282 H 115.063 3.86292 2.93264 0
M  V30 1283 H 110.942 2.84989 3.62356 0
M  V30 1284 H 114.486 6.25905 3.0804 0
M  V30 1285 H 110.383 5.23723 3.77339 0
M  V30 1286 H 111.151 7.31097 3.6802 0
M  V30 1287 N 113.814 -1.1601 1.06675 0
M  V30 1288 C 114.724 -2.24156 0.692179 0
M  V30 1289 C 115.74 -1.71507 -0.293513 0
M  V30 1290 O 116.916 -2.009 -0.141861 0
M  V30 1291 C 113.981 -3.46587 0.0884131 0
M  V30 1292 C 113.042 -4.14257 1.12646 0
M  V30 1293 C 112.275 -5.30844 0.551416 0
M  V30 1294 O 112.498 -5.66858 -0.634656 0
M  V30 1295 O 111.432 -5.87848 1.29298 0
M  V30 1296 H 115.258 -2.58513 1.59388 0
M  V30 1297 H 112.843 -1.23599 0.83926 0
M  V30 1298 H 114.725 -4.20679 -0.246361 0
M  V30 1299 H 113.4 -3.13994 -0.786712 0
M  V30 1300 H 112.307 -3.42118 1.51348 0
M  V30 1301 H 113.64 -4.50914 1.97325 0
M  V30 1302 N 115.292 -0.849877 -1.32721 0
M  V30 1303 C 116.539 -0.450923 -1.97416 0
M  V30 1304 C 116.867 0.992376 -1.67279 0
M  V30 1305 O 116.122 1.71048 -0.950845 0
M  V30 1306 C 116.421 -0.631272 -3.51781 0
M  V30 1307 C 116.087 -2.04432 -4.01894 0
M  V30 1308 C 114.749 -2.4308 -4.1529 0
M  V30 1309 C 117.101 -2.96679 -4.28522 0
M  V30 1310 C 114.429 -3.73257 -4.52654 0
M  V30 1311 C 116.781 -4.26349 -4.67343 0
M  V30 1312 C 115.445 -4.64939 -4.78945 0
M  V30 1313 H 114.715 -0.165004 -0.722395 0
M  V30 1314 H 117.362 -1.07901 -1.58207 0
M  V30 1315 H 115.667 0.0800767 -3.91718 0
M  V30 1316 H 117.364 -0.302709 -3.99856 0
M  V30 1317 H 113.954 -1.73419 -3.91949 0
M  V30 1318 H 118.138 -2.68054 -4.17685 0
M  V30 1319 H 113.394 -4.02946 -4.59831 0
M  V30 1320 H 117.568 -4.97895 -4.86902 0
M  V30 1321 H 115.195 -5.65855 -5.07654 0
M  V30 1322 N 116.77 1.45427 -0.607355 0
M  V30 1323 C 118.017 2.02241 -0.102455 0
M  V30 1324 C 118.345 1.4758 1.26691 0
M  V30 1325 O 117.6 0.640468 1.84923 0
M  V30 1326 C 117.899 3.57398 -0.0129263 0
M  V30 1327 C 117.565 4.3121 -1.31792 0
M  V30 1328 C 116.227 4.51092 -1.67539 0
M  V30 1329 C 118.579 4.73401 -2.18039 0
M  V30 1330 C 115.907 5.10422 -2.89285 0
M  V30 1331 C 118.259 5.34078 -3.39034 0
M  V30 1332 C 116.923 5.52184 -3.75033 0
M  V30 1333 H 116.193 0.740051 -0.037491 0
M  V30 1334 H 118.84 1.74494 -0.788926 0
M  V30 1335 H 117.145 3.84421 0.756806 0
M  V30 1336 H 118.842 3.99061 0.393881 0
M  V30 1337 H 115.432 4.16047 -1.02968 0
M  V30 1338 H 119.616 4.57774 -1.91721 0
M  V30 1339 H 114.872 5.22629 -3.17283 0
M  V30 1340 H 119.046 5.65724 -4.06115 0
M  V30 1341 H 116.673 5.97925 -4.69457 0
M  V30 1342 N 118.248 0.346503 1.53744 0
M  V30 1343 C 119.158 -0.517293 2.28826 0
M  V30 1344 C 120.174 -1.10935 1.3405 0
M  V30 1345 O 121.35 -1.1244 1.6709 0
M  V30 1346 C 118.415 -1.65098 3.04866 0
M  V30 1347 C 117.476 -1.0884 4.15274 0
M  V30 1348 C 116.709 -2.16806 4.87679 0
M  V30 1349 O 116.932 -3.3758 4.59778 0
M  V30 1350 O 115.866 -1.80934 5.74061 0
M  V30 1351 H 119.692 0.0931396 3.03557 0
M  V30 1352 H 117.277 0.111458 1.48984 0
M  V30 1353 H 119.159 -2.31053 3.5241 0
M  V30 1354 H 117.834 -2.24717 2.32989 0
M  V30 1355 H 116.741 -0.3933 3.72027 0
M  V30 1356 H 118.074 -0.537036 4.89261 0
M  V30 1357 N 119.726 -1.57421 0.075193 0
M  V30 1358 C 120.636 -2.1642 -0.905511 0
M  V30 1359 C 121.652 -1.12828 -1.32461 0
M  V30 1360 O 122.828 -1.45109 -1.39661 0
M  V30 1361 C 119.893 -2.71693 -2.15369 0
M  V30 1362 C 118.954 -3.90171 -1.79068 0
M  V30 1363 C 118.187 -4.42798 -2.97936 0
M  V30 1364 O 118.41 -3.94416 -4.12058 0
M  V30 1365 O 117.344 -5.34085 -2.77555 0
M  V30 1366 H 121.17 -3.00588 -0.433626 0
M  V30 1367 H 118.755 -1.48664 -0.148067 0
M  V30 1368 H 120.637 -3.07104 -2.88557 0
M  V30 1369 H 119.312 -1.90582 -2.61649 0
M  V30 1370 H 118.219 -3.59606 -1.03122 0
M  V30 1371 H 119.552 -4.72584 -1.37569 0
M  V30 1372 N 121.204 0.198386 -1.56346 0
M  V30 1373 C 122.444 0.92609 -1.82217 0
M  V30 1374 C 122.808 1.80584 -0.652195 0
M  V30 1375 O 124.009 2.56907 -0.790716 0
M  V30 1376 C 122.28 1.72354 -3.13096 0
M  V30 1377 S 123.839 2.50371 -3.6036 0
M  V30 1378 H 120.657 0.310677 -0.639532 0
M  V30 1379 H 123.259 0.189755 -1.94577 0
M  V30 1380 H 121.963 1.0678 -3.96265 0
M  V30 1381 H 121.494 2.50175 -3.03605 0
M  V30 1382 H 123.509 3.74488 -3.25535 0
M  V30 1383 N 122.682 1.50554 0.465978 0
M  V30 1384 C 123.614 1.65949 1.58093 0
M  V30 1385 C 124.627 0.540827 1.53554 0
M  V30 1386 O 125.816 0.814187 1.5885 0
M  V30 1387 C 122.916 1.63261 2.96983 0
M  V30 1388 C 122.089 2.91245 3.26336 0
M  V30 1389 C 121.148 2.8113 4.44806 0
M  V30 1390 O 120.174 3.55086 4.44862 0
M  V30 1391 N 121.376 1.95032 5.46756 0
M  V30 1392 H 124.141 2.62122 1.45301 0
M  V30 1393 H 121.702 1.48082 0.65448 0
M  V30 1394 H 123.694 1.54101 3.74212 0
M  V30 1395 H 122.264 0.748032 3.03518 0
M  V30 1396 H 121.484 3.14493 2.37672 0
M  V30 1397 H 122.772 3.76022 3.42761 0
M  V30 1398 H 122.17 1.3427 5.49534 0
M  V30 1399 H 120.727 1.91772 6.2295 0
M  V30 1400 N 124.16 -0.719506 1.40217 0
M  V30 1401 C 125.107 -1.83359 1.40172 0
M  V30 1402 C 126.077 -1.64065 0.259206 0
M  V30 1403 O 127.262 -1.85254 0.456677 0
M  V30 1404 C 124.402 -3.2103 1.26624 0
M  V30 1405 C 123.515 -3.51923 2.50548 0
M  V30 1406 C 122.65 -4.79079 2.29471 0
M  V30 1407 C 121.689 -5.02863 3.48992 0
M  V30 1408 N 120.826 -6.2123 3.27135 0
M  V30 1409 H 125.666 -1.82733 2.35399 0
M  V30 1410 H 123.203 -0.892688 1.16917 0
M  V30 1411 H 125.161 -4.00524 1.16776 0
M  V30 1412 H 123.791 -3.20895 0.350176 0
M  V30 1413 H 122.843 -2.67014 2.70939 0
M  V30 1414 H 124.155 -3.6541 3.39525 0
M  V30 1415 H 123.309 -5.66582 2.16955 0
M  V30 1416 H 122.048 -4.67794 1.37913 0
M  V30 1417 H 121.053 -4.13816 3.6199 0
M  V30 1418 H 122.278 -5.16023 4.41472 0
M  V30 1419 H 120.224 -6.11204 2.38256 0
M  V30 1420 H 120.141 -6.35375 4.09675 0
M  V30 1421 H 121.409 -7.11532 3.18344 0
M  V30 1422 N 125.638 -1.25649 -0.95132 0
M  V30 1423 C 126.585 -1.06323 -2.04851 0
M  V30 1424 C 127.555 0.0286491 -1.66075 0
M  V30 1425 O 128.74 -0.12917 -1.90362 0
M  V30 1426 C 125.88 -0.691529 -3.381 0
M  V30 1427 C 124.993 -1.85861 -3.89974 0
M  V30 1428 C 124.128 -1.43096 -5.11563 0
M  V30 1429 C 123.167 -2.56696 -5.55674 0
M  V30 1430 N 122.304 -2.14684 -6.68472 0
M  V30 1431 H 127.144 -2.00222 -2.20715 0
M  V30 1432 H 124.681 -0.997027 -1.08156 0
M  V30 1433 H 126.639 -0.456963 -4.1469 0
M  V30 1434 H 125.269 0.210474 -3.22113 0
M  V30 1435 H 124.321 -2.20639 -3.09875 0
M  V30 1436 H 125.633 -2.71161 -4.18657 0
M  V30 1437 H 124.787 -1.15624 -5.9558 0
M  V30 1438 H 123.526 -0.548722 -4.84603 0
M  V30 1439 H 122.531 -2.84909 -4.7022 0
M  V30 1440 H 123.756 -3.45503 -5.8464 0
M  V30 1441 H 121.702 -1.28881 -6.43215 0
M  V30 1442 H 121.619 -2.9353 -6.96689 0
M  V30 1443 H 122.887 -1.90397 -7.5589 0
M  V30 1444 N 127.117 1.15442 -1.07289 0
M  V30 1445 C 128.347 1.89821 -0.815576 0
M  V30 1446 C 128.755 1.7823 0.634867 0
M  V30 1447 O 128.098 1.13152 1.44715 0
M  V30 1448 C 128.16 3.40817 -1.14385 0
M  V30 1449 C 127.824 3.76193 -2.59476 0
M  V30 1450 C 128.821 3.77269 -3.57721 0
M  V30 1451 C 126.506 4.0652 -2.95037 0
M  V30 1452 C 128.5 4.08176 -4.89562 0
M  V30 1453 C 126.187 4.37092 -4.27076 0
M  V30 1454 C 127.185 4.37902 -5.24148 0
M  V30 1455 O 126.873 4.67741 -6.53815 0
M  V30 1456 H 126.605 0.608465 -0.294528 0
M  V30 1457 H 129.159 1.472 -1.43252 0
M  V30 1458 H 127.389 3.83835 -0.469865 0
M  V30 1459 H 129.078 3.96485 -0.869179 0
M  V30 1460 H 129.844 3.5394 -3.3159 0
M  V30 1461 H 125.723 4.05049 -2.20128 0
M  V30 1462 H 129.267 4.08723 -5.65324 0
M  V30 1463 H 125.164 4.59889 -4.5296 0
M  V30 1464 H 125.932 4.85509 -6.58957 0
M  V30 1465 N 128.595 0.856903 1.32268 0
M  V30 1466 C 129.843 0.460474 1.96784 0
M  V30 1467 C 130.164 -0.987701 1.68135 0
M  V30 1468 O 129.434 -1.69058 0.989765 0
M  V30 1469 H 128.014 0.167289 0.728027 0
M  V30 1470 H 130.676 1.09383 1.61312 0
M  V30 1471 H 129.772 0.60739 3.06133 0
M  V30 1472 N 130.073 -1.45103 0.615059 0
M  V30 1473 C 131.35 -1.95549 0.0448276 0
M  V30 1474 C 131.73 -1.55737 -1.4251 0
M  V30 1475 O 131.078 -0.823556 -2.13143 0
M  V30 1476 C 131.288 -3.48098 0.250785 0
M  V30 1477 C 132.636 -4.24384 0.135509 0
M  V30 1478 O 133.66 -3.55738 0.181299 0
M  V30 1479 O 132.519 -5.46493 0.0268878 0
M  V30 1480 H 129.613 -0.8264 -0.0314845 0
M  V30 1481 H 132.159 -1.55232 0.685642 0
M  V30 1482 H 130.931 -3.7007 1.27139 0
M  V30 1483 H 130.554 -3.95323 -0.424937 0
M  V30 1484 N 131.551 -0.354651 -1.53558 0
M  V30 1485 C 132.8 0.239504 -2.00273 0
M  V30 1486 C 133.113 1.50759 -1.24623 0
M  V30 1487 O 134.319 2.17968 -1.61871 0
M  V30 1488 C 132.775 0.477341 -3.5672 0
M  V30 1489 C 132.383 -0.775488 -4.41237 0
M  V30 1490 C 134.127 1.02975 -4.11821 0
M  V30 1491 C 132.034 -0.507838 -5.89216 0
M  V30 1492 H 130.964 0.0932743 -0.748208 0
M  V30 1493 H 133.615 -0.471701 -1.77334 0
M  V30 1494 H 131.997 1.24953 -3.7577 0
M  V30 1495 H 133.171 -1.54963 -4.33962 0
M  V30 1496 H 131.486 -1.25033 -3.97185 0
M  V30 1497 H 134.083 1.24513 -5.2 0
M  V30 1498 H 134.426 1.98862 -3.65731 0
M  V30 1499 H 134.959 0.317994 -3.96527 0
M  V30 1500 H 131.698 -1.43674 -6.39561 0
M  V30 1501 H 131.218 0.228011 -5.99366 0
M  V30 1502 H 132.897 -0.129238 -6.46871 0
M  V30 1503 N 133.029 1.57378 -0.0835403 0
M  V30 1504 C 134.276 1.9393 0.58287 0
M  V30 1505 C 134.604 0.964455 1.68904 0
M  V30 1506 O 133.859 -0.0179474 1.95692 0
M  V30 1507 C 134.158 3.37063 1.1884 0
M  V30 1508 C 133.824 4.50424 0.207194 0
M  V30 1509 C 132.486 4.81159 -0.0627115 0
M  V30 1510 C 134.838 5.19136 -0.463426 0
M  V30 1511 C 132.166 5.77939 -1.01012 0
M  V30 1512 C 134.518 6.16931 -1.39924 0
M  V30 1513 C 133.182 6.46078 -1.67749 0
M  V30 1514 H 132.452 0.70964 0.213287 0
M  V30 1515 H 135.099 1.90856 -0.156916 0
M  V30 1516 H 133.404 3.3666 2.00418 0
M  V30 1517 H 135.101 3.6264 1.71153 0
M  V30 1518 H 131.691 4.2646 0.427747 0
M  V30 1519 H 135.875 4.95576 -0.268034 0
M  V30 1520 H 131.131 5.98842 -1.23283 0
M  V30 1521 H 135.305 6.69273 -1.92476 0
M  V30 1522 H 132.932 7.2088 -2.41321 0
M  V30 1523 N 134.507 -0.190092 1.56449 0
M  V30 1524 C 135.732 -0.929864 1.85387 0
M  V30 1525 C 136.157 -1.7585 0.667704 0
M  V30 1526 O 135.515 -1.77198 -0.383459 0
M  V30 1527 C 135.563 -1.79773 3.12593 0
M  V30 1528 O 134.667 -2.89713 2.93496 0
M  V30 1529 H 134.008 -0.261574 0.610307 0
M  V30 1530 H 136.538 -0.193896 2.03679 0
M  V30 1531 H 136.548 -2.20139 3.43515 0
M  V30 1532 H 135.223 -1.18892 3.98544 0
M  V30 1533 H 133.8 -2.53065 2.73884 0
M  V30 1534 N 135.985 -1.50799 -0.457987 0
M  V30 1535 C 137.232 -1.62442 -1.20908 0
M  V30 1536 C 137.56 -0.330865 -1.91665 0
M  V30 1537 O 136.815 0.68401 -1.83357 0
M  V30 1538 C 137.114 -2.76358 -2.2663 0
M  V30 1539 C 136.78 -4.16378 -1.73033 0
M  V30 1540 C 135.442 -4.54473 -1.58138 0
M  V30 1541 C 137.794 -5.03836 -1.33413 0
M  V30 1542 C 135.122 -5.77754 -1.02065 0
M  V30 1543 C 137.474 -6.27676 -0.78778 0
M  V30 1544 C 136.138 -6.64562 -0.625561 0
M  V30 1545 H 135.408 -0.594417 -0.442435 0
M  V30 1546 H 138.055 -1.84772 -0.503136 0
M  V30 1547 H 136.36 -2.48167 -3.03184 0
M  V30 1548 H 138.057 -2.82568 -2.84528 0
M  V30 1549 H 134.647 -3.86331 -1.85598 0
M  V30 1550 H 138.831 -4.75026 -1.4375 0
M  V30 1551 H 134.087 -6.04997 -0.882547 0
M  V30 1552 H 138.261 -6.94797 -0.472177 0
M  V30 1553 H 135.888 -7.59965 -0.188926 0
M  V30 1554 N 137.463 0.71206 -1.40597 0
M  V30 1555 C 138.709 1.47416 -1.39271 0
M  V30 1556 C 139.042 1.942 0.00388791 0
M  V30 1557 O 138.317 1.68403 0.973179 0
M  V30 1558 C 138.6 2.69774 -2.38525 0
M  V30 1559 C 138.453 2.28861 -3.87224 0
M  V30 1560 C 139.772 3.71939 -2.35264 0
M  V30 1561 H 136.891 0.534713 -0.5072 0
M  V30 1562 H 139.533 0.812375 -1.71757 0
M  V30 1563 H 137.683 3.26238 -2.10953 0
M  V30 1564 H 139.355 1.77852 -4.25636 0
M  V30 1565 H 137.598 1.60824 -4.02887 0
M  V30 1566 H 138.269 3.16584 -4.52193 0
M  V30 1567 H 140.745 3.25113 -2.59694 0
M  V30 1568 H 139.621 4.55186 -3.06753 0
M  V30 1569 H 139.882 4.20484 -1.36549 0
M  V30 1570 N 138.941 1.26152 0.944643 0
M  V30 1571 C 139.871 1.09902 2.06019 0
M  V30 1572 C 140.852 0.00519538 1.70099 0
M  V30 1573 O 142.037 0.176583 1.93396 0
M  V30 1574 C 139.167 0.727562 3.39594 0
M  V30 1575 C 138.121 1.77274 3.89561 0
M  V30 1576 C 137.447 1.25569 5.19747 0
M  V30 1577 C 138.747 3.17357 4.14827 0
M  V30 1578 H 140.441 2.03217 2.19871 0
M  V30 1579 H 137.987 0.978452 1.05652 0
M  V30 1580 H 139.94 0.600777 4.17095 0
M  V30 1581 H 138.664 -0.241287 3.25707 0
M  V30 1582 H 137.323 1.88814 3.14237 0
M  V30 1583 H 136.971 0.276783 5.02238 0
M  V30 1584 H 136.671 1.95433 5.54148 0
M  V30 1585 H 138.195 1.1415 5.99835 0
M  V30 1586 H 139.609 3.08914 4.82954 0
M  V30 1587 H 138.006 3.84781 4.60504 0
M  V30 1588 H 139.076 3.63673 3.20734 0
M  V30 1589 N 140.419 -1.14872 1.07899 0
M  V30 1590 C 141.349 -2.2193 0.725887 0
M  V30 1591 C 142.33 -1.67622 -0.28927 0
M  V30 1592 O 143.515 -1.93533 -0.160787 0
M  V30 1593 C 140.645 -3.47061 0.128856 0
M  V30 1594 C 139.599 -4.14363 1.07178 0
M  V30 1595 C 138.925 -5.33636 0.337229 0
M  V30 1596 C 140.225 -4.63492 2.40775 0
M  V30 1597 H 141.919 -2.51724 1.62097 0
M  V30 1598 H 139.465 -1.20991 0.780838 0
M  V30 1599 H 141.418 -4.21199 -0.130147 0
M  V30 1600 H 140.142 -3.16617 -0.80134 0
M  V30 1601 H 138.801 -3.42173 1.3158 0
M  V30 1602 H 138.449 -4.99449 -0.596606 0
M  V30 1603 H 138.149 -5.79609 0.965788 0
M  V30 1604 H 139.673 -6.10539 0.0861567 0
M  V30 1605 H 141.087 -5.2913 2.20669 0
M  V30 1606 H 139.484 -5.20148 2.99276 0
M  V30 1607 H 140.554 -3.78834 3.02676 0
M  V30 1608 N 141.898 -0.863906 -1.31812 0
M  V30 1609 C 143.146 -0.470904 -1.96537 0
M  V30 1610 C 143.467 0.978771 -1.68657 0
M  V30 1611 O 142.737 1.6853 -0.998717 0
M  V30 1612 H 141.317 -0.171148 -0.72713 0
M  V30 1613 H 143.979 -1.10236 -1.60729 0
M  V30 1614 H 143.075 -0.623616 -3.05806 0
M  V30 1615 N 143.376 1.44774 -0.622745 0
M  V30 1616 C 144.792 1.56986 -0.287652 0
M  V30 1617 C 144.992 1.61167 1.20944 0
M  V30 1618 O 144.048 1.55015 1.99315 0
M  V30 1619 C 145.361 2.84551 -0.972188 0
M  V30 1620 C 146.909 2.9825 -0.949536 0
M  V30 1621 C 147.384 4.28605 -1.61437 0
M  V30 1622 N 148.875 4.35399 -1.58057 0
M  V30 1623 C 149.61 5.34964 -2.064 0
M  V30 1624 N 149.106 6.40981 -2.62897 0
M  V30 1625 N 150.899 5.26419 -1.97078 0
M  V30 1626 H 143.05 1.40304 -1.59463 0
M  V30 1627 H 145.313 0.671794 -0.668878 0
M  V30 1628 H 145.019 2.87417 -2.02693 0
M  V30 1629 H 144.893 3.73807 -0.504771 0
M  V30 1630 H 147.28 2.94941 0.0967067 0
M  V30 1631 H 147.361 2.10364 -1.45536 0
M  V30 1632 H 147.005 4.32672 -2.66002 0
M  V30 1633 H 146.935 5.15334 -1.08344 0
M  V30 1634 H 149.426 3.59397 -1.16801 0
M  V30 1635 H 149.739 7.13225 -2.97539 0
M  V30 1636 H 148.084 6.4169 -2.66943 0
M  V30 1637 H 151.275 4.42504 -1.52669 0
M  V30 1638 H 151.448 6.03861 -2.35066 0
M  V30 1639 N 144.854 0.36279 1.53368 0
M  V30 1640 C 146.1 -0.228113 2.01513 0
M  V30 1641 C 146.433 -1.48648 1.2497 0
M  V30 1642 O 145.708 -1.91459 0.342616 0
M  V30 1643 C 145.991 -0.522884 3.56284 0
M  V30 1644 C 145.844 0.74892 4.43521 0
M  V30 1645 C 147.163 -1.32461 4.19693 0
M  V30 1646 H 144.282 -0.0814343 0.732487 0
M  V30 1647 H 146.924 0.48713 1.83649 0
M  V30 1648 H 145.074 -1.1322 3.71636 0
M  V30 1649 H 146.746 1.38648 4.39971 0
M  V30 1650 H 144.989 1.36986 4.11603 0
M  V30 1651 H 145.66 0.497667 5.49752 0
M  V30 1652 H 148.136 -0.809203 4.08156 0
M  V30 1653 H 147.012 -1.49961 5.28018 0
M  V30 1654 H 147.273 -2.33232 3.75573 0
M  V30 1655 N 146.332 -1.57332 0.0918853 0
M  V30 1656 C 147.265 -2.09499 -0.904735 0
M  V30 1657 C 148.243 -1.00479 -1.27839 0
M  V30 1658 O 149.427 -1.27954 -1.38419 0
M  V30 1659 C 146.554 -2.56931 -2.2069 0
M  V30 1660 C 145.6 -3.77579 -1.98334 0
M  V30 1661 S 146.433 -5.21317 -1.22428 0
M  V30 1662 C 147.589 -5.72097 -2.53882 0
M  V30 1663 H 147.822 -2.93705 -0.460922 0
M  V30 1664 H 145.355 -1.53923 -0.121332 0
M  V30 1665 H 147.313 -2.84917 -2.95521 0
M  V30 1666 H 145.974 -1.72956 -2.62192 0
M  V30 1667 H 145.167 -4.08824 -2.94752 0
M  V30 1668 H 144.769 -3.5007 -1.31633 0
M  V30 1669 H 147.061 -5.80168 -3.49874 0
M  V30 1670 H 148.004 -6.70654 -2.27219 0
M  V30 1671 H 148.412 -5.00012 -2.62007 0
M  V30 1672 N 147.81 0.181792 -1.56548 0
M  V30 1673 C 149.038 0.915947 -1.85521 0
M  V30 1674 C 149.453 1.76282 -0.676016 0
M  V30 1675 O 148.81 1.79012 0.355077 0
M  V30 1676 C 148.861 1.80126 -3.13427 0
M  V30 1677 O 148.582 0.988562 -4.26801 0
M  V30 1678 C 150.083 2.64597 -3.55673 0
M  V30 1679 H 147.303 0.26661 -0.61576 0
M  V30 1680 H 149.847 0.185039 -2.03661 0
M  V30 1681 H 148.002 2.48563 -2.97145 0
M  V30 1682 H 148.416 1.59308 -4.99721 0
M  V30 1683 H 149.89 3.2235 -4.48101 0
M  V30 1684 H 150.367 3.38958 -2.79292 0
M  V30 1685 H 150.973 2.0151 -3.74532 0
M  V30 1686 N 149.288 1.51039 0.449983 0
M  V30 1687 C 150.534 1.63322 1.20223 0
M  V30 1688 C 150.867 0.34241 1.91158 0
M  V30 1689 O 150.142 -0.657344 1.83055 0
M  V30 1690 C 150.425 2.82801 2.22925 0
M  V30 1691 C 150.278 4.21823 1.56157 0
M  V30 1692 C 151.597 2.97807 3.24035 0
M  V30 1693 H 148.716 0.594407 0.435718 0
M  V30 1694 H 151.358 1.83489 0.493136 0
M  V30 1695 H 149.508 2.65738 2.834 0
M  V30 1696 H 151.18 4.50526 0.991162 0
M  V30 1697 H 149.423 4.25105 0.864172 0
M  V30 1698 H 150.094 5.01391 2.30891 0
M  V30 1699 H 152.57 3.13497 2.73603 0
M  V30 1700 H 151.446 3.82992 3.93202 0
M  V30 1701 H 151.707 2.09328 3.89402 0
M  V30 1702 N 150.766 -0.704594 1.40972 0
M  V30 1703 C 151.996 -1.49138 1.42974 0
M  V30 1704 C 152.404 -1.89175 0.0308406 0
M  V30 1705 O 151.747 -1.56734 -0.958138 0
M  V30 1706 C 151.809 -2.79016 2.26694 0
M  V30 1707 C 151.473 -2.61236 3.74973 0
M  V30 1708 C 152.47 -2.27773 4.67349 0
M  V30 1709 C 150.155 -2.77158 4.18914 0
M  V30 1710 C 152.149 -2.10457 6.01653 0
M  V30 1711 C 149.836 -2.59459 5.53285 0
M  V30 1712 C 150.834 -2.26158 6.4447 0
M  V30 1713 O 150.522 -2.08605 7.76363 0
M  V30 1714 H 150.254 -0.466443 0.489292 0
M  V30 1715 H 152.808 -0.8758 1.85793 0
M  V30 1716 H 151.038 -3.42947 1.78673 0
M  V30 1717 H 152.727 -3.40782 2.20504 0
M  V30 1718 H 153.493 -2.15095 4.34694 0
M  V30 1719 H 149.372 -3.02064 3.48251 0
M  V30 1720 H 152.916 -1.84387 6.72791 0
M  V30 1721 H 148.813 -2.71725 5.85522 0
M  V30 1722 H 149.581 -2.23439 7.87412 0
M  V30 1723 N 152.244 -1.26651 -0.937939 0
M  V30 1724 C 153.174 -1.10993 -2.05433 0
M  V30 1725 C 154.155 -0.0142161 -1.70094 0
M  V30 1726 O 155.34 -0.186837 -1.93299 0
M  V30 1727 C 152.47 -0.745561 -3.39203 0
M  V30 1728 C 151.424 -1.79337 -3.88616 0
M  V30 1729 C 150.75 -1.28324 -5.19073 0
M  V30 1730 C 152.05 -3.19553 -4.13138 0
M  V30 1731 H 153.744 -2.0438 -2.1879 0
M  V30 1732 H 151.29 -0.984041 -1.05131 0
M  V30 1733 H 153.243 -0.622888 -4.16771 0
M  V30 1734 H 151.967 0.22401 -3.25831 0
M  V30 1735 H 150.626 -1.90477 -3.13231 0
M  V30 1736 H 150.274 -0.303414 -5.02084 0
M  V30 1737 H 149.974 -1.98369 -5.53103 0
M  V30 1738 H 151.498 -1.1733 -5.99221 0
M  V30 1739 H 152.912 -3.11471 -4.81309 0
M  V30 1740 H 151.309 -3.87218 -4.58457 0
M  V30 1741 H 152.379 -3.65368 -3.18801 0
M  V30 1742 N 153.722 1.14298 -1.08507 0
M  V30 1743 C 154.97 1.84993 -0.813763 0
M  V30 1744 C 155.291 1.83405 0.662393 0
M  V30 1745 O 154.561 1.28319 1.48024 0
M  V30 1746 H 153.141 0.684966 -0.298045 0
M  V30 1747 H 155.803 1.385 -1.37126 0
M  V30 1748 H 154.899 2.89788 -1.15884 0
M  V30 1749 N 155.201 0.870884 1.31352 0
M  V30 1750 C 156.612 0.534714 1.78879 0
M  V30 1751 C 156.963 -0.948423 1.71754 0
M  V30 1752 O 156.088 -1.74055 1.28584 0
M  V30 1753 C 156.683 0.963839 3.24801 0
M  V30 1754 C 155.242 0.679311 3.70219 0
M  V30 1755 C 154.389 1.15465 2.52117 0
M  V30 1756 H 157.34 1.05651 1.18421 0
M  V30 1757 H 157.361 0.286892 3.79417 0
M  V30 1758 H 156.873 2.04332 3.29955 0
M  V30 1759 H 154.974 -0.388769 3.70566 0
M  V30 1760 H 155.087 1.25698 4.62317 0
M  V30 1761 H 153.451 0.574383 2.48139 0
M  V30 1762 H 154.234 2.24157 2.60016 0
M  V30 1763 N 156.679 -1.44442 0.630414 0
M  V30 1764 C 157.626 -2.30678 -0.0749355 0
M  V30 1765 C 158.596 -1.4344 -0.837502 0
M  V30 1766 O 159.781 -1.72343 -0.818684 0
M  V30 1767 C 156.921 -3.28706 -1.05103 0
M  V30 1768 C 156.034 -4.31046 -0.286954 0
M  V30 1769 C 155.169 -5.16167 -1.2548 0
M  V30 1770 C 154.208 -6.10216 -0.479843 0
M  V30 1771 N 153.345 -6.88039 -1.39811 0
M  V30 1772 H 158.185 -2.90454 0.666386 0
M  V30 1773 H 155.722 -1.43107 0.340404 0
M  V30 1774 H 157.68 -3.84027 -1.63031 0
M  V30 1775 H 156.31 -2.70632 -1.75949 0
M  V30 1776 H 155.362 -3.78203 0.408243 0
M  V30 1777 H 156.674 -4.97794 0.316657 0
M  V30 1778 H 155.828 -5.76002 -1.90544 0
M  V30 1779 H 154.567 -4.49491 -1.89233 0
M  V30 1780 H 153.572 -5.49491 0.184295 0
M  V30 1781 H 154.797 -6.78928 0.152965 0
M  V30 1782 H 152.743 -6.24032 -2.02287 0
M  V30 1783 H 152.66 -7.51223 -0.848508 0
M  V30 1784 H 153.928 -7.52397 -2.03762 0
M  V30 1785 N 158.157 -0.370918 -1.53173 0
M  V30 1786 C 159.405 0.216673 -2.00935 0
M  V30 1787 C 159.726 1.48845 -1.25977 0
M  V30 1788 O 158.996 1.92286 -0.374551 0
M  V30 1789 H 157.576 0.0830565 -0.742368 0
M  V30 1790 H 160.238 -0.49838 -1.8842 0
M  V30 1791 H 159.334 0.439893 -3.08984 0
M  V30 1792 N 159.635 1.57281 -0.100228 0
M  V30 1793 C 160.585 2.10848 0.86759 0
M  V30 1794 C 161.569 1.02473 1.24049 0
M  V30 1795 O 162.761 1.28739 1.21471 0
M  V30 1796 C 159.89 2.69648 2.12474 0
M  V30 1797 C 158.976 3.85074 1.77704 0
M  V30 1798 N 159.367 4.92897 1.13518 0
M  V30 1799 C 157.665 3.94905 2.07282 0
M  V30 1800 C 158.366 5.73475 0.974735 0
M  V30 1801 N 157.342 5.22675 1.4937 0
M  V30 1802 H 161.144 2.91594 0.367471 0
M  V30 1803 H 158.658 1.62074 0.102829 0
M  V30 1804 H 160.655 3.06356 2.82757 0
M  V30 1805 H 159.315 1.90359 2.63047 0
M  V30 1806 H 160.326 5.11662 0.801381 0
M  V30 1807 H 157.003 3.26633 2.60033 0
M  V30 1808 H 158.393 6.70238 0.472364 0
M  V30 1809 N 161.113 -0.173488 1.56642 0
M  V30 1810 C 162.023 -1.23482 1.99473 0
M  V30 1811 C 163.039 -1.48567 0.905752 0
M  V30 1812 O 164.215 -1.60758 1.21321 0
M  V30 1813 C 161.28 -2.55444 2.34413 0
M  V30 1814 C 160.341 -2.38241 3.57127 0
M  V30 1815 C 159.574 -3.63909 3.90392 0
M  V30 1816 O 159.797 -4.68996 3.24653 0
M  V30 1817 O 158.731 -3.58149 4.83749 0
M  V30 1818 H 162.557 -0.901279 2.90018 0
M  V30 1819 H 160.142 -0.380185 1.44482 0
M  V30 1820 H 162.024 -3.33292 2.57865 0
M  V30 1821 H 160.699 -2.88382 1.4703 0
M  V30 1822 H 159.606 -1.58431 3.38896 0
M  V30 1823 H 160.939 -2.10228 4.45045 0
M  V30 1824 N 162.591 -1.51276 -0.441967 0
M  V30 1825 C 163.838 -1.63715 -1.19179 0
M  V30 1826 C 164.166 -0.351175 -1.91303 0
M  V30 1827 O 163.421 0.664524 -1.84072 0
M  V30 1828 C 163.72 -2.78746 -2.23686 0
M  V30 1829 C 163.386 -4.18189 -1.68607 0
M  V30 1830 C 162.048 -4.56125 -1.53308 0
M  V30 1831 C 164.4 -5.05222 -1.28062 0
M  V30 1832 C 161.728 -5.78804 -0.959317 0
M  V30 1833 C 164.08 -6.28476 -0.721162 0
M  V30 1834 C 162.744 -6.65188 -0.55504 0
M  V30 1835 H 162.014 -0.599076 -0.436106 0
M  V30 1836 H 164.661 -1.85296 -0.48351 0
M  V30 1837 H 162.966 -2.51369 -3.00535 0
M  V30 1838 H 164.663 -2.8557 -2.81515 0
M  V30 1839 H 161.253 -3.88277 -1.8149 0
M  V30 1840 H 165.437 -4.76524 -1.38704 0
M  V30 1841 H 160.693 -6.05899 -0.81833 0
M  V30 1842 H 164.867 -6.95259 -0.398458 0
M  V30 1843 H 162.494 -7.60123 -0.108311 0
M  V30 1844 N 164.069 0.697108 -1.41344 0
M  V30 1845 C 165.315 1.4593 -1.40827 0
M  V30 1846 C 165.648 1.94193 -0.0167098 0
M  V30 1847 O 164.923 1.69425 0.955263 0
M  V30 1848 C 165.206 2.67229 -2.41373 0
M  V30 1849 C 165.059 2.24741 -3.8963 0
M  V30 1850 C 166.378 3.69423 -2.39196 0
M  V30 1851 H 163.497 0.529303 -0.512842 0
M  V30 1852 H 166.139 0.794112 -1.72609 0
M  V30 1853 H 164.289 3.23982 -2.14401 0
M  V30 1854 H 165.961 1.73327 -4.27499 0
M  V30 1855 H 164.204 1.56542 -4.0457 0
M  V30 1856 H 164.875 3.1177 -4.55525 0
M  V30 1857 H 167.351 3.2234 -2.63128 0
M  V30 1858 H 166.227 4.51907 -3.11563 0
M  V30 1859 H 166.488 4.19012 -1.41001 0
M  V30 1860 N 165.547 1.27147 0.931209 0
M  V30 1861 C 166.794 1.13278 1.67852 0
M  V30 1862 C 167.122 -0.32204 1.91815 0
M  V30 1863 O 166.377 -1.25224 1.50391 0
M  V30 1864 C 166.676 1.8579 3.05314 0
M  V30 1865 C 166.342 3.35657 3.01073 0
M  V30 1866 C 165.004 3.76536 2.99623 0
M  V30 1867 C 167.356 4.31299 2.92627 0
M  V30 1868 C 164.684 5.11426 2.87506 0
M  V30 1869 C 167.036 5.66242 2.82051 0
M  V30 1870 C 165.7 6.06418 2.7895 0
M  V30 1871 H 164.97 0.414515 0.614214 0
M  V30 1872 H 167.617 1.57712 1.08624 0
M  V30 1873 H 165.922 1.33854 3.68226 0
M  V30 1874 H 167.619 1.72491 3.62005 0
M  V30 1875 H 164.209 3.03146 3.02986 0
M  V30 1876 H 168.393 4.00692 2.92848 0
M  V30 1877 H 163.649 5.41705 2.83489 0
M  V30 1878 H 167.823 6.40026 2.74481 0
M  V30 1879 H 165.45 7.10895 2.69318 0
M  V30 1880 N 167.025 -1.13721 1.09112 0
M  V30 1881 C 167.973 -2.21103 0.722219 0
M  V30 1882 C 168.967 -1.67147 -0.275374 0
M  V30 1883 O 170.173 -1.79477 -0.137176 0
M  V30 1884 H 166.548 -0.720445 0.215553 0
M  V30 1885 H 168.519 -2.49483 1.63709 0
M  V30 1886 C 167.268 -3.47352 0.15543 0
M  V30 1887 H 166.591 -3.89206 0.914246 0
M  V30 1888 H 168.031 -4.2395 -0.0647967 0
M  V30 1889 C 166.49 -3.1814 -1.10852 0
M  V30 1890 O 167.02 -3.36604 -2.19227 0
M  V30 1891 N 165.226 -2.72045 -1.02176 0
M  V30 1892 H 164.773 -2.57221 -0.139764 0
M  V30 1893 H 164.731 -2.52875 -1.8682 0
M  V30 1894 N 168.503 -0.877838 -1.30888 0
M  V30 1895 C 169.466 -0.344265 -2.266 0
M  V30 1896 C 170.466 0.50922 -1.52524 0
M  V30 1897 O 171.656 0.317398 -1.71284 0
M  V30 1898 C 168.788 0.510198 -3.37061 0
M  V30 1899 H 169.981 -1.1893 -2.7531 0
M  V30 1900 H 167.534 -0.654088 -1.41956 0
M  V30 1901 H 168.269 1.37612 -2.93655 0
M  V30 1902 H 168.054 -0.101047 -3.9197 0
M  V30 1903 H 169.544 0.875537 -4.08319 0
M  V30 1904 N 169.982 1.44106 -0.638065 0
M  V30 1905 C 170.929 2.30715 0.062701 0
M  V30 1906 C 171.899 1.43882 0.829883 0
M  V30 1907 O 173.084 1.72775 0.809532 0
M  V30 1908 C 170.224 3.29258 1.03358 0
M  V30 1909 C 169.337 4.31192 0.26409 0
M  V30 1910 C 168.472 5.16825 1.22741 0
M  V30 1911 C 167.511 6.10462 0.447475 0
M  V30 1912 N 166.648 6.8877 1.36161 0
M  V30 1913 H 171.488 2.90096 -0.681781 0
M  V30 1914 H 169.025 1.42925 -0.347988 0
M  V30 1915 H 170.983 3.84886 1.60992 0
M  V30 1916 H 169.613 2.71562 1.74511 0
M  V30 1917 H 168.665 3.77981 -0.428295 0
M  V30 1918 H 169.977 4.97619 -0.343052 0
M  V30 1919 H 169.131 5.77004 1.87487 0
M  V30 1920 H 167.87 4.50488 1.86847 0
M  V30 1921 H 166.875 5.49386 -0.213433 0
M  V30 1922 H 168.1 6.78837 -0.188968 0
M  V30 1923 H 166.046 6.25096 1.98975 0
M  V30 1924 H 165.963 7.51663 0.808656 0
M  V30 1925 H 167.231 7.53467 1.99769 0
M  V30 1926 N 171.46 0.379036 1.52974 0
M  V30 1927 C 172.39 -0.452706 2.29069 0
M  V30 1928 C 173.371 -1.07237 1.32039 0
M  V30 1929 O 174.556 -1.08708 1.60923 0
M  V30 1930 C 171.686 -1.5856 3.08992 0
M  V30 1931 C 170.64 -1.0925 4.13822 0
M  V30 1932 C 169.966 -2.31668 4.81907 0
M  V30 1933 C 171.266 -0.167702 5.22031 0
M  V30 1934 H 172.96 0.182181 2.98845 0
M  V30 1935 H 170.506 0.0890592 1.43724 0
M  V30 1936 H 172.459 -2.1742 3.6098 0
M  V30 1937 H 171.183 -2.24792 2.36931 0
M  V30 1938 H 169.842 -0.526494 3.628 0
M  V30 1939 H 169.49 -2.96386 4.06404 0
M  V30 1940 H 169.19 -1.9934 5.52754 0
M  V30 1941 H 170.714 -2.91189 5.36695 0
M  V30 1942 H 172.128 -0.664186 5.6944 0
M  V30 1943 H 170.525 0.0653265 6.00064 0
M  V30 1944 H 171.595 0.786347 4.78482 0
M  V30 1945 N 172.938 -1.57226 0.108567 0
M  V30 1946 C 173.901 -2.13602 -0.831082 0
M  V30 1947 C 174.901 -1.06841 -1.20173 0
M  V30 1948 O 176.091 -1.32666 -1.12895 0
M  V30 1949 C 173.223 -2.66769 -2.12243 0
M  V30 1950 H 174.416 -2.97951 -0.341317 0
M  V30 1951 H 171.969 -1.55667 -0.14057 0
M  V30 1952 H 172.704 -1.85977 -2.65675 0
M  V30 1953 H 172.489 -3.44839 -1.86625 0
M  V30 1954 H 173.979 -3.10332 -2.79435 0
M  V30 1955 N 174.416 0.165178 -1.56732 0
M  V30 1956 C 175.693 0.908443 -1.73224 0
M  V30 1957 C 176.073 2.0013 -0.67165 0
M  V30 1958 O 175.421 2.26353 0.31253 0
M  V30 1959 C 175.631 1.46756 -3.16644 0
M  V30 1960 C 176.979 1.93809 -3.77787 0
M  V30 1961 O 178.003 1.56537 -3.1996 0
M  V30 1962 O 176.862 2.62486 -4.79336 0
M  V30 1963 H 173.956 0.428025 -0.707618 0
M  V30 1964 H 176.502 0.152526 -1.69013 0
M  V30 1965 H 175.274 0.68129 -3.85323 0
M  V30 1966 H 174.897 2.28749 -3.25207 0
M  V30 1967 N 175.894 1.51508 0.433938 0
M  V30 1968 C 177.14 1.64588 1.18484 0
M  V30 1969 C 177.473 0.362666 1.90784 0
M  V30 1970 O 176.748 -0.637892 1.83742 0
M  V30 1971 C 177.031 2.85149 2.19913 0
M  V30 1972 C 176.884 4.23456 1.51674 0
M  V30 1973 C 178.203 3.01227 3.20858 0
M  V30 1974 H 175.322 0.598994 0.429389 0
M  V30 1975 H 177.964 1.84002 0.473647 0
M  V30 1976 H 176.114 2.68729 2.80566 0
M  V30 1977 H 177.786 4.51552 0.943322 0
M  V30 1978 H 176.029 4.25998 0.819035 0
M  V30 1979 H 176.7 5.03812 2.2556 0
M  V30 1980 H 179.176 3.16382 2.70263 0
M  V30 1981 H 178.052 3.87141 3.89118 0
M  V30 1982 H 178.313 2.13447 3.8716 0
M  V30 1983 N 177.372 -0.689602 1.41712 0
M  V30 1984 C 178.597 -1.48329 1.44959 0
M  V30 1985 C 179.022 -1.8801 0.0581283 0
M  V30 1986 O 178.38 -1.55026 -0.940035 0
M  V30 1987 C 178.428 -2.71835 2.36935 0
M  V30 1988 O 177.532 -3.69549 1.8305 0
M  V30 1989 H 176.873 -0.446199 0.491734 0
M  V30 1990 H 179.403 -0.847127 1.86239 0
M  V30 1991 H 179.413 -3.20076 2.53013 0
M  V30 1992 H 178.088 -2.42291 3.38035 0
M  V30 1993 H 176.665 -3.2851 1.76452 0
M  V30 1994 N 178.85 -1.27639 -0.924453 0
M  V30 1995 C 179.813 -1.10681 -2.00705 0
M  V30 1996 C 180.813 -0.0497823 -1.60723 0
M  V30 1997 O 182.003 -0.294654 -1.7169 0
M  V30 1998 C 179.135 -0.687164 -3.33902 0
M  V30 1999 H 180.328 -2.06817 -2.17179 0
M  V30 2000 H 177.881 -1.10473 -1.10569 0
M  V30 2001 H 178.616 0.275439 -3.23128 0
M  V30 2002 H 178.401 -1.45061 -3.6428 0
M  V30 2003 H 179.891 -0.590853 -4.13399 0
M  V30 2004 N 180.328 1.1314 -1.09713 0
M  V30 2005 C 181.238 2.22242 -0.751367 0
M  V30 2006 C 182.254 1.72224 0.247938 0
M  V30 2007 O 183.43 2.01205 0.0885463 0
M  V30 2008 C 180.495 3.46231 -0.180274 0
M  V30 2009 C 179.556 4.11125 -1.2359 0
M  V30 2010 C 178.789 5.29195 -0.691966 0
M  V30 2011 O 179.012 5.68342 0.48414 0
M  V30 2012 O 177.946 5.84214 -1.44838 0
M  V30 2013 H 181.772 2.54197 -1.66186 0
M  V30 2014 H 179.357 1.21331 -0.871735 0
M  V30 2015 H 181.239 4.21185 0.134739 0
M  V30 2016 H 179.914 3.1597 0.703185 0
M  V30 2017 H 178.821 3.37985 -1.60366 0
M  V30 2018 H 180.154 4.45524 -2.09211 0
M  V30 2019 N 181.806 0.884767 1.30421 0
M  V30 2020 C 182.769 0.356277 2.26414 0
M  V30 2021 C 183.769 -0.501124 1.52792 0
M  V30 2022 O 184.959 -0.30831 1.7145 0
M  V30 2023 C 182.091 -0.492316 3.37326 0
M  V30 2024 H 183.284 1.20389 2.74675 0
M  V30 2025 H 180.837 0.661607 1.41607 0
M  V30 2026 H 181.572 -1.36052 2.94381 0
M  V30 2027 H 181.357 0.121832 3.91911 0
M  V30 2028 H 182.847 -0.853871 4.08777 0
M  V30 2029 N 183.284 -1.43765 0.645699 0
M  V30 2030 C 184.247 -2.29163 -0.0409488 0
M  V30 2031 C 185.247 -1.41813 -0.757996 0
M  V30 2032 O 186.437 -1.63527 -0.600382 0
M  V30 2033 C 183.569 -3.23716 -1.06869 0
M  V30 2034 H 184.762 -2.91366 0.710345 0
M  V30 2035 H 182.315 -1.5092 0.406547 0
M  V30 2036 H 183.05 -2.66393 -1.84947 0
M  V30 2037 H 182.835 -3.88105 -0.558277 0
M  V30 2038 H 184.325 -3.87831 -1.54845 0
M  V30 2039 N 184.763 -0.387143 -1.52771 0
M  V30 2040 C 185.993 0.195585 -2.05672 0
M  V30 2041 C 186.401 1.41241 -1.25887 0
M  V30 2042 O 185.744 1.81265 -0.298081 0
M  V30 2043 C 185.806 0.632327 -3.53895 0
M  V30 2044 C 185.47 -0.470739 -4.54569 0
M  V30 2045 C 186.467 -1.32746 -5.02667 0
M  V30 2046 C 184.152 -0.637151 -4.98243 0
M  V30 2047 C 186.146 -2.33574 -5.93061 0
M  V30 2048 C 183.833 -1.64877 -5.88438 0
M  V30 2049 C 184.831 -2.49649 -6.35739 0
M  V30 2050 O 184.519 -3.49082 -7.24153 0
M  V30 2051 H 184.251 0.033658 -0.675162 0
M  V30 2052 H 186.805 -0.550221 -1.97893 0
M  V30 2053 H 185.035 1.43008 -3.59285 0
M  V30 2054 H 186.724 1.14048 -3.89548 0
M  V30 2055 H 187.49 -1.21019 -4.69659 0
M  V30 2056 H 183.369 0.0129567 -4.60998 0
M  V30 2057 H 186.913 -2.99777 -6.29904 0
M  V30 2058 H 182.81 -1.76643 -6.2086 0
M  V30 2059 H 183.578 -3.45065 -7.42208 0
M  V30 2060 N 186.241 1.57166 -0.116904 0
M  V30 2061 C 187.204 2.14039 0.819742 0
M  V30 2062 C 188.204 1.07477 1.19605 0
M  V30 2063 O 189.394 1.33263 1.1219 0
M  V30 2064 C 186.526 2.67891 2.10826 0
M  V30 2065 H 187.719 2.98128 0.325511 0
M  V30 2066 H 185.272 1.55739 0.132312 0
M  V30 2067 H 186.007 1.87384 2.64685 0
M  V30 2068 H 185.792 3.45823 1.84793 0
M  V30 2069 H 187.282 3.11809 2.77785 0
M  V30 2070 N 187.719 -0.156864 1.56817 0
M  V30 2071 C 188.669 -1.19891 1.93934 0
M  V30 2072 C 189.653 -1.39061 0.809372 0
M  V30 2073 O 190.845 -1.40789 1.07273 0
M  V30 2074 C 187.974 -2.53493 2.31508 0
M  V30 2075 C 187.06 -2.37957 3.51052 0
M  V30 2076 N 187.451 -1.92158 4.67877 0
M  V30 2077 C 185.749 -2.68739 3.55943 0
M  V30 2078 C 186.45 -1.8943 5.49992 0
M  V30 2079 N 185.426 -2.32375 4.91429 0
M  V30 2080 H 189.228 -0.836746 2.81737 0
M  V30 2081 H 186.742 -0.365012 1.58245 0
M  V30 2082 H 188.739 -3.28811 2.56299 0
M  V30 2083 H 187.399 -2.905 1.45051 0
M  V30 2084 H 188.41 -1.62274 4.91821 0
M  V30 2085 H 185.087 -3.09687 2.80001 0
M  V30 2086 H 186.477 -1.55596 6.53636 0
M  V30 2087 N 189.197 -1.51736 -0.425897 0
M  V30 2088 C 190.127 -1.76827 -1.52494 0
M  V30 2089 C 191.108 -0.618524 -1.58456 0
M  V30 2090 O 192.293 -0.862416 -1.74 0
M  V30 2091 C 189.423 -1.90374 -2.90474 0
M  V30 2092 C 188.377 -3.0588 -2.99369 0
M  V30 2093 C 187.703 -3.04625 -4.3944 0
M  V30 2094 C 189.003 -4.45644 -2.72394 0
M  V30 2095 H 190.697 -2.68855 -1.31748 0
M  V30 2096 H 188.243 -1.29372 -0.632362 0
M  V30 2097 H 190.196 -2.0651 -3.6733 0
M  V30 2098 H 188.92 -0.95004 -3.12477 0
M  V30 2099 H 187.579 -2.89467 -2.24954 0
M  V30 2100 H 187.227 -2.0701 -4.58428 0
M  V30 2101 H 186.927 -3.82195 -4.46319 0
M  V30 2102 H 188.451 -3.22869 -5.18255 0
M  V30 2103 H 189.865 -4.62348 -3.38979 0
M  V30 2104 H 188.262 -5.25006 -2.9067 0
M  V30 2105 H 189.332 -4.54893 -1.67929 0
M  V30 2106 N 190.675 0.682077 -1.42076 0
M  V30 2107 C 191.903 1.47057 -1.4554 0
M  V30 2108 C 192.318 1.8869 -0.0645779 0
M  V30 2109 O 191.675 1.57666 0.919115 0
M  V30 2110 C 191.726 2.72442 -2.37609 0
M  V30 2111 O 191.447 2.32559 -3.71279 0
M  V30 2112 C 192.948 3.66069 -2.50017 0
M  V30 2113 H 190.168 0.452737 -0.495248 0
M  V30 2114 H 192.712 0.838695 -1.8651 0
M  V30 2115 H 190.867 3.31835 -1.9991 0
M  V30 2116 H 191.281 3.13475 -4.20516 0
M  V30 2117 H 192.755 4.50792 -3.18576 0
M  V30 2118 H 193.232 4.11476 -1.53572 0
M  V30 2119 H 193.838 3.12572 -2.88407 0
M  V30 2120 N 192.153 1.28127 0.917671 0
M  V30 2121 C 193.381 1.17892 1.70026 0
M  V30 2122 C 193.796 -0.262958 1.8696 0
M  V30 2123 O 193.153 -1.17811 1.3938 0
M  V30 2124 C 193.204 1.86872 3.09453 0
M  V30 2125 O 192.925 3.25428 2.93306 0
M  V30 2126 C 194.426 1.8289 4.03815 0
M  V30 2127 H 191.646 0.40942 0.531617 0
M  V30 2128 H 194.19 1.69181 1.14883 0
M  V30 2129 H 192.345 1.39464 3.61426 0
M  V30 2130 H 192.759 3.59918 3.81523 0
M  V30 2131 H 194.233 2.35751 4.99125 0
M  V30 2132 H 194.71 0.800412 4.31845 0
M  V30 2133 H 195.316 2.29959 3.57769 0
M  V30 2134 N 193.631 -1.12557 1.10312 0
M  V30 2135 C 195.042 -1.65574 0.862678 0
M  V30 2136 C 195.393 -1.86566 -0.607256 0
M  V30 2137 O 194.518 -1.59121 -1.46662 0
M  V30 2138 C 195.113 -3.00776 1.55947 0
M  V30 2139 C 193.672 -3.50748 1.36576 0
M  V30 2140 C 192.819 -2.25797 1.60968 0
M  V30 2141 H 195.77 -0.963552 1.26101 0
M  V30 2142 H 195.791 -3.67185 0.997753 0
M  V30 2143 H 195.303 -2.85465 2.62928 0
M  V30 2144 H 193.404 -3.71245 0.317531 0
M  V30 2145 H 193.517 -4.30289 2.10686 0
M  V30 2146 H 191.881 -2.32841 1.03234 0
M  V30 2147 H 192.664 -2.13043 2.69198 0
M  V30 2148 N 195.109 -0.891671 -1.2995 0
M  V30 2149 C 196.355 -0.514261 -1.96171 0
M  V30 2150 C 196.688 0.935506 -1.70182 0
M  V30 2151 O 195.963 1.66204 -1.01028 0
M  V30 2152 C 196.246 -0.797719 -3.51153 0
M  V30 2153 C 196.099 -2.2986 -3.86632 0
M  V30 2154 C 197.418 -0.278749 -4.39216 0
M  V30 2155 H 194.537 -0.188314 -0.712535 0
M  V30 2156 H 197.179 -1.11689 -1.53706 0
M  V30 2157 H 195.329 -0.284826 -3.87455 0
M  V30 2158 H 197.001 -2.88042 -3.60319 0
M  V30 2159 H 195.244 -2.76257 -3.34462 0
M  V30 2160 H 195.915 -2.44753 -4.94773 0
M  V30 2161 H 198.391 -0.717825 -4.09862 0
M  V30 2162 H 197.267 -0.506353 -5.46559 0
M  V30 2163 H 197.528 0.820266 -4.34424 0
M  V30 2164 N 196.587 1.43421 -0.653314 0
M  V30 2165 C 197.834 2.01812 -0.166745 0
M  V30 2166 C 198.162 1.51535 1.21931 0
M  V30 2167 O 197.417 0.698975 1.82792 0
M  V30 2168 C 197.716 3.57176 -0.126623 0
M  V30 2169 C 197.382 4.26798 -1.45444 0
M  V30 2170 C 196.044 4.45534 -1.81805 0
M  V30 2171 C 198.396 4.66225 -2.32989 0
M  V30 2172 C 195.724 5.00961 -3.05377 0
M  V30 2173 C 198.076 5.23021 -3.55853 0
M  V30 2174 C 196.74 5.39973 -3.9241 0
M  V30 2175 H 196.01 0.738484 -0.0610162 0
M  V30 2176 H 198.657 1.71896 -0.84404 0
M  V30 2177 H 196.962 3.86634 0.634123 0
M  V30 2178 H 198.659 4.00112 0.266723 0
M  V30 2179 H 195.249 4.12561 -1.16153 0
M  V30 2180 H 199.433 4.51443 -2.06187 0
M  V30 2181 H 194.689 5.12271 -3.3375 0
M  V30 2182 H 198.863 5.52518 -4.23907 0
M  V30 2183 H 196.49 5.82687 -4.88242 0
M  V30 2184 N 198.065 0.39524 1.52563 0
M  V30 2185 C 199.313 -0.184678 2.01254 0
M  V30 2186 C 199.634 -1.46822 1.28329 0
M  V30 2187 O 198.904 -1.91666 0.405094 0
M  V30 2188 H 197.484 -0.0712355 0.743596 0
M  V30 2189 H 200.146 0.528293 1.87603 0
M  V30 2190 H 199.242 -0.390681 3.09645 0
M  V30 2191 N 199.544 -1.57102 0.125237 0
M  V30 2192 C 200.491 -2.15641 -0.822655 0
M  V30 2193 C 201.461 -1.08313 -1.25927 0
M  V30 2194 O 202.646 -1.36251 -1.33567 0
M  V30 2195 C 199.786 -2.76504 -2.06494 0
M  V30 2196 C 198.899 -3.98158 -1.67612 0
M  V30 2197 C 198.034 -4.47088 -2.86854 0
M  V30 2198 C 197.073 -5.6126 -2.44242 0
M  V30 2199 N 196.21 -6.04905 -3.56419 0
M  V30 2200 H 201.05 -2.96313 -0.316625 0
M  V30 2201 H 198.587 -1.46388 -0.144588 0
M  V30 2202 H 200.545 -3.09925 -2.79289 0
M  V30 2203 H 199.175 -1.98512 -2.54545 0
M  V30 2204 H 198.227 -3.70858 -0.846661 0
M  V30 2205 H 199.539 -4.80934 -1.32301 0
M  V30 2206 H 198.693 -4.82451 -3.67867 0
M  V30 2207 H 197.432 -3.63275 -3.25396 0
M  V30 2208 H 196.437 -5.25495 -1.61663 0
M  V30 2209 H 197.662 -6.46843 -2.0681 0
M  V30 2210 H 195.608 -5.24032 -3.94623 0
M  V30 2211 H 195.525 -6.82552 -3.25051 0
M  V30 2212 H 196.793 -6.44907 -4.37853 0
M  V30 2213 N 201.022 0.148545 -1.56898 0
M  V30 2214 C 202.27 0.859717 -1.82902 0
M  V30 2215 C 202.591 1.81775 -0.70588 0
M  V30 2216 O 201.861 1.93994 0.272586 0
M  V30 2217 H 200.441 0.320469 -0.674766 0
M  V30 2218 H 203.103 0.142918 -1.94375 0
M  V30 2219 H 202.199 1.4229 -2.77777 0
M  V30 2220 N 202.5 1.5196 0.417844 0
M  V30 2221 C 203.746 1.65836 1.16732 0
M  V30 2222 C 204.079 0.382881 1.90388 0
M  V30 2223 O 203.354 -0.618368 1.84408 0
M  V30 2224 C 203.637 2.87466 2.16876 0
M  V30 2225 C 203.49 4.25041 1.47174 0
M  V30 2226 C 204.809 3.04613 3.17646 0
M  V30 2227 H 201.928 0.603515 0.423011 0
M  V30 2228 H 204.57 1.84494 0.454105 0
M  V30 2229 H 202.72 2.71689 2.777 0
M  V30 2230 H 204.392 4.52527 0.895376 0
M  V30 2231 H 202.635 4.26843 0.773806 0
M  V30 2232 H 203.306 5.06176 2.20204 0
M  V30 2233 H 205.782 3.1923 2.66892 0
M  V30 2234 H 204.658 3.91247 3.8499 0
M  V30 2235 H 204.919 2.17541 3.84874 0
M  V30 2236 N 203.978 -0.674533 1.42435 0
M  V30 2237 C 205.227 -1.43034 1.42212 0
M  V30 2238 C 205.54 -1.95555 0.0420788 0
M  V30 2239 O 206.746 -2.71374 -0.0827558 0
M  V30 2240 C 205.202 -2.58748 2.50155 0
M  V30 2241 C 204.81 -2.12925 3.94166 0
M  V30 2242 C 206.554 -3.36257 2.59098 0
M  V30 2243 C 204.461 -3.25723 4.93618 0
M  V30 2244 H 203.391 -0.537345 0.528939 0
M  V30 2245 H 206.042 -0.73024 1.68344 0
M  V30 2246 H 204.424 -3.31128 2.17188 0
M  V30 2247 H 205.598 -1.47697 4.36488 0
M  V30 2248 H 203.913 -1.48354 3.89076 0
M  V30 2249 H 206.51 -4.20264 3.30578 0
M  V30 2250 H 206.853 -3.82866 1.63461 0
M  V30 2251 H 207.386 -2.70947 2.9126 0
M  V30 2252 H 204.125 -2.84105 5.90732 0
M  V30 2253 H 203.645 -3.89732 4.55926 0
M  V30 2254 H 205.324 -3.91186 5.15347 0
M  V30 2255 N 205.456 -1.28612 -0.910864 0
M  V30 2256 C 206.686 -1.1862 -1.69153 0
M  V30 2257 C 207.094 0.257324 -1.87442 0
M  V30 2258 O 206.437 1.18543 -1.40332 0
M  V30 2259 C 206.499 -1.81606 -3.10257 0
M  V30 2260 C 206.163 -3.30864 -3.15243 0
M  V30 2261 C 207.16 -4.27256 -2.96223 0
M  V30 2262 C 204.845 -3.71871 -3.37664 0
M  V30 2263 C 206.839 -5.62631 -2.99541 0
M  V30 2264 C 204.526 -5.07371 -3.40614 0
M  V30 2265 C 205.524 -6.02561 -3.21573 0
M  V30 2266 O 205.212 -7.35589 -3.2429 0
M  V30 2267 H 204.944 -0.412633 -0.535453 0
M  V30 2268 H 207.498 -1.70306 -1.14827 0
M  V30 2269 H 205.728 -1.24418 -3.66138 0
M  V30 2270 H 207.417 -1.66092 -3.70362 0
M  V30 2271 H 208.183 -3.9691 -2.78725 0
M  V30 2272 H 204.062 -2.98241 -3.5153 0
M  V30 2273 H 207.606 -6.36907 -2.84597 0
M  V30 2274 H 203.503 -5.37366 -3.57642 0
M  V30 2275 H 204.271 -7.44252 -3.40633 0
M  V30 2276 N 206.934 1.1197 -1.10907 0
M  V30 2277 C 208.211 1.79959 -0.766432 0
M  V30 2278 C 208.591 1.97466 0.746363 0
M  V30 2279 O 207.939 1.55491 1.67436 0
M  V30 2280 C 208.149 3.14009 -1.52314 0
M  V30 2281 C 209.497 3.89134 -1.69883 0
M  V30 2282 O 210.521 3.2368 -1.48692 0
M  V30 2283 O 209.38 5.06572 -2.05054 0
M  V30 2284 H 206.474 0.779208 -0.277062 0
M  V30 2285 H 209.02 1.18762 -1.21217 0
M  V30 2286 H 207.792 2.96587 -2.55249 0
M  V30 2287 H 207.415 3.82915 -1.07059 0
M  V30 2288 N 208.412 0.89855 1.29475 0
M  V30 2289 C 209.652 0.530771 1.97388 0
M  V30 2290 C 210.016 -0.905832 1.69289 0
M  V30 2291 O 211.217 -1.38042 2.30646 0
M  V30 2292 C 209.488 0.81369 3.48014 0
M  V30 2293 S 211.047 0.550048 4.35339 0
M  V30 2294 H 207.865 0.196956 0.683176 0
M  V30 2295 H 210.467 1.16074 1.57312 0
M  V30 2296 H 209.171 1.85749 3.65958 0
M  V30 2297 H 208.702 0.171795 3.93025 0
M  V30 2298 H 210.717 -0.605423 4.92493 0
M  V30 2299 N 209.89 -1.43072 0.660911 0
M  V30 2300 C 211.301 -1.84932 0.256348 0
M  V30 2301 C 211.652 -1.55325 -1.19868 0
M  V30 2302 O 210.777 -1.00607 -1.91591 0
M  V30 2303 C 211.372 -3.35684 0.458475 0
M  V30 2304 C 209.931 -3.76245 0.108161 0
M  V30 2305 C 209.078 -2.66749 0.757641 0
M  V30 2306 H 212.029 -1.33116 0.864051 0
M  V30 2307 H 212.05 -3.79365 -0.293683 0
M  V30 2308 H 211.562 -3.572 1.51755 0
M  V30 2309 H 209.663 -3.60338 -0.948014 0
M  V30 2310 H 209.776 -4.76058 0.538992 0
M  V30 2311 H 208.14 -2.53989 0.190185 0
M  V30 2312 H 208.923 -2.91092 1.81989 0
M  V30 2313 N 211.368 -0.403325 -1.52352 0
M  V30 2314 C 212.316 0.439752 -2.28405 0
M  V30 2315 C 213.31 1.05089 -1.32863 0
M  V30 2316 O 214.516 0.989759 -1.50345 0
M  V30 2317 H 210.891 0.160587 -0.734653 0
M  V30 2318 H 212.862 -0.222983 -2.97566 0
M  V30 2319 C 211.611 1.54736 -3.11371 0
M  V30 2320 H 210.934 1.08643 -3.84755 0
M  V30 2321 H 212.374 2.1112 -3.67701 0
M  V30 2322 C 210.833 2.51141 -2.24566 0
M  V30 2323 O 211.363 3.54887 -1.88196 0
M  V30 2324 N 209.569 2.21213 -1.8845 0
M  V30 2325 H 209.116 1.36878 -2.18225 0
M  V30 2326 H 209.074 2.85963 -1.30662 0
M  V30 2327 N 212.846 1.57033 -0.133567 0
M  V30 2328 C 214.071 2.00475 0.531477 0
M  V30 2329 C 214.496 1.01291 1.58499 0
M  V30 2330 O 213.854 -0.0133279 1.81295 0
M  V30 2331 C 213.902 3.42729 1.12113 0
M  V30 2332 O 213.006 3.46498 2.23636 0
M  V30 2333 H 212.347 0.650876 0.131362 0
M  V30 2334 H 214.877 2.03344 -0.22634 0
M  V30 2335 H 214.887 3.81246 1.4531 0
M  V30 2336 H 213.562 4.14428 0.349557 0
M  V30 2337 H 212.139 3.19811 1.91769 0
M  V30 2338 N 214.325 -0.140222 1.56975 0
M  V30 2339 C 215.741 -0.493088 1.51792 0
M  V30 2340 C 215.941 -1.83013 0.843116 0
M  V30 2341 O 214.997 -2.49041 0.416493 0
M  V30 2342 C 216.31 -0.497144 2.96562 0
M  V30 2343 C 217.858 -0.582186 3.07538 0
M  V30 2344 C 218.333 -0.616838 4.53827 0
M  V30 2345 N 219.824 -0.678873 4.58198 0
M  V30 2346 C 220.559 -0.726782 5.68775 0
M  V30 2347 N 220.055 -0.733623 6.88905 0
M  V30 2348 N 221.848 -0.768179 5.56826 0
M  V30 2349 H 213.999 0.736108 1.99237 0
M  V30 2350 H 216.262 0.269182 0.90898 0
M  V30 2351 H 215.968 0.417217 3.49217 0
M  V30 2352 H 215.842 -1.33263 3.52875 0
M  V30 2353 H 218.229 -1.48697 2.54899 0
M  V30 2354 H 218.31 0.280581 2.54257 0
M  V30 2355 H 217.954 0.283812 5.07106 0
M  V30 2356 H 217.884 -1.49619 5.04898 0
M  V30 2357 H 220.375 -0.68061 3.7172 0
M  V30 2358 H 220.688 -0.772215 7.68932 0
M  V30 2359 H 219.033 -0.701389 6.91452 0
M  V30 2360 H 222.224 -0.760051 4.61888 0
M  V30 2361 H 222.397 -0.80205 6.43017 0
M  V30 2362 N 215.803 -1.52179 -0.40978 0
M  V30 2363 C 216.733 -1.78435 -1.5061 0
M  V30 2364 C 217.714 -0.635295 -1.57791 0
M  V30 2365 O 218.899 -0.880823 -1.73076 0
M  V30 2366 C 216.029 -1.93444 -2.88439 0
M  V30 2367 C 214.983 -3.09038 -2.96108 0
M  V30 2368 C 214.309 -3.09268 -4.36185 0
M  V30 2369 C 215.609 -4.48508 -2.67652 0
M  V30 2370 H 217.303 -2.70237 -1.28889 0
M  V30 2371 H 214.849 -1.30036 -0.618605 0
M  V30 2372 H 216.802 -2.10394 -3.65119 0
M  V30 2373 H 215.526 -0.983129 -3.11452 0
M  V30 2374 H 214.185 -2.91837 -2.21872 0
M  V30 2375 H 213.833 -2.11861 -4.56206 0
M  V30 2376 H 213.533 -3.86907 -4.42241 0
M  V30 2377 H 215.057 -3.28348 -5.14801 0
M  V30 2378 H 216.471 -4.65918 -3.34056 0
M  V30 2379 H 214.868 -5.28059 -2.85085 0
M  V30 2380 H 215.938 -4.56649 -1.63095 0
M  V30 2381 N 217.281 0.66697 -1.42791 0
M  V30 2382 C 218.214 1.79177 -1.41318 0
M  V30 2383 C 219.192 1.60234 -0.276401 0
M  V30 2384 O 220.376 1.82602 -0.46785 0
M  V30 2385 C 217.503 3.16289 -1.21157 0
M  V30 2386 C 216.549 3.53964 -2.37932 0
M  V30 2387 S 217.382 3.55501 -4.00474 0
M  V30 2388 C 218.538 4.95292 -3.8267 0
M  V30 2389 H 218.771 1.80153 -2.365 0
M  V30 2390 H 216.304 0.838357 -1.29657 0
M  V30 2391 H 218.262 3.95428 -1.10212 0
M  V30 2392 H 216.923 3.1289 -0.275481 0
M  V30 2393 H 216.116 4.53646 -2.19594 0
M  V30 2394 H 215.718 2.82204 -2.45432 0
M  V30 2395 H 218.01 5.83584 -3.44145 0
M  V30 2396 H 218.953 5.18679 -4.82055 0
M  V30 2397 H 219.361 4.68179 -3.15386 0
M  V30 2398 N 218.759 1.29093 0.90403 0
M  V30 2399 C 219.669 1.15727 2.0407 0
M  V30 2400 C 220.685 0.0815308 1.73809 0
M  V30 2401 O 221.861 0.292749 1.99261 0
M  V30 2402 C 218.926 0.830424 3.36608 0
M  V30 2403 C 217.987 1.98955 3.80415 0
M  V30 2404 C 217.22 1.6782 5.06628 0
M  V30 2405 O 217.443 0.597105 5.67266 0
M  V30 2406 O 216.377 2.52486 5.46383 0
M  V30 2407 H 220.203 2.11171 2.18267 0
M  V30 2408 H 217.788 1.08504 1.027 0
M  V30 2409 H 219.67 0.662521 4.16159 0
M  V30 2410 H 218.345 -0.0942678 3.23563 0
M  V30 2411 H 217.252 2.21267 3.01648 0
M  V30 2412 H 218.585 2.89529 3.98037 0
M  V30 2413 N 220.237 -1.11381 1.11499 0
M  V30 2414 C 221.169 -2.17207 0.731704 0
M  V30 2415 C 222.182 -1.61066 -0.236957 0
M  V30 2416 O 223.371 -1.78489 -0.0197591 0
M  V30 2417 C 220.471 -3.38846 0.0607624 0
M  V30 2418 C 219.644 -4.24451 1.0564 0
M  V30 2419 C 218.703 -5.24562 0.4149 0
M  V30 2420 O 217.729 -5.59071 1.069 0
M  V30 2421 N 218.931 -5.74651 -0.821943 0
M  V30 2422 H 221.696 -2.50699 1.64225 0
M  V30 2423 H 219.257 -1.26908 1.00529 0
M  V30 2424 H 221.249 -4.02911 -0.380139 0
M  V30 2425 H 219.819 -3.03411 -0.752376 0
M  V30 2426 H 219.039 -3.56833 1.67524 0
M  V30 2427 H 220.327 -4.78486 1.72998 0
M  V30 2428 H 219.725 -5.48797 -1.37252 0
M  V30 2429 H 218.282 -6.40549 -1.20582 0
M  V30 2430 N 221.715 -0.905404 -1.28997 0
M  V30 2431 C 222.662 -0.385892 -2.27551 0
M  V30 2432 C 223.632 0.535113 -1.57244 0
M  V30 2433 O 224.817 0.459119 -1.85194 0
M  V30 2434 C 221.957 0.375461 -3.43051 0
M  V30 2435 C 221.07 -0.577092 -4.28128 0
M  V30 2436 C 220.205 0.201879 -5.30816 0
M  V30 2437 C 219.244 -0.744829 -6.07551 0
M  V30 2438 N 218.381 9.42587e-05 -7.021 0
M  V30 2439 H 223.221 -1.23139 -2.71368 0
M  V30 2440 H 220.758 -0.618542 -1.33463 0
M  V30 2441 H 222.716 0.832992 -4.088 0
M  V30 2442 H 221.346 1.18537 -3.00248 0
M  V30 2443 H 220.398 -1.15315 -3.62501 0
M  V30 2444 H 221.71 -1.30152 -4.8152 0
M  V30 2445 H 220.864 0.720351 -6.02408 0
M  V30 2446 H 219.603 0.959413 -4.7817 0
M  V30 2447 H 218.608 -1.27475 -5.34818 0
M  V30 2448 H 219.833 -1.50178 -6.62286 0
M  V30 2449 H 217.779 0.739791 -6.51815 0
M  V30 2450 H 217.696 -0.664321 -7.53076 0
M  V30 2451 H 218.964 0.498644 -7.77903 0
M  V30 2452 N 223.193 1.4272 -0.668489 0
M  V30 2453 C 224.14 2.30796 0.0137489 0
M  V30 2454 C 225.11 1.4561 0.799177 0
M  V30 2455 O 226.295 1.74453 0.772702 0
M  V30 2456 C 223.435 3.31377 0.963507 0
M  V30 2457 C 222.548 4.31655 0.172569 0
M  V30 2458 C 221.683 5.19312 1.1175 0
M  V30 2459 C 220.722 6.11274 0.317886 0
M  V30 2460 N 219.859 6.91504 1.2152 0
M  V30 2461 H 224.699 2.88585 -0.743161 0
M  V30 2462 H 222.236 1.42154 -0.378226 0
M  V30 2463 H 224.194 3.88214 1.52792 0
M  V30 2464 H 222.824 2.75202 1.68712 0
M  V30 2465 H 221.876 3.76988 -0.508374 0
M  V30 2466 H 223.188 4.96779 -0.448527 0
M  V30 2467 H 222.342 5.80851 1.75206 0
M  V30 2468 H 221.081 4.5435 1.77249 0
M  V30 2469 H 220.086 5.48809 -0.329918 0
M  V30 2470 H 221.311 6.78283 -0.332917 0
M  V30 2471 H 219.257 6.29176 1.85671 0
M  V30 2472 H 219.174 7.53209 0.649036 0
M  V30 2473 H 220.442 7.57535 1.83742 0
M  V30 2474 N 224.671 0.411399 1.52136 0
M  V30 2475 C 225.918 -0.163645 2.01838 0
M  V30 2476 C 226.246 -1.4495 1.29691 0
M  V30 2477 O 225.501 -1.91725 0.392431 0
M  V30 2478 C 225.8 -0.455872 3.54481 0
M  V30 2479 C 225.466 0.741055 4.44769 0
M  V30 2480 C 224.128 1.06936 4.69167 0
M  V30 2481 C 226.48 1.54075 4.97906 0
M  V30 2482 C 223.808 2.19851 5.43951 0
M  V30 2483 C 226.16 2.66067 5.73926 0
M  V30 2484 C 224.824 2.99381 5.96596 0
M  V30 2485 H 224.094 -0.0598821 0.738576 0
M  V30 2486 H 226.741 0.553283 1.83333 0
M  V30 2487 H 225.046 -1.2544 3.71177 0
M  V30 2488 H 226.743 -0.913802 3.90449 0
M  V30 2489 H 223.333 0.475192 4.25958 0
M  V30 2490 H 227.517 1.30033 4.78963 0
M  V30 2491 H 222.773 2.46006 5.59724 0
M  V30 2492 H 226.947 3.28419 6.14096 0
M  V30 2493 H 224.574 3.86992 6.54325 0
M  V30 2494 N 226.149 -1.5696 0.141893 0
M  V30 2495 C 227.395 -1.9625 -0.511248 0
M  V30 2496 C 227.728 -1.02654 -1.64851 0
M  V30 2497 O 227.003 -0.0679676 -1.94381 0
M  V30 2498 C 227.286 -3.45285 -1.02227 0
M  V30 2499 C 227.139 -4.49658 0.113138 0
M  V30 2500 C 228.458 -3.96698 -1.90574 0
M  V30 2501 H 225.577 -0.713567 -0.184367 0
M  V30 2502 H 228.219 -1.88698 0.222087 0
M  V30 2503 H 226.369 -3.51852 -1.64719 0
M  V30 2504 H 228.041 -4.55174 0.749302 0
M  V30 2505 H 226.284 -4.26857 0.773026 0
M  V30 2506 H 226.955 -5.51258 -0.286053 0
M  V30 2507 H 229.431 -3.92578 -1.37918 0
M  V30 2508 H 228.307 -5.01453 -2.2324 0
M  V30 2509 H 228.568 -3.3875 -2.84079 0
M  V30 2510 N 227.627 0.131896 -1.57047 0
M  V30 2511 C 228.574 1.16236 -1.99393 0
M  V30 2512 C 229.544 1.41863 -0.863943 0
M  V30 2513 O 230.729 1.53946 -1.12718 0
M  V30 2514 C 227.869 2.48708 -2.39245 0
M  V30 2515 C 226.982 2.30127 -3.65603 0
M  V30 2516 C 226.117 3.55738 -3.94492 0
M  V30 2517 C 225.156 3.32259 -5.14073 0
M  V30 2518 N 224.293 4.50039 -5.38896 0
M  V30 2519 H 229.133 0.794251 -2.87221 0
M  V30 2520 H 226.67 0.380707 -1.42088 0
M  V30 2521 H 228.628 3.25969 -2.60384 0
M  V30 2522 H 227.258 2.83437 -1.54478 0
M  V30 2523 H 226.31 1.43845 -3.52154 0
M  V30 2524 H 227.622 2.08746 -4.5302 0
M  V30 2525 H 226.776 4.41423 -4.1621 0
M  V30 2526 H 225.515 3.80138 -3.05526 0
M  V30 2527 H 224.52 2.44963 -4.92212 0
M  V30 2528 H 225.745 3.09242 -6.04604 0
M  V30 2529 H 223.691 4.74584 -4.52886 0
M  V30 2530 H 223.608 4.31716 -6.2061 0
M  V30 2531 H 224.876 5.36895 -5.65123 0
M  V30 2532 N 229.106 1.52395 0.401703 0
M  V30 2533 C 230.354 1.66488 1.14569 0
M  V30 2534 C 230.675 0.400897 1.90835 0
M  V30 2535 O 229.945 -0.584415 1.8698 0
M  V30 2536 H 228.525 0.613672 0.425929 0
M  V30 2537 H 231.187 1.89464 0.457093 0
M  V30 2538 H 230.283 2.50942 1.85566 0
M  V30 2539 N 230.584 -0.659388 1.43143 0
M  V30 2540 C 231.547 -1.75432 1.47501 0
M  V30 2541 C 232.547 -1.56707 0.360512 0
M  V30 2542 O 233.737 -1.62717 0.622002 0
M  V30 2543 C 230.869 -3.14239 1.32162 0
M  V30 2544 H 232.062 -1.7295 2.45006 0
M  V30 2545 H 229.615 -0.870469 1.29817 0
M  V30 2546 H 230.35 -3.22336 0.356401 0
M  V30 2547 H 230.135 -3.29235 2.12948 0
M  V30 2548 H 231.625 -3.94094 1.3813 0
M  V30 2549 N 232.062 -1.29571 -0.897171 0
M  V30 2550 C 232.992 -1.17473 -2.01798 0
M  V30 2551 C 233.973 -0.068323 -1.69963 0
M  V30 2552 O 235.158 -0.248239 -1.92607 0
M  V30 2553 C 232.288 -0.853099 -3.36659 0
M  V30 2554 C 231.242 -1.9161 -3.82713 0
M  V30 2555 C 230.568 -1.44773 -5.14728 0
M  V30 2556 C 231.868 -3.32535 -4.02763 0
M  V30 2557 H 233.562 -2.11237 -2.12177 0
M  V30 2558 H 231.108 -1.01699 -1.01948 0
M  V30 2559 H 233.061 -0.755165 -4.14578 0
M  V30 2560 H 231.785 0.120236 -3.26379 0
M  V30 2561 H 230.444 -2.00346 -3.07013 0
M  V30 2562 H 230.092 -0.462995 -5.00865 0
M  V30 2563 H 229.792 -2.15865 -5.46513 0
M  V30 2564 H 231.316 -1.36334 -5.95185 0
M  V30 2565 H 232.73 -3.26626 -4.71156 0
M  V30 2566 H 231.127 -4.01607 -4.45905 0
M  V30 2567 H 232.197 -3.75326 -3.07016 0
M  V30 2568 N 233.54 1.10788 -1.12088 0
M  V30 2569 C 234.768 1.86461 -0.896651 0
M  V30 2570 C 235.183 1.80492 0.553912 0
M  V30 2571 O 234.54 1.19102 1.38278 0
M  V30 2572 C 234.591 3.35006 -1.35843 0
M  V30 2573 O 234.312 3.40866 -2.75213 0
M  V30 2574 C 235.813 4.27565 -1.1706 0
M  V30 2575 H 233.033 0.589425 -0.320654 0
M  V30 2576 H 235.577 1.40076 -1.48993 0
M  V30 2577 H 233.732 3.7887 -0.808458 0
M  V30 2578 H 234.146 4.33411 -2.9539 0
M  V30 2579 H 235.62 5.30007 -1.54263 0
M  V30 2580 H 236.097 4.3906 -0.110814 0
M  V30 2581 H 236.703 3.89501 -1.70789 0
M  V30 2582 N 235.018 0.912232 1.28515 0
M  V30 2583 C 235.965 0.397954 2.27343 0
M  V30 2584 C 236.935 -0.526766 1.57526 0
M  V30 2585 O 238.12 -0.449292 1.85435 0
M  V30 2586 C 235.26 -0.357263 3.43246 0
M  V30 2587 C 234.373 0.599788 4.27816 0
M  V30 2588 C 233.508 -0.173725 5.30916 0
M  V30 2589 C 232.547 0.777039 6.07148 0
M  V30 2590 N 231.684 0.0371398 7.0209 0
M  V30 2591 H 236.524 1.24577 2.70711 0
M  V30 2592 H 234.061 0.625612 1.33133 0
M  V30 2593 H 236.019 -0.8113 4.09236 0
M  V30 2594 H 234.649 -1.16943 3.00872 0
M  V30 2595 H 233.701 1.17235 3.61884 0
M  V30 2596 H 235.013 1.32704 4.80823 0
M  V30 2597 H 234.167 -0.688394 6.02782 0
M  V30 2598 H 232.906 -0.934041 4.78672 0
M  V30 2599 H 231.911 1.3031 5.34134 0
M  V30 2600 H 233.136 1.53689 6.61481 0
M  V30 2601 H 231.082 -0.705213 6.52198 0
M  V30 2602 H 230.999 0.704249 7.52713 0
M  V30 2603 H 232.267 -0.457383 7.78157 0
M  V30 2604 N 236.496 -1.42363 0.676048 0
M  V30 2605 C 237.406 -2.346 -0.00153389 0
M  V30 2606 C 238.422 -1.5516 -0.787485 0
M  V30 2607 O 239.598 -1.87723 -0.729521 0
M  V30 2608 C 236.663 -3.33705 -0.940298 0
M  V30 2609 C 235.724 -4.29042 -0.148739 0
M  V30 2610 C 234.957 -5.23413 -1.04279 0
M  V30 2611 O 235.18 -5.22749 -2.28232 0
M  V30 2612 O 234.114 -5.99795 -0.502925 0
M  V30 2613 H 237.94 -2.94082 0.758268 0
M  V30 2614 H 235.525 -1.42888 0.436289 0
M  V30 2615 H 237.407 -3.94586 -1.47917 0
M  V30 2616 H 236.082 -2.76695 -1.67993 0
M  V30 2617 H 234.989 -3.71571 0.43427 0
M  V30 2618 H 236.322 -4.89097 0.551805 0
M  V30 2619 N 237.974 -0.419461 -1.51915 0
M  V30 2620 C 238.937 0.389116 -2.25873 0
M  V30 2621 C 239.937 0.964924 -1.28631 0
M  V30 2622 O 241.127 0.842179 -1.52489 0
M  V30 2623 C 238.259 1.54874 -3.03689 0
M  V30 2624 H 239.452 -0.258799 -2.98781 0
M  V30 2625 H 237.005 -0.172209 -1.55348 0
M  V30 2626 H 237.74 2.23323 -2.35154 0
M  V30 2627 H 237.525 1.14223 -3.75094 0
M  V30 2628 H 239.015 2.12046 -3.59759 0
M  V30 2629 N 239.452 1.56882 -0.150215 0
M  V30 2630 C 240.699 1.96228 0.500093 0
M  V30 2631 C 241.027 1.03522 1.64661 0
M  V30 2632 O 240.282 0.0650683 1.95592 0
M  V30 2633 C 240.581 3.41801 1.04437 0
M  V30 2634 C 240.247 4.50897 0.0159671 0
M  V30 2635 C 238.909 4.8046 -0.266731 0
M  V30 2636 C 241.261 5.16703 -0.683192 0
M  V30 2637 C 238.589 5.73135 -1.25434 0
M  V30 2638 C 240.941 6.10441 -1.65964 0
M  V30 2639 C 239.605 6.38382 -1.95 0
M  V30 2640 H 238.875 0.718048 0.182997 0
M  V30 2641 H 241.522 1.90019 -0.237724 0
M  V30 2642 H 239.827 3.44857 1.85959 0
M  V30 2643 H 241.524 3.69573 1.55618 0
M  V30 2644 H 238.114 4.27891 0.246485 0
M  V30 2645 H 242.298 4.93993 -0.477983 0
M  V30 2646 H 237.554 5.93074 -1.48571 0
M  V30 2647 H 241.728 6.60507 -2.20689 0
M  V30 2648 H 239.355 7.09996 -2.71679 0
M  V30 2649 N 240.93 -0.123565 1.57115 0
M  V30 2650 C 241.877 -1.15177 2.00007 0
M  V30 2651 C 242.847 -1.41403 0.871454 0
M  V30 2652 O 244.032 -1.53346 1.13533 0
M  V30 2653 C 241.172 -2.47436 2.40561 0
M  V30 2654 C 240.285 -2.28184 3.66819 0
M  V30 2655 C 239.42 -3.53641 3.96373 0
M  V30 2656 C 238.459 -3.29528 5.15827 0
M  V30 2657 N 237.596 -4.47175 5.41275 0
M  V30 2658 H 242.436 -0.779008 2.87638 0
M  V30 2659 H 239.973 -0.373166 1.42288 0
M  V30 2660 H 241.931 -3.24584 2.62109 0
M  V30 2661 H 240.561 -2.82614 1.55978 0
M  V30 2662 H 239.613 -1.41976 3.52912 0
M  V30 2663 H 240.925 -2.0634 4.5412 0
M  V30 2664 H 240.079 -4.39209 4.18545 0
M  V30 2665 H 238.818 -3.78512 3.07538 0
M  V30 2666 H 237.823 -2.42349 4.93505 0
M  V30 2667 H 239.048 -3.06031 6.06236 0
M  V30 2668 H 236.994 -4.72175 4.55397 0
M  V30 2669 H 236.911 -4.28419 6.22891 0
M  V30 2670 H 238.179 -5.3389 5.67963 0
M  V30 2671 N 242.408 -1.52605 -0.393616 0
M  V30 2672 C 243.633 -1.71592 -1.16495 0
M  V30 2673 C 244.058 -0.43133 -1.83088 0
M  V30 2674 O 243.416 0.612523 -1.7064 0
M  V30 2675 C 243.464 -2.86318 -2.19213 0
M  V30 2676 O 242.568 -2.52969 -3.257 0
M  V30 2677 H 241.909 -0.570734 -0.33935 0
M  V30 2678 H 244.439 -1.99377 -0.459324 0
M  V30 2679 H 244.449 -3.1168 -2.63286 0
M  V30 2680 H 243.124 -3.79511 -1.7013 0
M  V30 2681 H 241.701 -2.38332 -2.86797 0
M  V30 2682 N 243.887 0.651787 -1.4349 0
M  V30 2683 C 245.117 1.43728 -1.48411 0
M  V30 2684 C 245.525 1.8893 -0.10103 0
M  V30 2685 O 244.868 1.60182 0.899307 0
M  V30 2686 C 244.93 2.70411 -2.36893 0
M  V30 2687 C 244.594 2.4714 -3.8441 0
M  V30 2688 C 245.591 2.10271 -4.75481 0
M  V30 2689 C 243.276 2.6142 -4.28912 0
M  V30 2690 C 245.27 1.87982 -6.0905 0
M  V30 2691 C 242.957 2.38746 -5.62533 0
M  V30 2692 C 243.955 2.02083 -6.5242 0
M  V30 2693 O 243.643 1.79647 -7.8357 0
M  V30 2694 H 243.375 0.447962 -0.506267 0
M  V30 2695 H 245.929 0.80624 -1.88915 0
M  V30 2696 H 244.159 3.36079 -1.91278 0
M  V30 2697 H 245.848 3.32364 -2.33 0
M  V30 2698 H 246.614 1.98814 -4.42378 0
M  V30 2699 H 242.493 2.88931 -3.59222 0
M  V30 2700 H 246.037 1.5929 -6.7917 0
M  V30 2701 H 241.934 2.49806 -5.95203 0
M  V30 2702 H 242.702 1.9406 -7.95162 0
M  V30 2703 N 245.365 1.30045 0.890287 0
M  V30 2704 C 246.611 1.18737 1.64406 0
M  V30 2705 C 246.944 -0.258525 1.92472 0
M  V30 2706 O 246.219 -1.18562 1.54186 0
M  V30 2707 C 246.502 2.01087 2.98724 0
M  V30 2708 C 246.355 3.53867 2.77665 0
M  V30 2709 C 247.674 1.84457 3.9958 0
M  V30 2710 H 244.793 0.432698 0.596608 0
M  V30 2711 H 247.435 1.5962 1.0306 0
M  V30 2712 H 245.585 1.66349 3.51084 0
M  V30 2713 H 247.257 3.98637 2.32133 0
M  V30 2714 H 245.5 3.78318 2.12269 0
M  V30 2715 H 246.171 4.06772 3.7315 0
M  V30 2716 H 248.647 2.14817 3.56361 0
M  V30 2717 H 247.523 2.44411 4.91482 0
M  V30 2718 H 247.784 0.802276 4.3476 0
M  V30 2719 N 246.843 -1.10192 1.12674 0
M  V30 2720 C 248.254 -1.63707 0.897604 0
M  V30 2721 C 248.605 -1.87812 -0.567546 0
M  V30 2722 O 247.73 -1.62196 -1.43253 0
M  V30 2723 C 248.325 -2.974 1.62292 0
M  V30 2724 C 246.884 -3.47772 1.43986 0
M  V30 2725 C 246.031 -2.22332 1.65722 0
M  V30 2726 H 248.982 -0.936587 1.28116 0
M  V30 2727 H 249.003 -3.64986 1.07541 0
M  V30 2728 H 248.515 -2.79824 2.68924 0
M  V30 2729 H 246.616 -3.70487 0.396206 0
M  V30 2730 H 246.729 -4.25723 2.19765 0
M  V30 2731 H 245.093 -2.30599 1.08149 0
M  V30 2732 H 245.876 -2.07285 2.73657 0
M  V30 2733 N 248.321 -0.919034 -1.28029 0
M  V30 2734 C 249.251 -0.428581 -2.29533 0
M  V30 2735 C 250.232 0.50659 -1.62381 0
M  V30 2736 O 251.417 0.413195 -1.89753 0
M  V30 2737 C 248.547 0.327388 -3.45753 0
M  V30 2738 C 247.501 -0.519137 -4.2484 0
M  V30 2739 C 246.827 0.365486 -5.33449 0
M  V30 2740 C 248.127 -1.77914 -4.91064 0
M  V30 2741 H 249.821 -1.27687 -2.70807 0
M  V30 2742 H 247.367 -0.615428 -1.30186 0
M  V30 2743 H 249.32 0.681378 -4.15855 0
M  V30 2744 H 248.044 1.20963 -3.03374 0
M  V30 2745 H 246.703 -0.855717 -3.56473 0
M  V30 2746 H 246.351 1.24642 -4.87312 0
M  V30 2747 H 246.051 -0.197356 -5.87268 0
M  V30 2748 H 247.575 0.715241 -6.06396 0
M  V30 2749 H 248.989 -1.49374 -5.53498 0
M  V30 2750 H 247.386 -2.2848 -5.54903 0
M  V30 2751 H 248.456 -2.50382 -4.15255 0
M  V30 2752 N 249.799 1.42003 -0.683588 0
M  V30 2753 C 251.048 2.00638 -0.206681 0
M  V30 2754 C 251.361 1.5472 1.19671 0
M  V30 2755 O 252.567 2.05833 1.77045 0
M  V30 2756 C 251.023 3.58487 -0.318632 0
M  V30 2757 C 250.631 4.1339 -1.72663 0
M  V30 2758 C 252.375 4.24384 0.0991141 0
M  V30 2759 C 250.282 5.63633 -1.79087 0
M  V30 2760 H 249.212 0.750408 -0.0735107 0
M  V30 2761 H 251.863 1.62624 -0.850048 0
M  V30 2762 H 250.245 3.94047 0.392781 0
M  V30 2763 H 251.419 3.89273 -2.46583 0
M  V30 2764 H 249.734 3.59976 -2.09299 0
M  V30 2765 H 252.331 5.34652 0.0713833 0
M  V30 2766 H 252.674 4.00505 1.13586 0
M  V30 2767 H 253.207 3.93816 -0.561599 0
M  V30 2768 H 249.946 5.92323 -2.80774 0
M  V30 2769 H 249.466 5.89714 -1.09535 0
M  V30 2770 H 251.145 6.28201 -1.5483 0
M  V30 2771 N 251.277 0.427512 1.51691 0
M  V30 2772 C 252.24 -0.377132 2.26076 0
M  V30 2773 C 253.24 -0.958089 1.29141 0
M  V30 2774 O 254.43 -0.83408 1.52934 0
M  V30 2775 C 251.562 -1.53262 3.04506 0
M  V30 2776 H 252.755 0.27464 2.9864 0
M  V30 2777 H 250.308 0.180445 1.55255 0
M  V30 2778 H 251.043 -2.22072 2.36335 0
M  V30 2779 H 250.828 -1.12232 3.75694 0
M  V30 2780 H 252.318 -2.10135 3.60878 0
M  V30 2781 N 252.755 -1.56801 0.158532 0
M  V30 2782 C 253.665 -2.20916 -0.789518 0
M  V30 2783 C 254.681 -1.1969 -1.26294 0
M  V30 2784 O 255.857 -1.52308 -1.31773 0
M  V30 2785 C 252.922 -2.82727 -2.00665 0
M  V30 2786 C 251.983 -3.99114 -1.58134 0
M  V30 2787 C 251.216 -4.57968 -2.74045 0
M  V30 2788 O 251.439 -4.15704 -3.90572 0
M  V30 2789 O 250.373 -5.48047 -2.48855 0
M  V30 2790 H 254.199 -3.02464 -0.273681 0
M  V30 2791 H 251.784 -1.4924 -0.0690548 0
M  V30 2792 H 253.666 -3.21968 -2.71872 0
M  V30 2793 H 252.341 -2.04184 -2.51179 0
M  V30 2794 H 251.248 -3.64567 -0.839155 0
M  V30 2795 H 252.581 -4.79212 -1.12325 0
M  V30 2796 N 254.233 0.115231 -1.57178 0
M  V30 2797 C 255.143 1.15994 -2.03918 0
M  V30 2798 C 256.159 1.45103 -0.960268 0
M  V30 2799 O 257.335 1.56144 -1.27204 0
M  V30 2800 C 254.4 2.46568 -2.43732 0
M  V30 2801 C 253.461 2.24822 -3.65723 0
M  V30 2802 C 252.694 3.4917 -4.03629 0
M  V30 2803 O 252.917 4.56623 -3.41835 0
M  V30 2804 O 251.851 3.39949 -4.96708 0
M  V30 2805 H 255.677 0.793019 -2.93164 0
M  V30 2806 H 253.262 0.3263 -1.45793 0
M  V30 2807 H 255.144 3.23492 -2.70057 0
M  V30 2808 H 253.819 2.82726 -1.57631 0
M  V30 2809 H 252.726 1.45744 -3.44542 0
M  V30 2810 H 254.059 1.93566 -4.52541 0
M  V30 2811 N 255.711 1.52812 0.385517 0
M  V30 2812 C 256.957 1.68275 1.13188 0
M  V30 2813 C 257.29 0.423179 1.89533 0
M  V30 2814 O 256.565 -0.579113 1.85679 0
M  V30 2815 C 256.848 2.92001 2.1073 0
M  V30 2816 C 256.701 4.28067 1.38125 0
M  V30 2817 C 258.02 3.11283 3.11113 0
M  V30 2818 H 255.139 0.612352 0.410115 0
M  V30 2819 H 257.781 1.85415 0.414869 0
M  V30 2820 H 255.931 2.77519 2.71874 0
M  V30 2821 H 257.603 4.54324 0.799187 0
M  V30 2822 H 255.846 4.28388 0.683092 0
M  V30 2823 H 256.517 5.10733 2.09417 0
M  V30 2824 H 258.993 3.2482 2.6006 0
M  V30 2825 H 257.869 3.99325 3.76605 0
M  V30 2826 H 258.13 2.25656 3.80173 0
M  V30 2827 N 257.189 -0.644168 1.43834 0
M  V30 2828 C 258.419 -1.42939 1.49171 0
M  V30 2829 C 258.827 -1.88874 0.111048 0
M  V30 2830 O 258.17 -1.60656 -0.8908 0
M  V30 2831 C 258.232 -2.69151 2.38324 0
M  V30 2832 C 257.896 -2.45097 3.85715 0
M  V30 2833 C 258.893 -2.07747 4.76589 0
M  V30 2834 C 256.578 -2.59141 4.30292 0
M  V30 2835 C 258.572 -1.8475 6.10038 0
M  V30 2836 C 256.259 -2.35759 5.63792 0
M  V30 2837 C 257.257 -1.9862 6.53482 0
M  V30 2838 O 256.945 -1.75489 7.84512 0
M  V30 2839 H 256.677 -0.445271 0.508635 0
M  V30 2840 H 259.231 -0.79621 1.8934 0
M  V30 2841 H 257.461 -3.3506 1.93058 0
M  V30 2842 H 259.15 -3.31123 2.3476 0
M  V30 2843 H 259.916 -1.96465 4.43426 0
M  V30 2844 H 255.795 -2.87022 3.60749 0
M  V30 2845 H 259.339 -1.55686 6.80006 0
M  V30 2846 H 255.236 -2.46646 5.9652 0
M  V30 2847 H 256.004 -1.89841 7.9618 0
M  V30 2848 N 258.668 -1.30515 -0.883378 0
M  V30 2849 C 259.615 -1.17032 -1.98927 0
M  V30 2850 C 260.585 -0.0594241 -1.65994 0
M  V30 2851 O 261.77 -0.229895 -1.8941 0
M  V30 2852 C 258.91 -0.869777 -3.33959 0
M  V30 2853 C 258.023 -2.06271 -3.79574 0
M  V30 2854 C 257.158 -1.70011 -5.03259 0
M  V30 2855 C 256.197 -2.8579 -5.41286 0
M  V30 2856 N 255.334 -2.49816 -6.56153 0
M  V30 2857 H 260.174 -2.1164 -2.09792 0
M  V30 2858 H 257.711 -1.05296 -1.02719 0
M  V30 2859 H 259.669 -0.676138 -4.11685 0
M  V30 2860 H 258.299 0.0394332 -3.22776 0
M  V30 2861 H 257.351 -2.36755 -2.97744 0
M  V30 2862 H 258.663 -2.92971 -4.03694 0
M  V30 2863 H 257.817 -1.47032 -5.88614 0
M  V30 2864 H 256.556 -0.804829 -4.81013 0
M  V30 2865 H 255.561 -3.09434 -4.54456 0
M  V30 2866 H 256.786 -3.76008 -5.65504 0
M  V30 2867 H 254.732 -1.62795 -6.35479 0
M  V30 2868 H 254.649 -3.30048 -6.8015 0
M  V30 2869 H 255.917 -2.30197 -7.44735 0
M  V30 2870 N 260.146 1.09593 -1.13257 0
M  V30 2871 C 261.376 1.85231 -0.915049 0
M  V30 2872 C 261.784 1.81345 0.539498 0
M  V30 2873 O 261.127 1.20664 1.38513 0
M  V30 2874 C 261.189 3.34275 -1.3229 0
M  V30 2875 C 260.853 3.6191 -2.79052 0
M  V30 2876 C 261.85 3.57777 -3.77216 0
M  V30 2877 C 259.535 3.90309 -3.16171 0
M  V30 2878 C 261.529 3.81652 -5.1051 0
M  V30 2879 C 259.216 4.13839 -4.49644 0
M  V30 2880 C 260.214 4.09502 -5.46623 0
M  V30 2881 O 259.902 4.32426 -6.77689 0
M  V30 2882 H 259.634 0.591997 -0.326367 0
M  V30 2883 H 262.188 1.394 -1.50854 0
M  V30 2884 H 260.418 3.80805 -0.672667 0
M  V30 2885 H 262.107 3.9132 -1.07812 0
M  V30 2886 H 262.873 3.35865 -3.49885 0
M  V30 2887 H 258.752 3.92811 -2.41289 0
M  V30 2888 H 262.296 3.78182 -5.86195 0
M  V30 2889 H 258.193 4.35232 -4.767 0
M  V30 2890 H 258.961 4.49896 -6.83766 0
M  V30 2891 N 261.624 0.925811 1.2754 0
M  V30 2892 C 262.871 0.565255 1.94451 0
M  V30 2893 C 263.199 -0.89316 1.7278 0
M  V30 2894 O 262.454 -1.65213 1.04895 0
M  V30 2895 C 262.753 0.835296 3.47502 0
M  V30 2896 C 262.419 2.27515 3.89291 0
M  V30 2897 C 261.081 2.66879 4.00411 0
M  V30 2898 C 263.433 3.21158 4.10496 0
M  V30 2899 C 260.761 3.99014 4.30122 0
M  V30 2900 C 263.113 4.52871 4.4169 0
M  V30 2901 C 261.777 4.92072 4.51023 0
M  V30 2902 H 261.047 0.206841 0.711546 0
M  V30 2903 H 263.694 1.16942 1.51647 0
M  V30 2904 H 261.999 0.148442 3.91519 0
M  V30 2905 H 263.696 0.535322 3.97411 0
M  V30 2906 H 260.286 1.95976 3.81171 0
M  V30 2907 H 264.47 2.9195 4.01346 0
M  V30 2908 H 259.726 4.2907 4.35556 0
M  V30 2909 H 263.9 5.25436 4.57045 0
M  V30 2910 H 261.527 5.9449 4.738 0
M  V30 2911 N 263.102 -1.41638 0.69111 0
M  V30 2912 C 264.518 -1.55435 0.362224 0
M  V30 2913 C 264.718 -1.66754 -1.13117 0
M  V30 2914 O 263.774 -1.64348 -1.91692 0
M  V30 2915 C 265.087 -2.79588 1.10684 0
M  V30 2916 C 266.635 -2.9338 1.09075 0
M  V30 2917 C 267.11 -4.20414 1.81703 0
M  V30 2918 N 268.601 -4.27362 1.7865 0
M  V30 2919 C 269.336 -5.24507 2.31689 0
M  V30 2920 N 268.832 -6.27708 2.93179 0
M  V30 2921 N 270.625 -5.16416 2.2197 0
M  V30 2922 H 262.776 -1.32536 1.65976 0
M  V30 2923 H 265.039 -0.639115 0.700168 0
M  V30 2924 H 264.745 -2.77419 2.16175 0
M  V30 2925 H 264.619 -3.70973 0.682545 0
M  V30 2926 H 267.006 -2.95067 0.0441238 0
M  V30 2927 H 267.087 -2.0318 1.55407 0
M  V30 2928 H 266.731 -4.19488 2.86343 0
M  V30 2929 H 266.661 -5.09578 1.32808 0
M  V30 2930 H 269.152 -3.53415 1.33815 0
M  V30 2931 H 269.465 -6.98217 3.31229 0
M  V30 2932 H 267.81 -6.28223 2.97255 0
M  V30 2933 H 271.001 -4.34716 1.73607 0
M  V30 2934 H 271.174 -5.91958 2.63609 0
M  V30 2935 N 264.58 -0.43555 -1.51462 0
M  V30 2936 C 265.857 0.191364 -1.94662 0
M  V30 2937 C 266.237 1.60254 -1.37411 0
M  V30 2938 O 265.585 2.2152 -0.560458 0
M  V30 2939 C 265.795 0.17091 -3.48581 0
M  V30 2940 C 267.143 0.377357 -4.2292 0
M  V30 2941 O 268.167 0.249104 -3.55328 0
M  V30 2942 O 267.026 0.63247 -5.42828 0
M  V30 2943 H 264.12 0.130932 -0.816569 0
M  V30 2944 H 266.666 -0.4934 -1.62369 0
M  V30 2945 H 265.438 -0.815738 -3.82703 0
M  V30 2946 H 265.061 0.898659 -3.87311 0
M  V30 2947 N 266.058 1.56714 -0.166846 0
M  V30 2948 C 267.283 2.01557 0.488833 0
M  V30 2949 C 267.708 1.0463 1.56314 0
M  V30 2950 O 267.066 0.0251304 1.81283 0
M  V30 2951 C 267.114 3.4503 1.04818 0
M  V30 2952 O 266.218 3.51163 2.16236 0
M  V30 2953 H 265.559 0.653516 0.117526 0
M  V30 2954 H 268.089 2.02818 -0.269421 0
M  V30 2955 H 268.099 3.84243 1.37191 0
M  V30 2956 H 266.774 4.15077 0.261572 0
M  V30 2957 H 265.351 3.23807 1.84942 0
M  V30 2958 N 267.536 -0.106894 1.57237 0
M  V30 2959 C 268.483 -1.13049 2.01217 0
M  V30 2960 C 269.453 -1.40471 0.886403 0
M  V30 2961 O 270.638 -1.52133 1.15153 0
M  V30 2962 C 267.778 -2.4487 2.43172 0
M  V30 2963 C 266.891 -2.24281 3.69218 0
M  V30 2964 C 266.026 -3.49417 4.00101 0
M  V30 2965 C 265.065 -3.24038 5.19294 0
M  V30 2966 N 264.202 -4.41409 5.45988 0
M  V30 2967 H 269.042 -0.748456 2.88448 0
M  V30 2968 H 266.579 -0.358054 1.42676 0
M  V30 2969 H 268.537 -3.21786 2.65537 0
M  V30 2970 H 267.167 -2.80944 1.58967 0
M  V30 2971 H 266.219 -1.38224 3.54398 0
M  V30 2972 H 267.531 -2.01512 4.56283 0
M  V30 2973 H 266.685 -4.34746 4.2318 0
M  V30 2974 H 265.424 -3.75229 3.11535 0
M  V30 2975 H 264.429 -2.37102 4.96047 0
M  V30 2976 H 265.654 -2.99584 6.09447 0
M  V30 2977 H 263.6 -4.67319 4.60379 0
M  V30 2978 H 263.517 -4.21788 6.274 0
M  V30 2979 H 264.785 -5.27836 5.73593 0
M  V30 2980 N 269.014 -1.53014 -0.377408 0
M  V30 2981 C 269.962 -1.7927 -1.48206 0
M  V30 2982 C 270.956 -0.661195 -1.55963 0
M  V30 2983 O 272.162 -0.843908 -1.58991 0
M  V30 2984 H 268.537 -0.567425 -0.493491 0
M  V30 2985 H 270.508 -2.71753 -1.2326 0
M  V30 2986 C 269.257 -1.98894 -2.85196 0
M  V30 2987 H 268.58 -2.85395 -2.79981 0
M  V30 2988 H 270.02 -2.21249 -3.61698 0
M  V30 2989 C 268.479 -0.764691 -3.28107 0
M  V30 2990 O 269.009 0.0523226 -4.01666 0
M  V30 2991 N 267.215 -0.591493 -2.84517 0
M  V30 2992 H 266.762 -1.25749 -2.24822 0
M  V30 2993 H 266.72 0.226253 -3.13585 0
M  V30 2994 N 270.492 0.636531 -1.44174 0
M  V30 2995 C 271.739 1.39619 -1.46672 0
M  V30 2996 C 272.067 1.94257 -0.0972691 0
M  V30 2997 O 271.322 1.73768 0.900175 0
M  V30 2998 C 271.621 2.58309 -2.47005 0
M  V30 2999 C 271.287 2.21992 -3.92467 0
M  V30 3000 C 269.949 2.118 -4.32081 0
M  V30 3001 C 272.301 1.9321 -4.84065 0
M  V30 3002 C 269.629 1.71007 -5.61225 0
M  V30 3003 C 271.981 1.53911 -6.13591 0
M  V30 3004 C 270.645 1.42257 -6.52165 0
M  V30 3005 H 269.915 0.510902 -0.536712 0
M  V30 3006 H 272.562 0.722328 -1.77355 0
M  V30 3007 H 270.867 3.30903 -2.09786 0
M  V30 3008 H 272.564 3.16533 -2.46186 0
M  V30 3009 H 269.154 2.30841 -3.61124 0
M  V30 3010 H 273.338 1.99997 -4.54219 0
M  V30 3011 H 268.594 1.60583 -5.89935 0
M  V30 3012 H 272.768 1.30677 -6.8403 0
M  V30 3013 H 270.395 1.10419 -7.52138 0
M  V30 3014 N 271.97 1.30982 0.876444 0
M  V30 3015 C 273.386 1.09498 1.16113 0
M  V30 3016 C 273.586 -0.13875 2.01022 0
M  V30 3017 O 272.642 -0.829935 2.38471 0
M  V30 3018 C 273.955 2.36308 1.85954 0
M  V30 3019 C 275.503 2.41856 1.98683 0
M  V30 3020 C 275.978 3.6853 2.71937 0
M  V30 3021 N 277.469 3.69387 2.79477 0
M  V30 3022 C 278.204 4.64096 3.36753 0
M  V30 3023 N 277.7 5.69155 3.95012 0
M  V30 3024 N 279.493 4.51626 3.3465 0
M  V30 3025 H 271.644 2.10118 0.310494 0
M  V30 3026 H 273.907 0.926634 0.200131 0
M  V30 3027 H 273.613 3.26388 1.31011 0
M  V30 3028 H 273.487 2.4561 2.86278 0
M  V30 3029 H 275.874 1.52249 2.52793 0
M  V30 3030 H 275.955 2.36523 0.9742 0
M  V30 3031 H 275.599 4.58499 2.18496 0
M  V30 3032 H 275.529 3.71127 3.73593 0
M  V30 3033 H 278.02 2.93438 2.38123 0
M  V30 3034 H 278.333 6.3751 4.36808 0
M  V30 3035 H 276.678 5.72937 3.93406 0
M  V30 3036 H 279.869 3.68728 2.8837 0
M  V30 3037 H 280.042 5.25614 3.7899 0
M  V30 3038 N 273.449 -1.08991 1.13837 0
M  V30 3039 C 274.379 -2.17771 0.842507 0
M  V30 3040 C 275.36 -1.6892 -0.20001 0
M  V30 3041 O 276.545 -1.94113 -0.0579731 0
M  V30 3042 C 273.675 -3.4589 0.312644 0
M  V30 3043 C 272.629 -4.08099 1.28992 0
M  V30 3044 C 271.955 -5.31098 0.619623 0
M  V30 3045 C 273.255 -4.50077 2.65005 0
M  V30 3046 H 274.949 -2.42777 1.75213 0
M  V30 3047 H 272.495 -1.16682 0.843875 0
M  V30 3048 H 274.448 -4.21297 0.0933043 0
M  V30 3049 H 273.172 -3.20419 -0.632382 0
M  V30 3050 H 271.831 -3.34717 1.49533 0
M  V30 3051 H 271.479 -5.0191 -0.33102 0
M  V30 3052 H 271.179 -5.73674 1.27167 0
M  V30 3053 H 272.703 -6.09224 0.409669 0
M  V30 3054 H 274.117 -5.16688 2.48407 0
M  V30 3055 H 272.514 -5.03553 3.26427 0
M  V30 3056 H 273.584 -3.62257 3.22332 0
M  V30 3057 N 274.927 -0.932562 -1.27047 0
M  V30 3058 C 275.875 -0.42603 -2.28665 0
M  V30 3059 C 276.869 0.49219 -1.62092 0
M  V30 3060 O 278.075 0.371355 -1.76128 0
M  V30 3061 H 274.45 -0.119213 -0.742491 0
M  V30 3062 H 276.421 -1.29579 -2.68797 0
M  V30 3063 C 275.17 0.301426 -3.46391 0
M  V30 3064 H 274.493 -0.39595 -3.97834 0
M  V30 3065 H 275.933 0.6202 -4.1944 0
M  V30 3066 C 274.392 1.51616 -3.00856 0
M  V30 3067 O 274.922 2.61476 -3.04948 0
M  V30 3068 N 273.128 1.36969 -2.56296 0
M  V30 3069 H 272.675 0.475873 -2.53166 0
M  V30 3070 H 272.633 2.18368 -2.26192 0
M  V30 3071 N 276.405 1.4127 -0.698611 0
M  V30 3072 C 277.315 2.34573 -0.0357891 0
M  V30 3073 C 278.331 1.56393 0.762701 0
M  V30 3074 O 279.507 1.8886 0.699564 0
M  V30 3075 C 276.572 3.35159 0.887089 0
M  V30 3076 C 275.633 4.29225 0.0804634 0
M  V30 3077 C 274.866 5.25006 0.959387 0
M  V30 3078 O 275.089 5.26314 2.19886 0
M  V30 3079 O 274.023 6.00519 0.407439 0
M  V30 3080 H 277.849 2.92838 -0.804957 0
M  V30 3081 H 275.434 1.42175 -0.458966 0
M  V30 3082 H 277.316 3.9689 1.41621 0
M  V30 3083 H 275.991 2.79333 1.6357 0
M  V30 3084 H 274.898 3.70833 -0.493328 0
M  V30 3085 H 276.231 4.88157 -0.629547 0
M  V30 3086 N 277.883 0.443576 1.51229 0
M  V30 3087 C 279.299 0.0962001 1.5931 0
M  V30 3088 C 279.499 -1.39501 1.45402 0
M  V30 3089 O 278.555 -2.16557 1.29843 0
M  V30 3090 C 279.868 0.621875 2.94199 0
M  V30 3091 C 281.416 0.582865 3.07525 0
M  V30 3092 C 281.891 1.08562 4.44948 0
M  V30 3093 N 283.382 1.04387 4.51284 0
M  V30 3094 C 284.117 1.40368 5.55954 0
M  V30 3095 N 283.613 1.83664 6.68011 0
M  V30 3096 N 285.406 1.32145 5.46346 0
M  V30 3097 H 277.557 1.41376 1.58514 0
M  V30 3098 H 279.82 0.582965 0.747567 0
M  V30 3099 H 279.526 1.66546 3.09767 0
M  V30 3100 H 279.4 0.0502125 3.77167 0
M  V30 3101 H 281.787 -0.451749 2.91622 0
M  V30 3102 H 281.868 1.191 2.26382 0
M  V30 3103 H 281.512 2.11873 4.61598 0
M  V30 3104 H 281.442 0.453956 5.2464 0
M  V30 3105 H 283.933 0.725986 3.70861 0
M  V30 3106 H 284.246 2.0934 7.43906 0
M  V30 3107 H 282.591 1.87596 6.69203 0
M  V30 3108 H 285.782 0.981808 4.57688 0
M  V30 3109 H 285.955 1.60514 6.27805 0
M  V30 3110 N 279.361 -1.56624 0.175154 0
M  V30 3111 C 280.589 -2.01374 -0.474971 0
M  V30 3112 C 281.004 -1.05537 -1.56548 0
M  V30 3113 O 280.361 -0.0568668 -1.82411 0
M  V30 3114 C 280.412 -3.45923 -1.04975 0
M  V30 3115 O 280.133 -4.381 -0.00276605 0
M  V30 3116 C 281.634 -4.06093 -1.77773 0
M  V30 3117 H 278.854 -0.659962 -0.121206 0
M  V30 3118 H 281.398 -2.02601 0.27801 0
M  V30 3119 H 279.553 -3.45458 -1.75321 0
M  V30 3120 H 279.967 -5.22753 -0.427681 0
M  V30 3121 H 281.441 -5.09147 -2.13245 0
M  V30 3122 H 281.918 -3.48405 -2.67414 0
M  V30 3123 H 282.524 -4.10272 -1.12059 0
M  V30 3124 N 280.839 0.0985539 -1.57292 0
M  V30 3125 C 282.067 0.816318 -1.90115 0
M  V30 3126 C 282.482 1.72451 -0.768509 0
M  V30 3127 O 281.839 1.80643 0.259687 0
M  V30 3128 C 281.89 1.63259 -3.22535 0
M  V30 3129 O 281.611 0.760934 -4.31441 0
M  V30 3130 C 283.112 2.45372 -3.69199 0
M  V30 3131 H 280.332 0.233595 -0.629027 0
M  V30 3132 H 282.876 0.0768229 -2.04356 0
M  V30 3133 H 281.031 2.32463 -3.09903 0
M  V30 3134 H 281.445 1.32595 -5.07463 0
M  V30 3135 H 282.919 2.98144 -4.64558 0
M  V30 3136 H 283.396 3.23677 -2.96867 0
M  V30 3137 H 284.002 1.81373 -3.84687 0
M  V30 3138 N 282.317 1.53212 0.369288 0
M  V30 3139 C 283.565 1.68881 1.11012 0
M  V30 3140 C 283.886 0.441285 1.89941 0
M  V30 3141 O 283.156 -0.544623 1.88177 0
M  V30 3142 H 281.736 0.622569 0.412816 0
M  V30 3143 H 284.398 1.90391 0.416802 0
M  V30 3144 H 283.494 2.54822 1.80201 0
M  V30 3145 N 283.795 -0.628877 1.44509 0
M  V30 3146 C 285.023 -1.41554 1.50897 0
M  V30 3147 C 285.438 -1.8832 0.134564 0
M  V30 3148 O 284.795 -1.60969 -0.859965 0
M  V30 3149 C 284.846 -2.63435 2.47556 0
M  V30 3150 O 284.567 -2.18619 3.79654 0
M  V30 3151 C 286.068 -3.56537 2.63431 0
M  V30 3152 H 283.288 -0.434044 0.511709 0
M  V30 3153 H 285.832 -0.768895 1.89495 0
M  V30 3154 H 283.987 -3.24187 2.12089 0
M  V30 3155 H 284.401 -2.97652 4.31861 0
M  V30 3156 H 285.875 -4.38657 3.35088 0
M  V30 3157 H 286.352 -4.05493 1.68738 0
M  V30 3158 H 286.958 -3.01653 2.9981 0
M  V30 3159 N 285.273 -1.31445 -0.869486 0
M  V30 3160 C 286.522 -1.20517 -1.61736 0
M  V30 3161 C 286.835 0.235341 -1.94179 0
M  V30 3162 O 288.041 0.466312 -2.67465 0
M  V30 3163 C 286.497 -2.10982 -2.91573 0
M  V30 3164 C 286.105 -3.60032 -2.66611 0
M  V30 3165 C 287.849 -2.08856 -3.69567 0
M  V30 3166 C 285.756 -4.42503 -3.92358 0
M  V30 3167 H 284.686 -0.447493 -0.606849 0
M  V30 3168 H 287.337 -1.56303 -0.96133 0
M  V30 3169 H 285.719 -1.68095 -3.58553 0
M  V30 3170 H 286.893 -4.11167 -2.08035 0
M  V30 3171 H 285.208 -3.64139 -2.0197 0
M  V30 3172 H 287.805 -2.67716 -4.62852 0
M  V30 3173 H 288.148 -1.07582 -4.02159 0
M  V30 3174 H 288.681 -2.49945 -3.09471 0
M  V30 3175 H 285.42 -5.44533 -3.64916 0
M  V30 3176 H 284.94 -3.96125 -4.50383 0
M  V30 3177 H 286.619 -4.54741 -4.60238 0
M  V30 3178 N 286.751 1.08385 -1.14413 0
M  V30 3179 C 288.028 1.77429 -0.823297 0
M  V30 3180 C 288.408 1.9974 0.683163 0
M  V30 3181 O 287.756 1.60739 1.62405 0
M  V30 3182 C 287.966 3.09004 -1.62227 0
M  V30 3183 C 289.314 3.83532 -1.82177 0
M  V30 3184 O 290.338 3.18786 -1.58915 0
M  V30 3185 O 289.197 4.99792 -2.21067 0
M  V30 3186 H 286.291 0.769999 -0.301712 0
M  V30 3187 H 288.837 1.14846 -1.24934 0
M  V30 3188 H 287.609 2.88316 -2.64555 0
M  V30 3189 H 287.232 3.79316 -1.19187 0
M  V30 3190 N 288.23 0.939286 1.26551 0
M  V30 3191 C 289.476 0.586715 1.94128 0
M  V30 3192 C 289.809 -0.8717 1.73537 0
M  V30 3193 O 289.084 -1.62339 1.07127 0
M  V30 3194 C 289.367 0.927497 3.4795 0
M  V30 3195 C 289.22 2.44052 3.77834 0
M  V30 3196 C 290.539 0.441569 4.37879 0
M  V30 3197 H 287.658 0.21463 0.705055 0
M  V30 3198 H 290.3 1.17316 1.49455 0
M  V30 3199 H 288.45 0.428431 3.8613 0
M  V30 3200 H 290.122 3.01216 3.4938 0
M  V30 3201 H 288.365 2.8848 3.23978 0
M  V30 3202 H 289.036 2.62947 4.85348 0
M  V30 3203 H 291.512 0.869448 4.06915 0
M  V30 3204 H 290.388 0.708856 5.44304 0
M  V30 3205 H 290.649 -0.658467 4.37169 0
M  V30 3206 N 289.708 -1.40897 0.706093 0
M  V30 3207 C 290.641 -2.282 -0.00328781 0
M  V30 3208 C 291.619 -1.42816 -0.77732 0
M  V30 3209 O 292.803 -1.72237 -0.765944 0
M  V30 3210 C 289.93 -3.23226 -1.01205 0
M  V30 3211 C 288.976 -4.25222 -0.329955 0
M  V30 3212 S 289.809 -5.27269 0.935298 0
M  V30 3213 C 290.965 -6.25859 -0.0716061 0
M  V30 3214 H 291.198 -2.88016 0.737143 0
M  V30 3215 H 288.731 -1.46191 0.496756 0
M  V30 3216 H 290.689 -3.78503 -1.58888 0
M  V30 3217 H 289.35 -2.62485 -1.72513 0
M  V30 3218 H 288.543 -4.92023 -1.09221 0
M  V30 3219 H 288.145 -3.73595 0.174069 0
M  V30 3220 H 290.437 -6.71204 -0.921521 0
M  V30 3221 H 291.38 -7.0586 0.562765 0
M  V30 3222 H 291.788 -5.62852 -0.431088 0
M  V30 3223 N 291.186 -0.45159 -1.50991 0
M  V30 3224 C 292.432 0.110237 -2.025 0
M  V30 3225 C 292.765 1.41109 -1.33424 0
M  V30 3226 O 292.04 1.89135 -0.453659 0
M  V30 3227 C 292.323 0.314271 -3.58726 0
M  V30 3228 C 292.176 -1.00623 -4.38401 0
M  V30 3229 C 293.495 1.07767 -4.26702 0
M  V30 3230 H 290.614 0.0385897 -0.735989 0
M  V30 3231 H 293.256 -0.593374 -1.80497 0
M  V30 3232 H 291.406 0.913601 -3.77605 0
M  V30 3233 H 293.078 -1.64064 -4.31139 0
M  V30 3234 H 291.321 -1.6075 -4.02917 0
M  V30 3235 H 291.992 -0.817341 -5.45915 0
M  V30 3236 H 294.468 0.56986 -4.12179 0
M  V30 3237 H 293.344 1.18921 -5.35863 0
M  V30 3238 H 293.605 2.10939 -3.88532 0
M  V30 3239 N 292.664 1.56529 -0.183458 0
M  V30 3240 C 293.892 2.01623 0.464285 0
M  V30 3241 C 294.307 1.06366 1.55986 0
M  V30 3242 O 293.664 0.0665398 1.82379 0
M  V30 3243 C 293.715 3.46475 1.03139 0
M  V30 3244 O 293.436 4.38095 -0.0204675 0
M  V30 3245 C 294.937 4.0703 1.75617 0
M  V30 3246 H 292.157 0.660596 0.117704 0
M  V30 3247 H 294.701 2.02451 -0.288751 0
M  V30 3248 H 292.856 3.46383 1.73486 0
M  V30 3249 H 293.27 5.22973 0.399952 0
M  V30 3250 H 294.744 5.10271 2.10542 0
M  V30 3251 H 295.221 3.49819 2.65563 0
M  V30 3252 H 295.827 4.1086 1.09882 0
M  V30 3253 N 294.142 -0.090211 1.57342 0
M  V30 3254 C 295.074 -1.13541 1.99101 0
M  V30 3255 C 296.087 -1.3604 0.894258 0
M  V30 3256 O 297.276 -1.34606 1.17233 0
M  V30 3257 C 294.376 -2.49001 2.29895 0
M  V30 3258 C 293.549 -2.46712 3.61182 0
M  V30 3259 C 292.608 -3.64136 3.79857 0
M  V30 3260 O 291.634 -3.46405 4.51655 0
M  V30 3261 N 292.836 -4.83802 3.20806 0
M  V30 3262 H 295.601 -0.779942 2.89373 0
M  V30 3263 H 293.162 -0.279125 1.59476 0
M  V30 3264 H 295.154 -3.26166 2.39578 0
M  V30 3265 H 293.724 -2.76619 1.45605 0
M  V30 3266 H 292.944 -1.55058 3.62423 0
M  V30 3267 H 294.232 -2.42265 4.4742 0
M  V30 3268 H 293.63 -5.01112 2.62494 0
M  V30 3269 H 292.187 -5.58543 3.35966 0
M  V30 3270 N 295.62 -1.53406 -0.361157 0
M  V30 3271 C 297.031 -1.61442 -0.937728 0
M  V30 3272 C 297.382 -0.48461 -1.90121 0
M  V30 3273 O 296.507 0.388312 -2.12888 0
M  V30 3274 C 297.102 -2.92624 -1.70753 0
M  V30 3275 C 295.661 -3.02981 -2.23337 0
M  V30 3276 C 294.808 -2.5677 -1.04712 0
M  V30 3277 H 297.759 -1.58083 -0.139816 0
M  V30 3278 H 297.78 -2.80675 -2.56908 0
M  V30 3279 H 297.292 -3.74834 -1.00604 0
M  V30 3280 H 295.393 -2.25368 -2.96715 0
M  V30 3281 H 295.506 -4.0814 -2.50916 0
M  V30 3282 H 293.87 -2.11752 -1.41539 0
M  V30 3283 H 294.653 -3.41402 -0.360539 0
M  V30 3284 N 297.098 0.621204 -1.44841 0
M  V30 3285 C 298.008 1.7612 -1.5498 0
M  V30 3286 C 299.024 1.68477 -0.434927 0
M  V30 3287 O 300.2 1.89076 -0.693693 0
M  V30 3288 C 297.265 3.1254 -1.50065 0
M  V30 3289 C 296.326 3.31741 -2.72482 0
M  V30 3290 C 295.559 4.61653 -2.67792 0
M  V30 3291 O 295.782 5.431 -1.74352 0
M  V30 3292 O 294.716 4.83271 -3.58794 0
M  V30 3293 H 298.542 1.70518 -2.51311 0
M  V30 3294 H 296.127 0.783643 -1.27198 0
M  V30 3295 H 298.009 3.93844 -1.49882 0
M  V30 3296 H 296.684 3.18663 -0.568806 0
M  V30 3297 H 295.591 2.50077 -2.7823 0
M  V30 3298 H 296.924 3.30486 -3.64746 0
M  V30 3299 N 298.576 1.31904 0.862503 0
M  V30 3300 C 299.509 1.14514 1.97388 0
M  V30 3301 C 300.487 0.0466493 1.62533 0
M  V30 3302 O 301.671 0.204484 1.87388 0
M  V30 3303 C 298.798 0.751347 3.30261 0
M  V30 3304 C 297.844 1.85395 3.84098 0
M  V30 3305 S 298.677 3.46081 4.08642 0
M  V30 3306 C 299.833 3.08655 5.44502 0
M  V30 3307 H 300.066 2.08597 2.11836 0
M  V30 3308 H 297.599 1.16475 1.01356 0
M  V30 3309 H 299.557 0.530901 4.07052 0
M  V30 3310 H 298.218 -0.170493 3.13637 0
M  V30 3311 H 297.411 1.53122 4.80177 0
M  V30 3312 H 297.013 2.02984 3.14123 0
M  V30 3313 H 299.305 2.58012 6.26447 0
M  V30 3314 H 300.248 4.03726 5.81731 0
M  V30 3315 H 300.656 2.45891 5.08132 0
M  V30 3316 N 300.054 -1.07777 1.14986 0
M  V30 3317 C 301.282 -1.84018 0.945773 0
M  V30 3318 C 301.697 -1.81897 -0.505863 0
M  V30 3319 O 301.054 -1.22726 -1.35072 0
M  V30 3320 C 301.105 -3.31287 1.44677 0
M  V30 3321 O 300.826 -3.33449 2.84154 0
M  V30 3322 C 302.327 -4.24311 1.28355 0
M  V30 3323 H 299.547 -0.580716 0.336169 0
M  V30 3324 H 302.091 -1.36077 1.52654 0
M  V30 3325 H 300.246 -3.76594 0.908625 0
M  V30 3326 H 300.66 -4.25427 3.06777 0
M  V30 3327 H 302.134 -5.2573 1.68261 0
M  V30 3328 H 302.611 -4.38612 0.227184 0
M  V30 3329 H 303.217 -3.84836 1.81056 0
M  V30 3330 N 301.532 -0.945985 -1.26051 0
M  V30 3331 C 302.781 -0.591836 -1.92822 0
M  V30 3332 C 303.094 0.873956 -1.7499 0
M  V30 3333 O 304.3 1.33769 -2.36259 0
M  V30 3334 C 302.756 -1.00776 -3.45503 0
M  V30 3335 C 302.364 -2.4955 -3.7206 0
M  V30 3336 C 304.108 -0.725735 -4.1825 0
M  V30 3337 C 302.015 -2.84988 -5.18205 0
M  V30 3338 H 300.945 -0.217635 -0.721908 0
M  V30 3339 H 303.596 -1.14927 -1.43052 0
M  V30 3340 H 301.978 -0.378812 -3.94184 0
M  V30 3341 H 303.152 -3.1739 -3.34066 0
M  V30 3342 H 301.467 -2.75133 -3.12555 0
M  V30 3343 H 304.064 -0.966771 -5.25887 0
M  V30 3344 H 304.407 0.337639 -4.14929 0
M  V30 3345 H 304.94 -1.31463 -3.7545 0
M  V30 3346 H 301.679 -3.90307 -5.26631 0
M  V30 3347 H 301.199 -2.21813 -5.57278 0
M  V30 3348 H 302.878 -2.73712 -5.86252 0
M  V30 3349 N 303.011 1.40521 -0.713556 0
M  V30 3350 C 304.258 2.00923 -0.25219 0
M  V30 3351 C 304.586 1.56571 1.15395 0
M  V30 3352 O 303.841 0.775874 1.79663 0
M  V30 3353 C 304.14 3.56317 -0.278 0
M  V30 3354 C 303.806 4.20246 -1.63415 0
M  V30 3355 C 302.468 4.37422 -2.00538 0
M  V30 3356 C 304.82 4.55923 -2.52554 0
M  V30 3357 C 302.148 4.87558 -3.2635 0
M  V30 3358 C 304.5 5.07458 -3.77716 0
M  V30 3359 C 303.164 5.22843 -4.14959 0
M  V30 3360 H 302.434 0.735231 -0.0922829 0
M  V30 3361 H 305.081 1.68161 -0.916188 0
M  V30 3362 H 303.386 3.88976 0.469567 0
M  V30 3363 H 305.083 4.00883 0.0967819 0
M  V30 3364 H 301.673 4.07263 -1.33546 0
M  V30 3365 H 305.857 4.42291 -2.25149 0
M  V30 3366 H 301.113 4.97654 -3.55176 0
M  V30 3367 H 305.287 5.34041 -4.4696 0
M  V30 3368 H 302.914 5.61454 -5.12516 0
M  V30 3369 N 304.489 0.459591 1.5075 0
M  V30 3370 C 305.717 -0.0973749 2.06671 0
M  V30 3371 C 306.132 -1.34524 1.32472 0
M  V30 3372 O 305.489 -1.7827 0.390634 0
M  V30 3373 C 305.54 -0.39714 3.59312 0
M  V30 3374 O 305.261 0.801214 4.30711 0
M  V30 3375 C 306.762 -1.00234 4.31819 0
M  V30 3376 H 303.982 0.00195854 0.670997 0
M  V30 3377 H 306.526 0.645072 1.94059 0
M  V30 3378 H 304.681 -1.08951 3.71764 0
M  V30 3379 H 305.095 0.538857 5.21725 0
M  V30 3380 H 306.569 -1.16193 5.39632 0
M  V30 3381 H 307.046 -1.98939 3.91561 0
M  V30 3382 H 307.652 -0.348699 4.23868 0
M  V30 3383 N 305.967 -1.56429 0.191757 0
M  V30 3384 C 306.93 -2.17707 -0.716688 0
M  V30 3385 C 307.93 -1.13061 -1.14341 0
M  V30 3386 O 309.12 -1.38464 -1.05704 0
M  V30 3387 C 306.252 -2.77644 -1.97804 0
M  V30 3388 H 307.445 -2.99342 -0.1829 0
M  V30 3389 H 304.998 -1.56193 -0.0578566 0
M  V30 3390 H 305.733 -1.99799 -2.55443 0
M  V30 3391 H 305.518 -3.54246 -1.68083 0
M  V30 3392 H 307.008 -3.24708 -2.62592 0
M  V30 3393 N 307.445 0.0818655 -1.57387 0
M  V30 3394 C 308.67 0.799946 -1.91352 0
M  V30 3395 C 309.095 1.70833 -0.787258 0
M  V30 3396 O 308.453 1.79419 0.26048 0
M  V30 3397 C 308.501 1.57812 -3.24234 0
M  V30 3398 O 307.605 2.68806 -3.12757 0
M  V30 3399 H 306.946 0.21891 -0.626877 0
M  V30 3400 H 309.476 0.0531256 -2.04531 0
M  V30 3401 H 309.486 1.95952 -3.57864 0
M  V30 3402 H 308.161 0.911548 -4.05788 0
M  V30 3403 H 306.738 2.33597 -2.90666 0
M  V30 3404 N 308.923 1.53595 0.353017 0
M  V30 3405 C 310.339 1.43648 0.695516 0
M  V30 3406 C 310.539 0.585617 1.92802 0
M  V30 3407 O 309.595 0.0729223 2.52395 0
M  V30 3408 C 310.908 2.8701 0.896991 0
M  V30 3409 C 312.456 2.96723 0.996209 0
M  V30 3410 C 312.931 4.41173 1.23007 0
M  V30 3411 N 314.422 4.44657 1.29749 0
M  V30 3412 C 315.157 5.53547 1.49577 0
M  V30 3413 N 314.653 6.72461 1.66639 0
M  V30 3414 N 316.446 5.41145 1.52048 0
M  V30 3415 H 308.597 2.07415 -0.457481 0
M  V30 3416 H 310.86 0.9372 -0.142687 0
M  V30 3417 H 310.566 3.51644 0.0629938 0
M  V30 3418 H 310.44 3.31401 1.80148 0
M  V30 3419 H 312.827 2.32235 1.82074 0
M  V30 3420 H 312.908 2.55707 0.0688331 0
M  V30 3421 H 312.552 5.06238 0.410505 0
M  V30 3422 H 312.482 4.79772 2.17086 0
M  V30 3423 H 314.973 3.58963 1.18126 0
M  V30 3424 H 315.286 7.51214 1.81378 0
M  V30 3425 H 313.631 6.75423 1.63794 0
M  V30 3426 H 316.822 4.47205 1.38294 0
M  V30 3427 H 316.995 6.26068 1.67159 0
M  V30 3428 N 310.401 -0.613514 1.45168 0
M  V30 3429 C 311.626 -1.40437 1.52618 0
M  V30 3430 C 312.051 -1.87438 0.157707 0
M  V30 3431 O 311.409 -1.59791 -0.856537 0
M  V30 3432 C 311.457 -2.58894 2.51011 0
M  V30 3433 O 310.561 -3.59326 2.02382 0
M  V30 3434 H 309.902 -0.419506 0.514695 0
M  V30 3435 H 312.432 -0.747215 1.90467 0
M  V30 3436 H 312.442 -3.06214 2.69624 0
M  V30 3437 H 311.117 -2.24032 3.50403 0
M  V30 3438 H 309.694 -3.18695 1.93618 0
M  V30 3439 N 311.879 -1.3236 -0.855495 0
M  V30 3440 C 312.809 -1.23833 -1.97958 0
M  V30 3441 C 313.79 -0.122361 -1.69659 0
M  V30 3442 O 314.975 -0.30939 -1.9172 0
M  V30 3443 C 312.105 -0.959772 -3.33775 0
M  V30 3444 C 311.059 -2.03689 -3.76424 0
M  V30 3445 C 310.385 -1.61075 -5.09862 0
M  V30 3446 C 311.685 -3.4518 -3.9198 0
M  V30 3447 H 313.379 -2.1788 -2.0535 0
M  V30 3448 H 310.925 -1.04891 -0.986605 0
M  V30 3449 H 312.878 -0.886678 -4.11966 0
M  V30 3450 H 311.602 0.0163404 -3.26596 0
M  V30 3451 H 310.261 -2.10012 -3.00484 0
M  V30 3452 H 309.909 -0.622107 -4.99138 0
M  V30 3453 H 309.609 -2.33143 -5.39368 0
M  V30 3454 H 311.133 -1.55201 -5.90546 0
M  V30 3455 H 312.547 -3.4145 -4.60526 0
M  V30 3456 H 310.944 -4.1559 -4.32903 0
M  V30 3457 H 312.014 -3.84903 -2.94919 0
M  V30 3458 N 313.357 1.07166 -1.15556 0
M  V30 3459 C 314.287 2.16403 -0.877046 0
M  V30 3460 C 315.268 1.69217 0.173111 0
M  V30 3461 O 316.453 1.94181 0.027084 0
M  V30 3462 C 313.583 3.45349 -0.367632 0
M  V30 3463 C 312.537 4.05995 -1.35468 0
M  V30 3464 C 311.863 5.30045 -0.704038 0
M  V30 3465 C 313.163 4.45804 -2.72132 0
M  V30 3466 H 314.857 2.39959 -1.79053 0
M  V30 3467 H 312.403 1.15325 -0.862331 0
M  V30 3468 H 314.356 4.21095 -0.160317 0
M  V30 3469 H 313.08 3.21385 0.581326 0
M  V30 3470 H 311.739 3.32296 -1.54839 0
M  V30 3471 H 311.387 5.02373 0.251128 0
M  V30 3472 H 311.087 5.71579 -1.36277 0
M  V30 3473 H 312.611 6.08495 -0.50654 0
M  V30 3474 H 314.025 5.12671 -2.56595 0
M  V30 3475 H 312.422 4.98296 -3.34397 0
M  V30 3476 H 313.492 3.57083 -3.28054 0
M  V30 3477 N 314.835 0.952656 1.25548 0
M  V30 3478 C 316.083 0.605176 1.92826 0
M  V30 3479 C 316.404 -0.860261 1.74999 0
M  V30 3480 O 315.674 -1.6125 1.11244 0
M  V30 3481 H 314.254 0.220832 0.713612 0
M  V30 3482 H 316.916 1.21047 1.52754 0
M  V30 3483 H 316.012 0.832798 3.00784 0
M  V30 3484 N 316.313 -1.40141 0.720998 0
M  V30 3485 C 317.26 -2.30688 0.071919 0
M  V30 3486 C 318.23 -1.48476 -0.744584 0
M  V30 3487 O 319.415 -1.77201 -0.707423 0
M  V30 3488 C 316.555 -3.34724 -0.839855 0
M  V30 3489 C 315.668 -4.31998 -0.0122438 0
M  V30 3490 C 314.803 -5.23102 -0.923995 0
M  V30 3491 C 313.842 -6.12033 -0.0907969 0
M  V30 3492 N 312.979 -6.95537 -0.957718 0
M  V30 3493 H 317.819 -2.85628 0.849755 0
M  V30 3494 H 315.356 -1.40653 0.430726 0
M  V30 3495 H 317.314 -3.93618 -1.38279 0
M  V30 3496 H 315.944 -2.81274 -1.58381 0
M  V30 3497 H 314.996 -3.74841 0.64794 0
M  V30 3498 H 316.308 -4.94772 0.632595 0
M  V30 3499 H 315.462 -5.86953 -1.53527 0
M  V30 3500 H 314.201 -4.60615 -1.60264 0
M  V30 3501 H 313.206 -5.47207 0.533377 0
M  V30 3502 H 314.431 -6.76581 0.584428 0
M  V30 3503 H 312.377 -6.35633 -1.62192 0
M  V30 3504 H 312.294 -7.55099 -0.36904 0
M  V30 3505 H 313.562 -7.63832 -1.555 0
M  V30 3506 N 317.792 -0.46758 -1.50504 0
M  V30 3507 C 318.702 0.33382 -2.32213 0
M  V30 3508 C 319.718 0.999323 -1.42441 0
M  V30 3509 O 320.894 0.988068 -1.75497 0
M  V30 3510 C 317.959 1.4035 -3.17022 0
M  V30 3511 C 317.02 0.754961 -4.2261 0
M  V30 3512 C 316.253 1.77367 -5.03365 0
M  V30 3513 O 316.476 2.99976 -4.8515 0
M  V30 3514 O 315.41 1.34744 -5.86624 0
M  V30 3515 H 319.236 -0.334067 -3.01857 0
M  V30 3516 H 316.821 -0.229496 -1.47627 0
M  V30 3517 H 318.703 2.02318 -3.69656 0
M  V30 3518 H 317.378 2.05492 -2.5011 0
M  V30 3519 H 316.285 0.0964244 -3.73976 0
M  V30 3520 H 317.618 0.146545 -4.91982 0
M  V30 3521 N 319.27 1.56325 -0.20005 0
M  V30 3522 C 320.203 2.15234 0.758267 0
M  V30 3523 C 321.181 1.09046 1.20614 0
M  V30 3524 O 322.365 1.37186 1.29276 0
M  V30 3525 C 319.492 2.71524 2.02466 0
M  V30 3526 C 318.538 3.90345 1.71852 0
M  V30 3527 S 319.371 5.28513 0.862249 0
M  V30 3528 C 320.527 5.88227 2.13868 0
M  V30 3529 H 320.76 2.96183 0.2575 0
M  V30 3530 H 318.293 1.54393 0.0150099 0
M  V30 3531 H 320.251 3.04598 2.75191 0
M  V30 3532 H 318.912 1.90607 2.49655 0
M  V30 3533 H 318.105 4.28158 2.65888 0
M  V30 3534 H 317.707 3.58306 1.07205 0
M  V30 3535 H 319.999 6.02891 3.09076 0
M  V30 3536 H 320.942 6.84714 1.80479 0
M  V30 3537 H 321.35 5.16874 2.2694 0
M  V30 3538 N 320.748 -0.0735177 1.57428 0
M  V30 3539 C 322.164 -0.428264 1.53747 0
M  V30 3540 C 322.364 -1.79272 0.91998 0
M  V30 3541 O 321.42 -2.47051 0.521745 0
M  V30 3542 C 322.733 -0.370914 2.98404 0
M  V30 3543 C 324.281 -0.451224 3.0973 0
M  V30 3544 C 324.756 -0.4238 4.56035 0
M  V30 3545 N 326.247 -0.483925 4.60665 0
M  V30 3546 C 326.982 -0.484891 5.71346 0
M  V30 3547 N 326.478 -0.440775 6.91396 0
M  V30 3548 N 328.271 -0.531319 5.59583 0
M  V30 3549 H 320.422 0.819949 1.95935 0
M  V30 3550 H 322.685 0.307493 0.896745 0
M  V30 3551 H 322.391 0.564956 3.47133 0
M  V30 3552 H 322.265 -1.18176 3.5821 0
M  V30 3553 H 324.652 -1.37752 2.60976 0
M  V30 3554 H 324.733 0.388167 2.52838 0
M  V30 3555 H 324.377 0.498638 5.05446 0
M  V30 3556 H 324.307 -1.2807 5.10789 0
M  V30 3557 H 326.798 -0.522338 3.74273 0
M  V30 3558 H 327.111 -0.44539 7.71515 0
M  V30 3559 H 325.456 -0.40749 6.93804 0
M  V30 3560 H 328.647 -0.563464 4.64696 0
M  V30 3561 H 328.82 -0.528603 6.4584 0
M  V30 3562 N 322.226 -1.5378 -0.344866 0
M  V30 3563 C 323.189 -1.80981 -1.40637 0
M  V30 3564 C 324.189 -0.680816 -1.45676 0
M  V30 3565 O 325.379 -0.949095 -1.46075 0
M  V30 3566 C 322.511 -1.95063 -2.79577 0
M  V30 3567 H 323.704 -2.75803 -1.17783 0
M  V30 3568 H 321.257 -1.45173 -0.579181 0
M  V30 3569 H 321.992 -1.02379 -3.07716 0
M  V30 3570 H 321.777 -2.77198 -2.77315 0
M  V30 3571 H 323.267 -2.17629 -3.56409 0
M  V30 3572 N 323.704 0.605807 -1.45491 0
M  V30 3573 C 324.651 1.7164 -1.54299 0
M  V30 3574 C 325.621 1.61486 -0.388761 0
M  V30 3575 O 326.806 1.81039 -0.602445 0
M  V30 3576 C 323.946 3.09953 -1.51734 0
M  V30 3577 C 323.059 3.309 -2.77721 0
M  V30 3578 C 322.194 4.59329 -2.66816 0
M  V30 3579 C 321.233 4.7354 -3.87848 0
M  V30 3580 N 320.37 5.9327 -3.75467 0
M  V30 3581 H 325.21 1.63449 -2.49176 0
M  V30 3582 H 322.747 0.796957 -1.23641 0
M  V30 3583 H 324.705 3.89977 -1.48235 0
M  V30 3584 H 323.335 3.17098 -0.604068 0
M  V30 3585 H 322.387 2.44639 -2.913 0
M  V30 3586 H 323.699 3.37274 -3.67488 0
M  V30 3587 H 322.853 5.4755 -2.61292 0
M  V30 3588 H 321.592 4.55355 -1.74651 0
M  V30 3589 H 320.597 3.83741 -3.93729 0
M  V30 3590 H 321.822 4.79309 -4.81082 0
M  V30 3591 H 319.768 5.90338 -2.86072 0
M  V30 3592 H 319.685 6.00811 -4.5887 0
M  V30 3593 H 320.953 6.83984 -3.73879 0
M  V30 3594 N 325.182 1.32811 0.848464 0
M  V30 3595 C 326.112 1.24882 1.97299 0
M  V30 3596 C 327.093 0.131357 1.69592 0
M  V30 3597 O 328.278 0.319553 1.91553 0
M  V30 3598 C 325.408 0.97746 3.33261 0
M  V30 3599 C 324.362 2.05682 3.75338 0
M  V30 3600 C 323.688 1.63777 5.09 0
M  V30 3601 C 324.988 3.47254 3.90144 0
M  V30 3602 H 326.682 2.18966 2.04191 0
M  V30 3603 H 324.228 1.05413 0.981029 0
M  V30 3604 H 326.181 0.908513 4.1149 0
M  V30 3605 H 324.905 0.000980011 3.266 0
M  V30 3606 H 323.564 2.11603 2.99366 0
M  V30 3607 H 323.212 0.648569 4.98801 0
M  V30 3608 H 322.912 2.36 5.38124 0
M  V30 3609 H 324.436 1.5833 5.89715 0
M  V30 3610 H 325.85 3.43888 4.58709 0
M  V30 3611 H 324.247 4.1788 4.30693 0
M  V30 3612 H 325.317 3.86462 2.92874 0
M  V30 3613 N 326.66 -1.06551 1.16123 0
M  V30 3614 C 327.937 -1.76097 0.85142 0
M  V30 3615 C 328.317 -2.00802 -0.6513 0
M  V30 3616 O 327.665 -1.63302 -1.59827 0
M  V30 3617 C 327.875 -3.06384 1.67122 0
M  V30 3618 C 329.223 -3.80585 1.88255 0
M  V30 3619 O 330.247 -3.16218 1.63966 0
M  V30 3620 O 329.106 -4.96212 2.2899 0
M  V30 3621 H 326.2 -0.765102 0.313923 0
M  V30 3622 H 328.746 -1.12844 1.26745 0
M  V30 3623 H 327.518 -2.84071 2.69108 0
M  V30 3624 H 327.141 -3.77371 1.25206 0
M  V30 3625 N 328.138 -0.959301 -1.25041 0
M  V30 3626 C 329.366 -0.633949 -1.96948 0
M  V30 3627 C 329.781 0.794916 -1.7125 0
M  V30 3628 O 329.138 1.53231 -0.991287 0
M  V30 3629 C 329.189 -0.888805 -3.50403 0
M  V30 3630 O 328.91 -2.26149 -3.75218 0
M  V30 3631 C 330.411 -0.576482 -4.39536 0
M  V30 3632 H 327.631 -0.237263 -0.627652 0
M  V30 3633 H 330.175 -1.28495 -1.59089 0
M  V30 3634 H 328.33 -0.284145 -3.86357 0
M  V30 3635 H 328.744 -2.33514 -4.6965 0
M  V30 3636 H 330.218 -0.805314 -5.46094 0
M  V30 3637 H 330.695 0.489075 -4.36468 0
M  V30 3638 H 331.301 -1.16067 -4.09156 0
M  V30 3639 N 329.616 1.39756 -0.72842 0
M  V30 3640 C 330.893 1.94574 -0.200079 0
M  V30 3641 C 331.273 1.66569 1.29684 0
M  V30 3642 O 330.621 0.990326 2.05924 0
M  V30 3643 C 330.831 3.45004 -0.526608 0
M  V30 3644 C 332.179 4.21965 -0.472318 0
M  V30 3645 O 333.203 3.53173 -0.463413 0
M  V30 3646 O 332.062 5.44552 -0.461075 0
M  V30 3647 H 329.156 0.826289 -0.0342851 0
M  V30 3648 H 331.702 1.49293 -0.806829 0
M  V30 3649 H 330.474 3.58796 -1.56144 0
M  V30 3650 H 330.097 3.97449 0.109449 0
M  V30 3651 N 331.094 0.475555 1.50254 0
M  V30 3652 C 332.341 -0.0778919 2.0235 0
M  V30 3653 C 332.669 -1.39319 1.35722 0
M  V30 3654 O 331.924 -1.89888 0.473395 0
M  V30 3655 C 332.223 -0.305114 3.56095 0
M  V30 3656 C 331.889 0.92903 4.41225 0
M  V30 3657 C 330.551 1.26739 4.6421 0
M  V30 3658 C 332.903 1.75054 4.90923 0
M  V30 3659 C 330.231 2.42724 5.34137 0
M  V30 3660 C 332.583 2.9017 5.62125 0
M  V30 3661 C 331.247 3.24416 5.83362 0
M  V30 3662 H 330.517 -0.0285027 0.740452 0
M  V30 3663 H 333.164 0.630543 1.80821 0
M  V30 3664 H 331.469 -1.09584 3.76163 0
M  V30 3665 H 333.166 -0.747377 3.93974 0
M  V30 3666 H 329.756 0.655428 4.23559 0
M  V30 3667 H 333.94 1.50231 4.73016 0
M  V30 3668 H 329.196 2.69525 5.48786 0
M  V30 3669 H 333.37 3.54169 5.99614 0
M  V30 3670 H 330.997 4.14396 6.37323 0
M  V30 3671 N 332.573 -1.56217 0.208337 0
M  V30 3672 C 333.536 -2.18455 -0.693557 0
M  V30 3673 C 334.536 -1.14268 -1.13135 0
M  V30 3674 O 335.726 -1.39577 -1.0423 0
M  V30 3675 C 332.858 -2.79727 -1.94848 0
M  V30 3676 H 334.051 -2.99519 -0.15114 0
M  V30 3677 H 331.604 -1.56245 -0.041287 0
M  V30 3678 H 332.339 -2.02497 -2.53309 0
M  V30 3679 H 332.124 -3.56009 -1.64316 0
M  V30 3680 H 333.614 -3.27475 -2.59133 0
M  V30 3681 N 334.051 0.0651679 -1.57465 0
M  V30 3682 C 335.281 0.774683 -1.91526 0
M  V30 3683 C 335.689 1.71305 -0.803196 0
M  V30 3684 O 335.032 1.82231 0.231881 0
M  V30 3685 C 335.094 1.61645 -3.21109 0
M  V30 3686 C 334.758 0.846753 -4.49087 0
M  V30 3687 C 335.755 0.163024 -5.19644 0
M  V30 3688 C 333.44 0.811966 -4.95694 0
M  V30 3689 C 335.434 -0.54519 -6.35064 0
M  V30 3690 C 333.121 0.0999836 -6.11018 0
M  V30 3691 C 334.119 -0.577388 -6.80555 0
M  V30 3692 O 333.807 -1.27789 -7.93678 0
M  V30 3693 H 333.539 0.225031 -0.637446 0
M  V30 3694 H 336.093 0.0377134 -2.05365 0
M  V30 3695 H 334.323 2.39638 -3.03497 0
M  V30 3696 H 336.012 2.20525 -3.40769 0
M  V30 3697 H 336.778 0.181163 -4.84662 0
M  V30 3698 H 332.657 1.32867 -4.41438 0
M  V30 3699 H 336.201 -1.07446 -6.89276 0
M  V30 3700 H 332.098 0.0797945 -6.45451 0
M  V30 3701 H 332.866 -1.18784 -8.09835 0
M  V30 3702 N 335.529 1.53961 0.336706 0
M  V30 3703 C 336.459 1.85417 1.41925 0
M  V30 3704 C 337.44 0.709856 1.5458 0
M  V30 3705 O 338.625 0.962396 1.68676 0
M  V30 3706 C 335.755 2.06985 2.78881 0
M  V30 3707 C 334.709 3.22813 2.81026 0
M  V30 3708 C 334.035 3.29727 4.20932 0
M  V30 3709 C 335.335 4.60767 2.45949 0
M  V30 3710 H 337.029 2.76079 1.15848 0
M  V30 3711 H 334.575 1.32839 0.555859 0
M  V30 3712 H 336.528 2.27575 3.54665 0
M  V30 3713 H 335.252 1.13061 3.06406 0
M  V30 3714 H 333.911 3.0209 2.07695 0
M  V30 3715 H 333.559 2.33385 4.45579 0
M  V30 3716 H 333.259 4.07566 4.23277 0
M  V30 3717 H 334.783 3.52536 4.98549 0
M  V30 3718 H 336.197 4.81325 3.11446 0
M  V30 3719 H 334.594 5.4106 2.59566 0
M  V30 3720 H 335.664 4.6391 1.41122 0
M  V30 3721 N 337.007 -0.598083 1.45811 0
M  V30 3722 C 338.237 -1.38121 1.53643 0
M  V30 3723 C 338.645 -1.88425 0.171081 0
M  V30 3724 O 337.988 -1.63409 -0.839237 0
M  V30 3725 C 338.05 -2.61432 2.46766 0
M  V30 3726 C 337.714 -2.32702 3.93318 0
M  V30 3727 C 338.711 -1.92479 4.82957 0
M  V30 3728 C 336.396 -2.45321 4.38318 0
M  V30 3729 C 338.39 -1.65248 6.15607 0
M  V30 3730 C 336.077 -2.17703 5.71007 0
M  V30 3731 C 337.075 -1.7773 6.5947 0
M  V30 3732 O 336.763 -1.50441 7.89698 0
M  V30 3733 H 336.495 -0.428863 0.522544 0
M  V30 3734 H 339.049 -0.73557 1.91777 0
M  V30 3735 H 337.279 -3.28749 2.0362 0
M  V30 3736 H 338.968 -3.23487 2.45175 0
M  V30 3737 H 339.734 -1.82258 4.49452 0
M  V30 3738 H 335.613 -2.75399 3.69697 0
M  V30 3739 H 339.157 -1.33973 6.84614 0
M  V30 3740 H 335.054 -2.27544 6.04065 0
M  V30 3741 H 335.822 -1.64415 8.01817 0
M  V30 3742 N 338.485 -1.33259 -0.841409 0
M  V30 3743 C 339.71 -1.2775 -1.63385 0
M  V30 3744 C 340.135 0.149188 -1.87507 0
M  V30 3745 O 339.493 1.10498 -1.43736 0
M  V30 3746 C 339.541 -2.05571 -2.96265 0
M  V30 3747 O 338.645 -1.41257 -3.87453 0
M  V30 3748 H 337.986 -0.439627 -0.497618 0
M  V30 3749 H 340.516 -1.75782 -1.04699 0
M  V30 3750 H 340.526 -2.16241 -3.45982 0
M  V30 3751 H 339.201 -3.09309 -2.7803 0
M  V30 3752 H 337.778 -1.39217 -3.45938 0
M  V30 3753 N 339.963 1.05934 -1.16686 0
M  V30 3754 C 341.24 1.75643 -0.860747 0
M  V30 3755 C 341.62 2.01144 0.640641 0
M  V30 3756 O 340.968 1.64147 1.58959 0
M  V30 3757 C 341.178 3.05493 -1.68745 0
M  V30 3758 C 342.526 3.79581 -1.90271 0
M  V30 3759 O 343.55 3.15344 -1.65641 0
M  V30 3760 O 342.409 4.9499 -2.31618 0
M  V30 3761 H 339.503 0.763426 -0.317977 0
M  V30 3762 H 342.049 1.1217 -1.27342 0
M  V30 3763 H 340.821 2.8264 -2.70611 0
M  V30 3764 H 340.444 3.76702 -1.27206 0
M  V30 3765 N 341.441 0.965919 1.2453 0
M  V30 3766 C 342.371 0.513476 2.27784 0
M  V30 3767 C 343.352 -0.445974 1.6415 0
M  V30 3768 O 344.537 -0.342485 1.91156 0
M  V30 3769 C 341.667 -0.198839 3.4673 0
M  V30 3770 C 340.621 0.676456 4.2262 0
M  V30 3771 C 339.947 -0.167248 5.34438 0
M  V30 3772 C 341.247 1.96017 4.84123 0
M  V30 3773 H 342.941 1.3765 2.65881 0
M  V30 3774 H 340.487 0.663321 1.27813 0
M  V30 3775 H 342.44 -0.526567 4.18097 0
M  V30 3776 H 341.164 -1.0962 3.07654 0
M  V30 3777 H 339.823 0.98743 3.53052 0
M  V30 3778 H 339.471 -1.0647 4.91603 0
M  V30 3779 H 339.171 0.415181 5.86131 0
M  V30 3780 H 340.695 -0.489688 6.08633 0
M  V30 3781 H 342.109 1.69814 5.47573 0
M  V30 3782 H 340.506 2.48918 5.4604 0
M  V30 3783 H 341.576 2.65622 4.05676 0
M  V30 3784 N 342.919 -1.39368 0.735821 0
M  V30 3785 C 344.196 -1.94465 0.210395 0
M  V30 3786 C 344.576 -1.67254 -1.28799 0
M  V30 3787 O 343.924 -1.00123 -2.05396 0
M  V30 3788 C 344.134 -3.4472 0.544897 0
M  V30 3789 C 345.482 -4.21708 0.494689 0
M  V30 3790 O 346.506 -3.52922 0.482136 0
M  V30 3791 O 345.365 -5.44299 0.489947 0
M  V30 3792 H 342.459 -0.826096 0.0386666 0
M  V30 3793 H 345.005 -1.48863 0.814735 0
M  V30 3794 H 343.777 -3.57963 1.58045 0
M  V30 3795 H 343.4 -3.97502 -0.08837 0
M  V30 3796 N 344.397 -0.483516 -1.5 0
M  V30 3797 C 345.344 0.304164 -2.28787 0
M  V30 3798 C 346.314 0.976114 -1.34392 0
M  V30 3799 O 347.499 0.986156 -1.63339 0
M  V30 3800 C 344.639 1.37298 -3.16612 0
M  V30 3801 C 343.752 0.714561 -4.26049 0
M  V30 3802 C 342.887 1.76232 -5.01114 0
M  V30 3803 C 341.926 1.08483 -6.0241 0
M  V30 3804 N 341.063 2.076 -6.70706 0
M  V30 3805 H 345.903 -0.373981 -2.95644 0
M  V30 3806 H 343.44 -0.196275 -1.45785 0
M  V30 3807 H 345.398 2.00445 -3.65893 0
M  V30 3808 H 344.028 2.02012 -2.51776 0
M  V30 3809 H 343.08 -0.0297798 -3.80388 0
M  V30 3810 H 344.392 0.180383 -4.98474 0
M  V30 3811 H 343.546 2.46929 -5.54176 0
M  V30 3812 H 342.285 2.33033 -4.28424 0
M  V30 3813 H 341.29 0.363545 -5.48597 0
M  V30 3814 H 342.515 0.523551 -6.77079 0
M  V30 3815 H 340.461 2.63394 -6.00799 0
M  V30 3816 H 340.378 1.59201 -7.39047 0
M  V30 3817 H 341.646 2.77639 -7.2838 0
M  V30 3818 N 345.875 1.56104 -0.216619 0
M  V30 3819 C 347.123 1.97781 0.415593 0
M  V30 3820 C 347.444 1.10536 1.60645 0
M  V30 3821 O 346.714 0.181303 1.95059 0
M  V30 3822 H 345.294 0.730415 0.156534 0
M  V30 3823 H 347.956 1.92445 -0.308366 0
M  V30 3824 H 347.052 3.03072 0.74525 0
M  V30 3825 N 347.353 -0.0568162 1.57498 0
M  V30 3826 C 348.6 -0.753104 1.87975 0
M  V30 3827 C 348.928 -1.76815 0.81035 0
M  V30 3828 O 348.183 -1.94756 -0.19199 0
M  V30 3829 C 348.482 -1.48359 3.25153 0
M  V30 3830 C 348.148 -0.60713 4.46794 0
M  V30 3831 C 346.81 -0.365642 4.79809 0
M  V30 3832 C 349.162 -0.000305978 5.212 0
M  V30 3833 C 346.49 0.491905 5.84634 0
M  V30 3834 C 348.842 0.844781 6.26934 0
M  V30 3835 C 347.506 1.096 6.58441 0
M  V30 3836 H 346.776 -0.27558 0.687849 0
M  V30 3837 H 349.423 -0.0135173 1.91495 0
M  V30 3838 H 347.728 -2.29577 3.17492 0
M  V30 3839 H 349.425 -2.02739 3.45974 0
M  V30 3840 H 346.015 -0.805487 4.20963 0
M  V30 3841 H 350.199 -0.173961 4.95995 0
M  V30 3842 H 345.455 0.695131 6.07436 0
M  V30 3843 H 349.629 1.32165 6.83744 0
M  V30 3844 H 347.256 1.76224 7.39492 0
M  V30 3845 N 348.832 -1.54138 -0.328536 0
M  V30 3846 C 350.06 -1.76062 -1.08673 0
M  V30 3847 C 350.475 -0.506852 -1.81869 0
M  V30 3848 O 349.832 0.522223 -1.74869 0
M  V30 3849 C 349.883 -2.95054 -2.08866 0
M  V30 3850 O 349.604 -4.15583 -1.38644 0
M  V30 3851 C 351.105 -3.2915 -2.96943 0
M  V30 3852 H 348.325 -0.587889 -0.323461 0
M  V30 3853 H 350.869 -2.0101 -0.376175 0
M  V30 3854 H 349.024 -2.72394 -2.75464 0
M  V30 3855 H 349.438 -4.82481 -2.05699 0
M  V30 3856 H 350.912 -4.15723 -3.63151 0
M  V30 3857 H 351.389 -2.461 -3.63774 0
M  V30 3858 H 351.995 -3.53871 -2.35914 0
M  V30 3859 N 350.31 0.590341 -1.46126 0
M  V30 3860 C 351.721 1.17243 -1.45296 0
M  V30 3861 C 352.072 1.95281 -0.189723 0
M  V30 3862 O 351.197 2.04502 0.707674 0
M  V30 3863 C 351.792 2.13284 -2.6324 0
M  V30 3864 C 350.351 2.66832 -2.65476 0
M  V30 3865 C 349.498 1.42557 -2.3785 0
M  V30 3866 H 352.449 0.378692 -1.54116 0
M  V30 3867 H 352.47 2.96619 -2.38323 0
M  V30 3868 H 351.982 1.56459 -3.55165 0
M  V30 3869 H 350.083 3.27548 -1.77603 0
M  V30 3870 H 350.196 3.10088 -3.65215 0
M  V30 3871 H 348.56 1.72107 -1.87753 0
M  V30 3872 H 349.343 0.875741 -3.31942 0
M  V30 3873 N 351.788 1.33704 0.83433 0
M  V30 3874 C 353.037 1.24763 1.58484 0
M  V30 3875 C 353.35 -0.183775 1.94735 0
M  V30 3876 O 354.556 -0.395234 2.68608 0
M  V30 3877 C 353.012 2.18638 2.85876 0
M  V30 3878 C 352.62 3.66974 2.56971 0
M  V30 3879 C 354.364 2.18581 3.63899 0
M  V30 3880 C 352.271 4.5275 3.80488 0
M  V30 3881 H 351.201 0.463425 0.594772 0
M  V30 3882 H 353.852 1.58797 0.919551 0
M  V30 3883 H 352.234 1.77542 3.5397 0
M  V30 3884 H 353.408 4.16538 1.9706 0
M  V30 3885 H 351.723 3.69366 1.92244 0
M  V30 3886 H 354.32 2.79894 4.55591 0
M  V30 3887 H 354.663 1.18207 3.99165 0
M  V30 3888 H 355.196 2.58062 3.02735 0
M  V30 3889 H 351.935 5.54017 3.5035 0
M  V30 3890 H 351.455 4.07927 4.39722 0
M  V30 3891 H 353.134 4.66784 4.4802 0
M  V30 3892 N 353.266 -1.05314 1.17247 0
M  V30 3893 C 354.214 -2.15137 0.884238 0
M  V30 3894 C 355.208 -1.68729 -0.15063 0
M  V30 3895 O 356.414 -1.8 -0.00366673 0
M  V30 3896 H 352.789 -0.702471 0.2684 0
M  V30 3897 H 354.76 -2.36652 1.81764 0
M  V30 3898 C 353.509 -3.45243 0.412659 0
M  V30 3899 H 352.832 -3.81352 1.20043 0
M  V30 3900 H 354.272 -4.23263 0.249858 0
M  V30 3901 C 352.731 -3.25487 -0.86948 0
M  V30 3902 O 353.261 -3.51938 -1.93655 0
M  V30 3903 N 351.467 -2.78875 -0.817147 0
M  V30 3904 H 351.014 -2.57549 0.0514211 0
M  V30 3905 H 350.972 -2.66036 -1.67547 0
M  V30 3906 N 354.744 -0.972509 -1.24016 0
M  V30 3907 C 355.991 -0.637034 -1.92219 0
M  V30 3908 C 356.319 0.828418 -1.75976 0
M  V30 3909 O 355.574 1.61206 -1.10955 0
M  V30 3910 C 355.873 -0.963694 -3.44162 0
M  V30 3911 C 355.539 -2.41807 -3.80579 0
M  V30 3912 C 354.201 -2.81556 -3.9023 0
M  V30 3913 C 356.553 -3.36172 -3.98293 0
M  V30 3914 C 353.881 -4.14702 -4.15017 0
M  V30 3915 C 356.233 -4.68952 -4.24578 0
M  V30 3916 C 354.897 -5.08472 -4.32449 0
M  V30 3917 H 354.167 -0.233107 -0.703379 0
M  V30 3918 H 356.814 -1.2249 -1.47202 0
M  V30 3919 H 355.119 -0.29365 -3.90698 0
M  V30 3920 H 356.816 -0.682449 -3.9515 0
M  V30 3921 H 353.406 -2.09988 -3.73635 0
M  V30 3922 H 357.59 -3.06644 -3.90234 0
M  V30 3923 H 352.846 -4.4494 -4.19331 0
M  V30 3924 H 357.02 -5.42037 -4.37229 0
M  V30 3925 H 354.647 -6.11665 -4.51409 0
M  V30 3926 N 356.222 1.38976 -0.743202 0
M  V30 3927 C 357.468 2.0064 -0.295189 0
M  V30 3928 C 357.801 1.5885 1.11716 0
M  V30 3929 O 357.076 0.821181 1.76315 0
M  V30 3930 C 357.359 3.578 -0.406318 0
M  V30 3931 C 357.212 4.09586 -1.85903 0
M  V30 3932 C 358.531 4.39616 0.206439 0
M  V30 3933 H 355.65 0.728935 -0.108733 0
M  V30 3934 H 358.292 1.65067 -0.940897 0
M  V30 3935 H 356.442 3.88235 0.143419 0
M  V30 3936 H 358.114 3.89837 -2.46627 0
M  V30 3937 H 356.357 3.6284 -2.3776 0
M  V30 3938 H 357.028 5.18708 -1.888 0
M  V30 3939 H 359.504 4.15273 -0.262283 0
M  V30 3940 H 358.38 5.48812 0.0983819 0
M  V30 3941 H 358.641 4.22754 1.2935 0
M  V30 3942 N 357.7 0.491464 1.49741 0
M  V30 3943 C 358.947 -0.0564256 2.02421 0
M  V30 3944 C 359.275 -1.37872 1.37192 0
M  V30 3945 O 358.53 -1.89375 0.493508 0
M  V30 3946 C 358.829 -0.267329 3.56399 0
M  V30 3947 C 358.495 0.975775 4.40215 0
M  V30 3948 C 357.157 1.31655 4.62839 0
M  V30 3949 C 359.509 1.80251 4.89039 0
M  V30 3950 C 356.837 2.48375 5.31532 0
M  V30 3951 C 359.189 2.96116 5.59015 0
M  V30 3952 C 357.853 3.30585 5.79888 0
M  V30 3953 H 357.123 -0.0206476 0.740712 0
M  V30 3954 H 359.77 0.649686 1.80143 0
M  V30 3955 H 358.075 -1.05588 3.77304 0
M  V30 3956 H 359.772 -0.705549 3.94744 0
M  V30 3957 H 356.362 0.700315 4.2284 0
M  V30 3958 H 360.546 1.55239 4.71396 0
M  V30 3959 H 355.802 2.7533 5.45897 0
M  V30 3960 H 359.976 3.60509 5.95824 0
M  V30 3961 H 357.603 4.21132 6.32892 0
M  V30 3962 N 359.178 -1.55987 0.224894 0
M  V30 3963 C 360.589 -1.84553 -0.282345 0
M  V30 3964 C 360.94 -1.14634 -1.59227 0
M  V30 3965 O 360.065 -0.417155 -2.12341 0
M  V30 3966 C 360.66 -3.348 -0.519062 0
M  V30 3967 C 359.219 -3.63671 -0.970604 0
M  V30 3968 C 358.366 -2.77277 -0.0355261 0
M  V30 3969 H 361.317 -1.52245 0.448006 0
M  V30 3970 H 361.338 -3.55187 -1.36463 0
M  V30 3971 H 360.85 -3.8566 0.43449 0
M  V30 3972 H 358.951 -3.1827 -1.9374 0
M  V30 3973 H 359.064 -4.71631 -0.842698 0
M  V30 3974 H 357.428 -2.48846 -0.542927 0
M  V30 3975 H 358.211 -3.30937 0.913003 0
M  V30 3976 N 360.656 0.0484629 -1.57525 0
M  V30 3977 C 361.604 1.07359 -2.06341 0
M  V30 3978 C 362.598 1.3865 -0.973269 0
M  V30 3979 O 363.804 1.37783 -1.15827 0
M  V30 3980 H 360.179 0.363662 -0.65822 0
M  V30 3981 H 362.15 0.635916 -2.91545 0
M  V30 3982 C 360.899 2.37198 -2.54229 0
M  V30 3983 H 360.222 2.13977 -3.37719 0
M  V30 3984 H 361.662 3.07319 -2.92115 0
M  V30 3985 C 360.121 3.04805 -1.43511 0
M  V30 3986 O 360.651 3.93848 -0.79034 0
M  V30 3987 N 358.857 2.65811 -1.17444 0
M  V30 3988 H 358.404 1.93488 -1.70059 0
M  V30 3989 H 358.362 3.11366 -0.435737 0
M  V30 3990 N 362.134 1.5431 0.320358 0
M  V30 3991 C 363.064 1.86912 1.3995 0
M  V30 3992 C 364.045 0.726211 1.53819 0
M  V30 3993 O 365.23 0.980233 1.67646 0
M  V30 3994 C 362.36 2.09932 2.7667 0
M  V30 3995 C 361.314 3.25776 2.77586 0
M  V30 3996 C 360.64 3.34173 4.17412 0
M  V30 3997 C 361.94 4.6335 2.41048 0
M  V30 3998 H 363.634 2.77292 1.12914 0
M  V30 3999 H 361.18 1.33421 0.541738 0
M  V30 4000 H 363.133 2.31324 3.52232 0
M  V30 4001 H 361.857 1.16304 3.0519 0
M  V30 4002 H 360.516 3.04276 2.04479 0
M  V30 4003 H 360.164 2.38098 4.43078 0
M  V30 4004 H 359.864 4.12033 4.18931 0
M  V30 4005 H 361.388 3.57803 4.94782 0
M  V30 4006 H 362.802 4.84602 3.06324 0
M  V30 4007 H 361.199 5.43782 2.53813 0
M  V30 4008 H 362.269 4.65381 1.36193 0
M  V30 4009 N 363.613 -0.582584 1.46437 0
M  V30 4010 C 365.024 -1.1647 1.45916 0
M  V30 4011 C 365.375 -1.95177 0.200077 0
M  V30 4012 O 364.5 -2.04874 -0.696819 0
M  V30 4013 C 365.095 -2.11885 2.64367 0
M  V30 4014 C 363.654 -2.65421 2.66887 0
M  V30 4015 C 362.801 -1.41294 2.38603 0
M  V30 4016 H 365.752 -0.370514 1.54314 0
M  V30 4017 H 365.773 -2.9535 2.39892 0
M  V30 4018 H 365.285 -1.54573 3.5599 0
M  V30 4019 H 363.386 -3.26602 1.79338 0
M  V30 4020 H 363.499 -3.08147 3.66854 0
M  V30 4021 H 361.863 -1.71109 1.88663 0
M  V30 4022 H 362.646 -0.858125 3.32402 0
M  V30 4023 N 365.091 -1.34144 -0.827227 0
M  V30 4024 C 366.021 -1.28005 -1.95287 0
M  V30 4025 C 367.002 -0.158321 -1.69362 0
M  V30 4026 O 368.187 -0.349987 -1.9102 0
M  V30 4027 C 365.317 -1.03036 -3.31664 0
M  V30 4028 C 364.271 -2.11628 -3.72019 0
M  V30 4029 C 363.597 -1.71854 -5.0633 0
M  V30 4030 C 364.897 -3.53417 -3.8457 0
M  V30 4031 H 366.591 -2.22187 -2.00682 0
M  V30 4032 H 364.137 -1.0696 -0.964135 0
M  V30 4033 H 366.09 -0.973863 -4.09993 0
M  V30 4034 H 364.814 -0.0529391 -3.26557 0
M  V30 4035 H 363.473 -2.16339 -2.95961 0
M  V30 4036 H 363.121 -0.727841 -4.97706 0
M  V30 4037 H 362.821 -2.44531 -5.34302 0
M  V30 4038 H 364.345 -1.67692 -5.87122 0
M  V30 4039 H 365.759 -3.51142 -4.5318 0
M  V30 4040 H 364.156 -4.24679 -4.2399 0
M  V30 4041 H 365.226 -3.91072 -2.86689 0
M  V30 4042 N 366.569 1.04691 -1.17803 0
M  V30 4043 C 367.479 2.16057 -0.914151 0
M  V30 4044 C 368.495 1.73589 0.119503 0
M  V30 4045 O 369.671 2.01308 -0.0609468 0
M  V30 4046 C 366.736 3.4394 -0.436603 0
M  V30 4047 C 365.797 4.00825 -1.53746 0
M  V30 4048 C 365.03 5.22604 -1.0826 0
M  V30 4049 O 365.253 5.70367 0.0612244 0
M  V30 4050 O 364.187 5.7186 -1.87775 0
M  V30 4051 H 368.013 2.41169 -1.84584 0
M  V30 4052 H 365.598 1.1453 -0.959334 0
M  V30 4053 H 367.48 4.21024 -0.178057 0
M  V30 4054 H 366.155 3.20316 0.466869 0
M  V30 4055 H 365.062 3.25158 -1.84995 0
M  V30 4056 H 366.395 4.28778 -2.41683 0
M  V30 4057 N 368.047 0.979072 1.23499 0
M  V30 4058 C 368.997 0.489378 2.22686 0
M  V30 4059 C 369.981 -0.434871 1.54912 0
M  V30 4060 O 371.173 -0.263941 1.75021 0
M  V30 4061 C 368.302 -0.208178 3.42668 0
M  V30 4062 C 367.388 0.735563 4.17672 0
M  V30 4063 N 367.779 1.87763 4.69658 0
M  V30 4064 C 366.077 0.548625 4.42613 0
M  V30 4065 C 366.778 2.46886 5.26709 0
M  V30 4066 N 365.754 1.75287 5.14563 0
M  V30 4067 H 369.556 1.36062 2.60508 0
M  V30 4068 H 367.07 0.83958 1.39014 0
M  V30 4069 H 369.067 -0.576295 4.12898 0
M  V30 4070 H 367.727 -1.07572 3.06363 0
M  V30 4071 H 368.738 2.25885 4.66043 0
M  V30 4072 H 365.415 -0.274006 4.166 0
M  V30 4073 H 366.805 3.43326 5.77561 0
M  V30 4074 N 369.525 -1.3858 0.750561 0
M  V30 4075 C 370.755 -2.04175 0.31564 0
M  V30 4076 C 371.163 -1.56726 -1.05989 0
M  V30 4077 O 370.506 -0.734225 -1.68389 0
M  V30 4078 C 370.568 -3.58585 0.256389 0
M  V30 4079 C 370.232 -4.29077 1.57296 0
M  V30 4080 C 371.229 -4.54656 2.52159 0
M  V30 4081 C 368.914 -4.67324 1.84156 0
M  V30 4082 C 370.908 -5.17512 3.72103 0
M  V30 4083 C 368.595 -5.29905 3.04374 0
M  V30 4084 C 369.593 -5.54933 3.98168 0
M  V30 4085 O 369.281 -6.16212 5.16273 0
M  V30 4086 H 369.013 -0.662742 0.133226 0
M  V30 4087 H 371.567 -1.78313 1.01948 0
M  V30 4088 H 369.797 -3.83406 -0.503677 0
M  V30 4089 H 371.486 -4.05628 -0.148612 0
M  V30 4090 H 372.252 -4.25539 2.32683 0
M  V30 4091 H 368.131 -4.47191 1.11988 0
M  V30 4092 H 371.675 -5.36963 4.45327 0
M  V30 4093 H 367.572 -5.58444 3.23745 0
M  V30 4094 H 368.34 -6.34701 5.16815 0
M  V30 4095 N 371.003 -0.499398 -1.49478 0
M  V30 4096 C 372.419 -0.155261 -1.58843 0
M  V30 4097 C 372.619 1.34008 -1.50479 0
M  V30 4098 O 371.675 2.11589 -1.37791 0
M  V30 4099 C 372.988 -0.730636 -2.91689 0
M  V30 4100 C 374.536 -0.696599 -3.0515 0
M  V30 4101 C 375.011 -1.25001 -4.40612 0
M  V30 4102 N 376.502 -1.21064 -4.47099 0
M  V30 4103 C 377.237 -1.60905 -5.50361 0
M  V30 4104 N 376.733 -2.08331 -6.60735 0
M  V30 4105 N 378.526 -1.52331 -5.41065 0
M  V30 4106 H 370.677 -1.47162 -1.53158 0
M  V30 4107 H 372.94 -0.610309 -0.725415 0
M  V30 4108 H 372.646 -1.77928 -3.03372 0
M  V30 4109 H 372.52 -0.190161 -3.7672 0
M  V30 4110 H 374.907 0.343204 -2.93097 0
M  V30 4111 H 374.988 -1.2742 -2.21806 0
M  V30 4112 H 374.632 -2.28859 -4.53416 0
M  V30 4113 H 374.562 -0.64836 -5.22593 0
M  V30 4114 H 377.053 -0.863128 -3.67911 0
M  V30 4115 H 377.366 -2.36805 -7.35624 0
M  V30 4116 H 375.711 -2.12304 -6.6178 0
M  V30 4117 H 378.902 -1.151 -4.53729 0
M  V30 4118 H 379.075 -1.83704 -6.21415 0
M  V30 4119 N 372.481 1.55866 -0.233164 0
M  V30 4120 C 373.428 2.20796 0.67215 0
M  V30 4121 C 374.398 1.16731 1.18166 0
M  V30 4122 O 375.583 1.45129 1.23864 0
M  V30 4123 C 372.723 2.90072 1.86955 0
M  V30 4124 C 371.836 4.08759 1.39786 0
M  V30 4125 C 370.971 4.65787 2.55374 0
M  V30 4126 C 370.01 5.76752 2.04998 0
M  V30 4127 N 369.147 6.28021 3.13901 0
M  V30 4128 H 373.987 2.9779 0.111749 0
M  V30 4129 H 371.524 1.47036 0.0434007 0
M  V30 4130 H 373.482 3.28428 2.57276 0
M  V30 4131 H 372.112 2.15575 2.40265 0
M  V30 4132 H 371.164 3.7581 0.589173 0
M  V30 4133 H 372.476 4.88906 0.98856 0
M  V30 4134 H 371.63 5.06646 3.33758 0
M  V30 4135 H 370.369 3.84828 2.99598 0
M  V30 4136 H 369.374 5.35383 1.25079 0
M  V30 4137 H 370.599 6.59553 1.61759 0
M  V30 4138 H 368.545 5.49971 3.57586 0
M  V30 4139 H 368.462 7.03323 2.7726 0
M  V30 4140 H 369.73 6.73538 3.92386 0
M  V30 4141 N 373.959 -0.0401083 1.57549 0
M  V30 4142 C 375.375 -0.395556 1.54621 0
M  V30 4143 C 375.575 -1.77281 0.957799 0
M  V30 4144 O 374.631 -2.45888 0.574031 0
M  V30 4145 C 375.944 -0.307535 2.99123 0
M  V30 4146 C 377.492 -0.385425 3.10618 0
M  V30 4147 C 377.967 -0.326973 4.56831 0
M  V30 4148 N 379.458 -0.386102 4.61588 0
M  V30 4149 C 380.193 -0.363591 5.72246 0
M  V30 4150 N 379.689 -0.29402 6.92176 0
M  V30 4151 N 381.482 -0.412503 5.60584 0
M  V30 4152 H 373.633 0.861325 1.94152 0
M  V30 4153 H 375.896 0.326445 0.890021 0
M  V30 4154 H 375.602 0.638461 3.45856 0
M  V30 4155 H 375.476 -1.10552 3.60636 0
M  V30 4156 H 377.863 -1.32185 2.63839 0
M  V30 4157 H 377.944 0.44171 2.51957 0
M  V30 4158 H 377.588 0.605738 5.04275 0
M  V30 4159 H 377.518 -1.17207 5.13391 0
M  V30 4160 H 380.009 -0.442832 3.75296 0
M  V30 4161 H 380.322 -0.28164 7.72287 0
M  V30 4162 H 378.667 -0.260232 6.94513 0
M  V30 4163 H 381.858 -0.464769 4.65787 0
M  V30 4164 H 382.031 -0.391492 6.46816 0
M  V30 4165 N 375.437 -1.54477 -0.31217 0
M  V30 4166 C 376.714 -1.63891 -1.06767 0
M  V30 4167 C 377.094 -0.480028 -2.0557 0
M  V30 4168 O 376.442 0.524487 -2.22399 0
M  V30 4169 C 376.652 -3.01402 -1.75948 0
M  V30 4170 C 378 -3.57838 -2.28554 0
M  V30 4171 O 379.024 -3.03782 -1.85998 0
M  V30 4172 O 377.883 -4.52462 -3.06497 0
M  V30 4173 H 374.977 -0.664125 -0.492816 0
M  V30 4174 H 377.523 -1.66823 -0.311149 0
M  V30 4175 H 376.295 -3.77187 -1.04144 0
M  V30 4176 H 375.918 -3.02199 -2.58383 0
M  V30 4177 N 376.915 0.57481 -1.46744 0
M  V30 4178 C 377.865 1.67838 -1.54319 0
M  V30 4179 C 378.849 1.55759 -0.40346 0
M  V30 4180 O 380.041 1.6454 -0.652347 0
M  V30 4181 C 377.17 3.06624 -1.5439 0
M  V30 4182 C 376.256 3.23971 -2.73685 0
M  V30 4183 N 376.647 3.11447 -3.9854 0
M  V30 4184 C 374.945 3.5493 -2.70075 0
M  V30 4185 C 375.646 3.31011 -4.78337 0
M  V30 4186 N 374.622 3.56533 -4.10348 0
M  V30 4187 H 378.424 1.56698 -2.48642 0
M  V30 4188 H 375.938 0.779071 -1.42493 0
M  V30 4189 H 377.935 3.85839 -1.57905 0
M  V30 4190 H 376.595 3.1889 -0.611493 0
M  V30 4191 H 377.606 2.89145 -4.29669 0
M  V30 4192 H 374.283 3.73832 -1.85893 0
M  V30 4193 H 375.673 3.26445 -5.87268 0
M  V30 4194 N 378.394 1.34581 0.820102 0
M  V30 4195 C 379.357 1.2628 1.91275 0
M  V30 4196 C 380.357 0.177344 1.59819 0
M  V30 4197 O 381.547 0.430156 1.68806 0
M  V30 4198 C 378.679 0.950327 3.27386 0
M  V30 4199 H 379.872 2.23421 2.00057 0
M  V30 4200 H 377.425 1.1891 1.0144 0
M  V30 4201 H 378.16 -0.0177938 3.24295 0
M  V30 4202 H 377.945 1.73549 3.51601 0
M  V30 4203 H 379.435 0.917492 4.07396 0
M  V30 4204 N 379.872 -1.04064 1.18357 0
M  V30 4205 C 380.804 -2.12114 0.868358 0
M  V30 4206 C 381.817 -1.62247 -0.134045 0
M  V30 4207 O 383.006 -1.78253 0.0937933 0
M  V30 4208 C 380.106 -3.37773 0.276132 0
M  V30 4209 C 379.279 -4.16874 1.3242 0
M  V30 4210 C 378.338 -5.20861 0.747662 0
M  V30 4211 O 377.364 -5.51141 1.42239 0
M  V30 4212 N 378.566 -5.78715 -0.454823 0
M  V30 4213 H 381.331 -2.39748 1.79836 0
M  V30 4214 H 378.892 -1.20258 1.08396 0
M  V30 4215 H 380.884 -4.04513 -0.123133 0
M  V30 4216 H 379.454 -3.07581 -0.557895 0
M  V30 4217 H 378.674 -3.45456 1.89878 0
M  V30 4218 H 379.962 -4.66516 2.03078 0
M  V30 4219 H 379.36 -5.56415 -1.02073 0
M  V30 4220 H 377.917 -6.46921 -0.79601 0
M  V30 4221 N 381.35 -0.985608 -1.22978 0
M  V30 4222 C 382.297 -0.529825 -2.24636 0
M  V30 4223 C 383.267 0.434028 -1.60329 0
M  V30 4224 O 384.452 0.340414 -1.87739 0
M  V30 4225 C 381.592 0.156533 -3.44745 0
M  V30 4226 C 380.705 -0.848197 -4.23591 0
M  V30 4227 C 379.84 -0.136109 -5.31026 0
M  V30 4228 C 378.879 -1.1297 -6.01585 0
M  V30 4229 N 378.016 -0.446415 -7.00679 0
M  V30 4230 H 382.856 -1.40148 -2.62988 0
M  V30 4231 H 380.393 -0.702168 -1.29259 0
M  V30 4232 H 382.351 0.571324 -4.1327 0
M  V30 4233 H 380.981 0.992025 -3.07179 0
M  V30 4234 H 380.033 -1.38135 -3.54433 0
M  V30 4235 H 381.345 -1.60512 -4.72268 0
M  V30 4236 H 380.499 0.335784 -6.0577 0
M  V30 4237 H 379.238 0.653373 -4.83304 0
M  V30 4238 H 378.243 -1.6123 -5.25628 0
M  V30 4239 H 379.468 -1.91993 -6.51395 0
M  V30 4240 H 377.414 0.323763 -6.55201 0
M  V30 4241 H 377.331 -1.1419 -7.47326 0
M  V30 4242 H 378.599 0.00291697 -7.795 0
M  V30 4243 N 382.828 1.3818 -0.7579 0
M  V30 4244 C 383.791 2.28764 -0.141286 0
M  V30 4245 C 384.791 1.47388 0.642907 0
M  V30 4246 O 385.981 1.67781 0.468536 0
M  V30 4247 C 383.113 3.31184 0.808069 0
M  V30 4248 H 384.306 2.848 -0.939633 0
M  V30 4249 H 381.859 1.47212 -0.525191 0
M  V30 4250 H 382.594 2.80247 1.63193 0
M  V30 4251 H 382.379 3.91314 0.248104 0
M  V30 4252 H 383.869 3.98909 1.23536 0
M  V30 4253 N 384.306 0.507319 1.49211 0
M  V30 4254 C 385.555 -0.0368315 2.01666 0
M  V30 4255 C 385.868 -1.37459 1.39156 0
M  V30 4256 O 387.074 -2.00579 1.82976 0
M  V30 4257 C 385.53 -0.116089 3.59713 0
M  V30 4258 C 385.138 1.2154 4.31198 0
M  V30 4259 C 386.882 -0.610268 4.2009 0
M  V30 4260 C 384.789 1.09796 5.81119 0
M  V30 4261 H 383.719 -0.0175376 0.753796 0
M  V30 4262 H 386.37 0.647691 1.71689 0
M  V30 4263 H 384.752 -0.8652 3.86433 0
M  V30 4264 H 385.926 1.9783 4.16173 0
M  V30 4265 H 384.241 1.64352 3.82593 0
M  V30 4266 H 386.838 -0.715742 5.29888 0
M  V30 4267 H 387.181 -1.61064 3.8388 0
M  V30 4268 H 387.714 0.0824916 3.97714 0
M  V30 4269 H 384.453 2.0728 6.21864 0
M  V30 4270 H 383.973 0.376058 5.9862 0
M  V30 4271 H 385.652 0.779281 6.4229 0
M  V30 4272 N 385.784 -1.5574 0.241426 0
M  V30 4273 C 387.009 -2.0366 -0.392111 0
M  V30 4274 C 387.434 -1.11969 -1.51144 0
M  V30 4275 O 386.792 -0.111594 -1.80956 0
M  V30 4276 C 386.84 -3.49638 -0.882371 0
M  V30 4277 O 385.944 -3.6108 -1.99235 0
M  V30 4278 H 385.285 -0.658379 -0.0862122 0
M  V30 4279 H 387.815 -2.01302 0.365881 0
M  V30 4280 H 387.825 -3.90351 -1.18702 0
M  V30 4281 H 386.5 -4.15852 -0.0632361 0
M  V30 4282 H 385.077 -3.32262 -1.69282 0
M  V30 4283 N 387.262 0.0317525 -1.57568 0
M  V30 4284 C 388.51 0.721676 -1.88776 0
M  V30 4285 C 388.831 1.76039 -0.838772 0
M  V30 4286 O 388.101 1.95482 0.127935 0
M  V30 4287 H 386.681 0.269534 -0.696678 0
M  V30 4288 H 389.343 -0.00165879 -1.949 0
M  V30 4289 H 388.439 1.21293 -2.87566 0
M  V30 4290 N 388.74 1.54641 0.303973 0
M  V30 4291 C 389.968 1.77768 1.05858 0
M  V30 4292 C 390.383 0.535722 1.8104 0
M  V30 4293 O 389.74 -0.494337 1.75677 0
M  V30 4294 C 389.791 2.9834 2.04146 0
M  V30 4295 O 389.512 4.17736 1.32015 0
M  V30 4296 C 391.013 3.33832 2.91669 0
M  V30 4297 H 388.233 0.592961 0.314067 0
M  V30 4298 H 390.777 2.01583 0.344149 0
M  V30 4299 H 388.932 2.76742 2.71096 0
M  V30 4300 H 389.346 4.85693 1.97998 0
M  V30 4301 H 390.82 4.21448 3.56491 0
M  V30 4302 H 391.297 2.51857 3.59812 0
M  V30 4303 H 391.903 3.57579 2.30254 0
M  V30 4304 N 390.218 -0.567019 1.47046 0
M  V30 4305 C 391.448 -1.34831 1.56538 0
M  V30 4306 C 391.856 -1.8802 0.21101 0
M  V30 4307 O 391.199 -1.65152 -0.804387 0
M  V30 4308 C 391.261 -2.56139 2.52256 0
M  V30 4309 C 390.925 -2.24307 3.98165 0
M  V30 4310 C 391.922 -1.82192 4.86931 0
M  V30 4311 C 389.607 -2.35968 4.43423 0
M  V30 4312 C 391.601 -1.52153 6.18973 0
M  V30 4313 C 389.288 -2.05542 5.75496 0
M  V30 4314 C 390.286 -1.63701 6.63092 0
M  V30 4315 O 389.974 -1.33657 7.92711 0
M  V30 4316 H 389.706 -0.417683 0.531523 0
M  V30 4317 H 392.26 -0.694726 1.93294 0
M  V30 4318 H 390.49 -3.24356 2.10548 0
M  V30 4319 H 392.179 -3.18214 2.51982 0
M  V30 4320 H 392.945 -1.72684 4.53217 0
M  V30 4321 H 388.824 -2.67495 3.75456 0
M  V30 4322 H 392.368 -1.19421 6.87302 0
M  V30 4323 H 388.265 -2.14679 6.08755 0
M  V30 4324 H 389.033 -1.4737 8.05124 0
M  V30 4325 N 391.696 -1.35014 -0.812953 0
M  V30 4326 C 392.629 -1.21761 -1.93001 0
M  V30 4327 C 393.607 -0.10694 -1.62248 0
M  V30 4328 O 394.791 -0.273891 -1.865 0
M  V30 4329 C 391.918 -0.873404 -3.27245 0
M  V30 4330 C 390.964 -1.99523 -3.76952 0
M  V30 4331 S 391.797 -3.61009 -3.95516 0
M  V30 4332 C 392.953 -3.28651 -5.32672 0
M  V30 4333 H 393.186 -2.16315 -2.03948 0
M  V30 4334 H 390.719 -1.20156 -0.969631 0
M  V30 4335 H 392.677 -0.68161 -4.04802 0
M  V30 4336 H 391.338 0.053971 -3.14054 0
M  V30 4337 H 390.531 -1.70838 -4.74163 0
M  V30 4338 H 390.133 -2.14503 -3.06373 0
M  V30 4339 H 392.425 -2.81085 -6.1644 0
M  V30 4340 H 393.368 -4.25039 -5.66346 0
M  V30 4341 H 393.776 -2.6458 -4.98656 0
M  V30 4342 N 393.175 1.03435 -1.18907 0
M  V30 4343 C 394.4 1.80919 -1.01406 0
M  V30 4344 C 394.825 1.83055 0.432721 0
M  V30 4345 O 394.183 1.25252 1.31079 0
M  V30 4346 C 394.231 3.24091 -1.58105 0
M  V30 4347 O 393.335 4.04434 -0.806669 0
M  V30 4348 H 392.676 0.558709 -0.358803 0
M  V30 4349 H 395.206 1.30223 -1.57807 0
M  V30 4350 H 395.216 3.74853 -1.61087 0
M  V30 4351 H 393.891 3.21851 -2.6341 0
M  V30 4352 H 392.468 3.63091 -0.849666 0
M  V30 4353 N 394.653 0.992116 1.22453 0
M  V30 4354 C 395.583 0.561677 2.26644 0
M  V30 4355 C 396.564 -0.411055 1.65059 0
M  V30 4356 O 397.749 -0.301861 1.9184 0
M  V30 4357 C 394.879 -0.125247 3.47074 0
M  V30 4358 C 393.833 0.765948 4.21091 0
M  V30 4359 C 393.159 -0.0538484 5.34673 0
M  V30 4360 C 394.459 2.06242 4.79856 0
M  V30 4361 H 396.153 1.43259 2.62902 0
M  V30 4362 H 393.699 0.690283 1.26377 0
M  V30 4363 H 395.652 -0.437764 4.1912 0
M  V30 4364 H 394.376 -1.03069 3.0991 0
M  V30 4365 H 393.035 1.0621 3.50878 0
M  V30 4366 H 392.683 -0.960188 4.9375 0
M  V30 4367 H 392.383 0.539415 5.85119 0
M  V30 4368 H 393.907 -0.360477 6.09535 0
M  V30 4369 H 395.321 1.8139 5.43848 0
M  V30 4370 H 393.718 2.60444 5.40638 0
M  V30 4371 H 394.788 2.74167 3.99951 0
M  V30 4372 N 396.131 -1.37776 0.765217 0
M  V30 4373 C 397.38 -1.99092 0.323307 0
M  V30 4374 C 397.693 -1.61434 -1.10446 0
M  V30 4375 O 398.899 -2.15805 -1.64743 0
M  V30 4376 C 397.355 -3.56019 0.527098 0
M  V30 4377 C 396.963 -4.0262 1.96471 0
M  V30 4378 C 398.707 -4.2424 0.148483 0
M  V30 4379 C 396.614 -5.52233 2.11644 0
M  V30 4380 H 395.544 -0.744846 0.117137 0
M  V30 4381 H 398.195 -1.57391 0.943417 0
M  V30 4382 H 396.577 -3.95667 -0.162372 0
M  V30 4383 H 397.751 -3.74234 2.68859 0
M  V30 4384 H 396.066 -3.47161 2.29931 0
M  V30 4385 H 398.663 -5.34159 0.240456 0
M  V30 4386 H 399.006 -4.06446 -0.900422 0
M  V30 4387 H 399.539 -3.89872 0.79025 0
M  V30 4388 H 396.278 -5.74945 3.1483 0
M  V30 4389 H 395.798 -5.82324 1.4373 0
M  V30 4390 H 397.477 -6.18106 1.91193 0
M  V30 4391 N 397.609 -0.515225 -1.4894 0
M  V30 4392 C 398.556 0.255567 -2.29381 0
M  V30 4393 C 399.526 0.947387 -1.36432 0
M  V30 4394 O 400.711 0.951288 -1.65394 0
M  V30 4395 C 397.851 1.30551 -3.19453 0
M  V30 4396 C 396.964 0.624029 -4.27469 0
M  V30 4397 C 396.099 1.65563 -5.0474 0
M  V30 4398 C 395.138 0.956802 -6.04576 0
M  V30 4399 N 394.275 1.93326 -6.74959 0
M  V30 4400 H 399.115 -0.436607 -2.94784 0
M  V30 4401 H 396.652 -0.227154 -1.45336 0
M  V30 4402 H 398.61 1.92639 -3.70062 0
M  V30 4403 H 397.24 1.96626 -2.56004 0
M  V30 4404 H 396.292 -0.110459 -3.8024 0
M  V30 4405 H 397.604 0.0746092 -4.98744 0
M  V30 4406 H 396.758 2.35119 -5.59289 0
M  V30 4407 H 395.497 2.23893 -4.3327 0
M  V30 4408 H 394.502 0.247097 -5.49244 0
M  V30 4409 H 395.727 0.379814 -6.78037 0
M  V30 4410 H 393.673 2.50591 -6.06251 0
M  V30 4411 H 393.59 1.43489 -7.42258 0
M  V30 4412 H 394.858 2.62126 -7.34105 0
M  V30 4413 N 399.087 1.5561 -0.249682 0
M  V30 4414 C 399.997 2.25143 0.659375 0
M  V30 4415 C 401.013 1.2685 1.19101 0
M  V30 4416 O 402.189 1.59732 1.22669 0
M  V30 4417 C 399.254 2.93945 1.8384 0
M  V30 4418 C 398.315 4.07655 1.34596 0
M  V30 4419 C 397.548 4.73167 2.46878 0
M  V30 4420 O 397.771 4.37768 3.65671 0
M  V30 4421 O 396.705 5.61623 2.16478 0
M  V30 4422 H 400.531 3.03545 0.0968698 0
M  V30 4423 H 398.116 1.49389 -0.018074 0
M  V30 4424 H 399.998 3.37271 2.52638 0
M  V30 4425 H 398.673 2.18481 2.38847 0
M  V30 4426 H 397.58 3.68839 0.625174 0
M  V30 4427 H 398.913 4.84946 0.841941 0
M  V30 4428 N 400.565 -0.0233959 1.57583 0
M  V30 4429 C 401.981 -0.379134 1.55031 0
M  V30 4430 C 402.181 -1.76255 0.976548 0
M  V30 4431 O 401.237 -2.45266 0.600078 0
M  V30 4432 C 402.55 -0.275792 2.99433 0
M  V30 4433 C 404.098 -0.352458 3.11009 0
M  V30 4434 C 404.573 -0.278501 4.57152 0
M  V30 4435 N 406.064 -0.337123 4.61972 0
M  V30 4436 C 406.799 -0.302876 5.726 0
M  V30 4437 N 406.295 -0.220589 6.92449 0
M  V30 4438 N 408.088 -0.353023 5.6099 0
M  V30 4439 H 400.239 0.881869 1.93227 0
M  V30 4440 H 402.502 0.335867 0.886509 0
M  V30 4441 H 402.208 0.675108 3.4516 0
M  V30 4442 H 402.082 -1.06721 3.61788 0
M  V30 4443 H 404.469 -1.29379 2.65226 0
M  V30 4444 H 404.55 0.468409 2.51475 0
M  V30 4445 H 404.194 0.659189 5.03604 0
M  V30 4446 H 404.124 -1.11755 5.14605 0
M  V30 4447 H 406.615 -0.403002 3.75745 0
M  V30 4448 H 406.928 -0.199713 7.72542 0
M  V30 4449 H 405.273 -0.186555 6.9475 0
M  V30 4450 H 408.464 -0.415339 4.66254 0
M  V30 4451 H 408.637 -0.322866 6.47195 0
M  V30 4452 N 402.043 -1.548 -0.295768 0
M  V30 4453 C 403.459 -1.4613 -0.641722 0
M  V30 4454 C 403.659 -0.656771 -1.90496 0
M  V30 4455 O 402.715 -0.166547 -2.5195 0
M  V30 4456 C 404.028 -2.90141 -0.789852 0
M  V30 4457 C 405.576 -3.00216 -0.885396 0
M  V30 4458 C 406.051 -4.45434 -1.06548 0
M  V30 4459 N 407.542 -4.49166 -1.13156 0
M  V30 4460 C 408.277 -5.58717 -1.28929 0
M  V30 4461 N 407.773 -6.78182 -1.41567 0
M  V30 4462 N 409.566 -5.46415 -1.31859 0
M  V30 4463 H 401.717 -2.05574 0.534147 0
M  V30 4464 H 403.98 -0.931259 0.177372 0
M  V30 4465 H 403.686 -3.51635 0.0675598 0
M  V30 4466 H 403.56 -3.37859 -1.67724 0
M  V30 4467 H 405.947 -2.38833 -1.73329 0
M  V30 4468 H 406.028 -2.55787 0.0261185 0
M  V30 4469 H 405.672 -5.07413 -0.222335 0
M  V30 4470 H 405.602 -4.87499 -1.9913 0
M  V30 4471 H 408.093 -3.631 -1.04721 0
M  V30 4472 H 408.406 -7.57428 -1.53372 0
M  V30 4473 H 406.751 -6.81037 -1.38613 0
M  V30 4474 H 409.942 -4.5203 -1.21601 0
M  V30 4475 H 410.115 -6.31841 -1.43808 0
M  V30 4476 N 403.521 0.559213 -1.47345 0
M  V30 4477 C 404.468 1.66645 -1.59682 0
M  V30 4478 C 405.438 1.60168 -0.43994 0
M  V30 4479 O 406.623 1.79031 -0.659736 0
M  V30 4480 C 403.763 3.04969 -1.61518 0
M  V30 4481 C 402.876 3.21897 -2.88108 0
M  V30 4482 C 402.011 4.50608 -2.81294 0
M  V30 4483 C 401.05 4.60961 -4.02717 0
M  V30 4484 N 400.187 5.81024 -3.94151 0
M  V30 4485 H 405.027 1.55439 -2.54249 0
M  V30 4486 H 402.564 0.757219 -1.26113 0
M  V30 4487 H 404.522 3.85064 -1.60566 0
M  V30 4488 H 403.152 3.15015 -0.704645 0
M  V30 4489 H 402.204 2.35248 -2.98936 0
M  V30 4490 H 403.516 3.25412 -3.78032 0
M  V30 4491 H 402.67 5.3896 -2.7858 0
M  V30 4492 H 401.409 4.49568 -1.89049 0
M  V30 4493 H 400.414 3.71021 -4.05738 0
M  V30 4494 H 401.639 4.63761 -4.96087 0
M  V30 4495 H 399.585 5.80938 -3.04708 0
M  V30 4496 H 399.502 5.85909 -4.77752 0
M  V30 4497 H 400.77 6.71744 -3.9545 0
M  V30 4498 N 404.999 1.35443 0.805782 0
M  V30 4499 C 405.947 1.28465 1.93906 0
M  V30 4500 C 406.941 0.17943 1.68447 0
M  V30 4501 O 408.147 0.345459 1.76654 0
M  V30 4502 H 404.522 0.399528 0.637088 0
M  V30 4503 H 406.493 2.24206 1.96912 0
M  V30 4504 C 405.242 1.07432 3.30687 0
M  V30 4505 H 404.565 1.91716 3.50835 0
M  V30 4506 H 406.005 1.06591 4.10383 0
M  V30 4507 C 404.464 -0.22179 3.36169 0
M  V30 4508 O 404.994 -1.21731 3.82811 0
M  V30 4509 N 403.2 -0.260841 2.89427 0
M  V30 4510 H 402.747 0.549884 2.51663 0
M  V30 4511 H 402.705 -1.12777 2.93477 0
M  V30 4512 N 406.477 -1.02803 1.19454 0
M  V30 4513 C 407.425 -2.13213 0.929673 0
M  V30 4514 C 408.419 -1.69011 -0.114806 0
M  V30 4515 O 409.625 -1.79967 0.0345147 0
M  V30 4516 H 406 -0.69662 0.28324 0
M  V30 4517 H 407.971 -2.32744 1.86743 0
M  V30 4518 C 406.72 -3.4429 0.485797 0
M  V30 4519 H 406.043 -3.7872 1.28105 0
M  V30 4520 H 407.483 -4.22638 0.339582 0
M  V30 4521 C 405.942 -3.27258 -0.800244 0
M  V30 4522 O 406.472 -3.55967 -1.86146 0
M  V30 4523 N 404.678 -2.80545 -0.75781 0
M  V30 4524 H 404.225 -2.57382 0.106039 0
M  V30 4525 H 404.183 -2.6953 -1.61867 0
M  V30 4526 N 407.956 -0.998596 -1.21925 0
M  V30 4527 C 409.233 -0.593401 -1.86382 0
M  V30 4528 C 409.613 0.92916 -1.89552 0
M  V30 4529 O 408.961 1.81347 -1.39017 0
M  V30 4530 C 409.171 -1.22039 -3.26967 0
M  V30 4531 C 410.519 -1.32449 -4.03413 0
M  V30 4532 O 411.543 -1.17522 -3.36254 0
M  V30 4533 O 410.402 -1.56395 -5.23644 0
M  V30 4534 H 407.496 -0.202385 -0.801854 0
M  V30 4535 H 410.042 -1.09484 -1.29659 0
M  V30 4536 H 408.814 -2.26158 -3.19325 0
M  V30 4537 H 408.437 -0.704906 -3.91301 0
M  V30 4538 N 409.434 1.37368 -0.772513 0
M  V30 4539 C 410.683 1.98918 -0.333861 0
M  V30 4540 C 410.996 1.62017 1.09589 0
M  V30 4541 O 412.202 2.16676 1.63596 0
M  V30 4542 C 410.658 3.55735 -0.545971 0
M  V30 4543 C 410.266 4.01573 -1.98603 0
M  V30 4544 C 412.01 4.24156 -0.170979 0
M  V30 4545 C 409.917 5.51102 -2.1457 0
M  V30 4546 H 408.847 0.744214 -0.121085 0
M  V30 4547 H 411.498 1.56888 -0.95175 0
M  V30 4548 H 409.88 3.95748 0.141387 0
M  V30 4549 H 411.054 3.72803 -2.7084 0
M  V30 4550 H 409.369 3.45937 -2.31769 0
M  V30 4551 H 411.966 5.34024 -0.26878 0
M  V30 4552 H 412.309 4.06917 0.878855 0
M  V30 4553 H 412.842 3.89447 -0.810914 0
M  V30 4554 H 409.581 5.73268 -3.17875 0
M  V30 4555 H 409.101 5.81554 -1.46817 0
M  V30 4556 H 410.78 6.17083 -1.94468 0
M  V30 4557 N 410.912 0.523116 1.48665 0
M  V30 4558 C 411.844 -0.280421 2.27478 0
M  V30 4559 C 412.857 -0.910694 1.34945 0
M  V30 4560 O 414.046 -0.790295 1.60052 0
M  V30 4561 C 411.146 -1.41171 3.08097 0
M  V30 4562 C 410.319 -0.884642 4.28361 0
M  V30 4563 C 409.378 -1.89622 4.90846 0
M  V30 4564 O 408.404 -1.4559 5.50265 0
M  V30 4565 N 409.606 -3.22801 4.82472 0
M  V30 4566 H 412.371 0.395481 2.97079 0
M  V30 4567 H 409.932 0.357018 1.57915 0
M  V30 4568 H 411.924 -2.08645 3.4677 0
M  V30 4569 H 410.494 -1.99139 2.40961 0
M  V30 4570 H 409.714 -0.0341177 3.94185 0
M  V30 4571 H 411.002 -0.511268 5.06225 0
M  V30 4572 H 410.4 -3.61246 4.35336 0
M  V30 4573 H 408.957 -3.85927 5.25265 0
M  V30 4574 N 412.39 -1.55475 0.257931 0
M  V30 4575 C 413.667 -1.91155 -0.414629 0
M  V30 4576 C 414.047 -1.18008 -1.75035 0
M  V30 4577 O 413.395 -0.301193 -2.26506 0
M  V30 4578 C 413.605 -3.44283 -0.571859 0
M  V30 4579 C 414.953 -4.15744 -0.862678 0
M  V30 4580 O 415.977 -3.50083 -0.657314 0
M  V30 4581 O 414.836 -5.31909 -1.2544 0
M  V30 4582 H 411.93 -0.796016 -0.22425 0
M  V30 4583 H 414.476 -1.66976 0.302814 0
M  V30 4584 H 413.248 -3.89558 0.368844 0
M  V30 4585 H 412.871 -3.7436 -1.33943 0
M  V30 4586 N 413.868 0.0150385 -1.57593 0
M  V30 4587 C 415.284 0.370907 -1.5523 0
M  V30 4588 C 415.484 1.75735 -0.985882 0
M  V30 4589 O 414.54 2.44944 -0.613077 0
M  V30 4590 C 415.853 0.259908 -2.99575 0
M  V30 4591 C 417.401 0.335959 -3.11192 0
M  V30 4592 C 417.876 0.254253 -4.57294 0
M  V30 4593 N 419.367 0.312618 -4.62144 0
M  V30 4594 C 420.102 0.272505 -5.72752 0
M  V30 4595 N 419.598 0.183864 -6.92556 0
M  V30 4596 N 421.391 0.323267 -5.6117 0
M  V30 4597 H 413.542 -0.892104 -1.92757 0
M  V30 4598 H 415.805 -0.340563 -0.884715 0
M  V30 4599 H 415.511 -0.693403 -3.44797 0
M  V30 4600 H 415.385 1.048 -3.62349 0
M  V30 4601 H 417.772 1.27971 -2.65909 0
M  V30 4602 H 417.853 -0.481739 -2.51223 0
M  V30 4603 H 417.497 -0.685887 -5.03247 0
M  V30 4604 H 417.427 1.09024 -5.15191 0
M  V30 4605 H 419.918 0.38307 -3.75953 0
M  V30 4606 H 420.231 0.15874 -7.72637 0
M  V30 4607 H 418.576 0.149708 -6.94839 0
M  V30 4608 H 421.767 0.390607 -4.66467 0
M  V30 4609 H 421.94 0.288539 -6.47357 0
M  V30 4610 N 415.346 1.54954 0.287554 0
M  V30 4611 C 416.623 1.65569 1.04146 0
M  V30 4612 C 417.003 0.512672 2.0478 0
M  V30 4613 O 416.351 -0.489038 2.23205 0
M  V30 4614 C 416.561 3.04163 1.71131 0
M  V30 4615 C 417.909 3.61429 2.22832 0
M  V30 4616 O 418.933 3.06702 1.81141 0
M  V30 4617 O 417.792 4.57281 2.9926 0
M  V30 4618 H 414.886 0.671881 0.482188 0
M  V30 4619 H 417.432 1.67297 0.28457 0
M  V30 4620 H 416.204 3.78796 0.981303 0
M  V30 4621 H 415.827 3.06271 2.53543 0
M  V30 4622 N 416.824 -0.551391 1.4764 0
M  V30 4623 C 417.754 -1.66757 1.63445 0
M  V30 4624 C 418.735 -1.63077 0.483742 0
M  V30 4625 O 419.92 -1.80607 0.71377 0
M  V30 4626 C 417.05 -3.05387 1.65396 0
M  V30 4627 C 416.004 -3.23918 2.79752 0
M  V30 4628 C 415.33 -4.63393 2.66779 0
M  V30 4629 C 416.63 -3.08735 4.21284 0
M  V30 4630 H 418.324 -1.53786 2.56886 0
M  V30 4631 H 415.87 -0.738415 1.23626 0
M  V30 4632 H 417.823 -3.83325 1.75043 0
M  V30 4633 H 416.547 -3.19332 0.685195 0
M  V30 4634 H 415.206 -2.48391 2.69625 0
M  V30 4635 H 414.854 -4.74144 1.67918 0
M  V30 4636 H 414.554 -4.7674 3.43501 0
M  V30 4637 H 416.078 -5.43458 2.78364 0
M  V30 4638 H 417.492 -3.76484 4.32357 0
M  V30 4639 H 415.889 -3.33588 4.98838 0
M  V30 4640 H 416.959 -2.0541 4.39243 0
M  V30 4641 N 418.302 -1.35869 -0.798587 0
M  V30 4642 C 419.551 -1.28921 -1.5512 0
M  V30 4643 C 419.864 0.13208 -1.95154 0
M  V30 4644 O 421.07 0.323879 -2.69561 0
M  V30 4645 C 419.526 -2.26141 -2.79979 0
M  V30 4646 C 419.134 -3.73658 -2.47151 0
M  V30 4647 C 420.878 -2.28152 -3.57976 0
M  V30 4648 C 418.785 -4.62679 -3.6835 0
M  V30 4649 H 417.715 -0.479031 -0.582276 0
M  V30 4650 H 420.366 -1.61179 -0.877125 0
M  V30 4651 H 418.748 -1.86865 -3.49138 0
M  V30 4652 H 419.922 -4.21616 -1.85947 0
M  V30 4653 H 418.237 -3.74333 -1.82383 0
M  V30 4654 H 420.834 -2.91875 -4.4801 0
M  V30 4655 H 421.177 -1.28748 -3.95891 0
M  V30 4656 H 421.71 -2.65998 -2.95787 0
M  V30 4657 H 418.449 -5.63111 -3.35538 0
M  V30 4658 H 417.969 -4.19442 -4.28752 0
M  V30 4659 H 419.648 -4.78498 -4.35487 0
M  V30 4660 N 419.78 1.02168 -1.19998 0
M  V30 4661 C 421.057 1.72816 -0.916191 0
M  V30 4662 C 421.437 2.03081 0.576325 0
M  V30 4663 O 420.785 1.69122 1.53656 0
M  V30 4664 C 420.995 2.9997 -1.78378 0
M  V30 4665 C 422.343 3.73336 -2.02251 0
M  V30 4666 O 423.367 3.09914 -1.75589 0
M  V30 4667 O 422.226 4.87371 -2.47249 0
M  V30 4668 H 419.32 0.752924 -0.342103 0
M  V30 4669 H 421.866 1.08062 -1.30846 0
M  V30 4670 H 420.638 2.73888 -2.79466 0
M  V30 4671 H 420.261 3.72464 -1.39126 0
M  V30 4672 N 421.258 1.00505 1.21394 0
M  V30 4673 C 422.483 0.706367 1.95001 0
M  V30 4674 C 422.908 -0.72463 1.73582 0
M  V30 4675 O 422.266 -1.49702 1.0227 0
M  V30 4676 C 422.314 1.03299 3.45487 0
M  V30 4677 O 421.418 0.138275 4.12168 0
M  V30 4678 H 420.759 0.263175 0.609619 0
M  V30 4679 H 423.289 1.34531 1.54151 0
M  V30 4680 H 423.299 0.979872 3.96059 0
M  V30 4681 H 421.974 2.07567 3.60401 0
M  V30 4682 H 420.551 0.247928 3.72075 0
M  V30 4683 N 422.737 -1.36956 0.779787 0
M  V30 4684 C 423.667 -2.32761 0.185651 0
M  V30 4685 C 424.648 -1.56177 -0.673989 0
M  V30 4686 O 425.833 -1.84378 -0.609797 0
M  V30 4687 C 422.963 -3.40418 -0.687964 0
M  V30 4688 C 421.917 -4.27941 0.0710102 0
M  V30 4689 C 421.243 -5.26681 -0.922573 0
M  V30 4690 C 422.543 -5.07006 1.25467 0
M  V30 4691 H 424.237 -2.82698 0.986008 0
M  V30 4692 H 421.783 -1.3592 0.475592 0
M  V30 4693 H 423.736 -4.06423 -1.11348 0
M  V30 4694 H 422.46 -2.89025 -1.52093 0
M  V30 4695 H 421.119 -3.63478 0.47739 0
M  V30 4696 H 420.767 -4.71565 -1.7503 0
M  V30 4697 H 420.467 -5.86103 -0.419237 0
M  V30 4698 H 421.991 -5.9556 -1.34686 0
M  V30 4699 H 423.405 -5.66105 0.905401 0
M  V30 4700 H 421.802 -5.75793 1.69063 0
M  V30 4701 H 422.872 -4.3921 2.05481 0
M  V30 4702 N 424.215 -0.530993 -1.48385 0
M  V30 4703 C 425.148 0.278511 -2.26494 0
M  V30 4704 C 426.126 0.943905 -1.32398 0
M  V30 4705 O 427.31 0.968098 -1.61741 0
M  V30 4706 C 424.437 1.39453 -3.08659 0
M  V30 4707 C 423.483 0.840434 -4.18137 0
M  V30 4708 S 424.316 -0.292496 -5.34701 0
M  V30 4709 C 425.472 0.825973 -6.20426 0
M  V30 4710 H 425.705 -0.384365 -2.94805 0
M  V30 4711 H 423.238 -0.316799 -1.51115 0
M  V30 4712 H 425.196 2.03382 -3.56575 0
M  V30 4713 H 423.857 2.02913 -2.3976 0
M  V30 4714 H 423.05 1.67769 -4.75257 0
M  V30 4715 H 422.652 0.277819 -3.72967 0
M  V30 4716 H 424.944 1.72438 -6.55188 0
M  V30 4717 H 425.887 0.292728 -7.07495 0
M  V30 4718 H 426.295 1.10683 -5.53543 0
M  V30 4719 N 425.693 1.55336 -0.266172 0
M  V30 4720 C 426.64 2.22172 0.625165 0
M  V30 4721 C 427.61 1.19211 1.15663 0
M  V30 4722 O 428.795 1.47723 1.20758 0
M  V30 4723 C 425.935 2.93972 1.8076 0
M  V30 4724 C 425.048 4.11632 1.31084 0
M  V30 4725 C 424.183 4.71099 2.45436 0
M  V30 4726 C 423.222 5.8097 1.92718 0
M  V30 4727 N 422.359 6.34538 3.00509 0
M  V30 4728 H 427.199 2.9796 0.0485582 0
M  V30 4729 H 424.736 1.47095 0.0122024 0
M  V30 4730 H 426.694 3.33811 2.50251 0
M  V30 4731 H 425.324 2.20623 2.35638 0
M  V30 4732 H 424.376 3.76975 0.509326 0
M  V30 4733 H 425.688 4.90893 0.884633 0
M  V30 4734 H 424.842 5.13612 3.22936 0
M  V30 4735 H 423.581 3.91096 2.91368 0
M  V30 4736 H 422.586 5.37916 1.13695 0
M  V30 4737 H 423.811 6.62836 1.47733 0
M  V30 4738 H 421.757 5.57433 3.45839 0
M  V30 4739 H 421.674 7.09046 2.62279 0
M  V30 4740 H 422.942 6.81709 3.78011 0
M  V30 4741 N 427.171 -0.0066808 1.57599 0
M  V30 4742 C 428.119 -1.01851 2.09115 0
M  V30 4743 C 429.113 -1.36021 1.00969 0
M  V30 4744 O 430.319 -1.34663 1.19439 0
M  V30 4745 H 426.694 -0.346083 0.667631 0
M  V30 4746 H 428.665 -0.558394 2.93129 0
M  V30 4747 C 427.414 -2.30374 2.60429 0
M  V30 4748 H 426.737 -2.04947 3.43273 0
M  V30 4749 H 428.177 -2.99466 3.00161 0
M  V30 4750 C 426.636 -3.00893 1.51542 0
M  V30 4751 O 427.166 -3.91614 0.894484 0
M  V30 4752 N 425.372 -2.62603 1.2445 0
M  V30 4753 H 424.919 -1.88911 1.75129 0
M  V30 4754 H 424.877 -3.10101 0.518137 0
M  V30 4755 N 428.649 -1.55105 -0.279332 0
M  V30 4756 C 429.874 -1.7976 -1.03446 0
M  V30 4757 C 430.299 -0.565952 -1.79384 0
M  V30 4758 O 429.657 0.484259 -1.74713 0
M  V30 4759 C 429.705 -3.0179 -1.97371 0
M  V30 4760 O 428.809 -2.76432 -3.06038 0
M  V30 4761 H 428.15 -0.594334 -0.29608 0
M  V30 4762 H 430.68 -2.02235 -0.310165 0
M  V30 4763 H 430.69 -3.30351 -2.39441 0
M  V30 4764 H 429.365 -3.91085 -1.4151 0
M  V30 4765 H 427.942 -2.58949 -2.68328 0
M  V30 4766 N 430.127 0.543554 -1.4793 0
M  V30 4767 C 431.355 1.32516 -1.58894 0
M  V30 4768 C 431.77 1.87215 -0.244131 0
M  V30 4769 O 431.127 1.65709 0.764652 0
M  V30 4770 C 431.178 2.48554 -2.62494 0
M  V30 4771 O 430.899 1.96112 -3.91755 0
M  V30 4772 C 432.4 3.40572 -2.8377 0
M  V30 4773 H 429.62 0.403472 -0.536145 0
M  V30 4774 H 432.164 0.657106 -1.93655 0
M  V30 4775 H 430.319 3.1127 -2.30629 0
M  V30 4776 H 430.733 2.71967 -4.4848 0
M  V30 4777 H 432.207 4.18375 -3.60093 0
M  V30 4778 H 432.684 3.94965 -1.92092 0
M  V30 4779 H 433.29 2.8366 -3.16887 0
M  V30 4780 N 431.605 1.3629 0.791371 0
M  V30 4781 C 432.835 1.33368 1.57786 0
M  V30 4782 C 433.243 -0.0875188 1.88997 0
M  V30 4783 O 432.586 -1.05427 1.50435 0
M  V30 4784 C 432.648 2.08802 2.92646 0
M  V30 4785 C 432.312 3.57903 2.84174 0
M  V30 4786 C 433.309 4.52191 2.56553 0
M  V30 4787 C 430.994 4.00762 3.02812 0
M  V30 4788 C 432.988 5.87315 2.47669 0
M  V30 4789 C 430.675 5.35977 2.93551 0
M  V30 4790 C 431.673 6.29066 2.66017 0
M  V30 4791 O 431.361 7.61798 2.56746 0
M  V30 4792 H 431.093 0.459166 0.496128 0
M  V30 4793 H 433.647 1.79952 0.990269 0
M  V30 4794 H 431.877 1.56878 3.53449 0
M  V30 4795 H 433.566 1.98762 3.53904 0
M  V30 4796 H 434.332 4.20393 2.41858 0
M  V30 4797 H 430.211 3.2868 3.2325 0
M  V30 4798 H 433.755 6.59943 2.26099 0
M  V30 4799 H 429.652 5.67384 3.07808 0
M  V30 4800 H 430.42 7.71898 2.72242 0
M  V30 4801 N 433.083 -1.0153 1.20538 0
M  V30 4802 C 434.03 -2.10098 0.955383 0
M  V30 4803 C 435 -1.65702 -0.114878 0
M  V30 4804 O 436.185 -1.90776 0.0301118 0
M  V30 4805 C 433.325 -3.41236 0.514969 0
M  V30 4806 C 432.438 -3.99102 1.65353 0
M  V30 4807 C 431.573 -5.18306 1.16329 0
M  V30 4808 C 430.612 -5.68258 2.27485 0
M  V30 4809 N 429.749 -6.78722 1.7967 0
M  V30 4810 H 434.589 -2.30818 1.88486 0
M  V30 4811 H 432.126 -1.13189 0.939499 0
M  V30 4812 H 434.084 -4.16504 0.240935 0
M  V30 4813 H 432.714 -3.20585 -0.377512 0
M  V30 4814 H 431.766 -3.20918 2.04245 0
M  V30 4815 H 433.078 -4.32177 2.49047 0
M  V30 4816 H 432.232 -6.00782 0.845302 0
M  V30 4817 H 430.971 -4.86799 0.296254 0
M  V30 4818 H 429.976 -4.84385 2.60099 0
M  V30 4819 H 431.201 -6.01798 3.14667 0
M  V30 4820 H 429.147 -6.49042 0.95295 0
M  V30 4821 H 429.064 -7.10996 2.56944 0
M  V30 4822 H 430.332 -7.64759 1.50875 0
M  V30 4823 N 434.561 -1.01147 -1.20859 0
M  V30 4824 C 435.838 -0.613136 -1.85742 0
M  V30 4825 C 436.218 0.909004 -1.90526 0
M  V30 4826 O 435.566 1.79862 -1.40932 0
M  V30 4827 C 435.776 -1.255 -3.25654 0
M  V30 4828 C 437.124 -1.3672 -4.01986 0
M  V30 4829 O 438.148 -1.21082 -3.34989 0
M  V30 4830 O 437.007 -1.6194 -5.21956 0
M  V30 4831 H 434.101 -0.210878 -0.799662 0
M  V30 4832 H 436.647 -1.10853 -1.2849 0
M  V30 4833 H 435.419 -2.29532 -3.16908 0
M  V30 4834 H 435.042 -0.746369 -3.90532 0
M  V30 4835 N 436.039 1.36541 -0.78704 0
M  V30 4836 C 437.287 1.98911 -0.357633 0
M  V30 4837 C 437.608 1.62778 1.07371 0
M  V30 4838 O 436.878 0.900612 1.73971 0
M  V30 4839 H 435.458 0.735734 -0.129246 0
M  V30 4840 H 438.12 1.66776 -1.00855 0
M  V30 4841 H 437.216 3.08874 -0.447549 0
M  V30 4842 N 437.518 0.538854 1.48102 0
M  V30 4843 C 438.764 0.00801365 2.02798 0
M  V30 4844 C 439.097 -1.3309 1.41424 0
M  V30 4845 O 438.372 -1.86169 0.563158 0
M  V30 4846 C 438.655 -0.104589 3.59948 0
M  V30 4847 C 438.508 1.26012 4.31788 0
M  V30 4848 C 439.827 -0.827055 4.32259 0
M  V30 4849 H 436.946 0.00438624 0.736987 0
M  V30 4850 H 439.588 0.6976 1.7673 0
M  V30 4851 H 437.738 -0.691893 3.82289 0
M  V30 4852 H 439.41 1.88922 4.2084 0
M  V30 4853 H 437.653 1.83968 3.92859 0
M  V30 4854 H 438.324 1.13424 5.40221 0
M  V30 4855 H 440.8 -0.328578 4.14801 0
M  V30 4856 H 439.676 -0.87476 5.41885 0
M  V30 4857 H 439.937 -1.87927 4.0017 0
M  V30 4858 N 438.996 -1.55193 0.274407 0
M  V30 4859 C 439.943 -2.225 -0.613374 0
M  V30 4860 C 440.913 -1.19823 -1.15029 0
M  V30 4861 O 442.098 -1.48362 -1.19973 0
M  V30 4862 C 439.238 -2.94927 -1.79199 0
M  V30 4863 C 438.351 -4.12322 -1.28899 0
M  V30 4864 C 437.486 -4.72394 -2.42934 0
M  V30 4865 C 436.525 -5.81984 -1.89634 0
M  V30 4866 N 435.662 -6.36123 -2.9714 0
M  V30 4867 H 440.502 -2.97982 -0.032756 0
M  V30 4868 H 438.039 -1.47099 -0.00440146 0
M  V30 4869 H 439.997 -3.35134 -2.48478 0
M  V30 4870 H 438.627 -2.2187 -2.34465 0
M  V30 4871 H 437.679 -3.7724 -0.489327 0
M  V30 4872 H 438.991 -4.91355 -0.858587 0
M  V30 4873 H 438.145 -5.15317 -3.20208 0
M  V30 4874 H 436.884 -3.92636 -2.8929 0
M  V30 4875 H 435.889 -5.38511 -1.1084 0
M  V30 4876 H 437.114 -6.6361 -1.44215 0
M  V30 4877 H 435.06 -5.59259 -3.42878 0
M  V30 4878 H 434.977 -7.10427 -2.58515 0
M  V30 4879 H 436.245 -6.83704 -3.74391 0
M  V30 4880 N 440.474 -0.00167713 -1.576 0
M  V30 4881 C 441.407 1.02317 -2.03977 0
M  V30 4882 C 442.385 1.33381 -0.929963 0
M  V30 4883 O 443.569 1.45517 -1.19822 0
M  V30 4884 C 440.696 2.35035 -2.43878 0
M  V30 4885 C 439.742 2.19621 -3.65607 0
M  V30 4886 S 440.575 1.52068 -5.13455 0
M  V30 4887 C 441.731 2.86212 -5.56627 0
M  V30 4888 H 441.964 0.628285 -2.90585 0
M  V30 4889 H 439.497 0.209239 -1.52976 0
M  V30 4890 H 441.455 3.11345 -2.67534 0
M  V30 4891 H 440.116 2.71663 -1.57665 0
M  V30 4892 H 439.309 3.1767 -3.91282 0
M  V30 4893 H 438.911 1.51455 -3.41961 0
M  V30 4894 H 441.203 3.82509 -5.59189 0
M  V30 4895 H 442.146 2.65235 -6.56549 0
M  V30 4896 H 442.554 2.90199 -4.84195 0
M  V30 4897 N 441.952 1.55251 0.271103 0
M  V30 4898 C 443.18 1.79974 1.02064 0
M  V30 4899 C 443.595 0.574003 1.79863 0
M  V30 4900 O 442.952 -0.456962 1.76686 0
M  V30 4901 C 443.003 3.02603 1.97772 0
M  V30 4902 O 442.724 4.20443 1.23124 0
M  V30 4903 C 444.225 3.39944 2.84522 0
M  V30 4904 H 441.445 0.599489 0.301419 0
M  V30 4905 H 443.989 2.02268 0.301313 0
M  V30 4906 H 442.144 2.8243 2.65165 0
M  V30 4907 H 442.558 4.89783 1.87651 0
M  V30 4908 H 444.032 4.28915 3.47471 0
M  V30 4909 H 444.509 2.59432 3.54389 0
M  V30 4910 H 445.115 3.62383 2.22618 0
M  V30 4911 N 443.43 -0.535701 1.48216 0
M  V30 4912 C 444.707 -1.29683 1.46429 0
M  V30 4913 C 445.087 -2.10391 0.172852 0
M  V30 4914 O 444.435 -2.12282 -0.845488 0
M  V30 4915 C 444.645 -2.18313 2.72287 0
M  V30 4916 C 445.993 -2.78639 3.20383 0
M  V30 4917 O 447.017 -2.28604 2.73164 0
M  V30 4918 O 445.876 -3.69636 4.02531 0
M  V30 4919 H 442.97 -0.585026 0.584529 0
M  V30 4920 H 445.516 -0.552827 1.60443 0
M  V30 4921 H 444.288 -1.58421 3.57797 0
M  V30 4922 H 443.911 -2.99971 2.60966 0
M  V30 4923 N 444.908 -1.36708 -0.784132 0
M  V30 4924 C 445.84 -1.27333 -1.90575 0
M  V30 4925 C 446.853 -0.191706 -1.61667 0
M  V30 4926 O 448.042 -0.446854 -1.72816 0
M  V30 4927 C 445.142 -0.943177 -3.25511 0
M  V30 4928 C 444.315 -2.12776 -3.82158 0
M  V30 4929 C 443.374 -1.76983 -4.95544 0
M  V30 4930 O 442.4 -2.49134 -5.11782 0
M  V30 4931 N 443.602 -0.706624 -5.76183 0
M  V30 4932 H 446.367 -2.23974 -1.99138 0
M  V30 4933 H 443.928 -1.30171 -0.962656 0
M  V30 4934 H 445.92 -0.684799 -3.98864 0
M  V30 4935 H 444.49 -0.0657333 -3.12531 0
M  V30 4936 H 443.71 -2.54863 -3.0073 0
M  V30 4937 H 444.998 -2.91904 -4.16737 0
M  V30 4938 H 444.396 -0.107643 -5.65598 0
M  V30 4939 H 442.953 -0.50808 -6.49817 0
M  V30 4940 N 446.386 1.0089 -1.21074 0
M  V30 4941 C 447.296 2.13039 -0.982425 0
M  V30 4942 C 448.312 1.73881 0.0642161 0
M  V30 4943 O 449.488 2.01012 -0.12496 0
M  V30 4944 C 446.553 3.42377 -0.545803 0
M  V30 4945 C 445.614 3.95731 -1.6642 0
M  V30 4946 C 444.847 5.18896 -1.24832 0
M  V30 4947 O 445.07 5.70273 -0.120265 0
M  V30 4948 O 444.004 5.65597 -2.05873 0
M  V30 4949 H 447.83 2.35175 -1.92163 0
M  V30 4950 H 445.415 1.1142 -0.995285 0
M  V30 4951 H 447.297 4.20244 -0.311912 0
M  V30 4952 H 445.972 3.21639 0.364727 0
M  V30 4953 H 444.879 3.19108 -1.95246 0
M  V30 4954 H 446.212 4.20872 -2.55201 0
M  V30 4955 N 447.864 1.01787 1.20321 0
M  V30 4956 C 449.113 0.703249 1.89043 0
M  V30 4957 C 449.426 -0.770445 1.79787 0
M  V30 4958 O 450.632 -1.19767 2.43656 0
M  V30 4959 C 449.088 1.20749 3.3904 0
M  V30 4960 C 448.696 2.70817 3.56878 0
M  V30 4961 C 450.44 0.968352 4.13308 0
M  V30 4962 C 448.347 3.14716 5.00708 0
M  V30 4963 H 447.277 0.259354 0.707991 0
M  V30 4964 H 449.928 1.23072 1.36108 0
M  V30 4965 H 448.31 0.607989 3.91305 0
M  V30 4966 H 449.484 3.36327 3.14993 0
M  V30 4967 H 447.799 2.92888 2.95983 0
M  V30 4968 H 450.396 1.27173 5.19356 0
M  V30 4969 H 450.739 -0.095149 4.16191 0
M  V30 4970 H 451.272 1.53129 3.67146 0
M  V30 4971 H 448.011 4.20347 5.02979 0
M  V30 4972 H 447.531 2.53927 5.43398 0
M  V30 4973 H 449.21 3.07426 5.69296 0
M  V30 4974 N 449.342 -1.36122 0.79427 0
M  V30 4975 C 450.305 -2.28309 0.201889 0
M  V30 4976 C 451.305 -1.49041 -0.603603 0
M  V30 4977 O 452.495 -1.68964 -0.423888 0
M  V30 4978 C 449.627 -3.3321 -0.719978 0
M  V30 4979 H 450.82 -2.82208 1.01481 0
M  V30 4980 H 448.373 -1.45768 0.564037 0
M  V30 4981 H 449.108 -2.84475 -1.55706 0
M  V30 4982 H 448.893 -3.91835 -0.144266 0
M  V30 4983 H 450.383 -4.02044 -1.12916 0
M  V30 4984 N 450.82 -0.546701 -1.47814 0
M  V30 4985 C 451.768 0.220048 -2.31557 0
M  V30 4986 C 452.762 0.919472 -1.42275 0
M  V30 4987 O 453.968 0.841953 -1.59095 0
M  V30 4988 H 450.343 0.0898334 -0.746615 0
M  V30 4989 H 452.314 -0.505589 -2.94086 0
M  V30 4990 C 451.063 1.24353 -3.24702 0
M  V30 4991 H 450.386 0.714758 -3.93359 0
M  V30 4992 H 451.826 1.75112 -3.8615 0
M  V30 4993 C 450.285 2.28593 -2.47481 0
M  V30 4994 O 450.815 3.35334 -2.21165 0
M  V30 4995 N 449.021 2.02244 -2.08676 0
M  V30 4996 H 448.568 1.15455 -2.30278 0
M  V30 4997 H 448.526 2.72207 -1.57323 0
M  V30 4998 N 452.299 1.55045 -0.282633 0
M  V30 4999 C 453.229 2.2579 0.595066 0
M  V30 5000 C 454.21 1.25074 1.15284 0
M  V30 5001 O 455.395 1.5381 1.18559 0
M  V30 5002 C 452.525 2.98472 1.77572 0
M  V30 5003 C 451.479 4.0618 1.34914 0
M  V30 5004 C 450.805 4.66477 2.6135 0
M  V30 5005 C 452.105 5.1996 0.493821 0
M  V30 5006 H 453.799 2.994 0.00505653 0
M  V30 5007 H 451.345 1.44 0.000992001 0
M  V30 5008 H 453.298 3.46677 2.39568 0
M  V30 5009 H 452.022 2.2241 2.39168 0
M  V30 5010 H 450.681 3.58797 0.752338 0
M  V30 5011 H 450.329 3.87074 3.2122 0
M  V30 5012 H 450.029 5.39207 2.33516 0
M  V30 5013 H 451.553 5.17435 3.24181 0
M  V30 5014 H 452.967 5.64172 1.01898 0
M  V30 5015 H 451.364 5.99299 0.310047 0
M  V30 5016 H 452.434 4.82462 -0.485593 0
M  V30 5017 N 453.777 0.010035 1.57597 0
M  V30 5018 C 454.707 -0.976857 2.12084 0
M  V30 5019 C 455.688 -1.35191 1.03235 0
M  V30 5020 O 456.873 -1.43389 1.3097 0
M  V30 5021 C 454.003 -2.26548 2.63236 0
M  V30 5022 C 452.957 -2.03175 3.76701 0
M  V30 5023 C 452.283 -3.38138 4.14206 0
M  V30 5024 C 453.583 -1.38625 5.03568 0
M  V30 5025 H 455.277 -0.523145 2.94794 0
M  V30 5026 H 452.823 -0.250195 1.4181 0
M  V30 5027 H 454.776 -2.95952 2.99984 0
M  V30 5028 H 453.5 -2.74051 1.77661 0
M  V30 5029 H 452.159 -1.36195 3.40362 0
M  V30 5030 H 451.807 -3.83363 3.25641 0
M  V30 5031 H 451.507 -3.23312 4.90656 0
M  V30 5032 H 453.031 -4.08841 4.53521 0
M  V30 5033 H 454.445 -1.98 5.38023 0
M  V30 5034 H 452.842 -1.34256 5.84889 0
M  V30 5035 H 453.912 -0.356722 4.83586 0
M  V30 5036 N 455.255 -1.55392 -0.262866 0
M  V30 5037 C 456.504 -1.75679 -0.990943 0
M  V30 5038 C 456.817 -0.57097 -1.87081 0
M  V30 5039 O 458.023 -0.656486 -2.63444 0
M  V30 5040 C 456.479 -3.10964 -1.81188 0
M  V30 5041 C 456.087 -4.37146 -0.980188 0
M  V30 5042 C 457.831 -3.40597 -2.53365 0
M  V30 5043 C 455.738 -5.63466 -1.7961 0
M  V30 5044 H 454.668 -0.654868 -0.373716 0
M  V30 5045 H 457.319 -1.81841 -0.246203 0
M  V30 5046 H 455.701 -2.98867 -2.59797 0
M  V30 5047 H 456.875 -4.60187 -0.237558 0
M  V30 5048 H 455.19 -4.14731 -0.372497 0
M  V30 5049 H 457.787 -4.32186 -3.14833 0
M  V30 5050 H 458.13 -2.6119 -3.24169 0
M  V30 5051 H 458.663 -3.53838 -1.81779 0
M  V30 5052 H 455.402 -6.4565 -1.13209 0
M  V30 5053 H 454.922 -5.44552 -2.51443 0
M  V30 5054 H 456.601 -6.02139 -2.36723 0
M  V30 5055 N 456.733 0.527833 -1.48498 0
M  V30 5056 C 457.981 1.28101 -1.56316 0
M  V30 5057 C 458.302 1.9352 -0.239781 0
M  V30 5058 O 457.572 1.81433 0.738849 0
M  V30 5059 H 456.152 0.475793 -0.575873 0
M  V30 5060 H 458.814 0.614052 -1.84974 0
M  V30 5061 H 457.91 2.05916 -2.34532 0
M  V30 5062 N 458.211 1.37122 0.776871 0
M  V30 5063 C 459.457 1.32243 1.53752 0
M  V30 5064 C 459.79 -0.0944745 1.9397 0
M  V30 5065 O 459.065 -1.05068 1.6368 0
M  V30 5066 C 459.348 2.25681 2.80607 0
M  V30 5067 C 459.201 3.76127 2.46676 0
M  V30 5068 C 460.52 2.17657 3.82509 0
M  V30 5069 H 457.639 0.481704 0.557791 0
M  V30 5070 H 460.281 1.6778 0.891612 0
M  V30 5071 H 458.431 1.95505 3.35723 0
M  V30 5072 H 460.103 4.16877 1.97513 0
M  V30 5073 H 458.346 3.94946 1.79443 0
M  V30 5074 H 459.017 4.36933 3.37333 0
M  V30 5075 H 461.493 2.44245 3.36873 0
M  V30 5076 H 460.369 2.85185 4.69 0
M  V30 5077 H 460.63 1.16785 4.26396 0
M  V30 5078 N 459.689 -1.00246 1.21608 0
M  V30 5079 C 460.619 -2.10921 1.00172 0
M  V30 5080 C 461.6 -1.69938 -0.0741587 0
M  V30 5081 O 462.785 -1.94009 0.0861753 0
M  V30 5082 C 459.915 -3.42618 0.568355 0
M  V30 5083 C 458.869 -3.97407 1.58909 0
M  V30 5084 C 458.195 -5.25038 1.01187 0
M  V30 5085 C 459.495 -4.2918 2.97661 0
M  V30 5086 H 461.189 -2.29112 1.92739 0
M  V30 5087 H 458.735 -1.10101 0.928102 0
M  V30 5088 H 460.688 -4.19444 0.405555 0
M  V30 5089 H 459.412 -3.24227 -0.392961 0
M  V30 5090 H 458.071 -3.22703 1.73949 0
M  V30 5091 H 457.719 -5.02982 0.0421965 0
M  V30 5092 H 457.419 -5.62661 1.6937 0
M  V30 5093 H 458.943 -6.04507 0.860448 0
M  V30 5094 H 460.357 -4.96839 2.86049 0
M  V30 5095 H 458.754 -4.77952 3.6288 0
M  V30 5096 H 459.824 -3.3735 3.48315 0
M  V30 5097 N 461.167 -1.02423 -1.1978 0
M  V30 5098 C 462.1 -0.545641 -2.21581 0
M  V30 5099 C 463.078 0.411024 -1.57319 0
M  V30 5100 O 464.262 0.329223 -1.85603 0
M  V30 5101 C 461.389 0.204973 -3.38079 0
M  V30 5102 C 460.435 -0.70241 -4.20676 0
M  V30 5103 S 461.268 -2.17595 -4.89298 0
M  V30 5104 C 462.424 -1.43572 -6.09211 0
M  V30 5105 H 462.657 -1.4082 -2.61834 0
M  V30 5106 H 460.19 -0.833771 -1.29952 0
M  V30 5107 H 462.148 0.631924 -4.05607 0
M  V30 5108 H 460.809 1.0432 -2.9627 0
M  V30 5109 H 460.002 -0.123193 -5.03849 0
M  V30 5110 H 459.604 -1.06747 -3.58442 0
M  V30 5111 H 461.896 -0.719806 -6.73665 0
M  V30 5112 H 462.839 -2.24388 -6.71607 0
M  V30 5113 H 463.247 -0.935252 -5.56699 0
M  V30 5114 N 462.645 1.35699 -0.801477 0
M  V30 5115 C 463.893 1.9852 -0.37871 0
M  V30 5116 C 464.214 1.63907 1.05638 0
M  V30 5117 O 463.484 0.919013 1.73006 0
M  V30 5118 H 462.064 0.734322 -0.137042 0
M  V30 5119 H 464.726 1.65697 -1.02619 0
M  V30 5120 H 463.822 3.08382 -0.480284 0
M  V30 5121 N 464.123 0.554532 1.47522 0
M  V30 5122 C 465.371 0.0294208 2.02079 0
M  V30 5123 C 465.692 -1.32411 1.43151 0
M  V30 5124 O 464.962 -1.863 0.605728 0
M  V30 5125 H 463.542 0.00788672 0.746958 0
M  V30 5126 H 466.204 0.723934 1.80956 0
M  V30 5127 H 465.3 -0.0606745 3.12041 0
M  V30 5128 N 465.601 -1.54893 0.290851 0
M  V30 5129 C 466.533 -2.20564 -0.623236 0
M  V30 5130 C 467.546 -1.19519 -1.1054 0
M  V30 5131 O 468.735 -1.46165 -1.02459 0
M  V30 5132 C 465.835 -2.83033 -1.86401 0
M  V30 5133 C 465.008 -4.09916 -1.52604 0
M  V30 5134 C 464.067 -4.56284 -2.62091 0
M  V30 5135 O 463.093 -5.2171 -2.27612 0
M  V30 5136 N 464.295 -4.27746 -3.92446 0
M  V30 5137 H 467.06 -2.99638 -0.0610915 0
M  V30 5138 H 464.621 -1.61508 0.112615 0
M  V30 5139 H 466.613 -3.1099 -2.58973 0
M  V30 5140 H 465.183 -2.0786 -2.33481 0
M  V30 5141 H 464.403 -3.89078 -0.633424 0
M  V30 5142 H 465.691 -4.92554 -1.27547 0
M  V30 5143 H 465.089 -3.7531 -4.23272 0
M  V30 5144 H 463.646 -4.60437 -4.61347 0
M  V30 5145 N 467.08 -0.0183926 -1.57589 0
M  V30 5146 C 468.03 0.975944 -2.06057 0
M  V30 5147 C 469.014 1.29204 -0.958908 0
M  V30 5148 O 470.206 1.27995 -1.22255 0
M  V30 5149 C 467.335 2.26194 -2.58247 0
M  V30 5150 C 466.421 1.97467 -3.75323 0
M  V30 5151 N 466.812 1.38968 -4.86335 0
M  V30 5152 C 465.11 2.27515 -3.83605 0
M  V30 5153 C 465.811 1.27131 -5.67638 0
M  V30 5154 N 464.787 1.76319 -5.14211 0
M  V30 5155 H 468.589 0.518444 -2.89291 0
M  V30 5156 H 466.103 0.18688 -1.61321 0
M  V30 5157 H 468.1 2.98289 -2.91255 0
M  V30 5158 H 466.76 2.7258 -1.76438 0
M  V30 5159 H 467.771 1.06608 -5.06809 0
M  V30 5160 H 464.448 2.76649 -3.12684 0
M  V30 5161 H 465.838 0.819882 -6.66879 0
M  V30 5162 N 468.558 1.5553 0.254621 0
M  V30 5163 C 469.786 1.81046 1.00149 0
M  V30 5164 C 470.201 0.593047 1.79244 0
M  V30 5165 O 469.558 -0.438196 1.77161 0
M  V30 5166 C 469.609 3.04684 1.94551 0
M  V30 5167 O 469.33 4.21725 1.18658 0
M  V30 5168 C 470.831 3.42943 2.80901 0
M  V30 5169 H 468.051 0.602653 0.295044 0
M  V30 5170 H 470.595 2.02576 0.279842 0
M  V30 5171 H 468.75 2.85226 2.62154 0
M  V30 5172 H 469.164 4.91746 1.82445 0
M  V30 5173 H 470.638 4.32576 3.42902 0
M  V30 5174 H 471.115 2.63176 3.51617 0
M  V30 5175 H 471.721 3.64724 2.18762 0
M  V30 5176 N 470.036 -0.519951 1.48776 0
M  V30 5177 C 471.261 -1.30447 1.6124 0
M  V30 5178 C 471.686 -1.86055 0.276591 0
M  V30 5179 O 471.044 -1.64915 -0.753183 0
M  V30 5180 C 471.092 -2.42406 2.66967 0
M  V30 5181 O 470.196 -3.45728 2.24824 0
M  V30 5182 H 469.537 -0.385924 0.540332 0
M  V30 5183 H 472.067 -0.624572 1.94834 0
M  V30 5184 H 472.077 -2.88447 2.88552 0
M  V30 5185 H 470.752 -2.01294 3.63941 0
M  V30 5186 H 469.329 -3.05737 2.13494 0
M  V30 5187 N 471.514 -1.37532 -0.769588 0
M  V30 5188 C 472.477 -1.33292 -1.86456 0
M  V30 5189 C 473.477 -0.236537 -1.59051 0
M  V30 5190 O 474.667 -0.492511 -1.67093 0
M  V30 5191 C 471.799 -1.07118 -3.23633 0
M  V30 5192 H 472.992 -2.30692 -1.91628 0
M  V30 5193 H 470.545 -1.22593 -0.969572 0
M  V30 5194 H 471.28 -0.102578 -3.24138 0
M  V30 5195 H 471.065 -1.86479 -3.44917 0
M  V30 5196 H 472.555 -1.06806 -4.03711 0
M  V30 5197 N 472.992 0.995999 -1.22138 0
M  V30 5198 C 473.955 2.06711 -0.990109 0
M  V30 5199 C 474.955 1.60744 0.0422978 0
M  V30 5200 O 476.145 1.73095 -0.195895 0
M  V30 5201 C 473.277 3.37288 -0.49491 0
M  V30 5202 H 474.47 2.28661 -1.94047 0
M  V30 5203 H 472.023 1.16711 -1.03963 0
M  V30 5204 H 472.758 3.21022 0.459948 0
M  V30 5205 H 472.543 3.71986 -1.23971 0
M  V30 5206 H 474.033 4.16103 -0.353253 0
M  V30 5207 N 474.47 1.03057 1.19235 0
M  V30 5208 C 475.698 0.747697 1.92917 0
M  V30 5209 C 476.113 -0.69372 1.75593 0
M  V30 5210 O 475.47 -1.47191 1.07894 0
M  V30 5211 C 475.521 1.09159 3.44625 0
M  V30 5212 O 475.242 2.47641 3.61394 0
M  V30 5213 C 476.743 0.831763 4.35427 0
M  V30 5214 H 473.963 0.273453 0.612751 0
M  V30 5215 H 476.507 1.37552 1.51327 0
M  V30 5216 H 474.662 0.508919 3.84043 0
M  V30 5217 H 475.076 2.60499 4.55237 0
M  V30 5218 H 476.55 1.12233 5.4047 0
M  V30 5219 H 477.027 -0.233769 4.38577 0
M  V30 5220 H 477.633 1.39725 4.01693 0
M  V30 5221 N 475.948 -1.35272 0.808662 0
M  V30 5222 C 477.173 -2.03477 0.401475 0
M  V30 5223 C 477.598 -1.60537 -0.980279 0
M  V30 5224 O 476.956 -0.78304 -1.63518 0
M  V30 5225 C 477.004 -3.57181 0.495354 0
M  V30 5226 O 476.108 -4.09474 -0.490397 0
M  V30 5227 H 475.449 -0.642561 0.167366 0
M  V30 5228 H 477.979 -1.72824 1.09512 0
M  V30 5229 H 477.989 -4.06356 0.365912 0
M  V30 5230 H 476.664 -3.87784 1.5032 0
M  V30 5231 H 475.241 -3.71516 -0.321023 0
M  V30 5232 N 477.426 -0.562348 -1.47226 0
M  V30 5233 C 478.389 0.172056 -2.28553 0
M  V30 5234 C 479.389 0.837928 -1.37242 0
M  V30 5235 O 480.579 0.693001 -1.59822 0
M  V30 5236 C 477.711 1.25223 -3.17068 0
M  V30 5237 H 478.904 -0.542401 -2.94954 0
M  V30 5238 H 476.457 -0.319493 -1.53 0
M  V30 5239 H 477.192 1.99892 -2.55369 0
M  V30 5240 H 476.977 0.779515 -3.84273 0
M  V30 5241 H 478.467 1.76791 -3.78332 0
M  V30 5242 N 478.904 1.54736 -0.299062 0
M  V30 5243 C 480.15 2.01114 0.304123 0
M  V30 5244 C 480.505 1.18376 1.51674 0
M  V30 5245 O 479.798 0.251635 1.8994 0
M  V30 5246 C 479.992 3.50199 0.713835 0
M  V30 5247 C 479.821 4.47366 -0.457531 0
M  V30 5248 C 478.591 4.9631 -0.948933 0
M  V30 5249 C 480.789 4.9755 -1.30186 0
M  V30 5250 N 478.771 5.77327 -2.08726 0
M  V30 5251 C 480.142 5.7625 -2.28771 0
M  V30 5252 C 482.197 4.79739 -1.33246 0
M  V30 5253 C 480.9 6.39036 -3.3019 0
M  V30 5254 C 482.926 5.43343 -2.33521 0
M  V30 5255 C 482.288 6.21874 -3.30836 0
M  V30 5256 H 478.387 0.778318 0.0757992 0
M  V30 5257 H 480.971 1.89925 -0.428536 0
M  V30 5258 H 479.142 3.61681 1.41567 0
M  V30 5259 H 480.874 3.83374 1.29639 0
M  V30 5260 H 477.629 4.7069 -0.52423 0
M  V30 5261 H 478.053 6.22521 -2.66077 0
M  V30 5262 H 482.695 4.18609 -0.59383 0
M  V30 5263 H 480.413 6.99302 -4.04973 0
M  V30 5264 H 483.999 5.31492 -2.3666 0
M  V30 5265 H 482.879 6.70217 -4.07159 0
M  V30 5266 N 480.382 0.0267497 1.57577 0
M  V30 5267 C 481.631 -0.651736 1.9088 0
M  V30 5268 C 481.944 -1.73427 0.904576 0
M  V30 5269 O 483.15 -2.46923 1.12877 0
M  V30 5270 C 481.606 -1.21048 3.38933 0
M  V30 5271 C 481.214 -0.161362 4.47709 0
M  V30 5272 C 482.958 -1.86562 3.81307 0
M  V30 5273 C 480.865 -0.731611 5.86857 0
M  V30 5274 H 479.795 -0.247198 0.712326 0
M  V30 5275 H 482.446 0.0916641 1.83271 0
M  V30 5276 H 480.828 -2.00542 3.41466 0
M  V30 5277 H 482.002 0.61094 4.56732 0
M  V30 5278 H 480.317 0.394877 4.14523 0
M  V30 5279 H 482.914 -2.30178 4.8262 0
M  V30 5280 H 483.257 -2.70735 3.16241 0
M  V30 5281 H 483.79 -1.13762 3.81186 0
M  V30 5282 H 480.529 0.0719329 6.55461 0
M  V30 5283 H 480.049 -1.47245 5.81445 0
M  V30 5284 H 481.728 -1.22208 6.35354 0
M  V30 5285 N 481.861 -1.55662 -0.24637 0
M  V30 5286 C 482.791 -1.93377 -1.30873 0
M  V30 5287 C 483.772 -0.798773 -1.50179 0
M  V30 5288 O 484.957 -1.0591 -1.62778 0
M  V30 5289 C 482.087 -2.22893 -2.66338 0
M  V30 5290 C 481.041 -3.38649 -2.61727 0
M  V30 5291 C 480.367 -3.53708 -4.00992 0
M  V30 5292 C 481.667 -4.74323 -2.18666 0
M  V30 5293 H 483.361 -2.82363 -0.995552 0
M  V30 5294 H 480.907 -1.35854 -0.477464 0
M  V30 5295 H 482.86 -2.47866 -3.40794 0
M  V30 5296 H 481.584 -1.30733 -2.99293 0
M  V30 5297 H 480.243 -3.13685 -1.89729 0
M  V30 5298 H 479.891 -2.58967 -4.31214 0
M  V30 5299 H 479.591 -4.31551 -3.98795 0
M  V30 5300 H 481.115 -3.81003 -4.77147 0
M  V30 5301 H 482.529 -4.98665 -2.82854 0
M  V30 5302 H 480.926 -5.55273 -2.27579 0
M  V30 5303 H 481.996 -4.71349 -1.13834 0
M  V30 5304 N 483.339 0.512053 -1.4905 0
M  V30 5305 C 484.269 1.62365 -1.67809 0
M  V30 5306 C 485.25 1.61737 -0.526809 0
M  V30 5307 O 486.435 1.78651 -0.761404 0
M  V30 5308 C 483.565 3.00895 -1.73435 0
M  V30 5309 C 482.519 3.16387 -2.88242 0
M  V30 5310 C 481.845 4.56157 -2.78971 0
M  V30 5311 C 483.145 2.97457 -4.29321 0
M  V30 5312 H 484.839 1.46921 -2.60873 0
M  V30 5313 H 482.385 0.705379 -1.2554 0
M  V30 5314 H 484.338 3.78549 -1.85145 0
M  V30 5315 H 483.062 3.17403 -0.769619 0
M  V30 5316 H 481.721 2.41155 -2.76116 0
M  V30 5317 H 481.369 4.69525 -1.8043 0
M  V30 5318 H 481.069 4.67465 -3.5602 0
M  V30 5319 H 482.593 5.35886 -2.92675 0
M  V30 5320 H 484.007 3.64888 -4.42187 0
M  V30 5321 H 482.404 3.20245 -5.07507 0
M  V30 5322 H 483.474 1.93692 -4.44535 0
M  V30 5323 N 484.817 1.37938 0.762283 0
M  V30 5324 C 485.767 1.30976 1.86626 0
M  V30 5325 C 486.751 0.195714 1.59705 0
M  V30 5326 O 487.943 0.430937 1.71674 0
M  V30 5327 C 485.072 1.12847 3.24223 0
M  V30 5328 C 484.158 2.28836 3.57064 0
M  V30 5329 N 484.549 3.54256 3.61022 0
M  V30 5330 C 482.847 2.21198 3.87282 0
M  V30 5331 C 483.548 4.30798 3.90881 0
M  V30 5332 N 482.524 3.60049 4.07266 0
M  V30 5333 H 486.326 2.25946 1.87951 0
M  V30 5334 H 483.84 1.31046 0.959206 0
M  V30 5335 H 485.837 1.05943 4.03214 0
M  V30 5336 H 484.497 0.188024 3.24155 0
M  V30 5337 H 485.508 3.8804 3.42995 0
M  V30 5338 H 482.185 1.35264 3.94981 0
M  V30 5339 H 483.575 5.39386 4.00639 0
M  V30 5340 N 486.295 -0.989507 1.22664 0
M  V30 5341 C 487.225 -2.09847 1.02404 0
M  V30 5342 C 488.206 -1.70007 -0.0561303 0
M  V30 5343 O 489.391 -1.93906 0.106748 0
M  V30 5344 C 486.521 -3.41996 0.604663 0
M  V30 5345 C 485.475 -3.95699 1.63115 0
M  V30 5346 C 484.801 -5.23936 1.0675 0
M  V30 5347 C 486.101 -4.25999 3.02196 0
M  V30 5348 H 487.795 -2.27054 1.95158 0
M  V30 5349 H 485.341 -1.09111 0.939727 0
M  V30 5350 H 487.294 -4.1899 0.45002 0
M  V30 5351 H 486.018 -3.24626 -0.35855 0
M  V30 5352 H 484.677 -3.2084 1.77362 0
M  V30 5353 H 484.325 -5.02909 0.0955422 0
M  V30 5354 H 484.025 -5.60833 1.75328 0
M  V30 5355 H 485.549 -6.0356 0.924516 0
M  V30 5356 H 486.963 -4.93777 2.91303 0
M  V30 5357 H 485.36 -4.74076 3.67929 0
M  V30 5358 H 486.43 -3.33636 3.51873 0
M  V30 5359 N 487.773 -1.03688 -1.18687 0
M  V30 5360 C 488.736 -0.629115 -2.20397 0
M  V30 5361 C 489.736 0.311495 -1.57754 0
M  V30 5362 O 490.926 0.0974107 -1.73927 0
M  V30 5363 C 488.058 0.0782231 -3.4081 0
M  V30 5364 H 489.251 -1.52915 -2.57987 0
M  V30 5365 H 486.804 -0.828988 -1.32505 0
M  V30 5366 H 487.539 0.992233 -3.08748 0
M  V30 5367 H 487.324 -0.597776 -3.87517 0
M  V30 5368 H 488.814 0.350156 -4.16129 0
M  V30 5369 N 489.251 1.34841 -0.815825 0
M  V30 5370 C 490.161 2.33425 -0.234462 0
M  V30 5371 C 491.177 1.62295 0.627413 0
M  V30 5372 O 492.353 1.94109 0.536987 0
M  V30 5373 C 489.418 3.41471 0.599849 0
M  V30 5374 C 488.479 4.28362 -0.283596 0
M  V30 5375 C 487.712 5.31248 0.51099 0
M  V30 5376 O 487.935 5.43056 1.7449 0
M  V30 5377 O 486.869 6.01812 -0.10297 0
M  V30 5378 H 490.695 2.84962 -1.05024 0
M  V30 5379 H 488.28 1.37774 -0.577809 0
M  V30 5380 H 490.162 4.07464 1.07475 0
M  V30 5381 H 488.837 2.9219 1.39308 0
M  V30 5382 H 487.744 3.65318 -0.805836 0
M  V30 5383 H 489.077 4.81066 -1.041 0
M  V30 5384 N 490.729 0.570148 1.46925 0
M  V30 5385 C 492.145 0.23087 1.57921 0
M  V30 5386 C 492.345 -1.26676 1.56702 0
M  V30 5387 O 491.401 -2.04774 1.47729 0
M  V30 5388 C 492.714 0.868973 2.8787 0
M  V30 5389 C 494.262 0.841397 3.01479 0
M  V30 5390 C 494.737 1.45881 4.34146 0
M  V30 5391 N 496.228 1.42258 4.40814 0
M  V30 5392 C 496.963 1.8698 5.42057 0
M  V30 5393 N 496.459 2.39618 6.50042 0
M  V30 5394 N 498.252 1.77972 5.33181 0
M  V30 5395 H 490.403 1.54301 1.45962 0
M  V30 5396 H 492.666 0.644224 0.69547 0
M  V30 5397 H 492.372 1.922 2.94537 0
M  V30 5398 H 492.246 0.369682 3.75384 0
M  V30 5399 H 494.633 -0.202973 2.94401 0
M  V30 5400 H 494.714 1.37858 2.15474 0
M  V30 5401 H 494.358 2.50231 4.4198 0
M  V30 5402 H 494.288 0.896958 5.18905 0
M  V30 5403 H 496.779 1.03768 3.63374 0
M  V30 5404 H 497.092 2.71633 7.23488 0
M  V30 5405 H 495.437 2.43636 6.50897 0
M  V30 5406 H 498.628 1.36617 4.4772 0
M  V30 5407 H 498.801 2.13143 6.11943 0
M  V30 5408 N 492.207 -1.54576 0.307264 0
M  V30 5409 C 493.618 -1.8579 -0.184121 0
M  V30 5410 C 493.969 -1.22914 -1.52927 0
M  V30 5411 O 493.094 -0.529126 -2.09831 0
M  V30 5412 C 493.689 -3.37081 -0.340862 0
M  V30 5413 C 492.248 -3.68304 -0.776465 0
M  V30 5414 C 491.395 -2.77076 0.111503 0
M  V30 5415 H 494.346 -1.49656 0.528078 0
M  V30 5416 H 494.367 -3.61922 -1.17443 0
M  V30 5417 H 493.879 -3.82815 0.638309 0
M  V30 5418 H 491.98 -3.28092 -1.76596 0
M  V30 5419 H 492.093 -4.75434 -0.591512 0
M  V30 5420 H 490.457 -2.51374 -0.410256 0
M  V30 5421 H 491.24 -3.25632 1.08714 0
M  V30 5422 N 493.685 -0.035106 -1.57561 0
M  V30 5423 C 494.962 0.681212 -1.83354 0
M  V30 5424 C 495.342 1.89986 -0.920252 0
M  V30 5425 O 494.69 2.28489 0.0226815 0
M  V30 5426 C 494.9 1.05376 -3.32712 0
M  V30 5427 C 496.248 1.44286 -3.99333 0
M  V30 5428 O 497.272 1.14656 -3.37242 0
M  V30 5429 O 496.131 1.99518 -5.08778 0
M  V30 5430 H 493.225 0.334741 -0.756226 0
M  V30 5431 H 495.771 -0.0632448 -1.69582 0
M  V30 5432 H 494.543 0.186668 -3.90854 0
M  V30 5433 H 494.166 1.85619 -3.51613 0
M  V30 5434 N 495.163 1.55791 0.238111 0
M  V30 5435 C 496.409 1.78297 0.966337 0
M  V30 5436 C 496.742 0.601903 1.84637 0
M  V30 5437 O 496.017 -0.399499 1.90353 0
M  V30 5438 C 496.3 3.10758 1.81939 0
M  V30 5439 C 496.153 4.39283 0.966958 0
M  V30 5440 C 497.472 3.39519 2.80027 0
M  V30 5441 H 494.591 0.648654 0.349882 0
M  V30 5442 H 497.233 1.88525 0.236253 0
M  V30 5443 H 495.383 3.02168 2.44185 0
M  V30 5444 H 497.055 4.59873 0.362514 0
M  V30 5445 H 495.298 4.32948 0.271669 0
M  V30 5446 H 495.969 5.28368 1.59784 0
M  V30 5447 H 498.445 3.48128 2.27917 0
M  V30 5448 H 497.321 4.33402 3.36829 0
M  V30 5449 H 497.582 2.60864 3.56934 0
M  V30 5450 N 496.642 -0.504142 1.49319 0
M  V30 5451 C 497.574 -1.62265 1.61872 0
M  V30 5452 C 498.587 -1.54881 0.501573 0
M  V30 5453 O 499.776 -1.6087 0.773497 0
M  V30 5454 C 496.876 -3.01042 1.55651 0
M  V30 5455 C 496.049 -3.33642 2.82845 0
M  V30 5456 C 495.108 -4.51816 2.69719 0
M  V30 5457 O 494.134 -4.53755 3.4365 0
M  V30 5458 N 495.336 -5.51543 1.81055 0
M  V30 5459 H 498.101 -1.51924 2.58339 0
M  V30 5460 H 495.662 -0.691954 1.46368 0
M  V30 5461 H 497.654 -3.78013 1.44528 0
M  V30 5462 H 496.224 -3.05323 0.670546 0
M  V30 5463 H 495.444 -2.45598 3.08343 0
M  V30 5464 H 496.732 -3.5222 3.67177 0
M  V30 5465 H 496.13 -5.52774 1.20241 0
M  V30 5466 H 494.687 -6.27629 1.75856 0
M  V30 5467 N 498.12 -1.38341 -0.754957 0
M  V30 5468 C 499.052 -1.31347 -1.87831 0
M  V30 5469 C 500.065 -0.225955 -1.61224 0
M  V30 5470 O 501.254 -0.48341 -1.7183 0
M  V30 5471 C 498.354 -1.01201 -3.23437 0
M  V30 5472 C 497.527 -2.20834 -3.77559 0
M  V30 5473 C 496.586 -1.87454 -4.91678 0
M  V30 5474 O 495.612 -2.59934 -5.06382 0
M  V30 5475 N 496.814 -0.828682 -5.74555 0
M  V30 5476 H 499.579 -2.28147 -1.94342 0
M  V30 5477 H 497.14 -1.32184 -0.934828 0
M  V30 5478 H 499.132 -0.769249 -3.97322 0
M  V30 5479 H 497.702 -0.132011 -3.12321 0
M  V30 5480 H 496.922 -2.61184 -2.95256 0
M  V30 5481 H 498.21 -3.00678 -4.10451 0
M  V30 5482 H 497.608 -0.227591 -5.65242 0
M  V30 5483 H 496.165 -0.645802 -6.48593 0
M  V30 5484 N 499.598 0.982988 -1.23187 0
M  V30 5485 C 500.508 2.10907 -1.02739 0
M  V30 5486 C 501.524 1.73979 0.0273188 0
M  V30 5487 O 502.7 2.00702 -0.16757 0
M  V30 5488 C 499.765 3.41142 -0.618304 0
M  V30 5489 C 498.826 3.92112 -1.74777 0
M  V30 5490 C 498.059 5.16131 -1.3581 0
M  V30 5491 O 498.282 5.6989 -0.241201 0
M  V30 5492 O 497.216 5.61103 -2.17824 0
M  V30 5493 H 501.042 2.31046 -1.97108 0
M  V30 5494 H 498.627 1.09284 -1.01869 0
M  V30 5495 H 500.509 4.19488 -0.400982 0
M  V30 5496 H 499.184 3.2234 0.296421 0
M  V30 5497 H 498.091 3.14895 -2.0197 0
M  V30 5498 H 499.424 4.15364 -2.64071 0
M  V30 5499 N 501.076 1.04316 1.18135 0
M  V30 5500 C 502.006 0.657299 2.24058 0
M  V30 5501 C 502.987 -0.340678 1.66654 0
M  V30 5502 O 504.172 -0.220223 1.92947 0
M  V30 5503 C 501.302 0.0220715 3.47293 0
M  V30 5504 C 500.256 0.943857 4.17463 0
M  V30 5505 C 499.582 0.172973 5.3442 0
M  V30 5506 C 500.882 2.26409 4.70677 0
M  V30 5507 H 502.576 1.5428 2.56589 0
M  V30 5508 H 500.122 0.743263 1.23335 0
M  V30 5509 H 502.075 -0.259607 4.206 0
M  V30 5510 H 500.799 -0.898323 3.14003 0
M  V30 5511 H 499.458 1.20996 3.46057 0
M  V30 5512 H 499.106 -0.749907 4.97379 0
M  V30 5513 H 498.806 0.787098 5.82304 0
M  V30 5514 H 500.33 -0.101628 6.10515 0
M  V30 5515 H 501.744 2.04294 5.35665 0
M  V30 5516 H 500.141 2.8314 5.29105 0
M  V30 5517 H 501.211 2.90883 3.87962 0
M  V30 5518 N 502.554 -1.34406 0.822964 0
M  V30 5519 C 503.784 -2.02214 0.423424 0
M  V30 5520 C 504.192 -1.62124 -0.975322 0
M  V30 5521 O 503.535 -0.822452 -1.6426 0
M  V30 5522 C 503.597 -3.56721 0.446107 0
M  V30 5523 C 503.261 -4.20136 1.79819 0
M  V30 5524 C 504.258 -4.4065 2.75904 0
M  V30 5525 C 501.943 -4.56906 2.08669 0
M  V30 5526 C 503.937 -4.9706 3.99012 0
M  V30 5527 C 501.624 -5.13026 3.32036 0
M  V30 5528 C 502.622 -5.33047 4.27024 0
M  V30 5529 O 502.31 -5.87979 5.48211 0
M  V30 5530 H 502.042 -0.654748 0.168169 0
M  V30 5531 H 504.596 -1.72659 1.11257 0
M  V30 5532 H 502.826 -3.85537 -0.299734 0
M  V30 5533 H 504.515 -4.05845 0.0666114 0
M  V30 5534 H 505.281 -4.12607 2.54912 0
M  V30 5535 H 501.16 -4.40626 1.35535 0
M  V30 5536 H 504.704 -5.12603 4.73164 0
M  V30 5537 H 500.601 -5.40498 3.52891 0
M  V30 5538 H 501.369 -6.06413 5.49732 0
M  V30 5539 N 504.032 -0.577932 -1.46621 0
M  V30 5540 C 504.942 0.160651 -2.34049 0
M  V30 5541 C 505.958 0.890911 -1.49462 0
M  V30 5542 O 507.134 0.855166 -1.82343 0
M  V30 5543 C 504.199 1.16447 -3.26559 0
M  V30 5544 C 503.26 0.4394 -4.27045 0
M  V30 5545 C 502.493 1.3954 -5.15135 0
M  V30 5546 O 502.716 2.63162 -5.06065 0
M  V30 5547 O 501.65 0.908585 -5.95003 0
M  V30 5548 H 505.476 -0.557057 -2.98547 0
M  V30 5549 H 503.061 -0.338369 -1.45518 0
M  V30 5550 H 504.943 1.7434 -3.83645 0
M  V30 5551 H 503.618 1.86373 -2.64663 0
M  V30 5552 H 502.525 -0.181247 -3.73661 0
M  V30 5553 H 503.858 -0.218799 -4.91713 0
M  V30 5554 N 505.51 1.54411 -0.315457 0
M  V30 5555 C 506.42 2.27737 0.56329 0
M  V30 5556 C 507.436 1.31787 1.13614 0
M  V30 5557 O 508.612 1.64791 1.15784 0
M  V30 5558 C 505.677 3.01478 1.71207 0
M  V30 5559 C 504.738 4.12997 1.17185 0
M  V30 5560 C 503.971 4.83212 2.26588 0
M  V30 5561 O 504.194 4.52884 3.46775 0
M  V30 5562 O 503.128 5.70299 1.92463 0
M  V30 5563 H 506.954 3.03683 -0.0319614 0
M  V30 5564 H 504.539 1.49178 -0.0814188 0
M  V30 5565 H 506.421 3.47683 2.38106 0
M  V30 5566 H 505.096 2.28414 2.29366 0
M  V30 5567 H 504.003 3.71159 0.468174 0
M  V30 5568 H 505.336 4.8808 0.635501 0
M  V30 5569 N 506.988 0.0434614 1.5754 0
M  V30 5570 C 507.92 -0.962586 2.08007 0
M  V30 5571 C 508.933 -1.27972 1.00634 0
M  V30 5572 O 510.122 -1.24186 1.28219 0
M  V30 5573 C 507.222 -2.28621 2.50171 0
M  V30 5574 C 506.395 -2.15214 3.80791 0
M  V30 5575 C 505.454 -3.30633 4.09351 0
M  V30 5576 O 504.48 -3.0688 4.79388 0
M  V30 5577 N 505.682 -4.54873 3.60654 0
M  V30 5578 H 508.447 -0.531891 2.94942 0
M  V30 5579 H 506.008 -0.142965 1.61268 0
M  V30 5580 H 508 -3.04689 2.66359 0
M  V30 5581 H 506.57 -2.63283 1.68525 0
M  V30 5582 H 505.79 -1.23785 3.74261 0
M  V30 5583 H 507.078 -2.03475 4.66343 0
M  V30 5584 H 506.476 -4.77063 3.04019 0
M  V30 5585 H 505.033 -5.2806 3.82094 0
M  V30 5586 N 508.466 -1.55915 -0.229846 0
M  V30 5587 C 509.399 -1.86734 -1.3117 0
M  V30 5588 C 510.377 -0.723947 -1.45595 0
M  V30 5589 O 511.561 -0.971462 -1.61539 0
M  V30 5590 C 508.688 -2.06707 -2.68309 0
M  V30 5591 C 507.734 -3.2938 -2.70944 0
M  V30 5592 S 508.567 -4.85547 -2.25842 0
M  V30 5593 C 509.723 -5.08546 -3.64873 0
M  V30 5594 H 509.956 -2.78204 -1.04832 0
M  V30 5595 H 507.489 -1.48243 -0.431681 0
M  V30 5596 H 509.447 -2.18898 -3.47267 0
M  V30 5597 H 508.108 -1.16049 -2.91876 0
M  V30 5598 H 507.301 -3.40374 -3.71701 0
M  V30 5599 H 506.903 -3.16004 -2.00044 0
M  V30 5600 H 509.195 -4.96935 -4.60502 0
M  V30 5601 H 510.138 -6.10465 -3.58801 0
M  V30 5602 H 510.546 -4.36314 -3.58176 0
M  V30 5603 N 509.944 0.496216 -1.49584 0
M  V30 5604 C 511.36 0.827814 -1.36453 0
M  V30 5605 C 511.56 1.97464 -0.401285 0
M  V30 5606 O 510.616 2.51958 0.165296 0
M  V30 5607 C 511.929 1.16352 -2.77277 0
M  V30 5608 C 513.477 1.27145 -2.86013 0
M  V30 5609 C 513.952 1.64042 -4.27615 0
M  V30 5610 N 515.443 1.71082 -4.30448 0
M  V30 5611 C 516.178 2.01085 -5.36984 0
M  V30 5612 N 515.674 2.2928 -6.5376 0
M  V30 5613 N 517.467 2.02376 -5.24405 0
M  V30 5614 H 509.618 -0.259947 -2.10803 0
M  V30 5615 H 511.881 -0.0537163 -0.946477 0
M  V30 5616 H 511.587 0.394153 -3.49484 0
M  V30 5617 H 511.461 2.10582 -3.12946 0
M  V30 5618 H 513.848 2.03152 -2.1404 0
M  V30 5619 H 513.929 0.309542 -2.5392 0
M  V30 5620 H 513.573 0.88583 -5.00115 0
M  V30 5621 H 513.503 2.6134 -4.57175 0
M  V30 5622 H 515.994 1.51434 -3.46232 0
M  V30 5623 H 516.307 2.51376 -7.30774 0
M  V30 5624 H 514.652 2.26726 -6.56978 0
M  V30 5625 H 517.843 1.79829 -4.32179 0
M  V30 5626 H 518.016 2.25425 -6.07526 0
M  V30 5627 N 511.423 1.38739 0.74761 0
M  V30 5628 C 512.669 1.35475 1.50912 0
M  V30 5629 C 513.002 -0.0533093 1.94127 0
M  V30 5630 O 512.277 -1.01572 1.65871 0
M  V30 5631 C 512.56 2.31582 2.75757 0
M  V30 5632 C 512.413 3.81274 2.38642 0
M  V30 5633 C 513.732 2.25722 3.77806 0
M  V30 5634 H 510.851 0.493427 0.547447 0
M  V30 5635 H 513.493 1.69634 0.855823 0
M  V30 5636 H 511.643 2.02582 3.31501 0
M  V30 5637 H 513.315 4.20972 1.88626 0
M  V30 5638 H 511.558 3.98664 1.71025 0
M  V30 5639 H 512.229 4.4399 3.27989 0
M  V30 5640 H 514.705 2.51336 3.31616 0
M  V30 5641 H 513.581 2.95069 4.62845 0
M  V30 5642 H 513.842 1.25803 4.23823 0
M  V30 5643 N 512.901 -0.976442 1.23707 0
M  V30 5644 C 513.831 -2.08749 1.04624 0
M  V30 5645 C 514.812 -1.70057 -0.0380956 0
M  V30 5646 O 515.997 -1.93782 0.127308 0
M  V30 5647 C 513.127 -3.41335 0.640902 0
M  V30 5648 C 512.081 -3.93947 1.67302 0
M  V30 5649 C 511.407 -5.22774 1.12301 0
M  V30 5650 C 512.707 -4.22769 3.06697 0
M  V30 5651 H 514.401 -2.24972 1.97555 0
M  V30 5652 H 511.947 -1.08108 0.951247 0
M  V30 5653 H 513.9 -4.18489 0.494434 0
M  V30 5654 H 512.624 -3.24988 -0.324099 0
M  V30 5655 H 511.283 -3.18941 1.80755 0
M  V30 5656 H 510.931 -5.0278 0.148877 0
M  V30 5657 H 510.631 -5.58942 1.81267 0
M  V30 5658 H 512.155 -6.02546 0.988479 0
M  V30 5659 H 513.569 -4.90659 2.96524 0
M  V30 5660 H 511.966 -4.70147 3.72937 0
M  V30 5661 H 513.036 -3.29885 3.55392 0
M  V30 5662 N 514.379 -1.04941 -1.1758 0
M  V30 5663 C 515.656 -0.671918 -1.83697 0
M  V30 5664 C 516.036 0.847929 -1.93322 0
M  V30 5665 O 515.384 1.75287 -1.46583 0
M  V30 5666 C 515.594 -1.35797 -3.21497 0
M  V30 5667 C 516.942 -1.4944 -3.97433 0
M  V30 5668 O 517.966 -1.31678 -3.30967 0
M  V30 5669 O 516.825 -1.78463 -5.1654 0
M  V30 5670 H 513.919 -0.236212 -0.792548 0
M  V30 5671 H 516.465 -1.14884 -1.24899 0
M  V30 5672 H 515.237 -2.39498 -3.09446 0
M  V30 5673 H 514.86 -0.870236 -3.8796 0
M  V30 5674 N 515.857 1.33968 -0.830081 0
M  V30 5675 C 517.105 1.97672 -0.420734 0
M  V30 5676 C 517.426 1.66111 1.02138 0
M  V30 5677 O 516.696 0.955503 1.71017 0
M  V30 5678 H 515.276 0.73125 -0.152587 0
M  V30 5679 H 517.938 1.63483 -1.0611 0
M  V30 5680 H 517.034 3.07294 -0.545588 0
M  V30 5681 N 517.335 0.585699 1.46312 0
M  V30 5682 C 518.583 0.072278 2.01971 0
M  V30 5683 C 518.904 -1.29345 1.45928 0
M  V30 5684 O 518.174 -1.84973 0.645109 0
M  V30 5685 H 516.754 0.023729 0.746623 0
M  V30 5686 H 519.416 0.762155 1.7938 0
M  V30 5687 H 518.512 0.00552767 3.121 0
M  V30 5688 N 518.813 -1.54241 0.323641 0
M  V30 5689 C 519.76 -2.24339 -0.542277 0
M  V30 5690 C 520.73 -1.23421 -1.11159 0
M  V30 5691 O 521.915 -1.52104 -1.15192 0
M  V30 5692 C 519.055 -3.00479 -1.69725 0
M  V30 5693 C 518.168 -4.16214 -1.15716 0
M  V30 5694 C 517.303 -4.79884 -2.27783 0
M  V30 5695 C 516.342 -5.87722 -1.71023 0
M  V30 5696 N 515.479 -6.45254 -2.76752 0
M  V30 5697 H 520.319 -2.97935 0.0620613 0
M  V30 5698 H 517.856 -1.47039 0.0423993 0
M  V30 5699 H 519.814 -3.42869 -2.3769 0
M  V30 5700 H 518.444 -2.29217 -2.27288 0
M  V30 5701 H 517.496 -3.78605 -0.369063 0
M  V30 5702 H 518.808 -4.93838 -0.701832 0
M  V30 5703 H 517.962 -5.25243 -3.03651 0
M  V30 5704 H 516.701 -4.01641 -2.76652 0
M  V30 5705 H 515.706 -5.41765 -0.936518 0
M  V30 5706 H 516.931 -6.67863 -1.2303 0
M  V30 5707 H 514.877 -5.69884 -3.24912 0
M  V30 5708 H 514.794 -7.18292 -2.35782 0
M  V30 5709 H 516.062 -6.95269 -3.5245 0
M  V30 5710 N 520.291 -0.0518155 -1.57515 0
M  V30 5711 C 521.238 0.922352 -2.11569 0
M  V30 5712 C 522.208 1.30842 -1.02321 0
M  V30 5713 O 523.393 1.39778 -1.29872 0
M  V30 5714 C 520.533 2.19167 -2.6657 0
M  V30 5715 C 519.646 1.86003 -3.89906 0
M  V30 5716 C 518.781 3.07398 -4.33221 0
M  V30 5717 C 517.82 2.70158 -5.49255 0
M  V30 5718 N 516.957 3.84248 -5.8762 0
M  V30 5719 H 521.797 0.454506 -2.94514 0
M  V30 5720 H 519.334 0.212718 -1.45554 0
M  V30 5721 H 521.292 2.93443 -2.96559 0
M  V30 5722 H 519.922 2.63528 -1.86421 0
M  V30 5723 H 518.974 1.01874 -3.66505 0
M  V30 5724 H 520.286 1.54592 -4.74239 0
M  V30 5725 H 519.44 3.89972 -4.64765 0
M  V30 5726 H 518.179 3.41988 -3.477 0
M  V30 5727 H 517.184 1.86001 -5.17382 0
M  V30 5728 H 518.409 2.36759 -6.36492 0
M  V30 5729 H 516.355 4.18638 -5.05053 0
M  V30 5730 H 516.272 3.56538 -6.66646 0
M  V30 5731 H 517.54 4.6746 -6.2378 0
M  V30 5732 N 521.769 1.56035 0.221574 0
M  V30 5733 C 522.679 1.95581 1.29558 0
M  V30 5734 C 523.695 0.859639 1.51282 0
M  V30 5735 O 524.871 1.16321 1.64413 0
M  V30 5736 C 521.936 2.26447 2.62531 0
M  V30 5737 C 520.997 3.49632 2.4911 0
M  V30 5738 C 520.23 3.79017 3.75742 0
M  V30 5739 O 520.453 3.10077 4.78757 0
M  V30 5740 O 519.387 4.72507 3.72855 0
M  V30 5741 H 523.213 2.8711 0.990035 0
M  V30 5742 H 520.798 1.43244 0.424434 0
M  V30 5743 H 522.68 2.47494 3.41064 0
M  V30 5744 H 521.355 1.38092 2.92766 0
M  V30 5745 H 520.262 3.33864 1.68777 0
M  V30 5746 H 521.595 4.3837 2.23814 0
M  V30 5747 N 523.247 -0.488276 1.49845 0
M  V30 5748 C 524.177 -1.59675 1.70371 0
M  V30 5749 C 525.158 -1.60878 0.552473 0
M  V30 5750 O 526.343 -1.77417 0.78973 0
M  V30 5751 C 523.473 -2.98098 1.782 0
M  V30 5752 C 522.427 -3.11761 2.93239 0
M  V30 5753 C 521.753 -4.51661 2.86193 0
M  V30 5754 C 523.053 -2.90589 4.33999 0
M  V30 5755 H 524.747 -1.42752 2.63177 0
M  V30 5756 H 522.293 -0.685317 1.26647 0
M  V30 5757 H 524.246 -3.75555 1.91144 0
M  V30 5758 H 522.97 -3.16138 0.820018 0
M  V30 5759 H 521.629 -2.36732 2.79917 0
M  V30 5760 H 521.277 -4.66595 1.87877 0
M  V30 5761 H 520.977 -4.61742 3.63412 0
M  V30 5762 H 522.501 -5.31162 3.01163 0
M  V30 5763 H 523.915 -3.57807 4.47936 0
M  V30 5764 H 522.312 -3.1213 5.12538 0
M  V30 5765 H 523.382 -1.86595 4.4756 0
M  V30 5766 N 524.725 -1.39134 -0.740242 0
M  V30 5767 C 525.953 -1.39334 -1.5295 0
M  V30 5768 C 526.368 0.0135008 -1.88795 0
M  V30 5769 O 525.725 0.983524 -1.5373 0
M  V30 5770 C 525.776 -2.2614 -2.82034 0
M  V30 5771 O 525.497 -3.61345 -2.47712 0
M  V30 5772 C 526.998 -2.34666 -3.76094 0
M  V30 5773 H 524.218 -0.476103 -0.472828 0
M  V30 5774 H 526.762 -1.82883 -0.9151 0
M  V30 5775 H 524.917 -1.86018 -3.39818 0
M  V30 5776 H 525.331 -4.07194 -3.30595 0
M  V30 5777 H 526.805 -2.99663 -4.63579 0
M  V30 5778 H 527.282 -1.36426 -4.17474 0
M  V30 5779 H 527.888 -2.75236 -3.2423 0
M  V30 5780 N 526.204 0.969867 -1.24223 0
M  V30 5781 C 527.434 1.74502 -1.106 0
M  V30 5782 C 527.842 1.86038 0.344483 0
M  V30 5783 O 527.185 1.3465 1.24961 0
M  V30 5784 C 527.247 3.18391 -1.66935 0
M  V30 5785 C 526.911 3.30334 -3.15798 0
M  V30 5786 C 527.908 3.15832 -4.12973 0
M  V30 5787 C 525.593 3.54644 -3.55715 0
M  V30 5788 C 527.587 3.25461 -5.48045 0
M  V30 5789 C 525.274 3.63912 -4.90929 0
M  V30 5790 C 526.272 3.49332 -5.86904 0
M  V30 5791 O 525.96 3.58251 -7.1966 0
M  V30 5792 H 525.692 0.554119 -0.387206 0
M  V30 5793 H 528.246 1.22646 -1.64764 0
M  V30 5794 H 526.476 3.71543 -1.07203 0
M  V30 5795 H 528.165 3.77707 -1.48634 0
M  V30 5796 H 528.931 2.96937 -3.83476 0
M  V30 5797 H 524.81 3.65059 -2.81519 0
M  V30 5798 H 528.354 3.13998 -6.22937 0
M  V30 5799 H 524.251 3.82319 -5.20098 0
M  V30 5800 H 525.019 3.7498 -7.27552 0
M  V30 5801 N 527.682 1.05563 1.17022 0
M  V30 5802 C 528.959 0.68165 1.83338 0
M  V30 5803 C 529.339 -0.837665 1.93769 0
M  V30 5804 O 528.687 -1.74507 1.47511 0
M  V30 5805 C 528.897 1.375 3.20772 0
M  V30 5806 C 530.245 1.51545 3.96635 0
M  V30 5807 O 531.269 1.33431 3.30264 0
M  V30 5808 O 530.128 1.812 5.15586 0
M  V30 5809 H 527.222 0.240412 0.791285 0
M  V30 5810 H 529.768 1.15545 1.24288 0
M  V30 5811 H 528.54 2.41135 3.08171 0
M  V30 5812 H 528.163 0.890798 3.87493 0
M  V30 5813 N 529.16 -1.33526 0.837174 0
M  V30 5814 C 530.09 -2.31764 0.284206 0
M  V30 5815 C 531.071 -1.58896 -0.607142 0
M  V30 5816 O 532.256 -1.86798 -0.531047 0
M  V30 5817 C 529.386 -3.43029 -0.542962 0
M  V30 5818 C 528.34 -4.27255 0.252451 0
M  V30 5819 C 527.666 -5.3012 -0.69836 0
M  V30 5820 C 528.966 -5.01229 1.46858 0
M  V30 5821 H 530.66 -2.78262 1.10502 0
M  V30 5822 H 528.206 -1.3378 0.532812 0
M  V30 5823 H 530.159 -4.1078 -0.940096 0
M  V30 5824 H 528.883 -2.95216 -1.39697 0
M  V30 5825 H 527.542 -3.61127 0.631124 0
M  V30 5826 H 527.19 -4.78564 -1.54872 0
M  V30 5827 H 526.89 -5.87353 -0.170274 0
M  V30 5828 H 528.414 -6.00737 -1.09305 0
M  V30 5829 H 529.828 -5.61756 1.14469 0
M  V30 5830 H 528.225 -5.68104 1.93333 0
M  V30 5831 H 529.295 -4.301 2.23924 0
M  V30 5832 N 530.638 -0.59345 -1.46 0
M  V30 5833 C 531.568 0.121192 -2.33185 0
M  V30 5834 C 532.549 0.872977 -1.4599 0
M  V30 5835 O 533.734 0.846321 -1.74789 0
M  V30 5836 C 530.864 1.12844 -3.28456 0
M  V30 5837 C 529.818 0.4908 -4.25177 0
M  V30 5838 C 529.144 1.60529 -5.10034 0
M  V30 5839 C 530.444 -0.578949 -5.19081 0
M  V30 5840 H 532.138 -0.606767 -2.93187 0
M  V30 5841 H 529.684 -0.293242 -1.40983 0
M  V30 5842 H 531.637 1.63684 -3.88311 0
M  V30 5843 H 530.361 1.88681 -2.66584 0
M  V30 5844 H 529.02 0.00339328 -3.666 0
M  V30 5845 H 528.668 2.35359 -4.44539 0
M  V30 5846 H 528.368 1.18422 -5.75543 0
M  V30 5847 H 529.892 2.11623 -5.72755 0
M  V30 5848 H 531.306 -0.155199 -5.7309 0
M  V30 5849 H 529.703 -0.920947 -5.92991 0
M  V30 5850 H 530.773 -1.46109 -4.62364 0
M  V30 5851 N 532.116 1.54067 -0.331816 0
M  V30 5852 C 533.048 2.22139 0.564538 0
M  V30 5853 C 534.061 1.22408 1.07332 0
M  V30 5854 O 535.25 1.4883 0.985481 0
M  V30 5855 C 532.35 2.87876 1.78831 0
M  V30 5856 C 531.523 4.13817 1.41682 0
M  V30 5857 C 530.582 4.63072 2.49901 0
M  V30 5858 O 529.608 5.27562 2.13699 0
M  V30 5859 N 530.81 4.38001 3.80967 0
M  V30 5860 H 533.575 2.99694 -0.0183736 0
M  V30 5861 H 531.136 1.61153 -0.155396 0
M  V30 5862 H 533.128 3.17747 2.50637 0
M  V30 5863 H 531.698 2.13977 2.27887 0
M  V30 5864 H 530.918 3.9062 0.530044 0
M  V30 5865 H 532.206 4.95762 1.14443 0
M  V30 5866 H 531.604 3.864 4.13173 0
M  V30 5867 H 530.161 4.72507 4.48977 0
M  V30 5868 N 533.594 0.0601682 1.57485 0
M  V30 5869 C 534.504 -0.926121 2.15546 0
M  V30 5870 C 535.52 -1.33532 1.11558 0
M  V30 5871 O 536.696 -1.4104 1.4377 0
M  V30 5872 C 533.761 -2.17952 2.69625 0
M  V30 5873 C 532.822 -1.82783 3.88444 0
M  V30 5874 C 532.055 -3.02148 4.39935 0
M  V30 5875 O 532.278 -4.15803 3.90466 0
M  V30 5876 O 531.212 -2.82639 5.31412 0
M  V30 5877 H 535.038 -0.462289 3.00161 0
M  V30 5878 H 532.623 -0.162246 1.48516 0
M  V30 5879 H 534.505 -2.91474 3.04337 0
M  V30 5880 H 533.18 -2.63456 1.88077 0
M  V30 5881 H 532.087 -1.06549 3.58606 0
M  V30 5882 H 533.42 -1.42072 4.7125 0
M  V30 5883 N 535.072 -1.5615 -0.213296 0
M  V30 5884 C 536.005 -1.88115 -1.29182 0
M  V30 5885 C 536.983 -0.739348 -1.44819 0
M  V30 5886 O 538.167 -0.988541 -1.605 0
M  V30 5887 C 535.294 -2.09541 -2.66102 0
M  V30 5888 C 534.34 -3.32236 -2.67436 0
M  V30 5889 S 535.173 -4.87915 -2.20679 0
M  V30 5890 C 536.329 -5.12387 -3.59458 0
M  V30 5891 H 536.562 -2.793 -1.01876 0
M  V30 5892 H 534.095 -1.48692 -0.415934 0
M  V30 5893 H 536.053 -2.22568 -3.44925 0
M  V30 5894 H 534.714 -1.19138 -2.90628 0
M  V30 5895 H 533.907 -3.44297 -3.6807 0
M  V30 5896 H 533.509 -3.18108 -1.96681 0
M  V30 5897 H 535.801 -5.01791 -4.55205 0
M  V30 5898 H 536.744 -6.14236 -3.52306 0
M  V30 5899 H 537.152 -4.40089 -3.53528 0
M  V30 5900 N 536.55 0.480323 -1.50102 0
M  V30 5901 C 537.961 1.06142 -1.53593 0
M  V30 5902 C 538.312 1.93335 -0.334055 0
M  V30 5903 O 537.437 2.09188 0.55403 0
M  V30 5904 C 538.032 1.9317 -2.78336 0
M  V30 5905 C 536.591 2.46405 -2.84538 0
M  V30 5906 C 535.738 1.24521 -2.4777 0
M  V30 5907 H 538.689 0.26333 -1.565 0
M  V30 5908 H 538.71 2.78123 -2.59669 0
M  V30 5909 H 538.222 1.29683 -3.65792 0
M  V30 5910 H 536.323 3.13472 -2.01411 0
M  V30 5911 H 536.436 2.82143 -3.87211 0
M  V30 5912 H 534.8 1.57706 -2.00003 0
M  V30 5913 H 535.583 0.627102 -3.37524 0
M  V30 5914 N 538.028 1.39524 0.732853 0
M  V30 5915 C 538.958 1.41153 1.86005 0
M  V30 5916 C 539.939 0.274614 1.67869 0
M  V30 5917 O 541.124 0.480745 1.88155 0
M  V30 5918 C 538.254 1.25638 3.23778 0
M  V30 5919 C 537.208 2.36752 3.56556 0
M  V30 5920 C 536.534 2.06326 4.93289 0
M  V30 5921 C 537.834 3.79069 3.5931 0
M  V30 5922 H 539.528 2.35484 1.84899 0
M  V30 5923 H 537.074 1.13348 0.888162 0
M  V30 5924 H 539.027 1.25398 4.0231 0
M  V30 5925 H 537.751 0.277772 3.25417 0
M  V30 5926 H 536.41 2.36213 2.80355 0
M  V30 5927 H 536.058 1.06897 4.9151 0
M  V30 5928 H 535.758 2.80757 5.16187 0
M  V30 5929 H 537.282 2.07739 5.74175 0
M  V30 5930 H 538.696 3.81526 4.27914 0
M  V30 5931 H 537.093 4.52878 3.93728 0
M  V30 5932 H 538.163 4.09893 2.59068 0
M  V30 5933 N 539.506 -0.963266 1.24736 0
M  V30 5934 C 540.436 -2.07628 1.06832 0
M  V30 5935 C 541.417 -1.70088 -0.0200566 0
M  V30 5936 O 542.602 -1.93636 0.147854 0
M  V30 5937 C 539.732 -3.40636 0.677069 0
M  V30 5938 C 538.686 -3.9215 1.71471 0
M  V30 5939 C 538.012 -5.21553 1.1784 0
M  V30 5940 C 539.312 -4.19493 3.11164 0
M  V30 5941 H 541.006 -2.22864 1.9993 0
M  V30 5942 H 538.552 -1.07093 0.96266 0
M  V30 5943 H 540.505 -4.17941 0.538792 0
M  V30 5944 H 539.229 -3.25313 -0.289612 0
M  V30 5945 H 537.888 -3.17005 1.84128 0
M  V30 5946 H 537.536 -5.02593 0.202195 0
M  V30 5947 H 537.236 -5.56988 1.87185 0
M  V30 5948 H 538.76 -6.01463 1.05233 0
M  V30 5949 H 540.174 -4.87487 3.01711 0
M  V30 5950 H 538.571 -4.66165 3.77902 0
M  V30 5951 H 539.641 -3.26097 3.58871 0
M  V30 5952 N 540.985 -1.06182 -1.16461 0
M  V30 5953 C 541.933 -0.665716 -2.2287 0
M  V30 5954 C 542.927 0.317822 -1.66392 0
M  V30 5955 O 544.133 0.182807 -1.79069 0
M  V30 5956 H 540.508 -0.197148 -0.725697 0
M  V30 5957 H 542.479 -1.57307 -2.53569 0
M  V30 5958 C 541.228 -0.0669803 -3.47635 0
M  V30 5959 H 540.551 -0.814899 -3.91407 0
M  V30 5960 H 541.991 0.172669 -4.23648 0
M  V30 5961 C 540.45 1.18913 -3.15216 0
M  V30 5962 O 540.98 2.27723 -3.30916 0
M  V30 5963 N 539.186 1.09066 -2.69357 0
M  V30 5964 H 538.733 0.20518 -2.56782 0
M  V30 5965 H 538.691 1.93195 -2.48039 0
M  V30 5966 N 542.463 1.3308 -0.844243 0
M  V30 5967 C 543.395 2.27954 -0.238671 0
M  V30 5968 C 544.408 1.51978 0.583665 0
M  V30 5969 O 545.597 1.73731 0.409857 0
M  V30 5970 C 542.697 3.31963 0.682185 0
M  V30 5971 C 541.87 4.37281 -0.101998 0
M  V30 5972 C 540.929 5.20928 0.743022 0
M  V30 5973 O 539.955 5.68914 0.180285 0
M  V30 5974 N 541.157 5.42738 2.0595 0
M  V30 5975 H 543.922 2.8056 -1.05386 0
M  V30 5976 H 541.483 1.4583 -0.70322 0
M  V30 5977 H 543.475 3.84828 1.25259 0
M  V30 5978 H 542.045 2.79594 1.39808 0
M  V30 5979 H 541.265 3.84843 -0.853802 0
M  V30 5980 H 542.553 5.04746 -0.641015 0
M  V30 5981 H 541.951 5.05463 2.54016 0
M  V30 5982 H 540.508 5.98639 2.57827 0
M  V30 5983 N 543.941 0.601185 1.45683 0
M  V30 5984 C 545.169 0.100054 2.06658 0
M  V30 5985 C 545.584 -1.21285 1.44691 0
M  V30 5986 O 544.941 -1.73735 0.558772 0
M  V30 5987 C 544.992 -0.0528579 3.61461 0
M  V30 5988 O 544.713 1.20809 4.21114 0
M  V30 5989 C 546.214 -0.586193 4.39407 0
M  V30 5990 H 543.434 0.065905 0.667756 0
M  V30 5991 H 545.978 0.827101 1.87028 0
M  V30 5992 H 544.133 -0.730203 3.80456 0
M  V30 5993 H 544.547 1.03368 5.14213 0
M  V30 5994 H 546.021 -0.642297 5.4825 0
M  V30 5995 H 546.498 -1.60713 4.0874 0
M  V30 5996 H 547.104 0.0568935 4.25262 0
M  V30 5997 N 545.419 -1.53889 0.339982 0
M  V30 5998 C 546.668 -2.00035 -0.258604 0
M  V30 5999 C 546.981 -1.23179 -1.51942 0
M  V30 6000 O 548.187 -1.59784 -2.19503 0
M  V30 6001 C 546.643 -3.56249 -0.511359 0
M  V30 6002 C 546.251 -4.41957 0.733349 0
M  V30 6003 C 547.995 -4.1082 -1.069 0
M  V30 6004 C 545.902 -5.89673 0.451591 0
M  V30 6005 H 544.832 -0.747284 -0.10041 0
M  V30 6006 H 547.483 -1.77776 0.454758 0
M  V30 6007 H 545.865 -3.7456 -1.28533 0
M  V30 6008 H 547.039 -4.35421 1.50815 0
M  V30 6009 H 545.354 -3.9836 1.21237 0
M  V30 6010 H 547.951 -5.18789 -1.2947 0
M  V30 6011 H 548.294 -3.63817 -2.02343 0
M  V30 6012 H 548.827 -3.96205 -0.355817 0
M  V30 6013 H 545.566 -6.40903 1.37565 0
M  V30 6014 H 545.086 -5.99122 -0.285193 0
M  V30 6015 H 546.765 -6.46965 0.0675067 0
M  V30 6016 N 546.897 -0.0685191 -1.57451 0
M  V30 6017 C 547.844 0.899861 -2.12535 0
M  V30 6018 C 548.814 1.29749 -1.03703 0
M  V30 6019 O 549.999 1.38392 -1.31348 0
M  V30 6020 C 547.139 2.16328 -2.6888 0
M  V30 6021 C 546.252 1.81857 -3.91857 0
M  V30 6022 C 545.387 3.02786 -4.36457 0
M  V30 6023 C 544.426 2.64317 -5.5209 0
M  V30 6024 N 543.563 3.77994 -5.91663 0
M  V30 6025 H 548.403 0.423243 -2.94979 0
M  V30 6026 H 545.94 0.197268 -1.45771 0
M  V30 6027 H 547.898 2.90281 -2.99655 0
M  V30 6028 H 546.528 2.61536 -1.89206 0
M  V30 6029 H 545.58 0.979808 -3.67565 0
M  V30 6030 H 546.892 1.49553 -4.75852 0
M  V30 6031 H 546.046 3.85021 -4.68875 0
M  V30 6032 H 544.785 3.38281 -3.51308 0
M  V30 6033 H 543.79 1.80503 -5.19325 0
M  V30 6034 H 545.015 2.29995 -6.38967 0
M  V30 6035 H 542.961 4.13258 -5.09464 0
M  V30 6036 H 542.878 3.49447 -6.7039 0
M  V30 6037 H 544.146 4.60818 -6.28703 0
M  V30 6038 N 548.375 1.56261 0.205012 0
M  V30 6039 C 549.285 1.96944 1.27476 0
M  V30 6040 C 550.301 0.875636 1.50362 0
M  V30 6041 O 551.477 1.18058 1.6317 0
M  V30 6042 C 548.542 2.29219 2.60115 0
M  V30 6043 C 547.603 3.52255 2.45387 0
M  V30 6044 C 546.836 3.8298 3.71701 0
M  V30 6045 O 547.059 3.15138 4.75441 0
M  V30 6046 O 545.993 4.76435 3.67823 0
M  V30 6047 H 549.819 2.88144 0.959527 0
M  V30 6048 H 547.404 1.43686 0.409217 0
M  V30 6049 H 549.286 2.51098 3.3842 0
M  V30 6050 H 547.961 1.4119 2.91285 0
M  V30 6051 H 546.868 3.35635 1.65227 0
M  V30 6052 H 548.201 4.40719 2.19152 0
M  V30 6053 N 549.853 -0.472356 1.50355 0
M  V30 6054 C 551.081 -1.24784 1.65035 0
M  V30 6055 C 551.496 -1.85837 0.333176 0
M  V30 6056 O 550.853 -1.69168 -0.68472 0
M  V30 6057 C 550.904 -2.35747 2.74054 0
M  V30 6058 O 550.625 -1.77197 4.00665 0
M  V30 6059 C 552.126 -3.26645 2.99696 0
M  V30 6060 H 549.346 -0.377432 0.554785 0
M  V30 6061 H 551.89 -0.563962 1.9657 0
M  V30 6062 H 550.045 -2.99912 2.45217 0
M  V30 6063 H 550.459 -2.5026 4.60945 0
M  V30 6064 H 551.933 -4.00718 3.79644 0
M  V30 6065 H 552.41 -3.8535 2.10718 0
M  V30 6066 H 553.016 -2.68218 3.3006 0
M  V30 6067 N 551.331 -1.39911 -0.725443 0
M  V30 6068 C 552.261 -1.42138 -1.85254 0
M  V30 6069 C 553.242 -0.283513 -1.67721 0
M  V30 6070 O 554.427 -0.490717 -1.87898 0
M  V30 6071 C 551.557 -1.27354 -3.23107 0
M  V30 6072 C 550.511 -2.3864 -3.55296 0
M  V30 6073 C 549.837 -2.08939 -4.92188 0
M  V30 6074 C 551.137 -3.8097 -3.57295 0
M  V30 6075 H 552.831 -2.36461 -1.83648 0
M  V30 6076 H 550.377 -1.13817 -0.882138 0
M  V30 6077 H 552.33 -1.2753 -4.01639 0
M  V30 6078 H 551.054 -0.295025 -3.25265 0
M  V30 6079 H 549.713 -2.37696 -2.79099 0
M  V30 6080 H 549.361 -1.09502 -4.90936 0
M  V30 6081 H 549.061 -2.83491 -5.14691 0
M  V30 6082 H 550.585 -2.10781 -5.73065 0
M  V30 6083 H 551.999 -3.8379 -4.25885 0
M  V30 6084 H 550.396 -4.5496 -3.9132 0
M  V30 6085 H 551.466 -4.11261 -2.5689 0
M  V30 6086 N 552.809 0.956637 -1.25245 0
M  V30 6087 C 554.225 1.22733 -1.02023 0
M  V30 6088 C 554.425 1.99761 0.264186 0
M  V30 6089 O 553.481 2.32814 0.977436 0
M  V30 6090 C 554.794 2.00367 -2.24217 0
M  V30 6091 C 556.342 2.13418 -2.28958 0
M  V30 6092 C 556.817 2.9445 -3.50803 0
M  V30 6093 N 558.308 3.02029 -3.51187 0
M  V30 6094 C 559.043 3.65116 -4.42129 0
M  V30 6095 N 558.539 4.2983 -5.43339 0
M  V30 6096 N 560.332 3.62237 -4.29815 0
M  V30 6097 H 552.483 0.441282 -2.07765 0
M  V30 6098 H 554.746 0.257686 -0.912306 0
M  V30 6099 H 554.452 1.51165 -3.17556 0
M  V30 6100 H 554.326 3.01077 -2.27228 0
M  V30 6101 H 556.713 2.61819 -1.36143 0
M  V30 6102 H 556.794 1.1202 -2.29968 0
M  V30 6103 H 556.438 2.46741 -4.43939 0
M  V30 6104 H 556.368 3.9607 -3.47039 0
M  V30 6105 H 558.859 2.56007 -2.77973 0
M  V30 6106 H 559.172 4.75819 -6.08947 0
M  V30 6107 H 557.517 4.28465 -5.47214 0
M  V30 6108 H 560.708 3.10863 -3.49974 0
M  V30 6109 H 560.881 4.11117 -5.00886 0
M  V30 6110 N 554.287 1.06798 1.15896 0
M  V30 6111 C 555.22 0.627503 2.19403 0
M  V30 6112 C 556.198 -0.352352 1.58736 0
M  V30 6113 O 557.382 -0.260111 1.86697 0
M  V30 6114 C 554.509 -0.079356 3.38607 0
M  V30 6115 C 553.555 0.858057 4.17779 0
M  V30 6116 S 554.388 2.35605 4.80885 0
M  V30 6117 C 555.544 1.66083 6.03463 0
M  V30 6118 H 555.777 1.50441 2.56427 0
M  V30 6119 H 553.31 0.881427 1.26768 0
M  V30 6120 H 555.268 -0.48095 4.07673 0
M  V30 6121 H 553.929 -0.932524 2.99938 0
M  V30 6122 H 553.122 0.310108 5.03045 0
M  V30 6123 H 552.724 1.19977 3.54234 0
M  V30 6124 H 555.016 0.969337 6.7053 0
M  V30 6125 H 555.959 2.49159 6.62816 0
M  V30 6126 H 556.367 1.14122 5.52844 0
M  V30 6127 N 555.766 -1.3263 0.851289 0
M  V30 6128 C 556.716 -2.26451 0.265302 0
M  V30 6129 C 557.7 -1.49814 -0.586899 0
M  V30 6130 O 558.892 -1.71525 -0.436834 0
M  V30 6131 C 556.021 -3.38895 -0.548212 0
M  V30 6132 C 555.107 -4.2292 0.316189 0
M  V30 6133 N 555.498 -4.86014 1.40084 0
M  V30 6134 C 553.796 -4.45876 0.105356 0
M  V30 6135 C 554.497 -5.48667 1.93235 0
M  V30 6136 N 553.473 -5.29455 1.232 0
M  V30 6137 H 557.275 -2.72757 1.09457 0
M  V30 6138 H 554.789 -1.4668 0.697047 0
M  V30 6139 H 556.786 -4.05111 -0.984402 0
M  V30 6140 H 555.446 -2.94135 -1.37531 0
M  V30 6141 H 556.457 -4.86212 1.78377 0
M  V30 6142 H 553.134 -4.11804 -0.687299 0
M  V30 6143 H 554.524 -6.08865 2.84135 0
M  V30 6144 N 557.244 -0.608902 -1.45362 0
M  V30 6145 C 558.194 0.130616 -2.27626 0
M  V30 6146 C 559.178 0.837323 -1.37396 0
M  V30 6147 O 560.37 0.727096 -1.61376 0
M  V30 6148 C 557.499 1.12646 -3.24293 0
M  V30 6149 C 556.585 0.42052 -4.2201 0
M  V30 6150 N 556.976 -0.538569 -5.02925 0
M  V30 6151 C 555.274 0.667901 -4.40971 0
M  V30 6152 C 555.975 -0.953625 -5.7383 0
M  V30 6153 N 554.951 -0.297097 -5.42788 0
M  V30 6154 H 558.753 -0.605996 -2.87585 0
M  V30 6155 H 556.267 -0.432672 -1.5653 0
M  V30 6156 H 558.264 1.67066 -3.81961 0
M  V30 6157 H 556.924 1.86361 -2.65894 0
M  V30 6158 H 557.935 -0.915375 -5.09746 0
M  V30 6159 H 554.612 1.38963 -3.93695 0
M  V30 6160 H 556.002 -1.74473 -6.48852 0
M  V30 6161 N 558.722 1.53707 -0.348139 0
M  V30 6162 C 560.133 1.86213 0.134797 0
M  V30 6163 C 560.484 1.26925 1.49614 0
M  V30 6164 O 559.609 0.584573 2.08355 0
M  V30 6165 C 560.204 3.37866 0.251371 0
M  V30 6166 C 558.763 3.70233 0.678543 0
M  V30 6167 C 557.91 2.76683 -0.184925 0
M  V30 6168 H 560.861 1.48204 -0.567571 0
M  V30 6169 H 560.882 3.64908 1.07806 0
M  V30 6170 H 560.394 3.80988 -0.739581 0
M  V30 6171 H 558.495 3.32659 1.67835 0
M  V30 6172 H 558.608 4.76836 0.465251 0
M  V30 6173 H 556.972 2.52374 0.343465 0
M  V30 6174 H 557.755 3.22635 -1.1731 0
M  V30 6175 N 560.2 0.0768682 1.57412 0
M  V30 6176 C 561.13 -0.886026 2.16037 0
M  V30 6177 C 562.111 -1.30691 1.08876 0
M  V30 6178 O 563.296 -1.37705 1.36934 0
M  V30 6179 C 560.426 -2.1518 2.72608 0
M  V30 6180 C 559.38 -1.87015 3.8498 0
M  V30 6181 C 558.706 -3.20266 4.28175 0
M  V30 6182 C 560.006 -1.17143 5.08994 0
M  V30 6183 H 561.7 -0.397642 2.96748 0
M  V30 6184 H 559.246 -0.189823 1.42743 0
M  V30 6185 H 561.199 -2.82962 3.12266 0
M  V30 6186 H 559.923 -2.66269 1.89125 0
M  V30 6187 H 558.582 -1.21636 3.45833 0
M  V30 6188 H 558.23 -3.69207 3.41607 0
M  V30 6189 H 557.93 -3.0221 5.03927 0
M  V30 6190 H 559.454 -3.89237 4.70454 0
M  V30 6191 H 560.868 -1.75003 5.45937 0
M  V30 6192 H 559.265 -1.09328 5.90057 0
M  V30 6193 H 560.335 -0.151295 4.84664 0
M  V30 6194 N 561.678 -1.56367 -0.196722 0
M  V30 6195 C 562.628 -1.9082 -1.24787 0
M  V30 6196 C 563.612 -0.773719 -1.41076 0
M  V30 6197 O 564.804 -1.03655 -1.43474 0
M  V30 6198 C 561.933 -2.24982 -2.59303 0
M  V30 6199 C 561.019 -3.44882 -2.46814 0
M  V30 6200 N 561.41 -4.62835 -2.04003 0
M  V30 6201 C 559.708 -3.48988 -2.77711 0
M  V30 6202 C 560.409 -5.44993 -2.03366 0
M  V30 6203 N 559.385 -4.85356 -2.44807 0
M  V30 6204 H 563.187 -2.79516 -0.908175 0
M  V30 6205 H 560.701 -1.57265 -0.405166 0
M  V30 6206 H 562.698 -2.47848 -3.35227 0
M  V30 6207 H 561.358 -1.37611 -2.94098 0
M  V30 6208 H 562.369 -4.87532 -1.74738 0
M  V30 6209 H 559.046 -2.72029 -3.16712 0
M  V30 6210 H 560.436 -6.49464 -1.72181 0
M  V30 6211 N 563.156 0.464375 -1.50603 0
M  V30 6212 C 564.381 1.24372 -1.65971 0
M  V30 6213 C 564.806 1.84901 -0.345453 0
M  V30 6214 O 564.164 1.67596 0.691457 0
M  V30 6215 C 564.212 2.32331 -2.7578 0
M  V30 6216 O 563.316 3.37146 -2.375 0
M  V30 6217 H 562.657 0.365604 -0.554283 0
M  V30 6218 H 565.187 0.55183 -1.97018 0
M  V30 6219 H 565.197 2.77539 -2.99059 0
M  V30 6220 H 563.872 1.87648 -3.71162 0
M  V30 6221 H 562.449 2.97602 -2.24694 0
M  V30 6222 N 564.634 1.40294 0.718013 0
M  V30 6223 C 565.564 1.43118 1.84498 0
M  V30 6224 C 566.545 0.292403 1.67568 0
M  V30 6225 O 567.73 0.500675 1.87635 0
M  V30 6226 C 564.86 1.29065 3.22427 0
M  V30 6227 C 563.814 2.40521 3.54025 0
M  V30 6228 C 563.14 2.11546 4.91073 0
M  V30 6229 C 564.44 3.82859 3.55269 0
M  V30 6230 H 566.134 2.37432 1.82391 0
M  V30 6231 H 563.68 1.14283 0.87609 0
M  V30 6232 H 565.633 1.29658 4.00957 0
M  V30 6233 H 564.357 0.312271 3.25104 0
M  V30 6234 H 563.016 2.39173 2.77834 0
M  V30 6235 H 562.664 1.12104 4.90348 0
M  V30 6236 H 562.364 2.86216 5.1318 0
M  V30 6237 H 563.888 2.13817 5.71939 0
M  V30 6238 H 565.302 3.86044 4.23843 0
M  V30 6239 H 563.699 4.57029 3.88902 0
M  V30 6240 H 564.769 4.12617 2.54706 0
M  V30 6241 N 566.112 -0.949982 1.2575 0
M  V30 6242 C 567.359 -1.69515 1.10774 0
M  V30 6243 C 567.687 -1.91316 -0.350479 0
M  V30 6244 O 566.942 -1.48515 -1.27443 0
M  V30 6245 C 567.241 -3.08039 1.81237 0
M  V30 6246 C 566.907 -3.06023 3.31151 0
M  V30 6247 C 565.569 -3.0518 3.72047 0
M  V30 6248 C 567.921 -2.98998 4.26907 0
M  V30 6249 C 565.249 -2.95067 5.07102 0
M  V30 6250 C 567.601 -2.90426 5.61992 0
M  V30 6251 C 566.265 -2.87922 6.0221 0
M  V30 6252 H 565.535 -0.6203 0.405351 0
M  V30 6253 H 568.182 -1.10953 1.56082 0
M  V30 6254 H 566.487 -3.70172 1.28373 0
M  V30 6255 H 568.184 -3.64526 1.67098 0
M  V30 6256 H 564.774 -3.07453 2.98614 0
M  V30 6257 H 568.958 -2.98764 3.963 0
M  V30 6258 H 564.214 -2.915 5.37436 0
M  V30 6259 H 568.388 -2.83952 6.35881 0
M  V30 6260 H 566.015 -2.79841 7.06819 0
M  V30 6261 N 567.59 -1.07411 -1.15328 0
M  V30 6262 C 569.006 -0.799759 -1.38116 0
M  V30 6263 C 569.206 0.59572 -1.92493 0
M  V30 6264 O 568.262 1.35433 -2.13106 0
M  V30 6265 C 569.575 -1.87407 -2.35158 0
M  V30 6266 C 571.123 -1.89889 -2.48819 0
M  V30 6267 C 571.598 -2.96406 -3.49153 0
M  V30 6268 N 573.089 -2.95512 -3.56689 0
M  V30 6269 C 573.824 -3.74575 -4.34144 0
M  V30 6270 N 573.32 -4.63488 -5.14928 0
M  V30 6271 N 575.113 -3.62919 -4.29239 0
M  V30 6272 H 567.264 -1.97411 -0.78374 0
M  V30 6273 H 569.527 -0.856113 -0.407154 0
M  V30 6274 H 569.233 -2.8768 -2.0232 0
M  V30 6275 H 569.107 -1.73471 -3.34944 0
M  V30 6276 H 571.494 -0.902677 -2.80955 0
M  V30 6277 H 571.575 -2.07904 -1.49029 0
M  V30 6278 H 571.219 -3.96227 -3.17752 0
M  V30 6279 H 571.149 -2.75638 -4.48699 0
M  V30 6280 H 573.64 -2.31061 -2.99031 0
M  V30 6281 H 573.953 -5.20445 -5.71276 0
M  V30 6282 H 572.298 -4.67537 -5.14232 0
M  V30 6283 H 575.489 -2.92833 -3.65194 0
M  V30 6284 H 575.662 -4.24777 -4.89355 0
M  V30 6285 N 569.068 1.32177 -0.85831 0
M  V30 6286 C 570.015 2.28794 -0.303607 0
M  V30 6287 C 570.985 1.55213 0.591453 0
M  V30 6288 O 572.17 1.83418 0.525585 0
M  V30 6289 C 569.31 3.41475 0.49889 0
M  V30 6290 C 568.423 4.2993 -0.422373 0
M  V30 6291 C 567.558 5.29743 0.393111 0
M  V30 6292 C 566.597 6.09842 -0.525317 0
M  V30 6293 N 565.734 7.01643 0.253208 0
M  V30 6294 H 570.574 2.75631 -1.13276 0
M  V30 6295 H 568.111 1.35606 -0.570026 0
M  V30 6296 H 570.069 4.05531 0.979826 0
M  V30 6297 H 568.699 2.95779 1.29284 0
M  V30 6298 H 567.751 3.66422 -1.02171 0
M  V30 6299 H 569.063 4.85899 -1.12709 0
M  V30 6300 H 568.217 5.9942 0.937056 0
M  V30 6301 H 566.956 4.744 1.13117 0
M  V30 6302 H 565.961 5.39066 -1.08112 0
M  V30 6303 H 567.186 6.6727 -1.26205 0
M  V30 6304 H 565.132 6.48725 0.974295 0
M  V30 6305 H 565.049 7.54981 -0.392398 0
M  V30 6306 H 566.317 7.756 0.778761 0
M  V30 6307 N 570.547 0.616602 1.45037 0
M  V30 6308 C 571.793 0.115501 2.02471 0
M  V30 6309 C 572.126 -1.25406 1.4828 0
M  V30 6310 O 571.401 -1.82922 0.661051 0
M  V30 6311 C 571.684 0.0863588 3.59996 0
M  V30 6312 C 571.537 1.48723 4.24501 0
M  V30 6313 C 572.856 -0.596762 4.36035 0
M  V30 6314 H 569.975 0.0434461 0.735718 0
M  V30 6315 H 572.617 0.7903 1.72784 0
M  V30 6316 H 570.767 -0.488277 3.85419 0
M  V30 6317 H 572.439 2.10964 4.10234 0
M  V30 6318 H 570.682 2.04534 3.82555 0
M  V30 6319 H 571.353 1.419 5.3345 0
M  V30 6320 H 573.829 -0.10824 4.15959 0
M  V30 6321 H 572.705 -0.586289 5.4576 0
M  V30 6322 H 572.966 -1.66451 4.09569 0
M  V30 6323 N 572.025 -1.5352 0.356285 0
M  V30 6324 C 572.958 -2.2177 -0.537913 0
M  V30 6325 C 573.936 -1.20626 -1.09033 0
M  V30 6326 O 575.12 -1.49494 -1.1482 0
M  V30 6327 C 572.247 -2.90513 -1.74126 0
M  V30 6328 C 571.293 -4.05652 -1.31715 0
M  V30 6329 S 572.126 -5.34505 -0.326236 0
M  V30 6330 C 573.282 -6.06757 -1.53612 0
M  V30 6331 H 573.515 -2.97271 0.0417411 0
M  V30 6332 H 571.048 -1.53761 0.140372 0
M  V30 6333 H 573.006 -3.30735 -2.43155 0
M  V30 6334 H 571.667 -2.14754 -2.29215 0
M  V30 6335 H 570.86 -4.52733 -2.21471 0
M  V30 6336 H 570.462 -3.67272 -0.706183 0
M  V30 6337 H 572.754 -6.30924 -2.46863 0
M  V30 6338 H 573.697 -6.99395 -1.10687 0
M  V30 6339 H 574.105 -5.3708 -1.73796 0
M  V30 6340 N 573.503 -0.0852151 -1.57369 0
M  V30 6341 C 574.45 0.877268 -2.13478 0
M  V30 6342 C 575.42 1.28642 -1.05073 0
M  V30 6343 O 576.605 1.36992 -1.32808 0
M  V30 6344 C 573.745 2.13464 -2.71159 0
M  V30 6345 C 572.858 1.77691 -3.93764 0
M  V30 6346 C 571.993 2.98139 -4.39643 0
M  V30 6347 C 571.032 2.58447 -5.54862 0
M  V30 6348 N 570.169 3.71698 -5.95639 0
M  V30 6349 H 575.009 0.391933 -2.95411 0
M  V30 6350 H 572.546 0.181796 -1.45972 0
M  V30 6351 H 574.504 2.87086 -3.02717 0
M  V30 6352 H 573.134 2.59514 -1.91969 0
M  V30 6353 H 572.186 0.940768 -3.68583 0
M  V30 6354 H 573.498 1.44497 -4.77412 0
M  V30 6355 H 572.652 3.80026 -4.72933 0
M  V30 6356 H 571.391 3.34536 -3.54876 0
M  V30 6357 H 570.396 1.74984 -5.21211 0
M  V30 6358 H 571.621 2.23205 -6.41371 0
M  V30 6359 H 569.567 4.07831 -5.13819 0
M  V30 6360 H 569.484 3.42317 -6.74059 0
M  V30 6361 H 570.752 4.54123 -6.33555 0
M  V30 6362 N 574.981 1.5647 0.188427 0
M  V30 6363 C 576.258 1.71857 0.934058 0
M  V30 6364 C 576.638 0.641867 2.01105 0
M  V30 6365 O 575.986 -0.346098 2.25864 0
M  V30 6366 C 576.196 3.14431 1.5144 0
M  V30 6367 C 577.544 3.74869 1.99396 0
M  V30 6368 O 578.568 3.17601 1.61269 0
M  V30 6369 O 577.427 4.75387 2.69573 0
M  V30 6370 H 574.521 0.701186 0.438483 0
M  V30 6371 H 577.067 1.68768 0.177599 0
M  V30 6372 H 575.839 3.8427 0.738416 0
M  V30 6373 H 575.462 3.21775 2.33552 0
M  V30 6374 N 576.459 -0.456382 1.50847 0
M  V30 6375 C 577.392 -1.57177 1.65441 0
M  V30 6376 C 578.37 -1.54649 0.502224 0
M  V30 6377 O 579.554 -1.74057 0.723633 0
M  V30 6378 C 576.681 -2.95763 1.65052 0
M  V30 6379 C 575.727 -3.16389 2.86007 0
M  V30 6380 S 576.56 -2.94716 4.47105 0
M  V30 6381 C 577.716 -4.35617 4.49432 0
M  V30 6382 H 577.949 -1.44561 2.59787 0
M  V30 6383 H 575.482 -0.644758 1.40293 0
M  V30 6384 H 577.44 -3.75654 1.65512 0
M  V30 6385 H 576.101 -3.05756 0.719153 0
M  V30 6386 H 575.294 -4.17667 2.82081 0
M  V30 6387 H 574.896 -2.44293 2.8319 0
M  V30 6388 H 577.188 -5.28503 4.239 0
M  V30 6389 H 578.131 -4.44582 5.51137 0
M  V30 6390 H 578.539 -4.18382 3.78967 0
M  V30 6391 N 577.937 -1.40673 -0.710563 0
M  V30 6392 C 578.887 -1.37812 -1.81636 0
M  V30 6393 C 579.871 -0.254853 -1.58869 0
M  V30 6394 O 581.063 -0.494356 -1.69956 0
M  V30 6395 C 578.192 -1.24802 -3.19811 0
M  V30 6396 C 577.278 -2.41931 -3.48325 0
M  V30 6397 N 577.669 -3.67411 -3.47625 0
M  V30 6398 C 575.967 -2.35419 -3.78806 0
M  V30 6399 C 576.668 -4.45008 -3.74623 0
M  V30 6400 N 575.644 -3.74916 -3.93623 0
M  V30 6401 H 579.446 -2.32766 -1.79436 0
M  V30 6402 H 576.96 -1.34516 -0.909909 0
M  V30 6403 H 578.957 -1.20835 -3.99004 0
M  V30 6404 H 577.617 -0.308202 -3.23234 0
M  V30 6405 H 578.628 -4.00503 -3.28356 0
M  V30 6406 H 575.305 -1.4983 -3.89689 0
M  V30 6407 H 576.695 -5.53884 -3.80344 0
M  V30 6408 N 579.415 0.9433 -1.26252 0
M  V30 6409 C 580.661 1.69175 -1.11837 0
M  V30 6410 C 580.994 1.91238 0.337891 0
M  V30 6411 O 580.269 1.49152 1.24836 0
M  V30 6412 C 580.552 3.06783 -1.88563 0
M  V30 6413 C 580.405 2.9206 -3.42083 0
M  V30 6414 C 581.724 4.06865 -1.67776 0
M  V30 6415 H 578.843 0.61399 -0.407658 0
M  V30 6416 H 581.485 1.09572 -1.55222 0
M  V30 6417 H 579.635 3.57663 -1.51689 0
M  V30 6418 H 581.307 2.48419 -3.88698 0
M  V30 6419 H 579.55 2.27731 -3.69217 0
M  V30 6420 H 580.221 3.89651 -3.90994 0
M  V30 6421 H 582.697 3.64939 -1.99897 0
M  V30 6422 H 581.573 5.01168 -2.23879 0
M  V30 6423 H 581.834 4.37705 -0.621816 0
M  V30 6424 N 580.893 1.08022 1.14757 0
M  V30 6425 C 582.304 0.829144 1.67279 0
M  V30 6426 C 582.655 -0.644721 1.85305 0
M  V30 6427 O 581.78 -1.49838 1.56133 0
M  V30 6428 C 582.375 1.49855 3.03857 0
M  V30 6429 C 580.934 1.29482 3.53428 0
M  V30 6430 C 580.081 1.56386 2.28995 0
M  V30 6431 H 583.032 1.24134 0.988762 0
M  V30 6432 H 583.053 0.923572 3.69121 0
M  V30 6433 H 582.565 2.57123 2.90705 0
M  V30 6434 H 580.666 0.242669 3.71809 0
M  V30 6435 H 580.779 2.01974 4.34446 0
M  V30 6436 H 579.143 0.985217 2.34874 0
M  V30 6437 H 579.926 2.64851 2.18423 0
M  V30 6438 N 582.371 -1.3172 0.865308 0
M  V30 6439 C 583.319 -2.30569 0.306674 0
M  V30 6440 C 584.313 -1.59317 -0.575724 0
M  V30 6441 O 585.519 -1.73961 -0.462343 0
M  V30 6442 H 581.894 -0.747681 0.0804834 0
M  V30 6443 H 583.865 -2.75165 1.15441 0
M  V30 6444 C 582.614 -3.44358 -0.480952 0
M  V30 6445 H 581.937 -3.99354 0.18876 0
M  V30 6446 H 583.377 -4.15652 -0.837241 0
M  V30 6447 C 581.836 -2.92574 -1.67039 0
M  V30 6448 O 582.366 -2.90954 -2.76964 0
M  V30 6449 N 580.572 -2.48835 -1.50097 0
M  V30 6450 H 580.119 -2.50353 -0.606738 0
M  V30 6451 H 580.077 -2.14543 -2.29823 0
M  V30 6452 N 583.85 -0.624285 -1.44708 0
M  V30 6453 C 585.077 -0.132919 -2.06473 0
M  V30 6454 C 585.493 1.18967 -1.46602 0
M  V30 6455 O 584.85 1.72824 -0.586341 0
M  V30 6456 C 584.901 -0.00465418 -3.615 0
M  V30 6457 O 584.622 -1.27494 -4.19138 0
M  V30 6458 C 586.123 0.516213 -4.40284 0
M  V30 6459 H 583.343 -0.0765201 -0.666623 0
M  V30 6460 H 585.887 -0.856751 -1.85688 0
M  V30 6461 H 584.042 0.669583 -3.8157 0
M  V30 6462 H 584.456 -1.11536 -5.12504 0
M  V30 6463 H 585.93 0.554994 -5.49203 0
M  V30 6464 H 586.407 1.5419 -4.11245 0
M  V30 6465 H 587.013 -0.124542 -4.25118 0
M  V30 6466 N 585.328 1.53329 -0.364422 0
M  V30 6467 C 586.553 2.06132 0.229033 0
M  V30 6468 C 586.978 1.23625 1.41769 0
M  V30 6469 O 586.336 0.255038 1.79497 0
M  V30 6470 C 586.384 3.55544 0.60174 0
M  V30 6471 O 585.488 3.75771 1.69912 0
M  V30 6472 H 584.829 0.663148 0.0336213 0
M  V30 6473 H 587.359 1.97758 -0.524689 0
M  V30 6474 H 587.369 3.98549 0.873073 0
M  V30 6475 H 586.044 4.15039 -0.267421 0
M  V30 6476 H 584.621 3.44663 1.42343 0
M  V30 6477 N 586.806 0.0935595 1.57322 0
M  V30 6478 C 588.036 -0.578095 1.98347 0
M  V30 6479 C 588.444 -1.62357 0.971441 0
M  V30 6480 O 587.787 -1.83639 -0.0473959 0
M  V30 6481 C 587.849 -1.28525 3.3574 0
M  V30 6482 C 587.513 -0.390714 4.55327 0
M  V30 6483 C 588.51 0.360522 5.18648 0
M  V30 6484 C 586.195 -0.309221 5.01347 0
M  V30 6485 C 588.189 1.18125 6.26359 0
M  V30 6486 C 585.876 0.515157 6.08925 0
M  V30 6487 C 586.874 1.25904 6.71295 0
M  V30 6488 O 586.562 2.06978 7.76798 0
M  V30 6489 H 586.294 -0.159767 0.656849 0
M  V30 6490 H 588.848 0.169058 2.04703 0
M  V30 6491 H 587.078 -2.07894 3.26063 0
M  V30 6492 H 588.767 -1.85128 3.61223 0
M  V30 6493 H 589.533 0.307285 4.84026 0
M  V30 6494 H 585.412 -0.877881 4.52564 0
M  V30 6495 H 588.956 1.76236 6.74971 0
M  V30 6496 H 584.853 0.56988 6.42979 0
M  V30 6497 H 585.621 1.99644 7.93779 0
M  V30 6498 N 588.284 -1.56567 -0.180126 0
M  V30 6499 C 589.53 -1.81761 -0.899497 0
M  V30 6500 C 589.863 -0.670015 -1.82276 0
M  V30 6501 O 589.138 0.328575 -1.91705 0
M  V30 6502 C 589.421 -3.17296 -1.7028 0
M  V30 6503 C 589.274 -4.4257 -0.803255 0
M  V30 6504 C 590.593 -3.49678 -2.67233 0
M  V30 6505 H 587.712 -0.661192 -0.325567 0
M  V30 6506 H 590.354 -1.89272 -0.16612 0
M  V30 6507 H 588.504 -3.11023 -2.32802 0
M  V30 6508 H 590.176 -4.60902 -0.191585 0
M  V30 6509 H 588.419 -4.33658 -0.110796 0
M  V30 6510 H 589.09 -5.33935 -1.40064 0
M  V30 6511 H 591.566 -3.56347 -2.14839 0
M  V30 6512 H 590.442 -4.45605 -3.20511 0
M  V30 6513 H 590.703 -2.73932 -3.47007 0
M  V30 6514 N 589.762 0.448376 -1.51087 0
M  V30 6515 C 591.011 1.19561 -1.62444 0
M  V30 6516 C 591.324 1.92602 -0.341151 0
M  V30 6517 O 592.53 2.69439 -0.333936 0
M  V30 6518 C 590.986 2.17373 -2.8684 0
M  V30 6519 C 590.594 1.5003 -4.22131 0
M  V30 6520 C 592.338 2.92597 -3.0755 0
M  V30 6521 C 590.245 2.46262 -5.37689 0
M  V30 6522 H 589.175 0.449975 -0.605011 0
M  V30 6523 H 591.826 0.463735 -1.77544 0
M  V30 6524 H 590.208 2.93948 -2.65349 0
M  V30 6525 H 591.382 0.790886 -4.53962 0
M  V30 6526 H 589.697 0.870011 -4.0721 0
M  V30 6527 H 592.294 3.64663 -3.91056 0
M  V30 6528 H 592.637 3.53306 -2.20183 0
M  V30 6529 H 593.17 2.23131 -3.29329 0
M  V30 6530 H 589.909 1.90258 -6.27281 0
M  V30 6531 H 589.429 3.15289 -5.10248 0
M  V30 6532 H 591.108 3.07623 -5.6919 0
M  V30 6533 N 591.24 1.41047 0.703093 0
M  V30 6534 C 592.651 1.35657 1.28274 0
M  V30 6535 C 593.002 0.0360309 1.96167 0
M  V30 6536 O 592.127 -0.865833 1.98324 0
M  V30 6537 C 592.722 2.45707 2.33267 0
M  V30 6538 C 591.281 2.43738 2.86825 0
M  V30 6539 C 590.428 2.25941 1.60767 0
M  V30 6540 H 593.379 1.50672 0.49836 0
M  V30 6541 H 593.4 2.14333 3.14391 0
M  V30 6542 H 592.912 3.41805 1.83824 0
M  V30 6543 H 591.013 1.51375 3.40465 0
M  V30 6544 H 591.126 3.39779 3.37768 0
M  V30 6545 H 589.49 1.73681 1.86298 0
M  V30 6546 H 590.273 3.24054 1.1333 0
M  V30 6547 N 592.718 -0.936591 1.26751 0
M  V30 6548 C 593.681 -2.01752 1.08761 0
M  V30 6549 C 594.681 -1.60763 0.0344435 0
M  V30 6550 O 595.871 -1.71963 0.278258 0
M  V30 6551 C 593.003 -3.34543 0.655271 0
M  V30 6552 H 594.196 -2.19143 2.04735 0
M  V30 6553 H 591.749 -1.11618 1.09413 0
M  V30 6554 H 592.484 -3.22851 -0.30626 0
M  V30 6555 H 592.269 -3.65647 1.41578 0
M  V30 6556 H 593.759 -4.13944 0.551378 0
M  V30 6557 N 594.196 -1.08629 -1.14182 0
M  V30 6558 C 595.444 -0.815731 -1.84906 0
M  V30 6559 C 595.765 0.660441 -1.83475 0
M  V30 6560 O 595.035 1.47888 -1.28476 0
M  V30 6561 H 593.615 -0.298773 -0.684648 0
M  V30 6562 H 596.277 -1.37274 -1.38354 0
M  V30 6563 H 595.373 -1.16193 -2.89665 0
M  V30 6564 N 595.674 1.31259 -0.872281 0
M  V30 6565 C 596.904 2.00504 -0.498183 0
M  V30 6566 C 597.312 1.65632 0.914479 0
M  V30 6567 O 596.655 0.882849 1.61095 0
M  V30 6568 C 596.717 3.5482 -0.578194 0
M  V30 6569 C 596.381 4.13172 -1.95289 0
M  V30 6570 C 597.378 4.30107 -2.92069 0
M  V30 6571 C 595.063 4.48846 -2.25483 0
M  V30 6572 C 597.057 4.81908 -4.17185 0
M  V30 6573 C 594.744 5.00349 -3.50847 0
M  V30 6574 C 595.742 5.16831 -4.46514 0
M  V30 6575 O 595.43 5.67228 -5.69656 0
M  V30 6576 H 595.162 0.648055 -0.192354 0
M  V30 6577 H 597.716 1.6841 -1.17589 0
M  V30 6578 H 595.946 3.86383 0.156438 0
M  V30 6579 H 597.635 4.05318 -0.217192 0
M  V30 6580 H 598.401 4.02862 -2.7005 0
M  V30 6581 H 594.28 4.35292 -1.51795 0
M  V30 6582 H 597.824 4.94688 -4.91863 0
M  V30 6583 H 593.721 5.27028 -3.72708 0
M  V30 6584 H 594.489 5.85592 -5.7186 0
M  V30 6585 N 597.152 0.631951 1.44375 0
M  V30 6586 C 598.102 -0.0943862 2.27805 0
M  V30 6587 C 599.086 -0.815359 1.38711 0
M  V30 6588 O 600.278 -0.701331 1.62513 0
M  V30 6589 C 597.407 -1.07472 3.26044 0
M  V30 6590 C 596.493 -0.353329 4.22626 0
M  V30 6591 N 596.884 0.618512 5.02004 0
M  V30 6592 C 595.182 -0.597662 4.41977 0
M  V30 6593 C 595.883 1.0448 5.7224 0
M  V30 6594 N 594.859 0.383413 5.42246 0
M  V30 6595 H 598.661 0.651672 2.86584 0
M  V30 6596 H 596.175 0.45752 1.55822 0
M  V30 6597 H 598.172 -1.60969 3.84571 0
M  V30 6598 H 596.832 -1.82107 2.68825 0
M  V30 6599 H 597.843 0.996356 5.08226 0
M  V30 6600 H 594.52 -1.32682 3.95856 0
M  V30 6601 H 595.91 1.84773 6.45994 0
M  V30 6602 N 598.631 -1.53133 0.372548 0
M  V30 6603 C 599.877 -2.01654 -0.215277 0
M  V30 6604 C 600.21 -1.25914 -1.47849 0
M  V30 6605 O 599.485 -0.3548 -1.91237 0
M  V30 6606 C 599.768 -3.56609 -0.500187 0
M  V30 6607 C 599.621 -4.43036 0.777145 0
M  V30 6608 C 600.94 -4.20528 -1.29786 0
M  V30 6609 H 598.059 -0.732991 -0.0767686 0
M  V30 6610 H 600.701 -1.83335 0.498814 0
M  V30 6611 H 598.851 -3.7235 -1.10852 0
M  V30 6612 H 600.523 -4.39079 1.41447 0
M  V30 6613 H 598.766 -4.10723 1.39604 0
M  V30 6614 H 599.437 -5.49424 0.532662 0
M  V30 6615 H 601.913 -4.08663 -0.783198 0
M  V30 6616 H 600.789 -5.28962 -1.46596 0
M  V30 6617 H 601.05 -3.77051 -2.30836 0
M  V30 6618 N 600.109 -0.101901 -1.5727 0
M  V30 6619 C 601.039 0.851544 -2.17419 0
M  V30 6620 C 602.02 1.28942 -1.10941 0
M  V30 6621 O 603.205 1.35509 -1.39107 0
M  V30 6622 C 600.335 2.10816 -2.75996 0
M  V30 6623 C 599.289 1.80867 -3.87906 0
M  V30 6624 C 598.615 3.13413 -4.33216 0
M  V30 6625 C 599.915 1.0903 -5.10793 0
M  V30 6626 H 601.609 0.350381 -2.97343 0
M  V30 6627 H 599.155 0.16709 -1.43027 0
M  V30 6628 H 601.108 2.77959 -3.16729 0
M  V30 6629 H 599.832 2.63227 -1.93337 0
M  V30 6630 H 598.491 1.16119 -3.47724 0
M  V30 6631 H 598.139 3.63725 -3.47438 0
M  V30 6632 H 597.839 2.94155 -5.08671 0
M  V30 6633 H 599.363 3.81704 -4.76586 0
M  V30 6634 H 600.777 1.66295 -5.48652 0
M  V30 6635 H 599.174 0.99927 -5.91722 0
M  V30 6636 H 600.244 0.0741704 -4.84843 0
M  V30 6637 N 601.587 1.56661 0.17182 0
M  V30 6638 C 602.833 1.82235 0.889845 0
M  V30 6639 C 603.166 0.679673 1.81918 0
M  V30 6640 O 602.441 -0.318404 1.91876 0
M  V30 6641 C 602.724 3.18195 1.68595 0
M  V30 6642 C 602.577 4.42989 0.779773 0
M  V30 6643 C 603.896 3.5109 2.65375 0
M  V30 6644 H 601.015 0.66291 0.322056 0
M  V30 6645 H 603.657 1.89358 0.15608 0
M  V30 6646 H 601.807 3.12253 2.3115 0
M  V30 6647 H 603.479 4.60997 0.16714 0
M  V30 6648 H 601.722 4.33711 0.0877964 0
M  V30 6649 H 602.393 5.3467 1.3723 0
M  V30 6650 H 604.869 3.57482 2.12946 0
M  V30 6651 H 603.745 4.47298 3.18144 0
M  V30 6652 H 604.006 2.75768 3.45549 0
M  V30 6653 N 603.065 -0.440357 1.51323 0
M  V30 6654 C 604.29 -1.21716 1.67928 0
M  V30 6655 C 604.715 -1.84328 0.374826 0
M  V30 6656 O 604.073 -1.68675 -0.664706 0
M  V30 6657 C 604.121 -2.27914 2.79442 0
M  V30 6658 O 603.225 -3.33325 2.42834 0
M  V30 6659 H 602.566 -0.35674 0.560029 0
M  V30 6660 H 605.096 -0.520417 1.97871 0
M  V30 6661 H 605.106 -2.72746 3.03436 0
M  V30 6662 H 603.781 -1.8172 3.741 0
M  V30 6663 H 602.358 -2.9399 2.294 0
M  V30 6664 N 604.543 -1.41418 -0.695603 0
M  V30 6665 C 605.954 -1.36335 -1.27552 0
M  V30 6666 C 606.305 -0.0464336 -1.96145 0
M  V30 6667 O 605.43 0.855304 -1.9878 0
M  V30 6668 C 606.025 -2.46941 -2.3196 0
M  V30 6669 C 604.584 -2.45256 -2.85529 0
M  V30 6670 C 603.731 -2.2679 -1.59566 0
M  V30 6671 H 606.682 -1.50934 -0.490362 0
M  V30 6672 H 606.703 -2.15997 -3.1325 0
M  V30 6673 H 606.215 -3.42775 -1.82008 0
M  V30 6674 H 604.316 -1.53179 -3.39657 0
M  V30 6675 H 604.429 -3.41565 -3.35961 0
M  V30 6676 H 602.793 -1.74667 -1.85374 0
M  V30 6677 H 603.576 -3.24651 -1.1161 0
M  V30 6678 N 606.021 0.929856 -1.27246 0
M  V30 6679 C 607.269 1.674 -1.13233 0
M  V30 6680 C 607.59 1.92311 0.322744 0
M  V30 6681 O 606.86 1.52784 1.22612 0
M  V30 6682 H 605.44 0.620411 -0.416052 0
M  V30 6683 H 608.102 1.11663 -1.59741 0
M  V30 6684 H 607.198 2.64308 -1.65975 0
M  V30 6685 N 607.499 1.09233 1.13605 0
M  V30 6686 C 608.729 0.847677 1.88409 0
M  V30 6687 C 609.137 -0.604524 1.79282 0
M  V30 6688 O 608.48 -1.42773 1.15592 0
M  V30 6689 C 608.542 1.20153 3.38827 0
M  V30 6690 C 608.206 2.65824 3.71735 0
M  V30 6691 C 609.203 3.64072 3.71143 0
M  V30 6692 C 606.888 3.01894 4.01454 0
M  V30 6693 C 608.882 4.96419 3.99808 0
M  V30 6694 C 606.569 4.34433 4.29781 0
M  V30 6695 C 607.567 5.31505 4.28942 0
M  V30 6696 O 607.255 6.61659 4.56576 0
M  V30 6697 H 606.987 0.304813 0.603378 0
M  V30 6698 H 609.541 1.4573 1.44748 0
M  V30 6699 H 607.771 0.534946 3.82982 0
M  V30 6700 H 609.46 0.936349 3.94952 0
M  V30 6701 H 610.226 3.37549 3.4826 0
M  V30 6702 H 606.105 2.26971 4.01255 0
M  V30 6703 H 609.649 5.7218 3.99069 0
M  V30 6704 H 605.546 4.607 4.52135 0
M  V30 6705 H 606.314 6.67102 4.74254 0
M  V30 6706 N 608.977 -1.30795 0.87923 0
M  V30 6707 C 610.205 -2.00527 0.509548 0
M  V30 6708 C 610.62 -1.65944 -0.90045 0
M  V30 6709 O 609.977 -0.893525 -1.5913 0
M  V30 6710 C 610.028 -3.55276 0.667943 0
M  V30 6711 O 609.749 -3.88625 2.02242 0
M  V30 6712 C 611.25 -4.4228 0.300494 0
M  V30 6713 H 608.47 -0.641261 0.197549 0
M  V30 6714 H 611.014 -1.66813 1.18295 0
M  V30 6715 H 609.169 -3.87377 0.0419843 0
M  V30 6716 H 609.583 -4.83334 2.03688 0
M  V30 6717 H 611.057 -5.50061 0.462242 0
M  V30 6718 H 611.534 -4.32556 -0.76106 0
M  V30 6719 H 612.14 -4.15613 0.902536 0
M  V30 6720 N 610.455 -0.639598 -1.44038 0
M  V30 6721 C 611.405 0.0823038 -2.27851 0
M  V30 6722 C 612.389 0.807991 -1.39141 0
M  V30 6723 O 613.581 0.692702 -1.62882 0
M  V30 6724 C 610.71 1.05742 -3.26609 0
M  V30 6725 C 609.796 0.330911 -4.22807 0
M  V30 6726 N 610.187 -0.645126 -5.01669 0
M  V30 6727 C 608.485 0.574214 -4.42288 0
M  V30 6728 C 609.186 -1.07513 -5.71678 0
M  V30 6729 N 608.162 -0.412164 -5.42035 0
M  V30 6730 H 611.964 -0.666861 -2.86234 0
M  V30 6731 H 609.478 -0.465777 -1.55577 0
M  V30 6732 H 611.475 1.58927 -3.85419 0
M  V30 6733 H 610.135 1.80679 -2.69787 0
M  V30 6734 H 611.146 -1.02329 -5.0769 0
M  V30 6735 H 607.823 1.30581 -3.96554 0
M  V30 6736 H 609.213 -1.88196 -6.45005 0
M  V30 6737 N 611.933 1.52934 -0.380664 0
M  V30 6738 C 612.863 2.29118 0.450268 0
M  V30 6739 C 613.844 1.32153 1.07096 0
M  V30 6740 O 615.029 1.61038 1.08537 0
M  V30 6741 C 612.159 3.09161 1.58231 0
M  V30 6742 C 611.113 4.13938 1.0881 0
M  V30 6743 C 610.439 4.82153 2.31155 0
M  V30 6744 C 611.739 5.22048 0.162146 0
M  V30 6745 H 613.433 2.98826 -0.185361 0
M  V30 6746 H 610.979 1.43715 -0.0905886 0
M  V30 6747 H 612.932 3.61211 2.17036 0
M  V30 6748 H 611.656 2.3717 2.2454 0
M  V30 6749 H 610.315 3.62855 0.522633 0
M  V30 6750 H 609.963 4.06719 2.95953 0
M  V30 6751 H 609.663 5.52966 1.98752 0
M  V30 6752 H 611.187 5.37004 2.90618 0
M  V30 6753 H 612.601 5.6951 0.658126 0
M  V30 6754 H 610.998 6.00057 -0.0717122 0
M  V30 6755 H 612.068 4.78398 -0.791438 0
M  V30 6756 N 613.412 0.11024 1.57214 0
M  V30 6757 C 614.828 -0.24638 1.57687 0
M  V30 6758 C 615.028 -1.67344 1.12241 0
M  V30 6759 O 614.084 -2.39298 0.805783 0
M  V30 6760 C 615.397 -0.0210288 3.00693 0
M  V30 6761 C 616.945 -0.0876077 3.12877 0
M  V30 6762 C 617.42 0.10994 4.57868 0
M  V30 6763 N 618.911 0.0556135 4.63167 0
M  V30 6764 C 619.646 0.183495 5.73106 0
M  V30 6765 N 619.142 0.367058 6.91827 0
M  V30 6766 N 620.935 0.123689 5.61964 0
M  V30 6767 H 613.086 1.04246 1.85058 0
M  V30 6768 H 615.349 0.40979 0.854854 0
M  V30 6769 H 615.055 0.965203 3.38196 0
M  V30 6770 H 614.929 -0.756748 3.69531 0
M  V30 6771 H 617.316 -1.06436 2.75237 0
M  V30 6772 H 617.397 0.67985 2.466 0
M  V30 6773 H 617.041 1.08362 4.96206 0
M  V30 6774 H 616.971 -0.677397 5.22225 0
M  V30 6775 H 619.462 -0.0831062 3.77809 0
M  V30 6776 H 619.775 0.455739 7.71455 0
M  V30 6777 H 618.12 0.40292 6.93831 0
M  V30 6778 H 621.311 -0.0186928 4.68096 0
M  V30 6779 H 621.484 0.226797 6.47603 0
M  V30 6780 N 614.89 -1.56749 -0.16351 0
M  V30 6781 C 616.167 -1.73321 -0.906599 0
M  V30 6782 C 616.547 -0.673779 -2.00059 0
M  V30 6783 O 615.895 0.310121 -2.26386 0
M  V30 6784 C 616.105 -3.168 -1.46419 0
M  V30 6785 C 617.453 -3.77993 -1.93407 0
M  V30 6786 O 618.477 -3.20127 -1.56196 0
M  V30 6787 O 617.336 -4.79615 -2.61976 0
M  V30 6788 H 614.43 -0.708073 -0.427272 0
M  V30 6789 H 616.976 -1.69029 -0.150727 0
M  V30 6790 H 615.748 -3.85396 -0.677189 0
M  V30 6791 H 615.371 -3.2545 -2.28403 0
M  V30 6792 N 616.368 0.432326 -1.51554 0
M  V30 6793 C 617.278 1.55023 -1.76082 0
M  V30 6794 C 618.294 1.61593 -0.645265 0
M  V30 6795 O 619.47 1.78742 -0.928086 0
M  V30 6796 C 616.535 2.90964 -1.88523 0
M  V30 6797 C 615.596 2.9447 -3.12388 0
M  V30 6798 C 614.829 4.23926 -3.24225 0
M  V30 6799 O 615.052 5.16576 -2.4188 0
M  V30 6800 O 613.986 4.33818 -4.17235 0
M  V30 6801 H 617.812 1.37238 -2.70923 0
M  V30 6802 H 615.397 0.615845 -1.36117 0
M  V30 6803 H 617.279 3.71633 -1.98662 0
M  V30 6804 H 615.954 3.08865 -0.9687 0
M  V30 6805 H 614.861 2.12737 -3.07723 0
M  V30 6806 H 616.194 2.81514 -4.03746 0
M  V30 6807 N 617.846 1.41785 0.688094 0
M  V30 6808 C 619.076 1.44705 1.47459 0
M  V30 6809 C 619.484 0.052916 1.89126 0
M  V30 6810 O 618.827 -0.939781 1.57841 0
M  V30 6811 C 618.889 2.29935 2.76352 0
M  V30 6812 C 618.553 3.77996 2.56843 0
M  V30 6813 C 619.55 4.69976 2.22304 0
M  V30 6814 C 617.235 4.2212 2.7225 0
M  V30 6815 C 619.229 6.04068 2.03421 0
M  V30 6816 C 616.916 5.56275 2.52985 0
M  V30 6817 C 617.914 6.47065 2.18621 0
M  V30 6818 O 617.602 7.78744 1.9953 0
M  V30 6819 H 617.334 0.494703 0.460701 0
M  V30 6820 H 619.888 1.86802 0.854057 0
M  V30 6821 H 618.118 1.82664 3.40839 0
M  V30 6822 H 619.807 2.24467 3.38186 0
M  V30 6823 H 620.573 4.37175 2.10008 0
M  V30 6824 H 616.452 3.51752 2.97979 0
M  V30 6825 H 619.996 6.74897 1.76523 0
M  V30 6826 H 615.893 5.88653 2.64873 0
M  V30 6827 H 616.661 7.89966 2.14234 0
M  V30 6828 N 619.324 -0.923095 1.27737 0
M  V30 6829 C 620.571 -1.67127 1.14345 0
M  V30 6830 C 620.899 -1.92017 -0.30982 0
M  V30 6831 O 620.154 -1.51185 -1.24264 0
M  V30 6832 C 620.453 -3.04125 1.8773 0
M  V30 6833 C 620.119 -2.98929 3.37568 0
M  V30 6834 C 618.781 -2.9722 3.78436 0
M  V30 6835 C 621.133 -2.89875 4.33154 0
M  V30 6836 C 618.461 -2.84244 5.13247 0
M  V30 6837 C 620.813 -2.7844 5.68026 0
M  V30 6838 C 619.477 -2.75083 6.08182 0
M  V30 6839 H 618.747 -0.611562 0.418417 0
M  V30 6840 H 621.394 -1.07618 1.584 0
M  V30 6841 H 619.699 -3.67366 1.36196 0
M  V30 6842 H 621.396 -3.609 1.74792 0
M  V30 6843 H 617.986 -3.0105 3.05069 0
M  V30 6844 H 622.17 -2.9029 4.02548 0
M  V30 6845 H 617.426 -2.80034 5.43499 0
M  V30 6846 H 621.6 -2.70401 6.4176 0
M  V30 6847 H 619.227 -2.64786 7.12596 0
M  V30 6848 N 620.802 -1.09834 -1.13024 0
M  V30 6849 C 622.213 -0.855651 -1.65938 0
M  V30 6850 C 622.564 0.615159 -1.86307 0
M  V30 6851 O 621.689 1.47335 -1.58497 0
M  V30 6852 C 622.284 -1.5467 -3.01434 0
M  V30 6853 C 620.843 -1.35088 -3.51323 0
M  V30 6854 C 619.99 -1.6001 -2.26478 0
M  V30 6855 H 622.941 -1.25691 -0.968889 0
M  V30 6856 H 622.962 -0.982179 -3.67605 0
M  V30 6857 H 622.474 -2.61715 -2.86578 0
M  V30 6858 H 620.575 -0.30179 -3.71376 0
M  V30 6859 H 620.688 -2.0886 -4.31178 0
M  V30 6860 H 619.052 -1.02246 -2.33276 0
M  V30 6861 H 619.835 -2.68293 -2.14182 0
M  V30 6862 N 622.28 1.30327 -0.886154 0
M  V30 6863 C 623.228 2.30052 -0.343317 0
M  V30 6864 C 624.222 1.60212 0.550305 0
M  V30 6865 O 625.428 1.74674 0.434609 0
M  V30 6866 H 621.803 0.746306 -0.0923681 0
M  V30 6867 H 623.774 2.73294 -1.19804 0
M  V30 6868 C 622.523 3.45079 0.426107 0
M  V30 6869 H 621.846 3.99003 -0.25227 0
M  V30 6870 H 623.286 4.16931 0.771009 0
M  V30 6871 C 621.745 2.95195 1.62363 0
M  V30 6872 O 622.275 2.95323 2.723 0
M  V30 6873 N 620.481 2.51192 1.4612 0
M  V30 6874 H 620.028 2.51286 0.566832 0
M  V30 6875 H 619.986 2.18173 2.2638 0
M  V30 6876 N 623.758 0.647228 1.43697 0
M  V30 6877 C 624.721 -0.0385101 2.29168 0
M  V30 6878 C 625.721 -0.756487 1.41894 0
M  V30 6879 O 626.911 -0.598641 1.63591 0
M  V30 6880 C 624.043 -1.06524 3.23829 0
M  V30 6881 H 625.236 0.713445 2.9129 0
M  V30 6882 H 622.789 0.408153 1.50877 0
M  V30 6883 H 623.524 -1.84664 2.66589 0
M  V30 6884 H 623.309 -0.554147 3.88164 0
M  V30 6885 H 624.799 -1.54432 3.87996 0
M  V30 6886 N 625.236 -1.5273 0.388769 0
M  V30 6887 C 626.186 -2.23238 -0.463567 0
M  V30 6888 C 627.17 -1.23606 -1.03007 0
M  V30 6889 O 628.362 -1.48945 -0.956261 0
M  V30 6890 C 625.491 -3.04228 -1.5906 0
M  V30 6891 C 624.577 -4.11255 -1.03587 0
M  V30 6892 N 624.968 -5.0538 -0.206038 0
M  V30 6893 C 623.266 -4.26376 -1.30841 0
M  V30 6894 C 623.967 -5.81613 0.100359 0
M  V30 6895 N 622.943 -5.41264 -0.503447 0
M  V30 6896 H 626.745 -2.93367 0.176978 0
M  V30 6897 H 624.259 -1.61188 0.198046 0
M  V30 6898 H 626.256 -3.53277 -2.21362 0
M  V30 6899 H 624.916 -2.35634 -2.23398 0
M  V30 6900 H 625.927 -5.17663 0.156659 0
M  V30 6901 H 622.604 -3.69011 -1.95287 0
M  V30 6902 H 623.994 -6.67442 0.772676 0
M  V30 6903 N 626.714 -0.118576 -1.57153 0
M  V30 6904 C 627.646 0.862247 -2.12363 0
M  V30 6905 C 628.659 1.23025 -1.06625 0
M  V30 6906 O 629.848 1.17927 -1.33998 0
M  V30 6907 C 626.948 2.16425 -2.60794 0
M  V30 6908 C 626.121 1.96801 -3.90626 0
M  V30 6909 C 625.18 3.10726 -4.2466 0
M  V30 6910 O 624.206 2.83659 -4.93484 0
M  V30 6911 N 625.408 4.37147 -3.81946 0
M  V30 6912 H 628.173 0.390564 -2.97144 0
M  V30 6913 H 625.734 0.0658591 -1.61766 0
M  V30 6914 H 627.726 2.91633 -2.80593 0
M  V30 6915 H 626.296 2.54943 -1.80895 0
M  V30 6916 H 625.516 1.05787 -3.7974 0
M  V30 6917 H 626.804 1.80993 -4.7552 0
M  V30 6918 H 626.202 4.62014 -3.26435 0
M  V30 6919 H 624.759 5.09229 -4.06853 0
M  V30 6920 N 628.193 1.56834 0.155195 0
M  V30 6921 C 629.44 1.82898 0.869179 0
M  V30 6922 C 629.768 0.698194 1.81537 0
M  V30 6923 O 629.023 -0.313404 1.93174 0
M  V30 6924 C 629.322 3.15239 1.68402 0
M  V30 6925 C 628.988 4.42123 0.885341 0
M  V30 6926 C 627.65 4.76583 0.664971 0
M  V30 6927 C 630.002 5.20178 0.326234 0
M  V30 6928 C 627.33 5.86566 -0.125346 0
M  V30 6929 C 629.682 6.3099 -0.45108 0
M  V30 6930 C 628.346 6.64006 -0.682102 0
M  V30 6931 H 627.616 0.66927 0.318055 0
M  V30 6932 H 630.263 1.91036 0.133241 0
M  V30 6933 H 628.568 3.02515 2.48982 0
M  V30 6934 H 630.265 3.32618 2.23978 0
M  V30 6935 H 626.855 4.15102 1.06716 0
M  V30 6936 H 631.039 4.93936 0.483787 0
M  V30 6937 H 626.295 6.10594 -0.313915 0
M  V30 6938 H 630.469 6.9067 -0.89149 0
M  V30 6939 H 628.096 7.49065 -1.29636 0
M  V30 6940 N 629.671 -0.424282 1.51781 0
M  V30 6941 C 630.619 -1.53649 1.74628 0
M  V30 6942 C 631.613 -1.57923 0.612922 0
M  V30 6943 O 632.819 -1.61511 0.794618 0
M  V30 6944 H 629.194 -0.510706 0.551981 0
M  V30 6945 H 631.165 -1.31558 2.67834 0
M  V30 6946 C 629.914 -2.91177 1.9003 0
M  V30 6947 H 629.237 -2.88625 2.76651 0
M  V30 6948 H 630.677 -3.6833 2.10021 0
M  V30 6949 C 629.136 -3.30303 0.663435 0
M  V30 6950 O 629.666 -4.01315 -0.175812 0
M  V30 6951 N 627.872 -2.86201 0.503723 0
M  V30 6952 H 627.419 -2.28583 1.18776 0
M  V30 6953 H 627.377 -3.12741 -0.322575 0
M  V30 6954 N 631.149 -1.42148 -0.680565 0
M  V30 6955 C 632.398 -1.41604 -1.43636 0
M  V30 6956 C 632.711 -0.0337887 -1.95571 0
M  V30 6957 O 633.917 0.0942588 -2.71336 0
M  V30 6958 C 632.373 -2.49056 -2.59806 0
M  V30 6959 C 631.981 -3.9326 -2.14594 0
M  V30 6960 C 633.725 -2.5767 -3.37352 0
M  V30 6961 C 631.632 -4.92232 -3.27813 0
M  V30 6962 H 630.562 -0.526656 -0.539583 0
M  V30 6963 H 633.213 -1.68033 -0.737369 0
M  V30 6964 H 631.595 -2.15782 -3.32045 0
M  V30 6965 H 632.769 -4.35858 -1.49546 0
M  V30 6966 H 631.084 -3.88443 -1.50002 0
M  V30 6967 H 633.681 -3.28794 -4.21662 0
M  V30 6968 H 634.024 -1.61837 -3.83555 0
M  V30 6969 H 634.557 -2.90109 -2.72179 0
M  V30 6970 H 631.296 -5.89522 -2.86607 0
M  V30 6971 H 630.816 -4.5427 -3.91661 0
M  V30 6972 H 632.495 -5.13684 -3.93367 0
M  V30 6973 N 632.627 0.916307 -1.28225 0
M  V30 6974 C 633.577 2.00488 -1.08574 0
M  V30 6975 C 634.561 1.60897 -0.0101874 0
M  V30 6976 O 635.753 1.75499 -0.230034 0
M  V30 6977 C 632.882 3.35076 -0.746943 0
M  V30 6978 C 631.968 3.81077 -1.86121 0
M  V30 6979 N 632.359 3.99475 -3.10247 0
M  V30 6980 C 630.657 4.10212 -1.75048 0
M  V30 6981 C 631.358 4.37965 -3.82834 0
M  V30 6982 N 630.334 4.4608 -3.10667 0
M  V30 6983 H 634.136 2.1276 -2.02757 0
M  V30 6984 H 631.65 1.10397 -1.19107 0
M  V30 6985 H 633.647 4.12743 -0.587252 0
M  V30 6986 H 632.307 3.2416 0.187146 0
M  V30 6987 H 633.318 3.85466 -3.45885 0
M  V30 6988 H 629.995 4.07947 -0.887999 0
M  V30 6989 H 631.385 4.60183 -4.89572 0
M  V30 6990 N 634.105 1.10431 1.1244 0
M  V30 6991 C 635.521 0.836096 1.35947 0
M  V30 6992 C 635.721 -0.544475 1.94004 0
M  V30 6993 O 634.777 -1.29735 2.16622 0
M  V30 6994 C 636.09 1.93575 2.30107 0
M  V30 6995 C 637.638 1.9642 2.43697 0
M  V30 6996 C 638.113 3.05559 3.41171 0
M  V30 6997 N 639.604 3.04865 3.48728 0
M  V30 6998 C 640.339 3.85954 4.24061 0
M  V30 6999 N 639.835 4.76977 5.02458 0
M  V30 7000 N 641.628 3.74172 4.19466 0
M  V30 7001 H 633.779 1.9942 0.731124 0
M  V30 7002 H 636.042 0.866607 0.384312 0
M  V30 7003 H 635.748 2.92943 1.94621 0
M  V30 7004 H 635.622 1.8229 3.30227 0
M  V30 7005 H 638.009 0.97685 2.78463 0
M  V30 7006 H 638.09 2.11782 1.43465 0
M  V30 7007 H 637.734 4.04513 3.07135 0
M  V30 7008 H 637.664 2.87438 4.41234 0
M  V30 7009 H 640.155 2.38908 2.92799 0
M  V30 7010 H 640.468 5.35409 5.57277 0
M  V30 7011 H 638.813 4.81006 5.01655 0
M  V30 7012 H 642.004 3.02412 3.57302 0
M  V30 7013 H 642.177 4.37602 4.77921 0
M  V30 7014 N 635.583 -1.29855 0.893053 0
M  V30 7015 C 636.829 -1.96488 0.52574 0
M  V30 7016 C 637.184 -1.69164 -0.916594 0
M  V30 7017 O 636.477 -0.990405 -1.64017 0
M  V30 7018 C 636.671 -3.49515 0.746588 0
M  V30 7019 C 636.5 -3.91715 2.20884 0
M  V30 7020 C 635.27 -4.16915 2.85499 0
M  V30 7021 C 637.468 -4.03934 3.18342 0
M  V30 7022 N 635.45 -4.45634 4.22236 0
M  V30 7023 C 636.821 -4.36629 4.40176 0
M  V30 7024 C 638.876 -3.86387 3.14021 0
M  V30 7025 C 637.579 -4.53605 5.58243 0
M  V30 7026 C 639.605 -4.04569 4.31367 0
M  V30 7027 C 638.967 -4.37617 5.5197 0
M  V30 7028 H 635.066 -0.743657 0.241863 0
M  V30 7029 H 637.65 -1.56927 1.15248 0
M  V30 7030 H 635.821 -3.88113 0.149281 0
M  V30 7031 H 637.553 -4.03224 0.345372 0
M  V30 7032 H 634.308 -4.10423 2.36326 0
M  V30 7033 H 634.732 -4.64114 4.92876 0
M  V30 7034 H 639.374 -3.59906 2.21873 0
M  V30 7035 H 637.092 -4.78925 6.50889 0
M  V30 7036 H 640.678 -3.92452 4.29503 0
M  V30 7037 H 639.558 -4.51395 6.41258 0
M  V30 7038 N 637.061 -0.65484 -1.43351 0
M  V30 7039 C 638.009 0.0476784 -2.32551 0
M  V30 7040 C 639.003 0.811403 -1.48703 0
M  V30 7041 O 640.209 0.721621 -1.64902 0
M  V30 7042 H 636.584 0.0342038 -0.751222 0
M  V30 7043 H 638.555 -0.722342 -2.89525 0
M  V30 7044 C 637.304 0.999251 -3.33032 0
M  V30 7045 H 636.627 0.421005 -3.97577 0
M  V30 7046 H 638.067 1.45986 -3.98076 0
M  V30 7047 C 636.526 2.09606 -2.63756 0
M  V30 7048 O 637.056 3.18004 -2.4543 0
M  V30 7049 N 635.262 1.86207 -2.23103 0
M  V30 7050 H 634.809 0.980555 -2.38208 0
M  V30 7051 H 634.767 2.59787 -1.77081 0
M  V30 7052 N 638.539 1.52521 -0.396863 0
M  V30 7053 C 639.486 2.26671 0.434624 0
M  V30 7054 C 640.456 1.28584 1.05144 0
M  V30 7055 O 641.641 1.57426 1.07804 0
M  V30 7056 C 638.781 3.08234 1.55196 0
M  V30 7057 C 637.894 4.21261 0.957262 0
M  V30 7058 C 637.029 4.90205 2.04627 0
M  V30 7059 C 636.068 5.95213 1.42787 0
M  V30 7060 N 635.205 6.57723 2.45651 0
M  V30 7061 H 640.045 2.973 -0.204139 0
M  V30 7062 H 637.582 1.46669 -0.112505 0
M  V30 7063 H 639.54 3.53819 2.2106 0
M  V30 7064 H 638.17 2.398 2.16092 0
M  V30 7065 H 637.222 3.79935 0.188005 0
M  V30 7066 H 638.534 4.96624 0.465416 0
M  V30 7067 H 637.688 5.39133 2.78246 0
M  V30 7068 H 636.427 4.14383 2.57174 0
M  V30 7069 H 635.432 5.45616 0.676968 0
M  V30 7070 H 636.657 6.72972 0.910255 0
M  V30 7071 H 634.603 5.84737 2.97353 0
M  V30 7072 H 634.52 7.28723 2.01243 0
M  V30 7073 H 635.788 7.11293 3.18876 0
M  V30 7074 N 640.017 0.126909 1.57088 0
M  V30 7075 C 641.294 -0.573152 1.87014 0
M  V30 7076 C 641.674 -1.84297 1.02945 0
M  V30 7077 O 641.022 -2.28232 0.110573 0
M  V30 7078 C 641.232 -0.857984 3.38289 0
M  V30 7079 C 642.58 -1.20759 4.07066 0
M  V30 7080 O 643.604 -0.947992 3.43353 0
M  V30 7081 O 642.463 -1.69516 5.19545 0
M  V30 7082 H 639.557 -0.290082 0.774456 0
M  V30 7083 H 642.103 0.162008 1.68925 0
M  V30 7084 H 640.875 0.0415286 3.91278 0
M  V30 7085 H 640.498 -1.64803 3.61837 0
M  V30 7086 N 641.495 -1.56914 -0.146875 0
M  V30 7087 C 642.72 -1.87881 -0.878386 0
M  V30 7088 C 643.145 -0.715945 -1.73942 0
M  V30 7089 O 642.503 0.334447 -1.78189 0
M  V30 7090 C 642.551 -3.17431 -1.71084 0
M  V30 7091 O 641.655 -3.01374 -2.81509 0
M  V30 7092 H 640.996 -0.617289 -0.244644 0
M  V30 7093 H 643.526 -2.04136 -0.137654 0
M  V30 7094 H 643.536 -3.49455 -2.10582 0
M  V30 7095 H 642.211 -4.01671 -1.07856 0
M  V30 7096 H 640.788 -2.80758 -2.45416 0
M  V30 7097 N 642.974 0.416227 -1.52004 0
M  V30 7098 C 643.937 1.48926 -1.74223 0
M  V30 7099 C 644.937 1.48693 -0.612119 0
M  V30 7100 O 646.127 1.50343 -0.879921 0
M  V30 7101 C 643.259 2.88372 -1.81809 0
M  V30 7102 H 644.452 1.3052 -2.70008 0
M  V30 7103 H 642.005 0.646271 -1.42313 0
M  V30 7104 H 642.74 3.12157 -0.879135 0
M  V30 7105 H 642.525 2.89944 -2.6396 0
M  V30 7106 H 644.015 3.66173 -2.00766 0
M  V30 7107 N 644.452 1.42507 0.673017 0
M  V30 7108 C 645.677 1.4668 1.46627 0
M  V30 7109 C 646.102 0.080066 1.8793 0
M  V30 7110 O 645.46 -0.921879 1.56112 0
M  V30 7111 C 645.508 2.40091 2.69051 0
M  V30 7112 O 644.612 1.8735 3.67387 0
M  V30 7113 H 643.953 0.496908 0.44043 0
M  V30 7114 H 646.483 1.87215 0.825334 0
M  V30 7115 H 646.493 2.56731 3.17101 0
M  V30 7116 H 645.168 3.4084 2.3833 0
M  V30 7117 H 643.745 1.80274 3.26429 0
M  V30 7118 N 645.93 -0.909495 1.28709 0
M  V30 7119 C 647.155 -1.69801 1.1909 0
M  V30 7120 C 647.58 -1.86479 -0.246388 0
M  V30 7121 O 646.938 -1.37802 -1.17815 0
M  V30 7122 C 646.986 -3.06543 1.89904 0
M  V30 7123 O 646.09 -3.94268 1.2094 0
M  V30 7124 H 645.431 -0.519783 0.413185 0
M  V30 7125 H 647.961 -1.13689 1.70106 0
M  V30 7126 H 647.971 -3.56748 1.97977 0
M  V30 7127 H 646.646 -2.93722 2.94449 0
M  V30 7128 H 645.223 -3.52702 1.2106 0
M  V30 7129 N 647.408 -1.11026 -1.11852 0
M  V30 7130 C 648.638 -0.877544 -1.87037 0
M  V30 7131 C 649.046 0.575925 -1.80221 0
M  V30 7132 O 648.389 1.40916 -1.17849 0
M  V30 7133 C 648.451 -1.25529 -3.36872 0
M  V30 7134 C 648.115 -2.71704 -3.67459 0
M  V30 7135 C 649.112 -3.69931 -3.65304 0
M  V30 7136 C 646.797 -3.08243 -3.966 0
M  V30 7137 C 648.791 -5.02717 -3.9186 0
M  V30 7138 C 646.478 -4.41215 -4.22815 0
M  V30 7139 C 647.476 -5.38262 -4.20432 0
M  V30 7140 O 647.164 -6.68839 -4.45992 0
M  V30 7141 H 646.896 -0.314374 -0.598452 0
M  V30 7142 H 649.45 -1.48015 -1.42411 0
M  V30 7143 H 647.68 -0.595808 -3.82082 0
M  V30 7144 H 649.369 -0.999064 -3.93413 0
M  V30 7145 H 650.135 -3.43047 -3.42846 0
M  V30 7146 H 646.014 -2.33326 -3.97593 0
M  V30 7147 H 649.558 -5.78456 -3.89916 0
M  V30 7148 H 645.455 -4.67835 -4.44748 0
M  V30 7149 H 646.223 -6.74563 -4.63581 0
M  V30 7150 N 648.886 1.2938 -0.899927 0
M  V30 7151 C 650.111 2.00228 -0.540692 0
M  V30 7152 C 650.536 1.66909 0.867359 0
M  V30 7153 O 649.894 0.893824 1.57735 0
M  V30 7154 C 649.942 3.52921 -0.740232 0
M  V30 7155 O 649.046 4.11879 0.207154 0
M  V30 7156 H 648.387 0.629505 -0.211233 0
M  V30 7157 H 650.917 1.6487 -1.21158 0
M  V30 7158 H 650.927 4.0287 -0.644973 0
M  V30 7159 H 649.602 3.76508 -1.76677 0
M  V30 7160 H 648.179 3.72845 0.0643315 0
M  V30 7161 N 650.364 0.662433 1.43002 0
M  V30 7162 C 651.61 0.179857 2.02001 0
M  V30 7163 C 651.943 -1.20625 1.52195 0
M  V30 7164 O 651.218 -1.80726 0.718911 0
M  V30 7165 C 651.501 0.200845 3.59539 0
M  V30 7166 C 651.354 1.62153 4.19555 0
M  V30 7167 C 652.673 -0.457738 4.37713 0
M  V30 7168 H 649.792 0.0668305 0.733964 0
M  V30 7169 H 652.434 0.84487 1.70182 0
M  V30 7170 H 650.584 -0.365411 3.86778 0
M  V30 7171 H 652.256 2.23908 4.03315 0
M  V30 7172 H 650.499 2.16601 3.75854 0
M  V30 7173 H 651.17 1.58799 5.28665 0
M  V30 7174 H 653.646 0.0241495 4.16093 0
M  V30 7175 H 652.522 -0.412363 5.47349 0
M  V30 7176 H 652.783 -1.53336 4.14657 0
M  V30 7177 N 651.842 -1.52309 0.404946 0
M  V30 7178 C 653.09 -2.01368 -0.17186 0
M  V30 7179 C 653.411 -1.29261 -1.46002 0
M  V30 7180 O 652.681 -0.41729 -1.91404 0
M  V30 7181 H 651.261 -0.744034 -0.0664993 0
M  V30 7182 H 653.923 -1.87263 0.540228 0
M  V30 7183 H 653.019 -3.09888 -0.370957 0
M  V30 7184 N 653.32 -0.135238 -1.57019 0
M  V30 7185 C 654.23 0.822226 -2.19719 0
M  V30 7186 C 655.246 1.28057 -1.17802 0
M  V30 7187 O 656.422 1.3402 -1.50335 0
M  V30 7188 C 653.487 2.0484 -2.79717 0
M  V30 7189 C 652.548 1.64042 -3.96723 0
M  V30 7190 C 651.781 2.80814 -4.53849 0
M  V30 7191 O 652.004 3.967 -4.0986 0
M  V30 7192 O 650.938 2.56963 -5.44292 0
M  V30 7193 H 654.764 0.318552 -3.02025 0
M  V30 7194 H 652.349 0.0912021 -1.49121 0
M  V30 7195 H 654.231 2.76622 -3.17897 0
M  V30 7196 H 652.906 2.54182 -2.00432 0
M  V30 7197 H 651.813 0.893182 -3.63281 0
M  V30 7198 H 653.146 1.19426 -4.77492 0
M  V30 7199 N 654.798 1.5699 0.138552 0
M  V30 7200 C 655.708 2.02174 1.19008 0
M  V30 7201 C 656.724 0.938622 1.46512 0
M  V30 7202 O 657.9 1.24872 1.58016 0
M  V30 7203 C 654.965 2.40045 2.50159 0
M  V30 7204 C 654.026 3.62346 2.30226 0
M  V30 7205 C 653.259 3.98401 3.55123 0
M  V30 7206 O 653.482 3.35019 4.61647 0
M  V30 7207 O 652.416 4.91606 3.47285 0
M  V30 7208 H 656.242 2.91954 0.836452 0
M  V30 7209 H 653.827 1.45293 0.347907 0
M  V30 7210 H 655.709 2.65225 3.27465 0
M  V30 7211 H 654.384 1.53417 2.85035 0
M  V30 7212 H 653.291 3.42341 1.50843 0
M  V30 7213 H 654.624 4.49617 2.00262 0
M  V30 7214 N 656.276 -0.40816 1.52223 0
M  V30 7215 C 657.522 -1.15673 1.66576 0
M  V30 7216 C 657.855 -1.90141 0.394996 0
M  V30 7217 O 657.13 -1.84798 -0.606613 0
M  V30 7218 C 657.413 -2.15042 2.88841 0
M  V30 7219 C 657.266 -1.44465 4.25969 0
M  V30 7220 C 658.585 -3.15699 3.0663 0
M  V30 7221 H 655.704 -0.41916 0.606196 0
M  V30 7222 H 658.346 -0.442348 1.84779 0
M  V30 7223 H 656.496 -2.75964 2.73452 0
M  V30 7224 H 658.168 -0.866544 4.53088 0
M  V30 7225 H 656.411 -0.746612 4.27327 0
M  V30 7226 H 657.082 -2.16976 5.07568 0
M  V30 7227 H 659.558 -2.64854 3.20923 0
M  V30 7228 H 658.434 -3.82491 3.9369 0
M  V30 7229 H 658.695 -3.83481 2.19987 0
M  V30 7230 N 657.755 -1.42862 -0.66545 0
M  V30 7231 C 659.032 -1.3431 -1.42197 0
M  V30 7232 C 659.412 0.0150265 -2.11095 0
M  V30 7233 O 658.76 1.03101 -2.03918 0
M  V30 7234 C 658.97 -2.51783 -2.41674 0
M  V30 7235 C 660.318 -2.94321 -3.0604 0
M  V30 7236 O 661.342 -2.51741 -2.52001 0
M  V30 7237 O 660.201 -3.68047 -4.03985 0
M  V30 7238 H 657.295 -0.530159 -0.634713 0
M  V30 7239 H 659.841 -1.54888 -0.693386 0
M  V30 7240 H 658.613 -3.42282 -1.89627 0
M  V30 7241 H 658.236 -2.33241 -3.22001 0
M  V30 7242 N 659.233 0.902656 -1.29189 0
M  V30 7243 C 660.463 1.68394 -1.19695 0
M  V30 7244 C 660.871 1.87602 0.245384 0
M  V30 7245 O 660.214 1.41084 1.17648 0
M  V30 7246 C 660.276 3.09094 -1.83578 0
M  V30 7247 C 659.94 3.1313 -3.32864 0
M  V30 7248 C 660.937 2.93497 -4.29134 0
M  V30 7249 C 658.622 3.3529 -3.74013 0
M  V30 7250 C 660.616 2.95953 -5.64527 0
M  V30 7251 C 658.303 3.37377 -5.09529 0
M  V30 7252 C 659.301 3.1773 -6.04596 0
M  V30 7253 O 658.989 3.196 -7.37639 0
M  V30 7254 H 658.721 0.532815 -0.416034 0
M  V30 7255 H 661.275 1.1374 -1.71033 0
M  V30 7256 H 659.505 3.65338 -1.26747 0
M  V30 7257 H 661.194 3.69297 -1.68447 0
M  V30 7258 H 661.96 2.76192 -3.98677 0
M  V30 7259 H 657.839 3.49623 -3.00474 0
M  V30 7260 H 661.383 2.80536 -6.38706 0
M  V30 7261 H 657.28 3.54213 -5.39633 0
M  V30 7262 H 658.048 3.35887 -7.46406 0
M  V30 7263 N 660.711 1.11618 1.11262 0
M  V30 7264 C 661.959 0.864469 1.82678 0
M  V30 7265 C 662.28 -0.611564 1.85162 0
M  V30 7266 O 661.55 -1.44429 1.32352 0
M  V30 7267 H 660.13 0.316821 0.676486 0
M  V30 7268 H 662.792 1.40894 1.34666 0
M  V30 7269 H 661.888 1.23832 2.86482 0
M  V30 7270 N 662.189 -1.289 0.906776 0
M  V30 7271 C 663.436 -1.95269 0.536326 0
M  V30 7272 C 663.764 -1.71435 -0.918711 0
M  V30 7273 O 663.019 -1.02431 -1.66752 0
M  V30 7274 C 663.318 -3.48704 0.783617 0
M  V30 7275 C 662.984 -3.92626 2.21711 0
M  V30 7276 C 661.646 -4.04329 2.60906 0
M  V30 7277 C 663.998 -4.15218 3.15029 0
M  V30 7278 C 661.326 -4.35998 3.92584 0
M  V30 7279 C 663.678 -4.48365 4.46264 0
M  V30 7280 C 662.342 -4.58278 4.85322 0
M  V30 7281 H 661.612 -0.714538 0.196256 0
M  V30 7282 H 664.259 -1.53366 1.14678 0
M  V30 7283 H 662.564 -3.91696 0.0903048 0
M  V30 7284 H 664.261 -3.98162 0.476267 0
M  V30 7285 H 660.851 -3.84038 1.90296 0
M  V30 7286 H 665.035 -4.05636 2.8596 0
M  V30 7287 H 660.291 -4.41878 4.22557 0
M  V30 7288 H 664.465 -4.64795 5.18593 0
M  V30 7289 H 662.092 -4.82573 5.87391 0
M  V30 7290 N 663.667 -0.670007 -1.42649 0
M  V30 7291 C 664.915 -0.18991 -2.01206 0
M  V30 7292 C 665.236 1.20617 -1.53221 0
M  V30 7293 O 664.506 1.80898 -0.751856 0
M  V30 7294 H 663.086 -0.0672189 -0.743969 0
M  V30 7295 H 665.748 -0.865442 -1.74631 0
M  V30 7296 H 664.844 -0.187481 -3.11536 0
M  V30 7297 N 665.145 1.52092 -0.413018 0
M  V30 7298 C 666.108 2.25706 0.398687 0
M  V30 7299 C 667.108 1.28221 0.970368 0
M  V30 7300 O 668.298 1.52131 0.848635 0
M  V30 7301 C 665.43 3.03029 1.5616 0
M  V30 7302 H 666.623 2.98888 -0.246131 0
M  V30 7303 H 664.176 1.5542 -0.165622 0
M  V30 7304 H 664.911 2.34205 2.24317 0
M  V30 7305 H 664.696 3.74606 1.15812 0
M  V30 7306 H 666.186 3.58857 2.13569 0
M  V30 7307 N 666.623 0.143563 1.56945 0
M  V30 7308 C 667.872 -0.50835 1.95189 0
M  V30 7309 C 668.185 -1.66239 1.03073 0
M  V30 7310 O 669.391 -2.3787 1.30882 0
M  V30 7311 C 667.847 -0.955735 3.46978 0
M  V30 7312 C 667.455 0.171183 4.47673 0
M  V30 7313 C 669.199 -1.57763 3.94095 0
M  V30 7314 C 667.106 -0.294279 5.90667 0
M  V30 7315 H 666.036 -0.193679 0.728701 0
M  V30 7316 H 668.687 0.227357 1.82086 0
M  V30 7317 H 667.069 -1.7466 3.55401 0
M  V30 7318 H 668.243 0.948049 4.50942 0
M  V30 7319 H 666.558 0.701273 4.10452 0
M  V30 7320 H 669.155 -1.93745 4.98364 0
M  V30 7321 H 669.498 -2.46531 3.35452 0
M  V30 7322 H 670.031 -0.851728 3.88575 0
M  V30 7323 H 666.77 0.557939 6.53121 0
M  V30 7324 H 666.29 -1.0371 5.90766 0
M  V30 7325 H 667.969 -0.747426 6.42668 0
M  V30 7326 N 668.101 -1.57061 -0.130224 0
M  V30 7327 C 669.326 -1.88802 -0.858409 0
M  V30 7328 C 669.751 -0.734353 -1.73173 0
M  V30 7329 O 669.109 0.315529 -1.78533 0
M  V30 7330 C 669.157 -3.19228 -1.67708 0
M  V30 7331 O 668.261 -3.04343 -2.78297 0
M  V30 7332 H 667.602 -0.619849 -0.238083 0
M  V30 7333 H 670.132 -2.04271 -0.115995 0
M  V30 7334 H 670.142 -3.51669 -2.06864 0
M  V30 7335 H 668.817 -4.02793 -1.0359 0
M  V30 7336 H 667.394 -2.83346 -2.42425 0
M  V30 7337 N 669.579 0.400081 -1.52437 0
M  V30 7338 C 670.526 1.48803 -1.76426 0
M  V30 7339 C 671.496 1.5461 -0.607032 0
M  V30 7340 O 672.681 1.71041 -0.845563 0
M  V30 7341 C 669.821 2.86156 -1.92896 0
M  V30 7342 C 668.934 2.89587 -3.20567 0
M  V30 7343 C 668.069 4.18296 -3.27417 0
M  V30 7344 C 667.108 4.15736 -4.49255 0
M  V30 7345 N 666.245 5.36032 -4.53447 0
M  V30 7346 H 671.085 1.27649 -2.69276 0
M  V30 7347 H 668.622 0.619451 -1.33421 0
M  V30 7348 H 670.58 3.65901 -2.00429 0
M  V30 7349 H 669.21 3.05785 -1.03418 0
M  V30 7350 H 668.262 2.02278 -3.22161 0
M  V30 7351 H 669.574 2.83562 -4.10358 0
M  V30 7352 H 668.728 5.06439 -3.34072 0
M  V30 7353 H 667.467 4.27028 -2.35581 0
M  V30 7354 H 666.472 3.25982 -4.42737 0
M  V30 7355 H 667.697 4.08636 -5.42396 0
M  V30 7356 H 665.643 5.45415 -3.64498 0
M  V30 7357 H 665.56 5.32038 -5.37096 0
M  V30 7358 H 666.828 6.26104 -4.64343 0
M  V30 7359 N 671.057 1.43213 0.657864 0
M  V30 7360 C 672.305 1.44298 1.41501 0
M  V30 7361 C 672.626 0.0666478 1.94886 0
M  V30 7362 O 671.896 -0.897345 1.74139 0
M  V30 7363 H 670.476 0.531257 0.525143 0
M  V30 7364 H 673.138 1.78777 0.776195 0
M  V30 7365 H 672.234 2.1528 2.25966 0
M  V30 7366 N 672.536 -0.895792 1.29666 0
M  V30 7367 C 673.782 -1.64908 1.18039 0
M  V30 7368 C 674.115 -1.9236 -0.266682 0
M  V30 7369 O 673.39 -1.53682 -1.19214 0
M  V30 7370 C 673.673 -2.99574 1.99819 0
M  V30 7371 C 673.526 -2.79163 3.52687 0
M  V30 7372 C 674.845 -4.00358 1.82761 0
M  V30 7373 H 671.964 -0.598437 0.430165 0
M  V30 7374 H 674.606 -1.03736 1.59182 0
M  V30 7375 H 672.756 -3.51786 1.64859 0
M  V30 7376 H 674.428 -2.33821 3.9765 0
M  V30 7377 H 672.671 -2.13871 3.77414 0
M  V30 7378 H 673.342 -3.74871 4.05186 0
M  V30 7379 H 675.818 -3.57268 2.13304 0
M  V30 7380 H 674.694 -4.92514 2.42325 0
M  V30 7381 H 674.955 -4.35096 0.783839 0
M  V30 7382 N 674.014 -1.12206 -1.10668 0
M  V30 7383 C 675.239 -0.898938 -1.86906 0
M  V30 7384 C 675.664 0.546346 -1.79991 0
M  V30 7385 O 675.022 1.38655 -1.1681 0
M  V30 7386 C 675.07 -1.37529 -3.33344 0
M  V30 7387 O 674.174 -0.55218 -4.08687 0
M  V30 7388 H 673.515 -0.323163 -0.580053 0
M  V30 7389 H 676.045 -1.49355 -1.39837 0
M  V30 7390 H 676.055 -1.3733 -3.84193 0
M  V30 7391 H 674.73 -2.42767 -3.37693 0
M  V30 7392 H 673.307 -0.620947 -3.67694 0
M  V30 7393 N 675.492 1.28418 -0.913599 0
M  V30 7394 C 676.717 1.99643 -0.561899 0
M  V30 7395 C 677.142 1.67819 0.849608 0
M  V30 7396 O 676.5 0.910503 1.56779 0
M  V30 7397 C 676.548 3.52116 -0.777622 0
M  V30 7398 O 675.652 4.12076 0.163457 0
M  V30 7399 H 674.993 0.627229 -0.217898 0
M  V30 7400 H 677.523 1.63575 -1.229 0
M  V30 7401 H 677.533 4.02163 -0.687666 0
M  V30 7402 H 676.208 3.74613 -1.8066 0
M  V30 7403 H 674.785 3.72892 0.0247827 0
M  V30 7404 N 676.97 0.677563 1.42291 0
M  V30 7405 C 678.381 0.277912 1.8462 0
M  V30 7406 C 678.732 -1.18048 1.56714 0
M  V30 7407 O 677.857 -1.90404 1.02836 0
M  V30 7408 C 678.452 0.497619 3.35126 0
M  V30 7409 C 677.011 0.152063 3.76093 0
M  V30 7410 C 676.158 0.78872 2.65847 0
M  V30 7411 H 679.109 0.879527 1.32098 0
M  V30 7412 H 679.13 -0.24939 3.79682 0
M  V30 7413 H 678.642 1.55913 3.55405 0
M  V30 7414 H 676.743 -0.905896 3.6142 0
M  V30 7415 H 676.856 0.594514 4.75397 0
M  V30 7416 H 675.22 0.219813 2.5375 0
M  V30 7417 H 676.003 1.85374 2.88949 0
M  V30 7418 N 678.448 -1.51871 0.421078 0
M  V30 7419 C 679.678 -2.06057 -0.149723 0
M  V30 7420 C 680.086 -1.29002 -1.38402 0
M  V30 7421 O 679.429 -0.338385 -1.80556 0
M  V30 7422 C 679.491 -3.55216 -0.553339 0
M  V30 7423 C 679.155 -4.53408 0.571879 0
M  V30 7424 C 680.152 -4.99586 1.4391 0
M  V30 7425 C 677.837 -4.967 0.747979 0
M  V30 7426 C 679.831 -5.87711 2.46727 0
M  V30 7427 C 677.518 -5.84619 1.77944 0
M  V30 7428 C 678.516 -6.30021 2.63748 0
M  V30 7429 O 678.204 -7.16197 3.65126 0
M  V30 7430 H 677.936 -0.675744 -0.0186102 0
M  V30 7431 H 680.49 -1.96618 0.594166 0
M  V30 7432 H 678.72 -3.62381 -1.34969 0
M  V30 7433 H 680.409 -3.91992 -1.05342 0
M  V30 7434 H 681.175 -4.66846 1.31451 0
M  V30 7435 H 677.054 -4.60913 0.0897357 0
M  V30 7436 H 680.598 -6.2307 3.13734 0
M  V30 7437 H 676.495 -6.16771 1.90429 0
M  V30 7438 H 677.263 -7.34337 3.61512 0
M  V30 7439 N 679.926 -0.151884 -1.56866 0
M  V30 7440 C 680.856 0.781943 -2.20018 0
M  V30 7441 C 681.837 1.25347 -1.14987 0
M  V30 7442 O 683.022 1.31015 -1.43348 0
M  V30 7443 C 680.152 2.01928 -2.82564 0
M  V30 7444 C 679.106 1.68434 -3.93464 0
M  V30 7445 C 678.432 2.99472 -4.42968 0
M  V30 7446 C 679.732 0.927244 -5.14003 0
M  V30 7447 H 681.426 0.255607 -2.98307 0
M  V30 7448 H 678.972 0.121502 -1.43486 0
M  V30 7449 H 680.925 2.67741 -3.25411 0
M  V30 7450 H 679.649 2.56943 -2.01614 0
M  V30 7451 H 678.308 1.04998 -3.51242 0
M  V30 7452 H 677.956 3.52488 -3.58834 0
M  V30 7453 H 677.656 2.77823 -5.17772 0
M  V30 7454 H 679.18 3.66348 -4.88489 0
M  V30 7455 H 680.594 1.48756 -5.53665 0
M  V30 7456 H 678.991 0.810513 -5.94601 0
M  V30 7457 H 680.061 -0.0801163 -4.84834 0
M  V30 7458 N 681.404 1.57128 0.121893 0
M  V30 7459 C 682.815 1.73902 0.679348 0
M  V30 7460 C 683.166 0.770135 1.80453 0
M  V30 7461 O 682.291 -0.0576083 2.16323 0
M  V30 7462 C 682.886 3.15328 1.2391 0
M  V30 7463 C 681.445 3.33618 1.74288 0
M  V30 7464 C 680.592 2.6978 0.641414 0
M  V30 7465 H 683.543 1.58359 -0.104 0
M  V30 7466 H 683.564 3.16718 2.10879 0
M  V30 7467 H 683.076 3.85821 0.419957 0
M  V30 7468 H 681.177 2.68162 2.58689 0
M  V30 7469 H 681.29 4.4176 1.85432 0
M  V30 7470 H 679.654 2.30935 1.0743 0
M  V30 7471 H 680.437 3.42895 -0.166707 0
M  V30 7472 N 682.882 -0.391992 1.52647 0
M  V30 7473 C 684.129 -1.13732 1.67545 0
M  V30 7474 C 684.457 -1.90045 0.413881 0
M  V30 7475 O 683.712 -1.86157 -0.603646 0
M  V30 7476 C 684.011 -2.14401 2.85949 0
M  V30 7477 C 683.677 -1.54767 4.23507 0
M  V30 7478 C 682.339 -1.38229 4.60919 0
M  V30 7479 C 684.691 -1.11382 5.0916 0
M  V30 7480 C 682.019 -0.7685 5.81645 0
M  V30 7481 C 684.371 -0.514143 6.30507 0
M  V30 7482 C 683.035 -0.33604 6.66654 0
M  V30 7483 H 682.305 -0.416174 0.613091 0
M  V30 7484 H 684.952 -0.422327 1.86785 0
M  V30 7485 H 683.257 -2.92108 2.61114 0
M  V30 7486 H 684.954 -2.71974 2.94671 0
M  V30 7487 H 681.544 -1.68626 3.94035 0
M  V30 7488 H 685.728 -1.22962 4.80826 0
M  V30 7489 H 680.984 -0.618681 6.08262 0
M  V30 7490 H 685.158 -0.169657 6.96193 0
M  V30 7491 H 682.785 0.14166 7.60068 0
M  V30 7492 N 684.36 -1.4356 -0.65026 0
M  V30 7493 C 685.608 -1.45046 -1.40734 0
M  V30 7494 C 685.929 -0.0769822 -1.94848 0
M  V30 7495 O 685.199 0.888098 -1.74613 0
M  V30 7496 H 683.779 -0.534034 -0.522318 0
M  V30 7497 H 686.441 -1.79186 -0.766703 0
M  V30 7498 H 685.537 -2.16476 -2.24822 0
M  V30 7499 N 685.838 0.888903 -1.30139 0
M  V30 7500 C 687.086 1.63713 -1.18501 0
M  V30 7501 C 687.407 1.9324 0.261399 0
M  V30 7502 O 686.677 1.56608 1.17689 0
M  V30 7503 H 685.257 0.606861 -0.435579 0
M  V30 7504 H 687.919 1.06525 -1.63213 0
M  V30 7505 H 687.015 2.58894 -1.743 0
M  V30 7506 N 687.317 1.12792 1.10072 0
M  V30 7507 C 688.565 0.883796 1.81751 0
M  V30 7508 C 688.886 -0.591891 1.858 0
M  V30 7509 O 688.156 -1.43017 1.33876 0
M  V30 7510 H 686.736 0.323978 0.673088 0
M  V30 7511 H 689.398 1.42314 1.33164 0
M  V30 7512 H 688.494 1.26863 2.85153 0
M  V30 7513 N 688.795 -1.27931 0.920396 0
M  V30 7514 C 690.211 -1.47085 0.619537 0
M  V30 7515 C 690.411 -1.83463 -0.833291 0
M  V30 7516 O 689.467 -1.94363 -1.61181 0
M  V30 7517 C 690.78 -2.56878 1.56314 0
M  V30 7518 C 692.328 -2.70743 1.57058 0
M  V30 7519 C 692.803 -3.83687 2.50097 0
M  V30 7520 N 694.294 -3.9105 2.48262 0
M  V30 7521 C 695.029 -4.77842 3.16945 0
M  V30 7522 N 694.525 -5.69176 3.94982 0
M  V30 7523 N 696.318 -4.71509 3.06 0
M  V30 7524 H 688.469 -1.02601 1.85975 0
M  V30 7525 H 690.732 -0.511682 0.798051 0
M  V30 7526 H 690.438 -2.36923 2.59923 0
M  V30 7527 H 690.312 -3.54117 1.29928 0
M  V30 7528 H 692.699 -2.90083 0.541832 0
M  V30 7529 H 692.78 -1.74015 1.8749 0
M  V30 7530 H 692.424 -3.65101 3.53077 0
M  V30 7531 H 692.354 -4.79827 2.16964 0
M  V30 7532 H 694.845 -3.25738 1.91581 0
M  V30 7533 H 695.158 -6.32245 4.44394 0
M  V30 7534 H 693.503 -5.68995 3.99086 0
M  V30 7535 H 696.694 -3.99151 2.44533 0
M  V30 7536 H 696.867 -5.38933 3.59799 0
M  V30 7537 N 690.273 -0.685099 -1.4193 0
M  V30 7538 C 691.223 0.00977295 -2.27998 0
M  V30 7539 C 692.207 0.763315 -1.41641 0
M  V30 7540 O 693.399 0.640532 -1.65004 0
M  V30 7541 C 690.528 0.952972 -3.29808 0
M  V30 7542 C 689.614 0.196231 -4.23646 0
M  V30 7543 N 690.005 -0.804401 -4.99363 0
M  V30 7544 C 688.303 0.433213 -4.43891 0
M  V30 7545 C 689.004 -1.25646 -5.67968 0
M  V30 7546 N 687.98 -0.5844 -5.4045 0
M  V30 7547 H 691.782 -0.757586 -2.83968 0
M  V30 7548 H 689.296 -0.515037 -1.54017 0
M  V30 7549 H 691.293 1.46585 -3.9028 0
M  V30 7550 H 689.953 1.72004 -2.75399 0
M  V30 7551 H 690.964 -1.18429 -5.04177 0
M  V30 7552 H 687.641 1.17899 -4.00507 0
M  V30 7553 H 689.031 -2.08622 -6.38691 0
M  V30 7554 N 691.751 1.51645 -0.429126 0
M  V30 7555 C 693.167 1.59394 -0.080994 0
M  V30 7556 C 693.367 1.44064 1.40882 0
M  V30 7557 O 692.423 1.27771 2.17786 0
M  V30 7558 C 693.736 2.94779 -0.593773 0
M  V30 7559 C 695.284 3.08067 -0.553494 0
M  V30 7560 C 695.759 4.45963 -1.04311 0
M  V30 7561 N 697.25 4.5226 -1.00076 0
M  V30 7562 C 697.985 5.57268 -1.35056 0
M  V30 7563 N 697.481 6.69734 -1.77282 0
M  V30 7564 N 699.274 5.47582 -1.26925 0
M  V30 7565 H 691.425 1.59856 -1.39857 0
M  V30 7566 H 693.688 0.753095 -0.575805 0
M  V30 7567 H 693.394 3.11342 -1.63583 0
M  V30 7568 H 693.268 3.77197 -0.0142202 0
M  V30 7569 H 695.655 2.91177 0.479556 0
M  V30 7570 H 695.736 2.27508 -1.16935 0
M  V30 7571 H 695.38 4.63598 -2.07459 0
M  V30 7572 H 695.31 5.25049 -0.403873 0
M  V30 7573 H 697.801 3.71537 -0.690564 0
M  V30 7574 H 698.114 7.4587 -2.02232 0
M  V30 7575 H 696.459 6.70963 -1.81202 0
M  V30 7576 H 699.65 4.58604 -0.93809 0
M  V30 7577 H 699.823 6.29308 -1.54516 0
M  V30 7578 N 693.229 0.160201 1.56784 0
M  V30 7579 C 694.469 -0.490179 1.98435 0
M  V30 7580 C 694.833 -1.61164 1.04355 0
M  V30 7581 O 696.034 -2.3238 1.35103 0
M  V30 7582 C 694.305 -0.971106 3.43954 0
M  V30 7583 S 695.864 -1.62423 4.07632 0
M  V30 7584 H 692.682 -0.158056 0.693209 0
M  V30 7585 H 695.284 0.255036 1.93829 0
M  V30 7586 H 693.988 -0.144323 4.10146 0
M  V30 7587 H 693.519 -1.75063 3.52302 0
M  V30 7588 H 695.534 -2.91199 4.01768 0
M  V30 7589 N 694.707 -1.5719 -0.113559 0
M  V30 7590 C 695.956 -1.84325 -0.818984 0
M  V30 7591 C 696.269 -0.746685 -1.80787 0
M  V30 7592 O 697.475 -0.904596 -2.55987 0
M  V30 7593 C 695.931 -3.26818 -1.50724 0
M  V30 7594 C 695.539 -4.44498 -0.559065 0
M  V30 7595 C 697.283 -3.63196 -2.19748 0
M  V30 7596 C 695.19 -5.7802 -1.25086 0
M  V30 7597 H 694.12 -0.687507 -0.309596 0
M  V30 7598 H 696.771 -1.8336 -0.0717621 0
M  V30 7599 H 695.153 -3.22269 -2.30128 0
M  V30 7600 H 696.327 -4.60356 0.202146 0
M  V30 7601 H 694.642 -4.16393 0.024495 0
M  V30 7602 H 697.239 -4.60226 -2.72206 0
M  V30 7603 H 697.582 -2.90899 -2.97798 0
M  V30 7604 H 698.115 -3.69553 -1.47226 0
M  V30 7605 H 694.854 -6.53501 -0.511539 0
M  V30 7606 H 694.374 -5.66038 -1.98395 0
M  V30 7607 H 696.053 -6.2196 -1.78253 0
M  V30 7608 N 696.185 0.383891 -1.52853 0
M  V30 7609 C 697.433 1.12619 -1.67814 0
M  V30 7610 C 697.754 1.90354 -0.423141 0
M  V30 7611 O 697.024 1.87649 0.562554 0
M  V30 7612 H 695.604 0.418738 -0.618601 0
M  V30 7613 H 698.266 0.43495 -1.89985 0
M  V30 7614 H 697.362 1.82624 -2.5309 0
M  V30 7615 N 697.663 1.43903 0.642637 0
M  V30 7616 C 698.573 1.52349 1.78401 0
M  V30 7617 C 699.589 0.409869 1.69104 0
M  V30 7618 O 700.765 0.665548 1.90085 0
M  V30 7619 C 697.83 1.45408 3.14734 0
M  V30 7620 C 696.891 2.67528 3.35749 0
M  V30 7621 C 696.124 2.60909 4.65577 0
M  V30 7622 O 696.347 1.6627 5.45628 0
M  V30 7623 O 695.281 3.5158 4.88544 0
M  V30 7624 H 699.107 2.48752 1.7423 0
M  V30 7625 H 696.692 1.26021 0.802439 0
M  V30 7626 H 698.574 1.44019 3.96026 0
M  V30 7627 H 697.249 0.521437 3.19473 0
M  V30 7628 H 696.156 2.74487 2.5418 0
M  V30 7629 H 697.489 3.598 3.35864 0
M  V30 7630 N 699.141 -0.881989 1.30609 0
M  V30 7631 C 700.091 -1.97539 1.13852 0
M  V30 7632 C 701.075 -1.60813 0.0528428 0
M  V30 7633 O 702.267 -1.74827 0.276484 0
M  V30 7634 C 699.396 -3.32977 0.835519 0
M  V30 7635 C 698.482 -3.76008 1.96159 0
M  V30 7636 N 698.873 -3.91109 3.20729 0
M  V30 7637 C 697.171 -4.05427 1.85863 0
M  V30 7638 C 697.872 -4.27661 3.94311 0
M  V30 7639 N 696.848 -4.37686 3.22385 0
M  V30 7640 H 700.65 -2.07309 2.08327 0
M  V30 7641 H 698.164 -1.072 1.21992 0
M  V30 7642 H 700.161 -4.11041 0.696477 0
M  V30 7643 H 698.821 -3.24542 -0.101135 0
M  V30 7644 H 699.832 -3.7616 3.55984 0
M  V30 7645 H 696.509 -4.05449 0.995847 0
M  V30 7646 H 697.899 -4.47042 5.01601 0
M  V30 7647 N 700.619 -1.13374 -1.09472 0
M  V30 7648 C 701.866 -0.89519 -1.81639 0
M  V30 7649 C 702.194 0.57868 -1.85692 0
M  V30 7650 O 701.449 1.44426 -1.32059 0
M  V30 7651 C 701.748 -1.42759 -3.2765 0
M  V30 7652 C 701.414 -2.91822 -3.43731 0
M  V30 7653 C 700.076 -3.32521 -3.47827 0
M  V30 7654 C 702.428 -3.87727 -3.48307 0
M  V30 7655 C 699.756 -4.6781 -3.54078 0
M  V30 7656 C 702.108 -5.22859 -3.56091 0
M  V30 7657 C 700.772 -5.63086 -3.58456 0
M  V30 7658 H 700.042 -0.327573 -0.664663 0
M  V30 7659 H 702.689 -1.4156 -1.28969 0
M  V30 7660 H 700.994 -0.827871 -3.82954 0
M  V30 7661 H 702.691 -1.2191 -3.8202 0
M  V30 7662 H 699.281 -2.5935 -3.41226 0
M  V30 7663 H 703.465 -3.57371 -3.44383 0
M  V30 7664 H 698.721 -4.98353 -3.54195 0
M  V30 7665 H 702.895 -5.96989 -3.58577 0
M  V30 7666 H 700.522 -6.67905 -3.63052 0
M  V30 7667 N 702.098 1.27442 -0.927168 0
M  V30 7668 C 703.061 2.2512 -0.430525 0
M  V30 7669 C 704.061 1.54357 0.450619 0
M  V30 7670 O 705.251 1.72371 0.251774 0
M  V30 7671 C 702.383 3.38763 0.381144 0
M  V30 7672 H 703.576 2.70569 -1.29354 0
M  V30 7673 H 701.129 1.39355 -0.707806 0
M  V30 7674 H 701.864 2.98695 1.263 0
M  V30 7675 H 701.649 3.91298 -0.250618 0
M  V30 7676 H 703.139 4.11364 0.719012 0
M  V30 7677 N 703.576 0.692616 1.41565 0
M  V30 7678 C 704.806 0.230943 2.05305 0
M  V30 7679 C 705.214 -1.12379 1.52209 0
M  V30 7680 O 704.557 -1.71281 0.663968 0
M  V30 7681 C 704.619 0.107894 3.59338 0
M  V30 7682 C 704.283 1.39419 4.35214 0
M  V30 7683 C 705.28 2.33143 4.64694 0
M  V30 7684 C 702.965 1.64674 4.74539 0
M  V30 7685 C 704.959 3.50385 5.32456 0
M  V30 7686 C 702.646 2.82202 5.42038 0
M  V30 7687 C 703.644 3.74881 5.70923 0
M  V30 7688 O 703.332 4.90351 6.37033 0
M  V30 7689 H 703.064 0.105708 0.667684 0
M  V30 7690 H 705.618 0.94488 1.82376 0
M  V30 7691 H 703.848 -0.661785 3.80995 0
M  V30 7692 H 705.537 -0.316213 4.04666 0
M  V30 7693 H 706.303 2.14887 4.34797 0
M  V30 7694 H 702.182 0.934007 4.51439 0
M  V30 7695 H 705.726 4.22743 5.54918 0
M  V30 7696 H 701.623 3.00376 5.71353 0
M  V30 7697 H 702.391 4.90128 6.55528 0
M  V30 7698 N 705.054 -1.51416 0.437162 0
M  V30 7699 C 706.294 -2.03995 -0.128538 0
M  V30 7700 C 706.658 -1.31417 -1.39977 0
M  V30 7701 O 707.859 -1.74369 -2.0457 0
M  V30 7702 C 706.13 -3.55757 -0.342317 0
M  V30 7703 S 707.689 -4.3006 -0.871446 0
M  V30 7704 H 704.507 -0.710283 -0.0319322 0
M  V30 7705 H 707.109 -1.86177 0.596526 0
M  V30 7706 H 705.813 -4.06148 0.589233 0
M  V30 7707 H 705.344 -3.77869 -1.09447 0
M  V30 7708 H 707.359 -4.47248 -2.14903 0
M  V30 7709 N 706.532 -0.168513 -1.56696 0
M  V30 7710 C 707.464 0.794249 -2.14998 0
M  V30 7711 C 708.477 1.1957 -1.10485 0
M  V30 7712 O 709.666 1.13604 -1.37682 0
M  V30 7713 C 706.766 2.08018 -2.67547 0
M  V30 7714 C 705.939 1.84274 -3.96689 0
M  V30 7715 C 704.998 2.97059 -4.3433 0
M  V30 7716 O 704.024 2.67815 -5.02259 0
M  V30 7717 N 705.226 4.24775 -3.9566 0
M  V30 7718 H 707.991 0.295832 -2.98236 0
M  V30 7719 H 705.552 0.0143611 -1.61894 0
M  V30 7720 H 707.544 2.82559 -2.89729 0
M  V30 7721 H 706.114 2.49059 -1.88914 0
M  V30 7722 H 705.334 0.936528 -3.82914 0
M  V30 7723 H 706.622 1.65773 -4.81037 0
M  V30 7724 H 706.02 4.51395 -3.40968 0
M  V30 7725 H 704.577 4.96027 -4.22848 0
M  V30 7726 N 708.01 1.57248 0.105221 0
M  V30 7727 C 708.94 2.04374 1.12931 0
M  V30 7728 C 709.921 0.93074 1.42377 0
M  V30 7729 O 711.106 1.20136 1.52581 0
M  V30 7730 C 708.236 2.45967 2.45189 0
M  V30 7731 C 707.19 3.60838 2.30174 0
M  V30 7732 C 706.516 3.88374 3.67518 0
M  V30 7733 C 707.816 4.92084 1.75073 0
M  V30 7734 H 709.51 2.9018 0.737287 0
M  V30 7735 H 707.056 1.39601 0.353211 0
M  V30 7736 H 709.009 2.77542 3.17094 0
M  V30 7737 H 707.733 1.57148 2.86308 0
M  V30 7738 H 706.392 3.29493 1.60716 0
M  V30 7739 H 706.04 2.96739 4.06147 0
M  V30 7740 H 705.74 4.65703 3.58321 0
M  V30 7741 H 707.264 4.22415 4.40906 0
M  V30 7742 H 708.678 5.22106 2.36809 0
M  V30 7743 H 707.075 5.73507 1.76662 0
M  V30 7744 H 708.145 4.79684 0.709347 0
M  V30 7745 N 709.488 -0.375779 1.53054 0
M  V30 7746 C 710.736 -1.11727 1.68409 0
M  V30 7747 C 711.057 -1.90127 0.43323 0
M  V30 7748 O 710.327 -1.87945 -0.552595 0
M  V30 7749 H 708.907 -0.415451 0.620813 0
M  V30 7750 H 711.569 -0.424869 1.90213 0
M  V30 7751 H 710.665 -1.8128 2.54055 0
M  V30 7752 N 710.966 -1.44241 -0.634997 0
M  V30 7753 C 712.212 -1.47038 -1.39669 0
M  V30 7754 C 712.545 -0.101122 -1.93937 0
M  V30 7755 O 711.82 0.880699 -1.73418 0
M  V30 7756 C 712.103 -2.52763 -2.56482 0
M  V30 7757 C 711.956 -3.99032 -2.07589 0
M  V30 7758 C 713.275 -2.55031 -3.58674 0
M  V30 7759 H 710.394 -0.53537 -0.506506 0
M  V30 7760 H 713.036 -1.75898 -0.718317 0
M  V30 7761 H 711.186 -2.28284 -3.14354 0
M  V30 7762 H 712.858 -4.3463 -1.54577 0
M  V30 7763 H 711.101 -4.10994 -1.38804 0
M  V30 7764 H 711.772 -4.68649 -2.91671 0
M  V30 7765 H 714.248 -2.76893 -3.10595 0
M  V30 7766 H 713.124 -3.30916 -4.37934 0
M  V30 7767 H 713.385 -1.59085 -4.12486 0
M  V30 7768 N 712.444 0.87505 -1.31075 0
M  V30 7769 C 713.374 1.99775 -1.20881 0
M  V30 7770 C 714.355 1.69822 -0.0971612 0
M  V30 7771 O 715.54 1.92158 -0.280895 0
M  V30 7772 C 712.67 3.35163 -0.910118 0
M  V30 7773 C 711.624 3.79406 -1.98078 0
M  V30 7774 C 710.95 5.12197 -1.53488 0
M  V30 7775 C 712.25 3.97061 -3.39323 0
M  V30 7776 H 713.944 2.08562 -2.14808 0
M  V30 7777 H 711.49 1.00207 -1.03415 0
M  V30 7778 H 713.443 4.13237 -0.825423 0
M  V30 7779 H 712.167 3.26536 0.064822 0
M  V30 7780 H 710.826 3.03568 -2.05528 0
M  V30 7781 H 710.474 5.00007 -0.547941 0
M  V30 7782 H 710.174 5.4277 -2.2511 0
M  V30 7783 H 711.698 5.92785 -1.46417 0
M  V30 7784 H 713.112 4.65545 -3.34576 0
M  V30 7785 H 711.509 4.39025 -4.09118 0
M  V30 7786 H 712.579 3.00601 -3.80483 0
M  V30 7787 N 713.922 1.13953 1.08869 0
M  V30 7788 C 714.855 0.765765 2.14968 0
M  V30 7789 C 715.833 -0.250689 1.60656 0
M  V30 7790 O 717.017 -0.140852 1.87973 0
M  V30 7791 C 714.144 0.136146 3.38426 0
M  V30 7792 C 713.19 1.12201 4.11477 0
M  V30 7793 S 714.023 2.65711 4.64928 0
M  V30 7794 C 715.179 2.04125 5.91679 0
M  V30 7795 H 715.412 1.66444 2.46341 0
M  V30 7796 H 712.945 0.960263 1.20906 0
M  V30 7797 H 714.903 -0.220712 4.09906 0
M  V30 7798 H 713.564 -0.739887 3.05261 0
M  V30 7799 H 712.757 0.629398 5.00055 0
M  V30 7800 H 712.359 1.42262 3.45886 0
M  V30 7801 H 714.651 1.39381 6.63008 0
M  V30 7802 H 715.594 2.90808 6.45629 0
M  V30 7803 H 716.002 1.4905 5.44467 0
M  V30 7804 N 715.4 -1.26948 0.933913 0
M  V30 7805 C 716.625 -1.98724 0.593589 0
M  V30 7806 C 717.05 -1.6915 -0.822801 0
M  V30 7807 O 716.408 -0.93533 -1.5531 0
M  V30 7808 C 716.456 -3.50834 0.833542 0
M  V30 7809 O 715.56 -4.12284 -0.0978788 0
M  V30 7810 H 714.901 -0.623683 0.227849 0
M  V30 7811 H 717.431 -1.61599 1.25486 0
M  V30 7812 H 717.441 -4.01018 0.75156 0
M  V30 7813 H 716.116 -3.71691 1.86597 0
M  V30 7814 H 714.693 -3.72884 0.0345443 0
M  V30 7815 N 716.879 -0.700114 -1.41195 0
M  V30 7816 C 718.128 -0.230082 -2.00383 0
M  V30 7817 C 718.441 1.17857 -1.56106 0
M  V30 7818 O 719.647 1.74631 -2.07885 0
M  V30 7819 C 718.103 -0.360447 -3.5809 0
M  V30 7820 C 717.711 -1.77475 -4.11347 0
M  V30 7821 C 719.455 0.0495799 -4.24471 0
M  V30 7822 C 717.362 -1.85653 -5.61504 0
M  V30 7823 H 716.292 -0.0822633 -0.749499 0
M  V30 7824 H 718.943 -0.868969 -1.6162 0
M  V30 7825 H 717.325 0.346768 -3.94479 0
M  V30 7826 H 718.499 -2.51109 -3.86369 0
M  V30 7827 H 716.814 -2.13486 -3.57509 0
M  V30 7828 H 719.411 0.00898219 -5.34699 0
M  V30 7829 H 719.754 1.08904 -4.01803 0
M  V30 7830 H 720.287 -0.607521 -3.93134 0
M  V30 7831 H 717.026 -2.87667 -5.89006 0
M  V30 7832 H 716.546 -1.1641 -5.88395 0
M  V30 7833 H 718.225 -1.62151 -6.26351 0
M  V30 7834 N 718.357 1.51182 -0.445186 0
M  V30 7835 C 719.604 2.02152 0.118645 0
M  V30 7836 C 719.932 1.32888 1.42025 0
M  V30 7837 O 719.187 0.435041 1.90803 0
M  V30 7838 C 719.486 3.55408 0.376797 0
M  V30 7839 C 719.152 4.43008 -0.839945 0
M  V30 7840 C 717.814 4.66669 -1.17361 0
M  V30 7841 C 720.166 4.9435 -1.65127 0
M  V30 7842 C 717.494 5.38919 -2.31913 0
M  V30 7843 C 719.846 5.67857 -2.78786 0
M  V30 7844 C 718.51 5.89779 -3.12597 0
M  V30 7845 H 717.78 0.739727 0.0434152 0
M  V30 7846 H 720.427 1.82055 -0.593984 0
M  V30 7847 H 718.732 3.73879 1.1714 0
M  V30 7848 H 720.429 3.92388 0.826602 0
M  V30 7849 H 717.019 4.24793 -0.569958 0
M  V30 7850 H 721.203 4.75947 -1.4067 0
M  V30 7851 H 716.459 5.54105 -2.58413 0
M  V30 7852 H 720.633 6.06628 -3.42017 0
M  V30 7853 H 718.26 6.45542 -4.01471 0
M  V30 7854 N 719.835 0.176821 1.56605 0
M  V30 7855 C 721.084 -0.466833 1.96223 0
M  V30 7856 C 721.397 -1.64015 1.06576 0
M  V30 7857 O 722.603 -2.3504 1.35898 0
M  V30 7858 C 721.059 -0.881921 3.48927 0
M  V30 7859 C 720.667 0.266102 4.47209 0
M  V30 7860 C 722.411 -1.49368 3.97353 0
M  V30 7861 C 720.318 -0.168923 5.91159 0
M  V30 7862 H 719.248 -0.178178 0.732645 0
M  V30 7863 H 721.899 0.265929 1.81563 0
M  V30 7864 H 720.281 -1.67082 3.59026 0
M  V30 7865 H 721.455 1.04349 4.4883 0
M  V30 7866 H 719.77 0.788178 4.08872 0
M  V30 7867 H 722.367 -1.8313 5.02362 0
M  V30 7868 H 722.71 -2.3936 3.40606 0
M  V30 7869 H 723.243 -0.769114 3.90294 0
M  V30 7870 H 719.982 0.696351 6.51791 0
M  V30 7871 H 719.502 -0.911552 5.92833 0
M  V30 7872 H 721.181 -0.610938 6.44109 0
M  V30 7873 N 721.313 -1.57302 -0.09688 0
M  V30 7874 C 722.729 -1.53094 -0.451041 0
M  V30 7875 C 722.929 -0.893265 -1.80618 0
M  V30 7876 O 721.985 -0.485013 -2.47798 0
M  V30 7877 C 723.298 -2.9782 -0.415172 0
M  V30 7878 C 724.846 -3.09026 -0.497155 0
M  V30 7879 C 725.321 -4.55356 -0.491452 0
M  V30 7880 N 726.812 -4.59896 -0.552258 0
M  V30 7881 C 727.547 -5.70563 -0.569654 0
M  V30 7882 N 727.043 -6.90666 -0.543365 0
M  V30 7883 N 728.836 -5.58733 -0.614331 0
M  V30 7884 H 720.987 -1.97131 0.790771 0
M  V30 7885 H 723.25 -0.901211 0.294147 0
M  V30 7886 H 722.956 -3.47933 0.513362 0
M  V30 7887 H 722.83 -3.56416 -1.23481 0
M  V30 7888 H 725.217 -2.58902 -1.41611 0
M  V30 7889 H 725.298 -2.53386 0.35059 0
M  V30 7890 H 724.942 -5.06131 0.423549 0
M  V30 7891 H 724.872 -5.08832 -1.35639 0
M  V30 7892 H 727.363 -3.73456 -0.577842 0
M  V30 7893 H 727.676 -7.70769 -0.559873 0
M  V30 7894 H 726.021 -6.93123 -0.510441 0
M  V30 7895 H 729.212 -4.63809 -0.632387 0
M  V30 7896 H 729.385 -6.44984 -0.62442 0
M  V30 7897 N 722.791 0.367657 -1.53252 0
M  V30 7898 C 724.019 1.13119 -1.73239 0
M  V30 7899 C 724.434 1.831 -0.460404 0
M  V30 7900 O 723.791 1.73483 0.566557 0
M  V30 7901 C 723.842 2.16308 -2.89643 0
M  V30 7902 O 723.563 1.49175 -4.1192 0
M  V30 7903 C 725.064 3.05224 -3.21486 0
M  V30 7904 H 722.284 0.338318 -0.579467 0
M  V30 7905 H 724.828 0.42721 -1.99988 0
M  V30 7906 H 722.983 2.82307 -2.65295 0
M  V30 7907 H 723.397 2.17912 -4.7709 0
M  V30 7908 H 724.871 3.73613 -4.06346 0
M  V30 7909 H 725.348 3.69919 -2.36763 0
M  V30 7910 H 725.954 2.44843 -3.47753 0
M  V30 7911 N 724.269 1.44576 0.627338 0
M  V30 7912 C 725.199 1.54562 1.75022 0
M  V30 7913 C 726.18 0.398378 1.65369 0
M  V30 7914 O 727.365 0.61899 1.84071 0
M  V30 7915 C 724.495 1.49309 3.13567 0
M  V30 7916 C 723.449 2.62549 3.38012 0
M  V30 7917 C 722.775 2.42348 4.76625 0
M  V30 7918 C 724.075 4.04678 3.30202 0
M  V30 7919 H 725.769 2.4855 1.66922 0
M  V30 7920 H 723.315 1.19624 0.801636 0
M  V30 7921 H 725.268 1.54895 3.919 0
M  V30 7922 H 723.992 0.518392 3.2246 0
M  V30 7923 H 722.651 2.56358 2.62061 0
M  V30 7924 H 722.299 1.43062 4.82226 0
M  V30 7925 H 721.999 3.18273 4.93939 0
M  V30 7926 H 723.523 2.49758 5.57183 0
M  V30 7927 H 724.937 4.12217 3.98435 0
M  V30 7928 H 723.334 4.80836 3.5905 0
M  V30 7929 H 724.404 4.2798 2.27949 0
M  V30 7930 N 725.747 -0.868086 1.31537 0
M  V30 7931 C 726.694 -1.97548 1.19346 0
M  V30 7932 C 727.664 -1.65913 0.0787922 0
M  V30 7933 O 728.849 -1.89129 0.251985 0
M  V30 7934 C 725.989 -3.32922 0.908692 0
M  V30 7935 C 725.102 -3.77141 2.10687 0
M  V30 7936 C 724.237 -5.01241 1.75873 0
M  V30 7937 C 723.276 -5.37914 2.92088 0
M  V30 7938 N 722.413 -6.53192 2.57457 0
M  V30 7939 H 727.253 -2.07307 2.14074 0
M  V30 7940 H 724.79 -1.01483 1.06487 0
M  V30 7941 H 726.748 -4.10867 0.724138 0
M  V30 7942 H 725.378 -3.228 -0.0017611 0
M  V30 7943 H 724.43 -2.94961 2.40213 0
M  V30 7944 H 725.742 -4.00248 2.97663 0
M  V30 7945 H 724.896 -5.86858 1.53891 0
M  V30 7946 H 723.635 -4.80041 0.86091 0
M  V30 7947 H 722.64 -4.50814 3.14717 0
M  V30 7948 H 723.865 -5.61077 3.82582 0
M  V30 7949 H 721.811 -6.33536 1.702 0
M  V30 7950 H 721.728 -6.76252 3.37963 0
M  V30 7951 H 722.996 -7.41997 2.38873 0
M  V30 7952 N 727.225 -1.14528 -1.08264 0
M  V30 7953 C 728.471 -0.925721 -1.81113 0
M  V30 7954 C 728.826 0.54185 -1.84612 0
M  V30 7955 O 728.119 1.39628 -1.31205 0
M  V30 7956 C 728.313 -1.46226 -3.26117 0
M  V30 7957 C 728.142 -2.98047 -3.36746 0
M  V30 7958 C 726.912 -3.66508 -3.4785 0
M  V30 7959 C 729.11 -3.95903 -3.28277 0
M  V30 7960 N 727.092 -5.06227 -3.47285 0
M  V30 7961 C 728.463 -5.21883 -3.34721 0
M  V30 7962 C 730.518 -3.88002 -3.12024 0
M  V30 7963 C 729.221 -6.40886 -3.26585 0
M  V30 7964 C 731.247 -5.06553 -3.05219 0
M  V30 7965 C 730.609 -6.31403 -3.12266 0
M  V30 7966 H 726.708 -0.392294 -0.676483 0
M  V30 7967 H 729.292 -1.45567 -1.293 0
M  V30 7968 H 727.463 -0.959076 -3.76373 0
M  V30 7969 H 729.195 -1.18247 -3.8704 0
M  V30 7970 H 725.95 -3.17067 -3.51804 0
M  V30 7971 H 726.374 -5.79172 -3.50555 0
M  V30 7972 H 731.016 -2.9235 -3.05436 0
M  V30 7973 H 728.734 -7.36781 -3.31934 0
M  V30 7974 H 732.32 -5.02191 -2.93761 0
M  V30 7975 H 731.2 -7.21596 -3.07032 0
M  V30 7976 N 728.703 1.26451 -0.940633 0
M  V30 7977 C 729.653 2.24086 -0.420669 0
M  V30 7978 C 730.637 1.53501 0.482301 0
M  V30 7979 O 731.829 1.74127 0.317636 0
M  V30 7980 C 728.958 3.41866 0.313452 0
M  V30 7981 C 728.044 4.19737 -0.606779 0
M  V30 7982 N 728.435 4.7521 -1.73232 0
M  V30 7983 C 726.733 4.44091 -0.41226 0
M  V30 7984 C 727.434 5.34052 -2.30572 0
M  V30 7985 N 726.41 5.1971 -1.59381 0
M  V30 7986 H 730.212 2.64569 -1.27986 0
M  V30 7987 H 727.726 1.4153 -0.796436 0
M  V30 7988 H 729.723 4.1093 0.702991 0
M  V30 7989 H 728.383 3.0291 1.16942 0
M  V30 7990 H 729.394 4.72769 -2.11447 0
M  V30 7991 H 726.071 4.1556 0.401984 0
M  V30 7992 H 727.461 5.87845 -3.25404 0
M  V30 7993 N 730.181 0.707592 1.40822 0
M  V30 7994 C 731.411 0.252706 2.05049 0
M  V30 7995 C 731.819 -1.10758 1.53393 0
M  V30 7996 O 731.162 -1.70567 0.682097 0
M  V30 7997 C 731.224 0.146001 3.59203 0
M  V30 7998 C 730.888 1.44027 4.33711 0
M  V30 7999 C 731.885 2.38058 4.62195 0
M  V30 8000 C 729.57 1.69698 4.72766 0
M  V30 8001 C 731.564 3.56013 5.28709 0
M  V30 8002 C 729.251 2.87936 5.39014 0
M  V30 8003 C 730.249 3.80915 5.66915 0
M  V30 8004 O 729.937 4.9708 6.31796 0
M  V30 8005 H 729.669 0.112784 0.666525 0
M  V30 8006 H 732.223 0.96417 1.81364 0
M  V30 8007 H 730.453 -0.621338 3.81676 0
M  V30 8008 H 732.142 -0.273275 4.04979 0
M  V30 8009 H 732.908 2.19487 4.32493 0
M  V30 8010 H 728.787 0.981835 4.50423 0
M  V30 8011 H 732.331 4.28604 5.50404 0
M  V30 8012 H 728.228 3.06419 5.68135 0
M  V30 8013 H 728.996 4.97053 6.50293 0
M  V30 8014 N 731.66 -1.50943 0.453197 0
M  V30 8015 C 733.071 -1.86699 -0.00619892 0
M  V30 8016 C 733.422 -1.3693 -1.40515 0
M  V30 8017 O 732.547 -0.726715 -2.03833 0
M  V30 8018 C 733.142 -3.38795 -0.018025 0
M  V30 8019 C 731.701 -3.74028 -0.421885 0
M  V30 8020 C 730.848 -2.74752 0.375087 0
M  V30 8021 H 733.799 -1.43942 0.668317 0
M  V30 8022 H 733.82 -3.71468 -0.824125 0
M  V30 8023 H 733.332 -3.74988 1.00028 0
M  V30 8024 H 731.433 -3.43431 -1.44521 0
M  V30 8025 H 731.546 -4.78908 -0.135664 0
M  V30 8026 H 729.91 -2.5414 -0.168794 0
M  V30 8027 H 730.693 -3.13787 1.39256 0
M  V30 8028 N 733.138 -0.185124 -1.56509 0
M  V30 8029 C 734.048 0.751908 -2.22224 0
M  V30 8030 C 735.064 1.24244 -1.21817 0
M  V30 8031 O 736.24 1.29169 -1.54523 0
M  V30 8032 C 733.305 1.95837 -2.86092 0
M  V30 8033 C 732.366 1.51337 -4.01741 0
M  V30 8034 C 731.599 2.66233 -4.62554 0
M  V30 8035 O 731.822 3.8346 -4.22273 0
M  V30 8036 O 730.756 2.39517 -5.52191 0
M  V30 8037 H 734.582 0.222304 -3.02885 0
M  V30 8038 H 732.167 0.0437141 -1.49336 0
M  V30 8039 H 734.049 2.66368 -3.26536 0
M  V30 8040 H 732.724 2.47677 -2.08417 0
M  V30 8041 H 731.631 0.777155 -3.65939 0
M  V30 8042 H 732.964 1.04175 -4.81049 0
M  V30 8043 N 734.616 1.57351 0.0885366 0
M  V30 8044 C 735.864 1.86051 0.789262 0
M  V30 8045 C 736.185 0.774763 1.78948 0
M  V30 8046 O 735.455 -0.198324 1.94894 0
M  V30 8047 H 734.035 0.686508 0.294475 0
M  V30 8048 H 736.697 1.94779 0.0686055 0
M  V30 8049 H 735.793 2.83007 1.31581 0
M  V30 8050 N 736.094 -0.359525 1.53444 0
M  V30 8051 C 737.041 -1.44073 1.8031 0
M  V30 8052 C 738.011 -1.52946 0.647811 0
M  V30 8053 O 739.196 -1.68739 0.890614 0
M  V30 8054 C 736.336 -2.80941 2.00416 0
M  V30 8055 C 735.449 -2.80986 3.28132 0
M  V30 8056 C 734.584 -4.09468 3.38393 0
M  V30 8057 C 733.623 -4.03679 4.60119 0
M  V30 8058 N 732.76 -5.23821 4.675 0
M  V30 8059 H 737.6 -1.20464 2.72566 0
M  V30 8060 H 735.137 -0.583859 1.35017 0
M  V30 8061 H 737.095 -3.60459 2.1006 0
M  V30 8062 H 735.725 -3.02936 1.11489 0
M  V30 8063 H 734.777 -1.93666 3.27411 0
M  V30 8064 H 736.089 -2.72583 4.17732 0
M  V30 8065 H 735.243 -4.97404 3.47382 0
M  V30 8066 H 733.982 -4.20632 2.4682 0
M  V30 8067 H 732.987 -3.14129 4.51224 0
M  V30 8068 H 734.212 -3.94112 5.5304 0
M  V30 8069 H 732.158 -5.35559 3.7883 0
M  V30 8070 H 732.075 -5.17611 5.51013 0
M  V30 8071 H 733.343 -6.13572 4.8078 0
M  V30 8072 N 737.572 -1.44907 -0.619662 0
M  V30 8073 C 738.8 -1.51795 -1.40591 0
M  V30 8074 C 739.215 -0.146553 -1.8823 0
M  V30 8075 O 738.572 0.849698 -1.61513 0
M  V30 8076 C 738.623 -2.49229 -2.61853 0
M  V30 8077 O 738.344 -3.81039 -2.16197 0
M  V30 8078 C 739.845 -2.65696 -3.54853 0
M  V30 8079 H 737.065 -0.514463 -0.430777 0
M  V30 8080 H 739.609 -1.8998 -0.756813 0
M  V30 8081 H 737.764 -2.14149 -3.2283 0
M  V30 8082 H 738.178 -4.33747 -2.94896 0
M  V30 8083 H 739.652 -3.37874 -4.36515 0
M  V30 8084 H 740.129 -1.71316 -4.0441 0
M  V30 8085 H 740.735 -3.01724 -2.99737 0
M  V30 8086 N 739.05 0.861098 -1.31996 0
M  V30 8087 C 740.296 1.61721 -1.22369 0
M  V30 8088 C 740.629 1.93 0.215587 0
M  V30 8089 O 739.904 1.56789 1.15098 0
M  V30 8090 C 740.187 2.9417 -2.07691 0
M  V30 8091 C 740.04 2.69714 -3.59965 0
M  V30 8092 C 741.359 3.95372 -1.93312 0
M  V30 8093 H 738.478 0.586822 -0.44588 0
M  V30 8094 H 741.12 0.994788 -1.61876 0
M  V30 8095 H 739.27 3.47292 -1.74128 0
M  V30 8096 H 740.942 2.23196 -4.03709 0
M  V30 8097 H 739.185 2.03789 -3.82952 0
M  V30 8098 H 739.856 3.63996 -4.14983 0
M  V30 8099 H 742.332 3.51487 -2.22701 0
M  V30 8100 H 741.208 4.85916 -2.55298 0
M  V30 8101 H 741.469 4.32865 -0.898922 0
M  V30 8102 N 740.528 1.15101 1.07655 0
M  V30 8103 C 741.939 0.933848 1.61667 0
M  V30 8104 C 742.29 -0.525569 1.8903 0
M  V30 8105 O 741.415 -1.39605 1.65346 0
M  V30 8106 C 742.01 1.68876 2.93711 0
M  V30 8107 C 740.569 1.51697 3.44478 0
M  V30 8108 C 739.716 1.70633 2.18586 0
M  V30 8109 H 742.667 1.30171 0.907816 0
M  V30 8110 H 742.688 1.15645 3.625 0
M  V30 8111 H 742.2 2.7509 2.73764 0
M  V30 8112 H 740.301 0.478635 3.69513 0
M  V30 8113 H 740.414 2.29194 4.20722 0
M  V30 8114 H 738.778 1.13259 2.28132 0
M  V30 8115 H 739.561 2.78206 2.01137 0
M  V30 8116 N 742.006 -1.2595 0.947325 0
M  V30 8117 C 743.417 -1.75389 0.639963 0
M  V30 8118 C 743.768 -1.77081 -0.844788 0
M  V30 8119 O 742.893 -1.3869 -1.66114 0
M  V30 8120 C 743.488 -3.18506 1.15496 0
M  V30 8121 C 742.047 -3.65534 0.897894 0
M  V30 8122 C 741.194 -2.44818 1.30228 0
M  V30 8123 H 744.145 -1.1194 1.12495 0
M  V30 8124 H 744.166 -3.77045 0.511627 0
M  V30 8125 H 743.678 -3.17243 2.23559 0
M  V30 8126 H 741.779 -3.72221 -0.168096 0
M  V30 8127 H 741.892 -4.54039 1.52922 0
M  V30 8128 H 740.256 -2.44291 0.720678 0
M  V30 8129 H 741.039 -2.46251 2.39198 0
M  V30 8130 N 743.484 -0.715051 -1.40445 0
M  V30 8131 C 744.895 -0.326763 -1.83818 0
M  V30 8132 C 745.246 1.13851 -1.59789 0
M  V30 8133 O 744.371 1.87611 -1.07848 0
M  V30 8134 C 744.966 -0.586297 -3.33688 0
M  V30 8135 C 743.525 -0.251724 -3.75557 0
M  V30 8136 C 742.672 -0.858928 -2.63662 0
M  V30 8137 H 745.623 -0.914241 -1.2972 0
M  V30 8138 H 745.644 0.148636 -3.8021 0
M  V30 8139 H 745.156 -1.65281 -3.51146 0
M  V30 8140 H 743.257 0.809754 -3.63695 0
M  V30 8141 H 743.37 -0.720348 -4.73654 0
M  V30 8142 H 741.734 -0.287013 -2.53078 0
M  V30 8143 H 742.517 -1.9297 -2.83932 0
M  V30 8144 N 744.962 1.50701 -0.461195 0
M  V30 8145 C 746.239 1.94958 0.158296 0
M  V30 8146 C 746.619 1.40111 1.57899 0
M  V30 8147 O 745.967 0.597976 2.20537 0
M  V30 8148 C 746.177 3.48821 0.11172 0
M  V30 8149 C 747.525 4.23499 0.30552 0
M  V30 8150 O 748.549 3.557 0.188758 0
M  V30 8151 O 747.408 5.43823 0.540244 0
M  V30 8152 H 744.502 0.818674 0.117054 0
M  V30 8153 H 747.048 1.61508 -0.520888 0
M  V30 8154 H 745.82 3.81263 -0.880577 0
M  V30 8155 H 745.443 3.88781 0.832791 0
M  V30 8156 N 746.441 0.193421 1.56409 0
M  V30 8157 C 747.688 -0.445789 1.97532 0
M  V30 8158 C 748.016 -1.61744 1.08024 0
M  V30 8159 O 747.271 -1.95338 0.118982 0
M  V30 8160 C 747.57 -0.949718 3.44551 0
M  V30 8161 C 747.236 0.108383 4.5077 0
M  V30 8162 C 745.898 0.399126 4.79542 0
M  V30 8163 C 748.25 0.825423 5.14622 0
M  V30 8164 C 745.578 1.41192 5.69457 0
M  V30 8165 C 747.93 1.82735 6.05632 0
M  V30 8166 C 746.594 2.12531 6.32761 0
M  V30 8167 H 745.864 -0.163126 0.722822 0
M  V30 8168 H 748.511 0.290035 1.89291 0
M  V30 8169 H 746.816 -1.76378 3.49854 0
M  V30 8170 H 748.513 -1.45367 3.73724 0
M  V30 8171 H 745.103 -0.128392 4.28408 0
M  V30 8172 H 749.287 0.61403 4.92487 0
M  V30 8173 H 744.543 1.6487 5.88751 0
M  V30 8174 H 748.717 2.3882 6.5417 0
M  V30 8175 H 746.344 2.91155 7.02234 0
M  V30 8176 N 747.919 -1.57396 -0.0801906 0
M  V30 8177 C 749.147 -1.91055 -0.794075 0
M  V30 8178 C 749.562 -0.788583 -1.71542 0
M  V30 8179 O 748.919 0.238587 -1.80934 0
M  V30 8180 C 748.97 -3.24418 -1.59484 0
M  V30 8181 O 748.691 -4.323 -0.710532 0
M  V30 8182 C 750.192 -3.72037 -2.41046 0
M  V30 8183 H 747.412 -0.63171 -0.226238 0
M  V30 8184 H 749.956 -2.04431 -0.0529685 0
M  V30 8185 H 748.111 -3.12595 -2.2883 0
M  V30 8186 H 748.525 -5.08976 -1.26663 0
M  V30 8187 H 749.999 -4.68006 -2.92702 0
M  V30 8188 H 750.476 -3.00624 -3.2019 0
M  V30 8189 H 751.082 -3.86777 -1.76871 0
M  V30 8190 N 749.397 0.351382 -1.53633 0
M  V30 8191 C 750.622 1.11718 -1.74739 0
M  V30 8192 C 751.047 1.81829 -0.481657 0
M  V30 8193 O 750.405 1.72264 0.565233 0
M  V30 8194 C 750.453 2.11234 -2.92254 0
M  V30 8195 O 749.557 3.186 -2.61855 0
M  V30 8196 H 748.898 0.323482 -0.579875 0
M  V30 8197 H 751.428 0.404167 -2.00568 0
M  V30 8198 H 751.438 2.54591 -3.18822 0
M  V30 8199 H 750.113 1.59599 -3.84058 0
M  V30 8200 H 748.69 2.80115 -2.4615 0
M  V30 8201 N 750.875 1.45233 0.611969 0
M  V30 8202 C 751.808 1.48056 1.73651 0
M  V30 8203 C 752.786 0.337373 1.59061 0
M  V30 8204 O 753.97 0.537222 1.80683 0
M  V30 8205 C 751.097 1.33144 3.11433 0
M  V30 8206 C 750.143 2.51272 3.44623 0
M  V30 8207 S 750.976 4.13754 3.39953 0
M  V30 8208 C 752.132 4.013 4.80322 0
M  V30 8209 H 752.365 2.43205 1.70993 0
M  V30 8210 H 749.898 1.32763 0.788246 0
M  V30 8211 H 751.856 1.25228 3.90932 0
M  V30 8212 H 750.517 0.394734 3.1161 0
M  V30 8213 H 749.71 2.36753 4.44932 0
M  V30 8214 H 749.312 2.56027 2.72629 0
M  V30 8215 H 751.604 3.66174 5.7002 0
M  V30 8216 H 752.547 5.01506 4.99897 0
M  V30 8217 H 752.955 3.3303 4.55797 0
M  V30 8218 N 752.353 -0.854086 1.3245 0
M  V30 8219 C 753.599 -1.61069 1.23225 0
M  V30 8220 C 753.932 -1.93111 -0.205349 0
M  V30 8221 O 753.207 -1.57397 -1.14265 0
M  V30 8222 C 753.49 -2.93065 2.09249 0
M  V30 8223 C 753.343 -2.67801 3.6139 0
M  V30 8224 C 754.662 -3.94341 1.95406 0
M  V30 8225 H 751.781 -0.584449 0.448986 0
M  V30 8226 H 754.423 -0.986189 1.62402 0
M  V30 8227 H 752.573 -3.46364 1.75967 0
M  V30 8228 H 754.245 -2.21052 4.04887 0
M  V30 8229 H 752.488 -2.01756 3.84027 0
M  V30 8230 H 753.159 -3.6179 4.16907 0
M  V30 8231 H 755.635 -3.50301 2.24562 0
M  V30 8232 H 754.511 -4.84555 2.57872 0
M  V30 8233 H 754.772 -4.32382 0.921865 0
M  V30 8234 N 753.831 -1.1567 -1.07043 0
M  V30 8235 C 755.059 -0.957471 -1.83412 0
M  V30 8236 C 755.474 0.494271 -1.82215 0
M  V30 8237 O 754.831 1.34288 -1.23584 0
M  V30 8238 C 754.882 -1.46784 -3.30359 0
M  V30 8239 O 754.603 -2.86271 -3.31633 0
M  V30 8240 C 756.104 -1.31054 -4.23485 0
M  V30 8241 H 753.324 -0.33986 -0.578564 0
M  V30 8242 H 755.868 -1.53518 -1.35102 0
M  V30 8243 H 754.023 -0.932586 -3.76007 0
M  V30 8244 H 754.437 -3.0948 -4.23465 0
M  V30 8245 H 755.911 -1.71605 -5.24648 0
M  V30 8246 H 756.388 -0.255107 -4.38458 0
M  V30 8247 H 756.994 -1.83503 -3.83676 0
M  V30 8248 N 755.309 1.25446 -0.953992 0
M  V30 8249 C 756.239 2.28264 -0.491717 0
M  V30 8250 C 757.22 1.63717 0.461617 0
M  V30 8251 O 758.405 1.90821 0.36071 0
M  V30 8252 C 755.535 3.46525 0.231915 0
M  V30 8253 C 754.489 4.23247 -0.636098 0
M  V30 8254 C 753.815 5.34254 0.218238 0
M  V30 8255 C 755.115 4.85971 -1.91389 0
M  V30 8256 H 756.809 2.67183 -1.35106 0
M  V30 8257 H 754.355 1.2844 -0.651095 0
M  V30 8258 H 756.308 4.17576 0.566439 0
M  V30 8259 H 755.032 3.06594 1.12551 0
M  V30 8260 H 753.691 3.53978 -0.953696 0
M  V30 8261 H 753.339 4.90564 1.11156 0
M  V30 8262 H 753.039 5.86501 -0.359232 0
M  V30 8263 H 754.563 6.08138 0.547743 0
M  V30 8264 H 755.977 5.49168 -1.64581 0
M  V30 8265 H 754.374 5.48391 -2.43696 0
M  V30 8266 H 755.444 4.08192 -2.61738 0
M  V30 8267 N 756.787 0.722489 1.40064 0
M  V30 8268 C 758.198 0.336507 1.83642 0
M  V30 8269 C 758.549 -1.13002 1.6039 0
M  V30 8270 O 757.674 -1.87036 1.08842 0
M  V30 8271 C 758.269 0.603985 3.33373 0
M  V30 8272 C 756.828 0.271637 3.75419 0
M  V30 8273 C 755.975 0.872898 2.63203 0
M  V30 8274 H 758.926 0.921108 1.29233 0
M  V30 8275 H 758.947 -0.128471 3.80283 0
M  V30 8276 H 758.459 1.67141 3.50265 0
M  V30 8277 H 756.56 -0.790455 3.64119 0
M  V30 8278 H 756.673 0.745457 4.73265 0
M  V30 8279 H 755.037 0.300431 2.52922 0
M  V30 8280 H 755.82 1.94473 2.82905 0
M  V30 8281 N 758.265 -1.50454 0.469181 0
M  V30 8282 C 759.493 -2.06729 -0.0842134 0
M  V30 8283 C 759.908 -1.33326 -1.33677 0
M  V30 8284 O 759.265 -0.401977 -1.78018 0
M  V30 8285 C 759.316 -3.59557 -0.374253 0
M  V30 8286 O 759.037 -4.30192 0.828622 0
M  V30 8287 C 760.538 -4.32449 -0.974824 0
M  V30 8288 H 757.758 -0.670971 0.006231 0
M  V30 8289 H 760.302 -1.93645 0.657415 0
M  V30 8290 H 758.457 -3.7245 -1.06581 0
M  V30 8291 H 758.871 -5.21371 0.572066 0
M  V30 8292 H 760.345 -5.40361 -1.12755 0
M  V30 8293 H 760.822 -3.92819 -1.96442 0
M  V30 8294 H 761.428 -4.24082 -0.321703 0
M  V30 8295 N 759.743 -0.201713 -1.56304 0
M  V30 8296 C 760.991 0.434447 -1.97375 0
M  V30 8297 C 761.312 1.61692 -1.08998 0
M  V30 8298 O 760.582 1.95223 -0.162682 0
M  V30 8299 H 759.162 0.163497 -0.728888 0
M  V30 8300 H 761.824 -0.289988 -1.92731 0
M  V30 8301 H 760.92 0.774136 -3.02347 0
M  V30 8302 N 761.222 1.57436 0.0718424 0
M  V30 8303 C 762.633 1.75975 0.623678 0
M  V30 8304 C 762.984 0.827155 1.77912 0
M  V30 8305 O 762.109 0.0112425 2.16397 0
M  V30 8306 C 762.704 3.1911 1.13816 0
M  V30 8307 C 761.263 3.38994 1.63586 0
M  V30 8308 C 760.41 2.71684 0.555261 0
M  V30 8309 H 763.361 1.57948 -0.154328 0
M  V30 8310 H 763.382 3.23267 2.00696 0
M  V30 8311 H 762.894 3.86962 0.296998 0
M  V30 8312 H 760.995 2.76256 2.50027 0
M  V30 8313 H 761.108 4.47436 1.71283 0
M  V30 8314 H 759.472 2.34236 1.00029 0
M  V30 8315 H 760.255 3.42191 -0.275712 0
M  V30 8316 N 762.7 -0.34323 1.53817 0
M  V30 8317 C 763.663 -1.40444 1.8113 0
M  V30 8318 C 764.663 -1.45604 0.682366 0
M  V30 8319 O 765.853 -1.45974 0.950649 0
M  V30 8320 C 762.985 -2.79369 1.95361 0
M  V30 8321 H 764.178 -1.17489 2.75928 0
M  V30 8322 H 761.731 -0.577636 1.45234 0
M  V30 8323 H 762.466 -3.07607 1.02707 0
M  V30 8324 H 762.251 -2.7702 2.77493 0
M  V30 8325 H 763.741 -3.56178 2.18008 0
M  V30 8326 N 764.178 -1.45556 -0.604258 0
M  V30 8327 C 765.125 -1.54482 -1.71476 0
M  V30 8328 C 766.095 -0.390479 -1.61445 0
M  V30 8329 O 767.28 -0.604371 -1.80975 0
M  V30 8330 C 764.42 -1.52064 -3.09791 0
M  V30 8331 C 763.533 -2.78073 -3.30604 0
M  V30 8332 C 762.668 -2.67304 -4.59044 0
M  V30 8333 C 761.707 -3.88352 -4.73127 0
M  V30 8334 N 760.844 -3.76098 -5.9287 0
M  V30 8335 H 765.684 -2.49349 -1.63184 0
M  V30 8336 H 763.221 -1.23725 -0.795641 0
M  V30 8337 H 765.179 -1.48649 -3.89819 0
M  V30 8338 H 763.809 -0.607442 -3.17033 0
M  V30 8339 H 762.861 -2.91561 -2.44329 0
M  V30 8340 H 764.173 -3.67847 -3.36883 0
M  V30 8341 H 763.327 -2.61875 -5.47272 0
M  V30 8342 H 762.066 -1.75135 -4.55169 0
M  V30 8343 H 761.071 -3.94137 -3.83322 0
M  V30 8344 H 762.296 -4.81591 -4.78797 0
M  V30 8345 H 760.242 -2.867 -5.90033 0
M  V30 8346 H 760.159 -4.59509 -6.00323 0
M  V30 8347 H 761.427 -3.74607 -6.83586 0
M  V30 8348 N 765.656 0.84705 -1.32902 0
M  V30 8349 C 766.905 1.59667 -1.23245 0
M  V30 8350 C 767.218 1.94551 0.202349 0
M  V30 8351 O 768.424 2.68218 0.420847 0
M  V30 8352 C 766.88 2.8795 -2.15901 0
M  V30 8353 C 766.488 2.60461 -3.64505 0
M  V30 8354 C 768.232 3.65968 -2.15098 0
M  V30 8355 C 766.139 3.84791 -4.49099 0
M  V30 8356 H 765.069 0.599167 -0.457728 0
M  V30 8357 H 767.72 0.934662 -1.57912 0
M  V30 8358 H 766.102 3.55648 -1.74157 0
M  V30 8359 H 767.276 2.01026 -4.14639 0
M  V30 8360 H 765.591 1.9576 -3.67515 0
M  V30 8361 H 768.188 4.58241 -2.75534 0
M  V30 8362 H 768.531 4.00275 -1.14392 0
M  V30 8363 H 769.064 3.05184 -2.55162 0
M  V30 8364 H 765.803 3.55621 -5.50649 0
M  V30 8365 H 765.323 4.43594 -4.03713 0
M  V30 8366 H 767.002 4.52454 -4.62487 0
M  V30 8367 N 767.134 1.16236 1.06428 0
M  V30 8368 C 768.383 0.937523 1.78587 0
M  V30 8369 C 768.696 -0.536 1.88113 0
M  V30 8370 O 769.902 -0.878697 2.56887 0
M  V30 8371 C 768.358 1.62808 3.2097 0
M  V30 8372 C 767.966 3.13927 3.19615 0
M  V30 8373 C 769.71 1.48515 3.97673 0
M  V30 8374 C 767.617 3.75727 4.56709 0
M  V30 8375 H 766.547 0.347125 0.669343 0
M  V30 8376 H 769.198 1.39353 1.19385 0
M  V30 8377 H 767.58 1.09977 3.80422 0
M  V30 8378 H 768.754 3.7359 2.69753 0
M  V30 8379 H 767.069 3.28089 2.56411 0
M  V30 8380 H 769.666 1.92069 4.99013 0
M  V30 8381 H 770.009 0.433913 4.14032 0
M  V30 8382 H 770.542 1.98494 3.44739 0
M  V30 8383 H 767.281 4.80793 4.45554 0
M  V30 8384 H 766.801 3.20849 5.0677 0
M  V30 8385 H 768.48 3.77203 5.25668 0
M  V30 8386 N 768.612 -1.24939 0.960631 0
M  V30 8387 C 769.858 -1.93425 0.629155 0
M  V30 8388 C 770.213 -1.73784 -0.825635 0
M  V30 8389 O 769.506 -1.07595 -1.58536 0
M  V30 8390 C 769.7 -3.45066 0.930809 0
M  V30 8391 C 769.529 -3.79455 2.41337 0
M  V30 8392 C 768.299 -4.01195 3.07197 0
M  V30 8393 C 770.497 -3.86492 3.39306 0
M  V30 8394 N 768.479 -4.22626 4.45265 0
M  V30 8395 C 769.85 -4.12682 4.62702 0
M  V30 8396 C 771.905 -3.69198 3.34061 0
M  V30 8397 C 770.608 -4.23376 5.81502 0
M  V30 8398 C 772.634 -3.81135 4.52206 0
M  V30 8399 C 771.996 -4.07743 5.74391 0
M  V30 8400 H 768.095 -0.729791 0.280943 0
M  V30 8401 H 770.679 -1.50597 1.23404 0
M  V30 8402 H 768.85 -3.86776 0.354801 0
M  V30 8403 H 770.582 -4.00826 0.558627 0
M  V30 8404 H 767.337 -3.97319 2.5775 0
M  V30 8405 H 767.761 -4.37335 5.16785 0
M  V30 8406 H 772.403 -3.47639 2.40638 0
M  V30 8407 H 770.121 -4.4375 6.75361 0
M  V30 8408 H 773.707 -3.69133 4.49702 0
M  V30 8409 H 772.587 -4.16768 6.64284 0
M  V30 8410 N 770.09 -0.729906 -1.39679 0
M  V30 8411 C 771 -0.0880322 -2.34435 0
M  V30 8412 C 772.016 0.727674 -1.58053 0
M  V30 8413 O 773.192 0.657321 -1.90371 0
M  V30 8414 C 770.257 0.812211 -3.37052 0
M  V30 8415 C 769.318 -0.0151681 -4.29297 0
M  V30 8416 C 768.551 0.842202 -5.27013 0
M  V30 8417 O 768.774 2.08108 -5.31081 0
M  V30 8418 O 767.708 0.27357 -6.01278 0
M  V30 8419 H 771.534 -0.869989 -2.90972 0
M  V30 8420 H 769.119 -0.490522 -1.41118 0
M  V30 8421 H 771.001 1.32745 -3.99946 0
M  V30 8422 H 769.676 1.57307 -2.82907 0
M  V30 8423 H 768.583 -0.575811 -3.69642 0
M  V30 8424 H 769.916 -0.738129 -4.86634 0
M  V30 8425 N 771.568 1.50203 -0.477153 0
M  V30 8426 C 772.515 2.28656 0.31386 0
M  V30 8427 C 773.485 1.33977 0.981802 0
M  V30 8428 O 774.67 1.62919 0.993072 0
M  V30 8429 C 771.81 3.16027 1.38639 0
M  V30 8430 C 770.923 4.25743 0.732615 0
M  V30 8431 C 770.058 5.00363 1.78355 0
M  V30 8432 C 769.097 6.01945 1.11035 0
M  V30 8433 N 768.234 6.6982 2.10441 0
M  V30 8434 H 773.074 2.958 -0.361445 0
M  V30 8435 H 770.611 1.45867 -0.190093 0
M  V30 8436 H 772.569 3.6504 2.01994 0
M  V30 8437 H 771.199 2.50917 2.03077 0
M  V30 8438 H 770.251 3.80398 -0.0136546 0
M  V30 8439 H 771.563 4.98393 0.201513 0
M  V30 8440 H 770.717 5.53124 2.49276 0
M  V30 8441 H 769.456 4.27432 2.34847 0
M  V30 8442 H 768.461 5.48438 0.386797 0
M  V30 8443 H 769.686 6.76851 0.552248 0
M  V30 8444 H 767.632 5.99677 2.65939 0
M  V30 8445 H 767.549 7.38366 1.62332 0
M  V30 8446 H 768.817 7.27196 2.80724 0
M  V30 8447 N 773.046 0.209999 1.56195 0
M  V30 8448 C 774.462 -0.145598 1.58934 0
M  V30 8449 C 774.662 -1.59868 1.22656 0
M  V30 8450 O 773.718 -2.33689 0.956336 0
M  V30 8451 C 775.031 0.170243 3.00218 0
M  V30 8452 C 776.579 0.111548 3.12801 0
M  V30 8453 C 777.054 0.400904 4.56242 0
M  V30 8454 N 778.545 0.350058 4.61875 0
M  V30 8455 C 779.28 0.547598 5.70779 0
M  V30 8456 N 778.776 0.806291 6.88092 0
M  V30 8457 N 780.569 0.480827 5.6004 0
M  V30 8458 H 772.72 1.15804 1.78054 0
M  V30 8459 H 774.983 0.463326 0.827063 0
M  V30 8460 H 774.689 1.17833 3.31373 0
M  V30 8461 H 774.563 -0.520208 3.73596 0
M  V30 8462 H 776.95 -0.887162 2.81449 0
M  V30 8463 H 777.031 0.835302 2.41777 0
M  V30 8464 H 776.675 1.397 4.8831 0
M  V30 8465 H 776.605 -0.34391 5.25476 0
M  V30 8466 H 779.096 0.157334 3.77572 0
M  V30 8467 H 779.409 0.945433 7.66995 0
M  V30 8468 H 777.754 0.843355 6.89864 0
M  V30 8469 H 780.945 0.279037 4.67268 0
M  V30 8470 H 781.118 0.638189 6.4485 0
M  V30 8471 N 774.524 -1.57472 -0.0634922 0
M  V30 8472 C 775.472 -2.05307 -1.09323 0
M  V30 8473 C 776.466 -0.959995 -1.39572 0
M  V30 8474 O 777.672 -1.14507 -1.38882 0
M  V30 8475 H 774.047 -0.65472 -0.369927 0
M  V30 8476 H 776.018 -2.90925 -0.663707 0
M  V30 8477 C 774.767 -2.51954 -2.39613 0
M  V30 8478 H 774.09 -3.35662 -2.1719 0
M  V30 8479 H 775.53 -2.89169 -3.10092 0
M  V30 8480 C 773.989 -1.40596 -3.06161 0
M  V30 8481 O 774.519 -0.752722 -3.94585 0
M  V30 8482 N 772.725 -1.14902 -2.66919 0
M  V30 8483 H 772.272 -1.68205 -1.95102 0
M  V30 8484 H 772.23 -0.406006 -3.11767 0
M  V30 8485 N 776.003 0.335068 -1.53997 0
M  V30 8486 C 777.414 0.910191 -1.6301 0
M  V30 8487 C 777.765 1.89271 -0.516809 0
M  V30 8488 O 776.89 2.13516 0.352123 0
M  V30 8489 C 777.485 1.65761 -2.9548 0
M  V30 8490 C 776.044 2.18163 -3.06728 0
M  V30 8491 C 775.191 1.00338 -2.5851 0
M  V30 8492 H 778.142 0.112965 -1.58297 0
M  V30 8493 H 778.163 2.52107 -2.84995 0
M  V30 8494 H 777.675 0.94227 -3.76488 0
M  V30 8495 H 775.776 2.92847 -2.30372 0
M  V30 8496 H 775.889 2.43952 -4.1234 0
M  V30 8497 H 774.253 1.37925 -2.14124 0
M  V30 8498 H 775.036 0.30254 -3.41964 0
M  V30 8499 N 777.481 1.45874 0.596531 0
M  V30 8500 C 778.391 1.57947 1.73464 0
M  V30 8501 C 779.407 0.463461 1.67714 0
M  V30 8502 O 780.583 0.725685 1.87872 0
M  V30 8503 C 777.648 1.55348 3.09948 0
M  V30 8504 C 776.709 2.78074 3.27068 0
M  V30 8505 C 775.942 2.75589 4.57041 0
M  V30 8506 O 776.165 1.83545 5.40063 0
M  V30 8507 O 775.099 3.66945 4.77111 0
M  V30 8508 H 778.925 2.54169 1.66228 0
M  V30 8509 H 776.51 1.2851 0.76194 0
M  V30 8510 H 778.392 1.56545 3.91244 0
M  V30 8511 H 777.067 0.622811 3.17652 0
M  V30 8512 H 775.974 2.82435 2.45319 0
M  V30 8513 H 777.307 3.70303 3.24248 0
M  V30 8514 N 778.959 -0.83999 1.33349 0
M  V30 8515 C 779.891 -1.95678 1.19344 0
M  V30 8516 C 780.904 -1.62322 0.124692 0
M  V30 8517 O 782.093 -1.74516 0.375012 0
M  V30 8518 C 779.193 -3.29133 0.807771 0
M  V30 8519 C 778.366 -3.9063 1.96792 0
M  V30 8520 C 777.425 -5.02438 1.56341 0
M  V30 8521 O 776.451 -5.21646 2.27759 0
M  V30 8522 N 777.653 -5.78612 0.467767 0
M  V30 8523 H 780.418 -2.08229 2.15548 0
M  V30 8524 H 777.979 -1.01566 1.26079 0
M  V30 8525 H 779.971 -4.01355 0.519282 0
M  V30 8526 H 778.541 -3.12535 -0.063555 0
M  V30 8527 H 777.761 -3.11011 2.4221 0
M  V30 8528 H 779.049 -4.2845 2.74422 0
M  V30 8529 H 778.447 -5.65559 -0.126324 0
M  V30 8530 H 777.004 -6.51362 0.238945 0
M  V30 8531 N 780.437 -1.16799 -1.0581 0
M  V30 8532 C 781.384 -0.87902 -2.13405 0
M  V30 8533 C 782.354 0.174541 -1.6518 0
M  V30 8534 O 783.539 0.0386843 -1.90761 0
M  V30 8535 C 780.679 -0.391616 -3.42871 0
M  V30 8536 C 779.792 -1.50857 -4.04804 0
M  V30 8537 C 778.927 -0.975682 -5.22163 0
M  V30 8538 C 777.966 -2.06851 -5.76089 0
M  V30 8539 N 777.103 -1.55085 -6.84758 0
M  V30 8540 H 781.943 -1.80043 -2.37463 0
M  V30 8541 H 779.48 -0.898083 -1.16503 0
M  V30 8542 H 781.438 -0.0906247 -4.17102 0
M  V30 8543 H 780.068 0.49284 -3.19016 0
M  V30 8544 H 779.12 -1.92542 -3.28073 0
M  V30 8545 H 780.432 -2.33305 -4.40874 0
M  V30 8546 H 779.586 -0.628165 -6.03439 0
M  V30 8547 H 778.325 -0.120566 -4.87551 0
M  V30 8548 H 777.33 -2.42467 -4.93447 0
M  V30 8549 H 778.555 -2.92768 -6.12751 0
M  V30 8550 H 776.501 -0.718345 -6.52055 0
M  V30 8551 H 776.418 -2.31145 -7.19797 0
M  V30 8552 H 777.686 -1.23206 -7.69702 0
M  V30 8553 N 781.915 1.24427 -0.967243 0
M  V30 8554 C 783.164 1.91789 -0.624478 0
M  V30 8555 C 783.477 1.76448 0.844129 0
M  V30 8556 O 784.683 2.38495 1.2974 0
M  V30 8557 C 783.139 3.43743 -1.06626 0
M  V30 8558 C 782.747 3.67771 -2.55829 0
M  V30 8559 C 784.491 4.16958 -0.79662 0
M  V30 8560 C 782.398 5.13293 -2.93742 0
M  V30 8561 H 781.328 0.71811 -0.229856 0
M  V30 8562 H 783.979 1.41081 -1.17339 0
M  V30 8563 H 782.361 3.93484 -0.445663 0
M  V30 8564 H 783.535 3.28631 -3.23015 0
M  V30 8565 H 781.85 3.07841 -2.80398 0
M  V30 8566 H 784.447 5.24171 -1.05589 0
M  V30 8567 H 784.79 4.15442 0.267163 0
M  V30 8568 H 785.323 3.73164 -1.37816 0
M  V30 8569 H 782.062 5.19931 -3.9919 0
M  V30 8570 H 781.582 5.53433 -2.3124 0
M  V30 8571 H 783.261 5.81521 -2.83623 0
M  V30 8572 O 783.432 0.875006 1.35742 0
M  V30 8573 H 784.123 0.476549 1.87746 0
M  V30 END ATOM
M  V30 BEGIN BOND
M  V30 END BOND
M  V30 END CTAB
M  END
$$$$
