drugbank_target|Q9C098 Serine/threonine-protein kinase DCLK3 (DB12010)
 OpenBabel12092121153D

  0  0  0     0  0            999 V3000
M  V30 BEGIN CTAB
M  V30 COUNTS 10411 10513 0 0 0
M  V30 BEGIN ATOM
M  V30 1 H -0.908 1.98254 -0.117106 0
M  V30 2 N 0 1.576 0 0
M  V30 3 C 0.933 2.03868 1.02534 0
M  V30 4 C 1.911 0.928543 1.3348 0
M  V30 5 O 3.095 1.19667 1.45644 0
M  V30 6 C 0.222 2.43627 2.35294 0
M  V30 7 C -0.732 3.65373 2.2001 0
M  V30 8 S 0.101 5.13292 1.52614 0
M  V30 9 C 1.257 5.56322 2.86805 0
M  V30 10 H 1.49 2.90518 0.631377 0
M  V30 11 H -0.977 1.52953 0.210867 0
M  V30 12 H 0.981 2.67203 3.11629 0
M  V30 13 H -0.358 1.57376 2.7183 0
M  V30 14 H -1.165 3.90944 3.18086 0
M  V30 15 H -1.563 3.418 1.51819 0
M  V30 16 H 0.729 5.58782 3.83104 0
M  V30 17 H 1.672 6.56266 2.65933 0
M  V30 18 H 2.08 4.83886 2.90714 0
M  V30 19 N 1.4781 -0.272755 1.55222 0
M  V30 20 C 2.7261 -1.00234 1.75492 0
M  V30 21 C 3.0471 -1.8681 0.5592 0
M  V30 22 O 2.3171 -1.91215 -0.425882 0
M  V30 23 H 0.8971 -0.373076 0.647166 0
M  V30 24 H 3.5591 -0.296926 1.92625 0
M  V30 25 H 2.6551 -1.63913 2.65592 0
M  V30 26 N 2.9562 -1.48159 -0.537278 0
M  V30 27 C 3.9032 -1.62138 -1.64256 0
M  V30 28 C 4.8732 -0.463668 -1.59497 0
M  V30 29 O 6.0582 -0.686241 -1.78032 0
M  V30 30 C 3.1982 -1.66028 -3.02537 0
M  V30 31 C 2.3112 -2.92855 -3.17585 0
M  V30 32 C 1.4462 -2.87952 -4.46382 0
M  V30 33 C 0.4852 -4.09516 -4.54932 0
M  V30 34 N -0.3778 -4.02733 -5.75109 0
M  V30 35 H 4.4622 -2.56529 -1.51647 0
M  V30 36 H 1.9992 -1.27224 -0.738414 0
M  V30 37 H 3.9572 -1.66265 -3.82638 0
M  V30 38 H 2.5872 -0.751331 -3.13934 0
M  V30 39 H 1.6392 -3.02395 -2.30784 0
M  V30 40 H 2.9512 -3.82822 -3.19764 0
M  V30 41 H 2.1052 -2.8655 -5.34765 0
M  V30 42 H 0.8442 -1.95702 -4.46712 0
M  V30 43 H -0.1508 -4.11201 -3.64957 0
M  V30 44 H 1.0742 -5.02917 -4.56346 0
M  V30 45 H -0.9798 -3.13299 -5.76351 0
M  V30 46 H -1.0628 -4.86397 -5.78752 0
M  V30 47 H 0.2052 -4.05379 -6.65799 0
M  V30 48 N 4.4343 0.785586 -1.36625 0
M  V30 49 C 5.3443 1.92964 -1.33425 0
M  V30 50 C 6.3603 1.72394 -0.235851 0
M  V30 51 O 7.5363 1.95866 -0.468878 0
M  V30 52 C 4.6013 3.27884 -1.12662 0
M  V30 53 C 3.6623 3.61204 -2.32013 0
M  V30 54 C 2.8953 4.89687 -2.12231 0
M  V30 55 O 3.1183 5.59704 -1.09945 0
M  V30 56 O 2.0523 5.21752 -3.00098 0
M  V30 57 H 5.8783 1.98613 -2.29753 0
M  V30 58 H 3.4633 0.926384 -1.17211 0
M  V30 59 H 5.3453 4.08614 -1.03016 0
M  V30 60 H 4.0203 3.23118 -0.193991 0
M  V30 61 H 2.9273 2.80765 -2.47228 0
M  V30 62 H 4.2603 3.70698 -3.23796 0
M  V30 63 N 5.9124 1.20967 1.01018 0
M  V30 64 C 7.3234 1.02319 1.56165 0
M  V30 65 C 7.6744 -0.418546 1.91684 0
M  V30 66 O 6.7994 -1.30096 1.72928 0
M  V30 67 C 7.3944 1.85109 2.8376 0
M  V30 68 C 5.9534 1.70809 3.35412 0
M  V30 69 C 5.1004 1.82643 2.08655 0
M  V30 70 H 8.0514 1.35065 0.833255 0
M  V30 71 H 8.0724 1.35827 3.55431 0
M  V30 72 H 7.5844 2.90035 2.57878 0
M  V30 73 H 5.6854 0.685464 3.66241 0
M  V30 74 H 5.7984 2.52467 4.07182 0
M  V30 75 H 4.1624 1.25896 2.21409 0
M  V30 76 H 4.9454 2.89066 1.85191 0
M  V30 77 N 7.3905 -1.2043 1.01659 0
M  V30 78 C 8.3205 -2.25466 0.607226 0
M  V30 79 C 9.3015 -1.65853 -0.377716 0
M  V30 80 O 10.4865 -1.92409 -0.263149 0
M  V30 81 C 7.6165 -3.47256 -0.0552949 0
M  V30 82 C 6.5705 -4.19462 0.850632 0
M  V30 83 C 5.8965 -5.34673 0.0538859 0
M  V30 84 C 7.1965 -4.75603 2.15868 0
M  V30 85 H 8.8905 -2.59962 1.48526 0
M  V30 86 H 6.4365 -1.2496 0.715605 0
M  V30 87 H 8.3895 -4.19917 -0.353233 0
M  V30 88 H 7.1135 -3.11924 -0.968045 0
M  V30 89 H 5.7725 -3.48667 1.13257 0
M  V30 90 H 5.4205 -4.95585 -0.860514 0
M  V30 91 H 5.1205 -5.83913 0.657192 0
M  V30 92 H 6.6445 -6.10138 -0.237598 0
M  V30 93 H 8.0585 -5.40083 1.92311 0
M  V30 94 H 6.4555 -5.3528 2.71284 0
M  V30 95 H 7.5255 -3.94346 2.82169 0
M  V30 96 N 8.8686 -0.792821 -1.36206 0
M  V30 97 C 10.0966 -0.378825 -2.03402 0
M  V30 98 C 10.5116 1.00586 -1.59774 0
M  V30 99 O 9.8686 1.64574 -0.788764 0
M  V30 100 C 9.9196 -0.43683 -3.58851 0
M  V30 101 O 9.6406 -1.76691 -4.00889 0
M  V30 102 C 11.1416 -0.0138943 -4.43298 0
M  V30 103 H 8.3616 -0.155673 -0.652692 0
M  V30 104 H 10.9056 -1.07261 -1.74113 0
M  V30 105 H 9.0606 0.208575 -3.86838 0
M  V30 106 H 9.4746 -1.72011 -4.95492 0
M  V30 107 H 10.9486 -0.105615 -5.51899 0
M  V30 108 H 11.4256 1.03915 -4.2673 0
M  V30 109 H 12.0316 -0.63192 -4.20579 0
M  V30 110 N 10.3467 1.47872 -0.545128 0
M  V30 111 C 11.2767 2.32661 0.197793 0
M  V30 112 C 12.2577 1.43041 0.920504 0
M  V30 113 O 13.4427 1.71912 0.90333 0
M  V30 114 C 10.5727 3.24569 1.23582 0
M  V30 115 C 9.5267 4.23333 0.630323 0
M  V30 116 C 8.8527 5.0448 1.77211 0
M  V30 117 C 10.1527 5.20704 -0.407974 0
M  V30 118 H 11.8467 2.95024 -0.510045 0
M  V30 119 H 9.3927 1.4187 -0.246731 0
M  V30 120 H 11.3457 3.8272 1.76362 0
M  V30 121 H 10.0697 2.60236 1.97344 0
M  V30 122 H 8.7287 3.6639 0.123922 0
M  V30 123 H 8.3767 4.36561 2.49847 0
M  V30 124 H 8.0767 5.71339 1.37281 0
M  V30 125 H 9.6007 5.65487 2.3034 0
M  V30 126 H 11.0147 5.7329 0.033305 0
M  V30 127 H 9.4117 5.95699 -0.725486 0
M  V30 128 H 10.4817 4.66917 -1.30828 0
M  V30 129 N 11.8248 0.280983 1.55075 0
M  V30 130 C 12.7718 -0.603937 2.22758 0
M  V30 131 C 13.7418 -1.1452 1.20309 0
M  V30 132 O 14.9268 -1.19343 1.48869 0
M  V30 133 C 12.0668 -1.77947 2.95684 0
M  V30 134 C 11.1798 -1.2715 4.12864 0
M  V30 135 C 10.3148 -2.4093 4.7342 0
M  V30 136 C 9.3538 -1.87165 5.82783 0
M  V30 137 N 8.4908 -2.94441 6.37377 0
M  V30 138 H 13.3308 -0.020124 2.97993 0
M  V30 139 H 10.8678 0.00183425 1.471 0
M  V30 140 H 12.8258 -2.47055 3.36184 0
M  V30 141 H 11.4558 -2.33522 2.22861 0
M  V30 142 H 10.5078 -0.473331 3.77444 0
M  V30 143 H 11.8198 -0.837751 4.91715 0
M  V30 144 H 10.9738 -3.18021 5.1667 0
M  V30 145 H 9.7128 -2.87623 3.93859 0
M  V30 146 H 8.7178 -1.08556 5.38976 0
M  V30 147 H 9.9428 -1.41401 6.64216 0
M  V30 148 H 7.8888 -3.40505 5.60707 0
M  V30 149 H 7.8058 -2.55501 7.11516 0
M  V30 150 H 9.0738 -3.71489 6.85285 0
M  V30 151 N 13.3029 -1.57598 0.00835791 0
M  V30 152 C 14.5279 -1.95617 -0.689103 0
M  V30 153 C 14.9529 -0.883753 -1.66046 0
M  V30 154 O 14.3109 0.157352 -1.80616 0
M  V30 155 C 14.3589 -3.32736 -1.38994 0
M  V30 156 O 13.4629 -3.27631 -2.50463 0
M  V30 157 H 12.8039 -0.638379 -0.182668 0
M  V30 158 H 15.3339 -2.045 0.064036 0
M  V30 159 H 15.3439 -3.68494 -1.75147 0
M  V30 160 H 14.0189 -4.1034 -0.677778 0
M  V30 161 H 12.5959 -3.03561 -2.16576 0
M  V30 162 N 14.781 0.264519 -1.55364 0
M  V30 163 C 16.03 0.992812 -1.75574 0
M  V30 164 C 16.343 1.87142 -0.568979 0
M  V30 165 O 17.549 2.63513 -0.653682 0
M  V30 166 C 16.005 1.81519 -3.10771 0
M  V30 167 C 15.613 0.984839 -4.37041 0
M  V30 168 C 17.357 2.53727 -3.40327 0
M  V30 169 C 15.264 1.80209 -5.63275 0
M  V30 170 H 14.194 0.374412 -0.65447 0
M  V30 171 H 16.845 0.248138 -1.81815 0
M  V30 172 H 15.227 2.60115 -2.98591 0
M  V30 173 H 16.401 0.242455 -4.60162 0
M  V30 174 H 14.716 0.37691 -4.14691 0
M  V30 175 H 17.313 3.15292 -4.3185 0
M  V30 176 H 17.656 3.24447 -2.60845 0
M  V30 177 H 18.189 1.82156 -3.53644 0
M  V30 178 H 14.928 1.13896 -6.45529 0
M  V30 179 H 14.448 2.52022 -5.44284 0
M  V30 180 H 16.127 2.37364 -6.01887 0
M  V30 181 N 16.2591 1.48442 0.529413 0
M  V30 182 C 17.1911 1.59095 1.64989 0
M  V30 183 C 18.2041 0.475212 1.5571 0
M  V30 184 O 19.3931 0.746081 1.6216 0
M  V30 185 C 16.4931 1.50518 3.0364 0
M  V30 186 C 15.6661 2.77142 3.38395 0
M  V30 187 C 14.7251 2.62012 4.56329 0
M  V30 188 O 13.7511 3.35898 4.59522 0
M  V30 189 N 14.9531 1.71667 5.54536 0
M  V30 190 H 17.7181 2.55723 1.56287 0
M  V30 191 H 15.2791 1.45173 0.716697 0
M  V30 192 H 17.2711 1.38091 3.80412 0
M  V30 193 H 15.8411 0.618627 3.06418 0
M  V30 194 H 15.0611 3.0413 2.50796 0
M  V30 195 H 16.3491 3.61146 3.58401 0
M  V30 196 H 15.7471 1.10841 5.54735 0
M  V30 197 H 14.3041 1.65178 6.30523 0
M  V30 198 N 17.7372 -0.778329 1.37039 0
M  V30 199 C 18.9832 -1.53892 1.32079 0
M  V30 200 C 19.3162 -1.9396 -0.0965386 0
M  V30 201 O 18.5912 -1.63568 -1.05242 0
M  V30 202 C 18.8742 -2.80847 2.25382 0
M  V30 203 C 18.7272 -2.47076 3.75864 0
M  V30 204 C 20.0462 -3.82741 2.1725 0
M  V30 205 H 17.1652 -0.558303 0.48111 0
M  V30 206 H 19.8072 -0.893397 1.67685 0
M  V30 207 H 17.9572 -3.35931 1.95148 0
M  V30 208 H 19.6292 -1.97957 4.16666 0
M  V30 209 H 17.8722 -1.79863 3.94755 0
M  V30 210 H 18.5432 -3.37798 4.36574 0
M  V30 211 H 21.0192 -3.37133 2.43887 0
M  V30 212 H 19.8952 -4.69303 2.84686 0
M  V30 213 H 20.1562 -4.2652 1.16331 0
M  V30 214 N 19.2153 -1.21501 -1.00376 0
M  V30 215 C 20.1783 -0.976927 -2.07337 0
M  V30 216 C 21.1783 0.0525322 -1.60714 0
M  V30 217 O 22.3683 -0.184869 -1.73216 0
M  V30 218 C 19.5003 -0.473423 -3.37597 0
M  V30 219 H 20.6933 -1.92587 -2.29892 0
M  V30 220 H 18.2463 -1.03217 -1.17371 0
M  V30 221 H 18.9813 0.480379 -3.20722 0
M  V30 222 H 18.7663 -1.216 -3.72768 0
M  V30 223 H 20.2563 -0.32675 -4.1632 0
M  V30 224 N 20.6934 1.19889 -1.02296 0
M  V30 225 C 21.9394 1.89701 -0.717033 0
M  V30 226 C 22.2724 1.7905 0.751989 0
M  V30 227 O 21.5474 1.17891 1.547 0
M  V30 228 C 21.8304 3.40858 -1.16136 0
M  V30 229 C 21.6834 3.60411 -2.69117 0
M  V30 230 C 23.0024 4.33876 -0.737549 0
M  V30 231 H 20.1214 0.688874 -0.261957 0
M  V30 232 H 22.7634 1.41154 -1.27183 0
M  V30 233 H 20.9134 3.82335 -0.689342 0
M  V30 234 H 22.5854 3.28145 -3.2422 0
M  V30 235 H 20.8284 3.03665 -3.0979 0
M  V30 236 H 21.4994 4.66396 -2.95261 0
M  V30 237 H 23.9754 4.00081 -1.14344 0
M  V30 238 H 22.8514 5.38242 -1.0764 0
M  V30 239 H 23.1124 4.40628 0.360436 0
M  V30 240 N 22.1715 0.800033 1.35784 0
M  V30 241 C 23.0815 0.207204 2.33683 0
M  V30 242 C 24.0975 -0.64631 1.61551 0
M  V30 243 O 25.2735 -0.559604 1.93469 0
M  V30 244 C 22.3385 -0.639659 3.40748 0
M  V30 245 C 21.3995 0.233585 4.28664 0
M  V30 246 C 20.6325 -0.572954 5.30616 0
M  V30 247 O 20.8555 -1.80816 5.40982 0
M  V30 248 O 19.7895 0.0327285 6.01891 0
M  V30 249 H 23.6155 1.01692 2.86169 0
M  V30 250 H 21.2005 0.561691 1.38439 0
M  V30 251 H 23.0825 -1.12223 4.06182 0
M  V30 252 H 21.7575 -1.42708 2.90544 0
M  V30 253 H 20.6645 0.763147 3.66233 0
M  V30 254 H 21.9975 0.984784 4.82248 0
M  V30 255 N 23.6496 -1.47581 0.552962 0
M  V30 256 C 24.5596 -2.33743 -0.200353 0
M  V30 257 C 25.5756 -1.47928 -0.916151 0
M  V30 258 O 26.7516 -1.80865 -0.885993 0
M  V30 259 C 23.8166 -3.24536 -1.21973 0
M  V30 260 C 22.8776 -4.26238 -0.511819 0
M  V30 261 C 22.1106 -5.12693 -1.48263 0
M  V30 262 O 22.3336 -5.01525 -2.71714 0
M  V30 263 O 21.2676 -5.93375 -1.00945 0
M  V30 264 H 25.0936 -2.9945 0.506304 0
M  V30 265 H 22.6786 -1.46071 0.313622 0
M  V30 266 H 24.5606 -3.80631 -1.80827 0
M  V30 267 H 23.2356 -2.61462 -1.90839 0
M  V30 268 H 22.1426 -3.73914 0.117799 0
M  V30 269 H 23.4756 -4.92014 0.135308 0
M  V30 270 N 25.1277 -0.289203 -1.54924 0
M  V30 271 C 26.0577 0.58549 -2.2604 0
M  V30 272 C 27.0387 1.14753 -1.25562 0
M  V30 273 O 28.2237 1.17906 -1.54311 0
M  V30 274 C 25.3537 1.76305 -2.99222 0
M  V30 275 C 24.3077 1.33191 -4.06748 0
M  V30 276 C 23.6337 2.5937 -4.6758 0
M  V30 277 C 24.9337 0.471775 -5.20165 0
M  V30 278 H 26.6277 -0.00763532 -2.99399 0
M  V30 279 H 24.1737 -0.00511229 -1.43999 0
M  V30 280 H 26.1267 2.38097 -3.47689 0
M  V30 281 H 24.8507 2.38223 -2.23422 0
M  V30 282 H 23.5097 0.737121 -3.59113 0
M  V30 283 H 23.1577 3.19576 -3.88433 0
M  V30 284 H 22.8577 2.31228 -5.40192 0
M  V30 285 H 24.3817 3.21985 -5.18804 0
M  V30 286 H 25.7957 0.995056 -5.64599 0
M  V30 287 H 24.1927 0.284639 -5.99425 0
M  V30 288 H 25.2627 -0.506041 -4.82252 0
M  V30 289 N 26.6058 1.57591 -0.0167156 0
M  V30 290 C 27.8358 1.95292 0.674149 0
M  V30 291 C 28.2438 0.891097 1.66901 0
M  V30 292 O 27.5868 -0.136908 1.83189 0
M  V30 293 C 27.6488 3.29072 1.44747 0
M  V30 294 C 27.3128 4.52879 0.612331 0
M  V30 295 C 28.3098 5.1979 -0.107126 0
M  V30 296 C 25.9948 4.99242 0.553381 0
M  V30 297 C 27.9888 6.31375 -0.874339 0
M  V30 298 C 25.6758 6.10713 -0.217546 0
M  V30 299 C 26.6738 6.76637 -0.930123 0
M  V30 300 O 26.3618 7.85969 -1.68844 0
M  V30 301 H 26.0938 0.648275 0.191615 0
M  V30 302 H 28.6478 2.05284 -0.0690148 0
M  V30 303 H 26.8778 3.15535 2.2355 0
M  V30 304 H 28.5668 3.51764 2.02526 0
M  V30 305 H 29.3328 4.84948 -0.0708392 0
M  V30 306 H 25.2118 4.47744 1.09757 0
M  V30 307 H 28.7558 6.82764 -1.43106 0
M  V30 308 H 24.6528 6.44994 -0.255593 0
M  V30 309 H 25.4208 8.02571 -1.6069 0
M  V30 310 N 28.0839 -0.256276 1.55502 0
M  V30 311 C 29.4949 -0.826068 1.67431 0
M  V30 312 C 29.8459 -1.86396 0.612446 0
M  V30 313 O 28.9709 -2.15031 -0.243025 0
M  V30 314 C 29.5659 -1.50512 3.03532 0
M  V30 315 C 28.1249 -2.02273 3.17431 0
M  V30 316 C 27.2719 -0.870548 2.63281 0
M  V30 317 H 30.2229 -0.0322728 1.58667 0
M  V30 318 H 30.2439 -2.37279 2.97454 0
M  V30 319 H 29.7559 -0.749484 3.80794 0
M  V30 320 H 27.8569 -2.80746 2.44974 0
M  V30 321 H 27.9699 -2.22655 4.24219 0
M  V30 322 H 26.3339 -1.26851 2.20864 0
M  V30 323 H 27.1169 -0.128149 3.43061 0
M  V30 324 N 29.562 -1.4872 -0.521534 0
M  V30 325 C 30.51 -1.64328 -1.64618 0
M  V30 326 C 31.504 -0.50953 -1.61555 0
M  V30 327 O 32.71 -0.688525 -1.66311 0
M  V30 328 H 29.085 -0.517805 -0.545328 0
M  V30 329 H 31.056 -2.58767 -1.48601 0
M  V30 330 C 29.805 -1.70805 -3.02855 0
M  V30 331 H 29.128 -2.5741 -3.05909 0
M  V30 332 H 30.568 -1.85766 -3.81139 0
M  V30 333 C 29.027 -0.448479 -3.33902 0
M  V30 334 O 29.557 0.434928 -3.99339 0
M  V30 335 N 27.763 -0.317616 -2.88859 0
M  V30 336 H 27.31 -1.03748 -2.35784 0
M  V30 337 H 27.268 0.524113 -3.10001 0
M  V30 338 N 31.0401 0.771051 -1.3745 0
M  V30 339 C 31.9871 1.88435 -1.3327 0
M  V30 340 C 32.9571 1.64914 -0.198136 0
M  V30 341 O 34.1421 1.86821 -0.387606 0
M  V30 342 C 31.2821 3.25509 -1.14622 0
M  V30 343 C 30.3951 3.60979 -2.37314 0
M  V30 344 C 29.5301 4.87265 -2.11533 0
M  V30 345 C 28.5691 5.15469 -3.30088 0
M  V30 346 N 27.7061 6.32944 -3.03853 0
M  V30 347 H 32.5461 1.91344 -2.28455 0
M  V30 348 H 30.0831 0.935466 -1.13523 0
M  V30 349 H 32.0411 4.04582 -1.01831 0
M  V30 350 H 30.6711 3.21974 -0.230837 0
M  V30 351 H 29.7231 2.76885 -2.60842 0
M  V30 352 H 31.0351 3.77759 -3.25729 0
M  V30 353 H 30.1891 5.74244 -1.95777 0
M  V30 354 H 28.9281 4.7259 -1.20457 0
M  V30 355 H 27.9331 4.26966 -3.46382 0
M  V30 356 H 29.1581 5.32052 -4.22016 0
M  V30 357 H 27.1041 6.19625 -2.15407 0
M  V30 358 H 27.0211 6.50143 -3.85812 0
M  V30 359 H 28.2891 7.22857 -2.91716 0
M  V30 360 N 32.5182 1.22032 0.997298 0
M  V30 361 C 33.4812 0.987909 2.06816 0
M  V30 362 C 34.4812 -0.0440084 1.6074 0
M  V30 363 O 35.6712 0.194053 1.73116 0
M  V30 364 C 32.8032 0.49132 3.37341 0
M  V30 365 H 33.9962 1.93803 2.28868 0
M  V30 366 H 31.5492 1.03838 1.16822 0
M  V30 367 H 32.2842 -0.463364 3.20973 0
M  V30 368 H 32.0692 1.23575 3.72118 0
M  V30 369 H 33.5592 0.348824 4.16141 0
M  V30 370 N 33.9963 -1.19345 1.0293 0
M  V30 371 C 35.4123 -1.41069 0.746446 0
M  V30 372 C 35.6123 -1.90078 -0.668776 0
M  V30 373 O 34.6683 -2.0778 -1.4347 0
M  V30 374 C 35.9813 -2.42141 1.78292 0
M  V30 375 C 37.5293 -2.55887 1.80252 0
M  V30 376 C 38.0043 -3.60214 2.8286 0
M  V30 377 N 39.4953 -3.67711 2.81679 0
M  V30 378 C 40.2303 -4.48128 3.57727 0
M  V30 379 N 39.7263 -5.32248 4.43491 0
M  V30 380 N 41.5193 -4.42782 3.46267 0
M  V30 381 H 33.6703 -0.858536 1.94275 0
M  V30 382 H 35.9333 -0.439541 0.839945 0
M  V30 383 H 35.6393 -2.13155 2.79746 0
M  V30 384 H 35.5133 -3.41323 1.60557 0
M  V30 385 H 37.9003 -2.84196 0.794757 0
M  V30 386 H 37.9813 -1.56858 2.02062 0
M  V30 387 H 37.6253 -3.32647 3.83807 0
M  V30 388 H 37.5553 -4.58895 2.58307 0
M  V30 389 H 40.0463 -3.07634 2.19476 0
M  V30 390 H 40.3593 -5.90729 4.98256 0
M  V30 391 H 38.7043 -5.31707 4.47564 0
M  V30 392 H 41.8953 -3.76107 2.78677 0
M  V30 393 H 42.0683 -5.05215 4.05785 0
M  V30 394 N 35.4744 -0.807222 -1.35358 0
M  V30 395 C 36.4374 -0.223665 -2.28106 0
M  V30 396 C 37.4374 0.589354 -1.4961 0
M  V30 397 O 38.6274 0.407745 -1.69361 0
M  V30 398 C 35.7594 0.688149 -3.33882 0
M  V30 399 H 36.9524 -1.04169 -2.81227 0
M  V30 400 H 34.5054 -0.577921 -1.45223 0
M  V30 401 H 35.2404 1.52984 -2.85948 0
M  V30 402 H 35.0254 0.10687 -3.91954 0
M  V30 403 H 36.5154 1.09075 -4.03104 0
M  V30 404 N 36.9525 1.47285 -0.560781 0
M  V30 405 C 37.8825 2.32857 0.173105 0
M  V30 406 C 38.8635 1.44009 0.905281 0
M  V30 407 O 40.0485 1.7286 0.885046 0
M  V30 408 C 37.1785 3.25861 1.20133 0
M  V30 409 C 36.1325 4.23978 0.585388 0
M  V30 410 C 35.4585 5.06332 1.7185 0
M  V30 411 C 36.7585 5.20242 -0.463178 0
M  V30 412 H 38.4525 2.94466 -0.541307 0
M  V30 413 H 35.9985 1.41601 -0.261764 0
M  V30 414 H 37.9515 3.84569 1.72293 0
M  V30 415 H 36.6755 2.62315 1.94573 0
M  V30 416 H 35.3345 3.66501 0.085054 0
M  V30 417 H 34.9825 4.39186 2.45203 0
M  V30 418 H 34.6825 5.72762 1.31213 0
M  V30 419 H 36.2065 5.67899 2.24329 0
M  V30 420 H 37.6205 5.73293 -0.027502 0
M  V30 421 H 36.0175 5.94896 -0.788627 0
M  V30 422 H 37.0875 4.65504 -1.35773 0
M  V30 423 N 38.4306 0.297415 1.54768 0
M  V30 424 C 39.6586 -0.315623 2.04478 0
M  V30 425 C 40.0736 -1.47792 1.17486 0
M  V30 426 O 39.4306 -1.81404 0.19971 0
M  V30 427 C 39.4816 -0.7753 3.53088 0
M  V30 428 O 39.2026 0.340732 4.36773 0
M  V30 429 C 40.7036 -1.45386 4.18781 0
M  V30 430 H 37.9236 -0.0690887 0.667434 0
M  V30 431 H 40.4676 0.436003 1.99798 0
M  V30 432 H 38.6226 -1.47696 3.58141 0
M  V30 433 H 39.0366 -0.0165035 5.24497 0
M  V30 434 H 40.5106 -1.72669 5.24299 0
M  V30 435 H 40.9876 -2.39275 3.68299 0
M  V30 436 H 41.5936 -0.795475 4.17795 0
M  V30 437 N 39.9087 -1.5758 0.0250728 0
M  V30 438 C 40.8387 -2.13007 -0.956575 0
M  V30 439 C 41.8197 -1.0452 -1.342 0
M  V30 440 O 43.0047 -1.32332 -1.42133 0
M  V30 441 C 40.1347 -2.65386 -2.24026 0
M  V30 442 C 39.0887 -3.78623 -1.99571 0
M  V30 443 C 38.4147 -4.17414 -3.3417 0
M  V30 444 C 39.7147 -5.04867 -1.33814 0
M  V30 445 H 41.4087 -2.9528 -0.494991 0
M  V30 446 H 38.9547 -1.42042 -0.236651 0
M  V30 447 H 40.9077 -3.02794 -2.93076 0
M  V30 448 H 39.6317 -1.80268 -2.72343 0
M  V30 449 H 38.2907 -3.41646 -1.32941 0
M  V30 450 H 37.9387 -3.29284 -3.80238 0
M  V30 451 H 37.6387 -4.93719 -3.18615 0
M  V30 452 H 39.1627 -4.57402 -4.04495 0
M  V30 453 H 40.5767 -5.39888 -1.92857 0
M  V30 454 H 38.9737 -5.86144 -1.28669 0
M  V30 455 H 40.0437 -4.83904 -0.310561 0
M  V30 456 N 41.3868 0.248026 -1.55636 0
M  V30 457 C 42.3498 1.29044 -1.89421 0
M  V30 458 C 43.3498 1.41134 -0.770581 0
M  V30 459 O 44.5398 1.39854 -1.03858 0
M  V30 460 C 41.6718 2.66831 -2.12165 0
M  V30 461 H 42.8648 1.00305 -2.82629 0
M  V30 462 H 40.4178 0.487265 -1.48511 0
M  V30 463 H 41.1528 3.00711 -1.21422 0
M  V30 464 H 40.9378 2.59438 -2.93997 0
M  V30 465 H 42.4278 3.42103 -2.3949 0
M  V30 466 N 42.8649 1.48995 0.513639 0
M  V30 467 C 43.7969 1.60836 1.63293 0
M  V30 468 C 44.8099 0.491701 1.55197 0
M  V30 469 O 45.9989 0.763238 1.6136 0
M  V30 470 C 43.0989 1.53731 3.02027 0
M  V30 471 C 42.2719 2.80715 3.35437 0
M  V30 472 C 41.3309 2.66837 4.53525 0
M  V30 473 O 40.3569 3.40753 4.55934 0
M  V30 474 N 41.5589 1.77539 5.52684 0
M  V30 475 H 44.3239 2.57366 1.53566 0
M  V30 476 H 41.8849 1.45925 0.701259 0
M  V30 477 H 43.8769 1.42118 3.78926 0
M  V30 478 H 42.4469 0.651092 3.05744 0
M  V30 479 H 41.6669 3.06772 2.47557 0
M  V30 480 H 42.9549 3.64927 3.54551 0
M  V30 481 H 42.3529 1.16719 5.53528 0
M  V30 482 H 40.9099 1.71856 6.28736 0
M  V30 483 N 44.343 -0.763751 1.37857 0
M  V30 484 C 45.293 -1.86765 1.30777 0
M  V30 485 C 46.277 -1.59726 0.194015 0
M  V30 486 O 47.469 -1.7172 0.42911 0
M  V30 487 C 44.598 -3.24343 1.12502 0
M  V30 488 C 43.684 -3.57307 2.28456 0
M  V30 489 N 44.075 -3.61398 3.53871 0
M  V30 490 C 42.373 -3.87517 2.20786 0
M  V30 491 C 43.074 -3.91339 4.30382 0
M  V30 492 N 42.05 -4.07649 3.59615 0
M  V30 493 H 45.852 -1.88191 2.25746 0
M  V30 494 H 43.366 -0.9606 1.30944 0
M  V30 495 H 45.363 -4.03327 1.05514 0
M  V30 496 H 44.023 -3.24175 0.184574 0
M  V30 497 H 45.034 -3.43407 3.87675 0
M  V30 498 H 41.711 -3.95125 1.34844 0
M  V30 499 H 43.101 -4.01213 5.3896 0
M  V30 500 N 45.8211 -1.22559 -0.990812 0
M  V30 501 C 47.0461 -1.07862 -1.77145 0
M  V30 502 C 47.4711 0.366447 -1.84496 0
M  V30 503 O 46.8291 1.26478 -1.29896 0
M  V30 504 C 46.8771 -1.69686 -3.18181 0
M  V30 505 O 45.9811 -0.951946 -4.01263 0
M  V30 506 H 45.3221 -0.378712 -0.545411 0
M  V30 507 H 47.8521 -1.62399 -1.2445 0
M  V30 508 H 47.8621 -1.74496 -3.68802 0
M  V30 509 H 46.5371 -2.74841 -3.12146 0
M  V30 510 H 45.1141 -0.980011 -3.59792 0
M  V30 511 N 47.2992 1.18797 -1.03562 0
M  V30 512 C 48.7152 1.40671 -0.753917 0
M  V30 513 C 48.9152 1.9043 0.658686 0
M  V30 514 O 47.9712 2.08538 1.42366 0
M  V30 515 C 49.2842 2.41192 -1.79574 0
M  V30 516 C 50.8322 2.54928 -1.81606 0
M  V30 517 C 51.3072 3.58709 -2.84766 0
M  V30 518 N 52.7982 3.66212 -2.83625 0
M  V30 519 C 53.5332 4.46225 -3.60098 0
M  V30 520 N 53.0292 5.29888 -4.46308 0
M  V30 521 N 54.8222 4.40939 -3.4861 0
M  V30 522 H 46.9732 0.848221 -1.94728 0
M  V30 523 H 49.2362 0.435081 -0.842264 0
M  V30 524 H 48.9422 2.11669 -2.80872 0
M  V30 525 H 48.8162 3.40467 -1.62365 0
M  V30 526 H 51.2032 2.83771 -0.809817 0
M  V30 527 H 51.2842 1.55784 -2.02891 0
M  V30 528 H 50.9282 3.30607 -3.85566 0
M  V30 529 H 50.8582 4.57519 -2.60737 0
M  V30 530 H 53.3492 3.06466 -2.21105 0
M  V30 531 H 53.6622 5.88078 -5.01382 0
M  V30 532 H 52.0072 5.29326 -4.50377 0
M  V30 533 H 55.1982 3.74624 -2.80668 0
M  V30 534 H 55.3712 5.03056 -4.08459 0
M  V30 535 N 48.7773 0.814389 1.34928 0
M  V30 536 C 49.7403 0.235759 2.27984 0
M  V30 537 C 50.7403 -0.581412 1.49921 0
M  V30 538 O 51.9303 -0.398758 1.69575 0
M  V30 539 C 49.0623 -0.670433 3.34242 0
M  V30 540 H 50.2553 1.05659 2.80671 0
M  V30 541 H 47.8083 0.585614 1.44915 0
M  V30 542 H 48.5433 -1.51466 2.86755 0
M  V30 543 H 48.3283 -0.0860822 3.92005 0
M  V30 544 H 49.8183 -1.06935 4.03676 0
M  V30 545 N 50.2554 -1.46986 0.568584 0
M  V30 546 C 51.6664 -1.86188 0.138219 0
M  V30 547 C 52.0174 -1.47388 -1.29504 0
M  V30 548 O 51.1424 -0.88219 -1.97602 0
M  V30 549 C 51.7374 -3.3792 0.244065 0
M  V30 550 C 50.2964 -3.76171 -0.131335 0
M  V30 551 C 49.4434 -2.71027 0.586465 0
M  V30 552 H 52.3944 -1.38342 0.777645 0
M  V30 553 H 52.4154 -3.76729 -0.534351 0
M  V30 554 H 51.9274 -3.66128 1.28731 0
M  V30 555 H 50.0284 -3.5358 -1.17526 0
M  V30 556 H 50.1414 -4.78523 0.235146 0
M  V30 557 H 48.5054 -2.54684 0.0282722 0
M  V30 558 H 49.2884 -3.02077 1.63109 0
M  V30 559 N 51.7335 -0.305618 -1.54608 0
M  V30 560 C 52.9585 0.307562 -2.05107 0
M  V30 561 C 53.3835 1.46385 -1.18123 0
M  V30 562 O 52.7415 1.8034 -0.186324 0
M  V30 563 C 52.7895 0.73704 -3.52987 0
M  V30 564 O 51.8935 1.84134 -3.6901 0
M  V30 565 H 51.2345 0.0589143 -0.661381 0
M  V30 566 H 53.7645 -0.448807 -1.99617 0
M  V30 567 H 53.7745 1.02459 -3.94925 0
M  V30 568 H 52.4495 -0.108773 -4.15758 0
M  V30 569 H 51.0265 1.55398 -3.38978 0
M  V30 570 N 53.2116 1.57565 -0.0334293 0
M  V30 571 C 54.6226 1.79746 0.504798 0
M  V30 572 C 54.9736 0.944091 1.71992 0
M  V30 573 O 54.0986 0.155694 2.15839 0
M  V30 574 C 54.6936 3.25997 0.922567 0
M  V30 575 C 53.2526 3.49159 1.40588 0
M  V30 576 C 52.3996 2.74785 0.372633 0
M  V30 577 H 55.3506 1.56565 -0.259436 0
M  V30 578 H 55.3716 3.35945 1.78666 0
M  V30 579 H 54.8836 3.88081 0.0379825 0
M  V30 580 H 52.9846 2.92332 2.31025 0
M  V30 581 H 53.0976 4.57873 1.41028 0
M  V30 582 H 51.4616 2.40391 0.841672 0
M  V30 583 H 52.2446 3.39587 -0.503559 0
M  V30 584 N 54.6897 -0.239769 1.55765 0
M  V30 585 C 56.1057 -0.588624 1.48349 0
M  V30 586 C 56.3057 -1.88005 0.72502 0
M  V30 587 O 55.3617 -2.51186 0.257269 0
M  V30 588 C 56.6747 -0.68474 2.928 0
M  V30 589 C 58.2227 -0.77659 3.03213 0
M  V30 590 C 58.6977 -0.904207 4.48986 0
M  V30 591 N 60.1887 -0.968896 4.52953 0
M  V30 592 C 60.9237 -1.08703 5.63002 0
M  V30 593 N 60.4197 -1.17026 6.82845 0
M  V30 594 N 62.2127 -1.12074 5.50814 0
M  V30 595 H 54.3637 0.607911 2.03515 0
M  V30 596 H 56.6267 0.21083 0.924259 0
M  V30 597 H 56.3327 0.194284 3.51163 0
M  V30 598 H 56.2067 -1.55435 3.43686 0
M  V30 599 H 58.5937 -1.64606 2.44926 0
M  V30 600 H 58.6747 0.118315 2.55526 0
M  V30 601 H 58.3187 -0.0392633 5.07885 0
M  V30 602 H 58.2487 -1.81426 4.9436 0
M  V30 603 H 60.7397 -0.915633 3.6664 0
M  V30 604 H 61.0527 -1.25966 7.62465 0
M  V30 605 H 59.3977 -1.13971 6.85591 0
M  V30 606 H 62.5887 -1.05226 4.5612 0
M  V30 607 H 62.7617 -1.20936 6.36615 0
M  V30 608 N 56.1678 -1.49265 -0.50573 0
M  V30 609 C 57.0978 -1.68495 -1.61653 0
M  V30 610 C 58.0788 -0.53366 -1.61512 0
M  V30 611 O 59.2638 -0.76897 -1.78327 0
M  V30 612 C 56.3938 -1.74709 -3.00157 0
M  V30 613 C 55.3478 -2.89581 -3.15162 0
M  V30 614 C 54.6738 -2.80903 -4.5497 0
M  V30 615 C 55.9738 -4.30578 -2.95634 0
M  V30 616 H 57.6678 -2.61493 -1.45814 0
M  V30 617 H 55.2138 -1.25838 -0.70005 0
M  V30 618 H 57.1668 -1.86748 -3.77761 0
M  V30 619 H 55.8908 -0.783067 -3.17074 0
M  V30 620 H 54.5498 -2.77136 -2.39982 0
M  V30 621 H 54.1978 -1.82419 -4.68756 0
M  V30 622 H 53.8978 -3.57999 -4.65951 0
M  V30 623 H 55.4218 -2.94944 -5.34641 0
M  V30 624 H 56.8358 -4.4373 -3.63011 0
M  V30 625 H 55.2328 -5.0886 -3.18091 0
M  V30 626 H 56.3028 -4.45352 -1.91806 0
M  V30 627 N 57.6459 0.756429 -1.3826 0
M  V30 628 C 59.0619 1.0591 -1.19395 0
M  V30 629 C 59.2619 2.01459 -0.0406567 0
M  V30 630 O 58.3179 2.44909 0.614467 0
M  V30 631 C 59.6309 1.64191 -2.51916 0
M  V30 632 C 61.1789 1.76376 -2.58574 0
M  V30 633 C 61.6539 2.38069 -3.91264 0
M  V30 634 N 63.1449 2.45503 -3.92788 0
M  V30 635 C 63.8799 2.94126 -4.92217 0
M  V30 636 N 63.3759 3.42805 -6.02043 0
M  V30 637 N 65.1689 2.9314 -4.7961 0
M  V30 638 H 57.3199 0.122313 -2.12048 0
M  V30 639 H 59.5829 0.116892 -0.940766 0
M  V30 640 H 59.2889 1.01451 -3.3675 0
M  V30 641 H 59.1629 2.6329 -2.70108 0
M  V30 642 H 61.5499 2.38244 -1.74137 0
M  V30 643 H 61.6309 0.759894 -2.44252 0
M  V30 644 H 61.2749 1.76835 -4.76121 0
M  V30 645 H 61.2049 3.39091 -4.02895 0
M  V30 646 H 63.6959 2.1107 -3.13461 0
M  V30 647 H 64.0089 3.78354 -6.73846 0
M  V30 648 H 62.3539 3.4087 -6.05667 0
M  V30 649 H 65.5449 2.54419 -3.92923 0
M  V30 650 H 65.7179 3.30721 -5.5725 0
M  V30 651 N 59.124 1.23083 0.984299 0
M  V30 652 C 60.349 1.088 1.76571 0
M  V30 653 C 60.774 -0.356657 1.84688 0
M  V30 654 O 60.132 -1.25788 1.30565 0
M  V30 655 C 60.18 1.71371 3.17277 0
M  V30 656 O 59.284 0.973213 4.00752 0
M  V30 657 H 58.625 0.381599 0.543395 0
M  V30 658 H 61.155 1.63057 1.23587 0
M  V30 659 H 61.165 1.76449 3.67872 0
M  V30 660 H 59.84 2.76493 3.10684 0
M  V30 661 H 58.417 0.999078 3.59267 0
M  V30 662 N 60.6021 -1.18246 1.0419 0
M  V30 663 C 62.0181 -1.40269 0.761366 0
M  V30 664 C 62.2181 -1.90777 -0.648578 0
M  V30 665 O 61.2741 -2.0929 -1.41258 0
M  V30 666 C 62.5871 -2.40237 1.8085 0
M  V30 667 C 64.1351 -2.53961 1.82955 0
M  V30 668 C 64.6101 -3.57194 2.86664 0
M  V30 669 N 66.1011 -3.64702 2.85563 0
M  V30 670 C 66.8361 -4.44309 3.6246 0
M  V30 671 N 66.3321 -5.27514 4.49111 0
M  V30 672 N 68.1251 -4.39084 3.50944 0
M  V30 673 H 60.2761 -0.837882 1.95175 0
M  V30 674 H 62.5391 -0.430608 0.84456 0
M  V30 675 H 62.2451 -2.10176 2.81991 0
M  V30 676 H 62.1191 -3.39601 1.64168 0
M  V30 677 H 64.5061 -2.83338 0.824855 0
M  V30 678 H 64.5871 -1.54706 2.03715 0
M  V30 679 H 64.2311 -3.28558 3.87314 0
M  V30 680 H 64.1611 -4.5613 2.6316 0
M  V30 681 H 66.6521 -3.05289 2.22727 0
M  V30 682 H 66.9651 -5.85411 5.04493 0
M  V30 683 H 65.3101 -5.2693 4.53178 0
M  V30 684 H 68.5011 -3.7313 2.82651 0
M  V30 685 H 68.6741 -5.00883 4.11121 0
M  V30 686 N 62.0802 -0.821533 -1.34494 0
M  V30 687 C 63.0102 -0.257138 -2.3208 0
M  V30 688 C 63.9912 0.625645 -1.58176 0
M  V30 689 O 65.1762 0.552811 -1.86166 0
M  V30 690 C 62.3062 0.582958 -3.42372 0
M  V30 691 C 61.2602 -0.202571 -4.2752 0
M  V30 692 C 60.5862 0.760179 -5.29269 0
M  V30 693 C 61.8862 -1.40998 -5.02908 0
M  V30 694 H 63.5802 -1.07247 -2.79532 0
M  V30 695 H 61.1262 -0.517163 -1.34393 0
M  V30 696 H 63.0792 0.987972 -4.09655 0
M  V30 697 H 61.8032 1.43133 -2.93565 0
M  V30 698 H 60.4622 -0.588936 -3.61838 0
M  V30 699 H 60.1102 1.60447 -4.76724 0
M  V30 700 H 59.8102 0.238809 -5.87115 0
M  V30 701 H 61.3342 1.16308 -5.9942 0
M  V30 702 H 62.7482 -1.07905 -5.63054 0
M  V30 703 H 61.1452 -1.86689 -5.70322 0
M  V30 704 H 62.2152 -2.1889 -4.32684 0
M  V30 705 N 63.5583 1.46682 -0.576371 0
M  V30 706 C 64.8053 2.02412 -0.0595339 0
M  V30 707 C 65.1333 1.44859 1.29793 0
M  V30 708 O 64.3883 0.601099 1.8624 0
M  V30 709 C 64.6873 3.57345 0.062886 0
M  V30 710 C 64.3533 4.33908 -1.22616 0
M  V30 711 C 63.0153 4.54544 -1.57933 0
M  V30 712 C 65.3673 4.77919 -2.07948 0
M  V30 713 C 62.6953 5.16444 -2.78393 0
M  V30 714 C 65.0473 5.41149 -3.27629 0
M  V30 715 C 63.7113 5.60014 -3.63236 0
M  V30 716 H 62.9813 0.74068 -0.021785 0
M  V30 717 H 65.6283 1.76128 -0.751735 0
M  V30 718 H 63.9333 3.82729 0.838178 0
M  V30 719 H 65.6303 3.98136 0.478439 0
M  V30 720 H 62.2203 4.18138 -0.941202 0
M  V30 721 H 66.4043 4.61738 -1.81967 0
M  V30 722 H 61.6603 5.29242 -3.06126 0
M  V30 723 H 65.8343 5.74211 -3.94023 0
M  V30 724 H 63.4613 6.07748 -4.56669 0
M  V30 725 N 65.0364 0.313813 1.54444 0
M  V30 726 C 66.2614 -0.296681 2.05267 0
M  V30 727 C 66.6864 -1.45757 1.18897 0
M  V30 728 O 66.0444 -1.80239 0.195886 0
M  V30 729 C 66.0924 -0.71831 3.53373 0
M  V30 730 O 65.1964 -1.82175 3.69981 0
M  V30 731 H 64.5374 -0.0554061 0.661684 0
M  V30 732 H 67.0674 0.459387 1.99376 0
M  V30 733 H 67.0774 -1.00364 3.95463 0
M  V30 734 H 65.7524 0.130821 4.15694 0
M  V30 735 H 64.3294 -1.53598 3.39797 0
M  V30 736 N 66.5145 -1.57545 0.0417849 0
M  V30 737 C 67.4615 -2.10977 -0.935805 0
M  V30 738 C 68.4315 -1.01486 -1.31491 0
M  V30 739 O 69.6165 -1.2898 -1.40602 0
M  V30 740 C 66.7565 -2.65169 -2.2086 0
M  V30 741 C 65.8695 -3.88714 -1.88482 0
M  V30 742 C 65.0045 -4.31254 -3.1015 0
M  V30 743 C 64.0435 -5.47524 -2.7365 0
M  V30 744 N 63.1805 -5.85162 -3.87982 0
M  V30 745 H 68.0205 -2.94218 -0.473249 0
M  V30 746 H 65.5575 -1.45415 -0.221981 0
M  V30 747 H 67.5155 -2.94685 -2.95325 0
M  V30 748 H 66.1455 -1.8474 -2.64709 0
M  V30 749 H 65.1975 -3.65849 -1.04205 0
M  V30 750 H 66.5095 -4.73245 -1.57608 0
M  V30 751 H 65.6635 -4.62273 -3.92923 0
M  V30 752 H 64.4025 -3.45516 -3.44195 0
M  V30 753 H 63.4075 -5.16187 -1.89291 0
M  V30 754 H 64.6325 -6.34971 -2.40807 0
M  V30 755 H 62.5785 -5.02377 -4.21846 0
M  V30 756 H 62.4955 -6.64362 -3.60775 0
M  V30 757 H 63.7635 -6.20791 -4.71422 0
M  V30 758 N 67.9926 0.231505 -1.5589 0
M  V30 759 C 68.9556 1.27028 -1.90779 0
M  V30 760 C 69.9556 1.40308 -0.785507 0
M  V30 761 O 71.1456 1.38744 -1.05336 0
M  V30 762 C 68.2776 2.64566 -2.14983 0
M  V30 763 H 69.4706 0.973017 -2.83677 0
M  V30 764 H 67.0236 0.471486 -1.49019 0
M  V30 765 H 67.7586 2.99406 -1.24604 0
M  V30 766 H 67.5436 2.56305 -2.96732 0
M  V30 767 H 69.0336 3.39543 -2.43105 0
M  V30 768 N 69.4707 1.49531 0.497807 0
M  V30 769 C 70.4007 1.6935 1.60757 0
M  V30 770 C 71.3817 0.542218 1.61227 0
M  V30 771 O 72.5667 0.778417 1.77917 0
M  V30 772 C 69.6967 1.76298 2.99226 0
M  V30 773 C 68.6507 2.91248 3.13622 0
M  V30 774 C 67.9767 2.83312 4.53474 0
M  V30 775 C 69.2767 4.3214 2.93346 0
M  V30 776 H 70.9707 2.62263 1.44425 0
M  V30 777 H 68.5167 1.26208 0.693367 0
M  V30 778 H 70.4697 1.88749 3.76765 0
M  V30 779 H 69.1937 0.799871 3.16654 0
M  V30 780 H 67.8527 2.78404 2.38509 0
M  V30 781 H 67.5007 1.84902 4.67782 0
M  V30 782 H 67.2007 3.60465 4.64046 0
M  V30 783 H 68.7247 2.97775 5.33069 0
M  V30 784 H 70.1387 4.45649 3.60652 0
M  V30 785 H 68.5357 5.1054 3.15387 0
M  V30 786 H 69.6057 4.46363 1.89441 0
M  V30 787 N 70.9488 -0.749086 1.3866 0
M  V30 788 C 71.8958 -1.86291 1.36251 0
M  V30 789 C 72.8658 -1.64578 0.224347 0
M  V30 790 O 74.0508 -1.86181 0.417279 0
M  V30 791 C 71.1908 -3.23644 1.19786 0
M  V30 792 C 70.3038 -3.57158 2.43027 0
M  V30 793 C 69.4388 -4.83838 2.19258 0
M  V30 794 C 68.4778 -5.10152 3.38247 0
M  V30 795 N 67.6148 -6.28029 3.13884 0
M  V30 796 H 72.4548 -1.87685 2.3147 0
M  V30 797 H 69.9918 -0.917287 1.14997 0
M  V30 798 H 71.9498 -4.0291 1.08254 0
M  V30 799 H 70.5798 -3.21566 0.282031 0
M  V30 800 H 69.6318 -2.72701 2.65214 0
M  V30 801 H 70.9438 -3.7253 3.31697 0
M  V30 802 H 70.0978 -5.71057 2.04888 0
M  V30 803 H 68.8368 -4.70614 1.2796 0
M  V30 804 H 67.8418 -4.21401 3.53131 0
M  V30 805 H 69.0668 -5.25271 4.30427 0
M  V30 806 H 67.0128 -6.1612 2.25238 0
M  V30 807 H 66.9298 -6.43922 3.96106 0
M  V30 808 H 68.1978 -7.18124 3.03179 0
M  V30 809 N 72.4269 -1.23603 -0.977757 0
M  V30 810 C 73.6749 -1.06759 -1.71601 0
M  V30 811 C 73.9959 0.395929 -1.90938 0
M  V30 812 O 73.2659 1.28356 -1.47992 0
M  V30 813 H 71.8459 -0.392062 -0.635843 0
M  V30 814 H 74.5079 -1.55362 -1.1768 0
M  V30 815 H 73.6039 -1.55763 -2.70452 0
M  V30 816 N 73.905 1.17692 -1.04816 0
M  V30 817 C 75.182 1.83768 -0.669963 0
M  V30 818 C 75.562 1.93232 0.849986 0
M  V30 819 O 74.91 1.46397 1.75443 0
M  V30 820 C 75.12 3.21641 -1.35455 0
M  V30 821 C 76.468 3.97592 -1.49017 0
M  V30 822 O 77.492 3.31107 -1.31326 0
M  V30 823 O 76.351 5.16729 -1.77914 0
M  V30 824 H 73.445 0.792799 -0.235368 0
M  V30 825 H 75.991 1.25021 -1.14751 0
M  V30 826 H 74.763 3.097 -2.39168 0
M  V30 827 H 74.386 3.88052 -0.866107 0
M  V30 828 N 75.3831 0.828654 1.34056 0
M  V30 829 C 76.3331 0.226828 2.26869 0
M  V30 830 C 77.3171 -0.612243 1.48796 0
M  V30 831 O 78.5091 -0.465884 1.70759 0
M  V30 832 C 75.6381 -0.605654 3.37915 0
M  V30 833 C 74.7241 0.244361 4.23395 0
M  V30 834 N 75.1151 1.31815 4.88322 0
M  V30 835 C 73.4131 0.0296616 4.4599 0
M  V30 836 C 74.1141 1.83895 5.51867 0
M  V30 837 N 73.0901 1.14196 5.3147 0
M  V30 838 H 76.8921 1.04811 2.74576 0
M  V30 839 H 74.4061 0.67205 1.47842 0
M  V30 840 H 76.4031 -1.05302 4.03382 0
M  V30 841 H 75.0631 -1.42504 2.91758 0
M  V30 842 H 76.0741 1.70099 4.8917 0
M  V30 843 H 72.7511 -0.757097 4.10578 0
M  V30 844 H 74.1411 2.7376 6.136 0
M  V30 845 N 76.8612 -1.46375 0.584142 0
M  V30 846 C 78.2772 -1.57694 0.245929 0
M  V30 847 C 78.4772 -1.57903 -1.25175 0
M  V30 848 O 77.5332 -1.49676 -2.03355 0
M  V30 849 C 78.8462 -2.87028 0.896402 0
M  V30 850 C 80.3942 -3.00662 0.870127 0
M  V30 851 C 80.8692 -4.32734 1.50017 0
M  V30 852 N 82.3602 -4.39436 1.46458 0
M  V30 853 C 83.0952 -5.40248 1.92144 0
M  V30 854 N 82.5912 -6.47726 2.4581 0
M  V30 855 N 84.3842 -5.31459 1.83052 0
M  V30 856 H 76.5352 -1.44483 1.55687 0
M  V30 857 H 78.7982 -0.689291 0.650831 0
M  V30 858 H 78.5042 -2.9269 1.95002 0
M  V30 859 H 78.3782 -3.75014 0.405486 0
M  V30 860 H 80.7652 -2.94581 -0.174871 0
M  V30 861 H 80.8462 -2.14148 1.39908 0
M  V30 862 H 80.4902 -4.39573 2.54437 0
M  V30 863 H 80.4202 -5.18025 0.946432 0
M  V30 864 H 82.9112 -3.62367 1.07231 0
M  V30 865 H 83.2242 -7.20863 2.78525 0
M  V30 866 H 81.5692 -6.48542 2.49836 0
M  V30 867 H 84.7602 -4.46396 1.40883 0
M  V30 868 H 84.9332 -6.09881 2.18973 0
M  V30 869 N 78.3393 -0.321999 -1.54275 0
M  V30 870 C 79.5793 0.281657 -2.0245 0
M  V30 871 C 79.9433 1.49468 -1.20513 0
M  V30 872 O 81.1443 2.17109 -1.58484 0
M  V30 873 C 79.4153 0.609014 -3.52173 0
M  V30 874 S 80.9743 1.19255 -4.22284 0
M  V30 875 H 77.7923 0.0852825 -0.705867 0
M  V30 876 H 80.3943 -0.454758 -1.90137 0
M  V30 877 H 79.0983 -0.281982 -4.0943 0
M  V30 878 H 78.6293 1.37567 -3.68563 0
M  V30 879 H 80.6443 2.47944 -4.29812 0
M  V30 880 N 79.8174 1.5752 -0.0501392 0
M  V30 881 C 81.0654 1.9227 0.622642 0
M  V30 882 C 81.3864 0.929083 1.71444 0
M  V30 883 O 80.6564 -0.0262186 1.95882 0
M  V30 884 H 79.2364 0.709739 0.232981 0
M  V30 885 H 81.8984 1.94628 -0.102898 0
M  V30 886 H 80.9944 2.93479 1.06191 0
M  V30 887 N 81.2955 -0.223234 1.56011 0
M  V30 888 C 82.2055 -1.29766 1.95443 0
M  V30 889 C 83.2215 -1.51373 0.858028 0
M  V30 890 O 84.3975 -1.64536 1.16146 0
M  V30 891 C 81.4625 -2.62772 2.26167 0
M  V30 892 C 80.5235 -2.49482 3.49367 0
M  V30 893 C 79.7565 -3.76145 3.78616 0
M  V30 894 O 79.9795 -4.79087 3.09568 0
M  V30 895 O 78.9135 -3.73358 4.72109 0
M  V30 896 H 82.7395 -0.99309 2.87004 0
M  V30 897 H 80.3245 -0.425958 1.43199 0
M  V30 898 H 82.2065 -3.41327 2.47131 0
M  V30 899 H 80.8815 -2.92913 1.37781 0
M  V30 900 H 79.7885 -1.69133 3.33684 0
M  V30 901 H 81.1215 -2.2428 4.38131 0
M  V30 902 N 82.7736 -1.49793 -0.48987 0
M  V30 903 C 84.0016 -1.63568 -1.26701 0
M  V30 904 C 84.4166 -0.311465 -1.86213 0
M  V30 905 O 83.7736 0.704416 -1.68357 0
M  V30 906 C 83.8246 -2.71284 -2.38929 0
M  V30 907 O 83.5456 -3.9857 -1.81861 0
M  V30 908 C 85.0466 -2.95864 -3.3012 0
M  V30 909 H 82.2666 -0.550342 -0.383881 0
M  V30 910 H 84.8106 -1.95898 -0.586864 0
M  V30 911 H 82.9656 -2.417 -3.02753 0
M  V30 912 H 83.3796 -4.57993 -2.55622 0
M  V30 913 H 84.8536 -3.74941 -4.05121 0
M  V30 914 H 85.3306 -2.06206 -3.87783 0
M  V30 915 H 85.9366 -3.26907 -2.72051 0
M  V30 916 N 84.2517 0.741722 -1.39055 0
M  V30 917 C 85.1617 1.88621 -1.39496 0
M  V30 918 C 86.1777 1.71557 -0.290578 0
M  V30 919 O 87.3537 1.94275 -0.530954 0
M  V30 920 C 84.4187 3.24134 -1.23037 0
M  V30 921 C 83.4797 3.5364 -2.43387 0
M  V30 922 C 82.7127 4.82687 -2.27703 0
M  V30 923 O 82.9357 5.55922 -1.27696 0
M  V30 924 O 81.8697 5.1194 -3.16545 0
M  V30 925 H 85.6957 1.91203 -2.35956 0
M  V30 926 H 83.2807 0.888625 -1.20099 0
M  V30 927 H 85.1627 4.0513 -1.15964 0
M  V30 928 H 83.8377 3.22337 -0.296691 0
M  V30 929 H 82.7447 2.72758 -2.56035 0
M  V30 930 H 84.0777 3.60209 -3.35425 0
M  V30 931 N 85.7298 1.2412 0.971189 0
M  V30 932 C 86.9578 1.10575 1.74874 0
M  V30 933 C 87.3728 -0.342017 1.85676 0
M  V30 934 O 86.7298 -1.23617 1.34258 0
M  V30 935 C 86.7808 1.73579 3.171 0
M  V30 936 O 86.5018 3.12695 3.06844 0
M  V30 937 C 88.0028 1.65598 4.11208 0
M  V30 938 H 85.2228 0.386504 0.548503 0
M  V30 939 H 87.7668 1.64156 1.21955 0
M  V30 940 H 85.9218 1.24009 3.67016 0
M  V30 941 H 86.3358 3.43412 3.96445 0
M  V30 942 H 87.8098 2.1437 5.08674 0
M  V30 943 H 88.2868 0.616532 4.34851 0
M  V30 944 H 88.8928 2.14578 3.67201 0
M  V30 945 N 87.2079 -1.17134 1.05439 0
M  V30 946 C 88.6189 -1.69084 0.791676 0
M  V30 947 C 88.9699 -1.83822 -0.685839 0
M  V30 948 O 88.0949 -1.52757 -1.53278 0
M  V30 949 C 88.6899 -3.07119 1.4305 0
M  V30 950 C 87.2489 -3.56225 1.21577 0
M  V30 951 C 86.3959 -2.32421 1.51247 0
M  V30 952 H 89.3469 -1.01617 1.219 0
M  V30 953 H 89.3679 -3.71087 0.84112 0
M  V30 954 H 88.8799 -2.9636 2.50584 0
M  V30 955 H 86.9809 -3.72257 0.159787 0
M  V30 956 H 87.0939 -4.38837 1.92246 0
M  V30 957 H 85.4579 -2.3701 0.932653 0
M  V30 958 H 86.2409 -2.24268 2.5992 0
M  V30 959 N 88.686 -0.835752 -1.33615 0
M  V30 960 C 89.633 -0.26473 -2.29277 0
M  V30 961 C 90.603 0.617712 -1.54187 0
M  V30 962 O 91.788 0.556641 -1.825 0
M  V30 963 C 88.928 0.556777 -3.40579 0
M  V30 964 C 88.041 -0.349339 -4.30585 0
M  V30 965 C 87.176 0.482969 -5.29 0
M  V30 966 C 86.215 -0.421732 -6.10645 0
M  V30 967 N 85.352 0.372262 -7.01112 0
M  V30 968 H 90.192 -1.08582 -2.77514 0
M  V30 969 H 87.729 -0.546927 -1.36554 0
M  V30 970 H 89.687 1.04852 -4.03809 0
M  V30 971 H 88.317 1.34286 -2.93542 0
M  V30 972 H 87.369 -0.959372 -3.68104 0
M  V30 973 H 88.681 -1.04445 -4.87742 0
M  V30 974 H 87.835 1.03866 -5.97743 0
M  V30 975 H 86.574 1.21153 -4.72412 0
M  V30 976 H 85.579 -0.989464 -5.40823 0
M  V30 977 H 86.804 -1.14861 -6.69316 0
M  V30 978 H 84.75 1.08426 -6.46977 0
M  V30 979 H 84.667 -0.264198 -7.55538 0
M  V30 980 H 85.935 0.910293 -7.74167 0
M  V30 981 N 90.1641 1.46063 -0.591896 0
M  V30 982 C 91.3891 2.07226 -0.0850314 0
M  V30 983 C 91.8141 1.43625 1.21463 0
M  V30 984 O 91.1721 0.523305 1.73583 0
M  V30 985 C 91.2201 3.60554 0.0576567 0
M  V30 986 O 90.3241 3.97128 1.11188 0
M  V30 987 H 89.6651 0.660615 -0.0669568 0
M  V30 988 H 92.1951 1.8756 -0.81745 0
M  V30 989 H 92.2051 4.07165 0.2609 0
M  V30 990 H 90.8801 4.06235 -0.891416 0
M  V30 991 H 89.4571 3.62213 0.886356 0
M  V30 992 N 91.6422 0.330177 1.54103 0
M  V30 993 C 92.8822 -0.270916 2.02597 0
M  V30 994 C 93.2462 -1.48826 1.21304 0
M  V30 995 O 94.4472 -2.16266 1.59633 0
M  V30 996 C 92.7182 -0.590328 3.52491 0
M  V30 997 S 94.2772 -1.17014 4.2291 0
M  V30 998 H 91.0952 -0.0815379 0.706309 0
M  V30 999 H 93.6972 0.464835 1.89893 0
M  V30 1000 H 92.4012 0.303691 4.09275 0
M  V30 1001 H 91.9322 -1.3561 3.69288 0
M  V30 1002 H 93.9472 -2.45662 4.3112 0
M  V30 1003 N 93.1203 -1.57491 0.0584922 0
M  V30 1004 C 94.3453 -1.97711 -0.62652 0
M  V30 1005 C 94.7703 -0.936132 -1.63151 0
M  V30 1006 O 94.1283 0.099811 -1.81025 0
M  V30 1007 C 94.1763 -3.36989 -1.28338 0
M  V30 1008 O 93.2803 -3.35433 -2.39913 0
M  V30 1009 H 92.6213 -0.643868 -0.162266 0
M  V30 1010 H 95.1513 -2.04193 0.129064 0
M  V30 1011 H 95.1613 -3.73879 -1.63335 0
M  V30 1012 H 93.8363 -4.12289 -0.546889 0
M  V30 1013 H 92.4133 -3.10298 -2.06809 0
M  V30 1014 N 94.5984 0.214957 -1.56127 0
M  V30 1015 C 95.5084 1.28727 -1.96129 0
M  V30 1016 C 96.5244 1.50916 -0.866044 0
M  V30 1017 O 97.7004 1.63918 -1.17016 0
M  V30 1018 C 94.7654 2.61569 -2.27558 0
M  V30 1019 C 93.8264 2.47625 -3.50685 0
M  V30 1020 C 93.0594 3.74132 -3.80606 0
M  V30 1021 O 93.2824 4.77438 -3.12104 0
M  V30 1022 O 92.2164 3.70849 -4.74083 0
M  V30 1023 H 96.0424 0.977855 -2.87527 0
M  V30 1024 H 93.6274 0.418358 -1.43423 0
M  V30 1025 H 95.5094 3.40012 -2.48938 0
M  V30 1026 H 94.1844 2.92178 -1.39332 0
M  V30 1027 H 93.0914 1.67361 -3.34576 0
M  V30 1028 H 94.4244 2.21954 -4.39315 0
M  V30 1029 N 96.0765 1.50051 0.48192 0
M  V30 1030 C 97.3225 1.60736 1.2366 0
M  V30 1031 C 97.6555 0.301786 1.91841 0
M  V30 1032 O 96.9305 -0.696025 1.8162 0
M  V30 1033 C 97.2135 2.78009 2.28874 0
M  V30 1034 C 97.0665 4.18416 1.65069 0
M  V30 1035 C 98.3855 2.90867 3.30279 0
M  V30 1036 H 95.5045 0.585031 0.448228 0
M  V30 1037 H 98.1465 1.82402 0.531946 0
M  V30 1038 H 96.2965 2.59667 2.88973 0
M  V30 1039 H 97.9685 4.48322 1.0865 0
M  V30 1040 H 96.2115 4.23177 0.954148 0
M  V30 1041 H 96.8825 4.96381 2.41474 0
M  V30 1042 H 99.3585 3.07623 2.80191 0
M  V30 1043 H 98.2345 3.74566 4.01238 0
M  V30 1044 H 98.4955 2.01021 3.93755 0
M  V30 1045 N 97.5546 -0.734337 1.39446 0
M  V30 1046 C 98.5176 -1.83004 1.37994 0
M  V30 1047 C 99.5176 -1.58397 0.276938 0
M  V30 1048 O 100.708 -1.65785 0.534875 0
M  V30 1049 C 97.8396 -3.20802 1.1532 0
M  V30 1050 H 99.0326 -1.85694 2.35494 0
M  V30 1051 H 96.5856 -0.938059 1.25021 0
M  V30 1052 H 97.3206 -3.23772 0.185036 0
M  V30 1053 H 97.1056 -3.4006 1.95197 0
M  V30 1054 H 98.5956 -4.00862 1.17046 0
M  V30 1055 N 99.0327 -1.24633 -0.964593 0
M  V30 1056 C 100.281 -1.08573 -1.70459 0
M  V30 1057 C 100.602 0.375655 -1.91347 0
M  V30 1058 O 99.8717 1.26779 -1.49345 0
M  V30 1059 H 98.4517 -0.398784 -0.631649 0
M  V30 1060 H 101.114 -1.56601 -1.16026 0
M  V30 1061 H 100.21 -1.58623 -2.68785 0
M  V30 1062 N 100.511 1.16574 -1.06058 0
M  V30 1063 C 101.751 1.88723 -0.78504 0
M  V30 1064 C 102.115 1.79706 0.676006 0
M  V30 1065 O 103.316 2.46757 1.06603 0
M  V30 1066 C 101.587 3.34338 -1.26304 0
M  V30 1067 S 103.146 4.24366 -1.1162 0
M  V30 1068 H 99.9638 0.651448 -0.284846 0
M  V30 1069 H 102.566 1.40732 -1.35701 0
M  V30 1070 H 101.27 3.38439 -2.32136 0
M  V30 1071 H 100.801 3.87378 -0.685719 0
M  V30 1072 H 102.816 4.96179 -0.0456539 0
M  V30 1073 N 101.989 0.842826 1.3317 0
M  V30 1074 C 102.936 0.276885 2.29133 0
M  V30 1075 C 103.906 -0.609527 1.54512 0
M  V30 1076 O 105.091 -0.546955 1.82792 0
M  V30 1077 C 102.231 -0.538707 3.40869 0
M  V30 1078 C 101.344 0.372169 4.30394 0
M  V30 1079 C 100.479 -0.454908 5.29249 0
M  V30 1080 C 99.5179 0.45411 6.10413 0
M  V30 1081 N 98.6549 -0.335075 7.013 0
M  V30 1082 H 103.495 1.10052 2.76934 0
M  V30 1083 H 101.032 0.554161 1.36262 0
M  V30 1084 H 102.99 -1.02709 4.0436 0
M  V30 1085 H 101.62 -1.32727 2.9425 0
M  V30 1086 H 100.672 0.97888 3.6759 0
M  V30 1087 H 101.984 1.0703 4.87182 0
M  V30 1088 H 101.138 -1.00695 5.98285 0
M  V30 1089 H 99.8769 -1.18646 4.73048 0
M  V30 1090 H 98.8819 1.01813 5.40291 0
M  V30 1091 H 100.107 1.18409 6.68697 0
M  V30 1092 H 98.0529 -1.04994 6.47543 0
M  V30 1093 H 97.9699 0.304262 7.55387 0
M  V30 1094 H 99.2379 -0.869224 7.74638 0
M  V30 1095 N 103.467 -1.45747 0.599634 0
M  V30 1096 C 104.43 -2.28917 -0.113835 0
M  V30 1097 C 105.43 -1.3933 -0.802729 0
M  V30 1098 O 106.62 -1.61534 -0.652103 0
M  V30 1099 C 103.752 -3.20152 -1.17114 0
M  V30 1100 H 104.945 -2.93478 0.617289 0
M  V30 1101 H 102.498 -1.52137 0.358327 0
M  V30 1102 H 103.233 -2.60374 -1.93329 0
M  V30 1103 H 103.018 -3.86133 -0.681468 0
M  V30 1104 H 104.508 -3.82708 -1.67105 0
M  V30 1105 N 104.945 -0.338344 -1.53925 0
M  V30 1106 C 105.908 0.508299 -2.23493 0
M  V30 1107 C 106.908 1.03175 -1.23335 0
M  V30 1108 O 108.098 0.921826 -1.47811 0
M  V30 1109 C 105.23 1.70754 -2.95052 0
M  V30 1110 H 106.423 -0.100058 -2.99733 0
M  V30 1111 H 103.976 -0.0896198 -1.56043 0
M  V30 1112 H 104.711 2.35474 -2.22986 0
M  V30 1113 H 104.496 1.33946 -3.68512 0
M  V30 1114 H 105.986 2.30818 -3.48013 0
M  V30 1115 N 106.423 1.57458 -0.0668435 0
M  V30 1116 C 107.356 2.08033 0.93795 0
M  V30 1117 C 108.334 0.984321 1.29421 0
M  V30 1118 O 109.518 1.25736 1.40437 0
M  V30 1119 C 106.645 2.53388 2.24749 0
M  V30 1120 C 105.691 3.74376 2.04315 0
M  V30 1121 S 106.524 5.19303 1.30706 0
M  V30 1122 C 107.68 5.67986 2.62951 0
M  V30 1123 H 107.913 2.92935 0.50759 0
M  V30 1124 H 105.446 1.5371 0.145804 0
M  V30 1125 H 107.404 2.8018 3.00016 0
M  V30 1126 H 106.065 1.68763 2.64911 0
M  V30 1127 H 105.258 4.04083 3.01218 0
M  V30 1128 H 104.86 3.47931 1.37186 0
M  V30 1129 H 107.152 5.74528 3.5906 0
M  V30 1130 H 108.095 6.66955 2.3786 0
M  V30 1131 H 108.503 4.95781 2.69929 0
M  V30 1132 N 107.901 -0.206675 1.56239 0
M  V30 1133 C 109.317 -0.557025 1.49564 0
M  V30 1134 C 109.517 -1.86424 0.764735 0
M  V30 1135 O 108.573 -2.50584 0.310491 0
M  V30 1136 C 109.886 -0.622478 2.94186 0
M  V30 1137 C 111.434 -0.712099 3.04792 0
M  V30 1138 C 111.909 -0.808767 4.50803 0
M  V30 1139 N 113.4 -0.8726 4.54907 0
M  V30 1140 C 114.135 -0.967365 5.65181 0
M  V30 1141 N 113.631 -1.02515 6.85173 0
M  V30 1142 N 115.424 -1.00366 5.53067 0
M  V30 1143 H 107.575 0.650943 2.02179 0
M  V30 1144 H 109.838 0.230387 0.919579 0
M  V30 1145 H 109.544 0.268727 3.50672 0
M  V30 1146 H 109.418 -1.4811 3.46905 0
M  V30 1147 H 111.805 -1.59374 2.48363 0
M  V30 1148 H 111.886 0.172489 2.55218 0
M  V30 1149 H 111.53 0.0684754 5.07854 0
M  V30 1150 H 111.46 -1.70899 4.98098 0
M  V30 1151 H 113.951 -0.837657 3.68499 0
M  V30 1152 H 114.264 -1.09765 7.64965 0
M  V30 1153 H 112.609 -0.994026 6.87855 0
M  V30 1154 H 115.8 -0.95527 4.58249 0
M  V30 1155 H 115.973 -1.07405 6.39037 0
M  V30 1156 N 109.379 -1.50304 -0.473955 0
M  V30 1157 C 110.329 -1.65347 -1.56985 0
M  V30 1158 C 111.313 -0.508176 -1.52664 0
M  V30 1159 O 112.505 -0.762446 -1.59737 0
M  V30 1160 C 109.634 -1.74832 -2.95447 0
M  V30 1161 C 108.72 -2.95028 -3.04662 0
M  V30 1162 N 109.111 -4.18747 -2.83698 0
M  V30 1163 C 107.409 -2.93527 -3.35795 0
M  V30 1164 C 108.11 -4.99687 -2.97805 0
M  V30 1165 N 107.086 -4.33585 -3.2788 0
M  V30 1166 H 110.888 -2.58698 -1.39472 0
M  V30 1167 H 108.402 -1.47449 -0.680629 0
M  V30 1168 H 110.399 -1.83712 -3.7424 0
M  V30 1169 H 109.059 -0.826376 -3.14008 0
M  V30 1170 H 110.07 -4.48291 -2.59337 0
M  V30 1171 H 106.747 -2.10821 -3.60362 0
M  V30 1172 H 108.137 -6.08057 -2.85861 0
M  V30 1173 N 110.857 0.726932 -1.39834 0
M  V30 1174 C 111.789 1.85147 -1.35104 0
M  V30 1175 C 112.802 1.60736 -0.258392 0
M  V30 1176 O 113.991 1.70821 -0.517931 0
M  V30 1177 C 111.091 3.21332 -1.07697 0
M  V30 1178 C 110.264 3.73033 -2.28396 0
M  V30 1179 C 109.323 4.87802 -1.97322 0
M  V30 1180 O 108.349 5.01043 -2.70083 0
M  V30 1181 N 109.551 5.72768 -0.944273 0
M  V30 1182 H 112.316 1.89706 -2.32017 0
M  V30 1183 H 109.877 0.908006 -1.3404 0
M  V30 1184 H 111.869 3.95691 -0.849144 0
M  V30 1185 H 110.439 3.11992 -0.194909 0
M  V30 1186 H 109.659 2.89934 -2.6708 0
M  V30 1187 H 110.947 4.0431 -3.08887 0
M  V30 1188 H 110.345 5.64669 -0.341427 0
M  V30 1189 H 108.902 6.4716 -0.776346 0
M  V30 1190 N 112.336 1.25143 0.95797 0
M  V30 1191 C 113.584 1.09476 1.69881 0
M  V30 1192 C 113.905 -0.365502 1.91544 0
M  V30 1193 O 113.175 -1.25985 1.50015 0
M  V30 1194 H 111.755 0.402128 0.629525 0
M  V30 1195 H 114.417 1.57214 1.15194 0
M  V30 1196 H 113.513 1.60046 2.6794 0
M  V30 1197 N 113.814 -1.1601 1.06675 0
M  V30 1198 C 114.761 -2.20525 0.680967 0
M  V30 1199 C 115.731 -1.62904 -0.324283 0
M  V30 1200 O 116.916 -1.89615 -0.212294 0
M  V30 1201 C 114.056 -3.45013 0.0776551 0
M  V30 1202 C 113.169 -4.16863 1.13355 0
M  V30 1203 C 112.304 -5.2888 0.49597 0
M  V30 1204 C 111.343 -5.92537 1.53513 0
M  V30 1205 N 110.48 -6.96038 0.920631 0
M  V30 1206 H 115.32 -2.52876 1.57663 0
M  V30 1207 H 112.857 -1.24199 0.788223 0
M  V30 1208 H 114.815 -4.16193 -0.289704 0
M  V30 1209 H 113.445 -3.132 -0.781393 0
M  V30 1210 H 112.497 -3.44248 1.61857 0
M  V30 1211 H 113.809 -4.60294 1.92174 0
M  V30 1212 H 112.963 -6.06653 0.0758604 0
M  V30 1213 H 111.702 -4.86622 -0.324062 0
M  V30 1214 H 110.707 -5.13482 1.9651 0
M  V30 1215 H 111.932 -6.36873 2.35733 0
M  V30 1216 H 109.878 -6.55888 0.12138 0
M  V30 1217 H 109.795 -7.3786 1.64616 0
M  V30 1218 H 111.063 -7.77725 0.525795 0
M  V30 1219 N 115.292 -0.849877 -1.32721 0
M  V30 1220 C 116.541 -0.447175 -1.96681 0
M  V30 1221 C 116.854 1.00135 -1.68025 0
M  V30 1222 O 118.06 1.50926 -2.25685 0
M  V30 1223 C 116.516 -0.7487 -3.52026 0
M  V30 1224 C 116.124 -2.21264 -3.89546 0
M  V30 1225 C 117.868 -0.413487 -4.22481 0
M  V30 1226 C 115.775 -2.45763 -5.37917 0
M  V30 1227 H 114.705 -0.163486 -0.736063 0
M  V30 1228 H 117.356 -1.03999 -1.51183 0
M  V30 1229 H 115.738 -0.0853727 -3.95908 0
M  V30 1230 H 116.912 -2.91736 -3.56689 0
M  V30 1231 H 115.227 -2.5119 -3.32103 0
M  V30 1232 H 117.824 -0.574017 -5.3161 0
M  V30 1233 H 118.167 0.644492 -4.11281 0
M  V30 1234 H 118.7 -1.03251 -3.84167 0
M  V30 1235 H 115.439 -3.50168 -5.54132 0
M  V30 1236 H 114.959 -1.79864 -5.72197 0
M  V30 1237 H 116.638 -2.29471 -6.0494 0
M  V30 1238 N 116.77 1.45427 -0.607355 0
M  V30 1239 C 118.181 1.85756 -0.187535 0
M  V30 1240 C 118.532 1.5077 1.25551 0
M  V30 1241 O 117.657 0.93427 1.95193 0
M  V30 1242 C 118.252 3.37154 -0.333572 0
M  V30 1243 C 116.811 3.76387 0.0315542 0
M  V30 1244 C 115.958 2.69377 -0.658117 0
M  V30 1245 H 118.909 1.36231 -0.81405 0
M  V30 1246 H 118.93 3.78014 0.43428 0
M  V30 1247 H 118.442 3.62586 -1.38393 0
M  V30 1248 H 116.543 3.56571 1.0811 0
M  V30 1249 H 116.656 4.77731 -0.361935 0
M  V30 1250 H 115.02 2.5452 -0.0957873 0
M  V30 1251 H 115.803 2.97646 -1.7106 0
M  V30 1252 N 118.248 0.346503 1.53744 0
M  V30 1253 C 119.158 -0.517293 2.28826 0
M  V30 1254 C 120.174 -1.10935 1.3405 0
M  V30 1255 O 121.35 -1.1244 1.6709 0
M  V30 1256 C 118.415 -1.65098 3.04866 0
M  V30 1257 C 117.476 -1.0884 4.15274 0
M  V30 1258 C 116.709 -2.16806 4.87679 0
M  V30 1259 O 116.932 -3.3758 4.59778 0
M  V30 1260 O 115.866 -1.80934 5.74061 0
M  V30 1261 H 119.692 0.0931396 3.03557 0
M  V30 1262 H 117.277 0.111458 1.48984 0
M  V30 1263 H 119.159 -2.31053 3.5241 0
M  V30 1264 H 117.834 -2.24717 2.32989 0
M  V30 1265 H 116.741 -0.3933 3.72027 0
M  V30 1266 H 118.074 -0.537036 4.89261 0
M  V30 1267 N 119.726 -1.57421 0.075193 0
M  V30 1268 C 120.636 -2.1642 -0.905511 0
M  V30 1269 C 121.652 -1.12828 -1.32461 0
M  V30 1270 O 122.828 -1.45109 -1.39661 0
M  V30 1271 C 119.893 -2.71693 -2.15369 0
M  V30 1272 C 118.954 -3.90171 -1.79068 0
M  V30 1273 C 118.187 -4.42798 -2.97936 0
M  V30 1274 O 118.41 -3.94416 -4.12058 0
M  V30 1275 O 117.344 -5.34085 -2.77555 0
M  V30 1276 H 121.17 -3.00588 -0.433626 0
M  V30 1277 H 118.755 -1.48664 -0.148067 0
M  V30 1278 H 120.637 -3.07104 -2.88557 0
M  V30 1279 H 119.312 -1.90582 -2.61649 0
M  V30 1280 H 118.219 -3.59606 -1.03122 0
M  V30 1281 H 119.552 -4.72584 -1.37569 0
M  V30 1282 N 121.204 0.198386 -1.56346 0
M  V30 1283 C 122.134 1.24865 -1.9731 0
M  V30 1284 C 123.115 1.47651 -0.844576 0
M  V30 1285 O 124.3 1.59444 -1.10866 0
M  V30 1286 C 121.43 2.59358 -2.30977 0
M  V30 1287 C 120.384 2.5119 -3.46537 0
M  V30 1288 C 119.71 3.89926 -3.65871 0
M  V30 1289 C 121.01 2.03977 -4.80823 0
M  V30 1290 H 122.704 0.908252 -2.85291 0
M  V30 1291 H 120.25 0.435462 -1.37258 0
M  V30 1292 H 122.203 3.33011 -2.58228 0
M  V30 1293 H 120.927 2.95132 -1.39874 0
M  V30 1294 H 119.586 1.79993 -3.19371 0
M  V30 1295 H 119.234 4.23046 -2.72105 0
M  V30 1296 H 118.934 3.85336 -4.4361 0
M  V30 1297 H 120.458 4.65205 -3.95495 0
M  V30 1298 H 121.872 2.67386 -5.07127 0
M  V30 1299 H 120.269 2.10397 -5.62008 0
M  V30 1300 H 121.339 0.992861 -4.74626 0
M  V30 1301 N 122.682 1.50554 0.465978 0
M  V30 1302 C 123.907 1.65838 1.24549 0
M  V30 1303 C 124.332 0.343486 1.84937 0
M  V30 1304 O 123.69 -0.69324 1.67523 0
M  V30 1305 C 123.738 2.75533 2.32624 0
M  V30 1306 O 122.842 2.37142 3.37398 0
M  V30 1307 H 122.183 0.553893 0.366194 0
M  V30 1308 H 124.713 1.96959 0.553927 0
M  V30 1309 H 124.723 2.98763 2.77857 0
M  V30 1310 H 123.398 3.70962 1.88043 0
M  V30 1311 H 121.975 2.24377 2.97841 0
M  V30 1312 N 124.16 -0.719506 1.40217 0
M  V30 1313 C 125.09 -1.8465 1.42922 0
M  V30 1314 C 126.071 -1.67599 0.29062 0
M  V30 1315 O 127.256 -1.87688 0.498677 0
M  V30 1316 C 124.386 -3.22565 1.28722 0
M  V30 1317 C 123.34 -3.54281 2.40144 0
M  V30 1318 C 122.666 -4.91298 2.11023 0
M  V30 1319 C 123.966 -3.55676 3.82481 0
M  V30 1320 H 125.66 -1.82644 2.37237 0
M  V30 1321 H 123.206 -0.877305 1.1419 0
M  V30 1322 H 125.159 -4.01095 1.29232 0
M  V30 1323 H 123.883 -3.25137 0.308811 0
M  V30 1324 H 122.542 -2.78088 2.38877 0
M  V30 1325 H 122.19 -4.90468 1.11582 0
M  V30 1326 H 121.89 -5.13485 2.8567 0
M  V30 1327 H 123.414 -5.72166 2.13209 0
M  V30 1328 H 124.828 -4.24254 3.85592 0
M  V30 1329 H 123.225 -3.89388 4.56614 0
M  V30 1330 H 124.295 -2.55144 4.12346 0
M  V30 1331 N 125.638 -1.25649 -0.95132 0
M  V30 1332 C 126.915 -1.01361 -1.67288 0
M  V30 1333 C 127.295 0.459135 -2.06046 0
M  V30 1334 O 126.643 1.43723 -1.7764 0
M  V30 1335 C 126.853 -1.95256 -2.89268 0
M  V30 1336 C 128.201 -2.23289 -3.61147 0
M  V30 1337 O 129.225 -1.93041 -2.99355 0
M  V30 1338 O 128.084 -2.74741 -4.72419 0
M  V30 1339 H 125.178 -0.38464 -0.732107 0
M  V30 1340 H 127.724 -1.36817 -1.00395 0
M  V30 1341 H 126.496 -2.94685 -2.57442 0
M  V30 1342 H 126.119 -1.60218 -3.6389 0
M  V30 1343 N 127.117 1.15442 -1.07289 0
M  V30 1344 C 128.394 1.82306 -0.708792 0
M  V30 1345 C 128.774 1.94991 0.808807 0
M  V30 1346 O 128.122 1.50085 1.72298 0
M  V30 1347 C 128.332 3.18695 -1.42247 0
M  V30 1348 C 129.68 3.94341 -1.57417 0
M  V30 1349 O 130.704 3.28247 -1.38319 0
M  V30 1350 O 129.563 5.12839 -1.88834 0
M  V30 1351 H 126.657 0.787628 -0.252132 0
M  V30 1352 H 129.203 1.22559 -1.17377 0
M  V30 1353 H 127.975 3.04557 -2.45684 0
M  V30 1354 H 127.598 3.86128 -0.948223 0
M  V30 1355 N 128.595 0.856903 1.32268 0
M  V30 1356 C 130.011 0.547061 1.49931 0
M  V30 1357 C 130.211 -0.921781 1.7918 0
M  V30 1358 O 129.267 -1.70469 1.8627 0
M  V30 1359 C 130.58 1.43599 2.64196 0
M  V30 1360 C 132.128 1.43665 2.78081 0
M  V30 1361 C 132.603 2.31085 3.95428 0
M  V30 1362 N 134.094 2.28893 4.02694 0
M  V30 1363 C 134.829 2.93262 4.92732 0
M  V30 1364 N 134.325 3.66751 5.87763 0
M  V30 1365 N 136.118 2.82638 4.85873 0
M  V30 1366 H 128.269 1.8075 1.11549 0
M  V30 1367 H 130.532 0.772144 0.549997 0
M  V30 1368 H 130.238 2.48058 2.49319 0
M  V30 1369 H 130.112 1.12502 3.60032 0
M  V30 1370 H 132.499 0.399701 2.92381 0
M  V30 1371 H 132.58 1.7878 1.82952 0
M  V30 1372 H 132.224 3.34849 3.81888 0
M  V30 1373 H 132.154 1.93302 4.89839 0
M  V30 1374 H 134.645 1.75466 3.34694 0
M  V30 1375 H 134.958 4.13027 6.53168 0
M  V30 1376 H 133.303 3.70859 5.87783 0
M  V30 1377 H 136.494 2.24774 4.10602 0
M  V30 1378 H 136.667 3.33084 5.55841 0
M  V30 1379 N 130.073 -1.45103 0.615059 0
M  V30 1380 C 131.036 -2.29025 -0.0895485 0
M  V30 1381 C 132.036 -1.40174 -0.787906 0
M  V30 1382 O 133.226 -1.62217 -0.634933 0
M  V30 1383 C 130.358 -3.21376 -1.13711 0
M  V30 1384 H 131.551 -2.92807 0.648382 0
M  V30 1385 H 129.104 -1.51749 0.374444 0
M  V30 1386 H 129.839 -2.6241 -1.90556 0
M  V30 1387 H 129.624 -3.86834 -0.640475 0
M  V30 1388 H 131.114 -3.84459 -1.63036 0
M  V30 1389 N 131.551 -0.354651 -1.53558 0
M  V30 1390 C 132.967 -0.00315426 -1.596 0
M  V30 1391 C 133.167 1.47741 -1.37021 0
M  V30 1392 O 132.223 2.23759 -1.16996 0
M  V30 1393 C 133.536 -0.44929 -2.97325 0
M  V30 1394 C 135.084 -0.402578 -3.104 0
M  V30 1395 C 135.559 -0.824355 -4.5052 0
M  V30 1396 N 137.05 -0.778979 -4.56603 0
M  V30 1397 C 137.785 -1.07715 -5.63192 0
M  V30 1398 N 137.281 -1.44405 -6.77583 0
M  V30 1399 N 139.074 -1.00066 -5.53121 0
M  V30 1400 H 131.225 -1.31893 -1.66487 0
M  V30 1401 H 133.488 -0.538388 -0.780284 0
M  V30 1402 H 133.194 -1.48202 -3.1895 0
M  V30 1403 H 133.068 0.169772 -3.76818 0
M  V30 1404 H 135.455 0.621004 -2.88492 0
M  V30 1405 H 135.536 -1.05699 -2.32941 0
M  V30 1406 H 135.18 -1.846 -4.73165 0
M  V30 1407 H 135.11 -0.147304 -5.26394 0
M  V30 1408 H 137.601 -0.508528 -3.74463 0
M  V30 1409 H 137.914 -1.65612 -7.54846 0
M  V30 1410 H 136.259 -1.4826 -6.79002 0
M  V30 1411 H 139.45 -0.713293 -4.62633 0
M  V30 1412 H 139.623 -1.23638 -6.36096 0
M  V30 1413 N 133.029 1.57378 -0.0835403 0
M  V30 1414 C 134.257 1.98263 0.59157 0
M  V30 1415 C 134.672 0.962302 1.62435 0
M  V30 1416 O 134.029 -0.049581 1.82433 0
M  V30 1417 C 134.08 3.39214 1.24965 0
M  V30 1418 O 133.801 4.37339 0.258186 0
M  V30 1419 C 135.302 3.95038 2.01147 0
M  V30 1420 H 132.522 0.651773 0.159477 0
M  V30 1421 H 135.066 2.03878 -0.159415 0
M  V30 1422 H 133.221 3.34649 1.95164 0
M  V30 1423 H 133.635 5.19371 0.731734 0
M  V30 1424 H 135.109 4.95848 2.42567 0
M  V30 1425 H 135.586 3.32222 2.87272 0
M  V30 1426 H 136.192 4.0304 1.35789 0
M  V30 1427 N 134.507 -0.190092 1.56449 0
M  V30 1428 C 135.439 -1.25973 1.91477 0
M  V30 1429 C 136.452 -1.41452 0.805931 0
M  V30 1430 O 137.641 -1.41789 1.08435 0
M  V30 1431 C 134.741 -2.63117 2.13594 0
M  V30 1432 C 133.914 -2.69182 3.4476 0
M  V30 1433 C 132.973 -3.87557 3.5593 0
M  V30 1434 O 131.999 -3.74427 4.28711 0
M  V30 1435 N 133.201 -5.03224 2.89388 0
M  V30 1436 H 135.966 -0.962394 2.83828 0
M  V30 1437 H 133.527 -0.379981 1.57378 0
M  V30 1438 H 135.519 -3.40742 2.1835 0
M  V30 1439 H 134.089 -2.85319 1.27719 0
M  V30 1440 H 133.309 -1.77793 3.51828 0
M  V30 1441 H 134.597 -2.70229 4.31107 0
M  V30 1442 H 133.995 -5.16791 2.30094 0
M  V30 1443 H 132.552 -5.78778 2.99764 0
M  V30 1444 N 135.985 -1.50799 -0.457987 0
M  V30 1445 C 136.932 -1.70617 -1.5543 0
M  V30 1446 C 137.902 -0.547562 -1.56815 0
M  V30 1447 O 139.087 -0.779647 -1.74144 0
M  V30 1448 C 136.227 -1.81831 -2.93311 0
M  V30 1449 C 135.34 -3.09278 -3.01615 0
M  V30 1450 C 134.475 -3.11209 -4.30491 0
M  V30 1451 C 133.514 -4.33055 -4.32585 0
M  V30 1452 N 132.651 -4.32652 -5.52952 0
M  V30 1453 H 137.491 -2.64207 -1.37836 0
M  V30 1454 H 135.028 -1.30959 -0.669937 0
M  V30 1455 H 136.986 -1.86314 -3.73287 0
M  V30 1456 H 135.616 -0.916685 -3.0951 0
M  V30 1457 H 134.668 -3.14203 -2.1443 0
M  V30 1458 H 135.98 -3.99233 -2.99022 0
M  V30 1459 H 135.134 -3.14494 -5.18824 0
M  V30 1460 H 133.873 -2.19106 -4.35711 0
M  V30 1461 H 132.878 -4.29969 -3.42647 0
M  V30 1462 H 134.103 -5.264 -4.29046 0
M  V30 1463 H 132.049 -3.43409 -5.58933 0
M  V30 1464 H 131.966 -5.16392 -5.52155 0
M  V30 1465 H 133.234 -4.40101 -6.43375 0
M  V30 1466 N 137.463 0.71206 -1.40597 0
M  V30 1467 C 138.41 1.82613 -1.41142 0
M  V30 1468 C 139.38 1.63925 -0.267903 0
M  V30 1469 O 140.565 1.85009 -0.466495 0
M  V30 1470 C 137.705 3.20354 -1.28324 0
M  V30 1471 C 136.818 3.50589 -2.52411 0
M  V30 1472 C 135.953 4.77855 -2.32009 0
M  V30 1473 C 134.992 5.01005 -3.51654 0
M  V30 1474 N 134.129 6.19487 -3.30425 0
M  V30 1475 H 138.969 1.81482 -2.36365 0
M  V30 1476 H 136.506 0.886475 -1.17388 0
M  V30 1477 H 138.464 3.99899 -1.18899 0
M  V30 1478 H 137.094 3.20705 -0.367189 0
M  V30 1479 H 136.146 2.65573 -2.72351 0
M  V30 1480 H 137.458 3.63604 -3.41458 0
M  V30 1481 H 136.612 5.65424 -2.19956 0
M  V30 1482 H 135.351 4.67056 -1.40392 0
M  V30 1483 H 134.356 4.1189 -3.64179 0
M  V30 1484 H 135.581 5.13674 -4.44202 0
M  V30 1485 H 133.527 6.09932 -2.41494 0
M  V30 1486 H 133.444 6.33194 -4.13039 0
M  V30 1487 H 134.712 7.09834 -3.22113 0
M  V30 1488 N 138.941 1.26152 0.944643 0
M  V30 1489 C 140.187 1.12665 1.69346 0
M  V30 1490 C 140.542 -0.3273 1.89596 0
M  V30 1491 O 139.835 -1.23717 1.46303 0
M  V30 1492 C 140.029 1.82541 3.07268 0
M  V30 1493 C 139.858 3.34582 3.00475 0
M  V30 1494 C 138.628 4.03863 3.03681 0
M  V30 1495 C 140.826 4.30828 2.80877 0
M  V30 1496 N 138.808 5.42603 2.87151 0
M  V30 1497 C 140.179 5.5672 2.7288 0
M  V30 1498 C 142.234 4.21122 2.65633 0
M  V30 1499 C 140.937 6.74013 2.51196 0
M  V30 1500 C 142.963 5.38118 2.45323 0
M  V30 1501 C 142.325 6.62955 2.38055 0
M  V30 1502 H 138.424 0.467041 0.627214 0
M  V30 1503 H 141.008 1.59391 1.11815 0
M  V30 1504 H 139.179 1.38296 3.62945 0
M  V30 1505 H 140.911 1.61708 3.70989 0
M  V30 1506 H 137.666 3.55198 3.1326 0
M  V30 1507 H 138.09 6.15443 2.82063 0
M  V30 1508 H 142.732 3.25344 2.70021 0
M  V30 1509 H 140.45 7.6989 2.4555 0
M  V30 1510 H 144.036 5.32475 2.34439 0
M  V30 1511 H 142.916 7.51959 2.22546 0
M  V30 1512 N 140.419 -1.14872 1.07899 0
M  V30 1513 C 141.667 -1.85422 0.803941 0
M  V30 1514 C 141.988 -1.83051 -0.67211 0
M  V30 1515 O 141.258 -1.27532 -1.48703 0
M  V30 1516 H 139.838 -0.686537 0.294408 0
M  V30 1517 H 142.5 -1.39226 1.3639 0
M  V30 1518 H 141.596 -2.90399 1.14346 0
M  V30 1519 N 141.898 -0.863906 -1.31812 0
M  V30 1520 C 143.314 -0.555004 -1.49639 0
M  V30 1521 C 143.514 0.912266 -1.79666 0
M  V30 1522 O 142.57 1.69479 -1.87171 0
M  V30 1523 C 143.883 -1.44998 -2.63431 0
M  V30 1524 C 145.431 -1.45138 -2.77316 0
M  V30 1525 C 145.906 -2.33179 -3.94197 0
M  V30 1526 N 147.397 -2.31025 -4.01474 0
M  V30 1527 C 148.132 -2.95871 -4.9117 0
M  V30 1528 N 147.628 -3.69863 -5.8581 0
M  V30 1529 N 149.421 -2.85211 -4.84367 0
M  V30 1530 H 141.572 -1.81339 -1.10589 0
M  V30 1531 H 143.835 -0.77505 -0.545895 0
M  V30 1532 H 143.541 -2.49377 -2.48 0
M  V30 1533 H 143.415 -1.14409 -3.59431 0
M  V30 1534 H 145.802 -0.415201 -2.92164 0
M  V30 1535 H 145.883 -1.79747 -1.82001 0
M  V30 1536 H 145.527 -3.3687 -3.80107 0
M  V30 1537 H 145.457 -1.95897 -4.88807 0
M  V30 1538 H 147.948 -1.77238 -3.33759 0
M  V30 1539 H 148.261 -4.16486 -6.50968 0
M  V30 1540 H 146.606 -3.73971 -5.85808 0
M  V30 1541 H 149.797 -2.26948 -4.09405 0
M  V30 1542 H 149.97 -3.36027 -5.54066 0
M  V30 1543 N 143.376 1.44774 -0.622745 0
M  V30 1544 C 144.624 2.01721 -0.123655 0
M  V30 1545 C 144.945 1.49172 1.25589 0
M  V30 1546 O 144.215 0.691974 1.83272 0
M  V30 1547 H 142.795 0.745777 -0.0427225 0
M  V30 1548 H 145.457 1.77382 -0.807559 0
M  V30 1549 H 144.553 3.11984 -0.0849534 0
M  V30 1550 N 144.854 0.36279 1.53368 0
M  V30 1551 C 145.801 -0.485008 2.25646 0
M  V30 1552 C 146.771 -1.07982 1.2621 0
M  V30 1553 O 147.956 -1.11284 1.54986 0
M  V30 1554 C 145.096 -1.62023 3.04701 0
M  V30 1555 C 144.209 -1.05086 4.19024 0
M  V30 1556 C 143.344 -2.15496 4.85525 0
M  V30 1557 C 142.383 -1.5601 5.91884 0
M  V30 1558 N 141.52 -2.60241 6.52088 0
M  V30 1559 H 146.36 0.137864 2.97681 0
M  V30 1560 H 143.897 0.0798061 1.46883 0
M  V30 1561 H 145.855 -2.28887 3.48807 0
M  V30 1562 H 144.485 -2.2138 2.34927 0
M  V30 1563 H 143.537 -0.27259 3.79422 0
M  V30 1564 H 144.849 -0.575926 4.95464 0
M  V30 1565 H 144.003 -2.90186 5.32801 0
M  V30 1566 H 142.742 -2.66341 4.08551 0
M  V30 1567 H 141.747 -0.798338 5.43973 0
M  V30 1568 H 142.972 -1.05994 6.70777 0
M  V30 1569 H 140.918 -3.10304 5.77968 0
M  V30 1570 H 140.835 -2.17426 7.24059 0
M  V30 1571 H 142.103 -3.34641 7.04014 0
M  V30 1572 N 146.332 -1.57332 0.0918853 0
M  V30 1573 C 147.578 -1.95328 -0.567313 0
M  V30 1574 C 147.933 -0.972866 -1.65991 0
M  V30 1575 O 147.226 0.00166256 -1.916 0
M  V30 1576 C 147.42 -3.37689 -1.17051 0
M  V30 1577 C 147.249 -4.49489 -0.137875 0
M  V30 1578 C 146.019 -5.04498 0.284515 0
M  V30 1579 C 148.217 -5.10393 0.63271 0
M  V30 1580 N 146.199 -5.99853 1.30576 0
M  V30 1581 C 147.57 -6.01435 1.50587 0
M  V30 1582 C 149.625 -4.93143 0.68658 0
M  V30 1583 C 148.328 -6.77077 2.42815 0
M  V30 1584 C 150.354 -5.69445 1.59645 0
M  V30 1585 C 149.716 -6.60151 2.45725 0
M  V30 1586 H 145.815 -0.761467 -0.178023 0
M  V30 1587 H 148.399 -1.93924 0.173706 0
M  V30 1588 H 146.57 -3.39793 -1.88136 0
M  V30 1589 H 148.302 -3.62872 -1.79181 0
M  V30 1590 H 145.057 -4.73489 -0.102593 0
M  V30 1591 H 145.481 -6.52231 1.81449 0
M  V30 1592 H 150.123 -4.22785 0.035244 0
M  V30 1593 H 147.841 -7.46699 3.08975 0
M  V30 1594 H 151.427 -5.58112 1.64323 0
M  V30 1595 H 150.307 -7.18159 3.14987 0
M  V30 1596 N 147.81 0.181792 -1.56548 0
M  V30 1597 C 148.72 1.24538 -1.98815 0
M  V30 1598 C 149.736 1.49045 -0.897861 0
M  V30 1599 O 150.912 1.61399 -1.20467 0
M  V30 1600 C 147.977 2.56683 -2.33055 0
M  V30 1601 C 147.038 2.40131 -3.55859 0
M  V30 1602 C 146.271 3.65975 -3.88456 0
M  V30 1603 O 146.494 4.70711 -3.22161 0
M  V30 1604 O 145.428 3.6071 -4.81842 0
M  V30 1605 H 149.254 0.916647 -2.89536 0
M  V30 1606 H 146.839 0.387842 -1.44278 0
M  V30 1607 H 148.721 3.34655 -2.56094 0
M  V30 1608 H 147.396 2.89157 -1.45498 0
M  V30 1609 H 146.303 1.60226 -3.38051 0
M  V30 1610 H 147.636 2.12585 -4.43924 0
M  V30 1611 N 149.288 1.51039 0.449983 0
M  V30 1612 C 150.699 1.557 1.03026 0
M  V30 1613 C 151.05 0.372939 1.92623 0
M  V30 1614 O 150.175 -0.511771 2.10261 0
M  V30 1615 C 150.77 2.82171 1.87523 0
M  V30 1616 C 149.329 2.89444 2.40622 0
M  V30 1617 C 148.476 2.50228 1.19504 0
M  V30 1618 H 151.427 1.56999 0.231745 0
M  V30 1619 H 151.448 2.65219 2.72835 0
M  V30 1620 H 150.96 3.68331 1.22286 0
M  V30 1621 H 149.061 2.07685 3.0935 0
M  V30 1622 H 149.174 3.92816 2.74285 0
M  V30 1623 H 147.538 2.03139 1.53644 0
M  V30 1624 H 148.321 3.38719 0.558972 0
M  V30 1625 N 150.766 -0.704594 1.40972 0
M  V30 1626 C 151.676 -1.84856 1.44448 0
M  V30 1627 C 152.692 -1.70726 0.335961 0
M  V30 1628 O 153.868 -1.92799 0.582276 0
M  V30 1629 C 150.933 -3.20758 1.31587 0
M  V30 1630 C 149.994 -3.47063 2.52677 0
M  V30 1631 C 149.227 -4.76481 2.4042 0
M  V30 1632 O 149.45 -5.52341 1.42391 0
M  V30 1633 O 148.384 -5.03367 3.30007 0
M  V30 1634 H 152.21 -1.8488 2.40942 0
M  V30 1635 H 149.795 -0.85647 1.22413 0
M  V30 1636 H 151.677 -4.01913 1.26665 0
M  V30 1637 H 150.352 -3.21438 0.382049 0
M  V30 1638 H 149.259 -2.65873 2.63177 0
M  V30 1639 H 150.592 -3.5119 3.44858 0
M  V30 1640 N 152.244 -1.26651 -0.937939 0
M  V30 1641 C 153.655 -1.1125 -1.49934 0
M  V30 1642 C 154.006 0.306077 -1.93798 0
M  V30 1643 O 153.131 1.19792 -1.80219 0
M  V30 1644 C 153.726 -2.01339 -2.72485 0
M  V30 1645 C 152.285 -1.90074 -3.24883 0
M  V30 1646 C 151.432 -1.94498 -1.97651 0
M  V30 1647 H 154.383 -1.39693 -0.753091 0
M  V30 1648 H 154.404 -1.56319 -3.46907 0
M  V30 1649 H 153.916 -3.04577 -2.40529 0
M  V30 1650 H 152.017 -0.897827 -3.61621 0
M  V30 1651 H 152.13 -2.75778 -3.9177 0
M  V30 1652 H 150.494 -1.38591 -2.13693 0
M  V30 1653 H 151.277 -2.99372 -1.68022 0
M  V30 1654 N 153.722 1.14298 -1.08507 0
M  V30 1655 C 154.947 1.8976 -0.837001 0
M  V30 1656 C 155.372 1.78097 0.605228 0
M  V30 1657 O 154.73 1.12188 1.4242 0
M  V30 1658 C 154.778 3.37685 -1.26495 0
M  V30 1659 O 153.882 4.10281 -0.417514 0
M  V30 1660 H 153.223 0.590365 -0.303917 0
M  V30 1661 H 155.753 1.44672 -1.44676 0
M  V30 1662 H 155.763 3.88501 -1.24625 0
M  V30 1663 H 154.438 3.45492 -2.31534 0
M  V30 1664 H 153.015 3.69536 -0.499722 0
M  V30 1665 N 155.201 0.870884 1.31352 0
M  V30 1666 C 156.426 0.495957 2.01383 0
M  V30 1667 C 156.851 -0.904324 1.64935 0
M  V30 1668 O 156.209 -1.59687 0.858466 0
M  V30 1669 C 156.257 0.661433 3.54482 0
M  V30 1670 O 155.361 -0.298851 4.11316 0
M  V30 1671 H 154.702 0.197158 0.634054 0
M  V30 1672 H 157.232 1.17455 1.67527 0
M  V30 1673 H 157.242 0.555072 4.04207 0
M  V30 1674 H 155.917 1.68246 3.8035 0
M  V30 1675 H 154.494 -0.147368 3.72609 0
M  V30 1676 N 156.679 -1.44442 0.630414 0
M  V30 1677 C 157.626 -2.30678 -0.0749355 0
M  V30 1678 C 158.596 -1.4344 -0.837502 0
M  V30 1679 O 159.781 -1.72343 -0.818684 0
M  V30 1680 C 156.921 -3.28706 -1.05103 0
M  V30 1681 C 156.034 -4.31046 -0.286954 0
M  V30 1682 C 155.169 -5.16167 -1.2548 0
M  V30 1683 C 154.208 -6.10216 -0.479843 0
M  V30 1684 N 153.345 -6.88039 -1.39811 0
M  V30 1685 H 158.185 -2.90454 0.666386 0
M  V30 1686 H 155.722 -1.43107 0.340404 0
M  V30 1687 H 157.68 -3.84027 -1.63031 0
M  V30 1688 H 156.31 -2.70632 -1.75949 0
M  V30 1689 H 155.362 -3.78203 0.408243 0
M  V30 1690 H 156.674 -4.97794 0.316657 0
M  V30 1691 H 155.828 -5.76002 -1.90544 0
M  V30 1692 H 154.567 -4.49491 -1.89233 0
M  V30 1693 H 153.572 -5.49491 0.184295 0
M  V30 1694 H 154.797 -6.78928 0.152965 0
M  V30 1695 H 152.743 -6.24032 -2.02287 0
M  V30 1696 H 152.66 -7.51223 -0.848508 0
M  V30 1697 H 153.928 -7.52397 -2.03762 0
M  V30 1698 N 158.157 -0.370918 -1.53173 0
M  V30 1699 C 159.568 0.107139 -1.86392 0
M  V30 1700 C 159.919 1.47714 -1.29132 0
M  V30 1701 O 159.044 2.07464 -0.615439 0
M  V30 1702 C 159.639 0.201187 -3.38202 0
M  V30 1703 C 158.198 0.623507 -3.712 0
M  V30 1704 C 157.345 -0.225978 -2.76378 0
M  V30 1705 H 160.296 -0.58951 -1.47345 0
M  V30 1706 H 160.317 1.02377 -3.66468 0
M  V30 1707 H 159.829 -0.796058 -3.79848 0
M  V30 1708 H 157.93 1.62879 -3.35114 0
M  V30 1709 H 158.043 0.394414 -4.77474 0
M  V30 1710 H 156.407 0.305962 -2.52856 0
M  V30 1711 H 157.19 -1.22086 -3.20858 0
M  V30 1712 N 159.635 1.57281 -0.100228 0
M  V30 1713 C 161.046 1.81725 0.428107 0
M  V30 1714 C 161.397 1.01619 1.67833 0
M  V30 1715 O 160.522 0.247098 2.14985 0
M  V30 1716 C 161.117 3.29617 0.78347 0
M  V30 1717 C 159.676 3.54808 1.25653 0
M  V30 1718 C 158.823 2.76118 0.255752 0
M  V30 1719 H 161.774 1.55324 -0.325608 0
M  V30 1720 H 161.795 3.4322 1.64256 0
M  V30 1721 H 161.307 3.87893 -0.12665 0
M  V30 1722 H 159.408 3.01868 2.18418 0
M  V30 1723 H 159.521 4.63443 1.21482 0
M  V30 1724 H 157.885 2.43745 0.738956 0
M  V30 1725 H 158.668 3.37145 -0.647136 0
M  V30 1726 N 161.113 -0.173488 1.56642 0
M  V30 1727 C 162.529 -0.525174 1.50712 0
M  V30 1728 C 162.729 -1.8476 0.804107 0
M  V30 1729 O 161.785 -2.49869 0.363574 0
M  V30 1730 C 163.098 -0.559937 2.95441 0
M  V30 1731 C 164.646 -0.647288 3.06234 0
M  V30 1732 C 165.121 -0.712963 4.52417 0
M  V30 1733 N 166.612 -0.775911 4.56655 0
M  V30 1734 C 167.347 -0.847264 5.67106 0
M  V30 1735 N 166.843 -0.879585 6.87194 0
M  V30 1736 N 168.636 -0.886117 5.55071 0
M  V30 1737 H 160.787 0.693681 2.00753 0
M  V30 1738 H 163.05 0.249841 0.914485 0
M  V30 1739 H 162.756 0.343049 3.50023 0
M  V30 1740 H 162.63 -1.40718 3.49969 0
M  V30 1741 H 165.017 -1.5407 2.51687 0
M  V30 1742 H 165.098 0.226586 2.54794 0
M  V30 1743 H 164.742 0.176183 5.07594 0
M  V30 1744 H 164.672 -1.60295 5.0161 0
M  V30 1745 H 167.163 -0.759304 3.70193 0
M  V30 1746 H 167.476 -0.935144 7.67121 0
M  V30 1747 H 165.821 -0.847898 6.89808 0
M  V30 1748 H 169.012 -0.857853 4.60172 0
M  V30 1749 H 169.185 -0.938263 6.41171 0
M  V30 1750 N 162.591 -1.51276 -0.441967 0
M  V30 1751 C 163.501 -1.75092 -1.56141 0
M  V30 1752 C 164.517 -0.634963 -1.62001 0
M  V30 1753 O 165.693 -0.916686 -1.79329 0
M  V30 1754 C 162.758 -1.86666 -2.92158 0
M  V30 1755 C 161.819 -3.10506 -2.96453 0
M  V30 1756 C 161.052 -3.21519 -4.25982 0
M  V30 1757 O 161.275 -2.38586 -5.18105 0
M  V30 1758 O 160.209 -4.14465 -4.36466 0
M  V30 1759 H 164.035 -2.70044 -1.38961 0
M  V30 1760 H 161.62 -1.35722 -0.624499 0
M  V30 1761 H 163.502 -1.96292 -3.72891 0
M  V30 1762 H 162.177 -0.949014 -3.09476 0
M  V30 1763 H 161.084 -3.06363 -2.14692 0
M  V30 1764 H 162.417 -4.01945 -2.84079 0
M  V30 1765 N 164.069 0.697108 -1.41344 0
M  V30 1766 C 165.032 1.79281 -1.42797 0
M  V30 1767 C 166.032 1.57607 -0.318837 0
M  V30 1768 O 167.222 1.64309 -0.578642 0
M  V30 1769 C 164.354 3.17632 -1.23785 0
M  V30 1770 H 165.547 1.79385 -2.40335 0
M  V30 1771 H 163.1 0.904582 -1.27464 0
M  V30 1772 H 163.835 3.23167 -0.270814 0
M  V30 1773 H 163.62 3.34765 -2.04144 0
M  V30 1774 H 165.11 3.97617 -1.27633 0
M  V30 1775 N 165.547 1.27147 0.931209 0
M  V30 1776 C 166.775 1.16082 1.71267 0
M  V30 1777 C 167.19 -0.282772 1.8667 0
M  V30 1778 O 166.547 -1.19283 1.38122 0
M  V30 1779 C 166.598 1.8358 3.11417 0
M  V30 1780 O 166.319 3.22299 2.96741 0
M  V30 1781 C 167.82 1.78597 4.05732 0
M  V30 1782 H 165.04 0.403758 0.535929 0
M  V30 1783 H 167.584 1.67953 1.16671 0
M  V30 1784 H 165.739 1.35623 3.62885 0
M  V30 1785 H 166.153 3.55851 3.85319 0
M  V30 1786 H 167.627 2.30444 5.01597 0
M  V30 1787 H 168.104 0.754564 4.3267 0
M  V30 1788 H 168.71 2.26152 3.60188 0
M  V30 1789 N 167.025 -1.13721 1.09112 0
M  V30 1790 C 167.955 -2.21148 0.749385 0
M  V30 1791 C 168.936 -1.6792 -0.271475 0
M  V30 1792 O 170.121 -1.93693 -0.140251 0
M  V30 1793 C 167.251 -3.46905 0.165659 0
M  V30 1794 C 166.205 -4.13203 1.11567 0
M  V30 1795 C 165.531 -5.33248 0.393809 0
M  V30 1796 C 166.831 -4.60912 2.45678 0
M  V30 1797 H 168.525 -2.4999 1.64758 0
M  V30 1798 H 166.071 -1.20156 0.793626 0
M  V30 1799 H 168.024 -4.21313 -0.085466 0
M  V30 1800 H 166.748 -3.17449 -0.767714 0
M  V30 1801 H 165.407 -3.40758 1.35202 0
M  V30 1802 H 165.055 -5.00054 -0.543599 0
M  V30 1803 H 164.755 -5.78552 1.02721 0
M  V30 1804 H 166.279 -6.10413 0.150908 0
M  V30 1805 H 167.693 -5.26759 2.26269 0
M  V30 1806 H 166.09 -5.16944 3.04776 0
M  V30 1807 H 167.16 -3.75603 3.06677 0
M  V30 1808 N 168.503 -0.877838 -1.30888 0
M  V30 1809 C 169.413 -0.343096 -2.32078 0
M  V30 1810 C 170.429 0.551022 -1.65045 0
M  V30 1811 O 171.605 0.445854 -1.96403 0
M  V30 1812 C 168.67 0.439905 -3.43898 0
M  V30 1813 C 167.731 -0.483111 -4.26573 0
M  V30 1814 C 166.964 0.262616 -5.33053 0
M  V30 1815 O 167.187 1.48967 -5.50604 0
M  V30 1816 O 166.121 -0.383593 -6.00676 0
M  V30 1817 H 169.947 -1.18203 -2.79753 0
M  V30 1818 H 167.532 -0.64145 -1.34929 0
M  V30 1819 H 169.414 0.883504 -4.12034 0
M  V30 1820 H 168.089 1.25526 -2.98371 0
M  V30 1821 H 166.996 -0.975374 -3.61161 0
M  V30 1822 H 168.329 -1.26427 -4.75686 0
M  V30 1823 N 169.982 1.44106 -0.638065 0
M  V30 1824 C 170.892 2.34513 0.0637334 0
M  V30 1825 C 171.908 1.53018 0.828346 0
M  V30 1826 O 173.084 1.85723 0.779036 0
M  V30 1827 C 170.149 3.31095 1.02844 0
M  V30 1828 C 169.21 4.28497 0.26244 0
M  V30 1829 C 168.443 5.20465 1.1812 0
M  V30 1830 O 168.666 5.16514 2.42011 0
M  V30 1831 O 167.6 5.98251 0.661774 0
M  V30 1832 H 171.426 2.95989 -0.68003 0
M  V30 1833 H 169.011 1.43994 -0.398252 0
M  V30 1834 H 170.893 3.90526 1.58327 0
M  V30 1835 H 169.568 2.72144 1.7527 0
M  V30 1836 H 168.475 3.72592 -0.335602 0
M  V30 1837 H 169.808 4.90388 -0.421936 0
M  V30 1838 N 171.46 0.379036 1.52974 0
M  V30 1839 C 172.876 0.0285448 1.59574 0
M  V30 1840 C 173.076 -1.45542 1.39355 0
M  V30 1841 O 172.132 -2.2187 1.20541 0
M  V30 1842 C 173.445 0.496535 2.96572 0
M  V30 1843 C 174.993 0.451909 3.0972 0
M  V30 1844 C 175.468 0.895924 4.49152 0
M  V30 1845 N 176.959 0.851522 4.55306 0
M  V30 1846 C 177.694 1.16661 5.61407 0
M  V30 1847 N 177.19 1.55166 6.752 0
M  V30 1848 N 178.983 1.08853 5.51459 0
M  V30 1849 H 171.134 1.34525 1.64367 0
M  V30 1850 H 173.397 0.550733 0.771619 0
M  V30 1851 H 173.103 1.53258 3.16552 0
M  V30 1852 H 172.977 -0.109802 3.7704 0
M  V30 1853 H 175.364 -0.575029 2.89443 0
M  V30 1854 H 175.445 1.09392 2.3123 0
M  V30 1855 H 175.089 1.92104 4.70168 0
M  V30 1856 H 175.019 0.23103 5.26093 0
M  V30 1857 H 177.51 0.568038 3.73606 0
M  V30 1858 H 177.823 1.776 7.52116 0
M  V30 1859 H 176.168 1.59044 6.76557 0
M  V30 1860 H 179.359 0.786803 4.6144 0
M  V30 1861 H 179.532 1.33742 6.34048 0
M  V30 1862 N 172.938 -1.57226 0.108567 0
M  V30 1863 C 173.888 -2.11305 -0.856396 0
M  V30 1864 C 174.872 -1.03129 -1.23504 0
M  V30 1865 O 176.064 -1.29381 -1.20787 0
M  V30 1866 C 173.193 -2.70771 -2.11041 0
M  V30 1867 C 172.279 -3.86011 -1.7566 0
M  V30 1868 N 172.67 -4.93492 -1.10902 0
M  V30 1869 C 170.968 -3.95999 -2.05185 0
M  V30 1870 C 171.669 -5.73984 -0.944308 0
M  V30 1871 N 170.645 -5.2346 -1.46596 0
M  V30 1872 H 174.447 -2.91784 -0.352002 0
M  V30 1873 H 171.961 -1.62126 -0.0942324 0
M  V30 1874 H 173.958 -3.07851 -2.81128 0
M  V30 1875 H 172.618 -1.91751 -2.62034 0
M  V30 1876 H 173.629 -5.1208 -0.774235 0
M  V30 1877 H 170.306 -3.28007 -2.58298 0
M  V30 1878 H 171.696 -6.70479 -0.436813 0
M  V30 1879 N 174.416 0.165178 -1.56732 0
M  V30 1880 C 175.379 1.18822 -1.95995 0
M  V30 1881 C 176.379 1.3685 -0.84431 0
M  V30 1882 O 177.569 1.34152 -1.11126 0
M  V30 1883 C 174.701 2.5521 -2.26011 0
M  V30 1884 H 175.894 0.851825 -2.87548 0
M  V30 1885 H 173.447 0.407857 -1.50885 0
M  V30 1886 H 174.182 2.93852 -1.37191 0
M  V30 1887 H 173.967 2.43489 -3.07336 0
M  V30 1888 H 175.457 3.28927 -2.57288 0
M  V30 1889 N 175.894 1.51508 0.433938 0
M  V30 1890 C 177.31 1.39759 0.770682 0
M  V30 1891 C 177.51 0.482594 1.95636 0
M  V30 1892 O 176.566 -0.0609691 2.52426 0
M  V30 1893 C 177.879 2.81851 1.04787 0
M  V30 1894 C 179.427 2.91025 1.1521 0
M  V30 1895 C 179.902 4.34032 1.46219 0
M  V30 1896 N 181.393 4.37154 1.53136 0
M  V30 1897 C 182.128 5.4484 1.78709 0
M  V30 1898 N 181.624 6.62682 2.02051 0
M  V30 1899 N 183.417 5.32324 1.80519 0
M  V30 1900 H 175.568 2.09548 -0.346892 0
M  V30 1901 H 177.831 0.943446 -0.0928074 0
M  V30 1902 H 177.537 3.50815 0.249304 0
M  V30 1903 H 177.411 3.21386 1.97461 0
M  V30 1904 H 179.798 2.22257 1.94128 0
M  V30 1905 H 179.879 2.54983 0.204281 0
M  V30 1906 H 179.523 5.03351 0.678274 0
M  V30 1907 H 179.453 4.6759 2.42212 0
M  V30 1908 H 181.944 3.52197 1.36987 0
M  V30 1909 H 182.257 7.40543 2.20943 0
M  V30 1910 H 180.602 6.65791 1.99366 0
M  V30 1911 H 183.793 4.39246 1.61805 0
M  V30 1912 H 183.966 6.16328 2.00111 0
M  V30 1913 N 177.372 -0.689602 1.41712 0
M  V30 1914 C 178.62 -1.4468 1.4111 0
M  V30 1915 C 178.941 -1.94986 0.0232196 0
M  V30 1916 O 178.211 -1.72097 -0.935913 0
M  V30 1917 H 176.791 -0.536847 0.519427 0
M  V30 1918 H 179.453 -0.815825 1.77004 0
M  V30 1919 H 178.549 -2.30706 2.10193 0
M  V30 1920 N 178.85 -1.27639 -0.924453 0
M  V30 1921 C 179.76 -1.12466 -2.05885 0
M  V30 1922 C 180.776 -0.053869 -1.73917 0
M  V30 1923 O 181.952 -0.261012 -1.99702 0
M  V30 1924 C 179.017 -0.776768 -3.37886 0
M  V30 1925 C 178.078 -1.92878 -3.83532 0
M  V30 1926 C 177.311 -1.59739 -5.09234 0
M  V30 1927 O 177.534 -0.506782 -5.68144 0
M  V30 1928 O 176.468 -2.43761 -5.50331 0
M  V30 1929 H 180.294 -2.07671 -2.21599 0
M  V30 1930 H 177.879 -1.06857 -1.04413 0
M  V30 1931 H 179.761 -0.596229 -4.17161 0
M  V30 1932 H 178.436 0.145732 -3.23372 0
M  V30 1933 H 177.343 -2.1644 -3.0513 0
M  V30 1934 H 178.676 -2.8316 -4.02593 0
M  V30 1935 N 180.328 1.1314 -1.09713 0
M  V30 1936 C 181.275 2.18642 -0.739196 0
M  V30 1937 C 182.245 1.63706 0.280978 0
M  V30 1938 O 183.43 1.90111 0.161946 0
M  V30 1939 C 180.57 3.44685 -0.169102 0
M  V30 1940 C 179.683 4.13711 -1.24367 0
M  V30 1941 C 178.818 5.27379 -0.636019 0
M  V30 1942 C 177.857 5.88259 -1.69169 0
M  V30 1943 N 176.994 6.93352 -1.10485 0
M  V30 1944 H 181.834 2.48607 -1.64312 0
M  V30 1945 H 179.371 1.22066 -0.820875 0
M  V30 1946 H 181.329 4.16815 0.179256 0
M  V30 1947 H 179.959 3.15161 0.698079 0
M  V30 1948 H 179.011 3.39835 -1.70927 0
M  V30 1949 H 180.323 4.55037 -2.04311 0
M  V30 1950 H 179.477 6.06238 -0.236677 0
M  V30 1951 H 178.216 4.8731 0.194928 0
M  V30 1952 H 177.221 5.08092 -2.10055 0
M  V30 1953 H 178.446 6.30399 -2.52536 0
M  V30 1954 H 176.392 6.55335 -0.295234 0
M  V30 1955 H 176.309 7.33236 -1.84121 0
M  V30 1956 H 177.577 7.76057 -0.73181 0
M  V30 1957 N 181.806 0.884767 1.30421 0
M  V30 1958 C 182.756 0.322846 2.25703 0
M  V30 1959 C 183.74 -0.548582 1.51259 0
M  V30 1960 O 184.932 -0.39304 1.72581 0
M  V30 1961 C 182.061 -0.461787 3.4018 0
M  V30 1962 C 181.147 0.423717 4.21978 0
M  V30 1963 N 181.538 1.52408 4.82292 0
M  V30 1964 C 179.836 0.218795 4.45463 0
M  V30 1965 C 180.537 2.07136 5.43571 0
M  V30 1966 N 179.513 1.36635 5.26148 0
M  V30 1967 H 183.315 1.16363 2.69883 0
M  V30 1968 H 180.829 0.73415 1.44859 0
M  V30 1969 H 182.826 -0.880985 4.07485 0
M  V30 1970 H 181.486 -1.30001 2.9754 0
M  V30 1971 H 182.497 1.90693 4.81515 0
M  V30 1972 H 179.174 -0.582275 4.1342 0
M  V30 1973 H 180.564 2.99538 6.01437 0
M  V30 1974 N 183.284 -1.43765 0.645699 0
M  V30 1975 C 184.214 -2.33471 -0.0370477 0
M  V30 1976 C 185.195 -1.49042 -0.819779 0
M  V30 1977 O 186.38 -1.77726 -0.782758 0
M  V30 1978 C 183.51 -3.32311 -1.0093 0
M  V30 1979 C 182.464 -4.2667 -0.337201 0
M  V30 1980 C 181.79 -5.1549 -1.42037 0
M  V30 1981 C 183.09 -5.16657 0.765706 0
M  V30 1982 H 184.784 -2.90809 0.712069 0
M  V30 1983 H 182.33 -1.39834 0.343876 0
M  V30 1984 H 184.283 -3.9396 -1.49578 0
M  V30 1985 H 183.007 -2.73213 -1.78948 0
M  V30 1986 H 181.666 -3.66374 0.128771 0
M  V30 1987 H 181.314 -4.52735 -2.1918 0
M  V30 1988 H 181.014 -5.79438 -0.975966 0
M  V30 1989 H 182.538 -5.80012 -1.90838 0
M  V30 1990 H 183.952 -5.72158 0.361702 0
M  V30 1991 H 182.349 -5.89286 1.13413 0
M  V30 1992 H 183.419 -4.56796 1.62683 0
M  V30 1993 N 184.763 -0.387143 -1.52771 0
M  V30 1994 C 186.011 0.195349 -2.01154 0
M  V30 1995 C 186.332 1.475 -1.27549 0
M  V30 1996 O 185.602 1.91878 -0.394924 0
M  V30 1997 H 184.182 0.075178 -0.743207 0
M  V30 1998 H 186.844 -0.518337 -1.87881 0
M  V30 1999 H 185.94 0.407096 -3.09434 0
M  V30 2000 N 186.241 1.57166 -0.116904 0
M  V30 2001 C 187.487 1.95412 0.542405 0
M  V30 2002 C 187.82 1.00019 1.66463 0
M  V30 2003 O 187.095 0.0370346 1.94465 0
M  V30 2004 C 187.378 3.43615 1.07708 0
M  V30 2005 C 187.231 4.49781 -0.0415868 0
M  V30 2006 C 188.55 3.93616 1.96861 0
M  V30 2007 H 185.669 0.710543 0.195696 0
M  V30 2008 H 188.311 1.89027 -0.192038 0
M  V30 2009 H 186.461 3.49187 1.70296 0
M  V30 2010 H 188.133 4.56308 -0.676793 0
M  V30 2011 H 186.376 4.28033 -0.705019 0
M  V30 2012 H 187.047 5.50733 0.373717 0
M  V30 2013 H 189.523 3.90335 1.44146 0
M  V30 2014 H 188.399 4.97838 2.3119 0
M  V30 2015 H 188.66 3.34188 2.89432 0
M  V30 2016 N 187.719 -0.156864 1.56817 0
M  V30 2017 C 188.629 -1.2136 2.00771 0
M  V30 2018 C 189.645 -1.47598 0.921459 0
M  V30 2019 O 190.821 -1.59462 1.2302 0
M  V30 2020 C 187.886 -2.52943 2.37109 0
M  V30 2021 C 186.947 -2.34439 3.59634 0
M  V30 2022 C 186.18 -3.59748 3.94229 0
M  V30 2023 O 186.403 -4.65526 3.29609 0
M  V30 2024 O 185.337 -3.52998 4.8752 0
M  V30 2025 H 189.163 -0.870468 2.90958 0
M  V30 2026 H 186.748 -0.36484 1.44877 0
M  V30 2027 H 188.63 -3.30538 2.61386 0
M  V30 2028 H 187.305 -2.86806 1.5008 0
M  V30 2029 H 186.212 -1.54828 3.40557 0
M  V30 2030 H 187.545 -2.05496 4.4725 0
M  V30 2031 N 189.197 -1.51736 -0.425897 0
M  V30 2032 C 190.446 -1.64201 -1.17136 0
M  V30 2033 C 190.759 -0.369705 -1.92074 0
M  V30 2034 O 191.965 -0.373898 -2.68913 0
M  V30 2035 C 190.421 -2.90035 -2.13091 0
M  V30 2036 C 190.029 -4.24312 -1.43747 0
M  V30 2037 C 191.773 -3.1186 -2.87999 0
M  V30 2038 C 189.68 -5.41285 -2.38253 0
M  V30 2039 H 188.61 -0.611624 -0.440944 0
M  V30 2040 H 191.261 -1.78212 -0.437328 0
M  V30 2041 H 189.643 -2.69684 -2.89977 0
M  V30 2042 H 190.817 -4.55086 -0.723408 0
M  V30 2043 H 189.132 -4.08456 -0.809465 0
M  V30 2044 H 191.729 -3.96427 -3.58817 0
M  V30 2045 H 192.072 -2.25403 -3.49999 0
M  V30 2046 H 192.605 -3.32605 -2.18217 0
M  V30 2047 H 189.344 -6.30037 -1.80925 0
M  V30 2048 H 188.864 -5.14872 -3.0768 0
M  V30 2049 H 190.543 -5.73694 -2.99139 0
M  V30 2050 N 190.675 0.682077 -1.42076 0
M  V30 2051 C 191.585 1.82535 -1.47371 0
M  V30 2052 C 192.601 1.7017 -0.363079 0
M  V30 2053 O 193.777 1.91848 -0.612875 0
M  V30 2054 C 190.842 3.18624 -1.36674 0
M  V30 2055 C 189.903 3.42999 -2.58167 0
M  V30 2056 C 189.136 4.72595 -2.4797 0
M  V30 2057 O 189.359 5.50006 -1.5116 0
M  V30 2058 O 188.293 4.98054 -3.37974 0
M  V30 2059 H 192.119 1.81023 -2.43853 0
M  V30 2060 H 189.704 0.836887 -1.2376 0
M  V30 2061 H 191.586 3.99847 -1.33043 0
M  V30 2062 H 190.261 3.20789 -0.433138 0
M  V30 2063 H 189.168 2.61653 -2.67373 0
M  V30 2064 H 190.501 3.45659 -3.50401 0
M  V30 2065 N 192.153 1.28127 0.917671 0
M  V30 2066 C 193.1 1.11717 2.0196 0
M  V30 2067 C 194.07 0.0153929 1.66093 0
M  V30 2068 O 195.255 0.179596 1.89953 0
M  V30 2069 C 192.395 0.780927 3.36148 0
M  V30 2070 C 191.508 1.96135 3.84909 0
M  V30 2071 C 190.643 1.56609 5.0759 0
M  V30 2072 C 189.682 2.71339 5.48673 0
M  V30 2073 N 188.819 2.32332 6.62545 0
M  V30 2074 H 193.659 2.06003 2.15329 0
M  V30 2075 H 191.196 1.02535 1.05475 0
M  V30 2076 H 193.154 0.56675 4.13333 0
M  V30 2077 H 191.784 -0.124998 3.22558 0
M  V30 2078 H 190.836 2.28777 3.03916 0
M  V30 2079 H 192.148 2.82165 4.1132 0
M  V30 2080 H 191.302 1.31374 5.92305 0
M  V30 2081 H 190.041 0.677014 4.82978 0
M  V30 2082 H 189.046 2.97276 4.62501 0
M  V30 2083 H 190.271 3.60882 5.75274 0
M  V30 2084 H 188.217 1.45889 6.39572 0
M  V30 2085 H 188.134 3.11899 6.88662 0
M  V30 2086 H 189.402 2.10371 7.50576 0
M  V30 2087 N 193.631 -1.12557 1.10312 0
M  V30 2088 C 194.859 -1.87864 0.866873 0
M  V30 2089 C 195.274 -1.79588 -0.582557 0
M  V30 2090 O 194.631 -1.16887 -1.40156 0
M  V30 2091 C 194.682 -3.37125 1.30496 0
M  V30 2092 O 194.403 -3.45201 2.69755 0
M  V30 2093 C 195.904 -4.29373 1.10243 0
M  V30 2094 H 193.124 -0.594452 0.311236 0
M  V30 2095 H 195.668 -1.42429 1.46745 0
M  V30 2096 H 193.823 -3.80109 0.748081 0
M  V30 2097 H 194.237 -4.38056 2.88457 0
M  V30 2098 H 195.711 -5.32394 1.45811 0
M  V30 2099 H 196.188 -4.39181 0.0409492 0
M  V30 2100 H 196.794 -3.92169 1.64571 0
M  V30 2101 N 195.109 -0.891671 -1.2995 0
M  V30 2102 C 196.334 -0.527932 -2.00568 0
M  V30 2103 C 196.759 0.877969 -1.66353 0
M  V30 2104 O 196.117 1.58301 -0.883762 0
M  V30 2105 C 196.165 -0.717745 -3.53385 0
M  V30 2106 O 195.269 0.233376 -4.11739 0
M  V30 2107 H 194.61 -0.20722 -0.630837 0
M  V30 2108 H 197.14 -1.20105 -1.65638 0
M  V30 2109 H 197.15 -0.619307 -4.03272 0
M  V30 2110 H 195.825 -1.74276 -3.77625 0
M  V30 2111 H 194.402 0.0880706 -3.72796 0
M  V30 2112 N 196.587 1.43421 -0.653314 0
M  V30 2113 C 197.835 2.01414 -0.166415 0
M  V30 2114 C 198.156 1.51803 1.22397 0
M  V30 2115 O 197.426 0.730693 1.81763 0
M  V30 2116 H 196.006 0.744703 -0.0585319 0
M  V30 2117 H 198.668 1.75629 -0.845003 0
M  V30 2118 H 197.764 3.11734 -0.151111 0
M  V30 2119 N 198.065 0.39524 1.52563 0
M  V30 2120 C 198.975 -0.444232 2.30356 0
M  V30 2121 C 199.991 -1.06615 1.37511 0
M  V30 2122 O 201.167 -1.07067 1.70583 0
M  V30 2123 C 198.232 -1.55315 3.09964 0
M  V30 2124 C 197.293 -0.955734 4.18526 0
M  V30 2125 C 196.526 -2.01181 4.9433 0
M  V30 2126 O 196.749 -3.22781 4.70285 0
M  V30 2127 O 195.683 -1.62579 5.79527 0
M  V30 2128 H 199.509 0.189667 3.03107 0
M  V30 2129 H 197.094 0.1588 1.48554 0
M  V30 2130 H 198.976 -2.19724 3.59582 0
M  V30 2131 H 197.651 -2.17191 2.4002 0
M  V30 2132 H 196.558 -0.274743 3.7309 0
M  V30 2133 H 197.891 -0.381109 4.90722 0
M  V30 2134 N 199.544 -1.57102 0.125237 0
M  V30 2135 C 200.793 -1.94582 -0.531095 0
M  V30 2136 C 201.106 -1.01126 -1.6743 0
M  V30 2137 O 202.312 -1.28097 -2.39381 0
M  V30 2138 C 200.768 -3.45839 -0.996164 0
M  V30 2139 C 200.376 -4.47842 0.118926 0
M  V30 2140 C 202.12 -3.92227 -1.62352 0
M  V30 2141 C 200.027 -5.90284 -0.363192 0
M  V30 2142 H 198.957 -0.726391 -0.20217 0
M  V30 2143 H 201.608 -1.82339 0.206092 0
M  V30 2144 H 199.99 -3.53338 -1.78796 0
M  V30 2145 H 201.164 -4.52018 0.895358 0
M  V30 2146 H 199.479 -4.11243 0.653324 0
M  V30 2147 H 202.076 -4.96069 -1.99548 0
M  V30 2148 H 202.419 -3.32552 -2.50429 0
M  V30 2149 H 202.952 -3.87554 -0.897019 0
M  V30 2150 H 199.691 -6.53728 0.481679 0
M  V30 2151 H 199.211 -5.89515 -1.10597 0
M  V30 2152 H 200.89 -6.41752 -0.822377 0
M  V30 2153 N 201.022 0.148545 -1.56898 0
M  V30 2154 C 202.271 0.85984 -1.82454 0
M  V30 2155 C 202.584 1.82406 -0.706229 0
M  V30 2156 O 203.79 2.57938 -0.847349 0
M  V30 2157 C 202.246 1.57967 -3.2338 0
M  V30 2158 C 201.854 0.65794 -4.43142 0
M  V30 2159 C 203.598 2.27784 -3.58211 0
M  V30 2160 C 201.505 1.3793 -5.75091 0
M  V30 2161 H 200.435 0.324834 -0.68044 0
M  V30 2162 H 203.086 0.112588 -1.83154 0
M  V30 2163 H 201.468 2.37249 -3.17063 0
M  V30 2164 H 202.642 -0.0995497 -4.60692 0
M  V30 2165 H 200.957 0.0682643 -4.16344 0
M  V30 2166 H 203.554 2.8239 -4.54048 0
M  V30 2167 H 203.897 3.04204 -2.84193 0
M  V30 2168 H 204.43 1.55421 -3.66182 0
M  V30 2169 H 201.169 0.656982 -6.52199 0
M  V30 2170 H 200.689 2.10954 -5.61479 0
M  V30 2171 H 202.368 1.92063 -6.17835 0
M  V30 2172 N 202.5 1.5196 0.417844 0
M  V30 2173 C 203.916 1.40569 0.755816 0
M  V30 2174 C 204.116 0.503316 1.95113 0
M  V30 2175 O 203.172 -0.0341925 2.52477 0
M  V30 2176 C 204.485 2.82947 1.01791 0
M  V30 2177 C 206.033 2.92231 1.12116 0
M  V30 2178 C 206.508 4.35559 1.41608 0
M  V30 2179 N 207.999 4.38753 1.48491 0
M  V30 2180 C 208.734 5.46705 1.7292 0
M  V30 2181 N 208.23 6.64788 1.95011 0
M  V30 2182 N 210.023 5.34209 1.74863 0
M  V30 2183 H 202.174 2.09168 -0.369098 0
M  V30 2184 H 204.437 0.942409 -0.102809 0
M  V30 2185 H 204.143 3.5106 0.212081 0
M  V30 2186 H 204.017 3.23462 1.94042 0
M  V30 2187 H 206.404 2.24304 1.9176 0
M  V30 2188 H 206.485 2.55185 0.177225 0
M  V30 2189 H 206.129 5.04042 0.624848 0
M  V30 2190 H 206.059 4.70133 2.37239 0
M  V30 2191 H 208.55 3.5363 1.33244 0
M  V30 2192 H 208.863 7.42845 2.13076 0
M  V30 2193 H 207.208 6.67869 1.92293 0
M  V30 2194 H 210.399 4.40937 1.57137 0
M  V30 2195 H 210.572 6.18415 1.93563 0
M  V30 2196 N 203.978 -0.674533 1.42435 0
M  V30 2197 C 205.218 -1.4466 1.44405 0
M  V30 2198 C 205.582 -1.91911 0.0585784 0
M  V30 2199 O 206.783 -2.68759 -0.0469991 0
M  V30 2200 C 205.054 -2.61136 2.44013 0
M  V30 2201 S 206.613 -3.49981 2.64687 0
M  V30 2202 H 203.431 -0.494074 0.511284 0
M  V30 2203 H 206.033 -0.785162 1.7904 0
M  V30 2204 H 204.737 -2.24662 3.43446 0
M  V30 2205 H 204.268 -3.32153 2.10803 0
M  V30 2206 H 206.283 -4.57124 1.93007 0
M  V30 2207 N 205.456 -1.28612 -0.910864 0
M  V30 2208 C 206.366 -1.14643 -2.0468 0
M  V30 2209 C 207.382 -0.0723121 -1.7385 0
M  V30 2210 O 208.558 -0.282178 -1.99413 0
M  V30 2211 C 205.623 -0.812561 -3.37044 0
M  V30 2212 C 204.684 -1.96935 -3.81465 0
M  V30 2213 C 203.917 -1.65131 -5.07511 0
M  V30 2214 O 204.14 -0.567013 -5.67575 0
M  V30 2215 O 203.074 -2.49585 -5.47714 0
M  V30 2216 H 206.9 -2.1001 -2.19384 0
M  V30 2217 H 204.485 -1.07958 -1.03274 0
M  V30 2218 H 206.367 -0.640441 -4.16505 0
M  V30 2219 H 205.042 0.111426 -3.23508 0
M  V30 2220 H 203.949 -2.19664 -3.02818 0
M  V30 2221 H 205.282 -2.87414 -3.99567 0
M  V30 2222 N 206.934 1.1197 -1.10907 0
M  V30 2223 C 207.881 2.17846 -0.762345 0
M  V30 2224 C 208.851 1.63995 0.263599 0
M  V30 2225 O 210.036 1.90273 0.141773 0
M  V30 2226 C 207.176 3.44487 -0.205651 0
M  V30 2227 C 206.289 4.12369 -1.28748 0
M  V30 2228 C 205.424 5.26674 -0.691919 0
M  V30 2229 C 204.463 5.86431 -1.75399 0
M  V30 2230 N 203.6 6.92142 -1.17833 0
M  V30 2231 H 208.44 2.46851 -1.6694 0
M  V30 2232 H 205.977 1.21188 -0.833776 0
M  V30 2233 H 207.935 4.16981 0.135037 0
M  V30 2234 H 206.565 3.15884 0.664613 0
M  V30 2235 H 205.617 3.38003 -1.74522 0
M  V30 2236 H 206.929 4.52844 -2.09125 0
M  V30 2237 H 206.083 6.05953 -0.300963 0
M  V30 2238 H 204.822 4.8749 0.143232 0
M  V30 2239 H 203.827 5.05835 -2.15432 0
M  V30 2240 H 205.052 6.27685 -2.59208 0
M  V30 2241 H 202.998 6.54985 -0.364725 0
M  V30 2242 H 202.915 7.31242 -1.91887 0
M  V30 2243 H 204.183 7.75237 -0.81408 0
M  V30 2244 N 208.412 0.89855 1.29475 0
M  V30 2245 C 209.652 0.530771 1.97388 0
M  V30 2246 C 210.016 -0.905832 1.69289 0
M  V30 2247 O 211.217 -1.38042 2.30646 0
M  V30 2248 C 209.488 0.81369 3.48014 0
M  V30 2249 S 211.047 0.550048 4.35339 0
M  V30 2250 H 207.865 0.196956 0.683176 0
M  V30 2251 H 210.467 1.16074 1.57312 0
M  V30 2252 H 209.171 1.85749 3.65958 0
M  V30 2253 H 208.702 0.171795 3.93025 0
M  V30 2254 H 210.717 -0.605423 4.92493 0
M  V30 2255 N 209.89 -1.43072 0.660911 0
M  V30 2256 C 210.837 -2.30785 -0.0259884 0
M  V30 2257 C 211.807 -1.45184 -0.806888 0
M  V30 2258 O 212.992 -1.74041 -0.781943 0
M  V30 2259 C 210.132 -3.30861 -0.981067 0
M  V30 2260 C 209.245 -4.31558 -0.195458 0
M  V30 2261 C 208.38 -5.18712 -1.14503 0
M  V30 2262 C 207.419 -6.11097 -0.350299 0
M  V30 2263 N 206.556 -6.90849 -1.25186 0
M  V30 2264 H 211.396 -2.88975 0.727846 0
M  V30 2265 H 208.933 -1.42353 0.370682 0
M  V30 2266 H 210.891 -3.87399 -1.54849 0
M  V30 2267 H 209.521 -2.74304 -1.70169 0
M  V30 2268 H 208.573 -3.77252 0.488374 0
M  V30 2269 H 209.885 -4.9701 0.422176 0
M  V30 2270 H 209.039 -5.79914 -1.78284 0
M  V30 2271 H 207.778 -4.53404 -1.79656 0
M  V30 2272 H 206.783 -5.48976 0.300808 0
M  V30 2273 H 208.008 -6.7845 0.296941 0
M  V30 2274 H 205.954 -6.28182 -1.89005 0
M  V30 2275 H 205.871 -7.52854 -0.688971 0
M  V30 2276 H 207.139 -7.5655 -1.87757 0
M  V30 2277 N 211.368 -0.403325 -1.52352 0
M  V30 2278 C 212.784 -0.0539281 -1.59509 0
M  V30 2279 C 212.984 1.43307 -1.41652 0
M  V30 2280 O 212.04 2.19924 -1.24056 0
M  V30 2281 C 213.353 -0.543654 -2.95745 0
M  V30 2282 C 214.901 -0.501125 -3.08962 0
M  V30 2283 C 215.376 -0.967267 -4.47669 0
M  V30 2284 N 216.867 -0.923849 -4.53893 0
M  V30 2285 C 217.602 -1.25578 -5.5948 0
M  V30 2286 N 217.098 -1.65889 -6.72646 0
M  V30 2287 N 218.891 -1.17613 -5.49658 0
M  V30 2288 H 211.042 -1.37123 -1.62206 0
M  V30 2289 H 213.305 -0.56294 -0.76276 0
M  V30 2290 H 213.011 -1.58275 -3.14073 0
M  V30 2291 H 212.885 0.0498042 -3.77167 0
M  V30 2292 H 215.272 0.528909 -2.90321 0
M  V30 2293 H 215.353 -1.13056 -2.2946 0
M  V30 2294 H 214.997 -1.9956 -4.67053 0
M  V30 2295 H 214.927 -0.314698 -5.25659 0
M  V30 2296 H 217.418 -0.627403 -3.72655 0
M  V30 2297 H 217.731 -1.89543 -7.49195 0
M  V30 2298 H 216.076 -1.69787 -6.73942 0
M  V30 2299 H 219.267 -0.860115 -4.6013 0
M  V30 2300 H 219.44 -1.43812 -6.3184 0
M  V30 2301 N 212.846 1.57033 -0.133567 0
M  V30 2302 C 213.756 2.19632 0.824564 0
M  V30 2303 C 214.772 1.17666 1.28182 0
M  V30 2304 O 215.948 1.50193 1.3418 0
M  V30 2305 C 213.013 2.79499 2.05137 0
M  V30 2306 C 212.074 3.96548 1.64464 0
M  V30 2307 C 211.307 4.5355 2.81297 0
M  V30 2308 O 211.53 4.09438 3.97136 0
M  V30 2309 O 210.464 5.44018 2.57542 0
M  V30 2310 H 214.29 3.01991 0.321766 0
M  V30 2311 H 211.875 1.49112 0.0927889 0
M  V30 2312 H 213.757 3.17602 2.7696 0
M  V30 2313 H 212.432 2.00162 2.54395 0
M  V30 2314 H 211.339 3.63186 0.897048 0
M  V30 2315 H 212.672 4.77364 1.19934 0
M  V30 2316 N 214.325 -0.140222 1.56975 0
M  V30 2317 C 215.741 -0.493088 1.51792 0
M  V30 2318 C 215.941 -1.83013 0.843116 0
M  V30 2319 O 214.997 -2.49041 0.416493 0
M  V30 2320 C 216.31 -0.497144 2.96562 0
M  V30 2321 C 217.858 -0.582186 3.07538 0
M  V30 2322 C 218.333 -0.616838 4.53827 0
M  V30 2323 N 219.824 -0.678873 4.58198 0
M  V30 2324 C 220.559 -0.726782 5.68775 0
M  V30 2325 N 220.055 -0.733623 6.88905 0
M  V30 2326 N 221.848 -0.768179 5.56826 0
M  V30 2327 H 213.999 0.736108 1.99237 0
M  V30 2328 H 216.262 0.269182 0.90898 0
M  V30 2329 H 215.968 0.417217 3.49217 0
M  V30 2330 H 215.842 -1.33263 3.52875 0
M  V30 2331 H 218.229 -1.48697 2.54899 0
M  V30 2332 H 218.31 0.280581 2.54257 0
M  V30 2333 H 217.954 0.283812 5.07106 0
M  V30 2334 H 217.884 -1.49619 5.04898 0
M  V30 2335 H 220.375 -0.68061 3.7172 0
M  V30 2336 H 220.688 -0.772215 7.68932 0
M  V30 2337 H 219.033 -0.701389 6.91452 0
M  V30 2338 H 222.224 -0.760051 4.61888 0
M  V30 2339 H 222.397 -0.80205 6.43017 0
M  V30 2340 N 215.803 -1.52179 -0.40978 0
M  V30 2341 C 216.713 -1.78364 -1.52392 0
M  V30 2342 C 217.729 -0.669183 -1.60617 0
M  V30 2343 O 218.905 -0.954518 -1.77344 0
M  V30 2344 C 215.97 -1.92822 -2.88133 0
M  V30 2345 C 215.031 -3.16725 -2.898 0
M  V30 2346 C 214.264 -3.30483 -4.19067 0
M  V30 2347 O 214.487 -2.49522 -5.12928 0
M  V30 2348 O 213.421 -4.2363 -4.27576 0
M  V30 2349 H 217.247 -2.72931 -1.33201 0
M  V30 2350 H 214.832 -1.37016 -0.59557 0
M  V30 2351 H 216.714 -2.04157 -3.68643 0
M  V30 2352 H 215.389 -1.01444 -3.07393 0
M  V30 2353 H 214.296 -3.10848 -2.08146 0
M  V30 2354 H 215.629 -4.07881 -2.75489 0
M  V30 2355 N 217.281 0.66697 -1.42791 0
M  V30 2356 C 218.211 1.79218 -1.49677 0
M  V30 2357 C 219.192 1.66405 -0.352623 0
M  V30 2358 O 220.377 1.85708 -0.567993 0
M  V30 2359 C 217.507 3.17565 -1.40605 0
M  V30 2360 C 216.461 3.45124 -2.53127 0
M  V30 2361 C 215.787 4.83127 -2.29112 0
M  V30 2362 C 217.087 3.41236 -3.95418 0
M  V30 2363 H 218.781 1.73713 -2.43853 0
M  V30 2364 H 216.327 0.83432 -1.17367 0
M  V30 2365 H 218.28 3.96022 -1.44029 0
M  V30 2366 H 217.004 3.23767 -0.429271 0
M  V30 2367 H 215.663 2.69031 -2.49034 0
M  V30 2368 H 215.311 4.85988 -1.29709 0
M  V30 2369 H 215.011 5.02528 -3.04531 0
M  V30 2370 H 216.535 5.63859 -2.34297 0
M  V30 2371 H 217.949 4.09651 -4.01073 0
M  V30 2372 H 216.346 3.72173 -4.70752 0
M  V30 2373 H 217.416 2.39665 -4.21532 0
M  V30 2374 N 218.759 1.29093 0.90403 0
M  V30 2375 C 219.691 1.09658 2.01266 0
M  V30 2376 C 220.704 0.0453729 1.62737 0
M  V30 2377 O 221.893 0.289446 1.76138 0
M  V30 2378 C 218.993 0.646278 3.32681 0
M  V30 2379 C 218.166 1.77505 3.99763 0
M  V30 2380 C 217.225 1.31649 5.09465 0
M  V30 2381 O 216.251 2.02045 5.32134 0
M  V30 2382 N 217.453 0.184997 5.80205 0
M  V30 2383 H 220.218 2.05135 2.18494 0
M  V30 2384 H 217.779 1.20975 1.07594 0
M  V30 2385 H 219.771 0.322906 4.0341 0
M  V30 2386 H 218.341 -0.215916 3.11853 0
M  V30 2387 H 217.561 2.26752 3.22455 0
M  V30 2388 H 218.849 2.53198 4.41325 0
M  V30 2389 H 218.247 -0.402021 5.6427 0
M  V30 2390 H 216.804 -0.0790358 6.51752 0
M  V30 2391 N 220.237 -1.11381 1.11499 0
M  V30 2392 C 221.169 -2.17207 0.731704 0
M  V30 2393 C 222.182 -1.61066 -0.236957 0
M  V30 2394 O 223.371 -1.78489 -0.0197591 0
M  V30 2395 C 220.471 -3.38846 0.0607624 0
M  V30 2396 C 219.644 -4.24451 1.0564 0
M  V30 2397 C 218.703 -5.24562 0.4149 0
M  V30 2398 O 217.729 -5.59071 1.069 0
M  V30 2399 N 218.931 -5.74651 -0.821943 0
M  V30 2400 H 221.696 -2.50699 1.64225 0
M  V30 2401 H 219.257 -1.26908 1.00529 0
M  V30 2402 H 221.249 -4.02911 -0.380139 0
M  V30 2403 H 219.819 -3.03411 -0.752376 0
M  V30 2404 H 219.039 -3.56833 1.67524 0
M  V30 2405 H 220.327 -4.78486 1.72998 0
M  V30 2406 H 219.725 -5.48797 -1.37252 0
M  V30 2407 H 218.282 -6.40549 -1.20582 0
M  V30 2408 N 221.715 -0.905404 -1.28997 0
M  V30 2409 C 222.94 -0.549175 -1.99997 0
M  V30 2410 C 223.365 0.860276 -1.67275 0
M  V30 2411 O 222.723 1.57355 -0.900502 0
M  V30 2412 C 222.771 -0.755185 -3.52604 0
M  V30 2413 O 221.875 0.189692 -4.11964 0
M  V30 2414 H 221.216 -0.213899 -0.628604 0
M  V30 2415 H 223.746 -1.21856 -1.64354 0
M  V30 2416 H 223.756 -0.662045 -4.02593 0
M  V30 2417 H 222.431 -1.78271 -3.75755 0
M  V30 2418 H 221.008 0.0485257 -3.72868 0
M  V30 2419 N 223.193 1.4272 -0.668489 0
M  V30 2420 C 224.123 2.335 -0.000100175 0
M  V30 2421 C 225.104 1.50328 0.795964 0
M  V30 2422 O 226.289 1.78949 0.754385 0
M  V30 2423 C 223.419 3.33874 0.956302 0
M  V30 2424 C 222.373 4.27152 0.269278 0
M  V30 2425 C 221.699 5.17684 1.33818 0
M  V30 2426 C 222.999 5.15373 -0.847805 0
M  V30 2427 H 224.693 2.89639 -0.758244 0
M  V30 2428 H 222.239 1.39269 -0.366079 0
M  V30 2429 H 224.192 3.9629 1.43292 0
M  V30 2430 H 222.916 2.76025 1.74579 0
M  V30 2431 H 221.575 3.66123 -0.187042 0
M  V30 2432 H 221.223 4.56165 2.1195 0
M  V30 2433 H 220.923 5.80918 0.883659 0
M  V30 2434 H 222.447 5.82974 1.81586 0
M  V30 2435 H 223.861 5.7151 -0.452681 0
M  V30 2436 H 222.258 5.87407 -1.22773 0
M  V30 2437 H 223.328 4.5415 -1.69929 0
M  V30 2438 N 224.671 0.411399 1.52136 0
M  V30 2439 C 225.581 -0.419774 2.30814 0
M  V30 2440 C 226.597 -1.0515 1.38634 0
M  V30 2441 O 227.773 -1.05252 1.71709 0
M  V30 2442 C 224.838 -1.52019 3.11594 0
M  V30 2443 C 223.899 -0.91129 4.19516 0
M  V30 2444 C 223.132 -1.95927 4.96436 0
M  V30 2445 O 223.355 -3.17775 4.73683 0
M  V30 2446 O 222.289 -1.56423 5.81219 0
M  V30 2447 H 226.115 0.221805 3.02889 0
M  V30 2448 H 223.7 0.174547 1.48377 0
M  V30 2449 H 225.582 -2.15898 3.61892 0
M  V30 2450 H 224.257 -2.14633 2.42311 0
M  V30 2451 H 223.164 -0.235157 3.7336 0
M  V30 2452 H 224.497 -0.32904 4.91099 0
M  V30 2453 N 226.149 -1.5696 0.141893 0
M  V30 2454 C 227.565 -1.58151 -0.21456 0
M  V30 2455 C 227.765 -1.1559 -1.65049 0
M  V30 2456 O 226.821 -0.853832 -2.37626 0
M  V30 2457 C 228.134 -3.00674 0.0395576 0
M  V30 2458 C 229.682 -3.1299 -0.0245529 0
M  V30 2459 C 230.157 -4.57554 0.202167 0
M  V30 2460 N 231.648 -4.62961 0.148919 0
M  V30 2461 C 232.383 -5.7262 0.298924 0
M  V30 2462 N 231.879 -6.90947 0.50637 0
M  V30 2463 N 233.672 -5.61601 0.236886 0
M  V30 2464 H 225.823 -1.8292 1.07953 0
M  V30 2465 H 228.086 -0.846425 0.42693 0
M  V30 2466 H 227.792 -3.36183 1.03315 0
M  V30 2467 H 227.666 -3.70981 -0.682143 0
M  V30 2468 H 230.053 -2.77326 -1.00869 0
M  V30 2469 H 230.134 -2.4518 0.729396 0
M  V30 2470 H 229.778 -4.93922 1.18338 0
M  V30 2471 H 229.708 -5.23484 -0.572044 0
M  V30 2472 H 232.199 -3.77899 -0.00697015 0
M  V30 2473 H 232.512 -7.7038 0.611076 0
M  V30 2474 H 230.857 -6.92878 0.542628 0
M  V30 2475 H 234.048 -4.68039 0.0756209 0
M  V30 2476 H 234.221 -6.47015 0.357227 0
M  V30 2477 N 227.627 0.131896 -1.57047 0
M  V30 2478 C 228.537 1.1815 -2.02676 0
M  V30 2479 C 229.553 1.46113 -0.944824 0
M  V30 2480 O 230.729 1.57485 -1.25541 0
M  V30 2481 C 227.794 2.49139 -2.41103 0
M  V30 2482 C 226.855 2.28688 -3.63318 0
M  V30 2483 C 226.088 3.53431 -3.99903 0
M  V30 2484 O 226.311 4.60223 -3.36973 0
M  V30 2485 O 225.245 3.45198 -4.93074 0
M  V30 2486 H 229.071 0.824069 -2.92306 0
M  V30 2487 H 226.656 0.341745 -1.45439 0
M  V30 2488 H 228.538 3.26338 -2.66611 0
M  V30 2489 H 227.213 2.84382 -1.54624 0
M  V30 2490 H 226.12 1.4939 -3.42977 0
M  V30 2491 H 227.453 1.98355 -4.50462 0
M  V30 2492 N 229.106 1.52395 0.401703 0
M  V30 2493 C 230.522 1.41363 0.740864 0
M  V30 2494 C 230.722 0.523982 1.94568 0
M  V30 2495 O 229.778 -0.00741204 2.52499 0
M  V30 2496 C 231.091 2.84011 0.987847 0
M  V30 2497 C 232.639 2.93404 1.09011 0
M  V30 2498 C 233.114 4.37036 1.3698 0
M  V30 2499 N 234.605 4.40304 1.43829 0
M  V30 2500 C 235.34 5.48508 1.67112 0
M  V30 2501 N 234.836 6.66819 1.87949 0
M  V30 2502 N 236.629 5.36034 1.69187 0
M  V30 2503 H 228.78 2.08765 -0.391262 0
M  V30 2504 H 231.043 0.941265 -0.112798 0
M  V30 2505 H 230.749 3.51265 0.174835 0
M  V30 2506 H 230.623 3.25502 1.906 0
M  V30 2507 H 233.01 2.26325 1.8937 0
M  V30 2508 H 233.091 2.55359 0.15015 0
M  V30 2509 H 232.735 5.04676 0.571353 0
M  V30 2510 H 232.665 4.72623 2.3224 0
M  V30 2511 H 235.156 3.55024 1.29486 0
M  V30 2512 H 235.469 7.45063 2.05185 0
M  V30 2513 H 233.814 6.6987 1.85199 0
M  V30 2514 H 237.005 4.42579 1.52451 0
M  V30 2515 H 237.178 6.20434 1.86993 0
M  V30 2516 N 230.584 -0.659388 1.43143 0
M  V30 2517 C 231.514 -1.78422 1.50625 0
M  V30 2518 C 232.495 -1.66216 0.361443 0
M  V30 2519 O 233.68 -1.85404 0.577834 0
M  V30 2520 C 230.81 -3.16815 1.42287 0
M  V30 2521 C 229.764 -3.43777 2.54954 0
M  V30 2522 C 229.09 -4.81905 2.31671 0
M  V30 2523 C 230.39 -3.39134 3.97222 0
M  V30 2524 H 232.084 -1.72417 2.44771 0
M  V30 2525 H 229.63 -0.828084 1.17808 0
M  V30 2526 H 231.583 -3.95253 1.46127 0
M  V30 2527 H 230.307 -3.23534 0.446435 0
M  V30 2528 H 228.966 -2.67707 2.50457 0
M  V30 2529 H 228.614 -4.85294 1.32284 0
M  V30 2530 H 228.314 -5.00906 3.07192 0
M  V30 2531 H 229.838 -5.62609 2.37284 0
M  V30 2532 H 231.252 -4.07518 4.03239 0
M  V30 2533 H 229.649 -3.69671 4.72719 0
M  V30 2534 H 230.719 -2.37426 4.22797 0
M  V30 2535 N 232.062 -1.29571 -0.897171 0
M  V30 2536 C 233.287 -1.20705 -1.68656 0
M  V30 2537 C 233.712 0.228582 -1.86706 0
M  V30 2538 O 233.07 1.16494 -1.3892 0
M  V30 2539 C 233.118 -1.9282 -3.04717 0
M  V30 2540 O 232.222 -1.24697 -3.93096 0
M  V30 2541 H 231.563 -0.418126 -0.515816 0
M  V30 2542 H 234.093 -1.71183 -1.12061 0
M  V30 2543 H 234.103 -2.01372 -3.54843 0
M  V30 2544 H 232.778 -2.97239 -2.90899 0
M  V30 2545 H 231.355 -1.2442 -3.51531 0
M  V30 2546 N 233.54 1.10788 -1.12088 0
M  V30 2547 C 234.47 2.19083 -0.807755 0
M  V30 2548 C 235.451 1.6858 0.226859 0
M  V30 2549 O 236.636 1.93997 0.0888475 0
M  V30 2550 C 233.766 3.46344 -0.257576 0
M  V30 2551 C 232.72 4.101 -1.22483 0
M  V30 2552 C 232.046 5.32016 -0.535052 0
M  V30 2553 C 233.346 4.54236 -2.57811 0
M  V30 2554 H 235.04 2.45534 -1.71328 0
M  V30 2555 H 232.586 1.1801 -0.825205 0
M  V30 2556 H 234.539 4.21392 -0.0262679 0
M  V30 2557 H 233.263 3.19373 0.683278 0
M  V30 2558 H 231.922 3.37054 -1.44189 0
M  V30 2559 H 231.57 5.01319 0.410827 0
M  V30 2560 H 231.27 5.75625 -1.18024 0
M  V30 2561 H 232.794 6.09799 -0.312695 0
M  V30 2562 H 234.208 5.20575 -2.40155 0
M  V30 2563 H 232.605 5.08682 -3.18375 0
M  V30 2564 H 233.675 3.6734 -3.16528 0
M  V30 2565 N 235.018 0.912232 1.28515 0
M  V30 2566 C 236.266 0.543523 1.94654 0
M  V30 2567 C 236.587 -0.9155 1.72173 0
M  V30 2568 O 235.857 -1.64708 1.06058 0
M  V30 2569 H 234.437 0.198017 0.720277 0
M  V30 2570 H 237.099 1.16126 1.56527 0
M  V30 2571 H 236.195 0.736684 3.03281 0
M  V30 2572 N 236.496 -1.42363 0.676048 0
M  V30 2573 C 237.724 -2.05859 0.207268 0
M  V30 2574 C 238.139 -1.50796 -1.13605 0
M  V30 2575 O 237.496 -0.648265 -1.70598 0
M  V30 2576 C 237.547 -3.61248 0.134975 0
M  V30 2577 O 237.268 -4.1427 1.42521 0
M  V30 2578 C 238.769 -4.41859 -0.357151 0
M  V30 2579 H 235.989 -0.663431 0.100503 0
M  V30 2580 H 238.533 -1.82479 0.923136 0
M  V30 2581 H 236.688 -3.83735 -0.531588 0
M  V30 2582 H 237.102 -5.0815 1.29939 0
M  V30 2583 H 238.576 -5.50847 -0.356641 0
M  V30 2584 H 239.053 -4.16536 -1.39264 0
M  V30 2585 H 239.659 -4.24392 0.27772 0
M  V30 2586 N 237.974 -0.419461 -1.51915 0
M  V30 2587 C 239.199 0.154572 -2.06823 0
M  V30 2588 C 239.624 1.3722 -1.28656 0
M  V30 2589 O 238.982 1.78461 -0.319583 0
M  V30 2590 C 239.03 0.473172 -3.57482 0
M  V30 2591 O 238.134 1.56255 -3.81652 0
M  V30 2592 H 237.475 0.0096924 -0.663929 0
M  V30 2593 H 240.005 -0.595642 -1.95738 0
M  V30 2594 H 240.015 0.728825 -4.01438 0
M  V30 2595 H 238.69 -0.416873 -4.13805 0
M  V30 2596 H 237.267 1.29825 -3.49571 0
M  V30 2597 N 239.452 1.56882 -0.150215 0
M  V30 2598 C 240.362 2.20494 0.801222 0
M  V30 2599 C 241.378 1.19019 1.26927 0
M  V30 2600 O 242.554 1.51607 1.32579 0
M  V30 2601 C 239.619 2.81659 2.02161 0
M  V30 2602 C 238.68 3.9827 1.60249 0
M  V30 2603 C 237.913 4.56508 2.7647 0
M  V30 2604 O 238.136 4.13627 3.92771 0
M  V30 2605 O 237.07 5.46719 2.51757 0
M  V30 2606 H 240.896 3.02315 0.289717 0
M  V30 2607 H 238.481 1.49202 0.0769684 0
M  V30 2608 H 240.363 3.20522 2.73576 0
M  V30 2609 H 239.038 2.02849 2.52258 0
M  V30 2610 H 237.945 3.64117 0.858477 0
M  V30 2611 H 239.278 4.78609 1.14864 0
M  V30 2612 N 240.93 -0.123565 1.57115 0
M  V30 2613 C 241.86 -1.15309 2.03042 0
M  V30 2614 C 242.841 -1.43454 0.914061 0
M  V30 2615 O 244.026 -1.53973 1.18347 0
M  V30 2616 C 241.156 -2.48043 2.43089 0
M  V30 2617 C 240.11 -2.3437 3.58127 0
M  V30 2618 C 239.436 -3.72026 3.84059 0
M  V30 2619 C 240.736 -1.80804 4.90007 0
M  V30 2620 H 242.43 -0.771102 2.893 0
M  V30 2621 H 239.976 -0.369479 1.39179 0
M  V30 2622 H 241.929 -3.20311 2.73823 0
M  V30 2623 H 240.653 -2.88122 1.53796 0
M  V30 2624 H 239.312 -1.64551 3.27595 0
M  V30 2625 H 238.96 -4.09582 2.91979 0
M  V30 2626 H 238.66 -3.63732 4.6149 0
M  V30 2627 H 240.184 -4.45806 4.1724 0
M  V30 2628 H 241.598 -2.42886 5.19307 0
M  V30 2629 H 239.995 -1.83343 5.71407 0
M  V30 2630 H 241.065 -0.76528 4.78823 0
M  V30 2631 N 242.408 -1.52605 -0.393616 0
M  V30 2632 C 243.685 -1.58001 -1.15304 0
M  V30 2633 C 244.065 -0.370385 -2.07825 0
M  V30 2634 O 243.413 0.641638 -2.19306 0
M  V30 2635 C 243.623 -2.91652 -1.91677 0
M  V30 2636 C 244.971 -3.4522 -2.47201 0
M  V30 2637 O 245.995 -2.93495 -2.01839 0
M  V30 2638 O 244.854 -4.35579 -3.3005 0
M  V30 2639 H 241.948 -0.637068 -0.527327 0
M  V30 2640 H 244.494 -1.64939 -0.399141 0
M  V30 2641 H 243.266 -3.71136 -1.23992 0
M  V30 2642 H 242.889 -2.88077 -2.74039 0
M  V30 2643 N 243.887 0.651787 -1.4349 0
M  V30 2644 C 244.82 1.77668 -1.43211 0
M  V30 2645 C 245.798 1.59931 -0.29338 0
M  V30 2646 O 246.982 1.82095 -0.487191 0
M  V30 2647 C 244.109 3.14986 -1.24505 0
M  V30 2648 C 243.155 3.51421 -2.41673 0
M  V30 2649 S 243.988 3.51234 -4.04222 0
M  V30 2650 C 245.144 4.91206 -3.87902 0
M  V30 2651 H 245.377 1.77635 -2.38397 0
M  V30 2652 H 242.91 0.824558 -1.30539 0
M  V30 2653 H 244.868 3.94237 -1.144 0
M  V30 2654 H 243.529 3.1258 -0.308651 0
M  V30 2655 H 242.722 4.51291 -2.24393 0
M  V30 2656 H 242.324 2.79585 -2.48411 0
M  V30 2657 H 244.616 5.79902 -3.50315 0
M  V30 2658 H 245.559 5.13537 -4.8753 0
M  V30 2659 H 245.967 4.64808 -3.20334 0
M  V30 2660 N 245.365 1.30045 0.890287 0
M  V30 2661 C 246.613 1.18327 1.63839 0
M  V30 2662 C 246.934 -0.263455 1.93212 0
M  V30 2663 O 246.204 -1.17856 1.56482 0
M  V30 2664 H 244.784 0.434933 0.607324 0
M  V30 2665 H 247.446 1.631 1.06698 0
M  V30 2666 H 246.542 1.74024 2.59079 0
M  V30 2667 N 246.843 -1.10192 1.12674 0
M  V30 2668 C 247.79 -2.16606 0.796906 0
M  V30 2669 C 248.76 -1.64394 -0.237476 0
M  V30 2670 O 249.945 -1.90474 -0.111484 0
M  V30 2671 C 247.085 -3.44116 0.26043 0
M  V30 2672 C 246.198 -4.10268 1.35293 0
M  V30 2673 C 245.333 -5.25507 0.775621 0
M  V30 2674 C 244.372 -5.83567 1.84706 0
M  V30 2675 N 243.509 -6.90179 1.28829 0
M  V30 2676 H 248.349 -2.44163 1.70846 0
M  V30 2677 H 245.886 -1.19846 0.85295 0
M  V30 2678 H 247.844 -4.17143 -0.0686814 0
M  V30 2679 H 246.474 -3.16901 -0.614274 0
M  V30 2680 H 245.526 -3.35184 1.79877 0
M  V30 2681 H 246.838 -4.4946 2.16303 0
M  V30 2682 H 245.992 -6.05398 0.397327 0
M  V30 2683 H 244.731 -4.87656 -0.0656581 0
M  V30 2684 H 243.736 -5.02344 2.23452 0
M  V30 2685 H 244.961 -6.23482 2.69161 0
M  V30 2686 H 242.907 -6.54322 0.468881 0
M  V30 2687 H 242.824 -7.28097 2.03497 0
M  V30 2688 H 244.092 -7.73844 0.937311 0
M  V30 2689 N 248.321 -0.919034 -1.28029 0
M  V30 2690 C 249.569 -0.553838 -1.94363 0
M  V30 2691 C 249.89 0.906357 -1.72656 0
M  V30 2692 O 249.16 1.64143 -1.0693 0
M  V30 2693 H 247.74 -0.201834 -0.719216 0
M  V30 2694 H 250.402 -1.16954 -1.55909 0
M  V30 2695 H 249.498 -0.752758 -3.02886 0
M  V30 2696 N 249.799 1.42003 -0.683588 0
M  V30 2697 C 251.21 1.84501 -0.285736 0
M  V30 2698 C 251.561 1.57213 1.17382 0
M  V30 2699 O 250.686 1.03642 1.89966 0
M  V30 2700 C 251.281 3.34912 -0.511821 0
M  V30 2701 C 249.84 3.76025 -0.168005 0
M  V30 2702 C 248.987 2.6551 -0.799983 0
M  V30 2703 H 251.938 1.31724 -0.885119 0
M  V30 2704 H 251.959 3.79784 0.233292 0
M  V30 2705 H 251.471 3.54741 -1.57418 0
M  V30 2706 H 249.572 3.61801 0.890567 0
M  V30 2707 H 249.685 4.75141 -0.614661 0
M  V30 2708 H 248.049 2.53654 -0.230568 0
M  V30 2709 H 248.832 2.8816 -1.86597 0
M  V30 2710 N 251.277 0.427512 1.51691 0
M  V30 2711 C 252.21 -0.433876 2.24037 0
M  V30 2712 C 253.188 -1.03287 1.25581 0
M  V30 2713 O 254.372 -1.07722 1.54688 0
M  V30 2714 C 251.499 -1.60385 2.98319 0
M  V30 2715 C 250.545 -1.12648 4.11355 0
M  V30 2716 S 251.378 -0.076543 5.35445 0
M  V30 2717 C 252.534 -1.25141 6.13262 0
M  V30 2718 H 252.767 0.180367 2.96752 0
M  V30 2719 H 250.3 0.211946 1.52938 0
M  V30 2720 H 252.258 -2.27462 3.41718 0
M  V30 2721 H 250.919 -2.18948 2.25213 0
M  V30 2722 H 250.112 -2.0011 4.62571 0
M  V30 2723 H 249.714 -0.534088 3.70167 0
M  V30 2724 H 252.006 -2.17162 6.41753 0
M  V30 2725 H 252.949 -0.779411 7.03797 0
M  V30 2726 H 253.357 -1.48553 5.44603 0
M  V30 2727 N 252.755 -1.56801 0.158532 0
M  V30 2728 C 253.985 -2.00568 -0.495583 0
M  V30 2729 C 254.393 -1.03774 -1.58201 0
M  V30 2730 O 253.736 -0.0285797 -1.83678 0
M  V30 2731 C 253.798 -3.40768 -1.14532 0
M  V30 2732 C 253.462 -4.56553 -0.202101 0
M  V30 2733 C 254.459 -5.16714 0.574675 0
M  V30 2734 C 252.144 -5.02197 -0.101648 0
M  V30 2735 C 254.138 -6.20939 1.43924 0
M  V30 2736 C 251.825 -6.06274 0.766508 0
M  V30 2737 C 252.823 -6.65515 1.53555 0
M  V30 2738 O 252.511 -7.67575 2.38922 0
M  V30 2739 H 252.243 -0.662893 -0.13247 0
M  V30 2740 H 254.797 -2.03829 0.253559 0
M  V30 2741 H 253.027 -3.34381 -1.94233 0
M  V30 2742 H 254.716 -3.6857 -1.70033 0
M  V30 2743 H 255.482 -4.82341 0.507167 0
M  V30 2744 H 251.361 -4.55807 -0.689994 0
M  V30 2745 H 254.905 -6.67107 2.03996 0
M  V30 2746 H 250.802 -6.40073 0.835266 0
M  V30 2747 H 251.57 -7.84844 2.32296 0
M  V30 2748 N 254.233 0.115231 -1.57178 0
M  V30 2749 C 255.51 0.852873 -1.76027 0
M  V30 2750 C 255.89 1.97892 -0.73498 0
M  V30 2751 O 255.238 2.27232 0.24036 0
M  V30 2752 C 255.448 1.36608 -3.21153 0
M  V30 2753 C 256.796 1.81692 -3.83762 0
M  V30 2754 O 257.82 1.46278 -3.24779 0
M  V30 2755 O 256.679 2.47104 -4.87444 0
M  V30 2756 H 253.773 0.405296 -0.720877 0
M  V30 2757 H 256.319 0.0986785 -1.69413 0
M  V30 2758 H 255.091 0.558357 -3.87296 0
M  V30 2759 H 254.714 2.18287 -3.3232 0
M  V30 2760 N 255.711 1.52812 0.385517 0
M  V30 2761 C 256.957 1.68275 1.13188 0
M  V30 2762 C 257.29 0.423179 1.89533 0
M  V30 2763 O 256.565 -0.579113 1.85679 0
M  V30 2764 C 256.848 2.92001 2.1073 0
M  V30 2765 C 256.701 4.28067 1.38125 0
M  V30 2766 C 258.02 3.11283 3.11113 0
M  V30 2767 H 255.139 0.612352 0.410115 0
M  V30 2768 H 257.781 1.85415 0.414869 0
M  V30 2769 H 255.931 2.77519 2.71874 0
M  V30 2770 H 257.603 4.54324 0.799187 0
M  V30 2771 H 255.846 4.28388 0.683092 0
M  V30 2772 H 256.517 5.10733 2.09417 0
M  V30 2773 H 258.993 3.2482 2.6006 0
M  V30 2774 H 257.869 3.99325 3.76605 0
M  V30 2775 H 258.13 2.25656 3.80173 0
M  V30 2776 N 257.189 -0.644168 1.43834 0
M  V30 2777 C 258.099 -1.78563 1.52159 0
M  V30 2778 C 259.115 -1.69147 0.408069 0
M  V30 2779 O 260.291 -1.90156 0.663524 0
M  V30 2780 C 257.356 -3.14888 1.45073 0
M  V30 2781 C 256.417 -3.36034 2.6717 0
M  V30 2782 C 255.65 -4.65855 2.60413 0
M  V30 2783 O 255.873 -5.45805 1.65689 0
M  V30 2784 O 254.807 -4.88918 3.5106 0
M  V30 2785 H 258.633 -1.74494 2.48567 0
M  V30 2786 H 256.218 -0.80378 1.25935 0
M  V30 2787 H 258.1 -3.96179 1.43597 0
M  V30 2788 H 256.775 -3.19528 0.518037 0
M  V30 2789 H 255.682 -2.54472 2.74217 0
M  V30 2790 H 257.015 -3.36247 3.59442 0
M  V30 2791 N 258.668 -1.30515 -0.883378 0
M  V30 2792 C 259.615 -1.17032 -1.98927 0
M  V30 2793 C 260.585 -0.0594241 -1.65994 0
M  V30 2794 O 261.77 -0.229895 -1.8941 0
M  V30 2795 C 258.91 -0.869777 -3.33959 0
M  V30 2796 C 258.023 -2.06271 -3.79574 0
M  V30 2797 C 257.158 -1.70011 -5.03259 0
M  V30 2798 C 256.197 -2.8579 -5.41286 0
M  V30 2799 N 255.334 -2.49816 -6.56153 0
M  V30 2800 H 260.174 -2.1164 -2.09792 0
M  V30 2801 H 257.711 -1.05296 -1.02719 0
M  V30 2802 H 259.669 -0.676138 -4.11685 0
M  V30 2803 H 258.299 0.0394332 -3.22776 0
M  V30 2804 H 257.351 -2.36755 -2.97744 0
M  V30 2805 H 258.663 -2.92971 -4.03694 0
M  V30 2806 H 257.817 -1.47032 -5.88614 0
M  V30 2807 H 256.556 -0.804829 -4.81013 0
M  V30 2808 H 255.561 -3.09434 -4.54456 0
M  V30 2809 H 256.786 -3.76008 -5.65504 0
M  V30 2810 H 254.732 -1.62795 -6.35479 0
M  V30 2811 H 254.649 -3.30048 -6.8015 0
M  V30 2812 H 255.917 -2.30197 -7.44735 0
M  V30 2813 N 260.146 1.09593 -1.13257 0
M  V30 2814 C 261.076 2.18214 -0.830946 0
M  V30 2815 C 262.057 1.68812 0.208966 0
M  V30 2816 O 263.242 1.9408 0.0682666 0
M  V30 2817 C 260.372 3.46051 -0.294296 0
M  V30 2818 C 259.326 4.08778 -1.26826 0
M  V30 2819 C 258.652 5.31419 -0.591449 0
M  V30 2820 C 259.952 4.51476 -2.62615 0
M  V30 2821 H 261.646 2.43703 -1.73923 0
M  V30 2822 H 259.192 1.17128 -0.837675 0
M  V30 2823 H 261.145 4.2134 -0.0709606 0
M  V30 2824 H 259.869 3.20079 0.649366 0
M  V30 2825 H 258.528 3.35505 -1.47756 0
M  V30 2826 H 258.176 5.01727 0.357633 0
M  V30 2827 H 257.876 5.74341 -1.24123 0
M  V30 2828 H 259.4 6.09433 -0.377355 0
M  V30 2829 H 260.814 5.17999 -2.45663 0
M  V30 2830 H 259.211 5.05277 -3.23752 0
M  V30 2831 H 260.281 3.63962 -3.20406 0
M  V30 2832 N 261.624 0.925811 1.2754 0
M  V30 2833 C 262.87 0.566092 1.94739 0
M  V30 2834 C 263.203 -0.890057 1.72603 0
M  V30 2835 O 262.478 -1.63467 1.05399 0
M  V30 2836 C 262.761 0.89054 3.48915 0
M  V30 2837 C 262.614 2.4003 3.80402 0
M  V30 2838 C 263.933 0.395101 4.38323 0
M  V30 2839 H 261.052 0.20714 0.707292 0
M  V30 2840 H 263.694 1.15725 1.50691 0
M  V30 2841 H 261.844 0.387452 3.86563 0
M  V30 2842 H 263.516 2.97494 3.52555 0
M  V30 2843 H 261.759 2.85028 3.2702 0
M  V30 2844 H 262.43 2.57785 4.8811 0
M  V30 2845 H 264.906 0.826241 4.07814 0
M  V30 2846 H 263.782 0.651086 5.45025 0
M  V30 2847 H 264.043 -0.704798 4.36446 0
M  V30 2848 N 263.102 -1.41638 0.69111 0
M  V30 2849 C 264.518 -1.55435 0.362224 0
M  V30 2850 C 264.718 -1.66754 -1.13117 0
M  V30 2851 O 263.774 -1.64348 -1.91692 0
M  V30 2852 C 265.087 -2.79588 1.10684 0
M  V30 2853 C 266.635 -2.9338 1.09075 0
M  V30 2854 C 267.11 -4.20414 1.81703 0
M  V30 2855 N 268.601 -4.27362 1.7865 0
M  V30 2856 C 269.336 -5.24507 2.31689 0
M  V30 2857 N 268.832 -6.27708 2.93179 0
M  V30 2858 N 270.625 -5.16416 2.2197 0
M  V30 2859 H 262.776 -1.32536 1.65976 0
M  V30 2860 H 265.039 -0.639115 0.700168 0
M  V30 2861 H 264.745 -2.77419 2.16175 0
M  V30 2862 H 264.619 -3.70973 0.682545 0
M  V30 2863 H 267.006 -2.95067 0.0441238 0
M  V30 2864 H 267.087 -2.0318 1.55407 0
M  V30 2865 H 266.731 -4.19488 2.86343 0
M  V30 2866 H 266.661 -5.09578 1.32808 0
M  V30 2867 H 269.152 -3.53415 1.33815 0
M  V30 2868 H 269.465 -6.98217 3.31229 0
M  V30 2869 H 267.81 -6.28223 2.97255 0
M  V30 2870 H 271.001 -4.34716 1.73607 0
M  V30 2871 H 271.174 -5.91958 2.63609 0
M  V30 2872 N 264.58 -0.43555 -1.51462 0
M  V30 2873 C 265.808 0.130242 -2.0649 0
M  V30 2874 C 266.223 1.36614 -1.30315 0
M  V30 2875 O 265.58 1.78869 -0.362223 0
M  V30 2876 C 265.631 0.454253 -3.58635 0
M  V30 2877 O 265.352 -0.73259 -4.31931 0
M  V30 2878 C 266.853 1.07091 -4.3017 0
M  V30 2879 H 264.073 0.00871669 -0.670943 0
M  V30 2880 H 266.617 -0.614117 -1.95061 0
M  V30 2881 H 264.772 1.14851 -3.69984 0
M  V30 2882 H 265.186 -0.455787 -5.22516 0
M  V30 2883 H 266.66 1.24764 -5.37716 0
M  V30 2884 H 267.137 2.05144 -3.88346 0
M  V30 2885 H 267.743 0.416089 -4.2326 0
M  V30 2886 N 266.058 1.56714 -0.166846 0
M  V30 2887 C 267.474 1.58473 0.189372 0
M  V30 2888 C 267.674 1.18201 1.63189 0
M  V30 2889 O 266.73 0.891528 2.36237 0
M  V30 2890 C 268.043 3.00573 -0.0873872 0
M  V30 2891 C 269.591 3.1299 -0.0252443 0
M  V30 2892 C 270.066 4.57174 -0.274934 0
M  V30 2893 N 271.557 4.62665 -0.222553 0
M  V30 2894 C 272.292 5.72072 -0.389985 0
M  V30 2895 N 271.788 6.90054 -0.616229 0
M  V30 2896 N 273.581 5.61153 -0.326202 0
M  V30 2897 H 265.732 1.8118 -1.10849 0
M  V30 2898 H 267.995 0.839525 -0.440342 0
M  V30 2899 H 267.701 3.34497 -1.0865 0
M  V30 2900 H 267.575 3.72019 0.623037 0
M  V30 2901 H 269.962 2.78895 0.96444 0
M  V30 2902 H 270.043 2.43989 -0.768309 0
M  V30 2903 H 269.687 4.91976 -1.26181 0
M  V30 2904 H 269.617 5.24328 0.48869 0
M  V30 2905 H 272.108 3.77863 -0.0531512 0
M  V30 2906 H 272.421 7.69311 -0.733559 0
M  V30 2907 H 270.766 6.91927 -0.652791 0
M  V30 2908 H 273.957 4.67859 -0.150072 0
M  V30 2909 H 274.13 6.46364 -0.460116 0
M  V30 2910 N 267.536 -0.106894 1.57237 0
M  V30 2911 C 268.761 -0.830287 1.90055 0
M  V30 2912 C 269.186 -1.72064 0.75998 0
M  V30 2913 O 268.544 -1.78982 -0.288991 0
M  V30 2914 C 268.592 -1.6295 3.21683 0
M  V30 2915 O 267.696 -2.73748 3.08441 0
M  V30 2916 H 267.037 -0.228855 0.623315 0
M  V30 2917 H 269.567 -0.085658 2.04421 0
M  V30 2918 H 269.577 -2.01621 3.54701 0
M  V30 2919 H 268.252 -0.975989 4.04286 0
M  V30 2920 H 266.829 -2.38192 2.86913 0
M  V30 2921 N 269.014 -1.53014 -0.377408 0
M  V30 2922 C 270.254 -1.70318 -1.1301 0
M  V30 2923 C 270.618 -0.439538 -1.86901 0
M  V30 2924 O 271.819 -0.489095 -2.64313 0
M  V30 2925 C 270.09 -2.91125 -2.07319 0
M  V30 2926 S 271.649 -3.29075 -2.90268 0
M  V30 2927 H 268.467 -0.599426 -0.382374 0
M  V30 2928 H 271.069 -1.91089 -0.412933 0
M  V30 2929 H 269.773 -3.81303 -1.51777 0
M  V30 2930 H 269.304 -2.7272 -2.83526 0
M  V30 2931 H 271.319 -2.80165 -4.09539 0
M  V30 2932 N 270.492 0.636531 -1.44174 0
M  V30 2933 C 271.908 0.954104 -1.27941 0
M  V30 2934 C 272.108 2.0039 -0.211248 0
M  V30 2935 O 271.164 2.49236 0.404695 0
M  V30 2936 C 272.477 1.4225 -2.64925 0
M  V30 2937 C 274.025 1.53827 -2.72592 0
M  V30 2938 C 274.5 2.04053 -4.10032 0
M  V30 2939 N 275.991 2.11331 -4.12182 0
M  V30 2940 C 276.726 2.51352 -5.15374 0
M  V30 2941 N 276.222 2.90549 -6.2893 0
M  V30 2942 N 278.015 2.51438 -5.02728 0
M  V30 2943 H 270.166 -0.0578386 -2.12321 0
M  V30 2944 H 272.429 0.0367406 -0.947288 0
M  V30 2945 H 272.135 0.725466 -3.44136 0
M  V30 2946 H 272.009 2.39451 -2.9145 0
M  V30 2947 H 274.396 2.22628 -1.93702 0
M  V30 2948 H 274.477 0.550154 -2.49814 0
M  V30 2949 H 274.121 1.35848 -4.89395 0
M  V30 2950 H 274.051 3.03726 -4.30184 0
M  V30 2951 H 276.542 1.83745 -3.30222 0
M  V30 2952 H 276.855 3.19884 -7.03487 0
M  V30 2953 H 275.2 2.88313 -6.32377 0
M  V30 2954 H 278.391 2.20203 -4.13072 0
M  V30 2955 H 278.564 2.82304 -5.83274 0
M  V30 2956 N 271.97 1.30982 0.876444 0
M  V30 2957 C 273.386 1.09498 1.16113 0
M  V30 2958 C 273.586 -0.13875 2.01022 0
M  V30 2959 O 272.642 -0.829935 2.38471 0
M  V30 2960 C 273.955 2.36308 1.85954 0
M  V30 2961 C 275.503 2.41856 1.98683 0
M  V30 2962 C 275.978 3.6853 2.71937 0
M  V30 2963 N 277.469 3.69387 2.79477 0
M  V30 2964 C 278.204 4.64096 3.36753 0
M  V30 2965 N 277.7 5.69155 3.95012 0
M  V30 2966 N 279.493 4.51626 3.3465 0
M  V30 2967 H 271.644 2.10118 0.310494 0
M  V30 2968 H 273.907 0.926634 0.200131 0
M  V30 2969 H 273.613 3.26388 1.31011 0
M  V30 2970 H 273.487 2.4561 2.86278 0
M  V30 2971 H 275.874 1.52249 2.52793 0
M  V30 2972 H 275.955 2.36523 0.9742 0
M  V30 2973 H 275.599 4.58499 2.18496 0
M  V30 2974 H 275.529 3.71127 3.73593 0
M  V30 2975 H 278.02 2.93438 2.38123 0
M  V30 2976 H 278.333 6.3751 4.36808 0
M  V30 2977 H 276.678 5.72937 3.93406 0
M  V30 2978 H 279.869 3.68728 2.8837 0
M  V30 2979 H 280.042 5.25614 3.7899 0
M  V30 2980 N 273.449 -1.08991 1.13837 0
M  V30 2981 C 274.674 -1.85551 0.926585 0
M  V30 2982 C 275.099 -1.80782 -0.519566 0
M  V30 2983 O 274.457 -1.18855 -1.36906 0
M  V30 2984 C 274.505 -3.31266 1.42462 0
M  V30 2985 O 273.609 -4.07822 0.612789 0
M  V30 2986 H 272.95 -0.575192 0.331738 0
M  V30 2987 H 275.48 -1.37604 1.51414 0
M  V30 2988 H 275.49 -3.82112 1.43019 0
M  V30 2989 H 274.165 -3.34052 2.47754 0
M  V30 2990 H 272.742 -3.66731 0.675463 0
M  V30 2991 N 274.927 -0.932562 -1.27047 0
M  V30 2992 C 276.338 -0.619451 -1.76124 0
M  V30 2993 C 276.689 0.865397 -1.76083 0
M  V30 2994 O 275.814 1.67722 -1.36742 0
M  V30 2995 C 276.409 -1.11771 -3.19832 0
M  V30 2996 C 274.968 -0.855174 -3.66557 0
M  V30 2997 C 274.115 -1.27362 -2.46321 0
M  V30 2998 H 277.066 -1.11181 -1.13245 0
M  V30 2999 H 277.087 -0.46759 -3.77616 0
M  V30 3000 H 276.599 -2.19842 -3.1983 0
M  V30 3001 H 274.7 0.211524 -3.71999 0
M  V30 3002 H 274.813 -1.47613 -4.55793 0
M  V30 3003 H 273.177 -0.692119 -2.45116 0
M  V30 3004 H 273.96 -2.36307 -2.49025 0
M  V30 3005 N 276.405 1.4127 -0.698611 0
M  V30 3006 C 277.315 2.34573 -0.0357891 0
M  V30 3007 C 278.331 1.56393 0.762701 0
M  V30 3008 O 279.507 1.8886 0.699564 0
M  V30 3009 C 276.572 3.35159 0.887089 0
M  V30 3010 C 275.633 4.29225 0.0804634 0
M  V30 3011 C 274.866 5.25006 0.959387 0
M  V30 3012 O 275.089 5.26314 2.19886 0
M  V30 3013 O 274.023 6.00519 0.407439 0
M  V30 3014 H 277.849 2.92838 -0.804957 0
M  V30 3015 H 275.434 1.42175 -0.458966 0
M  V30 3016 H 277.316 3.9689 1.41621 0
M  V30 3017 H 275.991 2.79333 1.6357 0
M  V30 3018 H 274.898 3.70833 -0.493328 0
M  V30 3019 H 276.231 4.88157 -0.629547 0
M  V30 3020 N 277.883 0.443576 1.51229 0
M  V30 3021 C 278.846 -0.353132 2.26463 0
M  V30 3022 C 279.846 -0.944338 1.3015 0
M  V30 3023 O 281.036 -0.817813 1.5381 0
M  V30 3024 C 278.168 -1.50023 3.06114 0
M  V30 3025 H 279.361 0.3063 2.98332 0
M  V30 3026 H 276.914 0.196902 1.55055 0
M  V30 3027 H 277.649 -2.19553 2.38677 0
M  V30 3028 H 277.434 -1.08241 3.76864 0
M  V30 3029 H 278.924 -2.06296 3.63087 0
M  V30 3030 N 279.361 -1.56624 0.175154 0
M  V30 3031 C 280.309 -2.19468 -0.770495 0
M  V30 3032 C 281.303 -1.15985 -1.23466 0
M  V30 3033 O 282.509 -1.34176 -1.19987 0
M  V30 3034 H 278.884 -0.703095 -0.266761 0
M  V30 3035 H 280.855 -2.97613 -0.216542 0
M  V30 3036 C 279.604 -2.85264 -1.98796 0
M  V30 3037 H 278.927 -3.64623 -1.63983 0
M  V30 3038 H 280.367 -3.327 -2.62843 0
M  V30 3039 C 278.826 -1.85239 -2.81404 0
M  V30 3040 O 279.356 -1.34024 -3.78682 0
M  V30 3041 N 277.562 -1.53911 -2.46495 0
M  V30 3042 H 277.109 -1.95751 -1.67449 0
M  V30 3043 H 277.067 -0.872382 -3.02054 0
M  V30 3044 N 280.839 0.0985539 -1.57292 0
M  V30 3045 C 282.25 0.653457 -1.74891 0
M  V30 3046 C 282.601 1.7929 -0.796838 0
M  V30 3047 O 281.726 2.16385 0.0254886 0
M  V30 3048 C 282.321 1.19216 -3.17133 0
M  V30 3049 C 280.88 1.69316 -3.36168 0
M  V30 3050 C 280.027 0.601294 -2.70702 0
M  V30 3051 H 282.978 -0.127497 -1.58187 0
M  V30 3052 H 282.999 2.06154 -3.19814 0
M  V30 3053 H 282.511 0.362635 -3.86402 0
M  V30 3054 H 280.612 2.5468 -2.71972 0
M  V30 3055 H 280.725 1.78853 -4.44464 0
M  V30 3056 H 279.089 1.0399 -2.32504 0
M  V30 3057 H 279.872 -0.217592 -3.4261 0
M  V30 3058 N 282.317 1.53212 0.369288 0
M  V30 3059 C 283.28 1.7872 1.43498 0
M  V30 3060 C 284.28 0.657554 1.46741 0
M  V30 3061 O 285.47 0.925736 1.47566 0
M  V30 3062 C 282.602 1.90591 2.82645 0
M  V30 3063 H 283.795 2.73894 1.22156 0
M  V30 3064 H 281.348 1.44233 0.602203 0
M  V30 3065 H 282.083 0.974709 3.09306 0
M  V30 3066 H 281.868 2.72751 2.8169 0
M  V30 3067 H 283.358 2.11931 3.59826 0
M  V30 3068 N 283.795 -0.628877 1.44509 0
M  V30 3069 C 285.02 -1.42048 1.5112 0
M  V30 3070 C 285.445 -1.87594 0.137818 0
M  V30 3071 O 284.803 -1.58873 -0.873437 0
M  V30 3072 C 284.851 -2.61541 2.48251 0
M  V30 3073 O 283.955 -3.61453 1.98559 0
M  V30 3074 H 283.296 -0.424942 0.510216 0
M  V30 3075 H 285.826 -0.767374 1.89664 0
M  V30 3076 H 285.836 -3.09057 2.66361 0
M  V30 3077 H 284.511 -2.27736 3.48007 0
M  V30 3078 H 283.088 -3.20731 1.90227 0
M  V30 3079 N 285.273 -1.31445 -0.869486 0
M  V30 3080 C 286.521 -1.20918 -1.61936 0
M  V30 3081 C 286.842 0.232683 -1.93607 0
M  V30 3082 O 286.112 1.15352 -1.58338 0
M  V30 3083 H 284.692 -0.44454 -0.600328 0
M  V30 3084 H 287.354 -1.64776 -1.0409 0
M  V30 3085 H 286.45 -1.78124 -2.56278 0
M  V30 3086 N 286.751 1.08385 -1.14413 0
M  V30 3087 C 287.661 2.18856 -0.844951 0
M  V30 3088 C 288.677 1.73121 0.174668 0
M  V30 3089 O 289.853 2.014 0.00312857 0
M  V30 3090 C 286.918 3.45155 -0.32696 0
M  V30 3091 C 285.979 4.05513 -1.40916 0
M  V30 3092 C 285.212 5.25784 -0.915793 0
M  V30 3093 O 285.435 5.69884 0.242651 0
M  V30 3094 O 284.369 5.77545 -1.69487 0
M  V30 3095 H 288.195 2.46919 -1.76818 0
M  V30 3096 H 285.78 1.17524 -0.922411 0
M  V30 3097 H 287.662 4.21377 -0.0440211 0
M  V30 3098 H 286.337 3.18668 0.568539 0
M  V30 3099 H 285.244 3.30879 -1.74556 0
M  V30 3100 H 286.577 4.3625 -2.27919 0
M  V30 3101 N 288.23 0.939286 1.26551 0
M  V30 3102 C 289.14 0.453432 2.30176 0
M  V30 3103 C 290.156 -0.471649 1.67486 0
M  V30 3104 O 291.332 -0.35164 1.98306 0
M  V30 3105 C 288.397 -0.275326 3.45605 0
M  V30 3106 C 287.458 0.686084 4.23782 0
M  V30 3107 C 286.691 -0.00798994 5.33699 0
M  V30 3108 O 286.914 -1.22528 5.57085 0
M  V30 3109 O 285.848 0.669746 5.98162 0
M  V30 3110 H 289.674 1.31416 2.73795 0
M  V30 3111 H 287.259 0.705095 1.31715 0
M  V30 3112 H 289.141 -0.685911 4.1578 0
M  V30 3113 H 287.816 -1.11147 3.0402 0
M  V30 3114 H 286.723 1.14658 3.56096 0
M  V30 3115 H 288.056 1.48979 4.69112 0
M  V30 3116 N 289.708 -1.40897 0.706093 0
M  V30 3117 C 290.956 -2.00657 0.241054 0
M  V30 3118 C 291.277 -1.56241 -1.16678 0
M  V30 3119 O 290.547 -0.79765 -1.78926 0
M  V30 3120 H 289.127 -0.742018 0.0861308 0
M  V30 3121 H 291.789 -1.72372 0.909604 0
M  V30 3122 H 290.885 -3.10958 0.266705 0
M  V30 3123 N 291.186 -0.45159 -1.50991 0
M  V30 3124 C 292.432 0.102439 -2.03142 0
M  V30 3125 C 292.787 1.39138 -1.32884 0
M  V30 3126 O 292.08 1.86493 -0.439438 0
M  V30 3127 C 292.274 0.361728 -3.55565 0
M  V30 3128 C 292.103 -0.900535 -4.40591 0
M  V30 3129 C 290.873 -1.43821 -4.844 0
M  V30 3130 C 293.071 -1.79063 -4.82121 0
M  V30 3131 N 291.053 -2.65153 -5.53685 0
M  V30 3132 C 292.424 -2.84991 -5.50618 0
M  V30 3133 C 294.479 -1.80334 -4.64095 0
M  V30 3134 C 293.182 -3.92155 -6.02998 0
M  V30 3135 C 295.208 -2.86442 -5.17402 0
M  V30 3136 C 294.57 -3.9109 -5.85857 0
M  V30 3137 H 290.669 -0.00204537 -0.781997 0
M  V30 3138 H 293.253 -0.615446 -1.84717 0
M  V30 3139 H 291.424 1.04865 -3.73976 0
M  V30 3140 H 293.156 0.908372 -3.94374 0
M  V30 3141 H 289.911 -0.990117 -4.63135 0
M  V30 3142 H 290.335 -3.26717 -5.92946 0
M  V30 3143 H 294.977 -1.00753 -4.1062 0
M  V30 3144 H 292.695 -4.72565 -6.55521 0
M  V30 3145 H 296.281 -2.88386 -5.05297 0
M  V30 3146 H 295.161 -4.71845 -6.26364 0
M  V30 3147 N 292.664 1.56529 -0.183458 0
M  V30 3148 C 293.611 2.18546 0.742055 0
M  V30 3149 C 294.581 1.12912 1.2182 0
M  V30 3150 O 295.766 1.41115 1.28418 0
M  V30 3151 C 292.906 2.83977 1.96089 0
M  V30 3152 C 292.019 4.04105 1.52719 0
M  V30 3153 C 291.154 4.57427 2.70063 0
M  V30 3154 C 290.193 5.69938 2.23243 0
M  V30 3155 N 289.33 6.17717 3.33722 0
M  V30 3156 H 294.17 2.97284 0.206432 0
M  V30 3157 H 291.707 1.46823 0.0901571 0
M  V30 3158 H 293.665 3.20077 2.67594 0
M  V30 3159 H 292.295 2.07822 2.47002 0
M  V30 3160 H 291.347 3.73745 0.708436 0
M  V30 3161 H 292.659 4.85513 1.1436 0
M  V30 3162 H 291.813 4.95772 3.49708 0
M  V30 3163 H 290.552 3.75101 3.11689 0
M  V30 3164 H 289.557 5.31133 1.42048 0
M  V30 3165 H 290.782 6.54073 1.82661 0
M  V30 3166 H 288.728 5.38317 3.74902 0
M  V30 3167 H 288.645 6.94146 2.99495 0
M  V30 3168 H 289.913 6.60713 4.13616 0
M  V30 3169 N 294.142 -0.090211 1.57342 0
M  V30 3170 C 295.39 -0.791241 1.85967 0
M  V30 3171 C 295.711 -1.7903 0.772859 0
M  V30 3172 O 294.981 -1.94872 -0.200398 0
M  V30 3173 H 293.561 -0.295205 0.686195 0
M  V30 3174 H 296.223 -0.0706782 1.94772 0
M  V30 3175 H 295.319 -1.31882 2.82867 0
M  V30 3176 N 295.62 -1.53406 -0.361157 0
M  V30 3177 C 296.897 -1.60411 -1.11927 0
M  V30 3178 C 297.277 -0.414385 -2.06993 0
M  V30 3179 O 296.625 0.594976 -2.20618 0
M  V30 3180 C 296.835 -2.95652 -1.85448 0
M  V30 3181 C 298.183 -3.50386 -2.39823 0
M  V30 3182 O 299.207 -2.97711 -1.95568 0
M  V30 3183 O 298.066 -4.42482 -3.20737 0
M  V30 3184 H 295.16 -0.64811 -0.513695 0
M  V30 3185 H 297.706 -1.65749 -0.364065 0
M  V30 3186 H 296.478 -3.73682 -1.16091 0
M  V30 3187 H 296.101 -2.93825 -2.67866 0
M  V30 3188 N 297.098 0.621204 -1.44841 0
M  V30 3189 C 298.323 1.41244 -1.51871 0
M  V30 3190 C 298.748 1.87519 -0.147764 0
M  V30 3191 O 298.106 1.59334 0.865 0
M  V30 3192 C 298.154 2.60221 -2.49634 0
M  V30 3193 O 297.258 3.60395 -2.00473 0
M  V30 3194 H 296.599 0.42223 -0.512463 0
M  V30 3195 H 299.129 0.757305 -1.90069 0
M  V30 3196 H 299.139 3.0764 -2.67996 0
M  V30 3197 H 297.814 2.25887 -3.4921 0
M  V30 3198 H 296.391 3.19717 -1.91925 0
M  V30 3199 N 298.576 1.31904 0.862503 0
M  V30 3200 C 299.526 1.16772 1.95827 0
M  V30 3201 C 300.51 0.0767098 1.60717 0
M  V30 3202 O 301.702 0.302407 1.74398 0
M  V30 3203 C 298.831 0.884858 3.317 0
M  V30 3204 C 297.917 2.0172 3.73055 0
M  V30 3205 N 298.308 3.265 3.86305 0
M  V30 3206 C 296.606 1.91861 4.02623 0
M  V30 3207 C 297.307 4.00616 4.2176 0
M  V30 3208 N 296.283 3.28847 4.32852 0
M  V30 3209 H 300.085 2.11382 2.04193 0
M  V30 3210 H 297.599 1.2357 1.05377 0
M  V30 3211 H 299.596 0.757419 4.09962 0
M  V30 3212 H 298.256 -0.0529448 3.24657 0
M  V30 3213 H 299.267 3.61529 3.70833 0
M  V30 3214 H 295.944 1.05593 4.03926 0
M  V30 3215 H 297.334 5.08182 4.39546 0
M  V30 3216 N 300.054 -1.07777 1.14986 0
M  V30 3217 C 301.47 -1.32373 0.891596 0
M  V30 3218 C 301.67 -1.9609 -0.463788 0
M  V30 3219 O 300.726 -2.21801 -1.20667 0
M  V30 3220 C 302.039 -2.21905 2.02925 0
M  V30 3221 C 303.587 -2.35367 2.06329 0
M  V30 3222 C 304.062 -3.28245 3.19405 0
M  V30 3223 N 305.553 -3.35824 3.19024 0
M  V30 3224 C 306.288 -4.07739 4.03158 0
M  V30 3225 N 305.784 -4.82306 4.97346 0
M  V30 3226 N 307.577 -4.03635 3.91197 0
M  V30 3227 H 299.728 -0.648039 2.02273 0
M  V30 3228 H 301.991 -0.348149 0.881757 0
M  V30 3229 H 301.697 -1.82342 3.0074 0
M  V30 3230 H 301.571 -3.22407 1.95789 0
M  V30 3231 H 303.958 -2.74186 1.09116 0
M  V30 3232 H 304.039 -1.34585 2.17533 0
M  V30 3233 H 303.683 -2.90146 4.16867 0
M  V30 3234 H 303.613 -4.28971 3.05437 0
M  V30 3235 H 306.104 -2.8267 2.50811 0
M  V30 3236 H 306.417 -5.34661 5.57994 0
M  V30 3237 H 304.762 -4.81337 5.01338 0
M  V30 3238 H 307.953 -3.44491 3.16928 0
M  V30 3239 H 308.126 -4.59417 4.5699 0
M  V30 3240 N 301.532 -0.945985 -1.26051 0
M  V30 3241 C 302.757 -0.612525 -1.98149 0
M  V30 3242 C 303.182 0.806623 -1.69927 0
M  V30 3243 O 302.54 1.54411 -0.950108 0
M  V30 3244 C 302.588 -0.866981 -3.50023 0
M  V30 3245 O 301.692 0.0585333 -4.12358 0
M  V30 3246 H 301.033 -0.23379 -0.621481 0
M  V30 3247 H 303.563 -1.27023 -1.60395 0
M  V30 3248 H 303.573 -0.789792 -4.00283 0
M  V30 3249 H 302.248 -1.90135 -3.69894 0
M  V30 3250 H 300.825 -0.0701241 -3.72834 0
M  V30 3251 N 303.011 1.40521 -0.713556 0
M  V30 3252 C 304.236 2.05759 -0.26035 0
M  V30 3253 C 304.661 1.53403 1.08854 0
M  V30 3254 O 304.019 0.668535 1.68524 0
M  V30 3255 C 304.067 3.59745 -0.248122 0
M  V30 3256 O 303.171 4.05123 0.77131 0
M  V30 3257 H 302.512 0.652564 -0.122703 0
M  V30 3258 H 305.042 1.79958 -0.973467 0
M  V30 3259 H 305.052 4.07911 -0.0851129 0
M  V30 3260 H 303.727 3.97218 -1.2325 0
M  V30 3261 H 302.304 3.68422 0.57619 0
M  V30 3262 N 304.489 0.459591 1.5075 0
M  V30 3263 C 305.9 0.00171547 1.867 0
M  V30 3264 C 306.251 -1.39934 1.37525 0
M  V30 3265 O 305.376 -2.03523 0.735349 0
M  V30 3266 C 305.971 -0.00366298 3.388 0
M  V30 3267 C 304.53 -0.406026 3.74204 0
M  V30 3268 C 303.677 0.38673 2.7459 0
M  V30 3269 H 306.628 0.674413 1.43657 0
M  V30 3270 H 306.649 -0.808371 3.71814 0
M  V30 3271 H 306.161 1.01617 3.74561 0
M  V30 3272 H 304.262 -1.43063 3.4404 0
M  V30 3273 H 304.375 -0.115362 4.78961 0
M  V30 3274 H 302.739 -0.158019 2.54209 0
M  V30 3275 H 303.522 1.40585 3.13194 0
M  V30 3276 N 305.967 -1.56429 0.191757 0
M  V30 3277 C 307.383 -1.58754 -0.164137 0
M  V30 3278 C 307.583 -1.20782 -1.61288 0
M  V30 3279 O 306.639 -0.928999 -2.34789 0
M  V30 3280 C 307.952 -3.00396 0.135195 0
M  V30 3281 C 309.5 -3.1291 0.0750351 0
M  V30 3282 C 309.975 -4.56679 0.347632 0
M  V30 3283 N 311.466 -4.62252 0.296131 0
M  V30 3284 C 312.201 -5.71379 0.480948 0
M  V30 3285 N 311.697 -6.88986 0.725933 0
M  V30 3286 N 313.49 -5.60563 0.415435 0
M  V30 3287 H 305.641 -1.79393 1.13718 0
M  V30 3288 H 307.904 -0.832414 0.453643 0
M  V30 3289 H 307.61 -3.32726 1.13958 0
M  V30 3290 H 307.484 -3.72963 -0.563773 0
M  V30 3291 H 309.871 -2.80394 -0.919948 0
M  V30 3292 H 309.952 -2.42736 0.807029 0
M  V30 3293 H 309.596 -4.89907 1.33992 0
M  V30 3294 H 309.526 -5.25039 -0.405212 0
M  V30 3295 H 312.017 -3.7773 0.113259 0
M  V30 3296 H 312.33 -7.68046 0.855857 0
M  V30 3297 H 310.675 -6.90801 0.762788 0
M  V30 3298 H 313.866 -4.67561 0.224486 0
M  V30 3299 H 314.039 -6.45551 0.562889 0
M  V30 3300 N 307.445 0.0818655 -1.57387 0
M  V30 3301 C 308.393 1.11712 -2.04018 0
M  V30 3302 C 309.387 1.40683 -0.94364 0
M  V30 3303 O 310.593 1.40209 -1.12878 0
M  V30 3304 H 306.968 0.377542 -0.650358 0
M  V30 3305 H 308.939 0.697614 -2.90131 0
M  V30 3306 C 307.688 2.42537 -2.49141 0
M  V30 3307 H 307.011 2.21092 -3.33104 0
M  V30 3308 H 308.451 3.13446 -2.85531 0
M  V30 3309 C 306.91 3.0778 -1.37014 0
M  V30 3310 O 307.44 3.95436 -0.706621 0
M  V30 3311 N 305.646 2.68242 -1.11779 0
M  V30 3312 H 305.193 1.97052 -1.65917 0
M  V30 3313 H 305.151 3.1222 -0.369594 0
M  V30 3314 N 308.923 1.53595 0.353017 0
M  V30 3315 C 310.334 1.61937 0.929153 0
M  V30 3316 C 310.685 0.494686 1.89861 0
M  V30 3317 O 309.81 -0.377017 2.1309 0
M  V30 3318 C 310.405 2.93526 1.69199 0
M  V30 3319 C 308.964 3.04161 2.21727 0
M  V30 3320 C 308.111 2.57322 1.03348 0
M  V30 3321 H 311.062 1.58155 0.131431 0
M  V30 3322 H 311.083 2.82034 2.55416 0
M  V30 3323 H 310.595 3.75362 0.986144 0
M  V30 3324 H 308.696 2.26938 2.95516 0
M  V30 3325 H 308.809 4.09465 2.48748 0
M  V30 3326 H 307.173 2.12499 1.40414 0
M  V30 3327 H 307.956 3.41588 0.342428 0
M  V30 3328 N 310.401 -0.613514 1.45168 0
M  V30 3329 C 311.629 -1.39946 1.5239 0
M  V30 3330 C 312.044 -1.88167 0.154531 0
M  V30 3331 O 311.401 -1.61872 -0.842843 0
M  V30 3332 C 311.452 -2.60795 2.50337 0
M  V30 3333 O 311.173 -2.1458 3.81952 0
M  V30 3334 C 312.674 -3.53723 2.67198 0
M  V30 3335 H 309.894 -0.428593 0.516284 0
M  V30 3336 H 312.438 -0.748753 1.903 0
M  V30 3337 H 310.593 -3.21919 2.15515 0
M  V30 3338 H 311.007 -2.93055 4.34993 0
M  V30 3339 H 312.481 -4.35079 3.39721 0
M  V30 3340 H 312.958 -4.0368 1.73029 0
M  V30 3341 H 313.564 -2.98456 3.02992 0
M  V30 3342 N 311.879 -1.3236 -0.855495 0
M  V30 3343 C 312.811 -1.17052 -1.97057 0
M  V30 3344 C 313.824 -0.10574 -1.62456 0
M  V30 3345 O 315.013 -0.354619 -1.74942 0
M  V30 3346 C 312.113 -0.769305 -3.30053 0
M  V30 3347 C 311.286 -1.9222 -3.929 0
M  V30 3348 C 310.345 -1.50466 -5.04228 0
M  V30 3349 O 309.371 -2.21655 -5.24269 0
M  V30 3350 N 310.573 -0.400209 -5.79119 0
M  V30 3351 H 313.338 -2.13103 -2.1073 0
M  V30 3352 H 310.899 -1.24885 -1.0303 0
M  V30 3353 H 312.891 -0.472407 -4.01933 0
M  V30 3354 H 311.461 0.100025 -3.1244 0
M  V30 3355 H 310.681 -2.38563 -3.13817 0
M  V30 3356 H 311.969 -2.69403 -4.31624 0
M  V30 3357 H 311.367 0.192319 -5.65373 0
M  V30 3358 H 309.924 -0.162912 -6.51596 0
M  V30 3359 N 313.357 1.07166 -1.15556 0
M  V30 3360 C 314.267 2.17947 -0.868116 0
M  V30 3361 C 315.283 1.73297 0.156297 0
M  V30 3362 O 316.459 2.01392 -0.0182327 0
M  V30 3363 C 313.524 3.44789 -0.36355 0
M  V30 3364 C 312.585 4.03996 -1.45209 0
M  V30 3365 C 311.818 5.24783 -0.971508 0
M  V30 3366 O 312.041 5.70109 0.182194 0
M  V30 3367 O 310.975 5.75715 -1.75603 0
M  V30 3368 H 314.801 2.4503 -1.79427 0
M  V30 3369 H 312.386 1.16539 -0.934824 0
M  V30 3370 H 314.268 4.21307 -0.0887113 0
M  V30 3371 H 312.943 3.19253 0.534708 0
M  V30 3372 H 311.85 3.29009 -1.78056 0
M  V30 3373 H 313.183 4.33808 -2.32533 0
M  V30 3374 N 314.835 0.952656 1.25548 0
M  V30 3375 C 315.765 0.489287 2.28316 0
M  V30 3376 C 316.746 -0.463359 1.63667 0
M  V30 3377 O 317.931 -0.36274 1.90782 0
M  V30 3378 C 315.061 -0.235603 3.465 0
M  V30 3379 C 314.015 0.631593 4.23314 0
M  V30 3380 C 313.341 -0.223923 5.34231 0
M  V30 3381 C 314.641 1.90871 4.86174 0
M  V30 3382 H 316.335 1.34822 2.67326 0
M  V30 3383 H 313.881 0.649728 1.28509 0
M  V30 3384 H 315.834 -0.570882 4.17515 0
M  V30 3385 H 314.558 -1.12877 3.06474 0
M  V30 3386 H 313.217 0.949929 3.54079 0
M  V30 3387 H 312.865 -1.11678 4.90446 0
M  V30 3388 H 312.565 0.35299 5.86539 0
M  V30 3389 H 314.089 -0.554214 6.0808 0
M  V30 3390 H 315.503 1.63997 5.49343 0
M  V30 3391 H 313.9 2.43112 5.4865 0
M  V30 3392 H 314.97 2.61304 4.08471 0
M  V30 3393 N 316.313 -1.40141 0.720998 0
M  V30 3394 C 317.729 -1.54632 0.395113 0
M  V30 3395 C 317.929 -1.69115 -1.09555 0
M  V30 3396 O 316.985 -1.68377 -1.88163 0
M  V30 3397 C 318.298 -2.77177 1.1659 0
M  V30 3398 C 319.846 -2.91 1.15274 0
M  V30 3399 C 320.321 -4.16465 1.90579 0
M  V30 3400 N 321.812 -4.23476 1.87675 0
M  V30 3401 C 322.547 -5.19475 2.42762 0
M  V30 3402 N 322.043 -6.21348 3.06428 0
M  V30 3403 N 323.836 -5.11592 2.32874 0
M  V30 3404 H 315.987 -1.28986 1.68749 0
M  V30 3405 H 318.25 -0.62412 0.713567 0
M  V30 3406 H 317.956 -2.72771 2.22011 0
M  V30 3407 H 317.83 -3.69442 0.76108 0
M  V30 3408 H 320.217 -2.94907 0.106702 0
M  V30 3409 H 320.298 -1.99838 1.59682 0
M  V30 3410 H 319.942 -4.1332 2.95176 0
M  V30 3411 H 319.872 -5.06646 1.43587 0
M  V30 3412 H 322.363 -3.50497 1.41281 0
M  V30 3413 H 322.676 -6.91034 3.45965 0
M  V30 3414 H 321.021 -6.21777 3.10514 0
M  V30 3415 H 324.212 -4.30936 1.82789 0
M  V30 3416 H 324.385 -5.86233 2.76106 0
M  V30 3417 N 317.792 -0.46758 -1.50504 0
M  V30 3418 C 319.208 -0.121533 -1.59137 0
M  V30 3419 C 319.408 1.3717 -1.47603 0
M  V30 3420 O 318.464 2.14464 -1.33272 0
M  V30 3421 C 319.777 -0.6686 -2.93173 0
M  V30 3422 C 321.325 -0.631716 -3.06559 0
M  V30 3423 C 321.8 -1.15627 -4.43164 0
M  V30 3424 N 323.291 -1.11553 -4.49567 0
M  V30 3425 C 324.026 -1.49195 -5.5365 0
M  V30 3426 N 323.522 -1.94269 -6.65005 0
M  V30 3427 N 325.315 -1.4082 -5.44175 0
M  V30 3428 H 317.466 -1.4388 -1.56245 0
M  V30 3429 H 319.729 -0.594784 -0.738198 0
M  V30 3430 H 319.435 -1.71453 -3.07078 0
M  V30 3431 H 319.309 -0.11021 -3.77039 0
M  V30 3432 H 321.696 0.405297 -2.92304 0
M  V30 3433 H 321.777 -1.22687 -2.24458 0
M  V30 3434 H 321.421 -2.1919 -4.58168 0
M  V30 3435 H 321.351 -0.537365 -5.23851 0
M  V30 3436 H 323.842 -0.784895 -3.69659 0
M  V30 3437 H 324.155 -2.21148 -7.40482 0
M  V30 3438 H 322.5 -1.98219 -6.66134 0
M  V30 3439 H 325.691 -1.0545 -4.56068 0
M  V30 3440 H 325.864 -1.70481 -6.25172 0
M  V30 3441 N 319.27 1.56325 -0.20005 0
M  V30 3442 C 320.681 1.8408 0.31167 0
M  V30 3443 C 321.032 1.12087 1.61031 0
M  V30 3444 O 320.157 0.38332 2.12978 0
M  V30 3445 C 320.752 3.33932 0.57226 0
M  V30 3446 C 319.311 3.6208 1.02834 0
M  V30 3447 C 318.458 2.77186 0.079634 0
M  V30 3448 H 321.409 1.52939 -0.423729 0
M  V30 3449 H 321.43 3.52971 1.42096 0
M  V30 3450 H 320.942 3.86303 -0.37308 0
M  V30 3451 H 319.043 3.15147 1.98778 0
M  V30 3452 H 319.156 4.7023 0.917624 0
M  V30 3453 H 317.52 2.47951 0.582448 0
M  V30 3454 H 318.303 3.32347 -0.860238 0
M  V30 3455 N 320.748 -0.0735177 1.57428 0
M  V30 3456 C 321.973 -0.789787 1.91774 0
M  V30 3457 C 322.398 -1.70413 0.796306 0
M  V30 3458 O 321.756 -1.79555 -0.250961 0
M  V30 3459 C 321.804 -1.5609 3.25067 0
M  V30 3460 O 320.908 -2.67144 3.14178 0
M  V30 3461 H 320.249 -0.215582 0.628029 0
M  V30 3462 H 322.779 -0.0422781 2.04556 0
M  V30 3463 H 322.789 -1.94052 3.58898 0
M  V30 3464 H 321.464 -0.890015 4.06265 0
M  V30 3465 H 320.041 -2.32052 2.91901 0
M  V30 3466 N 322.226 -1.5378 -0.344866 0
M  V30 3467 C 323.173 -1.81676 -1.42346 0
M  V30 3468 C 324.143 -0.662376 -1.52321 0
M  V30 3469 O 325.328 -0.906675 -1.67881 0
M  V30 3470 C 322.468 -2.03087 -2.79015 0
M  V30 3471 C 321.581 -3.30799 -2.77842 0
M  V30 3472 C 320.716 -3.42285 -4.0622 0
M  V30 3473 C 319.755 -4.6395 -3.9927 0
M  V30 3474 N 318.892 -4.72477 -5.19336 0
M  V30 3475 H 323.732 -2.73703 -1.17858 0
M  V30 3476 H 321.269 -1.35568 -0.570949 0
M  V30 3477 H 323.227 -2.1349 -3.58438 0
M  V30 3478 H 321.857 -1.14375 -3.01858 0
M  V30 3479 H 320.909 -3.29244 -1.90533 0
M  V30 3480 H 322.221 -4.20314 -2.68584 0
M  V30 3481 H 321.375 -3.52113 -4.94066 0
M  V30 3482 H 320.114 -2.50823 -4.18258 0
M  V30 3483 H 319.119 -4.54201 -3.09809 0
M  V30 3484 H 320.344 -5.56775 -3.88817 0
M  V30 3485 H 318.29 -3.83924 -5.3192 0
M  V30 3486 H 318.207 -5.55927 -5.12329 0
M  V30 3487 H 319.475 -4.86613 -6.08957 0
M  V30 3488 N 323.704 0.605807 -1.45491 0
M  V30 3489 C 324.929 1.39625 -1.53361 0
M  V30 3490 C 325.354 1.87351 -0.167645 0
M  V30 3491 O 324.712 1.60243 0.848051 0
M  V30 3492 C 324.76 2.57559 -2.5238 0
M  V30 3493 O 323.864 3.58248 -2.04285 0
M  V30 3494 H 323.205 0.416771 -0.516912 0
M  V30 3495 H 325.735 0.737103 -1.90861 0
M  V30 3496 H 325.745 3.0478 -2.71244 0
M  V30 3497 H 324.42 2.22171 -3.51586 0
M  V30 3498 H 322.997 3.17664 -1.95305 0
M  V30 3499 N 325.182 1.32811 0.848464 0
M  V30 3500 C 326.115 1.16601 1.96162 0
M  V30 3501 C 327.093 0.0638855 1.62474 0
M  V30 3502 O 328.277 0.224348 1.8716 0
M  V30 3503 C 325.404 0.786333 3.29446 0
M  V30 3504 C 324.45 1.89459 3.8211 0
M  V30 3505 S 325.283 3.50395 4.04949 0
M  V30 3506 C 326.439 3.14413 5.41198 0
M  V30 3507 H 326.672 2.10832 2.09612 0
M  V30 3508 H 324.205 1.17543 1.00115 0
M  V30 3509 H 326.163 0.574044 4.06466 0
M  V30 3510 H 324.824 -0.137218 3.138 0
M  V30 3511 H 324.017 1.58207 4.78526 0
M  V30 3512 H 323.619 2.06304 3.11953 0
M  V30 3513 H 325.911 2.64642 6.23675 0
M  V30 3514 H 326.854 4.09874 5.77416 0
M  V30 3515 H 327.262 2.51266 5.05495 0
M  V30 3516 N 326.66 -1.06551 1.16123 0
M  V30 3517 C 327.937 -1.76097 0.85142 0
M  V30 3518 C 328.317 -2.00802 -0.6513 0
M  V30 3519 O 327.665 -1.63302 -1.59827 0
M  V30 3520 C 327.875 -3.06384 1.67122 0
M  V30 3521 C 329.223 -3.80585 1.88255 0
M  V30 3522 O 330.247 -3.16218 1.63966 0
M  V30 3523 O 329.106 -4.96212 2.2899 0
M  V30 3524 H 326.2 -0.765102 0.313923 0
M  V30 3525 H 328.746 -1.12844 1.26745 0
M  V30 3526 H 327.518 -2.84071 2.69108 0
M  V30 3527 H 327.141 -3.77371 1.25206 0
M  V30 3528 N 328.138 -0.959301 -1.25041 0
M  V30 3529 C 329.085 -0.482057 -2.2571 0
M  V30 3530 C 330.055 0.467939 -1.59372 0
M  V30 3531 O 331.24 0.380159 -1.86974 0
M  V30 3532 C 328.38 0.229623 -3.44335 0
M  V30 3533 C 327.493 -0.758156 -4.25295 0
M  V30 3534 C 326.628 -0.0234403 -5.31195 0
M  V30 3535 C 325.667 -1.00184 -6.03846 0
M  V30 3536 N 324.804 -0.29769 -7.01469 0
M  V30 3537 H 329.644 -1.34538 -2.65901 0
M  V30 3538 H 327.181 -0.674592 -1.3072 0
M  V30 3539 H 329.139 0.658856 -4.11965 0
M  V30 3540 H 327.769 1.05696 -3.05005 0
M  V30 3541 H 326.821 -1.30586 -3.57284 0
M  V30 3542 H 328.133 -1.50458 -4.75567 0
M  V30 3543 H 327.287 0.464201 -6.04922 0
M  V30 3544 H 326.026 0.755741 -4.81809 0
M  V30 3545 H 325.031 -1.50044 -5.2893 0
M  V30 3546 H 326.256 -1.78133 -6.55321 0
M  V30 3547 H 324.202 0.462668 -6.54366 0
M  V30 3548 H 324.119 -0.983128 -7.4958 0
M  V30 3549 H 325.387 0.16826 -7.79318 0
M  V30 3550 N 329.616 1.39756 -0.72842 0
M  V30 3551 C 330.563 2.30647 -0.0841519 0
M  V30 3552 C 331.533 1.48869 0.7367 0
M  V30 3553 O 332.718 1.77574 0.698015 0
M  V30 3554 C 329.858 3.35165 0.822091 0
M  V30 3555 C 328.971 4.31999 -0.0106663 0
M  V30 3556 C 328.106 5.23585 0.896241 0
M  V30 3557 C 327.145 6.12072 0.0583381 0
M  V30 3558 N 326.282 6.96035 0.920818 0
M  V30 3559 H 331.122 2.85173 -0.864891 0
M  V30 3560 H 328.659 1.40422 -0.438179 0
M  V30 3561 H 330.617 3.94345 1.36189 0
M  V30 3562 H 329.247 2.8211 1.56888 0
M  V30 3563 H 328.299 3.74492 -0.66781 0
M  V30 3564 H 329.611 4.9443 -0.658825 0
M  V30 3565 H 328.765 5.87759 1.50412 0
M  V30 3566 H 327.504 4.61459 1.57819 0
M  V30 3567 H 326.509 5.46916 -0.562389 0
M  V30 3568 H 327.734 6.76261 -0.6203 0
M  V30 3569 H 325.68 6.36485 1.58818 0
M  V30 3570 H 325.597 7.55284 0.32899 0
M  V30 3571 H 326.865 7.64646 1.51447 0
M  V30 3572 N 331.094 0.475555 1.50254 0
M  V30 3573 C 332.004 -0.321501 2.32387 0
M  V30 3574 C 333.02 -0.991755 1.42969 0
M  V30 3575 O 334.196 -0.978747 1.76018 0
M  V30 3576 C 331.261 -1.38667 3.17762 0
M  V30 3577 C 330.322 -0.732538 4.23004 0
M  V30 3578 C 329.555 -1.74695 5.04299 0
M  V30 3579 O 329.778 -2.97399 4.86734 0
M  V30 3580 O 328.712 -1.31631 5.8733 0
M  V30 3581 H 332.538 0.350071 3.01676 0
M  V30 3582 H 330.123 0.237321 1.47503 0
M  V30 3583 H 332.005 -2.00354 3.70724 0
M  V30 3584 H 330.68 -2.04163 2.51196 0
M  V30 3585 H 329.587 -0.0765902 3.74022 0
M  V30 3586 H 330.92 -0.120452 4.92053 0
M  V30 3587 N 332.573 -1.56217 0.208337 0
M  V30 3588 C 333.85 -1.89739 -0.475234 0
M  V30 3589 C 334.23 -1.1238 -1.78701 0
M  V30 3590 O 333.578 -0.228979 -2.2735 0
M  V30 3591 C 333.788 -3.42289 -0.681101 0
M  V30 3592 C 335.136 -4.12789 -0.994507 0
M  V30 3593 O 336.16 -3.47814 -0.768357 0
M  V30 3594 O 335.019 -5.27649 -1.42299 0
M  V30 3595 H 332.113 -0.788478 -0.249461 0
M  V30 3596 H 334.659 -1.67855 0.249538 0
M  V30 3597 H 333.431 -3.90534 0.244722 0
M  V30 3598 H 333.054 -3.69909 -1.45785 0
M  V30 3599 N 334.051 0.0651679 -1.57465 0
M  V30 3600 C 335.467 0.420105 -1.53972 0
M  V30 3601 C 335.667 1.78782 -0.929474 0
M  V30 3602 O 334.723 2.46771 -0.534839 0
M  V30 3603 C 336.036 0.355084 -2.98596 0
M  V30 3604 C 337.584 0.434792 -3.09965 0
M  V30 3605 C 338.059 0.399609 -4.56253 0
M  V30 3606 N 339.55 0.459488 -4.60915 0
M  V30 3607 C 340.285 0.454584 -5.71595 0
M  V30 3608 N 339.781 0.404102 -6.9162 0
M  V30 3609 N 341.574 0.501635 -5.59857 0
M  V30 3610 H 333.725 -0.830328 -1.95498 0
M  V30 3611 H 335.988 -0.312244 -0.895102 0
M  V30 3612 H 335.694 -0.583357 -3.46828 0
M  V30 3613 H 335.568 1.16275 -3.58831 0
M  V30 3614 H 337.955 1.36366 -2.61703 0
M  V30 3615 H 338.036 -0.40157 -2.52628 0
M  V30 3616 H 337.68 -0.525436 -5.05175 0
M  V30 3617 H 337.61 1.25359 -5.11461 0
M  V30 3618 H 340.101 0.502482 -3.74544 0
M  V30 3619 H 340.414 0.404468 -7.71741 0
M  V30 3620 H 338.759 0.37069 -6.94011 0
M  V30 3621 H 341.95 0.538812 -4.64989 0
M  V30 3622 H 342.123 0.494345 -6.46112 0
M  V30 3623 N 335.529 1.53961 0.336706 0
M  V30 3624 C 336.777 1.71197 1.07405 0
M  V30 3625 C 337.098 0.481475 1.88962 0
M  V30 3626 O 336.368 -0.504585 1.8929 0
M  V30 3627 H 334.948 0.631185 0.399517 0
M  V30 3628 H 337.61 1.91232 0.376323 0
M  V30 3629 H 336.706 2.58587 1.74755 0
M  V30 3630 N 337.007 -0.598083 1.45811 0
M  V30 3631 C 338.418 -1.18011 1.44673 0
M  V30 3632 C 338.769 -1.95378 0.179364 0
M  V30 3633 O 337.894 -2.04124 -0.718509 0
M  V30 3634 C 338.489 -2.14677 2.62105 0
M  V30 3635 C 337.048 -2.68236 2.64057 0
M  V30 3636 C 336.195 -1.43816 2.37091 0
M  V30 3637 H 339.146 -0.38686 1.53913 0
M  V30 3638 H 339.167 -2.97878 2.36746 0
M  V30 3639 H 338.679 -1.5834 3.5433 0
M  V30 3640 H 336.78 -3.28486 1.75864 0
M  V30 3641 H 336.893 -3.12021 3.63566 0
M  V30 3642 H 335.257 -1.731 1.86838 0
M  V30 3643 H 336.04 -0.893333 3.31473 0
M  V30 3644 N 338.485 -1.33259 -0.841409 0
M  V30 3645 C 339.395 -1.25332 -1.98316 0
M  V30 3646 C 340.411 -0.164364 -1.73222 0
M  V30 3647 O 341.587 -0.387486 -1.97637 0
M  V30 3648 C 338.652 -0.990078 -3.32262 0
M  V30 3649 C 337.713 -2.16879 -3.70489 0
M  V30 3650 C 336.946 -1.91801 -4.98044 0
M  V30 3651 O 337.169 -0.867075 -5.63771 0
M  V30 3652 O 336.103 -2.78267 -5.33714 0
M  V30 3653 H 339.929 -2.21344 -2.07944 0
M  V30 3654 H 337.514 -1.1328 -0.974058 0
M  V30 3655 H 339.396 -0.860321 -4.12524 0
M  V30 3656 H 338.071 -0.0602155 -3.23644 0
M  V30 3657 H 336.978 -2.35407 -2.90748 0
M  V30 3658 H 338.311 -3.0819 -3.8377 0
M  V30 3659 N 339.963 1.05934 -1.16686 0
M  V30 3660 C 341.24 1.75643 -0.860747 0
M  V30 3661 C 341.62 2.01144 0.640641 0
M  V30 3662 O 340.968 1.64147 1.58959 0
M  V30 3663 C 341.178 3.05493 -1.68745 0
M  V30 3664 C 342.526 3.79581 -1.90271 0
M  V30 3665 O 343.55 3.15344 -1.65641 0
M  V30 3666 O 342.409 4.9499 -2.31618 0
M  V30 3667 H 339.503 0.763426 -0.317977 0
M  V30 3668 H 342.049 1.1217 -1.27342 0
M  V30 3669 H 340.821 2.8264 -2.70611 0
M  V30 3670 H 340.444 3.76702 -1.27206 0
M  V30 3671 N 341.441 0.965919 1.2453 0
M  V30 3672 C 342.373 0.452465 2.2469 0
M  V30 3673 C 343.386 -0.437821 1.56802 0
M  V30 3674 O 344.575 -0.244283 1.76821 0
M  V30 3675 C 341.675 -0.366258 3.36915 0
M  V30 3676 C 340.848 0.513701 4.34373 0
M  V30 3677 C 339.907 -0.248716 5.25612 0
M  V30 3678 O 338.933 0.356745 5.68081 0
M  V30 3679 N 340.135 -1.53877 5.59734 0
M  V30 3680 H 342.9 1.31361 2.69378 0
M  V30 3681 H 340.461 0.837541 1.38553 0
M  V30 3682 H 342.453 -0.884297 3.94921 0
M  V30 3683 H 341.023 -1.12832 2.91526 0
M  V30 3684 H 340.243 1.21273 3.75082 0
M  V30 3685 H 341.531 1.11391 4.96457 0
M  V30 3686 H 340.929 -2.05243 5.27154 0
M  V30 3687 H 339.486 -2.00254 6.20275 0
M  V30 3688 N 342.919 -1.39368 0.735821 0
M  V30 3689 C 343.829 -2.34395 0.0979693 0
M  V30 3690 C 344.845 -1.58361 -0.720968 0
M  V30 3691 O 346.021 -1.90648 -0.649245 0
M  V30 3692 C 343.086 -3.37393 -0.797916 0
M  V30 3693 C 342.147 -4.29287 0.0333662 0
M  V30 3694 C 341.38 -5.27365 -0.819854 0
M  V30 3695 O 341.603 -5.31959 -2.05855 0
M  V30 3696 O 340.537 -6.01389 -0.248079 0
M  V30 3697 H 344.363 -2.90601 0.882315 0
M  V30 3698 H 341.948 -1.40909 0.4965 0
M  V30 3699 H 343.83 -4.00505 -1.31048 0
M  V30 3700 H 342.505 -2.83571 -1.56106 0
M  V30 3701 H 341.412 -3.69395 0.591475 0
M  V30 3702 H 342.745 -4.86317 0.758752 0
M  V30 3703 N 344.397 -0.483516 -1.5 0
M  V30 3704 C 345.622 0.0667119 -2.07293 0
M  V30 3705 C 346.047 1.3164 -1.3436 0
M  V30 3706 O 345.405 1.76945 -0.394987 0
M  V30 3707 C 345.453 0.321126 -3.59167 0
M  V30 3708 O 344.557 1.39927 -3.87936 0
M  V30 3709 H 343.898 -0.0184758 -0.663743 0
M  V30 3710 H 346.428 -0.678125 -1.93035 0
M  V30 3711 H 346.438 0.557906 -4.04168 0
M  V30 3712 H 345.113 -0.592007 -4.11665 0
M  V30 3713 H 343.69 1.14882 -3.54763 0
M  V30 3714 N 345.875 1.56104 -0.216619 0
M  V30 3715 C 346.825 2.16703 0.708798 0
M  V30 3716 C 347.809 1.11392 1.16106 0
M  V30 3717 O 349.001 1.37395 1.11587 0
M  V30 3718 C 346.13 2.84666 1.91886 0
M  V30 3719 C 345.216 3.97195 1.48651 0
M  V30 3720 N 345.607 4.99959 0.766434 0
M  V30 3721 C 343.905 4.09193 1.77418 0
M  V30 3722 C 344.606 5.79126 0.546659 0
M  V30 3723 N 343.582 5.32315 1.10188 0
M  V30 3724 H 347.384 2.93516 0.150162 0
M  V30 3725 H 344.898 1.6239 -0.0176768 0
M  V30 3726 H 346.895 3.26486 2.59253 0
M  V30 3727 H 345.555 2.09347 2.48202 0
M  V30 3728 H 346.566 5.16197 0.419634 0
M  V30 3729 H 343.243 3.45021 2.35088 0
M  V30 3730 H 344.633 6.71895 -0.026103 0
M  V30 3731 N 347.353 -0.0568162 1.57498 0
M  V30 3732 C 348.316 -1.05038 2.03715 0
M  V30 3733 C 349.316 -1.30709 0.936577 0
M  V30 3734 O 350.506 -1.26178 1.20103 0
M  V30 3735 C 347.638 -2.39034 2.43055 0
M  V30 3736 H 348.831 -0.651715 2.92733 0
M  V30 3737 H 346.384 -0.302947 1.53336 0
M  V30 3738 H 347.119 -2.83703 1.57108 0
M  V30 3739 H 346.904 -2.21739 3.2338 0
M  V30 3740 H 348.394 -3.10421 2.79336 0
M  V30 3741 N 348.832 -1.54138 -0.328536 0
M  V30 3742 C 349.764 -1.79509 -1.4251 0
M  V30 3743 C 350.777 -0.67688 -1.48061 0
M  V30 3744 O 351.966 -0.953898 -1.50874 0
M  V30 3745 C 349.066 -1.89337 -2.81078 0
M  V30 3746 C 348.239 -3.19443 -2.98789 0
M  V30 3747 C 347.298 -3.20036 -4.17688 0
M  V30 3748 O 346.324 -3.93697 -4.11086 0
M  V30 3749 N 347.526 -2.43467 -5.26976 0
M  V30 3750 H 350.291 -2.74139 -1.21111 0
M  V30 3751 H 347.852 -1.53373 -0.518499 0
M  V30 3752 H 349.844 -1.87167 -3.58818 0
M  V30 3753 H 348.414 -1.01826 -2.95551 0
M  V30 3754 H 347.634 -3.34614 -2.08391 0
M  V30 3755 H 348.922 -4.05354 -3.07515 0
M  V30 3756 H 348.32 -1.83201 -5.35214 0
M  V30 3757 H 346.877 -2.4708 -6.03154 0
M  V30 3758 N 350.31 0.590341 -1.46126 0
M  V30 3759 C 351.558 1.34616 -1.50742 0
M  V30 3760 C 351.879 1.94363 -0.157486 0
M  V30 3761 O 351.149 1.78136 0.815136 0
M  V30 3762 H 349.729 0.499789 -0.555175 0
M  V30 3763 H 352.391 0.691953 -1.82203 0
M  V30 3764 H 351.487 2.15678 -2.25587 0
M  V30 3765 N 351.788 1.33704 0.83433 0
M  V30 3766 C 352.751 1.24244 1.92603 0
M  V30 3767 C 353.751 0.160383 1.59998 0
M  V30 3768 O 354.941 0.412228 1.69252 0
M  V30 3769 C 352.073 0.91555 3.28376 0
M  V30 3770 H 353.266 2.21287 2.02416 0
M  V30 3771 H 350.819 1.17827 1.02696 0
M  V30 3772 H 351.554 -0.0521886 3.24258 0
M  V30 3773 H 351.339 1.69811 3.53422 0
M  V30 3774 H 352.829 0.874231 4.08347 0
M  V30 3775 N 353.266 -1.05314 1.17247 0
M  V30 3776 C 354.229 -2.112 0.890357 0
M  V30 3777 C 355.229 -1.60359 -0.118943 0
M  V30 3778 O 356.419 -1.73833 0.113086 0
M  V30 3779 C 353.551 -3.39266 0.333422 0
M  V30 3780 H 354.744 -2.37659 1.82916 0
M  V30 3781 H 352.297 -1.21538 0.982758 0
M  V30 3782 H 353.032 -3.18462 -0.612587 0
M  V30 3783 H 352.817 -3.77477 1.06082 0
M  V30 3784 H 354.307 -4.17315 0.154322 0
M  V30 3785 N 354.744 -0.972509 -1.24016 0
M  V30 3786 C 355.691 -0.505969 -2.25186 0
M  V30 3787 C 356.661 0.451009 -1.5986 0
M  V30 3788 O 357.846 0.360307 -1.87367 0
M  V30 3789 C 354.986 0.193089 -3.44559 0
M  V30 3790 C 354.099 -0.803222 -4.24467 0
M  V30 3791 C 353.234 -0.0797793 -5.3114 0
M  V30 3792 C 352.273 -1.06583 -6.02749 0
M  V30 3793 N 351.41 -0.372074 -7.01113 0
M  V30 3794 H 356.25 -1.37351 -2.64459 0
M  V30 3795 H 353.787 -0.688419 -1.29997 0
M  V30 3796 H 355.745 0.615125 -4.1264 0
M  V30 3797 H 354.375 1.02455 -3.06109 0
M  V30 3798 H 353.427 -1.34368 -3.55878 0
M  V30 3799 H 354.739 -1.55494 -4.73944 0
M  V30 3800 H 353.893 0.400015 -6.0538 0
M  V30 3801 H 352.632 0.704597 -4.82583 0
M  V30 3802 H 351.637 -1.55645 -5.27309 0
M  V30 3803 H 352.862 -1.85074 -6.53395 0
M  V30 3804 H 350.808 0.393238 -6.5482 0
M  V30 3805 H 350.725 -1.06258 -7.48495 0
M  V30 3806 H 351.993 0.0855932 -7.79453 0
M  V30 3807 N 356.222 1.38976 -0.743202 0
M  V30 3808 C 357.185 2.28901 -0.117014 0
M  V30 3809 C 358.185 1.46698 0.658503 0
M  V30 3810 O 359.375 1.67274 0.486305 0
M  V30 3811 C 356.507 3.30309 0.84315 0
M  V30 3812 H 357.7 2.8578 -0.909373 0
M  V30 3813 H 355.253 1.47761 -0.509547 0
M  V30 3814 H 355.988 2.785 1.66157 0
M  V30 3815 H 355.773 3.91029 0.289594 0
M  V30 3816 H 357.263 3.97577 1.2776 0
M  V30 3817 N 357.7 0.491464 1.49741 0
M  V30 3818 C 358.647 -0.292027 2.28945 0
M  V30 3819 C 359.617 -0.968973 1.34908 0
M  V30 3820 O 360.802 -0.97748 1.6386 0
M  V30 3821 C 357.942 -1.35617 3.17336 0
M  V30 3822 C 357.055 -0.691957 4.26422 0
M  V30 3823 C 356.19 -1.73572 5.02042 0
M  V30 3824 C 355.229 -1.05286 6.02977 0
M  V30 3825 N 354.366 -2.0404 6.71798 0
M  V30 3826 H 359.206 0.389654 2.95442 0
M  V30 3827 H 356.743 0.204003 1.45679 0
M  V30 3828 H 358.701 -1.98502 3.66951 0
M  V30 3829 H 357.331 -2.00674 2.52844 0
M  V30 3830 H 356.383 0.0499523 3.80367 0
M  V30 3831 H 357.695 -0.153946 4.98562 0
M  V30 3832 H 356.849 -2.43987 5.55478 0
M  V30 3833 H 355.588 -2.30757 4.29654 0
M  V30 3834 H 354.593 -0.334446 5.48782 0
M  V30 3835 H 355.818 -0.487636 6.77347 0
M  V30 3836 H 353.764 -2.60205 6.02187 0
M  V30 3837 H 353.681 -1.55279 7.39881 0
M  V30 3838 H 354.949 -2.73772 7.29842 0
M  V30 3839 N 359.178 -1.55987 0.224894 0
M  V30 3840 C 360.125 -2.20436 -0.68385 0
M  V30 3841 C 361.095 -1.16102 -1.18783 0
M  V30 3842 O 362.28 -1.4447 -1.24632 0
M  V30 3843 C 359.42 -2.89076 -1.88491 0
M  V30 3844 C 358.533 -4.08012 -1.41951 0
M  V30 3845 C 357.668 -4.64426 -2.5784 0
M  V30 3846 C 356.707 -5.75656 -2.08053 0
M  V30 3847 N 355.844 -6.26347 -3.17227 0
M  V30 3848 H 360.684 -2.97727 -0.12754 0
M  V30 3849 H 358.221 -1.47011 -0.0511978 0
M  V30 3850 H 360.179 -3.27059 -2.59014 0
M  V30 3851 H 358.809 -2.14298 -2.41405 0
M  V30 3852 H 357.861 -3.75492 -0.609095 0
M  V30 3853 H 359.173 -4.88375 -1.01447 0
M  V30 3854 H 358.327 -5.04869 -3.3644 0
M  V30 3855 H 357.066 -3.83233 -3.01635 0
M  V30 3856 H 356.071 -5.34712 -1.27916 0
M  V30 3857 H 357.296 -6.58686 -1.65255 0
M  V30 3858 H 355.242 -5.48067 -3.60497 0
M  V30 3859 H 355.159 -7.01843 -2.80986 0
M  V30 3860 H 356.427 -6.71447 -3.95953 0
M  V30 3861 N 360.656 0.0484629 -1.57525 0
M  V30 3862 C 361.933 0.777447 -1.79486 0
M  V30 3863 C 362.313 1.94597 -0.818251 0
M  V30 3864 O 361.661 2.28047 0.143767 0
M  V30 3865 C 361.871 1.22864 -3.26658 0
M  V30 3866 C 363.219 1.65251 -3.91123 0
M  V30 3867 O 364.243 1.32372 -3.3069 0
M  V30 3868 O 363.102 2.26207 -4.97486 0
M  V30 3869 H 360.196 0.374357 -0.737419 0
M  V30 3870 H 362.742 0.0267359 -1.69679 0
M  V30 3871 H 361.514 0.393589 -3.89316 0
M  V30 3872 H 361.137 2.03996 -3.41279 0
M  V30 3873 N 362.134 1.5431 0.320358 0
M  V30 3874 C 363.064 1.86912 1.3995 0
M  V30 3875 C 364.045 0.726211 1.53819 0
M  V30 3876 O 365.23 0.980233 1.67646 0
M  V30 3877 C 362.36 2.09932 2.7667 0
M  V30 3878 C 361.314 3.25776 2.77586 0
M  V30 3879 C 360.64 3.34173 4.17412 0
M  V30 3880 C 361.94 4.6335 2.41048 0
M  V30 3881 H 363.634 2.77292 1.12914 0
M  V30 3882 H 361.18 1.33421 0.541738 0
M  V30 3883 H 363.133 2.31324 3.52232 0
M  V30 3884 H 361.857 1.16304 3.0519 0
M  V30 3885 H 360.516 3.04276 2.04479 0
M  V30 3886 H 360.164 2.38098 4.43078 0
M  V30 3887 H 359.864 4.12033 4.18931 0
M  V30 3888 H 361.388 3.57803 4.94782 0
M  V30 3889 H 362.802 4.84602 3.06324 0
M  V30 3890 H 361.199 5.43782 2.53813 0
M  V30 3891 H 362.269 4.65381 1.36193 0
M  V30 3892 N 363.613 -0.582584 1.46437 0
M  V30 3893 C 364.859 -1.34278 1.51978 0
M  V30 3894 C 365.192 -1.93446 0.170973 0
M  V30 3895 O 364.467 -1.76481 -0.817608 0
M  V30 3896 C 364.75 -2.47203 2.61845 0
M  V30 3897 C 364.603 -1.93069 4.06257 0
M  V30 3898 C 365.922 -3.49247 2.67795 0
M  V30 3899 H 363.041 -0.486876 0.553282 0
M  V30 3900 H 365.683 -0.654437 1.78374 0
M  V30 3901 H 363.833 -3.0592 2.39469 0
M  V30 3902 H 365.505 -1.38808 4.3992 0
M  V30 3903 H 363.748 -1.23898 4.1573 0
M  V30 3904 H 364.419 -2.74586 4.7886 0
M  V30 3905 H 366.895 -3.00411 2.8791 0
M  V30 3906 H 365.771 -4.25719 3.46489 0
M  V30 3907 H 366.032 -4.06482 1.73852 0
M  V30 3908 N 365.091 -1.34144 -0.827227 0
M  V30 3909 C 366.001 -1.27428 -1.96975 0
M  V30 3910 C 367.017 -0.182728 -1.73038 0
M  V30 3911 O 368.193 -0.408426 -1.97215 0
M  V30 3912 C 365.258 -1.02526 -3.31194 0
M  V30 3913 C 364.319 -2.20796 -3.68168 0
M  V30 3914 C 363.552 -1.97073 -4.95982 0
M  V30 3915 O 363.775 -0.926822 -5.6282 0
M  V30 3916 O 362.709 -2.83912 -5.30733 0
M  V30 3917 H 366.535 -2.23537 -2.05584 0
M  V30 3918 H 364.12 -1.14307 -0.961989 0
M  V30 3919 H 366.002 -0.904026 -4.11589 0
M  V30 3920 H 364.677 -0.0945389 -3.23562 0
M  V30 3921 H 363.584 -2.38477 -2.88235 0
M  V30 3922 H 364.917 -3.12243 -3.8048 0
M  V30 3923 N 366.569 1.04691 -1.17803 0
M  V30 3924 C 367.815 1.78045 -0.970969 0
M  V30 3925 C 368.148 1.87686 0.498751 0
M  V30 3926 O 367.423 1.38035 1.37027 0
M  V30 3927 C 367.706 3.2166 -1.61884 0
M  V30 3928 C 367.559 3.20001 -3.161 0
M  V30 3929 C 368.878 4.1962 -1.3269 0
M  V30 3930 H 365.997 0.64633 -0.354155 0
M  V30 3931 H 368.639 1.22333 -1.45378 0
M  V30 3932 H 366.789 3.69232 -1.20831 0
M  V30 3933 H 368.461 2.80467 -3.66246 0
M  V30 3934 H 366.704 2.58203 -3.48588 0
M  V30 3935 H 367.375 4.21386 -3.56564 0
M  V30 3936 H 369.851 3.80567 -1.68249 0
M  V30 3937 H 368.727 5.18339 -1.80599 0
M  V30 3938 H 368.988 4.414 -0.248622 0
M  V30 3939 N 368.047 0.979072 1.23499 0
M  V30 3940 C 368.977 0.537606 2.27227 0
M  V30 3941 C 369.958 -0.428539 1.64613 0
M  V30 3942 O 371.143 -0.322191 1.91509 0
M  V30 3943 C 368.273 -0.162052 3.46922 0
M  V30 3944 C 367.227 0.721242 4.21879 0
M  V30 3945 C 366.553 -0.110555 5.34586 0
M  V30 3946 C 367.853 2.01141 4.82016 0
M  V30 3947 H 369.547 1.40462 2.64406 0
M  V30 3948 H 367.093 0.67684 1.27102 0
M  V30 3949 H 369.046 -0.482192 4.18632 0
M  V30 3950 H 367.77 -1.06351 3.08799 0
M  V30 3951 H 366.429 1.02482 3.51984 0
M  V30 3952 H 366.077 -1.0125 4.92704 0
M  V30 3953 H 365.777 0.477325 5.85658 0
M  V30 3954 H 367.301 -0.425107 6.09118 0
M  V30 3955 H 368.715 1.75612 5.45741 0
M  V30 3956 H 367.112 2.54695 5.43369 0
M  V30 3957 H 368.182 2.69909 4.02836 0
M  V30 3958 N 369.525 -1.3858 0.750561 0
M  V30 3959 C 370.936 -1.82927 0.373438 0
M  V30 3960 C 371.287 -1.62634 -1.09748 0
M  V30 3961 O 370.412 -1.12588 -1.84805 0
M  V30 3962 C 371.007 -3.32088 0.671029 0
M  V30 3963 C 369.566 -3.74795 0.34722 0
M  V30 3964 C 368.713 -2.61391 0.92575 0
M  V30 3965 H 371.664 -1.27351 0.946958 0
M  V30 3966 H 371.685 -3.80465 -0.0518269 0
M  V30 3967 H 371.197 -3.46826 1.74164 0
M  V30 3968 H 369.298 -3.65638 -0.716933 0
M  V30 3969 H 369.411 -4.71667 0.840656 0
M  V30 3970 H 367.775 -2.52265 0.351327 0
M  V30 3971 H 368.558 -2.78929 2.00133 0
M  V30 3972 N 371.003 -0.499398 -1.49478 0
M  V30 3973 C 372.249 0.0457576 -2.02748 0
M  V30 3974 C 372.582 1.36793 -1.37846 0
M  V30 3975 O 371.857 1.87596 -0.513601 0
M  V30 3976 C 372.14 0.199986 -3.59544 0
M  V30 3977 C 371.993 -1.1452 -4.34977 0
M  V30 3978 C 373.312 0.94137 -4.29914 0
M  V30 3979 H 370.431 0.0151552 -0.736844 0
M  V30 3980 H 373.073 -0.650498 -1.78518 0
M  V30 3981 H 371.223 0.793007 -3.8032 0
M  V30 3982 H 372.895 -1.77697 -4.25701 0
M  V30 3983 H 371.138 -1.73488 -3.97598 0
M  V30 3984 H 371.809 -0.990607 -5.43039 0
M  V30 3985 H 374.285 0.43844 -4.13784 0
M  V30 3986 H 373.161 1.01812 -5.39375 0
M  V30 3987 H 373.422 1.98471 -3.95046 0
M  V30 3988 N 372.481 1.55866 -0.233164 0
M  V30 3989 C 373.709 2.02998 0.399905 0
M  V30 3990 C 374.124 1.11274 1.52524 0
M  V30 3991 O 373.481 0.124528 1.82075 0
M  V30 3992 C 373.532 3.4958 0.920639 0
M  V30 3993 O 373.253 4.37808 -0.159834 0
M  V30 3994 C 374.754 4.12411 1.62578 0
M  V30 3995 H 371.974 0.664006 0.0966281 0
M  V30 3996 H 374.518 2.0143 -0.353013 0
M  V30 3997 H 372.673 3.51727 1.62379 0
M  V30 3998 H 373.087 5.23981 0.23337 0
M  V30 3999 H 374.561 5.16711 1.94201 0
M  V30 4000 H 375.038 3.5809 2.54299 0
M  V30 4001 H 375.644 4.14148 0.967553 0
M  V30 4002 N 373.959 -0.0401083 1.57549 0
M  V30 4003 C 374.869 -1.06133 2.0922 0
M  V30 4004 C 375.885 -1.40356 1.0284 0
M  V30 4005 O 377.061 -1.49897 1.34509 0
M  V30 4006 C 374.126 -2.34658 2.55218 0
M  V30 4007 C 373.187 -2.07117 3.76033 0
M  V30 4008 C 372.42 -3.29514 4.19829 0
M  V30 4009 O 372.643 -4.39794 3.63232 0
M  V30 4010 O 371.577 -3.15863 5.12362 0
M  V30 4011 H 375.403 -0.652244 2.96613 0
M  V30 4012 H 372.988 -0.256368 1.47184 0
M  V30 4013 H 374.87 -3.10239 2.85184 0
M  V30 4014 H 373.545 -2.74883 1.70941 0
M  V30 4015 H 372.452 -1.29139 3.51104 0
M  V30 4016 H 373.785 -1.71754 4.61261 0
M  V30 4017 N 375.437 -1.54477 -0.31217 0
M  V30 4018 C 376.347 -1.87695 -1.4074 0
M  V30 4019 C 377.363 -0.769975 -1.56036 0
M  V30 4020 O 378.539 -1.06537 -1.70915 0
M  V30 4021 C 375.604 -2.10755 -2.75287 0
M  V30 4022 C 374.665 -3.34514 -2.69071 0
M  V30 4023 C 373.898 -3.56465 -3.97201 0
M  V30 4024 O 374.121 -2.81637 -4.96021 0
M  V30 4025 O 373.055 -4.49964 -3.9977 0
M  V30 4026 H 376.881 -2.80849 -1.15574 0
M  V30 4027 H 374.466 -1.40526 -0.507228 0
M  V30 4028 H 376.348 -2.27188 -3.54913 0
M  V30 4029 H 375.023 -1.20788 -3.0032 0
M  V30 4030 H 373.93 -3.23456 -1.87955 0
M  V30 4031 H 375.263 -4.24575 -2.48992 0
M  V30 4032 N 376.915 0.57481 -1.46744 0
M  V30 4033 C 378.163 1.33009 -1.52161 0
M  V30 4034 C 378.484 1.94185 -0.178092 0
M  V30 4035 O 377.754 1.7899 0.796196 0
M  V30 4036 H 376.334 0.493873 -0.560445 0
M  V30 4037 H 378.996 0.672589 -1.82927 0
M  V30 4038 H 378.092 2.13273 -2.27862 0
M  V30 4039 N 378.394 1.34581 0.820102 0
M  V30 4040 C 379.324 1.29038 1.94606 0
M  V30 4041 C 380.305 0.1673 1.69275 0
M  V30 4042 O 381.49 0.360112 1.90832 0
M  V30 4043 C 378.62 1.04793 3.31113 0
M  V30 4044 C 377.574 2.13597 3.70891 0
M  V30 4045 C 376.9 1.74537 5.05412 0
M  V30 4046 C 378.2 3.55451 3.8269 0
M  V30 4047 H 379.894 2.23248 1.99501 0
M  V30 4048 H 377.44 1.0747 0.958449 0
M  V30 4049 H 379.393 0.995592 4.0947 0
M  V30 4050 H 378.117 0.0702565 3.26524 0
M  V30 4051 H 376.776 2.17905 2.9481 0
M  V30 4052 H 376.424 0.754226 4.97313 0
M  V30 4053 H 376.124 2.47361 5.32997 0
M  V30 4054 H 377.648 1.70803 5.86224 0
M  V30 4055 H 379.062 3.5354 4.51312 0
M  V30 4056 H 377.459 4.26922 4.21732 0
M  V30 4057 H 378.529 3.92587 2.84611 0
M  V30 4058 N 379.872 -1.04064 1.18357 0
M  V30 4059 C 381.288 -1.2947 0.933258 0
M  V30 4060 C 381.488 -1.97466 -0.401169 0
M  V30 4061 O 380.544 -2.25528 -1.13549 0
M  V30 4062 C 381.857 -2.15337 2.09882 0
M  V30 4063 C 383.405 -2.28683 2.13712 0
M  V30 4064 C 383.88 -3.17917 3.29686 0
M  V30 4065 N 385.371 -3.25504 3.29547 0
M  V30 4066 C 386.106 -3.94706 4.15926 0
M  V30 4067 N 385.602 -4.66239 5.12439 0
M  V30 4068 N 387.395 -3.90986 4.0384 0
M  V30 4069 H 379.546 -0.583359 2.04232 0
M  V30 4070 H 381.809 -0.319921 0.892387 0
M  V30 4071 H 381.515 -1.72682 3.06389 0
M  V30 4072 H 381.389 -3.16015 2.05947 0
M  V30 4073 H 383.776 -2.70575 1.17784 0
M  V30 4074 H 383.857 -1.27596 2.21705 0
M  V30 4075 H 383.501 -2.76736 4.25887 0
M  V30 4076 H 383.431 -4.19036 3.1893 0
M  V30 4077 H 385.922 -2.74547 2.59677 0
M  V30 4078 H 386.235 -5.16638 5.74722 0
M  V30 4079 H 384.58 -4.65143 5.16398 0
M  V30 4080 H 387.771 -3.34234 3.27727 0
M  V30 4081 H 387.944 -4.44646 4.71375 0
M  V30 4082 N 381.35 -0.985608 -1.22978 0
M  V30 4083 C 382.26 -0.538548 -2.28335 0
M  V30 4084 C 383.276 0.409163 -1.69121 0
M  V30 4085 O 384.452 0.277797 -1.99475 0
M  V30 4086 C 381.517 0.146867 -3.46389 0
M  V30 4087 C 380.578 -0.842896 -4.20944 0
M  V30 4088 C 379.811 -0.190095 -5.33361 0
M  V30 4089 O 380.034 1.01767 -5.61248 0
M  V30 4090 O 378.968 -0.891289 -5.95264 0
M  V30 4091 H 382.794 -1.41487 -2.68729 0
M  V30 4092 H 380.379 -0.753495 -1.29007 0
M  V30 4093 H 382.261 0.531125 -4.1804 0
M  V30 4094 H 380.936 0.997871 -3.07935 0
M  V30 4095 H 379.843 -1.27795 -3.51595 0
M  V30 4096 H 381.176 -1.66287 -4.6326 0
M  V30 4097 N 382.828 1.3818 -0.7579 0
M  V30 4098 C 384.074 2.00316 -0.316453 0
M  V30 4099 C 384.407 1.60026 1.10025 0
M  V30 4100 O 383.682 0.839835 1.75434 0
M  V30 4101 C 383.965 3.57349 -0.444245 0
M  V30 4102 C 383.818 4.07591 -1.90236 0
M  V30 4103 C 385.137 4.3981 0.1598 0
M  V30 4104 H 382.256 0.727741 -0.116459 0
M  V30 4105 H 384.898 1.6406 -0.958352 0
M  V30 4106 H 383.048 3.88365 0.102233 0
M  V30 4107 H 384.72 3.87199 -2.50748 0
M  V30 4108 H 382.963 3.60297 -2.41595 0
M  V30 4109 H 383.634 5.16677 -1.94291 0
M  V30 4110 H 386.11 4.14971 -0.306314 0
M  V30 4111 H 384.986 5.48885 0.0401675 0
M  V30 4112 H 385.247 4.24102 1.24859 0
M  V30 4113 N 384.306 0.507319 1.49211 0
M  V30 4114 C 385.253 -0.267728 2.29242 0
M  V30 4115 C 386.223 -0.954609 1.35928 0
M  V30 4116 O 387.408 -0.960046 1.64887 0
M  V30 4117 C 384.548 -1.32243 3.18756 0
M  V30 4118 C 383.661 -0.64669 4.27132 0
M  V30 4119 C 382.796 -1.68238 5.03855 0
M  V30 4120 C 381.835 -0.98885 6.0406 0
M  V30 4121 N 380.972 -1.96903 6.73924 0
M  V30 4122 H 385.812 0.420968 2.95012 0
M  V30 4123 H 383.349 0.219443 1.45454 0
M  V30 4124 H 385.307 -1.94599 3.69036 0
M  V30 4125 H 383.937 -1.97981 2.54958 0
M  V30 4126 H 382.989 0.0902926 3.80293 0
M  V30 4127 H 384.301 -0.101058 4.98698 0
M  V30 4128 H 383.455 -2.38081 5.58034 0
M  V30 4129 H 382.194 -2.26187 4.32077 0
M  V30 4130 H 381.199 -0.276222 5.49106 0
M  V30 4131 H 382.424 -0.415767 6.77826 0
M  V30 4132 H 380.37 -2.53803 6.04913 0
M  V30 4133 H 380.287 -1.47423 7.41487 0
M  V30 4134 H 381.555 -2.66015 7.32705 0
M  V30 4135 N 385.784 -1.5574 0.241426 0
M  V30 4136 C 386.731 -2.21149 -0.660432 0
M  V30 4137 C 387.701 -1.17356 -1.17545 0
M  V30 4138 O 388.886 -1.45784 -1.23093 0
M  V30 4139 C 386.026 -2.91059 -1.85414 0
M  V30 4140 C 385.139 -4.09495 -1.37616 0
M  V30 4141 C 384.274 -4.67135 -2.529 0
M  V30 4142 C 383.313 -5.77831 -2.01936 0
M  V30 4143 N 382.45 -6.29677 -3.10566 0
M  V30 4144 H 387.29 -2.97845 -0.095955 0
M  V30 4145 H 384.827 -1.47057 -0.0356024 0
M  V30 4146 H 386.785 -3.29788 -2.5553 0
M  V30 4147 H 385.415 -2.16846 -2.39118 0
M  V30 4148 H 384.467 -3.76117 -0.569235 0
M  V30 4149 H 385.779 -4.89423 -0.962618 0
M  V30 4150 H 384.933 -5.08409 -3.31067 0
M  V30 4151 H 383.672 -3.86411 -2.97553 0
M  V30 4152 H 382.677 -5.36039 -1.22238 0
M  V30 4153 H 383.902 -6.60402 -1.58259 0
M  V30 4154 H 381.848 -5.5186 -3.54664 0
M  V30 4155 H 381.765 -7.04783 -2.73526 0
M  V30 4156 H 383.033 -6.75609 -3.88809 0
M  V30 4157 N 387.262 0.0317525 -1.57568 0
M  V30 4158 C 388.539 0.758366 -1.803 0
M  V30 4159 C 388.919 1.93718 -0.838845 0
M  V30 4160 O 388.267 2.28187 0.119571 0
M  V30 4161 C 388.477 1.19392 -3.27943 0
M  V30 4162 C 389.825 1.61094 -3.92854 0
M  V30 4163 O 390.849 1.28857 -3.32076 0
M  V30 4164 O 389.708 2.20918 -4.99858 0
M  V30 4165 H 386.802 0.366514 -0.741348 0
M  V30 4166 H 389.348 0.00873765 -1.69698 0
M  V30 4167 H 388.12 0.352275 -3.89711 0
M  V30 4168 H 387.743 2.00365 -3.43424 0
M  V30 4169 N 388.74 1.54641 0.303973 0
M  V30 4170 C 389.968 1.77768 1.05858 0
M  V30 4171 C 390.383 0.535722 1.8104 0
M  V30 4172 O 389.74 -0.494337 1.75677 0
M  V30 4173 C 389.791 2.9834 2.04146 0
M  V30 4174 O 389.512 4.17736 1.32015 0
M  V30 4175 C 391.013 3.33832 2.91669 0
M  V30 4176 H 388.233 0.592961 0.314067 0
M  V30 4177 H 390.777 2.01583 0.344149 0
M  V30 4178 H 388.932 2.76742 2.71096 0
M  V30 4179 H 389.346 4.85693 1.97998 0
M  V30 4180 H 390.82 4.21448 3.56491 0
M  V30 4181 H 391.297 2.51857 3.59812 0
M  V30 4182 H 391.903 3.57579 2.30254 0
M  V30 4183 N 390.218 -0.567019 1.47046 0
M  V30 4184 C 391.634 -0.891975 1.32348 0
M  V30 4185 C 391.834 -1.99154 0.306616 0
M  V30 4186 O 390.89 -2.50883 -0.28532 0
M  V30 4187 C 392.203 -1.29449 2.7141 0
M  V30 4188 C 393.751 -1.40646 2.79621 0
M  V30 4189 C 394.226 -1.84257 4.19301 0
M  V30 4190 N 395.717 -1.91424 4.21795 0
M  V30 4191 C 396.452 -2.26476 5.26779 0
M  V30 4192 N 395.948 -2.60211 6.42077 0
M  V30 4193 N 397.741 -2.27166 5.14152 0
M  V30 4194 H 389.892 0.159074 2.11803 0
M  V30 4195 H 392.155 0.00849752 0.947962 0
M  V30 4196 H 391.861 -0.560448 3.47206 0
M  V30 4197 H 391.735 -2.25273 3.02542 0
M  V30 4198 H 394.122 -2.13133 2.04104 0
M  V30 4199 H 394.203 -0.430339 2.52154 0
M  V30 4200 H 393.847 -1.12343 4.95319 0
M  V30 4201 H 393.777 -2.82855 4.44185 0
M  V30 4202 H 396.268 -1.6778 3.38612 0
M  V30 4203 H 396.581 -2.85956 7.17948 0
M  V30 4204 H 394.926 -2.57813 6.45413 0
M  V30 4205 H 398.117 -2.00244 4.23107 0
M  V30 4206 H 398.29 -2.54154 5.96079 0
M  V30 4207 N 391.696 -1.35014 -0.812953 0
M  V30 4208 C 393.107 -1.25035 -1.38648 0
M  V30 4209 C 393.458 0.119967 -1.95833 0
M  V30 4210 O 392.583 1.02069 -1.90816 0
M  V30 4211 C 393.178 -2.26394 -2.52054 0
M  V30 4212 C 391.737 -2.20175 -3.05287 0
M  V30 4213 C 390.884 -2.12451 -1.78213 0
M  V30 4214 H 393.835 -1.46235 -0.616516 0
M  V30 4215 H 393.856 -1.88672 -3.30429 0
M  V30 4216 H 393.368 -3.26116 -2.10404 0
M  V30 4217 H 391.469 -1.23841 -3.51417 0
M  V30 4218 H 391.582 -3.11863 -3.63701 0
M  V30 4219 H 389.946 -1.58328 -1.9951 0
M  V30 4220 H 390.729 -3.14024 -1.38723 0
M  V30 4221 N 393.175 1.03435 -1.18907 0
M  V30 4222 C 394.108 2.11162 -0.86521 0
M  V30 4223 C 395.086 1.6165 0.175473 0
M  V30 4224 O 396.27 1.88425 0.0530129 0
M  V30 4225 C 393.397 3.37423 -0.293868 0
M  V30 4226 C 392.443 4.05795 -1.31274 0
M  V30 4227 S 393.276 4.52027 -2.8711 0
M  V30 4228 C 394.432 5.81513 -2.31504 0
M  V30 4229 H 394.665 2.38308 -1.77754 0
M  V30 4230 H 392.198 1.16295 -1.01562 0
M  V30 4231 H 394.156 4.1049 0.0292572 0
M  V30 4232 H 392.817 3.0838 0.596682 0
M  V30 4233 H 392.01 4.96574 -0.86198 0
M  V30 4234 H 391.612 3.38874 -1.58242 0
M  V30 4235 H 393.904 6.55784 -1.70157 0
M  V30 4236 H 394.847 6.3136 -3.20608 0
M  V30 4237 H 395.255 5.36921 -1.74286 0
M  V30 4238 N 394.653 0.992116 1.22453 0
M  V30 4239 C 395.878 0.685644 1.95739 0
M  V30 4240 C 396.303 -0.743 1.72804 0
M  V30 4241 O 395.661 -1.50778 1.00676 0
M  V30 4242 C 395.709 0.996293 3.46564 0
M  V30 4243 O 394.813 0.0945512 4.12292 0
M  V30 4244 H 394.154 0.256694 0.612376 0
M  V30 4245 H 396.684 1.32888 1.5557 0
M  V30 4246 H 396.694 0.93781 3.97076 0
M  V30 4247 H 395.369 2.03733 3.62582 0
M  V30 4248 H 393.946 0.208451 3.72317 0
M  V30 4249 N 396.131 -1.37776 0.765217 0
M  V30 4250 C 397.547 -1.53297 0.444108 0
M  V30 4251 C 397.747 -1.72515 -1.04119 0
M  V30 4252 O 396.803 -1.74278 -1.82711 0
M  V30 4253 C 398.116 -2.73328 1.25349 0
M  V30 4254 C 399.664 -2.87185 1.24473 0
M  V30 4255 C 400.139 -4.10191 2.03733 0
M  V30 4256 N 401.63 -4.17291 2.01053 0
M  V30 4257 C 402.365 -5.11488 2.59166 0
M  V30 4258 N 401.861 -6.11285 3.26041 0
M  V30 4259 N 403.654 -5.03924 2.49032 0
M  V30 4260 H 395.805 -1.23552 1.72768 0
M  V30 4261 H 398.068 -0.601103 0.733062 0
M  V30 4262 H 397.774 -2.6557 2.30577 0
M  V30 4263 H 397.648 -3.66834 0.87823 0
M  V30 4264 H 400.035 -2.94418 0.20047 0
M  V30 4265 H 400.116 -1.94657 1.65959 0
M  V30 4266 H 399.76 -4.0372 3.08176 0
M  V30 4267 H 399.69 -5.01821 1.59633 0
M  V30 4268 H 402.181 -3.45825 1.5236 0
M  V30 4269 H 402.494 -6.79678 3.67774 0
M  V30 4270 H 400.839 -6.11583 3.30138 0
M  V30 4271 H 404.03 -4.24902 1.96407 0
M  V30 4272 H 404.203 -5.77152 2.94617 0
M  V30 4273 N 397.609 -0.515225 -1.4894 0
M  V30 4274 C 398.834 0.022727 -2.07388 0
M  V30 4275 C 399.259 1.2876 -1.37122 0
M  V30 4276 O 398.617 1.76067 -0.432431 0
M  V30 4277 C 398.665 0.244869 -3.59768 0
M  V30 4278 O 397.769 1.31667 -3.90817 0
M  V30 4279 H 397.11 -0.0325506 -0.663202 0
M  V30 4280 H 399.64 -0.718918 -1.91553 0
M  V30 4281 H 399.65 0.47205 -4.0526 0
M  V30 4282 H 398.325 -0.679194 -4.10317 0
M  V30 4283 H 396.902 1.07331 -3.5712 0
M  V30 4284 N 399.087 1.5561 -0.249682 0
M  V30 4285 C 400.034 2.21496 0.648694 0
M  V30 4286 C 401.004 1.17977 1.16921 0
M  V30 4287 O 402.189 1.46434 1.22318 0
M  V30 4288 C 399.329 2.92039 1.83868 0
M  V30 4289 C 398.442 4.10219 1.35442 0
M  V30 4290 C 397.577 4.6847 2.50419 0
M  V30 4291 C 396.616 5.78893 1.98869 0
M  V30 4292 N 395.753 6.31315 3.07223 0
M  V30 4293 H 400.593 2.97892 0.0801582 0
M  V30 4294 H 398.13 1.47074 0.0278031 0
M  V30 4295 H 400.088 3.31138 2.53778 0
M  V30 4296 H 398.718 2.18111 2.37965 0
M  V30 4297 H 397.77 3.76413 0.54928 0
M  V30 4298 H 399.082 4.89927 0.936649 0
M  V30 4299 H 398.236 5.10158 3.28366 0
M  V30 4300 H 396.975 3.87984 2.95499 0
M  V30 4301 H 395.98 5.3668 1.19393 0
M  V30 4302 H 397.205 6.61232 1.54755 0
M  V30 4303 H 395.151 5.53733 3.51732 0
M  V30 4304 H 395.068 7.06224 2.69784 0
M  V30 4305 H 396.336 6.77662 3.8522 0
M  V30 4306 N 400.565 -0.0233959 1.57583 0
M  V30 4307 C 401.515 -1.03023 2.03397 0
M  V30 4308 C 402.499 -1.31701 0.924315 0
M  V30 4309 O 403.691 -1.31191 1.18819 0
M  V30 4310 C 400.82 -2.32961 2.52159 0
M  V30 4311 C 399.906 -2.07349 3.69956 0
M  V30 4312 N 400.297 -1.51814 4.82479 0
M  V30 4313 C 398.595 -2.37606 3.77438 0
M  V30 4314 C 399.296 -1.42136 5.64068 0
M  V30 4315 N 398.272 -1.89891 5.09355 0
M  V30 4316 H 402.074 -0.594962 2.87815 0
M  V30 4317 H 399.588 -0.229586 1.60769 0
M  V30 4318 H 401.585 -3.05906 2.83244 0
M  V30 4319 H 400.245 -2.77162 1.69149 0
M  V30 4320 H 401.256 -1.20008 5.03804 0
M  V30 4321 H 397.933 -2.84842 3.05239 0
M  V30 4322 H 399.323 -0.996405 6.64471 0
M  V30 4323 N 402.043 -1.548 -0.295768 0
M  V30 4324 C 403.291 -1.73985 -1.02828 0
M  V30 4325 C 403.612 -0.531406 -1.87619 0
M  V30 4326 O 402.882 0.454221 -1.90561 0
M  V30 4327 H 401.462 -0.641556 -0.382642 0
M  V30 4328 H 404.124 -1.92163 -0.325489 0
M  V30 4329 H 403.22 -2.63129 -1.67838 0
M  V30 4330 N 403.521 0.559213 -1.47345 0
M  V30 4331 C 404.769 1.31388 -1.53563 0
M  V30 4332 C 405.09 1.93985 -0.198678 0
M  V30 4333 O 404.36 1.79825 0.777167 0
M  V30 4334 H 402.94 0.487901 -0.565652 0
M  V30 4335 H 405.602 0.65315 -1.8363 0
M  V30 4336 H 404.698 2.10844 -2.30111 0
M  V30 4337 N 404.999 1.35443 0.805782 0
M  V30 4338 C 406.245 1.2996 1.56467 0
M  V30 4339 C 406.6 -0.124742 1.91995 0
M  V30 4340 O 405.893 -1.07533 1.58579 0
M  V30 4341 C 406.087 2.14045 2.86216 0
M  V30 4342 C 405.916 3.64512 2.63365 0
M  V30 4343 C 404.686 4.33744 2.59219 0
M  V30 4344 C 406.884 4.58142 2.33688 0
M  V30 4345 N 404.866 5.69953 2.28094 0
M  V30 4346 C 406.237 5.8248 2.12408 0
M  V30 4347 C 408.292 4.46877 2.19558 0
M  V30 4348 C 406.995 6.96818 1.78429 0
M  V30 4349 C 409.021 5.61065 1.86976 0
M  V30 4350 C 408.383 6.84431 1.66532 0
M  V30 4351 H 404.482 0.530817 0.574245 0
M  V30 4352 H 407.066 1.70333 0.943126 0
M  V30 4353 H 405.237 1.75942 3.46264 0
M  V30 4354 H 406.969 2.00075 3.51784 0
M  V30 4355 H 403.724 3.86365 2.73896 0
M  V30 4356 H 404.148 6.41845 2.15323 0
M  V30 4357 H 408.79 3.52102 2.34061 0
M  V30 4358 H 406.508 7.91559 1.62664 0
M  V30 4359 H 410.094 5.54302 1.7675 0
M  V30 4360 H 408.974 7.71294 1.41688 0
M  V30 4361 N 406.477 -1.02803 1.19454 0
M  V30 4362 C 407.407 -2.12999 0.956758 0
M  V30 4363 C 408.388 -1.69743 -0.110188 0
M  V30 4364 O 409.573 -1.94148 0.0450038 0
M  V30 4365 C 406.703 -3.43746 0.495553 0
M  V30 4366 C 405.657 -4.00688 1.50443 0
M  V30 4367 C 404.983 -5.27067 0.900275 0
M  V30 4368 C 406.283 -4.35397 2.8849 0
M  V30 4369 H 407.977 -2.33148 1.87836 0
M  V30 4370 H 405.523 -1.12045 0.904539 0
M  V30 4371 H 407.476 -4.2021 0.316493 0
M  V30 4372 H 406.2 -3.23321 -0.461646 0
M  V30 4373 H 404.859 -3.2632 1.67065 0
M  V30 4374 H 404.507 -5.02959 -0.064503 0
M  V30 4375 H 404.207 -5.66127 1.57397 0
M  V30 4376 H 405.731 -6.06196 0.73203 0
M  V30 4377 H 407.145 -5.02795 2.75446 0
M  V30 4378 H 405.542 -4.85541 3.52661 0
M  V30 4379 H 406.612 -3.44662 3.41081 0
M  V30 4380 N 407.956 -0.998596 -1.21925 0
M  V30 4381 C 408.886 -0.573688 -2.26343 0
M  V30 4382 C 409.867 0.402296 -1.65274 0
M  V30 4383 O 411.052 0.291683 -1.91997 0
M  V30 4384 C 408.182 0.106839 -3.47136 0
M  V30 4385 C 407.136 -0.788269 -4.20678 0
M  V30 4386 C 406.462 0.0254927 -5.34694 0
M  V30 4387 C 407.762 -2.08784 -4.78755 0
M  V30 4388 H 409.456 -1.44651 -2.62138 0
M  V30 4389 H 407.002 -0.696975 -1.26009 0
M  V30 4390 H 408.955 0.415531 -4.19346 0
M  V30 4391 H 407.679 1.01424 -3.10452 0
M  V30 4392 H 406.338 -1.08069 -3.50309 0
M  V30 4393 H 405.986 0.933989 -4.94253 0
M  V30 4394 H 405.686 -0.570437 -5.84825 0
M  V30 4395 H 407.21 0.328147 -6.09718 0
M  V30 4396 H 408.624 -1.84272 -5.42878 0
M  V30 4397 H 407.021 -2.63307 -5.39249 0
M  V30 4398 H 408.091 -2.76284 -3.98491 0
M  V30 4399 N 409.434 1.37368 -0.772513 0
M  V30 4400 C 410.85 1.53059 -0.452231 0
M  V30 4401 C 411.05 1.73065 1.03203 0
M  V30 4402 O 410.106 1.75245 1.81784 0
M  V30 4403 C 411.419 2.72659 -1.26797 0
M  V30 4404 C 412.967 2.86521 -1.25995 0
M  V30 4405 C 413.442 4.09105 -2.05905 0
M  V30 4406 N 414.933 4.16219 -2.03263 0
M  V30 4407 C 415.668 5.10107 -2.61875 0
M  V30 4408 N 415.164 6.09547 -3.29278 0
M  V30 4409 N 416.957 5.02596 -2.51701 0
M  V30 4410 H 409.108 1.22634 -1.7342 0
M  V30 4411 H 411.371 0.597206 -0.736239 0
M  V30 4412 H 411.077 2.64343 -2.31982 0
M  V30 4413 H 410.951 3.66363 -0.897672 0
M  V30 4414 H 413.338 2.94308 -0.216081 0
M  V30 4415 H 413.419 1.93774 -1.66989 0
M  V30 4416 H 413.063 4.0208 -3.10313 0
M  V30 4417 H 412.993 5.00968 -1.62292 0
M  V30 4418 H 415.484 3.45012 -1.54192 0
M  V30 4419 H 415.797 6.77718 -3.71374 0
M  V30 4420 H 414.142 6.09824 -3.33377 0
M  V30 4421 H 417.333 4.23855 -1.98657 0
M  V30 4422 H 417.506 5.75582 -2.97673 0
M  V30 4423 N 410.912 0.523116 1.48665 0
M  V30 4424 C 411.822 -0.247406 2.33292 0
M  V30 4425 C 412.838 -0.945769 1.46052 0
M  V30 4426 O 414.014 -0.922253 1.79043 0
M  V30 4427 C 411.079 -1.28487 3.22012 0
M  V30 4428 C 410.14 -0.597592 4.2512 0
M  V30 4429 C 409.373 -1.58563 5.09601 0
M  V30 4430 O 409.596 -2.81763 4.95949 0
M  V30 4431 O 408.53 -1.12879 5.91221 0
M  V30 4432 H 412.356 0.445869 3.00409 0
M  V30 4433 H 409.941 0.284128 1.46673 0
M  V30 4434 H 411.823 -1.88459 3.7691 0
M  V30 4435 H 410.498 -1.96068 2.57564 0
M  V30 4436 H 409.405 0.0424407 3.74076 0
M  V30 4437 H 410.738 0.0361517 4.92187 0
M  V30 4438 N 412.39 -1.55475 0.257931 0
M  V30 4439 C 413.34 -2.18506 -0.651094 0
M  V30 4440 C 414.324 -1.14431 -1.13112 0
M  V30 4441 O 415.516 -1.40305 -1.07905 0
M  V30 4442 C 412.645 -2.89653 -1.84272 0
M  V30 4443 C 411.731 -4.00996 -1.38068 0
M  V30 4444 N 412.122 -5.01816 -0.633609 0
M  V30 4445 C 410.42 -4.13753 -1.66506 0
M  V30 4446 C 411.121 -5.80371 -0.392922 0
M  V30 4447 N 410.097 -5.3505 -0.960359 0
M  V30 4448 H 413.899 -2.93811 -0.0722883 0
M  V30 4449 H 411.413 -1.62286 0.0607256 0
M  V30 4450 H 413.41 -3.33245 -2.50506 0
M  V30 4451 H 412.07 -2.15854 -2.42564 0
M  V30 4452 H 413.081 -5.17128 -0.282626 0
M  V30 4453 H 409.758 -3.51133 -2.25858 0
M  V30 4454 H 411.148 -6.7159 0.204235 0
M  V30 4455 N 413.868 0.0150385 -1.57593 0
M  V30 4456 C 414.8 1.03912 -2.04291 0
M  V30 4457 C 415.813 1.31618 -0.958146 0
M  V30 4458 O 417.002 1.28859 -1.23522 0
M  V30 4459 C 414.102 2.37749 -2.41514 0
M  V30 4460 C 413.275 2.29198 -3.72541 0
M  V30 4461 C 412.334 3.45598 -3.96797 0
M  V30 4462 O 411.36 3.24461 -4.67668 0
M  V30 4463 N 412.562 4.67945 -3.43523 0
M  V30 4464 H 415.327 0.64099 -2.92765 0
M  V30 4465 H 412.888 0.20272 -1.60626 0
M  V30 4466 H 414.88 3.14364 -2.54867 0
M  V30 4467 H 413.45 2.69357 -1.58637 0
M  V30 4468 H 412.67 1.3759 -3.69408 0
M  V30 4469 H 413.958 2.20642 -4.5847 0
M  V30 4470 H 413.356 4.88017 -2.86104 0
M  V30 4471 H 411.913 5.41878 -3.62232 0
M  V30 4472 N 415.346 1.54954 0.287554 0
M  V30 4473 C 416.309 1.86076 1.33823 0
M  V30 4474 C 417.309 0.734414 1.43049 0
M  V30 4475 O 418.499 1.00266 1.42452 0
M  V30 4476 C 415.631 2.05305 2.72144 0
M  V30 4477 H 416.824 2.79984 1.07465 0
M  V30 4478 H 414.377 1.47223 0.524902 0
M  V30 4479 H 415.112 1.1373 3.03704 0
M  V30 4480 H 414.897 2.873 2.66836 0
M  V30 4481 H 416.387 2.30706 3.48087 0
M  V30 4482 N 416.824 -0.551391 1.4764 0
M  V30 4483 C 418.072 -1.30572 1.54258 0
M  V30 4484 C 418.393 -1.93877 0.208963 0
M  V30 4485 O 417.663 -1.80234 -0.767619 0
M  V30 4486 H 416.243 -0.484894 0.568231 0
M  V30 4487 H 418.905 -0.643402 1.83974 0
M  V30 4488 H 418.001 -2.09621 2.31226 0
M  V30 4489 N 418.302 -1.35869 -0.798587 0
M  V30 4490 C 419.549 -1.29588 -1.55606 0
M  V30 4491 C 419.877 0.127456 -1.94082 0
M  V30 4492 O 419.132 1.09461 -1.62225 0
M  V30 4493 C 419.431 -2.1556 -2.85077 0
M  V30 4494 C 419.097 -3.6424 -2.65781 0
M  V30 4495 C 417.759 -4.04766 -2.60227 0
M  V30 4496 C 420.111 -4.58547 -2.47758 0
M  V30 4497 C 417.439 -5.37753 -2.34603 0
M  V30 4498 C 419.791 -5.91742 -2.23662 0
M  V30 4499 C 418.455 -6.31402 -2.16534 0
M  V30 4500 H 417.725 -0.474197 -0.569402 0
M  V30 4501 H 420.372 -1.67839 -0.922086 0
M  V30 4502 H 418.677 -1.70216 -3.52893 0
M  V30 4503 H 420.374 -2.08031 -3.42818 0
M  V30 4504 H 416.964 -3.32086 -2.70956 0
M  V30 4505 H 421.148 -4.28117 -2.51056 0
M  V30 4506 H 416.404 -5.67474 -2.2756 0
M  V30 4507 H 420.578 -6.6439 -2.08708 0
M  V30 4508 H 418.205 -7.34381 -1.96441 0
M  V30 4509 N 419.78 1.02168 -1.19998 0
M  V30 4510 C 420.69 2.14069 -0.959774 0
M  V30 4511 C 421.706 1.73804 0.082655 0
M  V30 4512 O 422.882 2.01133 -0.103633 0
M  V30 4513 C 419.947 3.42936 -0.509459 0
M  V30 4514 C 419.008 3.97474 -1.62213 0
M  V30 4515 C 418.241 5.2019 -1.19321 0
M  V30 4516 O 418.464 5.70369 -0.0597726 0
M  V30 4517 O 417.398 5.67749 -1.99863 0
M  V30 4518 H 421.224 2.37199 -1.89658 0
M  V30 4519 H 418.809 1.12469 -0.983411 0
M  V30 4520 H 420.691 4.20551 -0.267322 0
M  V30 4521 H 419.366 3.21234 0.398821 0
M  V30 4522 H 418.273 3.21161 -1.9185 0
M  V30 4523 H 419.606 4.23555 -2.50723 0
M  V30 4524 N 421.258 1.00505 1.21394 0
M  V30 4525 C 422.205 0.565496 2.23765 0
M  V30 4526 C 423.175 -0.408466 1.60999 0
M  V30 4527 O 424.36 -0.310503 1.88257 0
M  V30 4528 C 421.5 -0.101667 3.4495 0
M  V30 4529 C 420.613 0.915479 4.22188 0
M  V30 4530 C 419.748 0.220574 5.30742 0
M  V30 4531 C 418.787 1.22527 5.99711 0
M  V30 4532 N 417.924 0.557831 6.9988 0
M  V30 4533 H 422.764 1.44314 2.60725 0
M  V30 4534 H 420.301 0.722643 1.28126 0
M  V30 4535 H 422.259 -0.505504 4.14126 0
M  V30 4536 H 420.889 -0.94303 3.08718 0
M  V30 4537 H 419.941 1.43756 3.52191 0
M  V30 4538 H 421.253 1.68005 4.69655 0
M  V30 4539 H 420.407 -0.239368 6.06228 0
M  V30 4540 H 419.146 -0.576401 4.84282 0
M  V30 4541 H 418.151 1.69571 5.22997 0
M  V30 4542 H 419.376 2.02332 6.48258 0
M  V30 4543 H 417.322 -0.219486 6.55633 0
M  V30 4544 H 417.239 1.26065 7.45415 0
M  V30 4545 H 418.507 0.121095 7.79406 0
M  V30 4546 N 422.737 -1.36956 0.779787 0
M  V30 4547 C 423.667 -2.32761 0.185651 0
M  V30 4548 C 424.648 -1.56177 -0.673989 0
M  V30 4549 O 425.833 -1.84378 -0.609797 0
M  V30 4550 C 422.963 -3.40418 -0.687964 0
M  V30 4551 C 421.917 -4.27941 0.0710102 0
M  V30 4552 C 421.243 -5.26681 -0.922573 0
M  V30 4553 C 422.543 -5.07006 1.25467 0
M  V30 4554 H 424.237 -2.82698 0.986008 0
M  V30 4555 H 421.783 -1.3592 0.475592 0
M  V30 4556 H 423.736 -4.06423 -1.11348 0
M  V30 4557 H 422.46 -2.89025 -1.52093 0
M  V30 4558 H 421.119 -3.63478 0.47739 0
M  V30 4559 H 420.767 -4.71565 -1.7503 0
M  V30 4560 H 420.467 -5.86103 -0.419237 0
M  V30 4561 H 421.991 -5.9556 -1.34686 0
M  V30 4562 H 423.405 -5.66105 0.905401 0
M  V30 4563 H 421.802 -5.75793 1.69063 0
M  V30 4564 H 422.872 -4.3921 2.05481 0
M  V30 4565 N 424.215 -0.530993 -1.48385 0
M  V30 4566 C 425.631 -0.188919 -1.58478 0
M  V30 4567 C 425.831 1.30786 -1.53288 0
M  V30 4568 O 424.887 2.08619 -1.42248 0
M  V30 4569 C 426.2 -0.792343 -2.90073 0
M  V30 4570 C 427.748 -0.76117 -3.03604 0
M  V30 4571 C 428.223 -1.34319 -4.37861 0
M  V30 4572 N 429.714 -1.3052 -4.44431 0
M  V30 4573 C 430.449 -1.72543 -5.46824 0
M  V30 4574 N 429.945 -2.22299 -6.56167 0
M  V30 4575 N 431.738 -1.63773 -5.37712 0
M  V30 4576 H 423.889 -1.50377 -1.50002 0
M  V30 4577 H 426.152 -0.625559 -0.712306 0
M  V30 4578 H 425.858 -1.84323 -2.99529 0
M  V30 4579 H 425.732 -0.270026 -3.76232 0
M  V30 4580 H 428.119 0.280957 -2.93759 0
M  V30 4581 H 428.2 -1.32097 -2.19053 0
M  V30 4582 H 427.844 -2.38425 -4.4846 0
M  V30 4583 H 427.774 -0.759064 -5.21101 0
M  V30 4584 H 430.265 -0.940973 -3.65997 0
M  V30 4585 H 430.578 -2.52356 -7.30436 0
M  V30 4586 H 428.923 -2.26293 -6.57127 0
M  V30 4587 H 432.114 -1.24698 -4.51185 0
M  V30 4588 H 432.287 -1.96844 -6.17379 0
M  V30 4589 N 425.693 1.55336 -0.266172 0
M  V30 4590 C 427.109 1.59356 0.0882065 0
M  V30 4591 C 427.309 1.2834 1.55342 0
M  V30 4592 O 426.365 1.03996 2.30089 0
M  V30 4593 C 427.678 2.99409 -0.278364 0
M  V30 4594 C 429.226 3.12196 -0.224243 0
M  V30 4595 C 429.701 4.545 -0.565123 0
M  V30 4596 N 431.192 4.60313 -0.51634 0
M  V30 4597 C 431.927 5.68434 -0.753013 0
M  V30 4598 N 431.423 6.84738 -1.05383 0
M  V30 4599 N 433.216 5.57942 -0.682414 0
M  V30 4600 H 425.367 1.73764 -1.22147 0
M  V30 4601 H 427.63 0.809822 -0.492841 0
M  V30 4602 H 427.336 3.2691 -1.29703 0
M  V30 4603 H 427.21 3.75228 0.385186 0
M  V30 4604 H 429.597 2.84464 0.78512 0
M  V30 4605 H 429.678 2.38609 -0.921922 0
M  V30 4606 H 429.322 4.82956 -1.57213 0
M  V30 4607 H 429.252 5.26374 0.154248 0
M  V30 4608 H 431.743 3.7676 -0.29335 0
M  V30 4609 H 432.056 7.63088 -1.22133 0
M  V30 4610 H 430.401 6.86375 -1.09151 0
M  V30 4611 H 433.592 4.65958 -0.44731 0
M  V30 4612 H 433.765 6.4213 -0.870248 0
M  V30 4613 N 427.171 -0.0066808 1.57599 0
M  V30 4614 C 428.399 -0.704087 1.94551 0
M  V30 4615 C 428.814 -1.67677 0.867746 0
M  V30 4616 O 428.171 -1.8185 -0.153925 0
M  V30 4617 C 428.222 -1.44177 3.31505 0
M  V30 4618 O 427.943 -0.508097 4.35144 0
M  V30 4619 C 429.444 -2.23429 3.82876 0
M  V30 4620 H 426.664 -0.196523 0.641576 0
M  V30 4621 H 429.208 0.042453 2.04456 0
M  V30 4622 H 427.363 -2.13999 3.22929 0
M  V30 4623 H 427.777 -1.02782 5.14331 0
M  V30 4624 H 429.251 -2.70552 4.8115 0
M  V30 4625 H 429.728 -3.05818 3.15233 0
M  V30 4626 H 430.334 -1.58636 3.94607 0
M  V30 4627 N 428.649 -1.55105 -0.279332 0
M  V30 4628 C 430.065 -1.46803 -0.626187 0
M  V30 4629 C 430.265 -0.676939 -1.89789 0
M  V30 4630 O 429.321 -0.19326 -2.51759 0
M  V30 4631 C 430.634 -2.90962 -0.759034 0
M  V30 4632 C 432.182 -3.01138 -0.853504 0
M  V30 4633 C 432.657 -4.46539 -1.01818 0
M  V30 4634 N 434.148 -4.50341 -1.08386 0
M  V30 4635 C 434.883 -5.60053 -1.22996 0
M  V30 4636 N 434.379 -6.79645 -1.34366 0
M  V30 4637 N 436.172 -5.47783 -1.26056 0
M  V30 4638 H 428.323 -2.04996 0.555921 0
M  V30 4639 H 430.586 -0.929325 0.187239 0
M  V30 4640 H 430.292 -3.51544 0.104852 0
M  V30 4641 H 430.166 -3.39619 -1.64131 0
M  V30 4642 H 432.553 -2.40658 -1.70786 0
M  V30 4643 H 432.634 -2.55745 0.0532466 0
M  V30 4644 H 432.278 -5.0762 -0.168504 0
M  V30 4645 H 432.208 -4.89583 -1.93948 0
M  V30 4646 H 434.699 -3.64191 -1.00864 0
M  V30 4647 H 435.012 -7.59012 -1.4533 0
M  V30 4648 H 433.357 -6.82469 -1.31382 0
M  V30 4649 H 436.548 -4.53294 -1.168 0
M  V30 4650 H 436.721 -6.33331 -1.37098 0
M  V30 4651 N 430.127 0.543554 -1.4793 0
M  V30 4652 C 431.375 1.29752 -1.54948 0
M  V30 4653 C 431.696 1.93764 -0.219242 0
M  V30 4654 O 430.966 1.80639 0.75805 0
M  V30 4655 H 429.546 0.481874 -0.570795 0
M  V30 4656 H 432.208 0.633636 -1.84312 0
M  V30 4657 H 431.304 2.08392 -2.32334 0
M  V30 4658 N 431.605 1.3629 0.791371 0
M  V30 4659 C 432.515 1.32606 1.93527 0
M  V30 4660 C 433.531 0.228541 1.72493 0
M  V30 4661 O 434.707 0.460571 1.96063 0
M  V30 4662 C 431.772 1.11271 3.28359 0
M  V30 4663 C 430.833 2.3048 3.62185 0
M  V30 4664 C 430.066 2.10154 4.90583 0
M  V30 4665 O 430.289 1.07572 5.60165 0
M  V30 4666 O 429.223 2.97884 5.23019 0
M  V30 4667 H 433.049 2.28909 1.99585 0
M  V30 4668 H 430.634 1.16818 0.931344 0
M  V30 4669 H 432.516 1.01283 4.09047 0
M  V30 4670 H 431.191 0.180292 3.23198 0
M  V30 4671 H 430.098 2.46036 2.81811 0
M  V30 4672 H 431.431 3.22221 3.72068 0
M  V30 4673 N 433.083 -1.0153 1.20538 0
M  V30 4674 C 433.993 -2.13557 0.971113 0
M  V30 4675 C 435.009 -1.73845 -0.0734366 0
M  V30 4676 O 436.185 -2.01075 0.114299 0
M  V30 4677 C 433.25 -3.42661 0.527639 0
M  V30 4678 C 432.311 -3.96608 1.64319 0
M  V30 4679 C 431.544 -5.1955 1.22078 0
M  V30 4680 O 431.767 -5.70329 0.0900198 0
M  V30 4681 O 430.701 -5.66681 2.02871 0
M  V30 4682 H 434.527 -2.3619 1.90913 0
M  V30 4683 H 432.112 -1.11946 0.989362 0
M  V30 4684 H 433.994 -4.20404 0.289621 0
M  V30 4685 H 432.669 -3.21441 -0.381779 0
M  V30 4686 H 431.576 -3.20139 1.93551 0
M  V30 4687 H 432.909 -4.22219 2.52966 0
M  V30 4688 N 434.561 -1.01147 -1.20859 0
M  V30 4689 C 435.508 -0.577354 -2.23462 0
M  V30 4690 C 436.478 0.399922 -1.61214 0
M  V30 4691 O 437.663 0.300515 -1.88419 0
M  V30 4692 C 434.803 0.083372 -3.44999 0
M  V30 4693 C 433.916 -0.937856 -4.21697 0
M  V30 4694 C 433.051 -0.248717 -5.30617 0
M  V30 4695 C 432.09 -1.25705 -5.99053 0
M  V30 4696 N 431.227 -0.594939 -6.99575 0
M  V30 4697 H 436.067 -1.45695 -2.59956 0
M  V30 4698 H 433.604 -0.729428 -1.27741 0
M  V30 4699 H 435.562 0.483535 -4.14388 0
M  V30 4700 H 434.192 0.926645 -3.09214 0
M  V30 4701 H 433.244 -1.45622 -3.51423 0
M  V30 4702 H 434.556 -1.70493 -4.68757 0
M  V30 4703 H 433.71 0.207215 -6.06346 0
M  V30 4704 H 432.449 0.55071 -4.84581 0
M  V30 4705 H 431.454 -1.72343 -5.2209 0
M  V30 4706 H 432.679 -2.05767 -6.47176 0
M  V30 4707 H 430.625 0.184713 -6.5574 0
M  V30 4708 H 430.542 -1.30017 -7.44736 0
M  V30 4709 H 431.81 -0.162427 -7.79331 0
M  V30 4710 N 436.039 1.36541 -0.78704 0
M  V30 4711 C 436.949 2.3387 -0.184896 0
M  V30 4712 C 437.965 1.60927 0.661697 0
M  V30 4713 O 439.141 1.92927 0.57804 0
M  V30 4714 C 436.206 3.40122 0.672145 0
M  V30 4715 C 435.267 4.28867 -0.19267 0
M  V30 4716 C 434.5 5.30045 0.623561 0
M  V30 4717 O 434.723 5.39232 1.8597 0
M  V30 4718 O 433.657 6.01895 0.0247068 0
M  V30 4719 H 437.483 2.87126 -0.989562 0
M  V30 4720 H 435.068 1.38969 -0.548455 0
M  V30 4721 H 436.95 4.05093 1.16094 0
M  V30 4722 H 435.625 2.89169 1.45474 0
M  V30 4723 H 434.532 3.66945 -0.728166 0
M  V30 4724 H 435.865 4.83165 -0.938722 0
M  V30 4725 N 437.518 0.538854 1.48102 0
M  V30 4726 C 438.481 -0.208395 2.28251 0
M  V30 4727 C 439.481 -0.859656 1.35892 0
M  V30 4728 O 440.671 -0.71834 1.58699 0
M  V30 4729 C 437.803 -1.30252 3.15035 0
M  V30 4730 H 438.996 0.495407 2.9578 0
M  V30 4731 H 436.549 0.295112 1.53489 0
M  V30 4732 H 437.284 -2.0393 2.52157 0
M  V30 4733 H 437.069 -0.840551 3.82985 0
M  V30 4734 H 438.559 -1.82787 3.75471 0
M  V30 4735 N 438.996 -1.55193 0.274407 0
M  V30 4736 C 439.906 -2.26164 -0.623473 0
M  V30 4737 C 440.922 -1.28729 -1.17068 0
M  V30 4738 O 442.098 -1.61663 -1.20112 0
M  V30 4739 C 439.163 -2.96833 -1.7914 0
M  V30 4740 C 438.224 -4.09745 -1.28093 0
M  V30 4741 C 437.457 -4.77034 -2.3932 0
M  V30 4742 O 437.68 -4.4353 -3.5866 0
M  V30 4743 O 436.614 -5.64996 -2.07516 0
M  V30 4744 H 440.44 -3.03661 -0.0485661 0
M  V30 4745 H 438.025 -1.49341 0.0418382 0
M  V30 4746 H 439.907 -3.41248 -2.4724 0
M  V30 4747 H 438.582 -2.22253 -2.35341 0
M  V30 4748 H 437.489 -3.69787 -0.566416 0
M  V30 4749 H 438.822 -4.86224 -0.764683 0
M  V30 4750 N 440.474 -0.00167713 -1.576 0
M  V30 4751 C 441.421 0.989195 -2.08527 0
M  V30 4752 C 442.391 1.34031 -0.981065 0
M  V30 4753 O 443.576 1.43839 -1.2536 0
M  V30 4754 C 440.716 2.27537 -2.59463 0
M  V30 4755 C 439.829 1.98314 -3.83791 0
M  V30 4756 C 438.964 3.21025 -4.23222 0
M  V30 4757 C 438.003 2.87495 -5.40382 0
M  V30 4758 N 437.14 4.02749 -5.75098 0
M  V30 4759 H 441.98 0.547973 -2.92919 0
M  V30 4760 H 439.517 0.258917 -1.44803 0
M  V30 4761 H 441.475 3.02729 -2.87073 0
M  V30 4762 H 440.105 2.69325 -1.77943 0
M  V30 4763 H 439.157 1.13482 -3.63078 0
M  V30 4764 H 440.469 1.69601 -4.69081 0
M  V30 4765 H 439.623 4.04561 -4.52123 0
M  V30 4766 H 438.362 3.52877 -3.36644 0
M  V30 4767 H 437.367 2.02367 -5.11202 0
M  V30 4768 H 438.592 2.56889 -6.28637 0
M  V30 4769 H 436.538 4.34494 -4.91478 0
M  V30 4770 H 436.455 3.77566 -6.54966 0
M  V30 4771 H 437.723 4.87068 -6.08592 0
M  V30 4772 N 441.952 1.55251 0.271103 0
M  V30 4773 C 442.862 1.9136 1.35714 0
M  V30 4774 C 443.878 0.811075 1.5394 0
M  V30 4775 O 445.054 1.11031 1.6803 0
M  V30 4776 C 442.119 2.1798 2.69603 0
M  V30 4777 C 441.18 3.4153 2.60107 0
M  V30 4778 C 440.413 3.66871 3.8761 0
M  V30 4779 O 440.636 2.94689 4.8838 0
M  V30 4780 O 439.57 4.60405 3.87699 0
M  V30 4781 H 443.396 2.83815 1.08088 0
M  V30 4782 H 440.981 1.41821 0.469792 0
M  V30 4783 H 442.863 2.36518 3.48765 0
M  V30 4784 H 441.538 1.28708 2.97012 0
M  V30 4785 H 440.445 3.28325 1.79314 0
M  V30 4786 H 441.778 4.31027 2.37647 0
M  V30 4787 N 443.43 -0.535701 1.48216 0
M  V30 4788 C 444.377 -1.64083 1.62312 0
M  V30 4789 C 445.347 -1.59448 0.465365 0
M  V30 4790 O 446.532 -1.77959 0.688135 0
M  V30 4791 C 443.672 -3.0236 1.66349 0
M  V30 4792 C 442.785 -3.17273 2.93193 0
M  V30 4793 C 441.92 -4.46075 2.88427 0
M  V30 4794 C 440.959 -4.54496 4.1 0
M  V30 4795 N 440.096 -5.7468 4.03345 0
M  V30 4796 H 444.936 -1.51374 2.5669 0
M  V30 4797 H 442.473 -0.737059 1.27302 0
M  V30 4798 H 444.431 -3.82461 1.66672 0
M  V30 4799 H 443.061 -3.13854 0.754672 0
M  V30 4800 H 442.113 -2.30462 3.02641 0
M  V30 4801 H 443.425 -3.19357 3.83162 0
M  V30 4802 H 442.579 -5.3446 2.87119 0
M  V30 4803 H 441.318 -4.46504 1.96177 0
M  V30 4804 H 440.323 -3.64519 4.11589 0
M  V30 4805 H 441.548 -4.5581 5.03402 0
M  V30 4806 H 439.494 -5.76017 3.13912 0
M  V30 4807 H 439.411 -5.78234 4.87013 0
M  V30 4808 H 440.679 -6.65367 4.06087 0
M  V30 4809 N 444.908 -1.36708 -0.784132 0
M  V30 4810 C 445.855 -1.31466 -1.89698 0
M  V30 4811 C 446.825 -0.18239 -1.65096 0
M  V30 4812 O 448.01 -0.369762 -1.87183 0
M  V30 4813 C 445.15 -1.1151 -3.26588 0
M  V30 4814 C 444.263 -2.33859 -3.63227 0
M  V30 4815 C 443.398 -2.06873 -4.89262 0
M  V30 4816 C 442.437 -3.25154 -5.18595 0
M  V30 4817 N 441.574 -2.978 -6.35814 0
M  V30 4818 H 446.414 -2.26619 -1.93515 0
M  V30 4819 H 443.951 -1.12625 -0.946256 0
M  V30 4820 H 445.909 -0.979653 -4.05535 0
M  V30 4821 H 444.539 -0.200103 -3.22179 0
M  V30 4822 H 443.591 -2.58188 -2.79362 0
M  V30 4823 H 444.903 -3.22109 -3.8085 0
M  V30 4824 H 444.057 -1.90289 -5.76086 0
M  V30 4825 H 442.796 -1.15942 -4.73718 0
M  V30 4826 H 441.801 -3.42292 -4.30251 0
M  V30 4827 H 443.026 -4.1692 -5.36055 0
M  V30 4828 H 440.972 -2.09485 -6.21653 0
M  V30 4829 H 440.889 -3.7959 -6.53794 0
M  V30 4830 H 442.157 -2.84805 -7.25607 0
M  V30 4831 N 446.386 1.0089 -1.21074 0
M  V30 4832 C 447.797 1.56056 -1.02486 0
M  V30 4833 C 448.148 1.91728 0.416506 0
M  V30 4834 O 447.273 1.73066 1.29912 0
M  V30 4835 C 447.868 2.83563 -1.85411 0
M  V30 4836 C 446.427 3.3523 -1.71166 0
M  V30 4837 C 445.574 2.0846 -1.82865 0
M  V30 4838 H 448.525 0.831818 -1.35154 0
M  V30 4839 H 448.546 3.55286 -1.36205 0
M  V30 4840 H 448.058 2.57569 -2.9031 0
M  V30 4841 H 446.159 3.66167 -0.689361 0
M  V30 4842 H 446.272 4.06913 -2.52901 0
M  V30 4843 H 444.636 2.21275 -1.26132 0
M  V30 4844 H 445.419 1.84883 -2.89263 0
M  V30 4845 N 447.864 1.01787 1.20321 0
M  V30 4846 C 449.104 0.716493 1.91431 0
M  V30 4847 C 449.468 -0.740352 1.77152 0
M  V30 4848 O 450.669 -1.1543 2.42754 0
M  V30 4849 C 448.94 1.14169 3.38674 0
M  V30 4850 S 450.499 0.962482 4.28114 0
M  V30 4851 H 447.317 0.261175 0.661293 0
M  V30 4852 H 449.919 1.30539 1.45533 0
M  V30 4853 H 448.623 2.19784 3.46588 0
M  V30 4854 H 448.154 0.545621 3.89598 0
M  V30 4855 H 450.169 -0.133253 4.96021 0
M  V30 4856 N 449.342 -1.36122 0.79427 0
M  V30 4857 C 450.275 -2.27759 0.141845 0
M  V30 4858 C 451.253 -1.47471 -0.684921 0
M  V30 4859 O 452.437 -1.76759 -0.654857 0
M  V30 4860 C 449.564 -3.29008 -0.804446 0
M  V30 4861 C 448.61 -4.26459 -0.0588617 0
M  V30 4862 S 449.443 -5.20253 1.26873 0
M  V30 4863 C 450.599 -6.25048 0.326562 0
M  V30 4864 H 450.832 -2.82746 0.918818 0
M  V30 4865 H 448.365 -1.42736 0.588722 0
M  V30 4866 H 450.323 -3.87842 -1.34495 0
M  V30 4867 H 448.984 -2.72924 -1.5547 0
M  V30 4868 H 448.177 -4.97973 -0.777087 0
M  V30 4869 H 447.779 -3.71731 0.411309 0
M  V30 4870 H 450.071 -6.75705 -0.492795 0
M  V30 4871 H 451.014 -7.00852 1.01053 0
M  V30 4872 H 451.422 -5.64454 -0.0722627 0
M  V30 4873 N 450.82 -0.546701 -1.47814 0
M  V30 4874 C 452.045 -0.021268 -2.07389 0
M  V30 4875 C 452.47 1.25822 -1.39822 0
M  V30 4876 O 451.828 1.75111 -0.46968 0
M  V30 4877 C 451.876 0.168502 -3.60206 0
M  V30 4878 O 450.98 1.23347 -3.93522 0
M  V30 4879 H 450.321 -0.0466108 -0.662362 0
M  V30 4880 H 452.851 -0.759387 -1.89985 0
M  V30 4881 H 452.861 0.385982 -4.0617 0
M  V30 4882 H 451.536 -0.766075 -4.08784 0
M  V30 4883 H 450.113 0.997319 -3.59316 0
M  V30 4884 N 452.299 1.55045 -0.282633 0
M  V30 4885 C 453.547 1.99365 0.331334 0
M  V30 4886 C 453.868 1.1725 1.55812 0
M  V30 4887 O 453.138 0.263871 1.94115 0
M  V30 4888 H 451.718 0.736397 0.125414 0
M  V30 4889 H 454.38 1.90964 -0.389711 0
M  V30 4890 H 453.476 3.0596 0.616036 0
M  V30 4891 N 453.777 0.010035 1.57597 0
M  V30 4892 C 455.025 -0.671371 1.90623 0
M  V30 4893 C 455.346 -1.73753 0.885151 0
M  V30 4894 O 454.616 -1.95752 -0.0760611 0
M  V30 4895 H 453.196 -0.250968 0.703579 0
M  V30 4896 H 455.858 0.0533325 1.94827 0
M  V30 4897 H 454.954 -1.13626 2.90681 0
M  V30 4898 N 455.255 -1.55392 -0.262866 0
M  V30 4899 C 456.671 -1.47459 -0.610582 0
M  V30 4900 C 456.871 -0.697031 -1.8906 0
M  V30 4901 O 455.927 -0.219952 -2.5154 0
M  V30 4902 C 457.24 -2.91751 -0.728131 0
M  V30 4903 C 458.788 -3.02027 -0.821517 0
M  V30 4904 C 459.263 -4.47594 -0.97076 0
M  V30 4905 N 460.754 -4.51465 -1.03603 0
M  V30 4906 C 461.489 -5.61326 -1.17049 0
M  V30 4907 N 460.985 -6.81032 -1.2715 0
M  V30 4908 N 462.778 -5.49089 -1.20239 0
M  V30 4909 H 454.929 -2.04395 0.577632 0
M  V30 4910 H 457.192 -0.927287 0.197086 0
M  V30 4911 H 456.898 -3.51413 0.142132 0
M  V30 4912 H 456.772 -3.4134 -1.6052 0
M  V30 4913 H 459.159 -2.42456 -1.68224 0
M  V30 4914 H 459.24 -2.55674 0.0803688 0
M  V30 4915 H 458.884 -5.07771 -0.114655 0
M  V30 4916 H 458.814 -4.91613 -1.88745 0
M  V30 4917 H 461.305 -3.6524 -0.96996 0
M  V30 4918 H 461.618 -7.60511 -1.37271 0
M  V30 4919 H 459.963 -6.83824 -1.24136 0
M  V30 4920 H 463.154 -4.54507 -1.11985 0
M  V30 4921 H 463.327 -6.34749 -1.30373 0
M  V30 4922 N 456.733 0.527833 -1.48498 0
M  V30 4923 C 458.149 0.856571 -1.34666 0
M  V30 4924 C 458.349 1.98271 -0.35931 0
M  V30 4925 O 457.405 2.51551 0.218703 0
M  V30 4926 C 458.718 1.22207 -2.74747 0
M  V30 4927 C 460.266 1.33183 -2.83251 0
M  V30 4928 C 460.741 1.73075 -4.24039 0
M  V30 4929 N 462.232 1.80174 -4.26722 0
M  V30 4930 C 462.967 2.1243 -5.32598 0
M  V30 4931 N 462.463 2.43096 -6.4875 0
M  V30 4932 N 464.256 2.13454 -5.19994 0
M  V30 4933 H 456.407 -0.215174 -2.11307 0
M  V30 4934 H 458.67 -0.0336281 -0.947403 0
M  V30 4935 H 458.376 0.468195 -3.4857 0
M  V30 4936 H 458.25 2.17173 -3.08409 0
M  V30 4937 H 460.637 2.07647 -2.09683 0
M  V30 4938 H 460.718 0.363333 -2.53206 0
M  V30 4939 H 460.362 0.991712 -4.98124 0
M  V30 4940 H 460.292 2.70979 -4.51529 0
M  V30 4941 H 462.783 1.58744 -3.42942 0
M  V30 4942 H 463.096 2.6682 -7.25277 0
M  V30 4943 H 461.441 2.40611 -6.52021 0
M  V30 4944 H 464.632 1.88956 -4.28268 0
M  V30 4945 H 464.805 2.38261 -6.02608 0
M  V30 4946 N 458.211 1.37122 0.776871 0
M  V30 4947 C 459.144 1.26835 1.89705 0
M  V30 4948 C 460.122 0.14992 1.61907 0
M  V30 4949 O 461.306 0.323242 1.85708 0
M  V30 4950 C 458.433 0.95986 3.24814 0
M  V30 4951 C 457.479 2.09447 3.7153 0
M  V30 4952 S 458.312 3.71368 3.85806 0
M  V30 4953 C 459.468 3.42659 5.23771 0
M  V30 4954 H 459.701 2.21647 1.98141 0
M  V30 4955 H 457.234 1.22685 0.937433 0
M  V30 4956 H 459.192 0.788696 4.02852 0
M  V30 4957 H 457.853 0.0293137 3.14086 0
M  V30 4958 H 457.046 1.8335 4.69467 0
M  V30 4959 H 456.648 2.2255 3.00578 0
M  V30 4960 H 458.94 2.9733 6.0877 0
M  V30 4961 H 459.883 4.39905 5.54878 0
M  V30 4962 H 460.291 2.77708 4.91466 0
M  V30 4963 N 459.689 -1.00246 1.21608 0
M  V30 4964 C 460.917 -1.77631 1.06089 0
M  V30 4965 C 461.332 -1.84746 -0.38916 0
M  V30 4966 O 460.689 -1.31068 -1.26994 0
M  V30 4967 C 460.74 -3.21415 1.65453 0
M  V30 4968 O 460.461 -3.14703 3.04785 0
M  V30 4969 C 461.962 -4.15289 1.55079 0
M  V30 4970 H 459.182 -0.558162 0.37242 0
M  V30 4971 H 461.726 -1.26093 1.60999 0
M  V30 4972 H 459.881 -3.70053 1.14629 0
M  V30 4973 H 460.295 -4.05056 3.33212 0
M  V30 4974 H 461.769 -5.13965 2.01355 0
M  V30 4975 H 462.246 -4.36279 0.505665 0
M  V30 4976 H 462.852 -3.72543 2.05163 0
M  V30 4977 N 461.167 -1.02423 -1.1978 0
M  V30 4978 C 462.097 -0.62157 -2.25075 0
M  V30 4979 C 463.078 0.367148 -1.6609 0
M  V30 4980 O 464.263 0.250892 -1.92573 0
M  V30 4981 C 461.393 0.0331826 -3.47284 0
M  V30 4982 C 460.347 -0.877323 -4.18912 0
M  V30 4983 C 459.673 -0.0879296 -5.34628 0
M  V30 4984 C 460.973 -2.18892 -4.74219 0
M  V30 4985 H 462.667 -1.50179 -2.59011 0
M  V30 4986 H 460.213 -0.723547 -1.24502 0
M  V30 4987 H 462.166 0.326488 -4.20133 0
M  V30 4988 H 460.89 0.948164 -3.12534 0
M  V30 4989 H 459.549 -1.15475 -3.47938 0
M  V30 4990 H 459.197 0.828941 -4.96123 0
M  V30 4991 H 458.897 -0.694359 -5.83483 0
M  V30 4992 H 460.421 0.198743 -6.10276 0
M  V30 4993 H 461.835 -1.95746 -5.38847 0
M  V30 4994 H 460.232 -2.74686 -5.33542 0
M  V30 4995 H 461.302 -2.84674 -3.92541 0
M  V30 4996 N 462.645 1.35699 -0.801477 0
M  V30 4997 C 464.061 1.52065 -0.484596 0
M  V30 4998 C 464.261 1.75215 0.995084 0
M  V30 4999 O 463.317 1.79061 1.78026 0
M  V30 5000 C 464.63 2.69908 -1.32552 0
M  V30 5001 C 466.178 2.83784 -1.32044 0
M  V30 5002 C 466.653 4.04646 -2.14536 0
M  V30 5003 N 468.144 4.11814 -2.12046 0
M  V30 5004 C 468.879 5.04437 -2.72636 0
M  V30 5005 N 468.375 6.02426 -3.42133 0
M  V30 5006 N 470.168 4.97144 -2.62305 0
M  V30 5007 H 462.319 1.18928 -1.75983 0
M  V30 5008 H 464.582 0.581455 -0.748741 0
M  V30 5009 H 464.288 2.59363 -2.37537 0
M  V30 5010 H 464.162 3.64376 -0.975181 0
M  V30 5011 H 466.549 2.93783 -0.27846 0
M  V30 5012 H 466.63 1.90188 -1.71062 0
M  V30 5013 H 466.274 3.95407 -3.18772 0
M  V30 5014 H 466.204 4.97413 -1.72882 0
M  V30 5015 H 468.695 3.41664 -1.61476 0
M  V30 5016 H 469.008 6.69688 -3.85666 0
M  V30 5017 H 467.353 6.02615 -3.46237 0
M  V30 5018 H 470.544 4.19546 -2.07603 0
M  V30 5019 H 470.717 5.69138 -3.09815 0
M  V30 5020 N 464.123 0.554532 1.47522 0
M  V30 5021 C 465.4 -0.0360704 1.95567 0
M  V30 5022 C 465.78 -1.48828 1.49711 0
M  V30 5023 O 465.128 -2.16366 0.734717 0
M  V30 5024 C 465.338 0.106631 3.48837 0
M  V30 5025 C 466.686 -0.0400899 4.24581 0
M  V30 5026 O 467.71 0.0340453 3.56184 0
M  V30 5027 O 466.569 -0.199111 5.46137 0
M  V30 5028 H 463.663 -0.0656294 0.824392 0
M  V30 5029 H 466.209 0.620867 1.57935 0
M  V30 5030 H 464.981 1.11727 3.7501 0
M  V30 5031 H 464.604 -0.58804 3.93227 0
M  V30 5032 N 465.601 -1.54893 0.290851 0
M  V30 5033 C 466.878 -1.91991 -0.373989 0
M  V30 5034 C 467.258 -1.21694 -1.72493 0
M  V30 5035 O 466.606 -0.34917 -2.25816 0
M  V30 5036 C 466.816 -3.45419 -0.498703 0
M  V30 5037 C 468.164 -4.1748 -0.774298 0
M  V30 5038 O 469.188 -3.51398 -0.582908 0
M  V30 5039 O 468.047 -5.3445 -1.14129 0
M  V30 5040 H 465.141 -0.800593 -0.207315 0
M  V30 5041 H 467.687 -1.66297 0.338164 0
M  V30 5042 H 466.459 -3.88688 0.451392 0
M  V30 5043 H 466.082 -3.77117 -1.25972 0
M  V30 5044 N 467.08 -0.0183926 -1.57589 0
M  V30 5045 C 468.012 0.995557 -2.06449 0
M  V30 5046 C 469.025 1.29556 -0.985849 0
M  V30 5047 O 470.214 1.2621 -1.26227 0
M  V30 5048 C 467.314 2.32572 -2.46502 0
M  V30 5049 C 466.487 2.21245 -3.77319 0
M  V30 5050 C 465.546 3.37104 -4.04039 0
M  V30 5051 O 464.572 3.14468 -4.74445 0
M  V30 5052 N 465.774 4.60553 -3.53372 0
M  V30 5053 H 468.539 0.578746 -2.94059 0
M  V30 5054 H 466.1 0.168603 -1.6102 0
M  V30 5055 H 468.092 3.08887 -2.61478 0
M  V30 5056 H 466.662 2.65931 -1.64315 0
M  V30 5057 H 465.882 1.29723 -3.72244 0
M  V30 5058 H 467.17 2.10868 -4.63047 0
M  V30 5059 H 466.568 4.81839 -2.96391 0
M  V30 5060 H 465.125 5.34072 -3.73644 0
M  V30 5061 N 468.558 1.5553 0.254621 0
M  V30 5062 C 469.969 1.67518 0.824286 0
M  V30 5063 C 470.32 0.614429 1.86331 0
M  V30 5064 O 469.445 -0.240736 2.15057 0
M  V30 5065 C 470.04 3.03692 1.50189 0
M  V30 5066 C 468.599 3.17646 2.01935 0
M  V30 5067 C 467.746 2.63373 0.867746 0
M  V30 5068 H 470.697 1.58671 0.0305843 0
M  V30 5069 H 470.718 2.97706 2.36962 0
M  V30 5070 H 470.23 3.80874 0.745431 0
M  V30 5071 H 468.331 2.45273 2.80485 0
M  V30 5072 H 468.444 4.24455 2.22204 0
M  V30 5073 H 466.808 2.20999 1.26616 0
M  V30 5074 H 467.591 3.43074 0.124498 0
M  V30 5075 N 470.036 -0.519951 1.48776 0
M  V30 5076 C 470.999 -1.60574 1.6355 0
M  V30 5077 C 471.999 -1.52557 0.508234 0
M  V30 5078 O 473.189 -1.56047 0.774262 0
M  V30 5079 C 470.321 -3.00211 1.61512 0
M  V30 5080 H 471.514 -1.4881 2.60376 0
M  V30 5081 H 469.067 -0.742772 1.37523 0
M  V30 5082 H 469.802 -3.17471 0.662009 0
M  V30 5083 H 469.587 -3.07439 2.43359 0
M  V30 5084 H 471.077 -3.79134 1.75064 0
M  V30 5085 N 471.514 -1.37532 -0.769588 0
M  V30 5086 C 472.461 -1.3347 -1.88293 0
M  V30 5087 C 473.431 -0.199891 -1.64893 0
M  V30 5088 O 474.616 -0.389594 -1.8678 0
M  V30 5089 C 471.756 -1.14968 -3.25387 0
M  V30 5090 C 470.869 -2.37698 -3.60727 0
M  V30 5091 C 470.004 -2.12051 -4.8704 0
M  V30 5092 C 469.043 -3.30636 -5.15117 0
M  V30 5093 N 468.18 -3.04527 -6.3262 0
M  V30 5094 H 473.02 -2.28658 -1.911 0
M  V30 5095 H 470.557 -1.13622 -0.934257 0
M  V30 5096 H 472.515 -1.02261 -4.04473 0
M  V30 5097 H 471.145 -0.234263 -3.21949 0
M  V30 5098 H 470.197 -2.61137 -2.76608 0
M  V30 5099 H 471.509 -3.26131 -3.77413 0
M  V30 5100 H 470.663 -1.96388 -5.74035 0
M  V30 5101 H 469.402 -1.20959 -4.72462 0
M  V30 5102 H 468.407 -3.46836 -4.26597 0
M  V30 5103 H 469.632 -4.22582 -5.31603 0
M  V30 5104 H 467.578 -2.16067 -6.19396 0
M  V30 5105 H 467.495 -3.86503 -6.49732 0
M  V30 5106 H 468.763 -2.92485 -7.22546 0
M  V30 5107 N 472.992 0.995999 -1.22138 0
M  V30 5108 C 473.922 2.10387 -1.01289 0
M  V30 5109 C 474.903 1.69975 0.0651454 0
M  V30 5110 O 476.088 1.9396 -0.0964628 0
M  V30 5111 C 473.218 3.42312 -0.586517 0
M  V30 5112 C 472.172 3.96558 -1.61014 0
M  V30 5113 C 471.498 5.24494 -1.0397 0
M  V30 5114 C 472.798 4.27595 -2.99933 0
M  V30 5115 H 474.492 2.28086 -1.93951 0
M  V30 5116 H 472.038 1.09607 -0.933928 0
M  V30 5117 H 473.991 4.19223 -0.427793 0
M  V30 5118 H 472.715 3.24431 0.375761 0
M  V30 5119 H 471.374 3.21776 -1.75658 0
M  V30 5120 H 471.022 5.02953 -0.0688703 0
M  V30 5121 H 470.722 5.61755 -1.72352 0
M  V30 5122 H 472.246 6.04042 -0.892494 0
M  V30 5123 H 473.66 4.95315 -2.8868 0
M  V30 5124 H 472.057 4.76021 -3.6541 0
M  V30 5125 H 473.127 3.35498 -3.50099 0
M  V30 5126 N 474.47 1.03057 1.19235 0
M  V30 5127 C 475.38 0.622922 2.26179 0
M  V30 5128 C 476.396 -0.346113 1.70523 0
M  V30 5129 O 477.572 -0.203572 2.00369 0
M  V30 5130 C 474.637 -0.0182063 3.46695 0
M  V30 5131 C 473.698 0.998546 4.17526 0
M  V30 5132 C 472.931 0.387917 5.32288 0
M  V30 5133 O 473.154 -0.808668 5.64639 0
M  V30 5134 O 472.088 1.1116 5.91546 0
M  V30 5135 H 475.914 1.51363 2.63292 0
M  V30 5136 H 473.499 0.800856 1.26122 0
M  V30 5137 H 475.381 -0.375606 4.19723 0
M  V30 5138 H 474.056 -0.882895 3.11427 0
M  V30 5139 H 472.963 1.40756 3.4661 0
M  V30 5140 H 474.296 1.83366 4.56769 0
M  V30 5141 N 475.948 -1.35272 0.808662 0
M  V30 5142 C 476.895 -2.29764 0.218482 0
M  V30 5143 C 477.865 -1.52911 -0.648652 0
M  V30 5144 O 479.05 -1.81341 -0.593297 0
M  V30 5145 C 476.19 -3.39388 -0.625282 0
M  V30 5146 C 475.303 -4.31202 0.262516 0
M  V30 5147 C 474.438 -5.27919 -0.589451 0
M  V30 5148 C 473.477 -6.11371 0.298617 0
M  V30 5149 N 472.614 -7.0022 -0.513443 0
M  V30 5150 H 477.454 -2.79645 1.02968 0
M  V30 5151 H 474.991 -1.37629 0.519303 0
M  V30 5152 H 476.949 -4.01615 -1.12966 0
M  V30 5153 H 475.579 -2.90777 -1.40173 0
M  V30 5154 H 474.631 -3.69962 0.885013 0
M  V30 5155 H 475.943 -4.89748 0.945971 0
M  V30 5156 H 475.097 -5.95529 -1.15888 0
M  V30 5157 H 473.836 -4.69875 -1.30647 0
M  V30 5158 H 472.841 -5.42707 0.880301 0
M  V30 5159 H 474.066 -6.71494 1.01352 0
M  V30 5160 H 472.012 -6.44662 -1.21439 0
M  V30 5161 H 471.929 -7.55917 0.111922 0
M  V30 5162 H 473.197 -7.72175 -1.06608 0
M  V30 5163 N 477.426 -0.562348 -1.47226 0
M  V30 5164 C 478.336 0.185466 -2.33866 0
M  V30 5165 C 479.352 0.906713 -1.48508 0
M  V30 5166 O 480.528 0.874458 -1.81425 0
M  V30 5167 C 477.593 1.19904 -3.25306 0
M  V30 5168 C 476.654 0.484669 -4.26555 0
M  V30 5169 C 475.887 1.44996 -5.13626 0
M  V30 5170 O 476.11 2.68515 -5.03245 0
M  V30 5171 O 475.044 0.971642 -5.94006 0
M  V30 5172 H 478.87 -0.525361 -2.99121 0
M  V30 5173 H 476.455 -0.322916 -1.45868 0
M  V30 5174 H 478.337 1.78399 -3.81774 0
M  V30 5175 H 477.012 1.8917 -2.62672 0
M  V30 5176 H 475.919 -0.141605 -3.73832 0
M  V30 5177 H 477.252 -0.166634 -4.91918 0
M  V30 5178 N 478.904 1.54736 -0.299062 0
M  V30 5179 C 480.315 1.8569 0.193971 0
M  V30 5180 C 480.666 1.22101 1.53577 0
M  V30 5181 O 479.791 0.51799 2.10109 0
M  V30 5182 C 480.386 3.36895 0.358733 0
M  V30 5183 C 478.945 3.67887 0.795986 0
M  V30 5184 C 478.092 2.77131 -0.096807 0
M  V30 5185 H 481.043 1.49934 -0.520134 0
M  V30 5186 H 481.064 3.61294 1.19361 0
M  V30 5187 H 480.576 3.83148 -0.617998 0
M  V30 5188 H 478.677 3.27151 1.78334 0
M  V30 5189 H 478.79 4.75114 0.616718 0
M  V30 5190 H 477.154 2.51153 0.423581 0
M  V30 5191 H 477.937 3.26204 -1.06986 0
M  V30 5192 N 480.382 0.0267497 1.57577 0
M  V30 5193 C 481.329 -0.955894 2.10075 0
M  V30 5194 C 482.299 -1.32453 1.00226 0
M  V30 5195 O 483.484 -1.41826 1.27632 0
M  V30 5196 C 480.624 -2.2338 2.6305 0
M  V30 5197 C 479.737 -1.92183 3.86898 0
M  V30 5198 C 478.872 -3.14251 4.28275 0
M  V30 5199 C 477.911 -2.78862 5.44888 0
M  V30 5200 N 477.048 -3.93548 5.81433 0
M  V30 5201 H 481.888 -0.501303 2.93753 0
M  V30 5202 H 479.425 -0.235847 1.45197 0
M  V30 5203 H 481.383 -2.98124 2.91853 0
M  V30 5204 H 480.013 -2.6646 1.82205 0
M  V30 5205 H 479.065 -1.07692 3.64838 0
M  V30 5206 H 480.377 -1.62117 4.7172 0
M  V30 5207 H 479.531 -3.97317 4.58502 0
M  V30 5208 H 478.27 -3.47476 3.42215 0
M  V30 5209 H 477.275 -1.94208 5.14357 0
M  V30 5210 H 478.5 -2.46855 6.32645 0
M  V30 5211 H 476.446 -4.2662 4.98328 0
M  V30 5212 H 476.363 -3.67098 6.6089 0
M  V30 5213 H 477.631 -4.77325 6.16264 0
M  V30 5214 N 481.861 -1.55662 -0.24637 0
M  V30 5215 C 483.089 -1.81575 -0.991876 0
M  V30 5216 C 483.504 -0.602545 -1.78927 0
M  V30 5217 O 482.861 0.428795 -1.77391 0
M  V30 5218 C 482.912 -3.05711 -1.92933 0
M  V30 5219 O 482.633 -4.22348 -1.1642 0
M  V30 5220 C 484.134 -3.44428 -2.79078 0
M  V30 5221 H 481.354 -0.604209 -0.291844 0
M  V30 5222 H 483.898 -2.02722 -0.269095 0
M  V30 5223 H 482.053 -2.86612 -2.60638 0
M  V30 5224 H 482.467 -4.92706 -1.79835 0
M  V30 5225 H 483.941 -4.34388 -3.40603 0
M  V30 5226 H 484.418 -2.65037 -3.50217 0
M  V30 5227 H 485.024 -3.65879 -2.16824 0
M  V30 5228 N 483.339 0.512053 -1.4905 0
M  V30 5229 C 484.755 0.84224 -1.35567 0
M  V30 5230 C 484.955 1.97878 -0.380319 0
M  V30 5231 O 484.011 2.51769 0.19201 0
M  V30 5232 C 485.324 1.19286 -2.76028 0
M  V30 5233 C 486.872 1.30171 -2.84648 0
M  V30 5234 C 487.347 1.68568 -4.25851 0
M  V30 5235 N 488.838 1.75638 -4.28609 0
M  V30 5236 C 489.573 2.06769 -5.34821 0
M  V30 5237 N 489.069 2.36201 -6.51292 0
M  V30 5238 N 490.862 2.07927 -5.22229 0
M  V30 5239 H 483.013 -0.237574 -2.11067 0
M  V30 5240 H 485.276 -0.0436747 -0.946993 0
M  V30 5241 H 484.982 0.431199 -3.49047 0
M  V30 5242 H 484.856 2.13889 -3.10695 0
M  V30 5243 H 487.243 2.05411 -2.11873 0
M  V30 5244 H 487.324 0.336457 -2.53578 0
M  V30 5245 H 486.968 0.938824 -4.99148 0
M  V30 5246 H 486.898 2.66174 -4.54377 0
M  V30 5247 H 489.389 1.55097 -3.44606 0
M  V30 5248 H 489.702 2.59112 -7.28066 0
M  V30 5249 H 488.047 2.33681 -6.54536 0
M  V30 5250 H 491.238 1.84403 -4.30248 0
M  V30 5251 H 491.411 2.31856 -6.05101 0
M  V30 5252 N 484.817 1.37938 0.762283 0
M  V30 5253 C 486.228 1.30094 1.33912 0
M  V30 5254 C 486.579 -0.0472026 1.96143 0
M  V30 5255 O 485.704 -0.94917 1.94473 0
M  V30 5256 C 486.299 2.35592 2.43478 0
M  V30 5257 C 484.858 2.31353 2.96905 0
M  V30 5258 C 484.005 2.18919 1.70205 0
M  V30 5259 H 486.956 1.48423 0.561816 0
M  V30 5260 H 486.977 2.00806 3.23199 0
M  V30 5261 H 486.489 3.33701 1.98155 0
M  V30 5262 H 484.59 1.36799 3.46579 0
M  V30 5263 H 484.703 3.25147 3.51875 0
M  V30 5264 H 483.067 1.65624 1.93496 0
M  V30 5265 H 483.85 3.18956 1.26973 0
M  V30 5266 N 486.295 -0.989507 1.22664 0
M  V30 5267 C 487.205 -2.11449 1.01619 0
M  V30 5268 C 488.221 -1.73962 -0.036545 0
M  V30 5269 O 489.397 -2.00788 0.156924 0
M  V30 5270 C 486.462 -3.41465 0.600204 0
M  V30 5271 C 485.523 -3.93033 1.72695 0
M  V30 5272 C 484.756 -5.16844 1.33071 0
M  V30 5273 O 484.979 -5.7001 0.210975 0
M  V30 5274 O 483.913 -5.6225 2.14845 0
M  V30 5275 H 487.739 -2.32088 1.9588 0
M  V30 5276 H 485.324 -1.09823 1.01289 0
M  V30 5277 H 487.206 -4.19695 0.37873 0
M  V30 5278 H 485.881 -3.22178 -0.313511 0
M  V30 5279 H 484.788 -3.15961 2.00298 0
M  V30 5280 H 486.121 -4.16758 2.61865 0
M  V30 5281 N 487.773 -1.03688 -1.18687 0
M  V30 5282 C 488.683 -0.634908 -2.25845 0
M  V30 5283 C 489.699 0.337065 -1.70704 0
M  V30 5284 O 490.875 0.192943 -2.00474 0
M  V30 5285 C 487.94 -0.000180054 -3.467 0
M  V30 5286 C 487.001 -1.02067 -4.1699 0
M  V30 5287 C 486.234 -0.41614 -5.32075 0
M  V30 5288 O 486.457 0.778712 -5.65059 0
M  V30 5289 O 485.391 -1.14296 -5.90948 0
M  V30 5290 H 489.217 -1.52757 -2.62486 0
M  V30 5291 H 486.802 -0.807533 -1.25695 0
M  V30 5292 H 488.684 0.353342 -4.19916 0
M  V30 5293 H 487.359 0.866367 -3.11891 0
M  V30 5294 H 486.266 -1.42592 -3.45859 0
M  V30 5295 H 487.599 -1.85786 -4.5579 0
M  V30 5296 N 489.251 1.34841 -0.815825 0
M  V30 5297 C 490.199 2.31549 -0.220888 0
M  V30 5298 C 491.193 1.5707 0.634457 0
M  V30 5299 O 492.399 1.72125 0.526589 0
M  V30 5300 H 488.774 0.750153 -0.0526782 0
M  V30 5301 H 490.745 2.7926 -1.05149 0
M  V30 5302 C 489.494 3.42335 0.608427 0
M  V30 5303 H 488.817 3.9978 -0.0404121 0
M  V30 5304 H 490.257 4.12258 0.990931 0
M  V30 5305 C 488.716 2.86173 1.77782 0
M  V30 5306 O 489.246 2.80474 2.87571 0
M  V30 5307 N 487.452 2.43093 1.59229 0
M  V30 5308 H 486.999 2.47928 0.699237 0
M  V30 5309 H 486.957 2.05866 2.37627 0
M  V30 5310 N 490.729 0.570148 1.46925 0
M  V30 5311 C 491.676 -0.170257 2.30171 0
M  V30 5312 C 492.646 -0.896099 1.39855 0
M  V30 5313 O 493.831 -0.889248 1.68811 0
M  V30 5314 C 490.971 -1.18605 3.24079 0
M  V30 5315 C 490.084 -0.464947 4.29491 0
M  V30 5316 C 489.219 -1.46716 5.10537 0
M  V30 5317 C 488.258 -0.731758 6.0771 0
M  V30 5318 N 487.395 -1.68142 6.81669 0
M  V30 5319 H 492.235 0.545713 2.92961 0
M  V30 5320 H 489.772 0.280938 1.44392 0
M  V30 5321 H 491.73 -1.78771 3.76957 0
M  V30 5322 H 490.36 -1.86989 2.63125 0
M  V30 5323 H 489.412 0.251506 3.79568 0
M  V30 5324 H 490.724 0.110548 4.98677 0
M  V30 5325 H 489.878 -2.14199 5.6763 0
M  V30 5326 H 488.617 -2.07658 4.41282 0
M  V30 5327 H 487.622 -0.0430787 5.49783 0
M  V30 5328 H 488.847 -0.127904 6.7898 0
M  V30 5329 H 486.793 -2.27918 6.15134 0
M  V30 5330 H 486.71 -1.15841 7.47072 0
M  V30 5331 H 487.978 -2.347 7.43328 0
M  V30 5332 N 492.207 -1.54576 0.307264 0
M  V30 5333 C 493.618 -1.8579 -0.184121 0
M  V30 5334 C 493.969 -1.22914 -1.52927 0
M  V30 5335 O 493.094 -0.529126 -2.09831 0
M  V30 5336 C 493.689 -3.37081 -0.340862 0
M  V30 5337 C 492.248 -3.68304 -0.776465 0
M  V30 5338 C 491.395 -2.77076 0.111503 0
M  V30 5339 H 494.346 -1.49656 0.528078 0
M  V30 5340 H 494.367 -3.61922 -1.17443 0
M  V30 5341 H 493.879 -3.82815 0.638309 0
M  V30 5342 H 491.98 -3.28092 -1.76596 0
M  V30 5343 H 492.093 -4.75434 -0.591512 0
M  V30 5344 H 490.457 -2.51374 -0.410256 0
M  V30 5345 H 491.24 -3.25632 1.08714 0
M  V30 5346 N 493.685 -0.035106 -1.57561 0
M  V30 5347 C 494.595 0.960295 -2.14046 0
M  V30 5348 C 495.611 1.3529 -1.0942 0
M  V30 5349 O 496.787 1.43309 -1.41508 0
M  V30 5350 C 493.852 2.22214 -2.66124 0
M  V30 5351 C 492.913 1.8894 -3.85487 0
M  V30 5352 C 492.146 3.09109 -4.35072 0
M  V30 5353 O 492.369 4.21963 -3.83802 0
M  V30 5354 O 491.303 2.91058 -5.26848 0
M  V30 5355 H 495.129 0.509983 -2.99387 0
M  V30 5356 H 492.714 0.185853 -1.48239 0
M  V30 5357 H 494.596 2.96279 -2.99661 0
M  V30 5358 H 493.271 2.66414 -1.83862 0
M  V30 5359 H 492.178 1.12241 -3.56865 0
M  V30 5360 H 493.511 1.49551 -4.6893 0
M  V30 5361 N 495.163 1.55791 0.238111 0
M  V30 5362 C 496.579 1.48411 0.587045 0
M  V30 5363 C 496.779 0.72702 1.87927 0
M  V30 5364 O 495.835 0.259942 2.51158 0
M  V30 5365 C 497.148 2.92873 0.681623 0
M  V30 5366 C 498.696 3.03295 0.773363 0
M  V30 5367 C 499.171 4.49082 0.899428 0
M  V30 5368 N 500.662 4.53056 0.964075 0
M  V30 5369 C 501.397 5.63117 1.08104 0
M  V30 5370 N 500.893 6.82969 1.16299 0
M  V30 5371 N 502.686 5.50933 1.11488 0
M  V30 5372 H 494.837 2.0345 -0.610076 0
M  V30 5373 H 497.1 0.924034 -0.211813 0
M  V30 5374 H 496.806 3.51142 -0.19802 0
M  V30 5375 H 496.68 3.43851 1.55069 0
M  V30 5376 H 499.067 2.45101 1.64346 0
M  V30 5377 H 499.148 2.55513 -0.121034 0
M  V30 5378 H 498.792 5.07889 0.0338586 0
M  V30 5379 H 498.722 4.94553 1.809 0
M  V30 5380 H 501.213 3.66737 0.91173 0
M  V30 5381 H 501.526 7.62598 1.25155 0
M  V30 5382 H 499.871 6.85712 1.13241 0
M  V30 5383 H 503.062 4.56231 1.0474 0
M  V30 5384 H 503.235 6.36743 1.20259 0
M  V30 5385 N 496.642 -0.504142 1.49319 0
M  V30 5386 C 498.053 -1.08572 1.51885 0
M  V30 5387 C 498.404 -1.93842 0.303255 0
M  V30 5388 O 497.529 -2.0828 -0.58724 0
M  V30 5389 C 498.124 -1.97574 2.75227 0
M  V30 5390 C 496.683 -2.509 2.80581 0
M  V30 5391 C 495.83 -1.28447 2.45757 0
M  V30 5392 H 498.781 -0.288194 1.56061 0
M  V30 5393 H 498.802 -2.82219 2.55211 0
M  V30 5394 H 498.314 -1.35486 3.63683 0
M  V30 5395 H 496.415 -3.16636 1.96398 0
M  V30 5396 H 496.528 -2.88268 3.82673 0
M  V30 5397 H 494.892 -1.60868 1.97468 0
M  V30 5398 H 495.675 -0.68072 3.36483 0
M  V30 5399 N 498.12 -1.38341 -0.754957 0
M  V30 5400 C 499.345 -1.37882 -1.5493 0
M  V30 5401 C 499.77 0.0296385 -1.88077 0
M  V30 5402 O 499.128 1.01133 -1.50472 0
M  V30 5403 C 499.176 -2.23996 -2.82592 0
M  V30 5404 O 498.28 -1.65612 -3.77686 0
M  V30 5405 H 497.621 -0.470384 -0.468652 0
M  V30 5406 H 500.151 -1.82084 -0.933082 0
M  V30 5407 H 500.161 -2.37806 -3.3153 0
M  V30 5408 H 498.836 -3.26365 -2.57796 0
M  V30 5409 H 497.413 -1.60936 -3.36384 0
M  V30 5410 N 499.598 0.982988 -1.23187 0
M  V30 5411 C 500.846 1.72052 -1.06031 0
M  V30 5412 C 501.167 1.90769 0.404019 0
M  V30 5413 O 500.437 1.47446 1.28982 0
M  V30 5414 H 499.017 0.637499 -0.389363 0
M  V30 5415 H 501.679 1.18338 -1.54862 0
M  V30 5416 H 500.775 2.7111 -1.54615 0
M  V30 5417 N 501.076 1.04316 1.18135 0
M  V30 5418 C 502.492 0.762858 1.40188 0
M  V30 5419 C 502.692 -0.646547 1.90846 0
M  V30 5420 O 501.748 -1.41036 2.0944 0
M  V30 5421 C 503.061 1.81106 2.40044 0
M  V30 5422 C 504.609 1.83226 2.53766 0
M  V30 5423 C 505.084 2.87044 3.56889 0
M  V30 5424 N 506.575 2.85951 3.64398 0
M  V30 5425 C 507.31 3.62932 4.43923 0
M  V30 5426 N 506.806 4.49672 5.27036 0
M  V30 5427 N 508.599 3.51411 4.38711 0
M  V30 5428 H 500.75 1.95264 0.835805 0
M  V30 5429 H 503.013 0.845017 0.429709 0
M  V30 5430 H 502.719 2.82214 2.09876 0
M  V30 5431 H 502.593 1.64529 3.39426 0
M  V30 5432 H 504.98 0.827869 2.8325 0
M  V30 5433 H 505.061 2.03879 1.54489 0
M  V30 5434 H 504.705 3.87663 3.28145 0
M  V30 5435 H 504.635 2.63645 4.5585 0
M  V30 5436 H 507.126 2.23051 3.05052 0
M  V30 5437 H 507.439 5.05116 5.84874 0
M  V30 5438 H 505.784 4.53738 5.26447 0
M  V30 5439 H 508.975 2.83047 3.72829 0
M  V30 5440 H 509.148 4.11654 5.00445 0
M  V30 5441 N 502.554 -1.34406 0.822964 0
M  V30 5442 C 503.501 -2.29519 0.24284 0
M  V30 5443 C 504.471 -1.5359 -0.632397 0
M  V30 5444 O 505.656 -1.8196 -0.57403 0
M  V30 5445 C 502.796 -3.40032 -0.58925 0
M  V30 5446 C 501.909 -4.30899 0.308236 0
M  V30 5447 C 501.044 -5.28515 -0.533425 0
M  V30 5448 C 500.083 -6.1102 0.363444 0
M  V30 5449 N 499.22 -7.00725 -0.439147 0
M  V30 5450 H 504.06 -2.78537 1.05929 0
M  V30 5451 H 501.597 -1.3707 0.533872 0
M  V30 5452 H 503.555 -4.0279 -1.087 0
M  V30 5453 H 502.185 -2.92248 -1.37081 0
M  V30 5454 H 501.237 -3.69002 0.924203 0
M  V30 5455 H 502.549 -4.88717 0.997862 0
M  V30 5456 H 501.703 -5.96725 -1.09565 0
M  V30 5457 H 500.442 -4.71235 -1.25656 0
M  V30 5458 H 499.447 -5.41743 0.937812 0
M  V30 5459 H 500.672 -6.70381 1.08469 0
M  V30 5460 H 498.618 -6.45913 -1.14595 0
M  V30 5461 H 498.535 -7.55756 0.19209 0
M  V30 5462 H 499.803 -7.73263 -0.984124 0
M  V30 5463 N 504.032 -0.577932 -1.46621 0
M  V30 5464 C 505.443 -0.150071 -1.86096 0
M  V30 5465 C 505.794 1.28563 -1.48209 0
M  V30 5466 O 504.919 1.97036 -0.894754 0
M  V30 5467 C 505.514 -0.265576 -3.37758 0
M  V30 5468 C 504.073 0.10738 -3.76247 0
M  V30 5469 C 503.22 -0.603711 -2.70649 0
M  V30 5470 H 506.171 -0.786438 -1.37844 0
M  V30 5471 H 506.192 0.510352 -3.77062 0
M  V30 5472 H 505.704 -1.3106 -3.65301 0
M  V30 5473 H 503.805 1.15272 -3.54321 0
M  V30 5474 H 503.918 -0.26561 -4.78363 0
M  V30 5475 H 502.282 -0.0444884 -2.54661 0
M  V30 5476 H 503.065 -1.65029 -3.01032 0
M  V30 5477 N 505.51 1.54411 -0.315457 0
M  V30 5478 C 506.926 1.59556 0.037464 0
M  V30 5479 C 507.126 1.33217 1.5118 0
M  V30 5480 O 506.182 1.11264 2.26664 0
M  V30 5481 C 507.495 2.98372 -0.373477 0
M  V30 5482 C 509.043 3.11324 -0.323452 0
M  V30 5483 C 509.518 4.52472 -0.709433 0
M  V30 5484 N 511.009 4.58437 -0.662524 0
M  V30 5485 C 511.744 5.65751 -0.933474 0
M  V30 5486 N 511.24 6.81039 -1.27114 0
M  V30 5487 N 513.033 5.55489 -0.859573 0
M  V30 5488 H 505.184 1.6979 -1.27614 0
M  V30 5489 H 507.447 0.793732 -0.518356 0
M  V30 5490 H 507.153 3.22618 -1.40037 0
M  V30 5491 H 507.027 3.76264 0.265615 0
M  V30 5492 H 509.414 2.86818 0.694223 0
M  V30 5493 H 509.495 2.35555 -0.997367 0
M  V30 5494 H 509.139 4.7771 -1.72498 0
M  V30 5495 H 509.069 5.26598 -0.0132923 0
M  V30 5496 H 511.56 3.75636 -0.413065 0
M  V30 5497 H 511.873 7.58816 -1.46348 0
M  V30 5498 H 510.218 6.82555 -1.30932 0
M  V30 5499 H 513.409 4.64299 -0.595324 0
M  V30 5500 H 513.582 6.39036 -1.0741 0
M  V30 5501 N 506.988 0.0434614 1.5754 0
M  V30 5502 C 508.399 -0.493343 1.80064 0
M  V30 5503 C 508.75 -1.71388 0.955023 0
M  V30 5504 O 507.875 -2.15736 0.169434 0
M  V30 5505 C 508.47 -0.90179 3.26578 0
M  V30 5506 C 507.029 -1.38362 3.50047 0
M  V30 5507 C 506.176 -0.355129 2.75017 0
M  V30 5508 H 509.127 0.2694 1.56397 0
M  V30 5509 H 509.148 -1.76523 3.37075 0
M  V30 5510 H 508.66 -0.013271 3.88098 0
M  V30 5511 H 506.761 -2.29159 2.93798 0
M  V30 5512 H 506.874 -1.3811 4.58762 0
M  V30 5513 H 505.238 -0.826348 2.40922 0
M  V30 5514 H 506.021 0.525172 3.39259 0
M  V30 5515 N 508.466 -1.55915 -0.229846 0
M  V30 5516 C 509.399 -1.86734 -1.3117 0
M  V30 5517 C 510.377 -0.723947 -1.45595 0
M  V30 5518 O 511.561 -0.971462 -1.61539 0
M  V30 5519 C 508.688 -2.06707 -2.68309 0
M  V30 5520 C 507.734 -3.2938 -2.70944 0
M  V30 5521 S 508.567 -4.85547 -2.25842 0
M  V30 5522 C 509.723 -5.08546 -3.64873 0
M  V30 5523 H 509.956 -2.78204 -1.04832 0
M  V30 5524 H 507.489 -1.48243 -0.431681 0
M  V30 5525 H 509.447 -2.18898 -3.47267 0
M  V30 5526 H 508.108 -1.16049 -2.91876 0
M  V30 5527 H 507.301 -3.40374 -3.71701 0
M  V30 5528 H 506.903 -3.16004 -2.00044 0
M  V30 5529 H 509.195 -4.96935 -4.60502 0
M  V30 5530 H 510.138 -6.10465 -3.58801 0
M  V30 5531 H 510.546 -4.36314 -3.58176 0
M  V30 5532 N 509.944 0.496216 -1.49584 0
M  V30 5533 C 511.192 1.24756 -1.58998 0
M  V30 5534 C 511.513 1.92968 -0.280775 0
M  V30 5535 O 510.783 1.82959 0.700198 0
M  V30 5536 H 509.363 0.463471 -0.585836 0
M  V30 5537 H 512.025 0.574678 -1.86235 0
M  V30 5538 H 511.121 2.00895 -2.38847 0
M  V30 5539 N 511.423 1.38739 0.74761 0
M  V30 5540 C 512.672 1.3459 1.50228 0
M  V30 5541 C 512.985 -0.0595592 1.95509 0
M  V30 5542 O 514.191 -0.22361 2.70578 0
M  V30 5543 C 512.647 2.36377 2.71393 0
M  V30 5544 C 512.255 3.82573 2.33113 0
M  V30 5545 C 513.999 2.41281 3.49262 0
M  V30 5546 C 511.906 4.76032 3.50924 0
M  V30 5547 H 510.836 0.500312 0.564096 0
M  V30 5548 H 513.487 1.64324 0.8167 0
M  V30 5549 H 511.869 1.99694 3.41962 0
M  V30 5550 H 513.043 4.28227 1.70171 0
M  V30 5551 H 511.358 3.80844 1.68365 0
M  V30 5552 H 513.955 3.08301 4.36869 0
M  V30 5553 H 514.298 1.43353 3.9084 0
M  V30 5554 H 514.831 2.76793 2.85711 0
M  V30 5555 H 511.57 5.75177 3.14408 0
M  V30 5556 H 511.09 4.35066 4.12889 0
M  V30 5557 H 512.769 4.94331 4.17427 0
M  V30 5558 N 512.901 -0.976442 1.23707 0
M  V30 5559 C 514.15 -1.71254 1.06559 0
M  V30 5560 C 514.463 -1.91528 -0.397024 0
M  V30 5561 O 515.669 -2.62625 -0.688518 0
M  V30 5562 C 514.125 -3.08207 1.8584 0
M  V30 5563 C 513.733 -2.95806 3.36456 0
M  V30 5564 C 515.477 -3.85749 1.77194 0
M  V30 5565 C 513.384 -4.28015 4.08114 0
M  V30 5566 H 512.314 -0.642171 0.395136 0
M  V30 5567 H 514.965 -1.08877 1.4771 0
M  V30 5568 H 513.347 -3.71363 1.37498 0
M  V30 5569 H 514.521 -2.41716 3.92314 0
M  V30 5570 H 512.836 -2.31736 3.45959 0
M  V30 5571 H 515.433 -4.83633 2.28041 0
M  V30 5572 H 515.776 -4.09752 0.735477 0
M  V30 5573 H 516.309 -3.29303 2.23169 0
M  V30 5574 H 513.048 -4.09208 5.12083 0
M  V30 5575 H 512.568 -4.81955 3.57043 0
M  V30 5576 H 514.247 -4.96681 4.14629 0
M  V30 5577 N 514.379 -1.04941 -1.1758 0
M  V30 5578 C 515.342 -0.652456 -2.19717 0
M  V30 5579 C 516.342 0.294745 -1.58076 0
M  V30 5580 O 517.532 0.0789579 -1.74021 0
M  V30 5581 C 514.664 0.0420712 -3.40874 0
M  V30 5582 H 515.857 -1.55642 -2.5635 0
M  V30 5583 H 513.41 -0.842995 -1.31618 0
M  V30 5584 H 514.145 0.95943 -3.09783 0
M  V30 5585 H 513.93 -0.638844 -3.86861 0
M  V30 5586 H 515.42 0.306 -4.16477 0
M  V30 5587 N 515.857 1.33968 -0.830081 0
M  V30 5588 C 516.82 2.27694 -0.26235 0
M  V30 5589 C 517.82 1.50589 0.563876 0
M  V30 5590 O 519.01 1.70028 0.378941 0
M  V30 5591 C 516.142 3.35002 0.63138 0
M  V30 5592 H 517.335 2.79419 -1.08928 0
M  V30 5593 H 514.888 1.44221 -0.602486 0
M  V30 5594 H 515.623 2.88504 1.48109 0
M  V30 5595 H 515.408 3.92079 0.0403276 0
M  V30 5596 H 516.898 4.04897 1.02217 0
M  V30 5597 N 517.335 0.585699 1.46312 0
M  V30 5598 C 518.283 -0.158577 2.32059 0
M  V30 5599 C 519.277 -0.881427 1.44662 0
M  V30 5600 O 520.483 -0.799476 1.61271 0
M  V30 5601 H 516.858 -0.0700066 0.748734 0
M  V30 5602 H 518.829 0.583383 2.92642 0
M  V30 5603 C 517.578 -1.15701 3.27885 0
M  V30 5604 H 516.901 -0.610215 3.95116 0
M  V30 5605 H 518.341 -1.64812 3.90657 0
M  V30 5606 C 516.8 -2.21951 2.53455 0
M  V30 5607 O 517.33 -3.29352 2.29978 0
M  V30 5608 N 515.536 -1.9664 2.13965 0
M  V30 5609 H 515.083 -1.09309 2.33258 0
M  V30 5610 H 515.041 -2.6794 1.64485 0
M  V30 5611 N 518.813 -1.54241 0.323641 0
M  V30 5612 C 520.059 -2.00867 -0.279323 0
M  V30 5613 C 520.392 -1.21146 -1.5178 0
M  V30 5614 O 519.667 -0.29378 -1.92269 0
M  V30 5615 C 519.95 -3.54837 -0.613387 0
M  V30 5616 C 519.803 -4.45284 0.635803 0
M  V30 5617 C 521.122 -4.16186 -1.43099 0
M  V30 5618 H 518.241 -0.730177 -0.100049 0
M  V30 5619 H 520.883 -1.84829 0.440235 0
M  V30 5620 H 519.033 -3.68634 -1.22641 0
M  V30 5621 H 520.705 -4.43357 1.27406 0
M  V30 5622 H 518.948 -4.14956 1.26466 0
M  V30 5623 H 519.619 -5.5084 0.357597 0
M  V30 5624 H 522.095 -4.05964 -0.912814 0
M  V30 5625 H 520.971 -5.24031 -1.6335 0
M  V30 5626 H 521.232 -3.69516 -2.42715 0
M  V30 5627 N 520.291 -0.0518155 -1.57515 0
M  V30 5628 C 521.201 0.937539 -2.15052 0
M  V30 5629 C 522.217 1.34121 -1.10849 0
M  V30 5630 O 523.393 1.418 -1.4302 0
M  V30 5631 C 520.458 2.19379 -2.68466 0
M  V30 5632 C 519.519 1.84841 -3.87469 0
M  V30 5633 C 518.752 3.04477 -4.38326 0
M  V30 5634 O 518.975 4.17868 -3.88256 0
M  V30 5635 O 517.909 2.85453 -5.29906 0
M  V30 5636 H 521.735 0.478201 -2.99912 0
M  V30 5637 H 519.32 0.17012 -1.48428 0
M  V30 5638 H 521.202 2.93084 -3.02787 0
M  V30 5639 H 519.877 2.64449 -1.86677 0
M  V30 5640 H 518.784 1.08449 -3.58036 0
M  V30 5641 H 520.117 1.44569 -4.7049 0
M  V30 5642 N 521.769 1.56035 0.221574 0
M  V30 5643 C 522.716 1.92413 1.27459 0
M  V30 5644 C 523.686 0.781323 1.46576 0
M  V30 5645 O 524.871 1.03721 1.60145 0
M  V30 5646 C 522.011 2.24617 2.61995 0
M  V30 5647 C 521.124 3.51831 2.50677 0
M  V30 5648 C 520.259 3.73482 3.77736 0
M  V30 5649 C 519.298 4.94211 3.6114 0
M  V30 5650 N 518.435 5.12252 4.80148 0
M  V30 5651 H 523.275 2.82203 0.957355 0
M  V30 5652 H 520.812 1.39676 0.461415 0
M  V30 5653 H 522.77 2.41298 3.40339 0
M  V30 5654 H 521.4 1.38 2.91815 0
M  V30 5655 H 520.452 3.43343 1.63767 0
M  V30 5656 H 521.764 4.40328 2.34334 0
M  V30 5657 H 520.918 3.9026 4.64523 0
M  V30 5658 H 519.657 2.83266 3.97003 0
M  V30 5659 H 518.662 4.77384 2.72736 0
M  V30 5660 H 519.887 5.85912 3.43343 0
M  V30 5661 H 517.833 4.24978 4.99729 0
M  V30 5662 H 517.75 5.94881 4.66532 0
M  V30 5663 H 519.018 5.33465 5.68362 0
M  V30 5664 N 523.247 -0.488276 1.49845 0
M  V30 5665 C 524.197 -1.58556 1.63842 0
M  V30 5666 C 525.181 -1.53142 0.493586 0
M  V30 5667 O 526.373 -1.60457 0.747169 0
M  V30 5668 C 523.502 -2.97101 1.72005 0
M  V30 5669 C 522.588 -3.07463 2.92108 0
M  V30 5670 N 522.979 -2.87681 4.16021 0
M  V30 5671 C 521.277 -3.3858 2.90309 0
M  V30 5672 C 521.978 -3.0256 4.96822 0
M  V30 5673 N 520.954 -3.32002 4.30437 0
M  V30 5674 H 524.756 -1.41935 2.57355 0
M  V30 5675 H 522.27 -0.694668 1.46793 0
M  V30 5676 H 524.267 -3.75976 1.80132 0
M  V30 5677 H 522.927 -3.14782 0.796375 0
M  V30 5678 H 523.938 -2.63603 4.45796 0
M  V30 5679 H 520.615 -3.62357 2.07372 0
M  V30 5680 H 522.005 -2.9165 6.05301 0
M  V30 5681 N 524.725 -1.39134 -0.740242 0
M  V30 5682 C 525.955 -1.39132 -1.52728 0
M  V30 5683 C 526.363 0.0173133 -1.89192 0
M  V30 5684 O 525.706 0.997715 -1.54244 0
M  V30 5685 C 525.768 -2.1952 -2.84695 0
M  V30 5686 C 525.432 -3.68203 -2.70695 0
M  V30 5687 C 526.429 -4.61401 -2.39593 0
M  V30 5688 C 524.114 -4.11724 -2.8773 0
M  V30 5689 C 526.108 -5.96102 -2.25701 0
M  V30 5690 C 523.795 -5.46503 -2.73456 0
M  V30 5691 C 524.793 -6.38506 -2.42486 0
M  V30 5692 O 524.481 -7.70803 -2.28295 0
M  V30 5693 H 524.213 -0.477263 -0.478744 0
M  V30 5694 H 526.767 -1.83504 -0.922799 0
M  V30 5695 H 524.997 -1.69888 -3.47383 0
M  V30 5696 H 526.686 -2.1176 -3.46284 0
M  V30 5697 H 527.452 -4.29079 -2.26088 0
M  V30 5698 H 523.331 -3.4045 -3.10829 0
M  V30 5699 H 526.875 -6.6788 -2.0145 0
M  V30 5700 H 522.772 -5.78417 -2.86538 0
M  V30 5701 H 523.54 -7.8147 -2.43405 0
M  V30 5702 N 526.204 0.969867 -1.24223 0
M  V30 5703 C 527.114 2.09806 -1.0497 0
M  V30 5704 C 528.13 1.73998 0.00886455 0
M  V30 5705 O 529.306 2.00513 -0.188848 0
M  V30 5706 C 526.371 3.40467 -0.654452 0
M  V30 5707 C 525.432 3.90236 -1.78926 0
M  V30 5708 C 524.665 5.14662 -1.41277 0
M  V30 5709 O 524.888 5.69602 -0.301632 0
M  V30 5710 O 523.822 5.58761 -2.23763 0
M  V30 5711 H 527.648 2.28942 -1.99548 0
M  V30 5712 H 525.233 1.08197 -1.03023 0
M  V30 5713 H 527.115 4.19039 -0.445452 0
M  V30 5714 H 525.79 3.22636 0.262216 0
M  V30 5715 H 524.697 3.12735 -2.05299 0
M  V30 5716 H 526.03 4.1254 -2.68462 0
M  V30 5717 N 527.682 1.05563 1.17022 0
M  V30 5718 C 528.91 0.78845 1.91288 0
M  V30 5719 C 529.325 -0.656318 1.77025 0
M  V30 5720 O 528.682 -1.44869 1.10992 0
M  V30 5721 C 528.733 1.16444 3.42232 0
M  V30 5722 O 528.454 2.5525 3.5606 0
M  V30 5723 C 529.955 0.923937 4.33565 0
M  V30 5724 H 527.175 0.286389 0.606813 0
M  V30 5725 H 529.719 1.4073 1.48375 0
M  V30 5726 H 527.874 0.590266 3.82877 0
M  V30 5727 H 528.288 2.70097 4.49609 0
M  V30 5728 H 529.762 1.23672 5.37968 0
M  V30 5729 H 530.239 -0.140688 4.38975 0
M  V30 5730 H 530.845 1.48214 3.98639 0
M  V30 5731 N 529.16 -1.33526 0.837174 0
M  V30 5732 C 530.408 -1.97446 0.431211 0
M  V30 5733 C 530.729 -1.6665 -1.01255 0
M  V30 5734 O 529.999 -0.964559 -1.70508 0
M  V30 5735 H 528.579 -0.73043 0.156463 0
M  V30 5736 H 531.241 -1.62918 1.06976 0
M  V30 5737 H 530.337 -3.07001 0.561877 0
M  V30 5738 N 530.638 -0.59345 -1.46 0
M  V30 5739 C 532.054 -0.255965 -1.57534 0
M  V30 5740 C 532.254 1.24167 -1.58697 0
M  V30 5741 O 531.31 2.02398 -1.50968 0
M  V30 5742 C 532.623 -0.91466 -2.86451 0
M  V30 5743 C 534.171 -0.889253 -3.00102 0
M  V30 5744 C 534.646 -1.52769 -4.3177 0
M  V30 5745 N 536.137 -1.49253 -4.38495 0
M  V30 5746 C 536.872 -1.9558 -5.39014 0
M  V30 5747 N 536.368 -2.49929 -6.46148 0
M  V30 5748 N 538.161 -1.86432 -5.30282 0
M  V30 5749 H 530.312 -1.56604 -1.43489 0
M  V30 5750 H 532.575 -0.655207 -0.685133 0
M  V30 5751 H 532.281 -1.96861 -2.91442 0
M  V30 5752 H 532.155 -0.429356 -3.74748 0
M  V30 5753 H 534.542 0.156111 -2.94687 0
M  V30 5754 H 534.623 -1.41268 -2.13253 0
M  V30 5755 H 534.267 -2.57231 -4.37944 0
M  V30 5756 H 534.197 -0.979398 -5.17412 0
M  V30 5757 H 536.688 -1.09536 -3.61677 0
M  V30 5758 H 537.001 -2.83109 -7.19075 0
M  V30 5759 H 535.346 -2.53961 -6.46938 0
M  V30 5760 H 538.537 -1.43722 -4.4549 0
M  V30 5761 H 538.71 -2.22852 -6.08474 0
M  V30 5762 N 532.116 1.54067 -0.331816 0
M  V30 5763 C 533.362 2.01012 0.268667 0
M  V30 5764 C 533.695 1.2195 1.51136 0
M  V30 5765 O 532.97 0.303972 1.9211 0
M  V30 5766 C 533.253 3.55158 0.59456 0
M  V30 5767 C 533.106 4.4494 -0.659409 0
M  V30 5768 C 534.425 4.16939 1.4089 0
M  V30 5769 H 531.544 0.730698 0.0961756 0
M  V30 5770 H 534.186 1.84593 -0.450031 0
M  V30 5771 H 532.336 3.6928 1.20685 0
M  V30 5772 H 534.008 4.42675 -1.29756 0
M  V30 5773 H 532.251 4.1428 -1.28665 0
M  V30 5774 H 532.922 5.50643 -0.386804 0
M  V30 5775 H 535.398 4.06443 0.891272 0
M  V30 5776 H 534.274 5.24889 1.60569 0
M  V30 5777 H 534.535 3.70798 2.40752 0
M  V30 5778 N 533.594 0.0601682 1.57485 0
M  V30 5779 C 534.843 -0.611101 1.9222 0
M  V30 5780 C 535.156 -1.71469 0.941159 0
M  V30 5781 O 536.362 -2.44473 1.18089 0
M  V30 5782 C 534.818 -1.13832 3.41424 0
M  V30 5783 C 534.426 -0.0663596 4.47951 0
M  V30 5784 C 536.17 -1.78432 3.85178 0
M  V30 5785 C 534.077 -0.606965 5.88277 0
M  V30 5786 H 533.007 -0.232033 0.71741 0
M  V30 5787 H 535.658 0.130518 1.83035 0
M  V30 5788 H 534.04 -1.93254 3.45643 0
M  V30 5789 H 535.214 0.707682 4.55333 0
M  V30 5790 H 533.529 0.482715 4.13593 0
M  V30 5791 H 536.126 -2.1989 4.87394 0
M  V30 5792 H 536.469 -2.63966 3.21913 0
M  V30 5793 H 537.002 -1.05651 3.83514 0
M  V30 5794 H 533.741 0.21095 6.5516 0
M  V30 5795 H 533.261 -1.34879 5.84438 0
M  V30 5796 H 534.94 -1.08704 6.37803 0
M  V30 5797 N 535.072 -1.5615 -0.213296 0
M  V30 5798 C 536.32 -1.79191 -0.934612 0
M  V30 5799 C 536.641 -0.630112 -1.84539 0
M  V30 5800 O 535.911 0.35257 -1.92701 0
M  V30 5801 H 534.491 -0.660937 -0.348097 0
M  V30 5802 H 537.153 -1.93618 -0.22317 0
M  V30 5803 H 536.249 -2.71656 -1.53654 0
M  V30 5804 N 536.55 0.480323 -1.50102 0
M  V30 5805 C 537.827 1.24159 -1.51142 0
M  V30 5806 C 538.207 2.09605 -0.250818 0
M  V30 5807 O 537.555 2.15274 0.766118 0
M  V30 5808 C 537.765 2.08057 -2.80202 0
M  V30 5809 C 539.113 2.66556 -3.30504 0
M  V30 5810 O 540.137 2.18308 -2.81461 0
M  V30 5811 O 538.996 3.54442 -4.15973 0
M  V30 5812 H 536.09 0.562928 -0.605839 0
M  V30 5813 H 538.636 0.492899 -1.62384 0
M  V30 5814 H 537.408 1.45032 -3.6343 0
M  V30 5815 H 537.031 2.90079 -2.71919 0
M  V30 5816 N 538.028 1.39524 0.732853 0
M  V30 5817 C 539.276 1.36594 1.48951 0
M  V30 5818 C 539.597 -0.0367507 1.94965 0
M  V30 5819 O 538.867 -0.988391 1.69138 0
M  V30 5820 H 537.447 0.502673 0.552566 0
M  V30 5821 H 540.109 1.74411 0.869869 0
M  V30 5822 H 539.205 2.03 2.3706 0
M  V30 5823 N 539.506 -0.963266 1.24736 0
M  V30 5824 C 540.454 -2.07985 1.04139 0
M  V30 5825 C 541.448 -1.69381 -0.0250556 0
M  V30 5826 O 542.654 -1.79531 0.129863 0
M  V30 5827 H 539.029 -0.680627 0.319768 0
M  V30 5828 H 541 -2.22517 1.98818 0
M  V30 5829 C 539.749 -3.4123 0.667615 0
M  V30 5830 H 539.072 -3.71397 1.48 0
M  V30 5831 H 540.512 -4.20244 0.563136 0
M  V30 5832 C 538.971 -3.3104 -0.625647 0
M  V30 5833 O 539.501 -3.65334 -1.67016 0
M  V30 5834 N 537.707 -2.84168 -0.608033 0
M  V30 5835 H 537.254 -2.56458 0.242323 0
M  V30 5836 H 537.212 -2.77732 -1.47352 0
M  V30 5837 N 540.985 -1.06182 -1.16461 0
M  V30 5838 C 542.232 -0.777863 -1.86964 0
M  V30 5839 C 542.56 0.695602 -1.81636 0
M  V30 5840 O 541.815 1.52532 -1.22607 0
M  V30 5841 C 542.114 -1.21633 -3.36066 0
M  V30 5842 C 541.78 -2.69371 -3.61594 0
M  V30 5843 C 540.442 -3.09727 -3.6827 0
M  V30 5844 C 542.794 -3.64791 -3.7226 0
M  V30 5845 C 540.122 -4.44345 -3.83112 0
M  V30 5846 C 542.474 -4.99155 -3.88623 0
M  V30 5847 C 541.138 -5.39149 -3.93541 0
M  V30 5848 H 540.408 -0.28464 -0.68415 0
M  V30 5849 H 543.055 -1.33071 -1.37711 0
M  V30 5850 H 541.36 -0.582651 -3.87443 0
M  V30 5851 H 543.057 -0.973682 -3.88999 0
M  V30 5852 H 539.647 -2.37124 -3.57029 0
M  V30 5853 H 543.831 -3.34746 -3.66413 0
M  V30 5854 H 539.087 -4.74819 -3.85172 0
M  V30 5855 H 543.261 -5.72976 -3.95817 0
M  V30 5856 H 540.888 -6.43464 -4.04794 0
M  V30 5857 N 542.463 1.3308 -0.844243 0
M  V30 5858 C 543.426 2.27403 -0.286485 0
M  V30 5859 C 544.426 1.51179 0.547872 0
M  V30 5860 O 545.616 1.70421 0.360886 0
M  V30 5861 C 542.748 3.35653 0.595813 0
M  V30 5862 H 543.941 2.78248 -1.11885 0
M  V30 5863 H 541.494 1.43574 -0.617749 0
M  V30 5864 H 542.229 2.90058 1.4504 0
M  V30 5865 H 542.014 3.921 -0.00125994 0
M  V30 5866 H 543.504 4.05958 0.979168 0
M  V30 5867 N 543.941 0.601185 1.45683 0
M  V30 5868 C 545.187 0.0940202 2.02582 0
M  V30 5869 C 545.52 -1.26972 1.46941 0
M  V30 5870 O 544.795 -1.83613 0.641612 0
M  V30 5871 C 545.078 0.0481715 3.60068 0
M  V30 5872 C 544.931 1.44212 4.26055 0
M  V30 5873 C 546.25 -0.642975 4.35378 0
M  V30 5874 H 543.369 0.0356404 0.736138 0
M  V30 5875 H 546.011 0.771929 1.73612 0
M  V30 5876 H 544.161 -0.529128 3.8488 0
M  V30 5877 H 545.833 2.06601 4.12449 0
M  V30 5878 H 544.076 2.00465 3.84703 0
M  V30 5879 H 544.747 1.36234 5.34925 0
M  V30 5880 H 547.223 -0.152351 4.15821 0
M  V30 5881 H 546.099 -0.644141 5.45107 0
M  V30 5882 H 546.36 -1.70785 4.0778 0
M  V30 5883 N 545.419 -1.53889 0.339982 0
M  V30 5884 C 546.665 -2.01152 -0.258003 0
M  V30 5885 C 546.998 -1.22749 -1.50487 0
M  V30 5886 O 546.273 -0.314156 -1.91946 0
M  V30 5887 C 546.556 -3.55468 -0.575717 0
M  V30 5888 C 546.409 -4.44584 0.682996 0
M  V30 5889 C 547.728 -4.1768 -1.38677 0
M  V30 5890 H 544.847 -0.731198 -0.0922992 0
M  V30 5891 H 547.489 -1.84352 0.459814 0
M  V30 5892 H 545.639 -3.69914 -1.18725 0
M  V30 5893 H 547.311 -4.41981 1.32102 0
M  V30 5894 H 545.554 -4.13592 1.3086 0
M  V30 5895 H 546.225 -5.5043 0.416001 0
M  V30 5896 H 548.701 -4.0691 -0.869705 0
M  V30 5897 H 547.577 -5.25734 -1.57783 0
M  V30 5898 H 547.838 -3.72069 -2.38782 0
M  V30 5899 N 546.897 -0.0685191 -1.57451 0
M  V30 5900 C 547.844 0.899861 -2.12535 0
M  V30 5901 C 548.814 1.29749 -1.03703 0
M  V30 5902 O 549.999 1.38392 -1.31348 0
M  V30 5903 C 547.139 2.16328 -2.6888 0
M  V30 5904 C 546.252 1.81857 -3.91857 0
M  V30 5905 C 545.387 3.02786 -4.36457 0
M  V30 5906 C 544.426 2.64317 -5.5209 0
M  V30 5907 N 543.563 3.77994 -5.91663 0
M  V30 5908 H 548.403 0.423243 -2.94979 0
M  V30 5909 H 545.94 0.197268 -1.45771 0
M  V30 5910 H 547.898 2.90281 -2.99655 0
M  V30 5911 H 546.528 2.61536 -1.89206 0
M  V30 5912 H 545.58 0.979808 -3.67565 0
M  V30 5913 H 546.892 1.49553 -4.75852 0
M  V30 5914 H 546.046 3.85021 -4.68875 0
M  V30 5915 H 544.785 3.38281 -3.51308 0
M  V30 5916 H 543.79 1.80503 -5.19325 0
M  V30 5917 H 545.015 2.29995 -6.38967 0
M  V30 5918 H 542.961 4.13258 -5.09464 0
M  V30 5919 H 542.878 3.49447 -6.7039 0
M  V30 5920 H 544.146 4.60818 -6.28703 0
M  V30 5921 N 548.375 1.56261 0.205012 0
M  V30 5922 C 549.285 1.96944 1.27476 0
M  V30 5923 C 550.301 0.875636 1.50362 0
M  V30 5924 O 551.477 1.18058 1.6317 0
M  V30 5925 C 548.542 2.29219 2.60115 0
M  V30 5926 C 547.603 3.52255 2.45387 0
M  V30 5927 C 546.836 3.8298 3.71701 0
M  V30 5928 O 547.059 3.15138 4.75441 0
M  V30 5929 O 545.993 4.76435 3.67823 0
M  V30 5930 H 549.819 2.88144 0.959527 0
M  V30 5931 H 547.404 1.43686 0.409217 0
M  V30 5932 H 549.286 2.51098 3.3842 0
M  V30 5933 H 547.961 1.4119 2.91285 0
M  V30 5934 H 546.868 3.35635 1.65227 0
M  V30 5935 H 548.201 4.40719 2.19152 0
M  V30 5936 N 549.853 -0.472356 1.50355 0
M  V30 5937 C 551.093 -1.23439 1.62918 0
M  V30 5938 C 551.457 -1.89284 0.321801 0
M  V30 5939 O 552.658 -2.66854 0.322852 0
M  V30 5940 C 550.929 -2.25119 2.7759 0
M  V30 5941 S 552.488 -3.10278 3.10279 0
M  V30 5942 H 549.306 -0.41911 0.574341 0
M  V30 5943 H 551.908 -0.531621 1.88133 0
M  V30 5944 H 550.612 -1.75324 3.71066 0
M  V30 5945 H 550.143 -3.00026 2.54457 0
M  V30 5946 H 552.158 -4.26257 2.54007 0
M  V30 5947 N 551.331 -1.39911 -0.725443 0
M  V30 5948 C 552.747 -1.21725 -1.03224 0
M  V30 5949 C 552.947 -0.0855224 -2.01318 0
M  V30 5950 O 552.003 0.55976 -2.46217 0
M  V30 5951 C 553.316 -2.55511 -1.58539 0
M  V30 5952 C 554.864 -2.62439 -1.70572 0
M  V30 5953 C 555.339 -3.9647 -2.29294 0
M  V30 5954 N 556.83 -3.98159 -2.36692 0
M  V30 5955 C 557.565 -4.98647 -2.83088 0
M  V30 5956 N 557.061 -6.0953 -3.2931 0
M  V30 5957 N 558.854 -4.8602 -2.82384 0
M  V30 5958 H 551.005 -2.12267 -0.075048 0
M  V30 5959 H 553.268 -0.943136 -0.0959066 0
M  V30 5960 H 552.974 -3.38926 -0.939249 0
M  V30 5961 H 552.848 -2.75905 -2.57208 0
M  V30 5962 H 555.235 -1.79401 -2.34306 0
M  V30 5963 H 555.316 -2.45885 -0.705297 0
M  V30 5964 H 554.96 -4.79942 -1.66186 0
M  V30 5965 H 554.89 -4.10349 -3.30032 0
M  V30 5966 H 557.381 -3.18085 -2.04035 0
M  V30 5967 H 557.694 -6.82106 -3.6325 0
M  V30 5968 H 556.039 -6.1311 -3.27294 0
M  V30 5969 H 559.23 -3.98493 -2.45603 0
M  V30 5970 H 559.403 -5.64478 -3.18226 0
M  V30 5971 N 552.809 0.956637 -1.25245 0
M  V30 5972 C 553.759 2.03841 -1.02141 0
M  V30 5973 C 554.743 1.60848 0.0410058 0
M  V30 5974 O 555.935 1.76142 -0.174084 0
M  V30 5975 C 553.064 3.37282 -0.639963 0
M  V30 5976 C 552.15 3.86805 -1.73903 0
M  V30 5977 N 552.541 4.09143 -2.97381 0
M  V30 5978 C 550.839 4.15574 -1.61909 0
M  V30 5979 C 551.54 4.49923 -3.68707 0
M  V30 5980 N 550.516 4.55737 -2.96318 0
M  V30 5981 H 554.318 2.19102 -1.95886 0
M  V30 5982 H 551.832 1.1413 -1.15534 0
M  V30 5983 H 553.829 4.14403 -0.455643 0
M  V30 5984 H 552.489 3.23401 0.29018 0
M  V30 5985 H 553.5 3.96275 -3.33447 0
M  V30 5986 H 550.177 4.10566 -0.757764 0
M  V30 5987 H 551.567 4.75526 -4.74684 0
M  V30 5988 N 554.287 1.06798 1.15896 0
M  V30 5989 C 555.703 0.792423 1.38538 0
M  V30 5990 C 555.903 -0.60592 1.92174 0
M  V30 5991 O 554.959 -1.36561 2.12385 0
M  V30 5992 C 556.272 1.86157 2.36149 0
M  V30 5993 C 557.82 1.88567 2.49823 0
M  V30 5994 C 558.295 2.9455 3.5072 0
M  V30 5995 N 559.786 2.93616 3.58251 0
M  V30 5996 C 560.521 3.72267 4.36125 0
M  V30 5997 N 560.017 4.60751 5.17379 0
M  V30 5998 N 561.81 3.60637 4.31158 0
M  V30 5999 H 553.961 1.96993 0.794198 0
M  V30 6000 H 556.224 0.853942 0.411688 0
M  V30 6001 H 555.93 2.86603 2.03843 0
M  V30 6002 H 555.804 1.71692 3.3586 0
M  V30 6003 H 558.191 0.887765 2.8143 0
M  V30 6004 H 558.272 2.0711 1.5013 0
M  V30 6005 H 557.916 3.94537 3.19849 0
M  V30 6006 H 557.846 2.73255 4.50155 0
M  V30 6007 H 560.337 2.29472 3.00252 0
M  V30 6008 H 560.65 5.17408 5.74028 0
M  V30 6009 H 558.995 4.64803 5.16704 0
M  V30 6010 H 562.186 2.90892 3.66742 0
M  V30 6011 H 562.359 4.22176 4.91601 0
M  V30 6012 N 555.766 -1.3263 0.851289 0
M  V30 6013 C 556.676 -2.32722 0.296268 0
M  V30 6014 C 557.692 -1.63901 -0.584162 0
M  V30 6015 O 558.868 -1.95465 -0.485334 0
M  V30 6016 C 555.933 -3.42942 -0.509103 0
M  V30 6017 C 554.994 -4.2746 0.397069 0
M  V30 6018 C 554.227 -5.32416 -0.36996 0
M  V30 6019 O 554.45 -5.47491 -1.6003 0
M  V30 6020 O 553.384 -6.01327 0.262493 0
M  V30 6021 H 557.21 -2.82078 1.12543 0
M  V30 6022 H 554.795 -1.36194 0.614135 0
M  V30 6023 H 556.677 -4.1017 -0.96634 0
M  V30 6024 H 555.352 -2.95781 -1.31512 0
M  V30 6025 H 554.259 -3.63053 0.902411 0
M  V30 6026 H 555.592 -4.78136 1.16818 0
M  V30 6027 N 557.244 -0.608902 -1.45362 0
M  V30 6028 C 558.472 -0.111013 -2.06602 0
M  V30 6029 C 558.887 1.20516 -1.45332 0
M  V30 6030 O 558.244 1.73437 -0.567978 0
M  V30 6031 C 558.295 0.033688 -3.61484 0
M  V30 6032 O 558.016 -1.23041 -4.20467 0
M  V30 6033 C 559.517 0.562882 -4.39712 0
M  V30 6034 H 556.737 -0.0694453 -0.667397 0
M  V30 6035 H 559.281 -0.837008 -1.86586 0
M  V30 6036 H 557.436 0.710016 -3.80838 0
M  V30 6037 H 557.85 -1.06094 -5.13658 0
M  V30 6038 H 559.324 0.613213 -5.48583 0
M  V30 6039 H 559.801 1.58543 -4.09586 0
M  V30 6040 H 560.407 -0.0794454 -4.25226 0
M  V30 6041 N 558.722 1.53707 -0.348139 0
M  V30 6042 C 560.138 1.596 0.00361134 0
M  V30 6043 C 560.338 1.36394 1.4832 0
M  V30 6044 O 559.394 1.16046 2.24253 0
M  V30 6045 C 560.707 2.97512 -0.436682 0
M  V30 6046 C 562.255 3.10568 -0.389416 0
M  V30 6047 C 562.73 4.50866 -0.805249 0
M  V30 6048 N 564.221 4.56929 -0.759616 0
M  V30 6049 C 564.956 5.63643 -1.05327 0
M  V30 6050 N 564.452 6.78189 -1.41531 0
M  V30 6051 N 566.245 5.5354 -0.977207 0
M  V30 6052 H 558.396 1.67044 -1.31187 0
M  V30 6053 H 560.659 0.782559 -0.535075 0
M  V30 6054 H 560.365 3.19575 -1.46849 0
M  V30 6055 H 560.239 3.76742 0.185744 0
M  V30 6056 H 562.626 2.88226 0.633228 0
M  V30 6057 H 562.707 2.33387 -1.04711 0
M  V30 6058 H 562.351 4.73943 -1.82593 0
M  V30 6059 H 562.281 5.26452 -0.124989 0
M  V30 6060 H 564.772 3.74675 -0.49265 0
M  V30 6061 H 565.085 7.55541 -1.62411 0
M  V30 6062 H 563.43 6.79624 -1.45381 0
M  V30 6063 H 566.621 4.62932 -0.693675 0
M  V30 6064 H 566.794 6.36614 -1.2094 0
M  V30 6065 N 560.2 0.0768682 1.57412 0
M  V30 6066 C 561.132 -0.918248 2.10002 0
M  V30 6067 C 562.145 -1.25808 1.03325 0
M  V30 6068 O 563.334 -1.21438 1.30824 0
M  V30 6069 C 560.434 -2.23263 2.54964 0
M  V30 6070 C 559.607 -2.07088 3.8527 0
M  V30 6071 C 558.666 -3.21876 4.16272 0
M  V30 6072 O 557.692 -2.96643 4.8579 0
M  V30 6073 N 558.894 -4.4712 3.70221 0
M  V30 6074 H 561.659 -0.469209 2.96004 0
M  V30 6075 H 559.22 -0.108725 1.61535 0
M  V30 6076 H 561.212 -2.9897 2.72762 0
M  V30 6077 H 559.782 -2.59649 1.74072 0
M  V30 6078 H 559.002 -1.15818 3.76802 0
M  V30 6079 H 560.29 -1.93537 4.70554 0
M  V30 6080 H 559.688 -4.70506 3.1407 0
M  V30 6081 H 558.245 -5.19837 3.93209 0
M  V30 6082 N 561.678 -1.56367 -0.196722 0
M  V30 6083 C 562.641 -1.93561 -1.22746 0
M  V30 6084 C 563.641 -0.816566 -1.38524 0
M  V30 6085 O 564.831 -1.084 -1.36363 0
M  V30 6086 C 561.963 -2.20823 -2.59712 0
M  V30 6087 H 563.156 -2.85774 -0.909586 0
M  V30 6088 H 560.709 -1.50032 -0.438174 0
M  V30 6089 H 561.444 -1.31243 -2.96557 0
M  V30 6090 H 561.229 -3.02368 -2.49632 0
M  V30 6091 H 562.719 -2.50608 -3.34044 0
M  V30 6092 N 563.156 0.464375 -1.50603 0
M  V30 6093 C 564.386 1.23727 -1.65454 0
M  V30 6094 C 564.794 1.86119 -0.340032 0
M  V30 6095 O 564.137 1.70301 0.688706 0
M  V30 6096 C 564.199 2.38153 -2.69301 0
M  V30 6097 C 563.863 1.96345 -4.12671 0
M  V30 6098 C 564.86 1.48215 -4.98326 0
M  V30 6099 C 562.545 2.04861 -4.58625 0
M  V30 6100 C 564.539 1.09152 -6.27985 0
M  V30 6101 C 562.226 1.65409 -5.88288 0
M  V30 6102 C 563.224 1.17634 -6.72794 0
M  V30 6103 O 562.912 0.787312 -8.00035 0
M  V30 6104 H 562.644 0.380075 -0.559034 0
M  V30 6105 H 565.198 0.559919 -1.97621 0
M  V30 6106 H 563.428 3.09081 -2.32392 0
M  V30 6107 H 565.117 3.00099 -2.73304 0
M  V30 6108 H 565.883 1.41052 -4.64036 0
M  V30 6109 H 561.762 2.40996 -3.92991 0
M  V30 6110 H 565.306 0.717909 -6.93896 0
M  V30 6111 H 561.203 1.72233 -6.22098 0
M  V30 6112 H 561.971 0.915567 -8.13363 0
M  V30 6113 N 564.634 1.40294 0.718013 0
M  V30 6114 C 565.597 1.4012 1.81381 0
M  V30 6115 C 566.597 0.295405 1.58063 0
M  V30 6116 O 567.787 0.554187 1.6515 0
M  V30 6117 C 564.919 1.19056 3.19435 0
M  V30 6118 H 566.112 2.37645 1.82933 0
M  V30 6119 H 563.665 1.26107 0.923405 0
M  V30 6120 H 564.4 0.222809 3.23534 0
M  V30 6121 H 564.185 1.99152 3.37758 0
M  V30 6122 H 565.675 1.21716 3.99468 0
M  V30 6123 N 566.112 -0.949982 1.2575 0
M  V30 6124 C 567.045 -2.047 1.00862 0
M  V30 6125 C 568.023 -1.62475 -0.0636982 0
M  V30 6126 O 569.207 -1.88343 0.0769153 0
M  V30 6127 C 566.334 -3.34597 0.525613 0
M  V30 6128 C 565.38 -3.95788 1.58916 0
M  V30 6129 S 566.213 -4.31175 3.17567 0
M  V30 6130 C 567.369 -5.64183 2.71013 0
M  V30 6131 H 567.602 -2.25497 1.93749 0
M  V30 6132 H 565.135 -1.09022 1.09332 0
M  V30 6133 H 567.093 -4.09716 0.25359 0
M  V30 6134 H 565.754 -3.11758 -0.382828 0
M  V30 6135 H 564.947 -4.89457 1.20201 0
M  V30 6136 H 564.549 -3.27168 1.81211 0
M  V30 6137 H 566.841 -6.42504 2.14928 0
M  V30 6138 H 567.784 -6.07774 3.6334 0
M  V30 6139 H 568.192 -5.2364 2.1086 0
M  V30 6140 N 567.59 -1.07411 -1.15328 0
M  V30 6141 C 568.537 -0.694995 -2.20087 0
M  V30 6142 C 569.507 0.313904 -1.63107 0
M  V30 6143 O 570.692 0.200216 -1.89747 0
M  V30 6144 C 567.832 -0.0996218 -3.44956 0
M  V30 6145 C 566.945 -1.16007 -4.16133 0
M  V30 6146 C 566.08 -0.529636 -5.28553 0
M  V30 6147 C 565.119 -1.57283 -5.91548 0
M  V30 6148 N 564.256 -0.964932 -6.95438 0
M  V30 6149 H 569.096 -1.5927 -2.51867 0
M  V30 6150 H 566.633 -0.796115 -1.23695 0
M  V30 6151 H 568.591 0.263197 -4.16369 0
M  V30 6152 H 567.221 0.761435 -3.13691 0
M  V30 6153 H 566.273 -1.64045 -3.4321 0
M  V30 6154 H 567.585 -1.95101 -4.59061 0
M  V30 6155 H 566.739 -0.114487 -6.06592 0
M  V30 6156 H 565.478 0.29307 -4.86819 0
M  V30 6157 H 564.483 -1.99775 -5.12221 0
M  V30 6158 H 565.708 -2.39783 -6.35359 0
M  V30 6159 H 563.654 -0.16314 -6.55797 0
M  V30 6160 H 563.571 -1.69311 -7.36797 0
M  V30 6161 H 564.839 -0.575305 -7.77374 0
M  V30 6162 N 569.068 1.32177 -0.85831 0
M  V30 6163 C 570.317 1.96392 -0.459689 0
M  V30 6164 C 570.63 1.68659 0.990632 0
M  V30 6165 O 571.836 2.26641 1.49485 0
M  V30 6166 C 570.292 3.51542 -0.7711 0
M  V30 6167 C 569.9 3.8813 -2.2374 0
M  V30 6168 C 571.644 4.2221 -0.44038 0
M  V30 6169 C 569.551 5.36341 -2.49183 0
M  V30 6170 H 568.481 0.735007 -0.168169 0
M  V30 6171 H 571.132 1.50518 -1.0496 0
M  V30 6172 H 569.514 3.95846 -0.11058 0
M  V30 6173 H 570.688 3.54824 -2.94001 0
M  V30 6174 H 569.003 3.30497 -2.533 0
M  V30 6175 H 571.6 5.31234 -0.607855 0
M  V30 6176 H 571.943 4.11683 0.618291 0
M  V30 6177 H 572.476 3.83502 -1.05695 0
M  V30 6178 H 569.215 5.51892 -3.53689 0
M  V30 6179 H 568.735 5.7104 -1.83504 0
M  V30 6180 H 570.414 6.03466 -2.33318 0
M  V30 6181 N 570.547 0.616602 1.45037 0
M  V30 6182 C 571.796 0.112861 2.01384 0
M  V30 6183 C 572.109 -1.26758 1.48969 0
M  V30 6184 O 573.315 -1.86454 1.9735 0
M  V30 6185 C 571.771 0.151057 3.59583 0
M  V30 6186 C 571.379 1.53191 4.20995 0
M  V30 6187 C 573.123 -0.296974 4.2346 0
M  V30 6188 C 571.03 1.526 5.71373 0
M  V30 6189 H 569.96 0.0384254 0.75302 0
M  V30 6190 H 572.611 0.773262 1.66412 0
M  V30 6191 H 570.993 -0.57617 3.91786 0
M  V30 6192 H 572.167 2.28156 4.00352 0
M  V30 6193 H 570.482 1.92279 3.69348 0
M  V30 6194 H 573.079 -0.320712 5.33737 0
M  V30 6195 H 573.422 -1.32145 3.9477 0
M  V30 6196 H 573.955 0.377279 3.96007 0
M  V30 6197 H 570.694 2.52837 6.04776 0
M  V30 6198 H 570.214 0.819064 5.94181 0
M  V30 6199 H 571.893 1.25357 6.3474 0
M  V30 6200 N 572.025 -1.5352 0.356285 0
M  V30 6201 C 573.302 -1.93405 -0.292223 0
M  V30 6202 C 573.682 -1.28901 -1.67176 0
M  V30 6203 O 573.03 -0.444632 -2.24132 0
M  V30 6204 C 573.24 -3.47223 -0.35175 0
M  V30 6205 C 574.588 -4.20389 -0.596534 0
M  V30 6206 O 575.612 -3.53554 -0.433344 0
M  V30 6207 O 574.471 -5.3881 -0.913589 0
M  V30 6208 H 571.565 -0.808666 -0.173172 0
M  V30 6209 H 574.111 -1.64713 0.408391 0
M  V30 6210 H 572.883 -3.86423 0.615841 0
M  V30 6211 H 572.506 -3.8212 -1.09864 0
M  V30 6212 N 573.503 -0.0852151 -1.57369 0
M  V30 6213 C 574.45 0.877268 -2.13478 0
M  V30 6214 C 575.42 1.28642 -1.05073 0
M  V30 6215 O 576.605 1.36992 -1.32808 0
M  V30 6216 C 573.745 2.13464 -2.71159 0
M  V30 6217 C 572.858 1.77691 -3.93764 0
M  V30 6218 C 571.993 2.98139 -4.39643 0
M  V30 6219 C 571.032 2.58447 -5.54862 0
M  V30 6220 N 570.169 3.71698 -5.95639 0
M  V30 6221 H 575.009 0.391933 -2.95411 0
M  V30 6222 H 572.546 0.181796 -1.45972 0
M  V30 6223 H 574.504 2.87086 -3.02717 0
M  V30 6224 H 573.134 2.59514 -1.91969 0
M  V30 6225 H 572.186 0.940768 -3.68583 0
M  V30 6226 H 573.498 1.44497 -4.77412 0
M  V30 6227 H 572.652 3.80026 -4.72933 0
M  V30 6228 H 571.391 3.34536 -3.54876 0
M  V30 6229 H 570.396 1.74984 -5.21211 0
M  V30 6230 H 571.621 2.23205 -6.41371 0
M  V30 6231 H 569.567 4.07831 -5.13819 0
M  V30 6232 H 569.484 3.42317 -6.74059 0
M  V30 6233 H 570.752 4.54123 -6.33555 0
M  V30 6234 N 574.981 1.5647 0.188427 0
M  V30 6235 C 576.206 1.85486 0.927891 0
M  V30 6236 C 576.631 0.669575 1.75779 0
M  V30 6237 O 575.989 -0.381573 1.77239 0
M  V30 6238 C 576.037 3.12784 1.7944 0
M  V30 6239 O 575.141 2.93805 2.894 0
M  V30 6240 H 574.482 0.610585 0.260925 0
M  V30 6241 H 577.012 2.037 0.191729 0
M  V30 6242 H 577.022 3.43749 2.19774 0
M  V30 6243 H 575.697 3.98671 1.18468 0
M  V30 6244 H 574.274 2.74153 2.52774 0
M  V30 6245 N 576.459 -0.456382 1.50847 0
M  V30 6246 C 577.875 -0.791345 1.386 0
M  V30 6247 C 578.075 -1.9633 0.453498 0
M  V30 6248 O 577.131 -2.52308 -0.0984353 0
M  V30 6249 C 578.444 -1.08959 2.80265 0
M  V30 6250 C 579.992 -1.19517 2.89283 0
M  V30 6251 C 580.467 -1.52647 4.31814 0
M  V30 6252 N 581.958 -1.59609 4.34832 0
M  V30 6253 C 582.693 -1.86777 5.42127 0
M  V30 6254 N 582.189 -2.11866 6.59609 0
M  V30 6255 N 583.982 -1.88402 5.29586 0
M  V30 6256 H 576.133 0.315746 2.1004 0
M  V30 6257 H 578.396 0.0787916 0.94472 0
M  V30 6258 H 578.102 -0.301355 3.50407 0
M  V30 6259 H 577.976 -2.02211 3.18419 0
M  V30 6260 H 580.363 -1.97406 2.19351 0
M  V30 6261 H 580.444 -0.242111 2.54652 0
M  V30 6262 H 580.088 -0.752922 5.02288 0
M  V30 6263 H 580.018 -2.49127 4.63943 0
M  V30 6264 H 582.509 -1.42201 3.50125 0
M  V30 6265 H 582.822 -2.31912 7.37182 0
M  V30 6266 H 581.167 -2.09228 6.62758 0
M  V30 6267 H 584.358 -1.68307 4.36795 0
M  V30 6268 H 584.531 -2.09238 6.13289 0
M  V30 6269 N 577.937 -1.40673 -0.710563 0
M  V30 6270 C 578.867 -1.44095 -1.83736 0
M  V30 6271 C 579.848 -0.301286 -1.67411 0
M  V30 6272 O 581.033 -0.510618 -1.87367 0
M  V30 6273 C 578.163 -1.30773 -3.21738 0
M  V30 6274 C 577.117 -2.42395 -3.52745 0
M  V30 6275 C 576.443 -2.14147 -4.89944 0
M  V30 6276 C 577.743 -3.84738 -3.53234 0
M  V30 6277 H 579.437 -2.38396 -1.81129 0
M  V30 6278 H 576.983 -1.14746 -0.870017 0
M  V30 6279 H 578.936 -1.31783 -4.00264 0
M  V30 6280 H 577.66 -0.329507 -3.24934 0
M  V30 6281 H 576.319 -2.40643 -2.76562 0
M  V30 6282 H 575.967 -1.14703 -4.89747 0
M  V30 6283 H 575.667 -2.88934 -5.11655 0
M  V30 6284 H 577.191 -2.16848 -5.70797 0
M  V30 6285 H 578.605 -3.88286 -4.2179 0
M  V30 6286 H 577.002 -4.59085 -3.86473 0
M  V30 6287 H 578.072 -4.13962 -2.52514 0
M  V30 6288 N 579.415 0.9433 -1.26252 0
M  V30 6289 C 580.362 2.0417 -1.07625 0
M  V30 6290 C 581.332 1.6609 0.0180738 0
M  V30 6291 O 582.517 1.90276 -0.141289 0
M  V30 6292 C 579.657 3.37653 -0.713043 0
M  V30 6293 C 578.77 3.88783 -1.8834 0
M  V30 6294 C 577.905 5.10642 -1.4635 0
M  V30 6295 C 576.944 5.54028 -2.60229 0
M  V30 6296 N 576.081 6.67092 -2.18936 0
M  V30 6297 H 580.921 2.19436 -2.01623 0
M  V30 6298 H 578.458 1.07519 -1.00389 0
M  V30 6299 H 580.416 4.14391 -0.483358 0
M  V30 6300 H 579.046 3.22241 0.18996 0
M  V30 6301 H 578.098 3.08464 -2.22608 0
M  V30 6302 H 579.41 4.16922 -2.73821 0
M  V30 6303 H 578.564 5.94832 -1.19414 0
M  V30 6304 H 577.303 4.84244 -0.579568 0
M  V30 6305 H 576.308 4.68396 -2.87898 0
M  V30 6306 H 577.533 5.82429 -3.49219 0
M  V30 6307 H 575.479 6.42381 -1.32974 0
M  V30 6308 H 575.396 6.94806 -2.97961 0
M  V30 6309 H 576.664 7.54662 -1.95206 0
M  V30 6310 N 580.893 1.08022 1.14757 0
M  V30 6311 C 582.141 0.805913 1.85336 0
M  V30 6312 C 582.462 -0.670162 1.83122 0
M  V30 6313 O 581.732 -1.48567 1.2769 0
M  V30 6314 H 580.312 0.295138 0.686223 0
M  V30 6315 H 582.974 1.36538 1.3908 0
M  V30 6316 H 582.07 1.14655 2.90277 0
M  V30 6317 N 582.371 -1.3172 0.865308 0
M  V30 6318 C 583.318 -2.2863 0.315736 0
M  V30 6319 C 584.288 -1.55524 -0.583213 0
M  V30 6320 O 585.473 -1.83694 -0.51585 0
M  V30 6321 C 582.613 -3.41735 -0.480773 0
M  V30 6322 C 581.726 -4.297 0.445167 0
M  V30 6323 C 580.861 -5.29944 -0.365012 0
M  V30 6324 C 579.9 -6.09554 0.557651 0
M  V30 6325 N 579.037 -7.01768 -0.215994 0
M  V30 6326 H 583.877 -2.75026 1.14736 0
M  V30 6327 H 581.414 -1.35302 0.577209 0
M  V30 6328 H 583.372 -4.06045 -0.958306 0
M  V30 6329 H 582.002 -2.96461 -1.27714 0
M  V30 6330 H 581.054 -3.65875 1.04113 0
M  V30 6331 H 582.366 -4.85295 1.15284 0
M  V30 6332 H 581.52 -5.99908 -0.905255 0
M  V30 6333 H 580.259 -4.74994 -1.106 0
M  V30 6334 H 579.264 -5.38485 1.10969 0
M  V30 6335 H 580.489 -6.66591 1.29742 0
M  V30 6336 H 578.435 -6.49232 -0.939878 0
M  V30 6337 H 578.352 -7.54762 0.432431 0
M  V30 6338 H 579.62 -7.76002 -0.737618 0
M  V30 6339 N 583.85 -0.624285 -1.44708 0
M  V30 6340 C 584.76 0.0861083 -2.34442 0
M  V30 6341 C 585.776 0.84291 -1.5222 0
M  V30 6342 O 586.952 0.796723 -1.84971 0
M  V30 6343 C 584.017 1.05999 -3.30099 0
M  V30 6344 C 583.077 0.303316 -4.28227 0
M  V30 6345 C 582.311 1.23081 -5.19314 0
M  V30 6346 O 582.534 2.46929 -5.14181 0
M  V30 6347 O 581.468 0.71883 -5.97592 0
M  V30 6348 H 585.293 -0.651756 -2.96624 0
M  V30 6349 H 582.879 -0.384493 -1.44368 0
M  V30 6350 H 584.76 1.62046 -3.88997 0
M  V30 6351 H 583.436 1.77859 -2.70459 0
M  V30 6352 H 582.343 -0.300033 -3.72895 0
M  V30 6353 H 583.676 -0.375123 -4.90768 0
M  V30 6354 N 585.328 1.53329 -0.364422 0
M  V30 6355 C 586.605 1.93557 0.281962 0
M  V30 6356 C 586.985 1.29786 1.6649 0
M  V30 6357 O 586.333 0.456512 2.23893 0
M  V30 6358 C 586.543 3.47405 0.333331 0
M  V30 6359 C 587.891 4.20699 0.574231 0
M  V30 6360 O 588.915 3.53779 0.414588 0
M  V30 6361 O 587.774 5.39287 0.885002 0
M  V30 6362 H 584.868 0.809573 0.168881 0
M  V30 6363 H 587.414 1.64494 -0.417121 0
M  V30 6364 H 586.186 3.86091 -0.636326 0
M  V30 6365 H 585.809 3.82697 1.07836 0
M  V30 6366 N 586.806 0.0935595 1.57322 0
M  V30 6367 C 587.739 -0.902505 2.09595 0
M  V30 6368 C 588.717 -1.27732 1.00615 0
M  V30 6369 O 589.901 -1.38283 1.28102 0
M  V30 6370 C 587.028 -2.20416 2.57166 0
M  V30 6371 C 586.074 -1.97932 3.7779 0
M  V30 6372 S 586.907 -1.21873 5.21447 0
M  V30 6373 C 588.063 -2.53273 5.72367 0
M  V30 6374 H 588.296 -0.457797 2.93754 0
M  V30 6375 H 585.829 -0.119694 1.53935 0
M  V30 6376 H 587.787 -2.95217 2.85232 0
M  V30 6377 H 586.448 -2.62008 1.73235 0
M  V30 6378 H 585.641 -2.94316 4.09138 0
M  V30 6379 H 585.243 -1.3126 3.5021 0
M  V30 6380 H 587.535 -3.49256 5.8054 0
M  V30 6381 H 588.478 -2.26505 6.70896 0
M  V30 6382 H 588.886 -2.61475 5.00291 0
M  V30 6383 N 588.284 -1.56567 -0.180126 0
M  V30 6384 C 589.53 -1.81761 -0.899497 0
M  V30 6385 C 589.863 -0.670015 -1.82276 0
M  V30 6386 O 589.138 0.328575 -1.91705 0
M  V30 6387 C 589.421 -3.17296 -1.7028 0
M  V30 6388 C 589.274 -4.4257 -0.803255 0
M  V30 6389 C 590.593 -3.49678 -2.67233 0
M  V30 6390 H 587.712 -0.661192 -0.325567 0
M  V30 6391 H 590.354 -1.89272 -0.16612 0
M  V30 6392 H 588.504 -3.11023 -2.32802 0
M  V30 6393 H 590.176 -4.60902 -0.191585 0
M  V30 6394 H 588.419 -4.33658 -0.110796 0
M  V30 6395 H 589.09 -5.33935 -1.40064 0
M  V30 6396 H 591.566 -3.56347 -2.14839 0
M  V30 6397 H 590.442 -4.45605 -3.20511 0
M  V30 6398 H 590.703 -2.73932 -3.47007 0
M  V30 6399 N 589.762 0.448376 -1.51087 0
M  V30 6400 C 591.039 1.20926 -1.53741 0
M  V30 6401 C 591.419 2.09025 -0.295222 0
M  V30 6402 O 590.767 2.16851 0.720283 0
M  V30 6403 C 590.977 2.02067 -2.84552 0
M  V30 6404 C 592.325 2.59486 -3.36084 0
M  V30 6405 O 593.349 2.12289 -2.86028 0
M  V30 6406 O 592.208 3.45539 -4.23397 0
M  V30 6407 H 589.302 0.549951 -0.617643 0
M  V30 6408 H 591.848 0.458344 -1.63393 0
M  V30 6409 H 590.62 1.37291 -3.66425 0
M  V30 6410 H 590.243 2.84246 -2.78011 0
M  V30 6411 N 591.24 1.41047 0.703093 0
M  V30 6412 C 592.465 1.43537 1.49706 0
M  V30 6413 C 592.89 0.0401853 1.88057 0
M  V30 6414 O 592.248 -0.954785 1.54122 0
M  V30 6415 C 592.296 2.3433 2.74084 0
M  V30 6416 O 591.4 1.79515 3.71279 0
M  V30 6417 H 590.741 0.487454 0.450871 0
M  V30 6418 H 593.271 1.85422 0.86486 0
M  V30 6419 H 593.281 2.49947 3.22476 0
M  V30 6420 H 591.956 3.35708 2.45506 0
M  V30 6421 H 590.533 1.7331 3.30179 0
M  V30 6422 N 592.718 -0.936591 1.26751 0
M  V30 6423 C 593.628 -2.06949 1.10496 0
M  V30 6424 C 594.644 -1.7396 0.037271 0
M  V30 6425 O 595.82 -1.99941 0.241944 0
M  V30 6426 C 592.885 -3.38612 0.744491 0
M  V30 6427 C 591.946 -3.85355 1.89209 0
M  V30 6428 C 591.179 -5.10735 1.54873 0
M  V30 6429 O 591.402 -5.68602 0.452546 0
M  V30 6430 O 590.336 -5.52632 2.38499 0
M  V30 6431 H 594.162 -2.23571 2.05547 0
M  V30 6432 H 591.747 -1.05428 1.05855 0
M  V30 6433 H 593.629 -4.17711 0.556396 0
M  V30 6434 H 592.304 -3.23218 -0.176582 0
M  V30 6435 H 591.211 -3.07182 2.13518 0
M  V30 6436 H 592.544 -4.05277 2.79305 0
M  V30 6437 N 594.196 -1.08629 -1.14182 0
M  V30 6438 C 595.445 -0.812271 -1.84621 0
M  V30 6439 C 595.758 0.664313 -1.83973 0
M  V30 6440 O 596.964 1.05357 -2.50224 0
M  V30 6441 C 595.42 -1.4031 -3.31423 0
M  V30 6442 C 595.028 -2.91164 -3.40481 0
M  V30 6443 C 596.772 -1.20767 -4.06959 0
M  V30 6444 C 594.679 -3.43373 -4.81507 0
M  V30 6445 H 593.609 -0.30019 -0.691666 0
M  V30 6446 H 596.26 -1.30798 -1.28701 0
M  V30 6447 H 594.642 -0.835096 -3.87094 0
M  V30 6448 H 595.816 -3.5412 -2.94848 0
M  V30 6449 H 594.131 -3.09646 -2.78403 0
M  V30 6450 H 596.728 -1.57237 -5.11058 0
M  V30 6451 H 597.071 -0.147664 -4.16038 0
M  V30 6452 H 597.604 -1.74274 -3.57594 0
M  V30 6453 H 594.343 -4.48958 -4.77616 0
M  V30 6454 H 593.863 -2.85176 -5.27669 0
M  V30 6455 H 595.542 -3.40095 -5.50404 0
M  V30 6456 N 595.674 1.31259 -0.872281 0
M  V30 6457 C 596.604 2.30929 -0.345554 0
M  V30 6458 C 597.585 1.60449 0.5648 0
M  V30 6459 O 598.77 1.8814 0.481335 0
M  V30 6460 C 595.9 3.44348 0.451823 0
M  V30 6461 C 594.854 4.26435 -0.365641 0
M  V30 6462 C 594.18 5.31785 0.557562 0
M  V30 6463 C 595.48 4.97159 -1.60095 0
M  V30 6464 H 597.174 2.75234 -1.17841 0
M  V30 6465 H 594.72 1.3232 -0.568094 0
M  V30 6466 H 596.673 4.13128 0.830854 0
M  V30 6467 H 595.397 2.98816 1.31821 0
M  V30 6468 H 594.056 3.59326 -0.726649 0
M  V30 6469 H 593.704 4.82502 1.4213 0
M  V30 6470 H 593.404 5.87598 0.0144878 0
M  V30 6471 H 594.928 6.03424 0.933387 0
M  V30 6472 H 596.342 5.58523 -1.29323 0
M  V30 6473 H 594.739 5.62779 -2.08327 0
M  V30 6474 H 595.809 4.24012 -2.35249 0
M  V30 6475 N 597.152 0.631951 1.44375 0
M  V30 6476 C 598.401 0.134214 2.01253 0
M  V30 6477 C 598.714 -1.25171 1.50305 0
M  V30 6478 O 599.92 -1.8435 1.99317 0
M  V30 6479 C 598.376 0.189187 3.59402 0
M  V30 6480 C 597.984 1.57647 4.19346 0
M  V30 6481 C 599.728 -0.252044 4.23751 0
M  V30 6482 C 597.635 1.58651 5.69722 0
M  V30 6483 H 596.565 0.0464101 0.75257 0
M  V30 6484 H 599.216 0.790868 1.65582 0
M  V30 6485 H 597.598 -0.534584 3.92375 0
M  V30 6486 H 598.772 2.32389 3.97909 0
M  V30 6487 H 597.087 1.96186 3.67288 0
M  V30 6488 H 599.684 -0.264084 5.34047 0
M  V30 6489 H 600.027 -1.27951 3.96149 0
M  V30 6490 H 600.56 0.41926 3.95584 0
M  V30 6491 H 597.299 2.59237 6.0206 0
M  V30 6492 H 596.819 0.882039 5.93279 0
M  V30 6493 H 598.498 1.32082 6.33375 0
M  V30 6494 N 598.631 -1.53133 0.372548 0
M  V30 6495 C 599.88 -2.00539 -0.216115 0
M  V30 6496 C 600.193 -1.26374 -1.49295 0
M  V30 6497 O 601.399 -1.64404 -2.16064 0
M  V30 6498 C 599.855 -3.57253 -0.435678 0
M  V30 6499 C 599.463 -4.40302 0.82693 0
M  V30 6500 C 601.207 -4.12995 -0.981618 0
M  V30 6501 C 599.114 -5.88583 0.576567 0
M  V30 6502 H 598.044 -0.749246 -0.084536 0
M  V30 6503 H 600.695 -1.76771 0.492364 0
M  V30 6504 H 599.077 -3.77202 -1.20559 0
M  V30 6505 H 600.251 -4.32124 1.60017 0
M  V30 6506 H 598.566 -3.95699 1.29659 0
M  V30 6507 H 601.163 -5.21418 -1.18436 0
M  V30 6508 H 601.506 -3.68027 -1.94581 0
M  V30 6509 H 602.039 -3.96871 -0.271696 0
M  V30 6510 H 598.778 -6.37841 1.51128 0
M  V30 6511 H 598.298 -5.99592 -0.158047 0
M  V30 6512 H 599.977 -6.46676 0.204722 0
M  V30 6513 N 600.109 -0.101901 -1.5727 0
M  V30 6514 C 601.041 0.884723 -2.11436 0
M  V30 6515 C 602.054 1.24149 -1.05314 0
M  V30 6516 O 603.243 1.19341 -1.3274 0
M  V30 6517 C 600.343 2.19179 -2.58484 0
M  V30 6518 C 599.516 2.00933 -3.88516 0
M  V30 6519 C 598.575 3.15213 -4.2134 0
M  V30 6520 O 597.601 2.88877 -4.90448 0
M  V30 6521 N 598.803 4.41174 -3.77288 0
M  V30 6522 H 601.568 0.422058 -2.96713 0
M  V30 6523 H 599.129 0.0830128 -1.61687 0
M  V30 6524 H 601.121 2.94593 -2.77484 0
M  V30 6525 H 599.691 2.56847 -1.7818 0
M  V30 6526 H 598.911 1.09809 -3.78597 0
M  V30 6527 H 600.199 1.86026 -4.73573 0
M  V30 6528 H 599.597 4.6545 -3.21516 0
M  V30 6529 H 598.154 5.13515 -4.01429 0
M  V30 6530 N 601.587 1.56661 0.17182 0
M  V30 6531 C 602.812 1.86459 0.908165 0
M  V30 6532 C 603.237 0.688181 1.75059 0
M  V30 6533 O 602.595 -0.362753 1.77634 0
M  V30 6534 C 602.643 3.14669 1.76112 0
M  V30 6535 O 601.747 2.96858 2.86268 0
M  V30 6536 H 601.088 0.613318 0.254434 0
M  V30 6537 H 603.618 2.03892 0.170113 0
M  V30 6538 H 603.628 3.46061 2.16115 0
M  V30 6539 H 602.303 3.99905 1.14233 0
M  V30 6540 H 600.88 2.76819 2.49852 0
M  V30 6541 N 603.065 -0.440357 1.51323 0
M  V30 6542 C 603.995 -1.54174 1.75364 0
M  V30 6543 C 604.976 -1.59039 0.603375 0
M  V30 6544 O 606.161 -1.74815 0.845774 0
M  V30 6545 C 603.291 -2.92277 1.87593 0
M  V30 6546 C 602.245 -3.02274 3.03009 0
M  V30 6547 C 601.571 -4.42327 3.00418 0
M  V30 6548 C 602.871 -2.76634 4.43024 0
M  V30 6549 H 604.565 -1.34307 2.67585 0
M  V30 6550 H 602.111 -0.644678 1.28763 0
M  V30 6551 H 604.064 -3.69284 2.02995 0
M  V30 6552 H 602.788 -3.13369 0.920179 0
M  V30 6553 H 601.447 -2.27706 2.87307 0
M  V30 6554 H 601.095 -4.60382 2.02626 0
M  V30 6555 H 600.795 -4.49946 3.77918 0
M  V30 6556 H 602.319 -5.21312 3.17909 0
M  V30 6557 H 603.733 -3.43376 4.59093 0
M  V30 6558 H 602.13 -2.95666 5.22208 0
M  V30 6559 H 603.2 -1.72262 4.5327 0
M  V30 6560 N 604.543 -1.41418 -0.695603 0
M  V30 6561 C 605.768 -1.44329 -1.48942 0
M  V30 6562 C 606.193 -0.0501579 -1.88033 0
M  V30 6563 O 605.551 0.946598 -1.54626 0
M  V30 6564 C 605.599 -2.3578 -2.72837 0
M  V30 6565 O 604.703 -1.81482 -3.70322 0
M  V30 6566 H 604.044 -0.489838 -0.44828 0
M  V30 6567 H 606.574 -1.85878 -0.855014 0
M  V30 6568 H 606.584 -2.51654 -3.21145 0
M  V30 6569 H 605.259 -3.37005 -2.43722 0
M  V30 6570 H 603.836 -1.75058 -3.29255 0
M  V30 6571 N 606.021 0.929856 -1.27246 0
M  V30 6572 C 606.971 2.01629 -1.06442 0
M  V30 6573 C 607.955 1.60899 0.00687842 0
M  V30 6574 O 609.147 1.75733 -0.211407 0
M  V30 6575 C 606.276 3.35849 -0.711361 0
M  V30 6576 C 605.362 3.8303 -1.82069 0
M  V30 6577 N 605.753 4.02743 -3.05993 0
M  V30 6578 C 604.051 4.12046 -1.70687 0
M  V30 6579 C 604.752 4.42001 -3.78167 0
M  V30 6580 N 603.728 4.4935 -3.05918 0
M  V30 6581 H 607.53 2.14898 -2.00489 0
M  V30 6582 H 605.044 1.11654 -1.17929 0
M  V30 6583 H 607.041 4.13343 -0.543442 0
M  V30 6584 H 605.701 3.23944 0.221517 0
M  V30 6585 H 606.712 3.89112 -3.41778 0
M  V30 6586 H 603.389 4.08866 -0.844681 0
M  V30 6587 H 604.779 4.6535 -4.84664 0
M  V30 6588 N 607.499 1.09233 1.13605 0
M  V30 6589 C 608.91 0.846839 1.6639 0
M  V30 6590 C 609.261 -0.625031 1.85978 0
M  V30 6591 O 608.386 -1.48173 1.57714 0
M  V30 6592 C 608.981 1.5307 3.0225 0
M  V30 6593 C 607.54 1.33223 3.52035 0
M  V30 6594 C 606.687 1.58806 2.27323 0
M  V30 6595 H 609.638 1.25175 0.975541 0
M  V30 6596 H 609.659 0.96267 3.68121 0
M  V30 6597 H 609.171 2.60192 2.87961 0
M  V30 6598 H 607.272 0.282091 3.71531 0
M  V30 6599 H 607.385 2.0657 4.32279 0
M  V30 6600 H 605.749 1.01007 2.33815 0
M  V30 6601 H 606.532 2.67153 2.15602 0
M  V30 6602 N 608.977 -1.30795 0.87923 0
M  V30 6603 C 609.925 -2.30231 0.331112 0
M  V30 6604 C 610.919 -1.59918 -0.558794 0
M  V30 6605 O 612.125 -1.74441 -0.443866 0
M  V30 6606 H 608.5 -0.746785 0.088409 0
M  V30 6607 H 610.471 -2.73925 1.18353 0
M  V30 6608 C 609.22 -3.44848 -0.444401 0
M  V30 6609 H 608.543 -3.99131 0.231106 0
M  V30 6610 H 609.983 -4.16516 -0.793109 0
M  V30 6611 C 608.442 -2.94329 -1.63926 0
M  V30 6612 O 608.972 -2.93875 -2.73862 0
M  V30 6613 N 607.178 -2.50413 -1.4745 0
M  V30 6614 H 606.725 -2.50982 -0.58015 0
M  V30 6615 H 606.683 -2.16969 -2.27534 0
M  V30 6616 N 610.455 -0.639598 -1.44038 0
M  V30 6617 C 611.704 -0.144885 -2.01179 0
M  V30 6618 C 612.017 1.24372 -1.50967 0
M  V30 6619 O 613.223 1.83291 -2.00292 0
M  V30 6620 C 611.679 -0.208244 -3.59297 0
M  V30 6621 C 611.287 -1.59869 -4.18504 0
M  V30 6622 C 613.031 0.229568 -4.23879 0
M  V30 6623 C 610.938 -1.61671 -5.68873 0
M  V30 6624 H 609.868 -0.0504005 -0.752314 0
M  V30 6625 H 612.519 -0.799639 -1.65161 0
M  V30 6626 H 610.901 0.513767 -3.92653 0
M  V30 6627 H 612.075 -2.34496 -3.96671 0
M  V30 6628 H 610.39 -1.98131 -3.66242 0
M  V30 6629 H 612.987 0.235758 -5.3418 0
M  V30 6630 H 613.33 1.25848 -3.96822 0
M  V30 6631 H 613.863 -0.440233 -3.95357 0
M  V30 6632 H 610.602 -2.62427 -6.00677 0
M  V30 6633 H 610.122 -0.913489 -5.92803 0
M  V30 6634 H 611.801 -1.35439 -6.32665 0
M  V30 6635 N 611.933 1.52934 -0.380664 0
M  V30 6636 C 613.179 2.01765 0.20458 0
M  V30 6637 C 613.512 1.26696 1.47179 0
M  V30 6638 O 612.787 0.364936 1.91046 0
M  V30 6639 C 613.07 3.56869 0.481269 0
M  V30 6640 C 612.923 4.42617 -0.800629 0
M  V30 6641 C 614.242 4.2121 1.27554 0
M  V30 6642 H 611.361 0.733388 0.0728803 0
M  V30 6643 H 614.003 1.83068 -0.50853 0
M  V30 6644 H 612.153 3.72932 1.08875 0
M  V30 6645 H 613.825 4.38323 -1.43773 0
M  V30 6646 H 612.068 4.09977 -1.4178 0
M  V30 6647 H 612.739 5.49134 -0.561791 0
M  V30 6648 H 615.215 4.09072 0.761514 0
M  V30 6649 H 614.091 5.29732 1.43788 0
M  V30 6650 H 614.352 3.78269 2.28833 0
M  V30 6651 N 613.412 0.11024 1.57214 0
M  V30 6652 C 614.359 -0.843195 2.14846 0
M  V30 6653 C 615.329 -1.26954 1.07107 0
M  V30 6654 O 616.514 -1.34861 1.34971 0
M  V30 6655 C 613.654 -2.09123 2.74521 0
M  V30 6656 C 612.767 -1.71404 3.96541 0
M  V30 6657 C 611.902 -2.91107 4.44331 0
M  V30 6658 C 610.941 -2.49586 5.58903 0
M  V30 6659 N 610.078 -3.62175 6.01477 0
M  V30 6660 H 614.918 -0.344886 2.95998 0
M  V30 6661 H 612.455 -0.15855 1.46243 0
M  V30 6662 H 614.413 -2.82234 3.07246 0
M  V30 6663 H 613.043 -2.56427 1.96074 0
M  V30 6664 H 612.095 -0.88201 3.70033 0
M  V30 6665 H 613.407 -1.36884 4.7965 0
M  V30 6666 H 612.561 -3.72454 4.78919 0
M  V30 6667 H 611.3 -3.28848 3.60153 0
M  V30 6668 H 610.305 -1.6667 5.23929 0
M  V30 6669 H 611.53 -2.12973 6.4484 0
M  V30 6670 H 609.476 -3.99605 5.20242 0
M  V30 6671 H 609.393 -3.3155 6.79419 0
M  V30 6672 H 610.661 -4.43987 6.407 0
M  V30 6673 N 614.89 -1.56749 -0.16351 0
M  V30 6674 C 615.82 -2.00042 -1.20438 0
M  V30 6675 C 616.801 -0.877256 -1.45733 0
M  V30 6676 O 617.986 -1.1439 -1.56935 0
M  V30 6677 C 615.116 -2.36697 -2.54149 0
M  V30 6678 C 614.07 -3.52046 -2.43408 0
M  V30 6679 C 613.396 -3.74466 -3.81679 0
M  V30 6680 C 614.696 -4.85247 -1.93216 0
M  V30 6681 H 616.39 -2.87244 -0.844477 0
M  V30 6682 H 613.936 -1.38194 -0.40478 0
M  V30 6683 H 615.889 -2.65582 -3.27176 0
M  V30 6684 H 614.613 -1.46414 -2.91943 0
M  V30 6685 H 613.272 -3.23301 -1.72834 0
M  V30 6686 H 612.92 -2.81461 -4.1688 0
M  V30 6687 H 612.62 -4.52084 -3.75359 0
M  V30 6688 H 614.144 -4.0576 -4.5628 0
M  V30 6689 H 615.558 -5.12957 -2.56023 0
M  V30 6690 H 613.955 -5.66556 -1.97825 0
M  V30 6691 H 615.025 -4.7672 -0.88689 0
M  V30 6692 N 616.368 0.432326 -1.51554 0
M  V30 6693 C 617.318 1.52366 -1.69614 0
M  V30 6694 C 618.302 1.51205 -0.550083 0
M  V30 6695 O 619.494 1.57573 -0.806206 0
M  V30 6696 C 616.623 2.90513 -1.82913 0
M  V30 6697 C 615.709 2.9641 -3.03318 0
M  V30 6698 N 616.1 2.72043 -4.26411 0
M  V30 6699 C 614.398 3.27572 -3.02675 0
M  V30 6700 C 615.099 2.83912 -5.07709 0
M  V30 6701 N 614.075 3.15798 -4.42462 0
M  V30 6702 H 617.877 1.32285 -2.62446 0
M  V30 6703 H 615.391 0.639708 -1.4927 0
M  V30 6704 H 617.388 3.69032 -1.93962 0
M  V30 6705 H 616.048 3.1161 -0.912655 0
M  V30 6706 H 617.059 2.46876 -4.55272 0
M  V30 6707 H 613.736 3.54411 -2.20678 0
M  V30 6708 H 615.126 2.68984 -6.15709 0
M  V30 6709 N 617.846 1.41785 0.688094 0
M  V30 6710 C 618.756 1.46596 1.83158 0
M  V30 6711 C 619.772 0.355862 1.70322 0
M  V30 6712 O 620.948 0.604737 1.92106 0
M  V30 6713 C 618.013 1.35322 3.192 0
M  V30 6714 C 617.074 2.56711 3.4409 0
M  V30 6715 C 616.307 2.45965 4.73642 0
M  V30 6716 O 616.53 1.48827 5.50642 0
M  V30 6717 O 615.464 3.35859 4.99482 0
M  V30 6718 H 619.29 2.43083 1.82056 0
M  V30 6719 H 616.875 1.23404 0.842126 0
M  V30 6720 H 618.757 1.31347 4.00407 0
M  V30 6721 H 617.432 0.419536 3.2097 0
M  V30 6722 H 616.339 2.66262 2.62784 0
M  V30 6723 H 617.672 3.48933 3.47141 0
M  V30 6724 N 619.324 -0.923095 1.27737 0
M  V30 6725 C 620.57 -1.67375 1.14514 0
M  V30 6726 C 620.903 -1.91751 -0.307424 0
M  V30 6727 O 620.178 -1.51119 -1.22447 0
M  V30 6728 C 620.461 -3.03745 1.9342 0
M  V30 6729 C 620.314 -2.86581 3.46686 0
M  V30 6730 C 621.633 -4.04144 1.74228 0
M  V30 6731 H 618.752 -0.607427 0.417374 0
M  V30 6732 H 621.394 -1.07089 1.56946 0
M  V30 6733 H 619.544 -3.55204 1.5736 0
M  V30 6734 H 621.216 -2.42203 3.92601 0
M  V30 6735 H 619.459 -2.21829 3.72793 0
M  V30 6736 H 620.13 -3.83381 3.97143 0
M  V30 6737 H 622.606 -3.61712 2.05678 0
M  V30 6738 H 621.482 -4.97543 2.31824 0
M  V30 6739 H 621.743 -4.36661 0.691373 0
M  V30 6740 N 620.802 -1.09834 -1.13024 0
M  V30 6741 C 622.032 -0.857657 -1.87957 0
M  V30 6742 C 622.44 0.595008 -1.796 0
M  V30 6743 O 621.783 1.42158 -1.16347 0
M  V30 6744 C 621.845 -1.21949 -3.38185 0
M  V30 6745 C 621.509 -2.67791 -3.7032 0
M  V30 6746 C 622.506 -3.66036 -3.69207 0
M  V30 6747 C 620.191 -3.04019 -3.99847 0
M  V30 6748 C 622.185 -4.98533 -3.9717 0
M  V30 6749 C 619.872 -4.36706 -4.27471 0
M  V30 6750 C 620.87 -5.33772 -4.26118 0
M  V30 6751 O 620.558 -6.64072 -4.53061 0
M  V30 6752 H 620.29 -0.308009 -0.601753 0
M  V30 6753 H 622.844 -1.46496 -1.43973 0
M  V30 6754 H 621.074 -0.555249 -3.82693 0
M  V30 6755 H 622.763 -0.957281 -3.9445 0
M  V30 6756 H 623.529 -3.39392 -3.46465 0
M  V30 6757 H 619.408 -2.29096 -4.00045 0
M  V30 6758 H 622.952 -5.74288 -3.96029 0
M  V30 6759 H 618.849 -4.63091 -4.49685 0
M  V30 6760 H 619.617 -6.69608 -4.7071 0
M  V30 6761 N 622.28 1.30327 -0.886154 0
M  V30 6762 C 623.19 2.31854 -0.357866 0
M  V30 6763 C 624.206 1.65392 0.540502 0
M  V30 6764 O 625.382 1.96683 0.433339 0
M  V30 6765 C 622.447 3.44171 0.417999 0
M  V30 6766 C 621.508 4.26257 -0.510263 0
M  V30 6767 C 620.741 5.3321 0.228669 0
M  V30 6768 O 620.964 5.51542 1.45458 0
M  V30 6769 O 619.898 6.0042 -0.421832 0
M  V30 6770 H 623.724 2.78995 -1.19982 0
M  V30 6771 H 621.309 1.34518 -0.650028 0
M  V30 6772 H 623.191 4.12588 0.857251 0
M  V30 6773 H 621.866 2.99164 1.23623 0
M  V30 6774 H 620.773 3.60533 -0.99835 0
M  V30 6775 H 622.106 4.74871 -1.29454 0
M  V30 6776 N 623.758 0.647228 1.43697 0
M  V30 6777 C 624.986 0.16575 2.06235 0
M  V30 6778 C 625.401 -1.1662 1.48476 0
M  V30 6779 O 624.758 -1.7187 0.613762 0
M  V30 6780 C 624.809 0.0621651 3.61447 0
M  V30 6781 O 624.53 1.34146 4.17057 0
M  V30 6782 C 626.031 -0.446102 4.4105 0
M  V30 6783 H 623.251 0.0871158 0.665321 0
M  V30 6784 H 625.795 0.886183 1.84301 0
M  V30 6785 H 623.95 -0.608794 3.82587 0
M  V30 6786 H 624.364 1.19675 5.10664 0
M  V30 6787 H 625.838 -0.46755 5.50016 0
M  V30 6788 H 626.315 -1.47627 4.13646 0
M  V30 6789 H 626.921 0.192159 4.24866 0
M  V30 6790 N 625.236 -1.5273 0.388769 0
M  V30 6791 C 626.513 -1.93981 -0.251133 0
M  V30 6792 C 626.893 -1.32418 -1.64404 0
M  V30 6793 O 626.241 -0.492074 -2.23139 0
M  V30 6794 C 626.451 -3.47891 -0.27802 0
M  V30 6795 C 627.799 -4.21559 -0.507229 0
M  V30 6796 O 628.823 -3.54394 -0.358252 0
M  V30 6797 O 627.682 -5.40626 -0.799094 0
M  V30 6798 H 624.776 -0.812157 -0.15598 0
M  V30 6799 H 627.322 -1.63809 0.443237 0
M  V30 6800 H 626.094 -3.8503 0.697669 0
M  V30 6801 H 625.717 -3.84364 -1.01733 0
M  V30 6802 N 626.714 -0.118576 -1.57153 0
M  V30 6803 C 627.647 0.869046 -2.11004 0
M  V30 6804 C 628.625 1.26115 -1.02634 0
M  V30 6805 O 629.809 1.36228 -1.30285 0
M  V30 6806 C 626.936 2.16297 -2.6064 0
M  V30 6807 C 625.982 1.91896 -3.80891 0
M  V30 6808 S 626.815 1.13562 -5.2332 0
M  V30 6809 C 627.971 2.44135 -5.76324 0
M  V30 6810 H 628.204 0.411005 -2.94445 0
M  V30 6811 H 625.737 0.0951891 -1.54106 0
M  V30 6812 H 627.695 2.90642 -2.89892 0
M  V30 6813 H 626.356 2.59219 -1.77382 0
M  V30 6814 H 625.549 2.8777 -4.13768 0
M  V30 6815 H 625.151 1.25672 -3.52253 0
M  V30 6816 H 627.443 3.39976 -5.86022 0
M  V30 6817 H 628.386 2.15803 -6.74414 0
M  V30 6818 H 628.794 2.53483 -5.04387 0
M  V30 6819 N 628.193 1.56834 0.155195 0
M  V30 6820 C 629.103 2.009 1.21146 0
M  V30 6821 C 630.119 0.923029 1.475 0
M  V30 6822 O 631.295 1.23189 1.59331 0
M  V30 6823 C 628.36 2.37378 2.52691 0
M  V30 6824 C 627.421 3.59883 2.34057 0
M  V30 6825 C 626.654 3.94612 3.59329 0
M  V30 6826 O 626.877 3.30104 4.65175 0
M  V30 6827 O 625.811 4.87895 3.52479 0
M  V30 6828 H 629.637 2.9105 0.867371 0
M  V30 6829 H 627.222 1.44916 0.363298 0
M  V30 6830 H 629.104 2.61737 3.3026 0
M  V30 6831 H 627.779 1.50385 2.86646 0
M  V30 6832 H 626.686 3.40722 1.54465 0
M  V30 6833 H 628.019 4.47468 2.0502 0
M  V30 6834 N 629.671 -0.424282 1.51781 0
M  V30 6835 C 630.92 -1.16961 1.64326 0
M  V30 6836 C 631.233 -1.92035 0.371749 0
M  V30 6837 O 632.439 -2.68873 0.37676 0
M  V30 6838 C 630.895 -2.12782 2.90262 0
M  V30 6839 C 630.503 -1.43295 4.24465 0
M  V30 6840 C 632.247 -2.87667 3.12166 0
M  V30 6841 C 630.154 -2.37676 5.41538 0
M  V30 6842 H 629.084 -0.440293 0.612093 0
M  V30 6843 H 631.735 -0.435431 1.78259 0
M  V30 6844 H 630.117 -2.8969 2.69992 0
M  V30 6845 H 631.291 -0.718564 4.55163 0
M  V30 6846 H 629.606 -0.805118 4.08542 0
M  V30 6847 H 632.203 -3.58395 3.96808 0
M  V30 6848 H 632.546 -3.49758 2.25776 0
M  V30 6849 H 633.079 -2.17863 3.32837 0
M  V30 6850 H 629.818 -1.80255 6.30229 0
M  V30 6851 H 629.338 -3.07132 5.15199 0
M  V30 6852 H 631.017 -2.98529 5.74012 0
M  V30 6853 N 631.149 -1.42148 -0.680565 0
M  V30 6854 C 632.379 -1.45485 -1.46689 0
M  V30 6855 C 632.787 -0.0629451 -1.89095 0
M  V30 6856 O 632.13 0.931397 -1.58337 0
M  V30 6857 C 632.192 -2.31397 -2.75129 0
M  V30 6858 C 631.856 -3.79353 -2.54834 0
M  V30 6859 C 632.853 -4.71148 -2.19808 0
M  V30 6860 C 630.538 -4.23557 -2.70008 0
M  V30 6861 C 632.532 -6.05139 -2.00215 0
M  V30 6862 C 630.219 -5.57609 -2.50031 0
M  V30 6863 C 631.217 -6.48216 -2.15187 0
M  V30 6864 O 630.905 -7.79792 -1.95397 0
M  V30 6865 H 630.637 -0.497139 -0.458071 0
M  V30 6866 H 633.191 -1.87252 -0.844139 0
M  V30 6867 H 631.421 -1.84468 -3.39865 0
M  V30 6868 H 633.11 -2.26257 -3.36991 0
M  V30 6869 H 633.876 -4.38282 -2.07686 0
M  V30 6870 H 629.755 -3.53327 -2.96109 0
M  V30 6871 H 633.299 -6.75823 -1.72941 0
M  V30 6872 H 629.196 -5.9005 -2.61748 0
M  V30 6873 H 629.964 -7.91091 -2.10042 0
M  V30 6874 N 632.627 0.916307 -1.28225 0
M  V30 6875 C 633.557 2.0352 -1.14464 0
M  V30 6876 C 634.538 1.70045 -0.0430844 0
M  V30 6877 O 635.723 1.92954 -0.219619 0
M  V30 6878 C 632.853 3.37889 -0.803027 0
M  V30 6879 C 631.807 3.85516 -1.85908 0
M  V30 6880 C 631.133 5.1682 -1.37116 0
M  V30 6881 C 632.433 4.07655 -3.26519 0
M  V30 6882 H 634.127 2.1529 -2.08064 0
M  V30 6883 H 631.673 1.03446 -1.00174 0
M  V30 6884 H 633.626 4.15654 -0.693537 0
M  V30 6885 H 632.35 3.26164 0.168674 0
M  V30 6886 H 631.009 3.09953 -1.95767 0
M  V30 6887 H 630.657 5.01497 -0.38859 0
M  V30 6888 H 630.357 5.49657 -2.07728 0
M  V30 6889 H 631.881 5.97143 -1.27484 0
M  V30 6890 H 633.295 4.75953 -3.19596 0
M  V30 6891 H 631.692 4.51818 -3.94943 0
M  V30 6892 H 632.762 3.12553 -3.70727 0
M  V30 6893 N 634.105 1.10431 1.1244 0
M  V30 6894 C 635.354 0.841539 1.83306 0
M  V30 6895 C 635.667 -0.634961 1.85007 0
M  V30 6896 O 636.873 -1.01363 2.51869 0
M  V30 6897 C 635.329 1.45565 3.29149 0
M  V30 6898 C 634.937 2.96544 3.35806 0
M  V30 6899 C 636.681 1.27227 4.04986 0
M  V30 6900 C 634.588 3.5099 4.75983 0
M  V30 6901 H 633.518 0.311156 0.686803 0
M  V30 6902 H 636.169 1.32829 1.26604 0
M  V30 6903 H 634.551 0.896574 3.85717 0
M  V30 6904 H 635.725 3.58766 2.89177 0
M  V30 6905 H 634.04 3.14036 2.73442 0
M  V30 6906 H 636.637 1.65348 5.08492 0
M  V30 6907 H 636.98 0.213834 4.1575 0
M  V30 6908 H 637.513 1.79941 3.54776 0
M  V30 6909 H 634.252 4.56499 4.70413 0
M  V30 6910 H 633.772 2.93535 5.23065 0
M  V30 6911 H 635.451 3.48808 5.44924 0
M  V30 6912 N 635.583 -1.29855 0.893053 0
M  V30 6913 C 636.513 -2.3035 0.382249 0
M  V30 6914 C 637.494 -1.61328 -0.539203 0
M  V30 6915 O 638.679 -1.88882 -0.451342 0
M  V30 6916 C 635.809 -3.45024 -0.396983 0
M  V30 6917 C 634.763 -4.258 0.433437 0
M  V30 6918 C 634.089 -5.32605 -0.472889 0
M  V30 6919 C 635.389 -4.94549 1.67984 0
M  V30 6920 H 637.083 -2.73325 1.22205 0
M  V30 6921 H 634.629 -1.314 0.589073 0
M  V30 6922 H 636.582 -4.14398 -0.765024 0
M  V30 6923 H 635.306 -3.00875 -1.2705 0
M  V30 6924 H 633.965 -3.58125 0.783723 0
M  V30 6925 H 633.613 -4.84702 -1.34435 0
M  V30 6926 H 633.313 -5.87547 0.0789958 0
M  V30 6927 H 634.837 -6.04832 -0.837269 0
M  V30 6928 H 636.251 -5.56395 1.38192 0
M  V30 6929 H 634.648 -5.59393 2.17254 0
M  V30 6930 H 635.718 -4.20215 2.41965 0
M  V30 6931 N 637.061 -0.65484 -1.43351 0
M  V30 6932 C 637.971 0.0363603 -2.34572 0
M  V30 6933 C 638.987 0.810432 -1.53974 0
M  V30 6934 O 640.163 0.757308 -1.86619 0
M  V30 6935 C 637.228 0.989733 -3.32273 0
M  V30 6936 C 636.289 0.212414 -4.28774 0
M  V30 6937 C 635.522 1.12038 -5.21808 0
M  V30 6938 O 635.745 2.35967 -5.19303 0
M  V30 6939 O 634.679 0.59191 -5.98982 0
M  V30 6940 H 638.505 -0.714527 -2.95175 0
M  V30 6941 H 636.09 -0.415029 -1.4352 0
M  V30 6942 H 637.972 1.53759 -3.92347 0
M  V30 6943 H 636.647 1.72082 -2.74171 0
M  V30 6944 H 635.554 -0.379062 -3.72175 0
M  V30 6945 H 636.887 -0.479138 -4.89862 0
M  V30 6946 N 638.539 1.52521 -0.396863 0
M  V30 6947 C 639.769 2.05792 0.182485 0
M  V30 6948 C 640.177 1.26784 1.40436 0
M  V30 6949 O 639.52 0.309617 1.81072 0
M  V30 6950 C 639.582 3.54291 0.609781 0
M  V30 6951 C 639.246 4.5426 -0.499674 0
M  V30 6952 C 640.243 5.01812 -1.35944 0
M  V30 6953 C 637.928 4.97827 -0.668864 0
M  V30 6954 C 639.922 5.91562 -2.37346 0
M  V30 6955 C 637.609 5.87376 -1.68621 0
M  V30 6956 C 638.607 6.34137 -2.53692 0
M  V30 6957 O 638.295 7.21915 -3.53686 0
M  V30 6958 H 638.027 0.675362 0.0293583 0
M  V30 6959 H 640.581 1.97539 -0.56281 0
M  V30 6960 H 638.811 3.60188 1.40717 0
M  V30 6961 H 640.5 3.90267 1.11565 0
M  V30 6962 H 641.266 4.68879 -1.24008 0
M  V30 6963 H 637.145 4.60997 -0.0163971 0
M  V30 6964 H 640.689 6.27983 -3.03782 0
M  V30 6965 H 636.586 6.19723 -1.80593 0
M  V30 6966 H 637.354 7.39996 -3.49784 0
M  V30 6967 N 640.017 0.126909 1.57088 0
M  V30 6968 C 641.263 -0.529952 1.95753 0
M  V30 6969 C 641.596 -1.65823 1.01077 0
M  V30 6970 O 640.871 -1.94437 0.0494162 0
M  V30 6971 C 641.154 -1.05517 3.44294 0
M  V30 6972 C 641.007 0.0702253 4.49745 0
M  V30 6973 C 642.326 -1.9435 3.94862 0
M  V30 6974 H 639.445 -0.191168 0.711775 0
M  V30 6975 H 642.087 0.204071 1.88901 0
M  V30 6976 H 640.237 -1.68069 3.50264 0
M  V30 6977 H 641.909 0.705834 4.55868 0
M  V30 6978 H 640.152 0.732259 4.27575 0
M  V30 6979 H 640.823 -0.338642 5.5096 0
M  V30 6980 H 643.299 -1.41658 3.91244 0
M  V30 6981 H 642.175 -2.28015 4.993 0
M  V30 6982 H 642.436 -2.87299 3.36024 0
M  V30 6983 N 641.495 -1.56914 -0.146875 0
M  V30 6984 C 642.427 -1.94878 -1.20645 0
M  V30 6985 C 643.44 -0.844633 -1.39175 0
M  V30 6986 O 644.629 -1.12304 -1.38744 0
M  V30 6987 C 641.729 -2.20769 -2.57127 0
M  V30 6988 C 640.902 -3.52053 -2.59572 0
M  V30 6989 C 639.961 -3.66482 -3.77594 0
M  V30 6990 O 638.987 -4.38873 -3.62462 0
M  V30 6991 N 640.189 -3.03156 -4.95052 0
M  V30 6992 H 642.954 -2.86374 -0.883757 0
M  V30 6993 H 640.515 -1.58366 -0.336436 0
M  V30 6994 H 642.507 -2.27664 -3.34591 0
M  V30 6995 H 641.077 -1.35538 -2.81688 0
M  V30 6996 H 640.297 -3.56598 -1.68023 0
M  V30 6997 H 641.585 -4.38396 -2.58238 0
M  V30 6998 H 640.983 -2.44258 -5.10249 0
M  V30 6999 H 639.54 -3.15611 -5.70292 0
M  V30 7000 N 642.974 0.416227 -1.52004 0
M  V30 7001 C 644.222 1.16153 -1.65387 0
M  V30 7002 C 644.543 1.91208 -0.382669 0
M  V30 7003 O 643.813 1.86413 0.602231 0
M  V30 7004 H 642.393 0.431765 -0.60958 0
M  V30 7005 H 645.055 0.475151 -1.89019 0
M  V30 7006 H 644.151 1.87952 -2.4916 0
M  V30 7007 N 644.452 1.42507 0.673017 0
M  V30 7008 C 645.7 1.42789 1.43023 0
M  V30 7009 C 646.021 0.0459738 1.94946 0
M  V30 7010 O 645.291 -0.915765 1.73178 0
M  V30 7011 H 643.871 0.525657 0.530748 0
M  V30 7012 H 646.533 1.77944 0.795113 0
M  V30 7013 H 645.629 2.12872 2.28237 0
M  V30 7014 N 645.93 -0.909495 1.28709 0
M  V30 7015 C 647.207 -1.63865 1.06806 0
M  V30 7016 C 647.587 -2.07445 -0.391143 0
M  V30 7017 O 646.935 -1.82269 -1.37805 0
M  V30 7018 C 647.145 -2.82692 2.04661 0
M  V30 7019 C 648.493 -3.5361 2.35042 0
M  V30 7020 O 649.517 -2.92847 2.02779 0
M  V30 7021 O 648.376 -4.63131 2.90124 0
M  V30 7022 H 645.47 -0.719065 0.408502 0
M  V30 7023 H 648.016 -0.958424 1.40044 0
M  V30 7024 H 646.788 -2.47614 3.0299 0
M  V30 7025 H 646.411 -3.58426 1.72095 0
M  V30 7026 N 647.408 -1.11026 -1.11852 0
M  V30 7027 C 648.338 -0.786812 -2.19844 0
M  V30 7028 C 649.319 0.242935 -1.68356 0
M  V30 7029 O 650.504 0.107355 -1.93903 0
M  V30 7030 C 647.634 -0.224516 -3.46574 0
M  V30 7031 C 646.588 -1.18564 -4.1125 0
M  V30 7032 C 645.914 -0.484261 -5.32503 0
M  V30 7033 C 647.214 -2.53465 -4.56676 0
M  V30 7034 H 648.908 -1.68978 -2.47158 0
M  V30 7035 H 646.454 -0.813906 -1.18792 0
M  V30 7036 H 648.407 0.0139435 -4.21398 0
M  V30 7037 H 647.131 0.713722 -3.18706 0
M  V30 7038 H 645.79 -1.40966 -3.38414 0
M  V30 7039 H 645.438 0.458646 -5.00905 0
M  V30 7040 H 645.138 -1.12526 -5.76725 0
M  V30 7041 H 646.662 -0.254492 -6.10069 0
M  V30 7042 H 648.076 -2.35177 -5.22843 0
M  V30 7043 H 646.473 -3.13507 -5.11697 0
M  V30 7044 H 647.543 -3.13008 -3.70343 0
M  V30 7045 N 648.886 1.2938 -0.899927 0
M  V30 7046 C 650.133 1.9555 -0.525963 0
M  V30 7047 C 650.461 1.70945 0.927789 0
M  V30 7048 O 649.716 1.01545 1.67293 0
M  V30 7049 C 650.015 3.49114 -0.765113 0
M  V30 7050 C 649.681 3.93796 -2.19626 0
M  V30 7051 C 648.343 4.05707 -2.58758 0
M  V30 7052 C 650.695 4.16883 -3.12823 0
M  V30 7053 C 648.023 4.38074 -3.90267 0
M  V30 7054 C 650.375 4.50725 -4.4388 0
M  V30 7055 C 649.039 4.60845 -4.82885 0
M  V30 7056 H 648.309 0.715569 -0.192463 0
M  V30 7057 H 650.956 1.53972 -1.13863 0
M  V30 7058 H 649.261 3.91738 -0.069531 0
M  V30 7059 H 650.958 3.98409 -0.455144 0
M  V30 7060 H 647.548 3.85042 -1.88256 0
M  V30 7061 H 651.732 4.07147 -2.83804 0
M  V30 7062 H 646.988 4.44112 -4.20207 0
M  V30 7063 H 651.162 4.67538 -5.16121 0
M  V30 7064 H 648.789 4.85681 -5.84823 0
M  V30 7065 N 650.364 0.662433 1.43002 0
M  V30 7066 C 651.641 0.109096 1.95296 0
M  V30 7067 C 652.021 -1.37313 1.60338 0
M  V30 7068 O 651.369 -2.1032 0.893187 0
M  V30 7069 C 651.579 0.365096 3.47085 0
M  V30 7070 C 652.927 0.274964 4.23709 0
M  V30 7071 O 653.951 0.29816 3.5495 0
M  V30 7072 O 652.81 0.206549 5.4611 0
M  V30 7073 H 649.904 -0.00429724 0.826989 0
M  V30 7074 H 652.45 0.736308 1.52894 0
M  V30 7075 H 651.222 1.39237 3.65689 0
M  V30 7076 H 650.845 -0.294733 3.96506 0
M  V30 7077 N 651.842 -1.52309 0.404946 0
M  V30 7078 C 652.805 -2.25491 -0.410651 0
M  V30 7079 C 653.805 -1.27704 -0.977154 0
M  V30 7080 O 654.995 -1.51679 -0.856691 0
M  V30 7081 C 652.127 -3.02197 -1.57765 0
M  V30 7082 H 653.32 -2.99015 0.230277 0
M  V30 7083 H 650.873 -1.55506 0.157377 0
M  V30 7084 H 651.608 -2.33013 -2.25556 0
M  V30 7085 H 651.393 -3.73987 -1.17797 0
M  V30 7086 H 652.883 -3.57719 -2.15469 0
M  V30 7087 N 653.32 -0.135238 -1.57019 0
M  V30 7088 C 654.569 0.518694 -1.94917 0
M  V30 7089 C 654.882 1.66783 -1.0219 0
M  V30 7090 O 656.088 2.38561 -1.29619 0
M  V30 7091 C 654.544 0.974123 -3.46466 0
M  V30 7092 C 654.152 -0.147439 -4.47757 0
M  V30 7093 C 655.896 1.59851 -3.93253 0
M  V30 7094 C 653.803 0.325599 -5.90503 0
M  V30 7095 H 652.733 0.19754 -0.727663 0
M  V30 7096 H 655.384 -0.217698 -1.82204 0
M  V30 7097 H 653.766 1.76542 -3.5447 0
M  V30 7098 H 654.94 -0.924122 -4.51438 0
M  V30 7099 H 653.255 -0.679496 -4.10818 0
M  V30 7100 H 655.852 1.96385 -4.9733 0
M  V30 7101 H 656.195 2.48306 -3.3414 0
M  V30 7102 H 656.728 0.872323 -3.88118 0
M  V30 7103 H 653.467 -0.523295 -6.53408 0
M  V30 7104 H 652.987 1.06841 -5.90208 0
M  V30 7105 H 654.666 0.781498 -6.42263 0
M  V30 7106 N 654.798 1.5699 0.138552 0
M  V30 7107 C 656.047 1.82998 0.848205 0
M  V30 7108 C 656.36 0.717829 1.81952 0
M  V30 7109 O 657.566 0.863756 2.57394 0
M  V30 7110 C 656.022 3.24379 1.55904 0
M  V30 7111 C 655.63 4.43552 0.62971 0
M  V30 7112 C 657.374 3.59654 2.25498 0
M  V30 7113 C 655.281 5.75957 1.34266 0
M  V30 7114 H 654.211 0.682495 0.320495 0
M  V30 7115 H 656.862 1.83222 0.100924 0
M  V30 7116 H 655.244 3.18567 2.35226 0
M  V30 7117 H 656.418 4.6062 -0.128882 0
M  V30 7118 H 654.733 4.16379 0.0417526 0
M  V30 7119 H 657.33 4.55837 2.79493 0
M  V30 7120 H 657.673 2.86124 3.02388 0
M  V30 7121 H 658.206 3.67164 1.53087 0
M  V30 7122 H 654.945 6.52604 0.615441 0
M  V30 7123 H 654.465 5.62811 2.07375 0
M  V30 7124 H 656.144 6.19046 1.88126 0
M  V30 7125 N 656.276 -0.40816 1.52223 0
M  V30 7126 C 657.186 -1.52202 1.78526 0
M  V30 7127 C 658.202 -1.60546 0.670892 0
M  V30 7128 O 659.378 -1.77242 0.956404 0
M  V30 7129 C 656.443 -2.87928 1.93128 0
M  V30 7130 C 655.504 -2.89463 3.17033 0
M  V30 7131 C 654.737 -4.18715 3.30929 0
M  V30 7132 O 654.96 -5.12662 2.50067 0
M  V30 7133 O 653.894 -4.27125 4.24084 0
M  V30 7134 H 657.72 -1.32911 2.73072 0
M  V30 7135 H 655.305 -0.594112 1.37079 0
M  V30 7136 H 657.187 -3.68426 2.04549 0
M  V30 7137 H 655.862 -3.07285 1.01772 0
M  V30 7138 H 654.769 -2.07815 3.11069 0
M  V30 7139 H 656.102 -2.75055 4.08174 0
M  V30 7140 N 657.755 -1.42862 -0.66545 0
M  V30 7141 C 658.98 -1.47456 -1.45848 0
M  V30 7142 C 659.405 -0.0900312 -1.87884 0
M  V30 7143 O 658.763 0.913587 -1.56599 0
M  V30 7144 C 658.811 -2.41514 -2.67774 0
M  V30 7145 O 657.915 -1.89296 -3.66389 0
M  V30 7146 H 657.256 -0.499236 -0.437789 0
M  V30 7147 H 659.786 -1.8765 -0.815394 0
M  V30 7148 H 659.796 -2.58409 -3.15735 0
M  V30 7149 H 658.471 -3.42099 -2.36519 0
M  V30 7150 H 657.048 -1.82003 -3.25468 0
M  V30 7151 N 659.233 0.902656 -1.29189 0
M  V30 7152 C 660.479 1.65532 -1.17163 0
M  V30 7153 C 660.812 1.92216 0.276879 0
M  V30 7154 O 660.087 1.53048 1.20027 0
M  V30 7155 C 660.37 3.00629 -1.98228 0
M  V30 7156 C 660.223 2.81029 -3.51202 0
M  V30 7157 C 661.542 4.01321 -1.80635 0
M  V30 7158 H 658.661 0.60071 -0.426985 0
M  V30 7159 H 661.303 1.04578 -1.5863 0
M  V30 7160 H 659.453 3.52656 -1.62991 0
M  V30 7161 H 661.125 2.35927 -3.96404 0
M  V30 7162 H 659.368 2.1587 -3.76275 0
M  V30 7163 H 660.039 3.77014 -4.03192 0
M  V30 7164 H 662.515 3.58394 -2.11406 0
M  V30 7165 H 661.391 4.93792 -2.3971 0
M  V30 7166 H 661.652 4.35505 -0.760754 0
M  V30 7167 N 660.711 1.11618 1.11262 0
M  V30 7168 C 661.658 0.7762 2.17356 0
M  V30 7169 C 662.628 -0.253152 1.6416 0
M  V30 7170 O 663.813 -0.129655 1.90359 0
M  V30 7171 C 660.953 0.227581 3.44349 0
M  V30 7172 C 660.066 1.31372 4.1154 0
M  V30 7173 C 659.201 0.72544 5.26223 0
M  V30 7174 C 658.24 1.7913 5.85302 0
M  V30 7175 N 657.377 1.22237 6.91377 0
M  V30 7176 H 662.217 1.68508 2.45783 0
M  V30 7177 H 659.754 0.841475 1.20655 0
M  V30 7178 H 661.712 -0.108483 4.17059 0
M  V30 7179 H 660.342 -0.644486 3.16301 0
M  V30 7180 H 659.394 1.7667 3.36885 0
M  V30 7181 H 660.706 2.12005 4.51504 0
M  V30 7182 H 659.86 0.339541 6.05749 0
M  V30 7183 H 658.599 -0.112188 4.87571 0
M  V30 7184 H 657.604 2.18648 5.04453 0
M  V30 7185 H 658.829 2.63199 6.26022 0
M  V30 7186 H 656.775 0.406423 6.5474 0
M  V30 7187 H 656.692 1.9654 7.30006 0
M  V30 7188 H 657.96 0.863426 7.74703 0
M  V30 7189 N 662.189 -1.289 0.906776 0
M  V30 7190 C 663.436 -1.95269 0.536326 0
M  V30 7191 C 663.764 -1.71435 -0.918711 0
M  V30 7192 O 663.019 -1.02431 -1.66752 0
M  V30 7193 C 663.318 -3.48704 0.783617 0
M  V30 7194 C 662.984 -3.92626 2.21711 0
M  V30 7195 C 661.646 -4.04329 2.60906 0
M  V30 7196 C 663.998 -4.15218 3.15029 0
M  V30 7197 C 661.326 -4.35998 3.92584 0
M  V30 7198 C 663.678 -4.48365 4.46264 0
M  V30 7199 C 662.342 -4.58278 4.85322 0
M  V30 7200 H 661.612 -0.714538 0.196256 0
M  V30 7201 H 664.259 -1.53366 1.14678 0
M  V30 7202 H 662.564 -3.91696 0.0903048 0
M  V30 7203 H 664.261 -3.98162 0.476267 0
M  V30 7204 H 660.851 -3.84038 1.90296 0
M  V30 7205 H 665.035 -4.05636 2.8596 0
M  V30 7206 H 660.291 -4.41878 4.22557 0
M  V30 7207 H 664.465 -4.64795 5.18593 0
M  V30 7208 H 662.092 -4.82573 5.87391 0
M  V30 7209 N 663.667 -0.670007 -1.42649 0
M  V30 7210 C 665.078 -0.268118 -1.84765 0
M  V30 7211 C 665.429 1.18877 -1.56086 0
M  V30 7212 O 664.554 1.90947 -1.01825 0
M  V30 7213 C 665.149 -0.47984 -3.35385 0
M  V30 7214 C 663.708 -0.132116 -3.76168 0
M  V30 7215 C 662.855 -0.774611 -2.66261 0
M  V30 7216 H 665.806 -0.872509 -1.32563 0
M  V30 7217 H 665.827 0.269522 -3.79544 0
M  V30 7218 H 665.339 -1.54026 -3.56227 0
M  V30 7219 H 663.44 0.92505 -3.60934 0
M  V30 7220 H 663.553 -0.569294 -4.75706 0
M  V30 7221 H 661.917 -0.206353 -2.53863 0
M  V30 7222 H 662.7 -1.83839 -2.89928 0
M  V30 7223 N 665.145 1.52092 -0.413018 0
M  V30 7224 C 666.055 2.30858 0.417318 0
M  V30 7225 C 667.071 1.38746 1.05003 0
M  V30 7226 O 668.247 1.71821 1.05069 0
M  V30 7227 C 665.312 3.11756 1.51687 0
M  V30 7228 C 664.373 4.19613 0.906825 0
M  V30 7229 C 663.606 4.96644 1.95399 0
M  V30 7230 O 663.829 4.7402 3.17271 0
M  V30 7231 O 662.763 5.81385 1.55805 0
M  V30 7232 H 666.589 3.02865 -0.225028 0
M  V30 7233 H 664.174 1.48358 -0.176126 0
M  V30 7234 H 666.056 3.62122 2.15512 0
M  V30 7235 H 664.731 2.42539 2.14375 0
M  V30 7236 H 663.638 3.73385 0.231183 0
M  V30 7237 H 664.971 4.91134 0.323814 0
M  V30 7238 N 666.623 0.143563 1.56945 0
M  V30 7239 C 668.034 -0.37783 1.82837 0
M  V30 7240 C 668.385 -1.64967 1.06209 0
M  V30 7241 O 667.51 -2.14221 0.306291 0
M  V30 7242 C 668.105 -0.692274 3.31652 0
M  V30 7243 C 666.664 -1.1582 3.58138 0
M  V30 7244 C 665.811 -0.17951 2.76718 0
M  V30 7245 H 668.762 0.368317 1.54367 0
M  V30 7246 H 668.783 -1.54729 3.47619 0
M  V30 7247 H 668.295 0.233572 3.87397 0
M  V30 7248 H 666.396 -2.10011 3.07776 0
M  V30 7249 H 666.509 -1.08655 4.66616 0
M  V30 7250 H 664.873 -0.671458 2.4569 0
M  V30 7251 H 665.656 0.739865 3.35233 0
M  V30 7252 N 668.101 -1.57061 -0.130224 0
M  V30 7253 C 669.378 -1.75205 -0.869631 0
M  V30 7254 C 669.758 -0.716063 -1.98584 0
M  V30 7255 O 669.106 0.262032 -2.26993 0
M  V30 7256 C 669.316 -3.19835 -1.39666 0
M  V30 7257 C 670.664 -3.82011 -1.85345 0
M  V30 7258 O 671.688 -3.23368 -1.49371 0
M  V30 7259 O 670.547 -4.85064 -2.51744 0
M  V30 7260 H 667.641 -0.716977 -0.412157 0
M  V30 7261 H 670.187 -1.69311 -0.11484 0
M  V30 7262 H 668.959 -3.86745 -0.595288 0
M  V30 7263 H 668.582 -3.30222 -2.21448 0
M  V30 7264 N 669.579 0.400081 -1.52437 0
M  V30 7265 C 670.542 1.4707 -1.75793 0
M  V30 7266 C 671.542 1.48036 -0.627856 0
M  V30 7267 O 672.732 1.49401 -0.895817 0
M  V30 7268 C 669.864 2.86427 -1.84858 0
M  V30 7269 H 671.057 1.27649 -2.71377 0
M  V30 7270 H 668.61 0.631141 -1.42991 0
M  V30 7271 H 669.345 3.11207 -0.912194 0
M  V30 7272 H 669.13 2.87128 -2.6702 0
M  V30 7273 H 670.62 3.64023 -2.04638 0
M  V30 7274 N 671.057 1.43213 0.657864 0
M  V30 7275 C 672.02 1.47687 1.75275 0
M  V30 7276 C 673.02 0.362179 1.56668 0
M  V30 7277 O 674.21 0.623734 1.62651 0
M  V30 7278 C 671.342 1.32497 3.14098 0
M  V30 7279 H 672.535 2.4519 1.7269 0
M  V30 7280 H 670.088 1.2991 0.869087 0
M  V30 7281 H 670.823 0.359831 3.22298 0
M  V30 7282 H 670.608 2.13299 3.29008 0
M  V30 7283 H 672.098 1.38549 3.93946 0
M  V30 7284 N 672.536 -0.895792 1.29666 0
M  V30 7285 C 673.466 -2.01673 1.17688 0
M  V30 7286 C 674.447 -1.69955 0.0701317 0
M  V30 7287 O 675.632 -1.9258 0.250289 0
M  V30 7288 C 672.762 -3.36568 0.856681 0
M  V30 7289 C 671.716 -3.82509 1.92017 0
M  V30 7290 C 671.042 -5.14574 1.4532 0
M  V30 7291 C 672.342 -4.02409 3.32963 0
M  V30 7292 H 674.036 -2.11953 2.11463 0
M  V30 7293 H 671.582 -1.01839 1.01807 0
M  V30 7294 H 673.535 -4.14498 0.759577 0
M  V30 7295 H 672.259 -3.26391 -0.116763 0
M  V30 7296 H 670.918 -3.068 2.00673 0
M  V30 7297 H 670.566 -5.00815 0.468325 0
M  V30 7298 H 670.266 -5.46283 2.16447 0
M  V30 7299 H 671.79 -5.9504 1.36968 0
M  V30 7300 H 673.204 -4.70808 3.27127 0
M  V30 7301 H 671.601 -4.45478 4.02082 0
M  V30 7302 H 672.671 -3.06616 3.75652 0
M  V30 7303 N 674.014 -1.12206 -1.10668 0
M  V30 7304 C 674.947 -0.731468 -2.16159 0
M  V30 7305 C 675.925 0.276216 -1.60237 0
M  V30 7306 O 677.109 0.17074 -1.87725 0
M  V30 7307 C 674.236 -0.0822882 -3.386 0
M  V30 7308 C 673.282 -1.05641 -4.1321 0
M  V30 7309 S 674.115 -2.58281 -4.69096 0
M  V30 7310 C 675.271 -1.94686 -5.94851 0
M  V30 7311 H 675.504 -1.62504 -2.48957 0
M  V30 7312 H 673.037 -0.940906 -1.22419 0
M  V30 7313 H 674.995 0.285896 -4.09503 0
M  V30 7314 H 673.656 0.788358 -3.04046 0
M  V30 7315 H 672.849 -0.549764 -5.00993 0
M  V30 7316 H 672.451 -1.36741 -3.48106 0
M  V30 7317 H 674.743 -1.28815 -6.65141 0
M  V30 7318 H 675.686 -2.80499 -6.50174 0
M  V30 7319 H 676.094 -1.40369 -5.46769 0
M  V30 7320 N 675.492 1.28418 -0.913599 0
M  V30 7321 C 676.741 1.94265 -0.542572 0
M  V30 7322 C 677.054 1.72709 0.918207 0
M  V30 7323 O 678.26 2.32778 1.39738 0
M  V30 7324 C 676.716 3.47956 -0.919507 0
M  V30 7325 C 676.324 3.78291 -2.4 0
M  V30 7326 C 678.068 4.19962 -0.619057 0
M  V30 7327 C 675.975 5.2529 -2.71707 0
M  V30 7328 H 674.905 0.727213 -0.199192 0
M  V30 7329 H 677.556 1.45931 -1.11249 0
M  V30 7330 H 675.938 3.9502 -0.278372 0
M  V30 7331 H 677.112 3.42035 -3.08786 0
M  V30 7332 H 675.427 3.19456 -2.67089 0
M  V30 7333 H 678.024 5.28178 -0.832623 0
M  V30 7334 H 678.367 4.13935 0.443126 0
M  V30 7335 H 678.9 3.78674 -1.21865 0
M  V30 7336 H 675.639 5.36394 -3.76778 0
M  V30 7337 H 675.159 5.62743 -2.07559 0
M  V30 7338 H 676.838 5.93027 -2.58703 0
M  V30 7339 N 676.97 0.677563 1.42291 0
M  V30 7340 C 677.903 -0.0492638 2.28147 0
M  V30 7341 C 678.881 -0.805936 1.41221 0
M  V30 7342 O 680.065 -0.80049 1.70659 0
M  V30 7343 C 677.192 -1.07697 3.21122 0
M  V30 7344 C 676.238 -0.41556 4.24471 0
M  V30 7345 S 677.071 0.828876 5.29046 0
M  V30 7346 C 678.227 -0.197687 6.25588 0
M  V30 7347 H 678.46 0.678965 2.89443 0
M  V30 7348 H 675.993 0.467201 1.47162 0
M  V30 7349 H 677.951 -1.66482 3.75225 0
M  V30 7350 H 676.612 -1.77766 2.58956 0
M  V30 7351 H 675.805 -1.19112 4.89723 0
M  V30 7352 H 675.407 0.0987632 3.7387 0
M  V30 7353 H 677.699 -1.05656 6.69211 0
M  V30 7354 H 678.642 0.420437 7.06851 0
M  V30 7355 H 679.05 -0.544401 5.61869 0
M  V30 7356 N 678.448 -1.51871 0.421078 0
M  V30 7357 C 679.725 -1.9447 -0.20993 0
M  V30 7358 C 680.105 -1.35875 -1.61558 0
M  V30 7359 O 679.453 -0.539294 -2.22045 0
M  V30 7360 C 679.663 -3.48402 -0.204165 0
M  V30 7361 C 681.011 -4.2254 -0.417696 0
M  V30 7362 O 682.035 -3.55074 -0.282999 0
M  V30 7363 O 680.894 -5.422 -0.684239 0
M  V30 7364 H 677.988 -0.815283 -0.138718 0
M  V30 7365 H 680.534 -1.62832 0.477884 0
M  V30 7366 H 679.306 -3.83464 0.779183 0
M  V30 7367 H 678.929 -3.86436 -0.935576 0
M  V30 7368 N 679.926 -0.151884 -1.56866 0
M  V30 7369 C 680.856 0.781943 -2.20018 0
M  V30 7370 C 681.837 1.25347 -1.14987 0
M  V30 7371 O 683.022 1.31015 -1.43348 0
M  V30 7372 C 680.152 2.01928 -2.82564 0
M  V30 7373 C 679.106 1.68434 -3.93464 0
M  V30 7374 C 678.432 2.99472 -4.42968 0
M  V30 7375 C 679.732 0.927244 -5.14003 0
M  V30 7376 H 681.426 0.255607 -2.98307 0
M  V30 7377 H 678.972 0.121502 -1.43486 0
M  V30 7378 H 680.925 2.67741 -3.25411 0
M  V30 7379 H 679.649 2.56943 -2.01614 0
M  V30 7380 H 678.308 1.04998 -3.51242 0
M  V30 7381 H 677.956 3.52488 -3.58834 0
M  V30 7382 H 677.656 2.77823 -5.17772 0
M  V30 7383 H 679.18 3.66348 -4.88489 0
M  V30 7384 H 680.594 1.48756 -5.53665 0
M  V30 7385 H 678.991 0.810513 -5.94601 0
M  V30 7386 H 680.061 -0.0801163 -4.84834 0
M  V30 7387 N 681.404 1.57128 0.121893 0
M  V30 7388 C 682.644 1.86517 0.836113 0
M  V30 7389 C 683.008 0.739497 1.77188 0
M  V30 7390 O 684.209 0.91508 2.52744 0
M  V30 7391 C 682.48 3.21129 1.56878 0
M  V30 7392 S 684.039 3.72143 2.32497 0
M  V30 7393 H 680.857 0.653923 0.279115 0
M  V30 7394 H 683.459 1.95271 0.0946254 0
M  V30 7395 H 682.163 4.01002 0.873255 0
M  V30 7396 H 681.694 3.15446 2.35069 0
M  V30 7397 H 683.709 3.43413 3.58164 0
M  V30 7398 N 682.882 -0.391992 1.52647 0
M  V30 7399 C 683.829 -1.47866 1.77213 0
M  V30 7400 C 684.799 -1.54286 0.615223 0
M  V30 7401 O 685.984 -1.7059 0.854622 0
M  V30 7402 C 683.124 -2.85129 1.94411 0
M  V30 7403 C 682.237 -2.87883 3.22098 0
M  V30 7404 C 681.372 -4.16553 3.29631 0
M  V30 7405 C 680.411 -4.13348 4.51453 0
M  V30 7406 N 679.548 -5.33619 4.56284 0
M  V30 7407 H 684.388 -1.26219 2.6995 0
M  V30 7408 H 681.925 -0.612367 1.33748 0
M  V30 7409 H 683.883 -3.64833 2.02367 0
M  V30 7410 H 682.513 -3.05232 1.05038 0
M  V30 7411 H 681.565 -2.00567 3.23229 0
M  V30 7412 H 682.877 -2.81382 4.11856 0
M  V30 7413 H 682.031 -5.0466 3.36753 0
M  V30 7414 H 680.77 -4.25773 2.37842 0
M  V30 7415 H 679.775 -3.23629 4.44459 0
M  V30 7416 H 681 -4.05754 5.44555 0
M  V30 7417 H 678.946 -5.43474 3.67385 0
M  V30 7418 H 678.863 -5.29182 5.3991 0
M  V30 7419 H 680.131 -6.23632 4.67657 0
M  V30 7420 N 684.36 -1.4356 -0.65026 0
M  V30 7421 C 685.323 -1.48615 -1.74489 0
M  V30 7422 C 686.323 -0.370483 -1.56474 0
M  V30 7423 O 687.513 -0.632351 -1.62317 0
M  V30 7424 C 684.645 -1.34161 -3.13391 0
M  V30 7425 H 685.838 -2.46103 -1.71387 0
M  V30 7426 H 683.391 -1.30369 -0.862186 0
M  V30 7427 H 684.126 -0.376918 -3.22102 0
M  V30 7428 H 683.911 -2.1504 -3.27872 0
M  V30 7429 H 685.401 -1.40637 -3.93206 0
M  V30 7430 N 685.838 0.888903 -1.30139 0
M  V30 7431 C 686.768 2.01046 -1.18755 0
M  V30 7432 C 687.749 1.69916 -0.0791438 0
M  V30 7433 O 688.934 1.92445 -0.260498 0
M  V30 7434 C 686.064 3.36109 -0.874518 0
M  V30 7435 C 685.018 3.81486 -1.94043 0
M  V30 7436 C 684.344 5.13796 -1.48047 0
M  V30 7437 C 685.644 4.00637 -3.35093 0
M  V30 7438 H 687.338 2.10828 -2.12584 0
M  V30 7439 H 684.884 1.01298 -1.02346 0
M  V30 7440 H 686.837 4.14089 -0.781548 0
M  V30 7441 H 685.561 3.26449 0.0994519 0
M  V30 7442 H 684.22 3.05731 -2.02297 0
M  V30 7443 H 683.868 5.0056 -0.494878 0
M  V30 7444 H 683.568 5.45127 -2.19341 0
M  V30 7445 H 685.092 5.94305 -1.40121 0
M  V30 7446 H 686.506 4.69067 -3.2962 0
M  V30 7447 H 684.903 4.43339 -4.04438 0
M  V30 7448 H 685.973 3.0462 -3.77273 0
M  V30 7449 N 687.317 1.12792 1.10072 0
M  V30 7450 C 688.563 0.886857 1.82381 0
M  V30 7451 C 688.896 -0.58576 1.85155 0
M  V30 7452 O 688.171 -1.43317 1.31493 0
M  V30 7453 C 688.454 1.46703 3.28862 0
M  V30 7454 C 688.307 3.00829 3.34398 0
M  V30 7455 C 689.626 1.12971 4.25353 0
M  V30 7456 H 686.745 0.32362 0.662148 0
M  V30 7457 H 689.387 1.39513 1.28982 0
M  V30 7458 H 687.537 1.03476 3.74466 0
M  V30 7459 H 689.209 3.52764 2.97247 0
M  V30 7460 H 687.452 3.36164 2.74183 0
M  V30 7461 H 688.123 3.36519 4.3756 0
M  V30 7462 H 690.599 1.50313 3.88001 0
M  V30 7463 H 689.475 1.56223 5.26199 0
M  V30 7464 H 689.736 0.0424452 4.4208 0
M  V30 7465 N 688.795 -1.27931 0.920396 0
M  V30 7466 C 689.745 -2.24727 0.384966 0
M  V30 7467 C 690.729 -1.52715 -0.506661 0
M  V30 7468 O 691.921 -1.73599 -0.345298 0
M  V30 7469 C 689.05 -3.41324 -0.3678 0
M  V30 7470 C 688.136 -4.20649 0.539925 0
M  V30 7471 N 688.527 -4.77906 1.6565 0
M  V30 7472 C 686.825 -4.4469 0.341557 0
M  V30 7473 C 687.526 -5.37652 2.22047 0
M  V30 7474 N 686.502 -5.2218 1.51093 0
M  V30 7475 H 690.304 -2.66572 1.23761 0
M  V30 7476 H 687.818 -1.42779 0.773819 0
M  V30 7477 H 689.815 -4.0976 -0.768277 0
M  V30 7478 H 688.475 -3.01012 -1.21746 0
M  V30 7479 H 689.486 -4.76073 2.03899 0
M  V30 7480 H 686.163 -4.14868 -0.468045 0
M  V30 7481 H 687.553 -5.92948 3.1601 0
M  V30 7482 N 690.273 -0.685099 -1.4193 0
M  V30 7483 C 691.206 0.0371639 -2.2817 0
M  V30 7484 C 692.184 0.798436 -1.41647 0
M  V30 7485 O 693.368 0.791428 -1.71081 0
M  V30 7486 C 690.495 1.05993 -3.21688 0
M  V30 7487 C 689.541 0.393043 -4.24685 0
M  V30 7488 S 690.374 -0.856921 -5.28599 0
M  V30 7489 C 691.53 0.164508 -6.25684 0
M  V30 7490 H 691.763 -0.694305 -2.89079 0
M  V30 7491 H 689.296 -0.474999 -1.46912 0
M  V30 7492 H 691.254 1.64489 -3.76103 0
M  V30 7493 H 689.915 1.7639 -2.59895 0
M  V30 7494 H 689.108 1.16513 -4.90348 0
M  V30 7495 H 688.71 -0.118589 -3.73812 0
M  V30 7496 H 691.002 1.02106 -6.69762 0
M  V30 7497 H 691.945 -0.457917 -7.06618 0
M  V30 7498 H 692.353 0.514596 -5.6215 0
M  V30 7499 N 691.751 1.51645 -0.429126 0
M  V30 7500 C 692.701 2.24388 0.404217 0
M  V30 7501 C 693.685 1.26294 0.996933 0
M  V30 7502 O 694.877 1.51428 0.916434 0
M  V30 7503 C 692.006 3.08338 1.50938 0
M  V30 7504 C 691.092 4.13857 0.926464 0
M  V30 7505 N 691.483 5.05749 0.0719732 0
M  V30 7506 C 689.781 4.29695 1.19491 0
M  V30 7507 C 690.482 5.81143 -0.254528 0
M  V30 7508 N 689.458 5.42408 0.359763 0
M  V30 7509 H 693.26 2.92794 -0.254697 0
M  V30 7510 H 690.774 1.60606 -0.240712 0
M  V30 7511 H 692.771 3.59022 2.11918 0
M  V30 7512 H 691.431 2.41475 2.17072 0
M  V30 7513 H 692.442 5.17066 -0.293854 0
M  V30 7514 H 689.119 3.74059 1.85434 0
M  V30 7515 H 690.509 6.65159 -0.949365 0
M  V30 7516 N 693.229 0.160201 1.56784 0
M  V30 7517 C 694.506 -0.533355 1.88188 0
M  V30 7518 C 694.886 -1.82072 1.06831 0
M  V30 7519 O 694.234 -2.27946 0.158959 0
M  V30 7520 C 694.444 -0.786034 3.40033 0
M  V30 7521 C 695.792 -1.12097 4.09536 0
M  V30 7522 O 696.816 -0.874949 3.45287 0
M  V30 7523 O 695.675 -1.58457 5.23023 0
M  V30 7524 H 692.769 -0.273589 0.780434 0
M  V30 7525 H 695.315 0.197803 1.68543 0
M  V30 7526 H 694.087 0.124515 3.91102 0
M  V30 7527 H 693.71 -1.57091 3.65251 0
M  V30 7528 N 694.707 -1.5719 -0.113559 0
M  V30 7529 C 695.654 -2.00736 -1.13901 0
M  V30 7530 C 696.624 -0.88044 -1.40846 0
M  V30 7531 O 697.809 -1.14507 -1.5262 0
M  V30 7532 C 694.949 -2.42132 -2.45899 0
M  V30 7533 C 694.062 -3.68264 -2.25844 0
M  V30 7534 C 693.197 -3.98617 -3.5111 0
M  V30 7535 C 692.236 -5.17915 -3.26236 0
M  V30 7536 N 691.373 -5.44111 -4.4372 0
M  V30 7537 H 696.213 -2.88128 -0.760677 0
M  V30 7538 H 693.75 -1.42523 -0.364099 0
M  V30 7539 H 695.708 -2.6417 -3.22908 0
M  V30 7540 H 694.338 -1.57775 -2.81615 0
M  V30 7541 H 693.39 -3.53809 -1.39726 0
M  V30 7542 H 694.702 -4.55425 -2.03444 0
M  V30 7543 H 693.856 -4.21333 -4.36536 0
M  V30 7544 H 692.595 -3.09942 -3.76546 0
M  V30 7545 H 691.6 -4.95038 -2.39202 0
M  V30 7546 H 692.825 -6.08172 -3.02165 0
M  V30 7547 H 690.771 -4.58394 -4.69266 0
M  V30 7548 H 690.688 -6.25606 -4.24444 0
M  V30 7549 H 691.956 -5.71351 -5.30263 0
M  V30 7550 N 696.185 0.383891 -1.52853 0
M  V30 7551 C 697.41 1.154 -1.7233 0
M  V30 7552 C 697.835 1.82809 -0.44298 0
M  V30 7553 O 697.193 1.71026 0.601645 0
M  V30 7554 C 697.241 2.17386 -2.87708 0
M  V30 7555 O 696.345 3.24082 -2.55038 0
M  V30 7556 H 695.686 0.335709 -0.572883 0
M  V30 7557 H 698.216 0.44662 -1.99666 0
M  V30 7558 H 698.226 2.61296 -3.1335 0
M  V30 7559 H 696.901 1.6771 -3.80587 0
M  V30 7560 H 695.478 2.85273 -2.40153 0
M  V30 7561 N 697.663 1.43903 0.642637 0
M  V30 7562 C 698.912 1.45362 1.39831 0
M  V30 7563 C 699.225 0.0856289 1.95412 0
M  V30 7564 O 700.431 -0.0222856 2.71491 0
M  V30 7565 C 698.887 2.55857 2.53111 0
M  V30 7566 C 698.495 3.98811 2.04092 0
M  V30 7567 C 700.239 2.66524 3.30402 0
M  V30 7568 C 698.146 5.00751 3.14647 0
M  V30 7569 H 697.076 0.540777 0.52543 0
M  V30 7570 H 699.727 1.69929 0.692559 0
M  V30 7571 H 698.109 2.2451 3.26207 0
M  V30 7572 H 699.283 4.3967 1.37938 0
M  V30 7573 H 697.598 3.92284 1.39651 0
M  V30 7574 H 700.195 3.39858 4.12796 0
M  V30 7575 H 700.538 1.71949 3.79129 0
M  V30 7576 H 701.071 2.97224 2.64392 0
M  V30 7577 H 697.81 5.96914 2.70876 0
M  V30 7578 H 697.33 4.64495 3.79479 0
M  V30 7579 H 699.009 5.23933 3.79609 0
M  V30 7580 N 699.141 -0.881989 1.30609 0
M  V30 7581 C 700.387 -1.63647 1.19781 0
M  V30 7582 C 700.72 -1.92632 -0.246265 0
M  V30 7583 O 699.995 -1.54938 -1.17577 0
M  V30 7584 C 700.278 -2.97437 2.02985 0
M  V30 7585 C 700.131 -2.75406 3.55628 0
M  V30 7586 C 701.45 -3.98397 1.86997 0
M  V30 7587 H 698.569 -0.593841 0.436488 0
M  V30 7588 H 701.211 -1.02041 1.60273 0
M  V30 7589 H 699.361 -3.50018 1.68581 0
M  V30 7590 H 701.033 -2.2959 4.00107 0
M  V30 7591 H 699.276 -2.09856 3.79662 0
M  V30 7592 H 699.947 -3.70552 4.09139 0
M  V30 7593 H 702.423 -3.54986 2.17081 0
M  V30 7594 H 701.299 -4.89916 2.47536 0
M  V30 7595 H 701.56 -4.3424 0.829943 0
M  V30 7596 N 700.619 -1.13374 -1.09472 0
M  V30 7597 C 701.569 -0.77946 -2.14263 0
M  V30 7598 C 702.553 0.226271 -1.59301 0
M  V30 7599 O 703.745 0.0302581 -1.76974 0
M  V30 7600 C 700.874 -0.246635 -3.42413 0
M  V30 7601 C 699.96 -1.28124 -4.04283 0
M  V30 7602 N 700.351 -2.48201 -4.40715 0
M  V30 7603 C 698.649 -1.12892 -4.31476 0
M  V30 7604 C 699.35 -3.14347 -4.8945 0
M  V30 7605 N 698.326 -2.41771 -4.86876 0
M  V30 7606 H 702.128 -1.69305 -2.40235 0
M  V30 7607 H 699.642 -1.01598 -1.26695 0
M  V30 7608 H 701.639 0.0254131 -4.16892 0
M  V30 7609 H 700.299 0.661287 -3.17895 0
M  V30 7610 H 701.31 -2.85511 -4.32093 0
M  V30 7611 H 697.987 -0.279117 -4.16566 0
M  V30 7612 H 699.377 -4.16663 -5.27107 0
M  V30 7613 N 702.098 1.27442 -0.927168 0
M  V30 7614 C 703.514 1.46754 -0.627329 0
M  V30 7615 C 703.714 1.83902 0.823549 0
M  V30 7616 O 702.77 1.95215 1.60148 0
M  V30 7617 C 704.083 2.56045 -1.57674 0
M  V30 7618 C 705.631 2.69906 -1.58491 0
M  V30 7619 C 706.106 3.82355 -2.52128 0
M  V30 7620 N 707.597 3.89728 -2.50332 0
M  V30 7621 C 708.332 4.76155 -3.19475 0
M  V30 7622 N 707.828 5.67073 -3.97995 0
M  V30 7623 N 709.621 4.6988 -3.08496 0
M  V30 7624 H 701.772 1.01613 -1.86517 0
M  V30 7625 H 704.035 0.507443 -0.800753 0
M  V30 7626 H 703.741 2.35542 -2.61176 0
M  V30 7627 H 703.615 3.53423 -1.31804 0
M  V30 7628 H 706.002 2.89792 -0.557208 0
M  V30 7629 H 706.083 1.73018 -1.8841 0
M  V30 7630 H 705.727 3.63224 -3.55008 0
M  V30 7631 H 705.657 4.7867 -2.19505 0
M  V30 7632 H 708.148 3.24717 -1.93306 0
M  V30 7633 H 708.461 6.2988 -4.4774 0
M  V30 7634 H 706.806 5.6687 -4.02098 0
M  V30 7635 H 709.997 3.97848 -2.46646 0
M  V30 7636 H 710.17 5.37017 -3.62652 0
M  V30 7637 N 703.576 0.692616 1.41565 0
M  V30 7638 C 704.853 0.150496 1.9502 0
M  V30 7639 C 705.233 -1.33881 1.63215 0
M  V30 7640 O 704.581 -2.08378 0.937598 0
M  V30 7641 C 704.791 0.438636 3.46233 0
M  V30 7642 C 706.139 0.364777 4.2303 0
M  V30 7643 O 707.163 0.373383 3.54238 0
M  V30 7644 O 706.022 0.32234 5.45549 0
M  V30 7645 H 703.116 0.0132454 0.826894 0
M  V30 7646 H 705.662 0.768574 1.51298 0
M  V30 7647 H 704.434 1.46962 3.62654 0
M  V30 7648 H 704.057 -0.210562 3.97042 0
M  V30 7649 N 705.054 -1.51416 0.437162 0
M  V30 7650 C 705.984 -2.30631 -0.364922 0
M  V30 7651 C 706.965 -1.36037 -1.02118 0
M  V30 7652 O 708.15 -1.64956 -1.02485 0
M  V30 7653 C 705.28 -3.1482 -1.46648 0
M  V30 7654 C 704.234 -4.17691 -0.933717 0
M  V30 7655 C 703.56 -4.904 -2.13101 0
M  V30 7656 C 704.86 -5.2229 0.0317201 0
M  V30 7657 H 706.554 -2.97932 0.29614 0
M  V30 7658 H 704.1 -1.4328 0.143865 0
M  V30 7659 H 706.053 -3.69017 -2.03481 0
M  V30 7660 H 704.777 -2.4534 -2.15583 0
M  V30 7661 H 703.436 -3.64545 -0.387602 0
M  V30 7662 H 703.084 -4.17423 -2.80654 0
M  V30 7663 H 702.784 -5.59962 -1.78092 0
M  V30 7664 H 704.308 -5.4742 -2.70487 0
M  V30 7665 H 705.722 -5.7156 -0.446302 0
M  V30 7666 H 704.119 -5.99378 0.29437 0
M  V30 7667 H 705.189 -4.75131 0.968447 0
M  V30 7668 N 706.532 -0.168513 -1.56696 0
M  V30 7669 C 707.479 0.762875 -2.17828 0
M  V30 7670 C 708.449 1.22892 -1.11745 0
M  V30 7671 O 709.634 1.29759 -1.39883 0
M  V30 7672 C 706.774 1.9879 -2.82093 0
M  V30 7673 C 705.887 1.56568 -4.02629 0
M  V30 7674 C 705.022 2.74416 -4.54829 0
M  V30 7675 C 704.061 2.28671 -5.67782 0
M  V30 7676 N 703.198 3.39602 -6.14504 0
M  V30 7677 H 708.038 0.23479 -2.97074 0
M  V30 7678 H 705.575 0.104163 -1.46731 0
M  V30 7679 H 707.533 2.70636 -3.17509 0
M  V30 7680 H 706.163 2.48973 -2.05456 0
M  V30 7681 H 705.215 0.744067 -3.73052 0
M  V30 7682 H 706.527 1.18988 -4.844 0
M  V30 7683 H 705.681 3.54423 -4.92412 0
M  V30 7684 H 704.42 3.15254 -3.7211 0
M  V30 7685 H 703.425 1.4711 -5.29753 0
M  V30 7686 H 704.65 1.88894 -6.52301 0
M  V30 7687 H 702.596 3.80021 -5.34715 0
M  V30 7688 H 702.513 3.06105 -6.91257 0
M  V30 7689 H 703.781 4.19902 -6.56737 0
M  V30 7690 N 708.01 1.57248 0.105221 0
M  V30 7691 C 709.421 1.74612 0.660865 0
M  V30 7692 C 709.772 0.789231 1.79626 0
M  V30 7693 O 708.897 -0.0346611 2.16372 0
M  V30 7694 C 709.492 3.16624 1.20559 0
M  V30 7695 C 708.051 3.35447 1.7074 0
M  V30 7696 C 707.198 2.70445 0.612764 0
M  V30 7697 H 710.149 1.5824 -0.12079 0
M  V30 7698 H 710.17 3.18937 2.07508 0
M  V30 7699 H 709.682 3.86245 0.379012 0
M  V30 7700 H 707.783 2.7089 2.5583 0
M  V30 7701 H 707.896 4.43702 1.80736 0
M  V30 7702 H 706.26 2.32061 1.04975 0
M  V30 7703 H 707.043 3.42699 -0.203066 0
M  V30 7704 N 709.488 -0.375779 1.53054 0
M  V30 7705 C 710.398 -1.48381 1.81715 0
M  V30 7706 C 711.414 -1.59087 0.704795 0
M  V30 7707 O 712.59 -1.75174 0.993785 0
M  V30 7708 C 709.655 -2.83767 1.99192 0
M  V30 7709 C 708.716 -2.82673 3.23102 0
M  V30 7710 C 707.949 -4.11601 3.39736 0
M  V30 7711 O 708.172 -5.07243 2.60885 0
M  V30 7712 O 707.106 -4.18034 4.33049 0
M  V30 7713 H 710.932 -1.27089 2.7583 0
M  V30 7714 H 708.517 -0.564902 1.38308 0
M  V30 7715 H 710.399 -3.64004 2.12318 0
M  V30 7716 H 709.074 -3.05057 1.08267 0
M  V30 7717 H 707.981 -2.0117 3.15407 0
M  V30 7718 H 709.314 -2.66335 4.13916 0
M  V30 7719 N 710.966 -1.44241 -0.634997 0
M  V30 7720 C 711.914 -1.51103 -1.76835 0
M  V30 7721 C 712.908 -0.383051 -1.65012 0
M  V30 7722 O 714.114 -0.557832 -1.71138 0
M  V30 7723 H 710.489 -0.474076 -0.583743 0
M  V30 7724 H 712.46 -2.46499 -1.68169 0
M  V30 7725 C 711.209 -1.4687 -3.15158 0
M  V30 7726 H 710.532 -2.32979 -3.24901 0
M  V30 7727 H 711.972 -1.55731 -3.94365 0
M  V30 7728 C 710.431 -0.188884 -3.3637 0
M  V30 7729 O 710.961 0.742487 -3.94778 0
M  V30 7730 N 709.167 -0.0932516 -2.9045 0
M  V30 7731 H 708.714 -0.852004 -2.43102 0
M  V30 7732 H 708.672 0.762308 -3.05018 0
M  V30 7733 N 712.444 0.87505 -1.31075 0
M  V30 7734 C 713.374 1.99775 -1.20881 0
M  V30 7735 C 714.355 1.69822 -0.0971612 0
M  V30 7736 O 715.54 1.92158 -0.280895 0
M  V30 7737 C 712.67 3.35163 -0.910118 0
M  V30 7738 C 711.624 3.79406 -1.98078 0
M  V30 7739 C 710.95 5.12197 -1.53488 0
M  V30 7740 C 712.25 3.97061 -3.39323 0
M  V30 7741 H 713.944 2.08562 -2.14808 0
M  V30 7742 H 711.49 1.00207 -1.03415 0
M  V30 7743 H 713.443 4.13237 -0.825423 0
M  V30 7744 H 712.167 3.26536 0.064822 0
M  V30 7745 H 710.826 3.03568 -2.05528 0
M  V30 7746 H 710.474 5.00007 -0.547941 0
M  V30 7747 H 710.174 5.4277 -2.2511 0
M  V30 7748 H 711.698 5.92785 -1.46417 0
M  V30 7749 H 713.112 4.65545 -3.34576 0
M  V30 7750 H 711.509 4.39025 -4.09118 0
M  V30 7751 H 712.579 3.00601 -3.80483 0
M  V30 7752 N 713.922 1.13953 1.08869 0
M  V30 7753 C 714.852 0.844824 2.17681 0
M  V30 7754 C 715.833 -0.198213 1.68941 0
M  V30 7755 O 717.018 -0.0559073 1.9412 0
M  V30 7756 C 714.148 0.316325 3.45856 0
M  V30 7757 C 713.102 1.29426 4.07962 0
M  V30 7758 C 712.428 0.625275 5.31031 0
M  V30 7759 C 713.728 2.65484 4.49795 0
M  V30 7760 H 715.422 1.75471 2.42591 0
M  V30 7761 H 712.968 0.845116 1.16592 0
M  V30 7762 H 714.921 0.0977876 4.21287 0
M  V30 7763 H 713.645 -0.628972 3.20486 0
M  V30 7764 H 712.304 1.49889 3.34558 0
M  V30 7765 H 711.952 -0.325678 5.01945 0
M  V30 7766 H 711.652 1.27777 5.73539 0
M  V30 7767 H 713.176 0.416152 6.0918 0
M  V30 7768 H 714.59 2.48957 5.16424 0
M  V30 7769 H 712.987 3.26963 5.03205 0
M  V30 7770 H 714.057 3.22717 3.61914 0
M  V30 7771 N 715.4 -1.26948 0.933913 0
M  V30 7772 C 716.646 -1.94374 0.57848 0
M  V30 7773 C 716.979 -1.73166 -0.879048 0
M  V30 7774 O 716.254 -1.06438 -1.62792 0
M  V30 7775 C 716.537 -3.4834 0.912739 0
M  V30 7776 C 716.39 -3.78866 2.42448 0
M  V30 7777 C 717.709 -4.38062 0.423003 0
M  V30 7778 H 714.828 -0.705959 0.211639 0
M  V30 7779 H 717.47 -1.49951 1.16682 0
M  V30 7780 H 715.62 -3.86309 0.412058 0
M  V30 7781 H 717.292 -3.50654 2.99733 0
M  V30 7782 H 715.535 -3.25198 2.87104 0
M  V30 7783 H 716.206 -4.86458 2.60887 0
M  V30 7784 H 718.682 -4.0728 0.852191 0
M  V30 7785 H 717.558 -5.44599 0.685776 0
M  V30 7786 H 717.819 -4.36886 -0.676994 0
M  V30 7787 N 716.879 -0.700114 -1.41195 0
M  V30 7788 C 717.811 0.00155823 -2.292 0
M  V30 7789 C 718.824 0.739736 -1.45023 0
M  V30 7790 O 720.013 0.589684 -1.68478 0
M  V30 7791 C 717.113 1.02635 -3.22985 0
M  V30 7792 C 716.286 0.356871 -4.35942 0
M  V30 7793 C 715.345 1.28491 -5.10271 0
M  V30 7794 O 714.371 0.775562 -5.63892 0
M  V30 7795 N 715.573 2.61699 -5.18164 0
M  V30 7796 H 718.338 -0.754008 -2.9006 0
M  V30 7797 H 715.899 -0.546504 -1.52397 0
M  V30 7798 H 717.891 1.64902 -3.6958 0
M  V30 7799 H 716.461 1.68341 -2.63401 0
M  V30 7800 H 715.681 -0.445753 -3.91672 0
M  V30 7801 H 716.969 -0.108469 -5.08684 0
M  V30 7802 H 716.367 3.05594 -4.76056 0
M  V30 7803 H 714.924 3.19149 -5.6832 0
M  V30 7804 N 718.357 1.51182 -0.445186 0
M  V30 7805 C 719.773 1.59299 -0.0978954 0
M  V30 7806 C 719.973 1.4555 1.39346 0
M  V30 7807 O 719.029 1.30073 2.16419 0
M  V30 7808 C 720.342 2.94133 -0.625005 0
M  V30 7809 C 721.89 3.07463 -0.586137 0
M  V30 7810 C 722.365 4.44832 -1.09035 0
M  V30 7811 N 723.856 4.51173 -1.04867 0
M  V30 7812 C 724.591 5.55804 -1.40959 0
M  V30 7813 N 724.087 6.67816 -1.84375 0
M  V30 7814 N 725.88 5.46205 -1.32726 0
M  V30 7815 H 718.031 1.58363 -1.41544 0
M  V30 7816 H 720.294 0.746946 -0.58376 0
M  V30 7817 H 720 3.09589 -1.66876 0
M  V30 7818 H 719.874 3.77161 -0.0542262 0
M  V30 7819 H 722.261 2.9167 0.448646 0
M  V30 7820 H 722.342 2.26255 -1.19341 0
M  V30 7821 H 721.986 4.61372 -2.12364 0
M  V30 7822 H 721.916 5.24591 -0.459539 0
M  V30 7823 H 724.407 3.70783 -0.729932 0
M  V30 7824 H 724.72 7.43683 -2.10131 0
M  V30 7825 H 723.065 6.69003 -1.88308 0
M  V30 7826 H 726.256 4.57583 -0.986678 0
M  V30 7827 H 726.429 6.27634 -1.61182 0
M  V30 7828 N 719.835 0.176821 1.56605 0
M  V30 7829 C 720.783 -0.768159 2.1955 0
M  V30 7830 C 721.777 -1.23343 1.16116 0
M  V30 7831 O 722.983 -1.19844 1.34303 0
M  V30 7832 H 719.358 -0.266013 0.703378 0
M  V30 7833 H 721.329 -0.213374 2.97636 0
M  V30 7834 C 720.078 -1.98492 2.85475 0
M  V30 7835 H 719.401 -1.63595 3.64797 0
M  V30 7836 H 720.841 -2.62489 3.3298 0
M  V30 7837 C 719.3 -2.81207 1.85538 0
M  V30 7838 O 719.83 -3.7854 1.34427 0
M  V30 7839 N 718.036 -2.46331 1.54173 0
M  V30 7840 H 717.583 -1.67241 1.95929 0
M  V30 7841 H 717.541 -3.01961 0.875595 0
M  V30 7842 N 721.313 -1.57302 -0.09688 0
M  V30 7843 C 722.223 -2.05258 -1.13606 0
M  V30 7844 C 723.239 -0.977137 -1.43972 0
M  V30 7845 O 724.415 -1.29018 -1.54649 0
M  V30 7846 C 721.48 -2.46593 -2.43706 0
M  V30 7847 C 720.541 -3.68322 -2.20538 0
M  V30 7848 C 719.774 -4.07676 -3.44435 0
M  V30 7849 O 719.997 -3.47141 -4.52603 0
M  V30 7850 O 718.931 -5.00641 -3.34129 0
M  V30 7851 H 722.757 -2.94069 -0.758752 0
M  V30 7852 H 720.342 -1.46164 -0.309263 0
M  V30 7853 H 722.224 -2.73814 -3.20318 0
M  V30 7854 H 720.899 -1.6092 -2.80867 0
M  V30 7855 H 719.806 -3.4622 -1.41713 0
M  V30 7856 H 721.139 -4.54769 -1.88271 0
M  V30 7857 N 722.791 0.367657 -1.53252 0
M  V30 7858 C 724.068 1.12606 -1.59935 0
M  V30 7859 C 724.448 2.07167 -0.405606 0
M  V30 7860 O 723.796 2.20364 0.604323 0
M  V30 7861 C 724.006 1.86699 -2.94863 0
M  V30 7862 C 725.354 2.41306 -3.49366 0
M  V30 7863 O 726.378 1.96828 -2.96879 0
M  V30 7864 O 725.237 3.2261 -4.41118 0
M  V30 7865 H 722.331 0.516438 -0.645926 0
M  V30 7866 H 724.877 0.371088 -1.65593 0
M  V30 7867 H 723.649 1.17674 -3.73187 0
M  V30 7868 H 723.272 2.6911 -2.92687 0
M  V30 7869 N 724.269 1.44576 0.627338 0
M  V30 7870 C 725.216 1.51734 1.73912 0
M  V30 7871 C 726.186 0.364745 1.62046 0
M  V30 7872 O 727.371 0.575503 1.81914 0
M  V30 7873 C 724.511 1.47116 3.12171 0
M  V30 7874 C 723.624 2.72778 3.34986 0
M  V30 7875 C 722.759 2.59968 4.63239 0
M  V30 7876 C 721.798 3.80776 4.79245 0
M  V30 7877 N 720.935 3.66618 5.98778 0
M  V30 7878 H 725.775 2.46722 1.6713 0
M  V30 7879 H 723.312 1.22444 0.815224 0
M  V30 7880 H 725.27 1.42429 3.92135 0
M  V30 7881 H 723.9 0.556928 3.17959 0
M  V30 7882 H 722.952 2.87637 2.48936 0
M  V30 7883 H 724.264 3.62441 3.42692 0
M  V30 7884 H 723.418 2.53135 5.51369 0
M  V30 7885 H 722.157 1.67872 4.57898 0
M  V30 7886 H 721.162 3.87989 3.89544 0
M  V30 7887 H 722.387 4.73913 4.86398 0
M  V30 7888 H 720.333 2.77277 5.9452 0
M  V30 7889 H 720.25 4.499 6.07557 0
M  V30 7890 H 721.518 3.63684 6.89459 0
M  V30 7891 N 725.747 -0.868086 1.31537 0
M  V30 7892 C 726.972 -1.65926 1.24432 0
M  V30 7893 C 727.397 -1.87169 -0.186936 0
M  V30 7894 O 726.755 -1.4148 -1.13371 0
M  V30 7895 C 726.803 -3.00347 1.9956 0
M  V30 7896 O 725.907 -3.90221 1.33422 0
M  V30 7897 H 725.248 -0.506375 0.429512 0
M  V30 7898 H 727.778 -1.0822 1.73637 0
M  V30 7899 H 727.788 -3.50269 2.09226 0
M  V30 7900 H 726.463 -2.84205 3.03645 0
M  V30 7901 H 725.04 -3.48672 1.32219 0
M  V30 7902 N 727.225 -1.14528 -1.08264 0
M  V30 7903 C 728.453 -0.937964 -1.84418 0
M  V30 7904 C 728.868 0.51357 -1.81681 0
M  V30 7905 O 728.225 1.35591 -1.22153 0
M  V30 7906 C 728.276 -1.43272 -3.31897 0
M  V30 7907 O 727.997 -2.82738 -3.34651 0
M  V30 7908 C 729.498 -1.26555 -4.24851 0
M  V30 7909 H 726.718 -0.333704 -0.582136 0
M  V30 7910 H 729.262 -1.52076 -1.36723 0
M  V30 7911 H 727.417 -0.892653 -3.76975 0
M  V30 7912 H 727.831 -3.04971 -4.26724 0
M  V30 7913 H 729.305 -1.66031 -5.26439 0
M  V30 7914 H 729.782 -0.208589 -4.38704 0
M  V30 7915 H 730.388 -1.79423 -3.856 0
M  V30 7916 N 728.703 1.26451 -0.940633 0
M  V30 7917 C 729.931 1.97868 -0.604642 0
M  V30 7918 C 730.346 1.70051 0.820251 0
M  V30 7919 O 729.703 0.96843 1.54686 0
M  V30 7920 C 729.754 3.51684 -0.836689 0
M  V30 7921 O 729.475 3.78533 -2.20554 0
M  V30 7922 C 730.976 4.40343 -0.511169 0
M  V30 7923 H 728.196 0.631105 -0.227919 0
M  V30 7924 H 730.74 1.60979 -1.26119 0
M  V30 7925 H 728.895 3.86736 -0.226759 0
M  V30 7926 H 729.309 4.73065 -2.26517 0
M  V30 7927 H 730.783 5.47229 -0.724157 0
M  V30 7928 H 731.26 4.35694 0.553815 0
M  V30 7929 H 731.866 4.10834 -1.0998 0
M  V30 7930 N 730.181 0.707592 1.40822 0
M  V30 7931 C 731.111 0.0644925 2.33411 0
M  V30 7932 C 732.092 -0.754205 1.52466 0
M  V30 7933 O 733.277 -0.704749 1.80961 0
M  V30 7934 C 730.407 -0.863865 3.36385 0
M  V30 7935 C 729.361 -0.15138 4.27732 0
M  V30 7936 C 728.687 -1.19491 5.21177 0
M  V30 7937 C 729.987 0.989607 5.12839 0
M  V30 7938 H 731.681 0.837829 2.87438 0
M  V30 7939 H 729.227 0.404346 1.38207 0
M  V30 7940 H 731.18 -1.32309 4.0009 0
M  V30 7941 H 729.904 -1.66901 2.80734 0
M  V30 7942 H 728.563 0.287937 3.65467 0
M  V30 7943 H 728.211 -1.9929 4.61836 0
M  V30 7944 H 727.911 -0.723123 5.83134 0
M  V30 7945 H 729.435 -1.6544 5.8776 0
M  V30 7946 H 730.849 0.610114 5.70044 0
M  V30 7947 H 729.246 1.38926 5.83798 0
M  V30 7948 H 730.316 1.82389 4.49291 0
M  V30 7949 N 731.66 -1.50943 0.453197 0
M  V30 7950 C 732.607 -2.28128 -0.350197 0
M  V30 7951 C 733.577 -1.32398 -1.00299 0
M  V30 7952 O 734.762 -1.61319 -1.01887 0
M  V30 7953 C 731.902 -3.13782 -1.43649 0
M  V30 7954 C 731.015 -4.24523 -0.800255 0
M  V30 7955 C 730.15 -4.97462 -1.86293 0
M  V30 7956 C 729.189 -6.00102 -1.20598 0
M  V30 7957 N 728.326 -6.66387 -2.21071 0
M  V30 7958 H 733.166 -2.96337 0.31434 0
M  V30 7959 H 730.703 -1.46151 0.166863 0
M  V30 7960 H 732.661 -3.6178 -2.07776 0
M  V30 7961 H 731.291 -2.47655 -2.07044 0
M  V30 7962 H 730.343 -3.80371 -0.0468651 0
M  V30 7963 H 731.655 -4.98009 -0.280777 0
M  V30 7964 H 730.809 -5.49088 -2.58044 0
M  V30 7965 H 729.548 -4.23642 -2.41617 0
M  V30 7966 H 728.553 -5.47753 -0.474 0
M  V30 7967 H 729.778 -6.75887 -0.659859 0
M  V30 7968 H 727.724 -5.9537 -2.75446 0
M  V30 7969 H 727.641 -7.3569 -1.74058 0
M  V30 7970 H 728.909 -7.22638 -2.92257 0
M  V30 7971 N 733.138 -0.185124 -1.56509 0
M  V30 7972 C 734.068 0.735098 -2.21627 0
M  V30 7973 C 735.049 1.2288 -1.1762 0
M  V30 7974 O 736.234 1.27945 -1.46095 0
M  V30 7975 C 733.364 1.95889 -2.86783 0
M  V30 7976 C 732.318 1.6005 -3.96948 0
M  V30 7977 C 731.644 2.90009 -4.4922 0
M  V30 7978 C 732.944 0.818008 -5.15855 0
M  V30 7979 H 734.638 0.192274 -2.98782 0
M  V30 7980 H 732.184 0.0910393 -1.43712 0
M  V30 7981 H 734.137 2.60779 -3.31017 0
M  V30 7982 H 732.861 2.52608 -2.07018 0
M  V30 7983 H 731.52 0.975237 -3.5339 0
M  V30 7984 H 731.168 3.44797 -3.6623 0
M  V30 7985 H 730.868 2.66778 -5.23549 0
M  V30 7986 H 732.392 3.55904 -4.9615 0
M  V30 7987 H 733.806 1.36979 -5.56695 0
M  V30 7988 H 732.203 0.684207 -5.96187 0
M  V30 7989 H 733.273 -0.182939 -4.84555 0
M  V30 7990 N 734.616 1.57351 0.0885366 0
M  V30 7991 C 735.579 2.01557 1.09121 0
M  V30 7992 C 736.579 0.910052 1.3257 0
M  V30 7993 O 737.769 1.17537 1.28572 0
M  V30 7994 C 734.901 2.38189 2.43883 0
M  V30 7995 H 736.094 2.91361 0.710562 0
M  V30 7996 H 733.647 1.52694 0.333779 0
M  V30 7997 H 734.382 1.5136 2.86811 0
M  V30 7998 H 734.167 3.18846 2.28209 0
M  V30 7999 H 735.657 2.73025 3.15986 0
M  V30 8000 N 736.094 -0.359525 1.53444 0
M  V30 8001 C 737.371 -1.11756 1.6053 0
M  V30 8002 C 737.751 -2.06949 0.416587 0
M  V30 8003 O 737.099 -2.20681 -0.592628 0
M  V30 8004 C 737.309 -1.85133 2.95849 0
M  V30 8005 C 738.657 -2.3945 3.50641 0
M  V30 8006 O 739.681 -1.95251 2.97918 0
M  V30 8007 O 738.54 -3.20266 4.42823 0
M  V30 8008 H 735.634 -0.513005 0.648656 0
M  V30 8009 H 738.18 -0.362301 1.65787 0
M  V30 8010 H 736.952 -1.15694 3.73806 0
M  V30 8011 H 736.575 -2.67554 2.9411 0
M  V30 8012 N 737.572 -1.44907 -0.619662 0
M  V30 8013 C 738.819 -1.48292 -1.37898 0
M  V30 8014 C 739.147 -0.119933 -1.9413 0
M  V30 8015 O 738.402 0.879834 -1.74807 0
M  V30 8016 C 738.701 -2.50002 -2.55409 0
M  V30 8017 C 738.367 -3.95031 -2.17397 0
M  V30 8018 C 737.029 -4.34524 -2.06743 0
M  V30 8019 C 739.381 -4.86287 -1.87548 0
M  V30 8020 C 736.709 -5.63183 -1.64445 0
M  V30 8021 C 739.061 -6.15346 -1.4674 0
M  V30 8022 C 737.725 -6.53781 -1.34636 0
M  V30 8023 H 736.995 -0.542638 -0.504603 0
M  V30 8024 H 739.642 -1.78186 -0.701581 0
M  V30 8025 H 737.947 -2.13634 -3.28433 0
M  V30 8026 H 739.644 -2.49864 -3.13639 0
M  V30 8027 H 736.234 -3.63793 -2.26611 0
M  V30 8028 H 740.418 -4.56522 -1.94682 0
M  V30 8029 H 735.674 -5.91769 -1.53687 0
M  V30 8030 H 739.848 -6.85508 -1.22685 0
M  V30 8031 H 737.475 -7.53375 -1.01634 0
M  V30 8032 N 739.05 0.861098 -1.31996 0
M  V30 8033 C 740.298 1.61162 -1.21947 0
M  V30 8034 C 740.619 1.93751 0.220351 0
M  V30 8035 O 739.889 1.59069 1.14341 0
M  V30 8036 H 738.469 0.597485 -0.448353 0
M  V30 8037 H 741.131 1.03039 -1.65436 0
M  V30 8038 H 740.227 2.55138 -1.79752 0
M  V30 8039 N 740.528 1.15101 1.07655 0
M  V30 8040 C 741.458 0.867864 2.16773 0
M  V30 8041 C 742.439 -0.180283 1.69142 0
M  V30 8042 O 743.624 -0.0353152 1.94168 0
M  V30 8043 C 740.754 0.35299 3.45501 0
M  V30 8044 C 739.708 1.33746 4.06566 0
M  V30 8045 C 739.034 0.681562 5.30338 0
M  V30 8046 C 740.334 2.7024 4.46954 0
M  V30 8047 H 742.028 1.78034 2.40716 0
M  V30 8048 H 739.574 0.857435 1.15689 0
M  V30 8049 H 741.527 0.142465 4.21159 0
M  V30 8050 H 740.251 -0.594945 3.21135 0
M  V30 8051 H 738.91 1.53429 3.32949 0
M  V30 8052 H 738.558 -0.272422 5.02262 0
M  V30 8053 H 738.258 1.33853 5.72151 0
M  V30 8054 H 739.782 0.48074 6.08705 0
M  V30 8055 H 741.196 2.5442 5.13754 0
M  V30 8056 H 739.593 3.32282 4.99709 0
M  V30 8057 H 740.663 3.26537 3.58471 0
M  V30 8058 N 742.006 -1.2595 0.947325 0
M  V30 8059 C 742.969 -2.24407 0.466285 0
M  V30 8060 C 743.969 -1.55054 -0.426005 0
M  V30 8061 O 745.159 -1.7275 -0.224319 0
M  V30 8062 C 742.291 -3.39326 -0.327201 0
M  V30 8063 H 743.484 -2.68477 1.33642 0
M  V30 8064 H 741.037 -1.38211 0.729887 0
M  V30 8065 H 741.772 -3.00667 -1.21532 0
M  V30 8066 H 741.557 -3.9085 0.312839 0
M  V30 8067 H 743.047 -4.12455 -0.653477 0
M  V30 8068 N 743.484 -0.715051 -1.40445 0
M  V30 8069 C 744.431 -0.0621393 -2.30716 0
M  V30 8070 C 745.401 0.750871 -1.48159 0
M  V30 8071 O 746.586 0.714928 -1.76899 0
M  V30 8072 C 743.726 0.854036 -3.34365 0
M  V30 8073 C 742.839 0.0305565 -4.31989 0
M  V30 8074 C 741.974 0.946162 -5.22706 0
M  V30 8075 C 741.013 0.116741 -6.11989 0
M  V30 8076 N 740.15 0.987194 -6.95125 0
M  V30 8077 H 744.99 -0.83764 -2.85985 0
M  V30 8078 H 742.527 -0.424759 -1.40834 0
M  V30 8079 H 744.485 1.39946 -3.93028 0
M  V30 8080 H 743.115 1.59572 -2.806 0
M  V30 8081 H 742.167 -0.632044 -3.75112 0
M  V30 8082 H 743.479 -0.611615 -4.95036 0
M  V30 8083 H 742.633 1.56014 -5.86297 0
M  V30 8084 H 741.372 1.62216 -4.59932 0
M  V30 8085 H 740.377 -0.510176 -5.47428 0
M  V30 8086 H 741.602 -0.555742 -6.76822 0
M  V30 8087 H 739.548 1.64885 -6.3494 0
M  V30 8088 H 739.465 0.401046 -7.54936 0
M  V30 8089 H 740.733 1.58737 -7.63166 0
M  V30 8090 N 744.962 1.50701 -0.461195 0
M  V30 8091 C 745.912 2.25195 0.35653 0
M  V30 8092 C 746.896 1.2838 0.96992 0
M  V30 8093 O 748.088 1.53338 0.884108 0
M  V30 8094 C 745.217 3.11471 1.44364 0
M  V30 8095 C 744.303 4.15729 0.83847 0
M  V30 8096 N 744.694 5.05788 -0.0353198 0
M  V30 8097 C 742.992 4.32133 1.1035 0
M  V30 8098 C 743.693 5.80472 -0.37774 0
M  V30 8099 N 742.669 5.43049 0.24463 0
M  V30 8100 H 746.471 2.92188 -0.316746 0
M  V30 8101 H 743.985 1.60059 -0.274725 0
M  V30 8102 H 745.982 3.63436 2.04255 0
M  V30 8103 H 744.642 2.46025 2.11901 0
M  V30 8104 H 745.653 5.16326 -0.403465 0
M  V30 8105 H 742.33 3.77908 1.77458 0
M  V30 8106 H 743.72 6.62996 -1.09024 0
M  V30 8107 N 746.441 0.193421 1.56409 0
M  V30 8108 C 747.687 -0.446449 1.97825 0
M  V30 8109 C 748.02 -1.61386 1.08019 0
M  V30 8110 O 747.295 -1.94053 0.131839 0
M  V30 8111 C 747.578 -0.908199 3.48459 0
M  V30 8112 C 747.431 0.260914 4.49043 0
M  V30 8113 C 748.75 -1.77428 4.0275 0
M  V30 8114 H 745.869 -0.160807 0.719243 0
M  V30 8115 H 748.511 0.284006 1.87865 0
M  V30 8116 H 746.661 -1.53062 3.57077 0
M  V30 8117 H 748.333 0.898548 4.52464 0
M  V30 8118 H 746.576 0.912949 4.24085 0
M  V30 8119 H 747.247 -0.104657 5.51901 0
M  V30 8120 H 749.723 -1.24936 3.96901 0
M  V30 8121 H 748.599 -2.06633 5.08521 0
M  V30 8122 H 748.86 -2.72788 3.47907 0
M  V30 8123 N 747.919 -1.57396 -0.0801906 0
M  V30 8124 C 749.165 -1.87113 -0.782083 0
M  V30 8125 C 749.498 -0.78458 -1.77646 0
M  V30 8126 O 748.773 0.205993 -1.93406 0
M  V30 8127 C 749.056 -3.27483 -1.49756 0
M  V30 8128 C 748.909 -4.46782 -0.520171 0
M  V30 8129 C 750.228 -3.65965 -2.44454 0
M  V30 8130 H 747.347 -0.680559 -0.282858 0
M  V30 8131 H 749.989 -1.89946 -0.0454139 0
M  V30 8132 H 748.139 -3.25199 -2.12551 0
M  V30 8133 H 749.811 -4.61187 0.101919 0
M  V30 8134 H 748.054 -4.33485 0.165219 0
M  V30 8135 H 748.725 -5.41761 -1.05824 0
M  V30 8136 H 751.201 -3.69289 -1.91742 0
M  V30 8137 H 750.077 -4.65086 -2.91524 0
M  V30 8138 H 750.338 -2.95446 -3.28883 0
M  V30 8139 N 749.397 0.351382 -1.53633 0
M  V30 8140 C 750.813 0.693987 -1.43722 0
M  V30 8141 C 751.013 1.9274 -0.587669 0
M  V30 8142 O 750.069 2.52387 -0.0756082 0
M  V30 8143 C 751.382 0.893937 -2.87105 0
M  V30 8144 C 752.93 0.993051 -2.96829 0
M  V30 8145 C 753.405 1.22537 -4.41303 0
M  V30 8146 N 754.896 1.29275 -4.44795 0
M  V30 8147 C 755.631 1.48988 -5.53706 0
M  V30 8148 N 755.127 1.65924 -6.72637 0
M  V30 8149 N 756.92 1.51472 -5.41306 0
M  V30 8150 H 749.071 -0.459688 -2.07366 0
M  V30 8151 H 751.334 -0.143684 -0.937048 0
M  V30 8152 H 751.04 0.0592517 -3.5165 0
M  V30 8153 H 750.914 1.79795 -3.31592 0
M  V30 8154 H 753.301 1.81827 -2.32429 0
M  V30 8155 H 753.382 0.0661119 -2.55715 0
M  V30 8156 H 753.026 0.405117 -5.06282 0
M  V30 8157 H 752.956 2.16575 -4.80003 0
M  V30 8158 H 755.447 1.17743 -3.59089 0
M  V30 8159 H 755.76 1.80578 -7.51406 0
M  V30 8160 H 754.105 1.63075 -6.75597 0
M  V30 8161 H 757.296 1.37818 -4.47352 0
M  V30 8162 H 757.469 1.66493 -6.26246 0
M  V30 8163 N 750.875 1.45233 0.611969 0
M  V30 8164 C 752.286 1.4354 1.19387 0
M  V30 8165 C 752.637 0.160713 1.95541 0
M  V30 8166 O 751.762 -0.737954 2.03429 0
M  V30 8167 C 752.357 2.60045 2.17169 0
M  V30 8168 C 750.916 2.61486 2.70744 0
M  V30 8169 C 750.063 2.35708 1.46072 0
M  V30 8170 H 753.014 1.53536 0.401529 0
M  V30 8171 H 753.035 2.33893 3.00124 0
M  V30 8172 H 752.547 3.52803 1.61714 0
M  V30 8173 H 750.648 1.72721 3.30149 0
M  V30 8174 H 750.761 3.60572 3.15476 0
M  V30 8175 H 749.125 1.85178 1.74875 0
M  V30 8176 H 749.908 3.30606 0.924922 0
M  V30 8177 N 752.353 -0.854086 1.3245 0
M  V30 8178 C 753.602 -1.60318 1.22397 0
M  V30 8179 C 753.915 -1.9444 -0.212664 0
M  V30 8180 O 755.121 -2.67991 -0.435066 0
M  V30 8181 C 753.577 -2.8909 2.1437 0
M  V30 8182 C 753.185 -2.62391 3.63119 0
M  V30 8183 C 754.929 -3.67104 2.13155 0
M  V30 8184 C 752.836 -3.87167 4.47052 0
M  V30 8185 H 751.766 -0.601586 0.454544 0
M  V30 8186 H 754.417 -0.943023 1.57415 0
M  V30 8187 H 752.799 -3.56567 1.72268 0
M  V30 8188 H 753.973 -2.03222 4.13567 0
M  V30 8189 H 752.288 -1.97706 3.66471 0
M  V30 8190 H 754.885 -4.59696 2.731 0
M  V30 8191 H 755.228 -4.00876 1.12268 0
M  V30 8192 H 755.761 -3.06533 2.5354 0
M  V30 8193 H 752.5 -3.58536 5.48755 0
M  V30 8194 H 752.02 -4.45729 4.01355 0
M  V30 8195 H 753.699 -4.549 4.60081 0
M  V30 8196 N 753.831 -1.1567 -1.07043 0
M  V30 8197 C 755.078 -0.933517 -1.79699 0
M  V30 8198 C 755.406 0.539162 -1.86878 0
M  V30 8199 O 754.661 1.41592 -1.35093 0
M  V30 8200 C 754.96 -1.49677 -3.24548 0
M  V30 8201 C 754.626 -2.99047 -3.37463 0
M  V30 8202 C 753.288 -3.39824 -3.40695 0
M  V30 8203 C 755.64 -3.95027 -3.40004 0
M  V30 8204 C 752.968 -4.75215 -3.44075 0
M  V30 8205 C 755.32 -5.30295 -3.44921 0
M  V30 8206 C 753.984 -5.70562 -3.46432 0
M  V30 8207 H 753.254 -0.341598 -0.657565 0
M  V30 8208 H 755.901 -1.44263 -1.25938 0
M  V30 8209 H 754.206 -0.908915 -3.81111 0
M  V30 8210 H 755.903 -1.29986 -3.79348 0
M  V30 8211 H 752.493 -2.6653 -3.35648 0
M  V30 8212 H 756.677 -3.64596 -3.36725 0
M  V30 8213 H 751.933 -5.05754 -3.43545 0
M  V30 8214 H 756.107 -6.0446 -3.45833 0
M  V30 8215 H 753.734 -6.75456 -3.48803 0
M  V30 8216 N 755.309 1.25446 -0.953992 0
M  V30 8217 C 756.537 1.97215 -0.625595 0
M  V30 8218 C 756.952 1.70911 0.802168 0
M  V30 8219 O 756.309 0.984782 1.5365 0
M  V30 8220 C 756.36 3.50777 -0.873943 0
M  V30 8221 O 756.081 3.76173 -2.24556 0
M  V30 8222 C 757.582 4.39776 -0.557845 0
M  V30 8223 H 754.802 0.628652 -0.2346 0
M  V30 8224 H 757.346 1.59632 -1.27819 0
M  V30 8225 H 755.501 3.86474 -0.267765 0
M  V30 8226 H 755.915 4.70636 -2.31522 0
M  V30 8227 H 757.389 5.46431 -0.782157 0
M  V30 8228 H 757.866 4.36257 0.507573 0
M  V30 8229 H 758.472 4.09644 -1.14332 0
M  V30 8230 N 756.787 0.722489 1.40064 0
M  V30 8231 C 758.033 0.265371 2.01056 0
M  V30 8232 C 758.366 -1.14062 1.57174 0
M  V30 8233 O 757.641 -1.77514 0.794916 0
M  V30 8234 C 757.924 0.353157 3.58364 0
M  V30 8235 C 757.777 1.79802 4.123 0
M  V30 8236 C 759.096 -0.271677 4.39261 0
M  V30 8237 H 756.215 0.0979002 0.730469 0
M  V30 8238 H 758.857 0.916289 1.66446 0
M  V30 8239 H 757.007 -0.201037 3.87979 0
M  V30 8240 H 758.679 2.40813 3.93455 0
M  V30 8241 H 756.922 2.32348 3.66329 0
M  V30 8242 H 757.593 1.81079 5.21454 0
M  V30 8243 H 760.069 0.200607 4.15616 0
M  V30 8244 H 758.945 -0.179843 5.48605 0
M  V30 8245 H 759.206 -1.35611 4.20787 0
M  V30 8246 N 758.265 -1.50454 0.469181 0
M  V30 8247 C 759.505 -2.04222 -0.0852381 0
M  V30 8248 C 759.869 -1.34357 -1.37158 0
M  V30 8249 O 761.07 -1.78669 -2.00825 0
M  V30 8250 C 759.341 -3.56403 -0.266778 0
M  V30 8251 S 760.9 -4.31811 -0.780028 0
M  V30 8252 H 757.718 -0.7108 -0.0168589 0
M  V30 8253 H 760.32 -1.8487 0.635883 0
M  V30 8254 H 759.024 -4.04807 0.67525 0
M  V30 8255 H 758.555 -3.80106 -1.01407 0
M  V30 8256 H 760.57 -4.51706 -2.05368 0
M  V30 8257 N 759.743 -0.201713 -1.56304 0
M  V30 8258 C 760.991 0.434447 -1.97375 0
M  V30 8259 C 761.312 1.61692 -1.08998 0
M  V30 8260 O 760.582 1.95223 -0.162682 0
M  V30 8261 H 759.162 0.163497 -0.728888 0
M  V30 8262 H 761.824 -0.289988 -1.92731 0
M  V30 8263 H 760.92 0.774136 -3.02347 0
M  V30 8264 N 761.222 1.57436 0.0718424 0
M  V30 8265 C 762.45 1.91474 0.783932 0
M  V30 8266 C 762.865 0.797669 1.71122 0
M  V30 8267 O 762.222 -0.228989 1.81058 0
M  V30 8268 C 762.273 3.25259 1.57761 0
M  V30 8269 O 761.994 4.3267 0.687596 0
M  V30 8270 C 763.495 3.7331 2.3907 0
M  V30 8271 H 760.715 0.632901 0.222885 0
M  V30 8272 H 763.259 2.04457 0.0421262 0
M  V30 8273 H 761.414 3.13804 2.27169 0
M  V30 8274 H 761.828 5.09641 1.23962 0
M  V30 8275 H 763.302 4.69551 2.90216 0
M  V30 8276 H 763.779 3.02318 3.18591 0
M  V30 8277 H 764.385 3.8771 1.74818 0
M  V30 8278 N 762.7 -0.34323 1.53817 0
M  V30 8279 C 764.111 -0.918823 1.62525 0
M  V30 8280 C 764.462 -1.89542 0.506765 0
M  V30 8281 O 763.587 -2.13326 -0.363441 0
M  V30 8282 C 764.182 -1.67326 2.94597 0
M  V30 8283 C 762.741 -2.19786 3.05567 0
M  V30 8284 C 761.888 -1.01708 2.57974 0
M  V30 8285 H 764.839 -0.121358 1.58235 0
M  V30 8286 H 764.86 -2.53615 2.83654 0
M  V30 8287 H 764.372 -0.962223 3.75983 0
M  V30 8288 H 762.473 -2.94065 2.28816 0
M  V30 8289 H 762.586 -2.46135 4.1104 0
M  V30 8290 H 760.95 -1.39058 2.13389 0
M  V30 8291 H 761.733 -0.320671 3.41799 0
M  V30 8292 N 764.178 -1.45556 -0.604258 0
M  V30 8293 C 765.406 -1.53278 -1.38973 0
M  V30 8294 C 765.821 -0.166509 -1.88064 0
M  V30 8295 O 765.178 0.832519 -1.62405 0
M  V30 8296 C 765.229 -2.51992 -2.59195 0
M  V30 8297 O 764.95 -3.8331 -2.12143 0
M  V30 8298 C 766.451 -2.69445 -3.52015 0
M  V30 8299 H 763.671 -0.519003 -0.425297 0
M  V30 8300 H 766.215 -1.90773 -0.736621 0
M  V30 8301 H 764.37 -2.17561 -3.2054 0
M  V30 8302 H 764.784 -4.3685 -2.90279 0
M  V30 8303 H 766.258 -3.42485 -4.32907 0
M  V30 8304 H 766.735 -1.75596 -4.0257 0
M  V30 8305 H 767.341 -3.04886 -2.9652 0
M  V30 8306 N 765.656 0.84705 -1.32902 0
M  V30 8307 C 766.886 1.63166 -1.26729 0
M  V30 8308 C 767.294 1.88474 0.165595 0
M  V30 8309 O 766.637 1.45947 1.11558 0
M  V30 8310 C 766.699 3.0103 -1.96522 0
M  V30 8311 C 766.363 2.9873 -3.45846 0
M  V30 8312 C 767.36 2.75032 -4.41196 0
M  V30 8313 C 765.045 3.19125 -3.87898 0
M  V30 8314 C 767.039 2.71743 -5.76571 0
M  V30 8315 C 764.726 3.15462 -5.2338 0
M  V30 8316 C 765.724 2.91801 -6.17528 0
M  V30 8317 O 765.412 2.88027 -7.5053 0
M  V30 8318 H 765.144 0.51469 -0.438258 0
M  V30 8319 H 767.698 1.06383 -1.75704 0
M  V30 8320 H 765.928 3.59634 -1.42128 0
M  V30 8321 H 767.617 3.61821 -1.83958 0
M  V30 8322 H 768.383 2.59034 -4.10032 0
M  V30 8323 H 764.262 3.36565 -3.15032 0
M  V30 8324 H 767.806 2.53194 -6.5003 0
M  V30 8325 H 763.703 3.31006 -5.54171 0
M  V30 8326 H 764.471 3.03927 -7.59981 0
M  V30 8327 N 767.134 1.16236 1.06428 0
M  V30 8328 C 768.38 0.944431 1.79467 0
M  V30 8329 C 768.713 -0.526558 1.86925 0
M  V30 8330 O 767.988 -1.39061 1.35986 0
M  V30 8331 C 768.271 1.57092 3.24028 0
M  V30 8332 C 768.124 3.11315 3.24658 0
M  V30 8333 C 769.443 1.26447 4.21544 0
M  V30 8334 H 766.562 0.344521 0.651517 0
M  V30 8335 H 769.204 1.43545 1.24478 0
M  V30 8336 H 767.354 1.15337 3.70985 0
M  V30 8337 H 769.026 3.62042 2.85873 0
M  V30 8338 H 767.269 3.44716 2.6335 0
M  V30 8339 H 767.94 3.50269 4.26633 0
M  V30 8340 H 770.416 1.62581 3.83023 0
M  V30 8341 H 769.292 1.72885 5.20963 0
M  V30 8342 H 769.553 0.183068 4.41721 0
M  V30 8343 N 768.612 -1.24939 0.960631 0
M  V30 8344 C 769.575 -2.239 0.49006 0
M  V30 8345 C 770.575 -1.55497 -0.409535 0
M  V30 8346 O 771.765 -1.72978 -0.205984 0
M  V30 8347 C 768.897 -3.39654 -0.291193 0
M  V30 8348 H 770.09 -2.67044 1.36482 0
M  V30 8349 H 767.643 -1.37429 0.744505 0
M  V30 8350 H 768.378 -3.01939 -1.18336 0
M  V30 8351 H 768.163 -3.90496 0.354276 0
M  V30 8352 H 769.653 -4.13125 -0.609693 0
M  V30 8353 N 770.09 -0.729906 -1.39679 0
M  V30 8354 C 771.501 -0.346241 -1.83461 0
M  V30 8355 C 771.852 1.1215 -1.60987 0
M  V30 8356 O 770.977 1.86456 -1.09832 0
M  V30 8357 C 771.572 -0.621656 -3.33048 0
M  V30 8358 C 770.131 -0.291543 -3.75269 0
M  V30 8359 C 769.278 -0.886844 -2.62736 0
M  V30 8360 H 772.229 -0.927949 -1.28743 0
M  V30 8361 H 772.25 0.108301 -3.80346 0
M  V30 8362 H 771.762 -1.68996 -3.49373 0
M  V30 8363 H 769.863 0.771133 -3.64533 0
M  V30 8364 H 769.976 -0.770544 -4.72863 0
M  V30 8365 H 768.34 -0.313839 -2.52759 0
M  V30 8366 H 769.123 -1.95971 -2.81869 0
M  V30 8367 N 771.568 1.50203 -0.477153 0
M  V30 8368 C 772.478 2.32421 0.319027 0
M  V30 8369 C 773.494 1.43075 0.990233 0
M  V30 8370 O 774.67 1.76123 0.976873 0
M  V30 8371 C 771.735 3.17909 1.38328 0
M  V30 8372 C 770.796 4.23082 0.728036 0
M  V30 8373 C 770.029 5.04484 1.74158 0
M  V30 8374 O 770.252 4.8705 2.96881 0
M  V30 8375 O 769.186 5.8747 1.31006 0
M  V30 8376 H 773.012 3.01638 -0.353281 0
M  V30 8377 H 770.597 1.47478 -0.238891 0
M  V30 8378 H 772.479 3.70937 1.9996 0
M  V30 8379 H 771.154 2.51413 2.03895 0
M  V30 8380 H 770.061 3.7403 0.07261 0
M  V30 8381 H 771.394 4.92065 0.115216 0
M  V30 8382 N 773.046 0.209999 1.56195 0
M  V30 8383 C 774.295 -0.425106 1.97169 0
M  V30 8384 C 774.608 -1.61718 1.10031 0
M  V30 8385 O 775.814 -2.32105 1.40853 0
M  V30 8386 C 774.27 -0.80771 3.50719 0
M  V30 8387 C 773.878 0.360902 4.46544 0
M  V30 8388 C 775.622 -1.40906 4.00432 0
M  V30 8389 C 773.529 -0.0434919 5.91384 0
M  V30 8390 H 772.459 -0.162598 0.736259 0
M  V30 8391 H 775.11 0.304382 1.80958 0
M  V30 8392 H 773.492 -1.59429 3.62489 0
M  V30 8393 H 774.666 1.13846 4.46515 0
M  V30 8394 H 772.981 0.874729 4.07109 0
M  V30 8395 H 775.578 -1.72433 5.06133 0
M  V30 8396 H 775.921 -2.32081 3.45607 0
M  V30 8397 H 776.454 -0.686154 3.91838 0
M  V30 8398 H 773.193 0.834448 6.50167 0
M  V30 8399 H 772.713 -0.785598 5.94633 0
M  V30 8400 H 774.392 -0.474176 6.4526 0
M  V30 8401 N 774.524 -1.57472 -0.0634922 0
M  V30 8402 C 775.454 -2.07297 -1.07473 0
M  V30 8403 C 776.435 -0.968162 -1.39859 0
M  V30 8404 O 777.62 -1.24139 -1.49343 0
M  V30 8405 C 774.75 -2.52381 -2.38581 0
M  V30 8406 C 773.704 -3.66813 -2.20526 0
M  V30 8407 C 773.03 -3.97982 -3.57092 0
M  V30 8408 C 774.33 -4.96553 -1.61965 0
M  V30 8409 H 776.024 -2.92033 -0.660092 0
M  V30 8410 H 773.57 -1.40488 -0.316074 0
M  V30 8411 H 775.523 -2.85852 -3.09624 0
M  V30 8412 H 774.247 -1.64684 -2.8204 0
M  V30 8413 H 772.906 -3.33639 -1.51924 0
M  V30 8414 H 772.554 -3.07403 -3.98136 0
M  V30 8415 H 772.254 -4.7504 -3.45848 0
M  V30 8416 H 773.778 -4.33956 -4.29552 0
M  V30 8417 H 775.192 -5.28201 -2.22883 0
M  V30 8418 H 773.589 -5.7799 -1.61394 0
M  V30 8419 H 774.659 -4.81396 -0.581918 0
M  V30 8420 N 776.003 0.335068 -1.53997 0
M  V30 8421 C 777.228 1.09859 -1.75914 0
M  V30 8422 C 777.653 1.81308 -0.500915 0
M  V30 8423 O 777.011 1.72854 0.54693 0
M  V30 8424 C 777.059 2.08122 -2.94478 0
M  V30 8425 O 776.163 3.15805 -2.65219 0
M  V30 8426 H 775.504 0.317313 -0.583274 0
M  V30 8427 H 778.034 0.382872 -2.00986 0
M  V30 8428 H 778.044 2.51195 -3.21504 0
M  V30 8429 H 776.719 1.55517 -3.8573 0
M  V30 8430 H 775.296 2.77489 -2.49107 0
M  V30 8431 N 777.481 1.45874 0.596531 0
M  V30 8432 C 778.391 1.57947 1.73464 0
M  V30 8433 C 779.407 0.463461 1.67714 0
M  V30 8434 O 780.583 0.725685 1.87872 0
M  V30 8435 C 777.648 1.55348 3.09948 0
M  V30 8436 C 776.709 2.78074 3.27068 0
M  V30 8437 C 775.942 2.75589 4.57041 0
M  V30 8438 O 776.165 1.83545 5.40063 0
M  V30 8439 O 775.099 3.66945 4.77111 0
M  V30 8440 H 778.925 2.54169 1.66228 0
M  V30 8441 H 776.51 1.2851 0.76194 0
M  V30 8442 H 778.392 1.56545 3.91244 0
M  V30 8443 H 777.067 0.622811 3.17652 0
M  V30 8444 H 775.974 2.82435 2.45319 0
M  V30 8445 H 777.307 3.70303 3.24248 0
M  V30 8446 N 778.959 -0.83999 1.33349 0
M  V30 8447 C 779.906 -1.94972 1.23509 0
M  V30 8448 C 780.876 -1.65709 0.113967 0
M  V30 8449 O 782.061 -1.88552 0.292045 0
M  V30 8450 C 779.201 -3.30919 0.979105 0
M  V30 8451 C 778.314 -3.72587 2.18639 0
M  V30 8452 C 777.449 -4.97397 1.86465 0
M  V30 8453 C 776.488 -5.31597 3.03432 0
M  V30 8454 N 775.625 -6.47584 2.71254 0
M  V30 8455 H 780.465 -2.0272 2.18423 0
M  V30 8456 H 778.002 -0.992017 1.08616 0
M  V30 8457 H 779.96 -4.09239 0.811126 0
M  V30 8458 H 778.59 -3.22731 0.0667099 0
M  V30 8459 H 777.642 -2.89799 2.46416 0
M  V30 8460 H 778.954 -3.93844 3.06086 0
M  V30 8461 H 778.108 -5.83462 1.66305 0
M  V30 8462 H 776.847 -4.78107 0.96254 0
M  V30 8463 H 775.852 -4.44037 3.24208 0
M  V30 8464 H 777.077 -5.52836 3.94397 0
M  V30 8465 H 775.023 -6.29783 1.836 0
M  V30 8466 H 774.94 -6.68931 3.52231 0
M  V30 8467 H 776.208 -7.36764 2.54558 0
M  V30 8468 N 780.437 -1.16799 -1.0581 0
M  V30 8469 C 781.685 -0.950642 -1.78346 0
M  V30 8470 C 782.006 0.522524 -1.87869 0
M  V30 8471 O 781.276 1.3795 -1.39092 0
M  V30 8472 H 779.856 -0.348736 -0.6606 0
M  V30 8473 H 782.518 -1.47158 -1.27791 0
M  V30 8474 H 781.614 -1.37359 -2.80248 0
M  V30 8475 N 781.915 1.24427 -0.967243 0
M  V30 8476 C 783.145 1.96256 -0.64554 0
M  V30 8477 C 783.553 1.71959 0.789098 0
M  V30 8478 O 782.896 0.999913 1.54102 0
M  V30 8479 C 782.958 3.49553 -0.839798 0
M  V30 8480 C 782.622 3.97548 -2.25399 0
M  V30 8481 C 783.619 4.07257 -3.23168 0
M  V30 8482 C 781.304 4.30884 -2.58156 0
M  V30 8483 C 783.298 4.49635 -4.51782 0
M  V30 8484 C 780.985 4.72946 -3.86996 0
M  V30 8485 C 781.983 4.82286 -4.83621 0
M  V30 8486 O 781.671 5.23409 -6.10162 0
M  V30 8487 H 781.403 0.632002 -0.239895 0
M  V30 8488 H 783.957 1.59224 -1.29757 0
M  V30 8489 H 782.187 3.86479 -0.130603 0
M  V30 8490 H 783.876 4.02591 -0.517249 0
M  V30 8491 H 784.642 3.8172 -2.9919 0
M  V30 8492 H 780.521 4.22833 -1.83666 0
M  V30 8493 H 784.065 4.5684 -5.27203 0
M  V30 8494 H 779.962 4.9793 -4.10775 0
M  V30 8495 H 780.73 5.4156 -6.13722 0
M  V30 8496 N 783.393 0.737304 1.3929 0
M  V30 8497 C 784.641 0.285691 2.00071 0
M  V30 8498 C 784.962 -1.13169 1.58801 0
M  V30 8499 O 784.232 -1.77104 0.837308 0
M  V30 8500 H 782.812 0.102638 0.739915 0
M  V30 8501 H 785.474 0.947775 1.70303 0
M  V30 8502 H 784.57 0.335906 3.10287 0
M  V30 8503 N 784.871 -1.49948 0.485112 0
M  V30 8504 C 785.801 -2.31675 -0.291364 0
M  V30 8505 C 786.782 -1.39216 -0.977383 0
M  V30 8506 O 787.967 -1.68133 -0.971855 0
M  V30 8507 C 785.097 -3.19326 -1.36558 0
M  V30 8508 C 784.051 -4.2045 -0.800359 0
M  V30 8509 C 783.377 -4.96931 -1.97391 0
M  V30 8510 C 784.677 -5.21925 0.197867 0
M  V30 8511 H 786.371 -2.96839 0.390775 0
M  V30 8512 H 783.917 -1.42749 0.189375 0
M  V30 8513 H 785.87 -3.75304 -1.91638 0
M  V30 8514 H 784.594 -2.52074 -2.07668 0
M  V30 8515 H 783.253 -3.65594 -0.271428 0
M  V30 8516 H 782.901 -4.26141 -2.67232 0
M  V30 8517 H 782.601 -5.65344 -1.60187 0
M  V30 8518 H 784.125 -5.55749 -2.52935 0
M  V30 8519 H 785.539 -5.72691 -0.264239 0
M  V30 8520 H 783.936 -5.98138 0.484908 0
M  V30 8521 H 785.006 -4.71809 1.11912 0
M  V30 8522 N 786.349 -0.21828 -1.56081 0
M  V30 8523 C 787.259 0.704602 -2.23769 0
M  V30 8524 C 788.275 1.21633 -1.24425 0
M  V30 8525 O 789.451 1.25862 -1.57228 0
M  V30 8526 C 786.516 1.89725 -2.90182 0
M  V30 8527 C 785.577 1.42782 -4.0486 0
M  V30 8528 C 784.81 2.56361 -4.68097 0
M  V30 8529 O 785.033 3.74417 -4.30312 0
M  V30 8530 O 783.967 2.2775 -5.57148 0
M  V30 8531 H 787.793 0.158007 -3.03289 0
M  V30 8532 H 785.378 0.0120279 -1.49395 0
M  V30 8533 H 787.26 2.59382 -3.32113 0
M  V30 8534 H 785.935 2.432 -2.13624 0
M  V30 8535 H 784.842 0.699359 -3.67505 0
M  V30 8536 H 786.175 0.939474 -4.83151 0
M  V30 8537 N 787.827 1.57504 0.0551401 0
M  V30 8538 C 789.073 1.88334 0.752216 0
M  V30 8539 C 789.406 0.812742 1.76375 0
M  V30 8540 O 788.681 -0.175198 1.93709 0
M  V30 8541 C 788.964 3.29824 1.44528 0
M  V30 8542 C 788.817 4.47553 0.449026 0
M  V30 8543 C 790.136 3.69808 2.38601 0
M  V30 8544 H 787.255 0.684973 0.271995 0
M  V30 8545 H 789.897 1.89994 0.0151895 0
M  V30 8546 H 788.047 3.28539 2.07351 0
M  V30 8547 H 789.719 4.60967 -0.175277 0
M  V30 8548 H 787.962 4.33168 -0.234162 0
M  V30 8549 H 788.633 5.43376 0.971917 0
M  V30 8550 H 791.109 3.72293 1.85842 0
M  V30 8551 H 789.985 4.69665 2.84088 0
M  V30 8552 H 790.246 3.00641 3.24141 0
M  V30 8553 N 789.305 -0.326896 1.54172 0
M  V30 8554 C 790.582 -1.08326 1.62864 0
M  V30 8555 C 790.962 -2.06018 0.46039 0
M  V30 8556 O 790.31 -2.21889 -0.545685 0
M  V30 8557 C 790.52 -1.78816 2.9971 0
M  V30 8558 C 791.868 -2.31958 3.55641 0
M  V30 8559 O 792.892 -1.88888 3.01993 0
M  V30 8560 O 791.751 -3.10801 4.49517 0
M  V30 8561 H 788.845 -0.499131 0.659392 0
M  V30 8562 H 791.391 -0.327054 1.66519 0
M  V30 8563 H 790.163 -1.07739 3.76176 0
M  V30 8564 H 789.786 -2.61255 2.99719 0
M  V30 8565 N 790.784 -1.46188 -0.588786 0
M  V30 8566 C 791.717 -1.508 -1.71274 0
M  V30 8567 C 792.695 -0.362635 -1.58505 0
M  V30 8568 O 793.879 -0.565899 -1.79805 0
M  V30 8569 C 791.006 -1.38082 -3.09275 0
M  V30 8570 C 790.052 -2.56723 -3.40581 0
M  V30 8571 S 790.885 -4.1911 -3.33327 0
M  V30 8572 C 792.041 -4.08891 -4.73877 0
M  V30 8573 H 792.274 -2.45895 -1.67102 0
M  V30 8574 H 789.807 -1.34 -0.767025 0
M  V30 8575 H 791.765 -1.31432 -3.88891 0
M  V30 8576 H 790.426 -0.444259 -3.10942 0
M  V30 8577 H 789.619 -2.43801 -4.41109 0
M  V30 8578 H 789.221 -2.60332 -2.68521 0
M  V30 8579 H 791.513 -3.75196 -5.64123 0
M  V30 8580 H 792.456 -5.09395 -4.91856 0
M  V30 8581 H 792.864 -3.40239 -4.50441 0
M  V30 8582 N 792.262 0.832906 -1.33792 0
M  V30 8583 C 793.508 1.59053 -1.26782 0
M  V30 8584 C 793.863 1.91705 0.163399 0
M  V30 8585 O 793.156 1.5638 1.10706 0
M  V30 8586 C 793.35 2.9047 -2.08235 0
M  V30 8587 C 793.179 2.70656 -3.59132 0
M  V30 8588 C 791.949 2.67905 -4.28433 0
M  V30 8589 C 794.147 2.42871 -4.53341 0
M  V30 8590 N 792.129 2.39531 -5.65242 0
M  V30 8591 C 793.5 2.24101 -5.78082 0
M  V30 8592 C 795.555 2.28517 -4.42362 0
M  V30 8593 C 794.258 1.92432 -6.93082 0
M  V30 8594 C 796.284 1.98242 -5.57184 0
M  V30 8595 C 795.646 1.80288 -6.80937 0
M  V30 8596 H 791.745 0.584823 -0.51914 0
M  V30 8597 H 794.329 0.977252 -1.68398 0
M  V30 8598 H 792.5 3.49739 -1.6893 0
M  V30 8599 H 794.232 3.55744 -1.92947 0
M  V30 8600 H 790.987 2.81624 -3.80768 0
M  V30 8601 H 791.411 2.28211 -6.37377 0
M  V30 8602 H 796.053 2.41107 -3.47314 0
M  V30 8603 H 793.771 1.78579 -7.88121 0
M  V30 8604 H 797.357 1.87882 -5.50628 0
M  V30 8605 H 796.237 1.57199 -7.68283 0
M  V30 8606 N 793.74 1.17359 1.05189 0
M  V30 8607 C 794.703 0.892604 2.11105 0
M  V30 8608 C 795.703 -0.117236 1.60372 0
M  V30 8609 O 796.893 0.114936 1.7382 0
M  V30 8610 C 794.025 0.337032 3.3923 0
M  V30 8611 H 795.218 1.83169 2.37464 0
M  V30 8612 H 792.771 0.984051 1.21434 0
M  V30 8613 H 793.506 -0.609198 3.18527 0
M  V30 8614 H 793.291 1.06484 3.77364 0
M  V30 8615 H 794.781 0.158763 4.17298 0
M  V30 8616 N 795.218 -1.23913 0.973828 0
M  V30 8617 C 796.181 -2.23367 0.51378 0
M  V30 8618 C 797.181 -1.55923 -0.39302 0
M  V30 8619 O 798.371 -1.73187 -0.187626 0
M  V30 8620 C 795.503 -3.39944 -0.255152 0
M  V30 8621 H 796.696 -2.65581 1.39307 0
M  V30 8622 H 794.249 -1.36632 0.759039 0
M  V30 8623 H 794.984 -3.03177 -1.15127 0
M  V30 8624 H 794.769 -3.90098 0.395673 0
M  V30 8625 H 796.259 -4.13749 -0.565842 0
M  V30 8626 N 796.696 -0.74468 -1.38897 0
M  V30 8627 C 797.944 -0.296298 -1.99916 0
M  V30 8628 C 798.265 1.12325 -1.59399 0
M  V30 8629 O 797.535 1.76658 -0.846689 0
M  V30 8630 H 796.115 -0.106561 -0.73936 0
M  V30 8631 H 798.777 -0.956793 -1.69798 0
M  V30 8632 H 797.873 -0.352356 -3.10105 0
M  V30 8633 N 798.174 1.49689 -0.493057 0
M  V30 8634 C 799.42 2.02727 0.0543518 0
M  V30 8635 C 799.753 1.37264 1.37376 0
M  V30 8636 O 799.028 0.505644 1.87812 0
M  V30 8637 C 799.311 3.59456 0.215226 0
M  V30 8638 C 799.164 4.35459 -1.12675 0
M  V30 8639 C 800.483 4.29511 0.959586 0
M  V30 8640 H 797.602 0.736773 0.0182786 0
M  V30 8641 H 800.244 1.78792 -0.642924 0
M  V30 8642 H 798.394 3.79981 0.809122 0
M  V30 8643 H 800.066 4.2645 -1.75891 0
M  V30 8644 H 798.309 3.9833 -1.71801 0
M  V30 8645 H 798.98 5.43454 -0.967578 0
M  V30 8646 H 801.456 4.13594 0.455977 0
M  V30 8647 H 800.332 5.38939 1.04098 0
M  V30 8648 H 800.593 3.94202 2.00144 0
M  V30 8649 N 799.652 0.226554 1.55963 0
M  V30 8650 C 800.901 -0.40417 1.97609 0
M  V30 8651 C 801.214 -1.60541 1.1174 0
M  V30 8652 O 802.42 -2.30598 1.43307 0
M  V30 8653 C 800.876 -0.770466 3.51556 0
M  V30 8654 C 800.484 0.408244 4.46136 0
M  V30 8655 C 802.228 -1.36651 4.01904 0
M  V30 8656 C 800.135 0.0192347 5.91397 0
M  V30 8657 H 799.065 -0.15478 0.737943 0
M  V30 8658 H 801.716 0.323558 1.80625 0
M  V30 8659 H 800.098 -1.55575 3.6416 0
M  V30 8660 H 801.272 1.18575 4.45283 0
M  V30 8661 H 799.587 0.917859 4.06158 0
M  V30 8662 H 802.184 -1.67055 5.07934 0
M  V30 8663 H 802.527 -2.28403 3.48049 0
M  V30 8664 H 803.06 -0.644556 3.92543 0
M  V30 8665 H 799.799 0.90336 6.49245 0
M  V30 8666 H 799.319 -0.722485 5.95433 0
M  V30 8667 H 800.998 -0.405711 6.45727 0
M  V30 8668 N 801.13 -1.57531 -0.0467866 0
M  V30 8669 C 802.06 -2.08425 -1.05268 0
M  V30 8670 C 803.041 -0.982941 -1.38825 0
M  V30 8671 O 804.226 -1.25716 -1.48018 0
M  V30 8672 C 801.356 -2.54897 -2.35891 0
M  V30 8673 C 800.31 -3.69132 -2.16623 0
M  V30 8674 C 799.636 -4.01747 -3.52851 0
M  V30 8675 C 800.936 -4.98243 -1.56689 0
M  V30 8676 H 802.63 -2.92716 -0.62908 0
M  V30 8677 H 800.176 -1.40816 -0.301156 0
M  V30 8678 H 802.129 -2.8912 -3.06574 0
M  V30 8679 H 800.853 -1.67666 -2.80278 0
M  V30 8680 H 799.512 -3.35231 -1.48377 0
M  V30 8681 H 799.16 -3.11608 -3.94853 0
M  V30 8682 H 798.86 -4.78681 -3.4079 0
M  V30 8683 H 800.384 -4.38487 -4.24925 0
M  V30 8684 H 801.798 -5.30535 -2.17268 0
M  V30 8685 H 800.195 -5.79669 -1.55255 0
M  V30 8686 H 801.265 -4.81986 -0.530827 0
M  V30 8687 N 802.608 0.318715 -1.54344 0
M  V30 8688 C 803.838 1.07394 -1.76494 0
M  V30 8689 C 804.246 1.82031 -0.515881 0
M  V30 8690 O 803.589 1.7609 0.52325 0
M  V30 8691 C 803.651 2.11401 -2.90775 0
M  V30 8692 C 803.315 1.56118 -4.29507 0
M  V30 8693 C 804.312 1.00043 -5.10184 0
M  V30 8694 C 801.997 1.60215 -4.76063 0
M  V30 8695 C 803.991 0.487993 -6.35529 0
M  V30 8696 C 801.678 1.08584 -6.01376 0
M  V30 8697 C 802.676 0.529714 -6.80943 0
M  V30 8698 O 802.364 0.0211823 -8.03897 0
M  V30 8699 H 802.096 0.325061 -0.592715 0
M  V30 8700 H 804.65 0.36901 -2.02058 0
M  V30 8701 H 802.88 2.85524 -2.60793 0
M  V30 8702 H 804.569 2.72683 -3.00664 0
M  V30 8703 H 805.335 0.961811 -4.75367 0
M  V30 8704 H 801.214 2.02441 -4.14172 0
M  V30 8705 H 804.758 0.0532608 -6.9758 0
M  V30 8706 H 800.655 1.12155 -6.35682 0
M  V30 8707 H 801.423 0.136151 -8.18387 0
M  V30 8708 N 804.086 1.46499 0.581025 0
M  V30 8709 C 805.335 1.51162 1.3354 0
M  V30 8710 C 805.648 0.168433 1.94873 0
M  V30 8711 O 806.854 0.092883 2.71341 0
M  V30 8712 C 805.31 2.66362 2.42032 0
M  V30 8713 C 804.918 4.07109 1.86994 0
M  V30 8714 C 806.662 2.80297 3.188 0
M  V30 8715 C 804.569 5.13645 2.93125 0
M  V30 8716 H 803.499 0.562576 0.502021 0
M  V30 8717 H 806.15 1.72713 0.619863 0
M  V30 8718 H 804.532 2.38143 3.16392 0
M  V30 8719 H 805.706 4.45125 1.19166 0
M  V30 8720 H 804.021 3.97854 1.22887 0
M  V30 8721 H 806.618 3.5706 3.9801 0
M  V30 8722 H 806.961 1.87875 3.71495 0
M  V30 8723 H 807.494 3.0817 2.51547 0
M  V30 8724 H 804.233 6.07866 2.45315 0
M  V30 8725 H 803.753 4.80172 3.59437 0
M  V30 8726 H 805.432 5.39562 3.57046 0
M  V30 8727 N 805.565 -0.825799 1.34232 0
M  V30 8728 C 806.495 -1.95151 1.28212 0
M  V30 8729 C 807.476 -1.69345 0.160123 0
M  V30 8730 O 808.661 -1.90983 0.352019 0
M  V30 8731 C 805.791 -3.31554 1.03388 0
M  V30 8732 C 804.745 -3.71793 2.12023 0
M  V30 8733 C 804.071 -5.06147 1.72392 0
M  V30 8734 C 805.371 -3.84193 3.53826 0
M  V30 8735 H 807.065 -2.00445 2.22401 0
M  V30 8736 H 804.611 -0.962996 1.07063 0
M  V30 8737 H 806.564 -4.09889 0.978225 0
M  V30 8738 H 805.288 -3.26551 0.0564142 0
M  V30 8739 H 803.947 -2.95731 2.16654 0
M  V30 8740 H 803.595 -4.97628 0.733137 0
M  V30 8741 H 803.295 -5.34041 2.451 0
M  V30 8742 H 804.819 -5.86943 1.68317 0
M  V30 8743 H 806.233 -4.52806 3.51624 0
M  V30 8744 H 804.63 -4.23538 4.2513 0
M  V30 8745 H 805.7 -2.86272 3.91377 0
M  V30 8746 N 807.043 -1.17915 -1.04565 0
M  V30 8747 C 807.973 -0.925033 -2.14395 0
M  V30 8748 C 808.954 0.135375 -1.6956 0
M  V30 8749 O 810.139 -0.0161774 -1.94193 0
M  V30 8750 C 807.269 -0.444469 -3.44444 0
M  V30 8751 C 806.223 -1.44478 -4.02877 0
M  V30 8752 C 805.549 -0.821933 -5.28345 0
M  V30 8753 C 806.849 -2.81995 -4.39632 0
M  V30 8754 H 808.543 -1.84354 -2.35911 0
M  V30 8755 H 806.089 -0.887806 -1.13375 0
M  V30 8756 H 808.042 -0.254078 -4.20633 0
M  V30 8757 H 806.766 0.509592 -3.226 0
M  V30 8758 H 805.425 -1.62203 -3.28764 0
M  V30 8759 H 805.073 0.139161 -5.02807 0
M  V30 8760 H 804.773 -1.48976 -5.68401 0
M  V30 8761 H 806.297 -0.641959 -6.07216 0
M  V30 8762 H 807.711 -2.67952 -5.06828 0
M  V30 8763 H 806.108 -3.45414 -4.90723 0
M  V30 8764 H 807.178 -3.35927 -3.49687 0
M  V30 8765 N 808.521 1.23394 -0.980386 0
M  V30 8766 C 809.761 1.93543 -0.657288 0
M  V30 8767 C 810.125 1.74791 0.794477 0
M  V30 8768 O 811.326 2.39089 1.2284 0
M  V30 8769 C 809.597 3.42025 -1.03701 0
M  V30 8770 S 811.156 4.30871 -0.830379 0
M  V30 8771 H 807.974 0.669012 -0.240717 0
M  V30 8772 H 810.576 1.49478 -1.26002 0
M  V30 8773 H 809.28 3.53183 -2.09022 0
M  V30 8774 H 808.811 3.91091 -0.425559 0
M  V30 8775 H 810.826 4.95377 0.285719 0
M  V30 8776 N 809.999 0.752036 1.385 0
M  V30 8777 C 811.247 0.306895 1.99756 0
M  V30 8778 C 811.568 -1.11478 1.59992 0
M  V30 8779 O 810.838 -1.76206 0.856045 0
M  V30 8780 H 809.418 0.11048 0.738785 0
M  V30 8781 H 812.08 0.965785 1.69289 0
M  V30 8782 H 811.176 0.368797 3.09913 0
M  V30 8783 N 811.477 -1.49425 0.500989 0
M  V30 8784 C 812.724 -2.02453 -0.0435355 0
M  V30 8785 C 813.052 -1.38067 -1.36995 0
M  V30 8786 O 812.307 -0.505557 -1.89057 0
M  V30 8787 C 812.606 -3.56562 -0.24463 0
M  V30 8788 C 812.272 -4.39585 1.00379 0
M  V30 8789 C 810.934 -4.61992 1.346 0
M  V30 8790 C 813.286 -4.87881 1.83361 0
M  V30 8791 C 810.614 -5.2994 2.51755 0
M  V30 8792 C 812.966 -5.57119 2.99669 0
M  V30 8793 C 811.63 -5.77771 3.3427 0
M  V30 8794 H 810.9 -0.740829 -0.0159308 0
M  V30 8795 H 813.547 -1.79725 0.661143 0
M  V30 8796 H 811.852 -3.77969 -1.03183 0
M  V30 8797 H 813.549 -3.95185 -0.6804 0
M  V30 8798 H 810.139 -4.22385 0.727225 0
M  V30 8799 H 814.323 -4.70398 1.58237 0
M  V30 8800 H 809.579 -5.44133 2.788 0
M  V30 8801 H 813.753 -5.93516 3.64296 0
M  V30 8802 H 811.38 -6.30197 4.25154 0
M  V30 8803 N 812.955 -0.234822 -1.55841 0
M  V30 8804 C 814.366 0.270588 -1.84729 0
M  V30 8805 C 814.717 1.58494 -1.15646 0
M  V30 8806 O 813.842 2.12071 -0.430667 0
M  V30 8807 C 814.437 0.497733 -3.35124 0
M  V30 8808 C 812.996 0.947428 -3.64281 0
M  V30 8809 C 812.143 0.01787 -2.77294 0
M  V30 8810 H 815.094 -0.457691 -1.51957 0
M  V30 8811 H 815.115 1.34199 -3.56049 0
M  V30 8812 H 814.627 -0.459037 -3.85376 0
M  V30 8813 H 812.728 1.91709 -3.19497 0
M  V30 8814 H 812.841 0.812651 -4.72158 0
M  V30 8815 H 811.205 0.527071 -2.49187 0
M  V30 8816 H 811.988 -0.934056 -3.30349 0
M  V30 8817 N 814.433 1.57553 0.0384317 0
M  V30 8818 C 815.844 1.77258 0.586211 0
M  V30 8819 C 816.195 0.864706 1.76117 0
M  V30 8820 O 815.32 0.057141 2.16325 0
M  V30 8821 C 815.915 3.21453 1.07021 0
M  V30 8822 C 814.474 3.42387 1.56358 0
M  V30 8823 C 813.621 2.72801 0.497508 0
M  V30 8824 H 816.572 1.57585 -0.187796 0
M  V30 8825 H 816.593 3.27451 1.93794 0
M  V30 8826 H 816.105 3.87505 0.214851 0
M  V30 8827 H 814.206 2.81497 2.44111 0
M  V30 8828 H 814.319 4.50968 1.61754 0
M  V30 8829 H 812.683 2.36305 0.95038 0
M  V30 8830 H 813.466 3.41529 -0.348234 0
M  V30 8831 N 815.911 -0.310526 1.54511 0
M  V30 8832 C 817.158 -1.04691 1.73338 0
M  V30 8833 C 817.486 -1.87584 0.514038 0
M  V30 8834 O 816.741 -1.89096 -0.504119 0
M  V30 8835 C 817.04 -1.98942 2.96912 0
M  V30 8836 C 816.706 -1.321 4.31115 0
M  V30 8837 C 815.368 -1.13603 4.67598 0
M  V30 8838 C 817.72 -0.842362 5.14348 0
M  V30 8839 C 815.048 -0.459102 5.84901 0
M  V30 8840 C 817.4 -0.179202 6.32346 0
M  V30 8841 C 816.064 0.0178111 6.67498 0
M  V30 8842 H 815.334 -0.38309 0.634289 0
M  V30 8843 H 817.981 -0.322723 1.88761 0
M  V30 8844 H 816.286 -2.77856 2.76231 0
M  V30 8845 H 817.983 -2.55972 3.08674 0
M  V30 8846 H 814.573 -1.47502 4.02419 0
M  V30 8847 H 818.757 -0.973013 4.86668 0
M  V30 8848 H 814.013 -0.295385 6.10686 0
M  V30 8849 H 818.187 0.199619 6.96114 0
M  V30 8850 H 815.814 0.544356 7.58249 0
M  V30 8851 N 817.389 -1.46805 -0.573248 0
M  V30 8852 C 818.805 -1.31969 -0.897577 0
M  V30 8853 C 819.005 -0.298171 -1.99282 0
M  V30 8854 O 818.061 0.295953 -2.5076 0
M  V30 8855 C 819.374 -2.70859 -1.30598 0
M  V30 8856 C 820.922 -2.79022 -1.4183 0
M  V30 8857 C 821.397 -4.18516 -1.86033 0
M  V30 8858 N 822.888 -4.2098 -1.9321 0
M  V30 8859 C 823.623 -5.25814 -2.28707 0
M  V30 8860 N 823.119 -6.40968 -2.6293 0
M  V30 8861 N 824.912 -5.13184 -2.29343 0
M  V30 8862 H 817.063 -2.11869 0.150094 0
M  V30 8863 H 819.326 -0.947989 0.00447895 0
M  V30 8864 H 819.032 -3.46965 -0.575161 0
M  V30 8865 H 818.906 -3.01585 -2.26554 0
M  V30 8866 H 821.293 -2.03198 -2.13996 0
M  V30 8867 H 821.374 -2.51969 -0.441024 0
M  V30 8868 H 821.018 -4.94839 -1.14442 0
M  V30 8869 H 820.948 -4.42982 -2.84735 0
M  V30 8870 H 823.439 -3.37898 -1.69214 0
M  V30 8871 H 823.752 -7.16729 -2.88996 0
M  V30 8872 H 822.097 -6.44314 -2.60547 0
M  V30 8873 H 825.288 -4.22255 -2.02036 0
M  V30 8874 H 825.461 -5.94996 -2.56679 0
M  V30 8875 N 818.867 0.818669 -1.34668 0
M  V30 8876 C 820.092 1.61193 -1.30505 0
M  V30 8877 C 820.517 1.87734 0.117341 0
M  V30 8878 O 819.875 1.45591 1.08042 0
M  V30 8879 C 819.923 2.92733 -2.1057 0
M  V30 8880 O 819.027 3.85 -1.47813 0
M  V30 8881 H 818.368 0.490085 -0.44801 0
M  V30 8882 H 820.898 1.01701 -1.77534 0
M  V30 8883 H 820.908 3.42262 -2.22082 0
M  V30 8884 H 819.583 2.7274 -3.13984 0
M  V30 8885 H 818.16 3.43525 -1.45069 0
M  V30 8886 N 820.346 1.18468 1.03938 0
M  V30 8887 C 821.757 0.984808 1.58614 0
M  V30 8888 C 822.108 -0.465165 1.90606 0
M  V30 8889 O 821.233 -1.34274 1.69704 0
M  V30 8890 C 821.828 1.78135 2.8819 0
M  V30 8891 C 820.387 1.62579 3.39478 0
M  V30 8892 C 819.534 1.77501 2.13046 0
M  V30 8893 H 822.485 1.32993 0.865944 0
M  V30 8894 H 822.506 1.27119 3.58638 0
M  V30 8895 H 822.018 2.83661 2.64874 0
M  V30 8896 H 820.119 0.59595 3.67803 0
M  V30 8897 H 820.232 2.42463 4.13217 0
M  V30 8898 H 818.596 1.2046 2.24414 0
M  V30 8899 H 819.379 2.84464 1.92185 0
M  V30 8900 N 821.824 -1.22873 0.986916 0
M  V30 8901 C 822.734 -2.28277 0.540978 0
M  V30 8902 C 823.75 -1.69164 -0.407363 0
M  V30 8903 O 824.926 -1.99504 -0.275674 0
M  V30 8904 C 821.991 -3.46404 -0.143181 0
M  V30 8905 C 821.052 -4.20854 0.847375 0
M  V30 8906 C 820.285 -5.33341 0.19577 0
M  V30 8907 O 820.508 -5.61356 -1.0117 0
M  V30 8908 O 819.442 -5.95169 0.897623 0
M  V30 8909 H 823.268 -2.68578 1.41773 0
M  V30 8910 H 820.853 -1.28927 0.754867 0
M  V30 8911 H 822.735 -4.18096 -0.526676 0
M  V30 8912 H 821.41 -3.08041 -0.994593 0
M  V30 8913 H 820.317 -3.51459 1.28169 0
M  V30 8914 H 821.65 -4.63082 1.6678 0
M  V30 8915 N 823.302 -0.75937 -1.38099 0
M  V30 8916 C 824.718 -0.437606 -1.53483 0
M  V30 8917 C 824.918 1.04849 -1.72072 0
M  V30 8918 O 823.974 1.83448 -1.73502 0
M  V30 8919 C 825.287 -1.24189 -2.73857 0
M  V30 8920 C 826.835 -1.23255 -2.8771 0
M  V30 8921 C 827.31 -2.01992 -4.11051 0
M  V30 8922 N 828.801 -1.99282 -4.1814 0
M  V30 8923 C 829.536 -2.56996 -5.12583 0
M  V30 8924 N 829.032 -3.23446 -6.12662 0
M  V30 8925 N 830.825 -2.46894 -5.04975 0
M  V30 8926 H 822.976 -1.72242 -1.24283 0
M  V30 8927 H 825.239 -0.730507 -0.604205 0
M  V30 8928 H 824.945 -2.29449 -2.66545 0
M  V30 8929 H 824.819 -0.862672 -3.67203 0
M  V30 8930 H 827.206 -0.187988 -2.94501 0
M  V30 8931 H 827.287 -1.65132 -1.95359 0
M  V30 8932 H 826.931 -3.06462 -4.05023 0
M  V30 8933 H 826.861 -1.57505 -5.02494 0
M  V30 8934 H 829.352 -1.50893 -3.46467 0
M  V30 8935 H 829.665 -3.6489 -6.81231 0
M  V30 8936 H 828.01 -3.27543 -6.12977 0
M  V30 8937 H 831.201 -1.94604 -4.25731 0
M  V30 8938 H 831.374 -2.92168 -5.78396 0
M  V30 8939 N 824.78 1.49157 -0.508906 0
M  V30 8940 C 826.057 1.95363 0.0961913 0
M  V30 8941 C 826.437 1.45064 1.53362 0
M  V30 8942 O 825.785 0.667835 2.18523 0
M  V30 8943 C 825.995 3.49 0.000688881 0
M  V30 8944 C 827.343 4.24257 0.170632 0
M  V30 8945 O 828.367 3.5612 0.0754994 0
M  V30 8946 O 827.226 5.45267 0.366957 0
M  V30 8947 H 824.32 0.821984 0.0909489 0
M  V30 8948 H 826.866 1.59769 -0.572007 0
M  V30 8949 H 825.638 3.78269 -1.00143 0
M  V30 8950 H 825.261 3.91233 0.708682 0
M  V30 8951 N 826.258 0.243083 1.55714 0
M  V30 8952 C 827.19 -0.690766 2.18543 0
M  V30 8953 C 828.203 -1.14163 1.16064 0
M  V30 8954 O 829.392 -1.06906 1.42946 0
M  V30 8955 C 826.492 -1.95016 2.77168 0
M  V30 8956 C 825.665 -1.65137 4.05029 0
M  V30 8957 C 824.724 -2.75998 4.48009 0
M  V30 8958 O 823.75 -2.43547 5.14464 0
M  V30 8959 N 824.952 -4.05414 4.15476 0
M  V30 8960 H 827.717 -0.153203 2.99308 0
M  V30 8961 H 825.278 0.0628968 1.61778 0
M  V30 8962 H 827.27 -2.68414 3.0288 0
M  V30 8963 H 825.84 -2.39762 2.00582 0
M  V30 8964 H 825.06 -0.752768 3.86946 0
M  V30 8965 H 826.348 -1.42633 4.88399 0
M  V30 8966 H 825.746 -4.34613 3.62116 0
M  V30 8967 H 824.303 -4.75288 4.46032 0
M  V30 8968 N 827.736 -1.57571 -0.0300757 0
M  V30 8969 C 829.013 -1.80381 -0.756447 0
M  V30 8970 C 829.393 -0.840906 -1.93628 0
M  V30 8971 O 828.741 0.117143 -2.282 0
M  V30 8972 C 828.951 -3.2807 -1.19043 0
M  V30 8973 C 830.299 -3.93025 -1.60676 0
M  V30 8974 O 831.323 -3.32213 -1.28503 0
M  V30 8975 O 830.182 -5.00092 -2.20386 0
M  V30 8976 H 827.276 -0.741737 -0.365725 0
M  V30 8977 H 829.822 -1.69699 -0.00693177 0
M  V30 8978 H 828.594 -3.89748 -0.348128 0
M  V30 8979 H 828.217 -3.43637 -1.99999 0
M  V30 8980 N 829.214 0.302327 -1.54673 0
M  V30 8981 C 830.124 1.39542 -1.88587 0
M  V30 8982 C 831.14 1.55543 -0.779895 0
M  V30 8983 O 832.316 1.70233 -1.07623 0
M  V30 8984 C 829.381 2.7394 -2.12504 0
M  V30 8985 C 828.442 2.66935 -3.3622 0
M  V30 8986 C 827.675 3.94923 -3.58987 0
M  V30 8987 O 827.898 4.94218 -2.84789 0
M  V30 8988 O 826.832 3.96896 -4.52501 0
M  V30 8989 H 830.658 1.13784 -2.81579 0
M  V30 8990 H 828.243 0.49827 -1.40846 0
M  V30 8991 H 830.125 3.5346 -2.29443 0
M  V30 8992 H 828.8 2.99544 -1.22698 0
M  V30 8993 H 827.707 1.85892 -3.24646 0
M  V30 8994 H 829.04 2.46283 -4.26152 0
M  V30 8995 N 830.692 1.47107 0.565454 0
M  V30 8996 C 831.622 1.61846 1.68309 0
M  V30 8997 C 832.603 0.468159 1.63531 0
M  V30 8998 O 833.788 0.696504 1.8128 0
M  V30 8999 C 830.918 1.62474 3.06952 0
M  V30 9000 C 829.872 2.76649 3.26572 0
M  V30 9001 C 829.198 2.62345 4.65917 0
M  V30 9002 C 830.498 4.18319 3.12741 0
M  V30 9003 H 832.192 2.55407 1.5623 0
M  V30 9004 H 829.738 1.22916 0.750179 0
M  V30 9005 H 831.691 1.71378 3.84977 0
M  V30 9006 H 830.415 0.654692 3.19971 0
M  V30 9007 H 829.074 2.67242 2.50952 0
M  V30 9008 H 828.722 1.63386 4.75725 0
M  V30 9009 H 828.422 3.38936 4.79996 0
M  V30 9010 H 829.946 2.73165 5.46089 0
M  V30 9011 H 831.36 4.28745 3.80593 0
M  V30 9012 H 829.757 4.95632 3.38333 0
M  V30 9013 H 830.827 4.37263 2.09592 0
M  V30 9014 N 832.17 -0.811516 1.35101 0
M  V30 9015 C 833.417 -1.56835 1.28098 0
M  V30 9016 C 833.745 -1.93951 -0.14597 0
M  V30 9017 O 833 -1.61173 -1.11004 0
M  V30 9018 C 833.299 -2.87121 2.1283 0
M  V30 9019 C 832.965 -2.69245 3.61688 0
M  V30 9020 C 831.627 -2.64078 4.02264 0
M  V30 9021 C 833.979 -2.52122 4.56162 0
M  V30 9022 C 831.307 -2.39724 5.3549 0
M  V30 9023 C 833.659 -2.29298 5.89581 0
M  V30 9024 C 832.323 -2.2255 6.29307 0
M  V30 9025 H 831.593 -0.5739 0.468742 0
M  V30 9026 H 834.24 -0.93806 1.66951 0
M  V30 9027 H 832.545 -3.54502 1.66841 0
M  V30 9028 H 834.242 -3.44788 2.0475 0
M  V30 9029 H 830.832 -2.74112 3.29485 0
M  V30 9030 H 835.016 -2.5513 4.25702 0
M  V30 9031 H 830.272 -2.32965 5.65276 0
M  V30 9032 H 834.446 -2.15038 6.62368 0
M  V30 9033 H 832.073 -2.0344 7.32473 0
M  V30 9034 N 833.648 -1.19017 -1.03309 0
M  V30 9035 C 834.596 -0.920627 -2.13605 0
M  V30 9036 C 835.59 0.121969 -1.6896 0
M  V30 9037 O 836.796 -0.0268854 -1.7998 0
M  V30 9038 H 833.171 -0.280284 -0.697814 0
M  V30 9039 H 835.142 -1.85755 -2.33533 0
M  V30 9040 C 833.891 -0.471198 -3.44492 0
M  V30 9041 H 833.214 -1.26499 -3.7926 0
M  V30 9042 H 834.654 -0.321663 -4.22778 0
M  V30 9043 C 833.113 0.81411 -3.26916 0
M  V30 9044 O 833.643 1.87654 -3.55175 0
M  V30 9045 N 831.849 0.769695 -2.80221 0
M  V30 9046 H 831.396 -0.0951278 -2.57424 0
M  V30 9047 H 831.354 1.63008 -2.68842 0
M  V30 9048 N 835.127 1.22348 -0.993418 0
M  V30 9049 C 836.376 1.90422 -0.665019 0
M  V30 9050 C 836.689 1.78199 0.806512 0
M  V30 9051 O 837.895 2.41193 1.24652 0
M  V30 9052 C 836.351 3.41403 -1.13893 0
M  V30 9053 C 835.959 3.62262 -2.63572 0
M  V30 9054 C 837.703 4.15175 -0.884884 0
M  V30 9055 C 835.61 5.06947 -3.04564 0
M  V30 9056 H 834.54 0.713073 -0.245037 0
M  V30 9057 H 837.191 1.3856 -1.20305 0
M  V30 9058 H 835.573 3.9245 -0.529027 0
M  V30 9059 H 836.747 3.21705 -3.29913 0
M  V30 9060 H 835.062 3.01824 -2.86865 0
M  V30 9061 H 837.659 5.21813 -1.16684 0
M  V30 9062 H 838.002 4.15915 0.178982 0
M  V30 9063 H 838.535 3.70157 -1.45701 0
M  V30 9064 H 835.274 5.11346 -4.10128 0
M  V30 9065 H 834.794 5.48404 -2.42927 0
M  V30 9066 H 836.473 5.75374 -2.95894 0
M  V30 9067 N 836.605 0.766683 1.37694 0
M  V30 9068 C 837.854 0.325425 1.99057 0
M  V30 9069 C 838.167 -1.10275 1.61551 0
M  V30 9070 O 839.373 -1.64513 2.1598 0
M  V30 9071 C 837.829 0.530886 3.55963 0
M  V30 9072 C 837.437 1.96899 4.02411 0
M  V30 9073 C 839.181 0.152997 4.24224 0
M  V30 9074 C 837.088 2.12232 5.52007 0
M  V30 9075 H 836.018 0.117929 0.744721 0
M  V30 9076 H 838.669 0.945091 1.5729 0
M  V30 9077 H 837.051 -0.158162 3.95684 0
M  V30 9078 H 838.225 2.69258 3.73948 0
M  V30 9079 H 836.54 2.303 3.46916 0
M  V30 9080 H 839.137 0.24614 5.34133 0
M  V30 9081 H 839.48 -0.896096 4.06541 0
M  V30 9082 H 840.013 0.794398 3.89787 0
M  V30 9083 H 836.752 3.15442 5.7461 0
M  V30 9084 H 836.272 1.4435 5.82171 0
M  V30 9085 H 837.951 1.9185 6.17902 0
M  V30 9086 N 838.083 -1.48885 0.516809 0
M  V30 9087 C 839.015 -2.27357 -0.290061 0
M  V30 9088 C 840.028 -1.34558 -0.916406 0
M  V30 9089 O 841.217 -1.59715 -0.797073 0
M  V30 9090 C 838.317 -3.07496 -1.42476 0
M  V30 9091 C 837.49 -4.27982 -0.902793 0
M  V30 9092 C 836.549 -4.90038 -1.91701 0
M  V30 9093 O 835.575 -5.49643 -1.47922 0
M  V30 9094 N 836.777 -4.811 -3.24843 0
M  V30 9095 H 839.542 -2.97244 0.382884 0
M  V30 9096 H 837.103 -1.58064 0.35032 0
M  V30 9097 H 839.095 -3.45882 -2.10113 0
M  V30 9098 H 837.665 -2.40115 -2.00159 0
M  V30 9099 H 836.885 -3.94167 -0.0508272 0
M  V30 9100 H 838.173 -5.06003 -0.532723 0
M  V30 9101 H 837.571 -4.33801 -3.63088 0
M  V30 9102 H 836.128 -5.23625 -3.8815 0
M  V30 9103 N 839.561 -0.251338 -1.55583 0
M  V30 9104 C 840.491 0.640437 -2.24545 0
M  V30 9105 C 841.472 1.17781 -1.22726 0
M  V30 9106 O 842.657 1.21633 -1.5139 0
M  V30 9107 C 839.787 1.8355 -2.94834 0
M  V30 9108 C 838.741 1.4307 -4.03379 0
M  V30 9109 C 838.067 2.70695 -4.61116 0
M  V30 9110 C 839.367 0.59848 -5.1886 0
M  V30 9111 H 841.061 0.0653772 -2.99329 0
M  V30 9112 H 838.607 0.0300042 -1.43969 0
M  V30 9113 H 840.56 2.46505 -3.4178 0
M  V30 9114 H 839.284 2.43601 -2.17546 0
M  V30 9115 H 837.943 0.824474 -3.57209 0
M  V30 9116 H 837.591 3.28954 -3.80524 0
M  V30 9117 H 837.291 2.44332 -5.34393 0
M  V30 9118 H 838.815 3.34541 -5.10798 0
M  V30 9119 H 840.229 1.13244 -5.62004 0
M  V30 9120 H 838.626 0.430728 -5.98552 0
M  V30 9121 H 839.696 -0.38829 -4.83343 0
M  V30 9122 N 841.039 1.57585 0.0217189 0
M  V30 9123 C 842.287 1.89231 0.709641 0
M  V30 9124 C 842.608 0.849964 1.75501 0
M  V30 9125 O 841.878 -0.115485 1.95559 0
M  V30 9126 H 840.458 0.69838 0.265092 0
M  V30 9127 H 843.12 1.94895 -0.0140688 0
M  V30 9128 H 842.216 2.88333 1.19459 0
M  V30 9129 N 842.517 -0.29412 1.54831 0
M  V30 9130 C 843.467 -1.36476 1.82643 0
M  V30 9131 C 844.451 -1.45638 0.683984 0
M  V30 9132 O 845.643 -1.49675 0.944801 0
M  V30 9133 C 842.772 -2.72865 2.08326 0
M  V30 9134 C 841.858 -2.67898 3.28773 0
M  V30 9135 N 842.249 -2.32547 4.49172 0
M  V30 9136 C 840.547 -2.98991 3.30939 0
M  V30 9137 C 841.248 -2.37048 5.31209 0
M  V30 9138 N 840.224 -2.74679 4.69097 0
M  V30 9139 H 844.026 -1.08119 2.7329 0
M  V30 9140 H 841.54 -0.502718 1.54423 0
M  V30 9141 H 843.537 -3.5007 2.264 0
M  V30 9142 H 842.197 -3.02127 1.1895 0
M  V30 9143 H 843.208 -2.04883 4.7565 0
M  V30 9144 H 839.885 -3.33104 2.51691 0
M  V30 9145 H 841.275 -2.12457 6.37426 0
M  V30 9146 N 843.995 -1.47404 -0.557645 0
M  V30 9147 C 845.242 -1.54007 -1.31484 0
M  V30 9148 C 845.57 -0.202162 -1.93447 0
M  V30 9149 O 844.825 0.804901 -1.78381 0
M  V30 9150 C 845.124 -2.6061 -2.44575 0
M  V30 9151 C 844.79 -4.03896 -2.00446 0
M  V30 9152 C 843.452 -4.42901 -1.88127 0
M  V30 9153 C 845.804 -4.93804 -1.66754 0
M  V30 9154 C 843.132 -5.6965 -1.40411 0
M  V30 9155 C 845.484 -6.21016 -1.20509 0
M  V30 9156 C 844.148 -6.58903 -1.06786 0
M  V30 9157 H 843.418 -0.563552 -0.481134 0
M  V30 9158 H 846.065 -1.81001 -0.625375 0
M  V30 9159 H 844.37 -2.27371 -3.19076 0
M  V30 9160 H 846.067 -2.62941 -3.02759 0
M  V30 9161 H 842.657 -3.73077 -2.10977 0
M  V30 9162 H 846.841 -4.64369 -1.75144 0
M  V30 9163 H 842.097 -5.97755 -1.2845 0
M  V30 9164 H 846.271 -6.90095 -0.935001 0
M  V30 9165 H 843.898 -7.57008 -0.695891 0
M  V30 9166 N 845.473 0.80434 -1.35529 0
M  V30 9167 C 846.383 1.94784 -1.30753 0
M  V30 9168 C 847.399 1.72703 -0.212071 0
M  V30 9169 O 848.575 1.96494 -0.441841 0
M  V30 9170 C 845.64 3.29406 -1.08133 0
M  V30 9171 C 844.701 3.64367 -2.27013 0
M  V30 9172 C 843.934 4.92566 -2.05463 0
M  V30 9173 O 844.157 5.61166 -1.02222 0
M  V30 9174 O 843.091 5.25838 -2.92879 0
M  V30 9175 H 846.917 2.01761 -2.26994 0
M  V30 9176 H 844.502 0.942448 -1.15924 0
M  V30 9177 H 846.384 4.09995 -0.973756 0
M  V30 9178 H 845.059 3.23355 -0.149444 0
M  V30 9179 H 843.966 2.84146 -2.43335 0
M  V30 9180 H 845.299 3.75125 -3.18656 0
M  V30 9181 N 846.951 1.19563 1.02676 0
M  V30 9182 C 848.198 0.999568 1.7611 0
M  V30 9183 C 848.526 -0.469432 1.8875 0
M  V30 9184 O 847.781 -1.36481 1.40255 0
M  V30 9185 C 848.08 1.61619 3.18769 0
M  V30 9186 C 847.746 3.11366 3.26132 0
M  V30 9187 C 846.408 3.52234 3.27848 0
M  V30 9188 C 848.76 4.07374 3.25109 0
M  V30 9189 C 846.088 4.87658 3.26201 0
M  V30 9190 C 848.44 5.42731 3.25002 0
M  V30 9191 C 847.104 5.83027 3.25017 0
M  V30 9192 H 846.374 0.365768 0.644434 0
M  V30 9193 H 849.021 1.48838 1.20497 0
M  V30 9194 H 847.326 1.04974 3.77476 0
M  V30 9195 H 849.023 1.43975 3.74262 0
M  V30 9196 H 845.613 2.78804 3.25525 0
M  V30 9197 H 849.797 3.76842 3.22961 0
M  V30 9198 H 845.053 5.18156 3.24537 0
M  V30 9199 H 849.227 6.16879 3.23161 0
M  V30 9200 H 846.854 6.87936 3.23494 0
M  V30 9201 N 848.429 -1.21819 0.999893 0
M  V30 9202 C 849.359 -2.26282 0.576096 0
M  V30 9203 C 850.34 -1.65317 -0.400537 0
M  V30 9204 O 851.525 -1.92028 -0.28964 0
M  V30 9205 C 848.655 -3.47147 -0.103145 0
M  V30 9206 C 847.609 -4.20594 0.792745 0
M  V30 9207 C 846.935 -5.34696 -0.0198026 0
M  V30 9208 C 848.235 -4.78533 2.09293 0
M  V30 9209 H 849.929 -2.61984 1.4493 0
M  V30 9210 H 847.475 -1.25935 0.698316 0
M  V30 9211 H 849.428 -4.1939 -0.411068 0
M  V30 9212 H 848.152 -3.1056 -1.01094 0
M  V30 9213 H 846.811 -3.50194 1.08442 0
M  V30 9214 H 846.459 -4.94352 -0.928729 0
M  V30 9215 H 846.159 -5.84764 0.576661 0
M  V30 9216 H 847.683 -6.09752 -0.321659 0
M  V30 9217 H 849.097 -5.42682 1.8485 0
M  V30 9218 H 847.494 -5.38968 2.63881 0
M  V30 9219 H 848.564 -3.98197 2.76708 0
M  V30 9220 N 849.908 -0.773975 -1.37286 0
M  V30 9221 C 851.319 -0.404433 -1.82267 0
M  V30 9222 C 851.67 1.06971 -1.64474 0
M  V30 9223 O 850.795 1.82867 -1.15708 0
M  V30 9224 C 851.39 -0.727298 -3.30902 0
M  V30 9225 C 849.949 -0.410784 -3.74152 0
M  V30 9226 C 849.096 -0.969983 -2.59782 0
M  V30 9227 H 852.047 -0.968437 -1.25726 0
M  V30 9228 H 852.068 -0.0127575 -3.80498 0
M  V30 9229 H 851.58 -1.80026 -3.4382 0
M  V30 9230 H 849.681 0.65477 -3.66802 0
M  V30 9231 H 849.794 -0.920592 -4.70172 0
M  V30 9232 H 848.158 -0.394094 -2.51633 0
M  V30 9233 H 848.941 -2.04839 -2.75492 0
M  V30 9234 N 851.386 1.48609 -0.524698 0
M  V30 9235 C 852.797 1.86516 -0.0828846 0
M  V30 9236 C 853.148 1.43478 1.33822 0
M  V30 9237 O 852.273 0.823139 2.00133 0
M  V30 9238 C 852.868 3.38495 -0.143639 0
M  V30 9239 C 851.427 3.75615 0.242951 0
M  V30 9240 C 850.574 2.72649 -0.505747 0
M  V30 9241 H 853.525 1.40589 -0.736233 0
M  V30 9242 H 853.546 3.74977 0.645955 0
M  V30 9243 H 853.058 3.69789 -1.17805 0
M  V30 9244 H 851.159 3.49935 1.27971 0
M  V30 9245 H 851.272 4.7901 -0.0929834 0
M  V30 9246 H 849.636 2.54656 0.0473482 0
M  V30 9247 H 850.419 3.06786 -1.54069 0
M  V30 9248 N 852.864 0.259585 1.55447 0
M  V30 9249 C 854.094 -0.364863 2.03353 0
M  V30 9250 C 854.502 -1.5116 1.13786 0
M  V30 9251 O 853.845 -1.83109 0.147283 0
M  V30 9252 C 853.907 -0.922587 3.4746 0
M  V30 9253 C 853.571 0.0935207 4.56904 0
M  V30 9254 C 854.568 0.907571 5.11917 0
M  V30 9255 C 852.253 0.223276 5.01804 0
M  V30 9256 C 854.247 1.83771 6.10333 0
M  V30 9257 C 851.934 1.15691 6.00049 0
M  V30 9258 C 852.932 1.96264 6.54194 0
M  V30 9259 O 852.62 2.88052 7.50521 0
M  V30 9260 H 852.352 -0.0893313 0.670072 0
M  V30 9261 H 854.906 0.384821 2.01763 0
M  V30 9262 H 853.136 -1.72206 3.4624 0
M  V30 9263 H 854.825 -1.45846 3.78792 0
M  V30 9264 H 855.591 0.817979 4.78052 0
M  V30 9265 H 851.47 -0.393834 4.59315 0
M  V30 9266 H 855.014 2.46703 6.52521 0
M  V30 9267 H 850.911 1.24738 6.33333 0
M  V30 9268 H 851.679 2.82557 7.68182 0
M  V30 9269 N 854.342 -1.57594 -0.0133615 0
M  V30 9270 C 855.588 -1.91105 -0.696457 0
M  V30 9271 C 855.943 -0.859872 -1.72116 0
M  V30 9272 O 855.236 0.129579 -1.91161 0
M  V30 9273 C 855.43 -3.29121 -1.39336 0
M  V30 9274 C 855.259 -4.47565 -0.437666 0
M  V30 9275 C 854.029 -5.05272 -0.0529454 0
M  V30 9276 C 856.227 -5.13479 0.290537 0
M  V30 9277 N 854.209 -6.07232 0.902355 0
M  V30 9278 C 855.58 -6.10147 1.10097 0
M  V30 9279 C 857.635 -4.96627 0.355804 0
M  V30 9280 C 856.338 -6.91778 1.97069 0
M  V30 9281 C 858.364 -5.78833 1.21271 0
M  V30 9282 C 857.726 -6.75083 2.01102 0
M  V30 9283 H 853.825 -0.747882 -0.228464 0
M  V30 9284 H 856.409 -1.94651 0.0438462 0
M  V30 9285 H 854.58 -3.26474 -2.10403 0
M  V30 9286 H 856.312 -3.501 -2.03008 0
M  V30 9287 H 853.067 -4.71747 -0.418486 0
M  V30 9288 H 853.491 -6.6289 1.37498 0
M  V30 9289 H 858.133 -4.22077 -0.247105 0
M  V30 9290 H 855.851 -7.65662 2.58433 0
M  V30 9291 H 859.437 -5.67838 1.26694 0
M  V30 9292 H 858.317 -7.37587 2.66337 0
M  V30 9293 N 855.82 0.285905 -1.54985 0
M  V30 9294 C 857.097 1.0397 -1.65679 0
M  V30 9295 C 857.477 2.04725 -0.514851 0
M  V30 9296 O 856.825 2.23257 0.486663 0
M  V30 9297 C 857.035 1.70807 -3.04345 0
M  V30 9298 C 858.383 2.22447 -3.61666 0
M  V30 9299 O 859.407 1.80815 -3.06895 0
M  V30 9300 O 858.266 2.98773 -4.57599 0
M  V30 9301 H 855.36 0.481473 -0.672394 0
M  V30 9302 H 857.906 0.282789 -1.67327 0
M  V30 9303 H 856.678 0.977271 -3.789 0
M  V30 9304 H 856.301 2.53217 -3.06541 0
M  V30 9305 N 857.298 1.47698 0.54982 0
M  V30 9306 C 858.246 1.61156 1.67724 0
M  V30 9307 C 859.24 0.478606 1.62498 0
M  V30 9308 O 860.446 0.656661 1.67595 0
M  V30 9309 H 856.821 0.507304 0.55511 0
M  V30 9310 H 858.792 2.55884 1.53512 0
M  V30 9311 C 857.541 1.64994 3.06059 0
M  V30 9312 H 856.864 2.51525 3.10765 0
M  V30 9313 H 858.304 1.78459 3.84615 0
M  V30 9314 C 856.763 0.384677 3.34697 0
M  V30 9315 O 857.293 -0.511057 3.98436 0
M  V30 9316 N 855.499 0.262434 2.89413 0
M  V30 9317 H 855.046 0.99229 2.37721 0
M  V30 9318 H 855.004 -0.583177 3.08944 0
M  V30 9319 N 858.776 -0.797141 1.35954 0
M  V30 9320 C 860.025 -1.54983 1.29086 0
M  V30 9321 C 860.338 -1.95167 -0.130003 0
M  V30 9322 O 861.544 -2.69596 -0.32101 0
M  V30 9323 C 860 -2.79738 2.26439 0
M  V30 9324 C 859.608 -2.46753 3.73921 0
M  V30 9325 C 861.352 -3.57733 2.28533 0
M  V30 9326 C 859.259 -3.67858 4.63071 0
M  V30 9327 H 858.189 -0.581766 0.479651 0
M  V30 9328 H 860.84 -0.87541 1.61273 0
M  V30 9329 H 859.222 -3.48939 1.87236 0
M  V30 9330 H 860.396 -1.85499 4.21814 0
M  V30 9331 H 858.711 -1.81985 3.74527 0
M  V30 9332 H 861.308 -4.47699 2.92351 0
M  V30 9333 H 861.651 -3.95754 1.29169 0
M  V30 9334 H 862.184 -2.95504 2.66313 0
M  V30 9335 H 858.923 -3.34939 5.63468 0
M  V30 9336 H 858.443 -4.28305 4.19898 0
M  V30 9337 H 860.122 -4.34977 4.78961 0
M  V30 9338 N 860.254 -1.20106 -1.0204 0
M  V30 9339 C 861.479 -1.0351 -1.79723 0
M  V30 9340 C 861.904 0.411328 -1.83548 0
M  V30 9341 O 861.262 1.29608 -1.26773 0
M  V30 9342 C 861.31 -1.61876 -3.22224 0
M  V30 9343 O 860.414 -0.853813 -4.03465 0
M  V30 9344 H 859.755 -0.365299 -0.554484 0
M  V30 9345 H 862.285 -1.59316 -1.28373 0
M  V30 9346 H 862.295 -1.65451 -3.72948 0
M  V30 9347 H 860.97 -2.67148 -3.18755 0
M  V30 9348 H 859.547 -0.891983 -3.62075 0
M  V30 9349 N 861.732 1.21287 -1.00634 0
M  V30 9350 C 863.009 1.86 -0.605257 0
M  V30 9351 C 863.389 1.90139 0.917072 0
M  V30 9352 O 862.737 1.40169 1.80458 0
M  V30 9353 C 862.947 3.26183 -1.24119 0
M  V30 9354 C 864.295 4.02562 -1.35015 0
M  V30 9355 O 865.319 3.35499 -1.19661 0
M  V30 9356 O 864.178 5.22638 -1.59726 0
M  V30 9357 H 861.272 0.800549 -0.207486 0
M  V30 9358 H 863.818 1.28959 -1.10307 0
M  V30 9359 H 862.59 3.17878 -2.28186 0
M  V30 9360 H 862.213 3.90845 -0.729807 0
M  V30 9361 N 863.21 0.781244 1.36873 0
M  V30 9362 C 864.173 0.180094 2.28491 0
M  V30 9363 C 865.173 -0.617798 1.48458 0
M  V30 9364 O 866.363 -0.439991 1.68552 0
M  V30 9365 C 863.495 -0.751741 3.32508 0
M  V30 9366 H 864.688 0.987837 2.83164 0
M  V30 9367 H 862.241 0.550102 1.463 0
M  V30 9368 H 862.976 -1.58413 2.82977 0
M  V30 9369 H 862.761 -0.181649 3.91679 0
M  V30 9370 H 864.251 -1.16748 4.00949 0
M  V30 9371 N 864.689 -1.48329 0.532571 0
M  V30 9372 C 865.652 -2.2816 -0.218069 0
M  V30 9373 C 866.652 -1.35526 -0.865409 0
M  V30 9374 O 867.842 -1.58394 -0.725061 0
M  V30 9375 C 864.974 -3.1448 -1.31586 0
M  V30 9376 H 866.167 -2.95987 0.482865 0
M  V30 9377 H 863.72 -1.53612 0.288603 0
M  V30 9378 H 864.455 -2.5129 -2.04997 0
M  V30 9379 H 864.24 -3.82625 -0.856779 0
M  V30 9380 H 865.73 -3.74693 -1.84377 0
M  V30 9381 N 866.167 -0.267825 -1.55308 0
M  V30 9382 C 867.114 0.6228 -2.22238 0
M  V30 9383 C 868.084 1.15536 -1.19334 0
M  V30 9384 O 869.269 1.206 -1.47852 0
M  V30 9385 C 866.409 1.80447 -2.94164 0
M  V30 9386 C 865.522 1.30646 -4.11771 0
M  V30 9387 C 864.657 2.44935 -4.7136 0
M  V30 9388 C 863.696 1.92099 -5.81175 0
M  V30 9389 N 862.833 2.99834 -6.34857 0
M  V30 9390 H 867.673 0.0453874 -2.97965 0
M  V30 9391 H 865.21 0.0106371 -1.47096 0
M  V30 9392 H 867.168 2.49896 -3.34078 0
M  V30 9393 H 865.798 2.35403 -2.20874 0
M  V30 9394 H 864.85 0.505314 -3.77029 0
M  V30 9395 H 866.162 0.879409 -4.90987 0
M  V30 9396 H 865.316 3.2239 -5.13955 0
M  V30 9397 H 864.055 2.90951 -3.91406 0
M  V30 9398 H 863.06 1.13122 -5.38037 0
M  V30 9399 H 864.285 1.47027 -6.62993 0
M  V30 9400 H 862.231 3.45246 -5.578 0
M  V30 9401 H 862.148 2.61524 -7.09324 0
M  V30 9402 H 863.416 3.77286 -6.82111 0
M  V30 9403 N 867.645 1.57599 0.00500368 0
M  V30 9404 C 868.922 1.81561 0.727654 0
M  V30 9405 C 869.302 0.871604 1.92266 0
M  V30 9406 O 868.65 -0.0808232 2.28357 0
M  V30 9407 C 868.86 3.29922 1.13809 0
M  V30 9408 C 870.208 3.95531 1.54403 0
M  V30 9409 O 871.232 3.34215 1.23202 0
M  V30 9410 O 870.091 5.03535 2.12402 0
M  V30 9411 H 867.185 0.747462 0.353878 0
M  V30 9412 H 869.731 1.69688 -0.0200667 0
M  V30 9413 H 868.503 3.90253 0.286078 0
M  V30 9414 H 868.126 3.46775 1.94507 0
M  V30 9415 N 869.123 -0.277682 1.55134 0
M  V30 9416 C 870.053 -1.34742 1.90701 0
M  V30 9417 C 871.034 -1.51757 0.768354 0
M  V30 9418 O 872.219 -1.64879 1.02609 0
M  V30 9419 C 869.349 -2.70775 2.17481 0
M  V30 9420 C 868.303 -2.68497 3.33307 0
M  V30 9421 C 867.629 -4.08037 3.45557 0
M  V30 9422 C 868.929 -2.28178 4.69821 0
M  V30 9423 H 870.623 -1.05224 2.803 0
M  V30 9424 H 868.169 -0.504738 1.34864 0
M  V30 9425 H 870.122 -3.45719 2.40949 0
M  V30 9426 H 868.846 -3.01867 1.24676 0
M  V30 9427 H 867.505 -1.9601 3.09799 0
M  V30 9428 H 867.153 -4.36344 2.50226 0
M  V30 9429 H 866.853 -4.07409 4.23429 0
M  V30 9430 H 868.377 -4.84726 3.71312 0
M  V30 9431 H 869.791 -2.92843 4.92865 0
M  V30 9432 H 868.188 -2.3872 5.50575 0
M  V30 9433 H 869.258 -1.23308 4.6896 0
M  V30 9434 N 870.601 -1.47988 -0.541979 0
M  V30 9435 C 871.847 -1.55623 -1.30036 0
M  V30 9436 C 872.18 -0.224254 -1.92901 0
M  V30 9437 O 871.455 0.768629 -1.78668 0
M  V30 9438 C 871.738 -2.68562 -2.39888 0
M  V30 9439 C 871.591 -4.11426 -1.81792 0
M  V30 9440 C 872.91 -2.77325 -3.41729 0
M  V30 9441 H 870.029 -0.566498 -0.471433 0
M  V30 9442 H 872.671 -1.8011 -0.604998 0
M  V30 9443 H 870.821 -2.47814 -2.992 0
M  V30 9444 H 872.493 -4.43581 -1.26624 0
M  V30 9445 H 870.736 -4.18989 -1.12386 0
M  V30 9446 H 871.407 -4.8625 -2.61276 0
M  V30 9447 H 873.883 -2.96085 -2.92357 0
M  V30 9448 H 872.759 -3.58097 -4.16002 0
M  V30 9449 H 873.02 -1.84995 -4.01534 0
M  V30 9450 N 872.079 0.78992 -1.36375 0
M  V30 9451 C 873.304 1.58389 -1.33895 0
M  V30 9452 C 873.729 1.8794 0.0774934 0
M  V30 9453 O 873.087 1.4785 1.0493 0
M  V30 9454 C 873.135 2.88201 -2.16732 0
M  V30 9455 O 872.239 3.81778 -1.55946 0
M  V30 9456 H 871.58 0.480471 -0.458305 0
M  V30 9457 H 874.11 0.979119 -1.79651 0
M  V30 9458 H 874.12 3.37475 -2.29292 0
M  V30 9459 H 872.795 2.66019 -3.19698 0
M  V30 9460 H 871.372 3.40371 -1.52323 0
M  V30 9461 N 873.557 1.20646 1.01402 0
M  V30 9462 C 874.973 0.961866 1.27359 0
M  V30 9463 C 875.173 -0.357083 1.98311 0
M  V30 9464 O 874.229 -1.08498 2.28001 0
M  V30 9465 C 875.542 2.14627 2.10609 0
M  V30 9466 C 877.09 2.18753 2.23866 0
M  V30 9467 C 877.565 3.36686 3.10494 0
M  V30 9468 N 879.056 3.36716 3.18083 0
M  V30 9469 C 879.791 4.24615 3.85343 0
M  V30 9470 N 879.287 5.22697 4.54708 0
M  V30 9471 N 881.08 4.12449 3.81893 0
M  V30 9472 H 873.231 2.05481 0.537721 0
M  V30 9473 H 875.494 0.899292 0.299963 0
M  V30 9474 H 875.2 3.10159 1.65814 0
M  V30 9475 H 875.074 2.12935 3.11349 0
M  V30 9476 H 877.461 1.23782 2.67885 0
M  V30 9477 H 877.542 2.24492 1.22626 0
M  V30 9478 H 877.186 4.31945 2.67181 0
M  V30 9479 H 877.116 3.28185 4.11828 0
M  V30 9480 H 879.607 2.65728 2.68695 0
M  V30 9481 H 879.92 5.86087 5.03708 0
M  V30 9482 H 878.265 5.26631 4.53525 0
M  V30 9483 H 881.456 3.35091 3.26851 0
M  V30 9484 H 881.629 4.81162 4.34035 0
M  V30 9485 N 875.035 -1.20752 1.01276 0
M  V30 9486 C 875.965 -2.25658 0.600064 0
M  V30 9487 C 876.946 -1.65733 -0.38298 0
M  V30 9488 O 878.131 -1.92324 -0.269256 0
M  V30 9489 C 875.261 -3.47237 -0.0663197 0
M  V30 9490 C 874.215 -4.1973 0.83731 0
M  V30 9491 C 873.541 -5.34687 0.0369102 0
M  V30 9492 C 874.841 -4.76286 2.14357 0
M  V30 9493 H 876.535 -2.60432 1.477 0
M  V30 9494 H 874.081 -1.25187 0.711634 0
M  V30 9495 H 876.034 -4.19803 -0.366563 0
M  V30 9496 H 874.758 -3.11615 -0.977944 0
M  V30 9497 H 873.417 -3.49024 1.1215 0
M  V30 9498 H 873.065 -4.95309 -0.876244 0
M  V30 9499 H 872.765 -5.84119 0.63865 0
M  V30 9500 H 874.289 -6.10059 -0.256968 0
M  V30 9501 H 875.703 -5.40691 1.90595 0
M  V30 9502 H 874.1 -5.36139 2.69583 0
M  V30 9503 H 875.17 -3.9524 2.80916 0
M  V30 9504 N 876.513 -0.788492 -1.36457 0
M  V30 9505 C 877.443 -0.200468 -2.32638 0
M  V30 9506 C 878.424 0.664031 -1.56603 0
M  V30 9507 O 879.609 0.598045 -1.84762 0
M  V30 9508 C 876.739 0.666274 -3.40849 0
M  V30 9509 C 875.693 -0.0982574 -4.27887 0
M  V30 9510 C 875.019 0.889018 -5.27258 0
M  V30 9511 C 876.319 -1.28692 -5.06197 0
M  V30 9512 H 878.013 -1.00399 -2.82065 0
M  V30 9513 H 875.559 -0.484237 -1.35614 0
M  V30 9514 H 877.512 1.08757 -4.07124 0
M  V30 9515 H 876.236 1.50249 -2.89987 0
M  V30 9516 H 874.895 -0.500525 -3.63167 0
M  V30 9517 H 874.543 1.72024 -4.7267 0
M  V30 9518 H 874.243 0.381909 -5.86358 0
M  V30 9519 H 875.767 1.30891 -5.96406 0
M  V30 9520 H 877.181 -0.941429 -5.65517 0
M  V30 9521 H 875.578 -1.72726 -5.74705 0
M  V30 9522 H 876.648 -2.08273 -4.37893 0
M  V30 9523 N 877.991 1.48044 -0.54043 0
M  V30 9524 C 879.237 2.02797 -0.0101718 0
M  V30 9525 C 879.57 1.41565 1.32939 0
M  V30 9526 O 878.845 0.565139 1.86109 0
M  V30 9527 C 879.128 3.59959 0.100758 0
M  V30 9528 C 878.981 4.31654 -1.26471 0
M  V30 9529 C 880.3 4.32347 0.822455 0
M  V30 9530 H 877.419 0.736982 -0.00517052 0
M  V30 9531 H 880.061 1.76656 -0.69948 0
M  V30 9532 H 878.211 3.82363 0.687824 0
M  V30 9533 H 879.883 4.20639 -1.89369 0
M  V30 9534 H 878.126 3.92663 -1.84386 0
M  V30 9535 H 878.797 5.401 -1.13998 0
M  V30 9536 H 881.273 4.14835 0.324164 0
M  V30 9537 H 880.149 5.41978 0.868993 0
M  V30 9538 H 880.41 4.00369 1.87501 0
M  V30 9539 N 879.47 0.276058 1.55163 0
M  V30 9540 C 880.716 -0.340959 1.99913 0
M  V30 9541 C 881.049 -1.55434 1.16422 0
M  V30 9542 O 880.324 -1.93081 0.234517 0
M  V30 9543 C 880.607 -0.722211 3.52783 0
M  V30 9544 C 880.46 0.498575 4.47028 0
M  V30 9545 C 881.779 -1.5583 4.11589 0
M  V30 9546 H 878.898 -0.122455 0.726756 0
M  V30 9547 H 881.54 0.38319 1.86096 0
M  V30 9548 H 879.69 -1.33919 3.64689 0
M  V30 9549 H 881.362 1.13713 4.47065 0
M  V30 9550 H 879.605 1.13646 4.18649 0
M  V30 9551 H 880.276 0.188041 5.5168 0
M  V30 9552 H 882.752 -1.03722 4.02965 0
M  V30 9553 H 881.628 -1.79387 5.1876 0
M  V30 9554 H 881.889 -2.53963 3.61877 0
M  V30 9555 N 880.948 -1.576 0.00335426 0
M  V30 9556 C 882.225 -1.81945 -0.718015 0
M  V30 9557 C 882.605 -0.881788 -1.91801 0
M  V30 9558 O 881.953 0.0687118 -2.28397 0
M  V30 9559 C 882.163 -3.30521 -1.12058 0
M  V30 9560 C 883.511 -3.96345 -1.52303 0
M  V30 9561 O 884.535 -3.34864 -1.21428 0
M  V30 9562 O 883.394 -5.04655 -2.09728 0
M  V30 9563 H 880.488 -0.749328 -0.34991 0
M  V30 9564 H 883.034 -1.69675 0.0290654 0
M  V30 9565 H 881.806 -3.90399 -0.265378 0
M  V30 9566 H 881.429 -3.47802 -1.92665 0
M  V30 9567 N 882.426 0.269451 -1.5528 0
M  V30 9568 C 883.837 0.840233 -1.66724 0
M  V30 9569 C 884.188 1.86909 -0.596621 0
M  V30 9570 O 883.313 2.14817 0.261246 0
M  V30 9571 C 883.908 1.5308 -3.02245 0
M  V30 9572 C 882.467 2.04957 -3.15705 0
M  V30 9573 C 881.614 0.892838 -2.62533 0
M  V30 9574 H 884.565 0.0457236 -1.58634 0
M  V30 9575 H 884.586 2.39792 -2.95432 0
M  V30 9576 H 884.098 0.781741 -3.80145 0
M  V30 9577 H 882.199 2.82813 -2.42585 0
M  V30 9578 H 882.312 2.26244 -4.22316 0
M  V30 9579 H 880.676 1.28719 -2.19781 0
M  V30 9580 H 881.459 0.157229 -3.4294 0
M  V30 9581 N 883.904 1.48273 0.534124 0
M  V30 9582 C 884.851 1.62487 1.6391 0
M  V30 9583 C 885.821 0.467062 1.59398 0
M  V30 9584 O 887.006 0.690029 1.77885 0
M  V30 9585 C 884.146 1.66671 3.02183 0
M  V30 9586 C 883.259 2.9353 3.16961 0
M  V30 9587 C 882.394 2.88902 4.45768 0
M  V30 9588 C 881.433 4.10483 4.54059 0
M  V30 9589 N 880.57 4.03956 5.74251 0
M  V30 9590 H 885.41 2.56851 1.51101 0
M  V30 9591 H 882.947 1.27381 0.735704 0
M  V30 9592 H 884.905 1.67079 3.82283 0
M  V30 9593 H 883.535 0.758011 3.13774 0
M  V30 9594 H 882.587 3.02886 2.3014 0
M  V30 9595 H 883.899 3.83501 3.18949 0
M  V30 9596 H 883.053 2.87688 5.34154 0
M  V30 9597 H 881.792 1.96652 4.46295 0
M  V30 9598 H 880.797 4.11977 3.64081 0
M  V30 9599 H 882.022 5.03887 4.55274 0
M  V30 9600 H 879.968 3.14525 5.75682 0
M  V30 9601 H 879.885 4.87628 5.77715 0
M  V30 9602 H 881.153 4.06795 6.64935 0
M  V30 9603 N 885.382 -0.782676 1.36792 0
M  V30 9604 C 886.329 -1.89558 1.31667 0
M  V30 9605 C 887.299 -1.65076 0.184147 0
M  V30 9606 O 888.484 -1.87143 0.371753 0
M  V30 9607 C 885.624 -3.26469 1.11858 0
M  V30 9608 C 884.737 -3.62978 2.34245 0
M  V30 9609 C 883.872 -4.89041 2.07394 0
M  V30 9610 C 882.911 -5.18249 3.25706 0
M  V30 9611 N 882.048 -6.35497 2.98476 0
M  V30 9612 H 886.888 -1.93274 2.26824 0
M  V30 9613 H 884.425 -0.945057 1.12726 0
M  V30 9614 H 886.383 -4.05431 0.983968 0
M  V30 9615 H 885.013 -3.22158 0.203531 0
M  V30 9616 H 884.065 -2.79087 2.58485 0
M  V30 9617 H 885.377 -3.80507 3.22514 0
M  V30 9618 H 884.531 -5.75883 1.90901 0
M  V30 9619 H 883.27 -4.73594 1.16446 0
M  V30 9620 H 882.275 -4.29887 3.4275 0
M  V30 9621 H 883.5 -5.35611 4.1749 0
M  V30 9622 H 881.446 -6.21429 2.10146 0
M  V30 9623 H 881.363 -6.5339 3.80286 0
M  V30 9624 H 882.631 -7.25304 2.85577 0
M  V30 9625 N 886.86 -1.21182 -1.00761 0
M  V30 9626 C 888.276 -0.968607 -1.26847 0
M  V30 9627 C 888.476 0.346561 -1.98497 0
M  V30 9628 O 887.532 1.07287 -2.28573 0
M  V30 9629 C 888.845 -2.1574 -2.09467 0
M  V30 9630 C 890.393 -2.19937 -2.22703 0
M  V30 9631 C 890.868 -3.38328 -3.08704 0
M  V30 9632 N 892.359 -3.38398 -3.16293 0
M  V30 9633 C 893.094 -4.26653 -3.83086 0
M  V30 9634 N 892.59 -5.25101 -4.5193 0
M  V30 9635 N 894.383 -4.14469 -3.797 0
M  V30 9636 H 886.534 -2.05763 -0.526816 0
M  V30 9637 H 888.797 -0.90087 -0.29519 0
M  V30 9638 H 888.503 -3.11034 -1.64167 0
M  V30 9639 H 888.377 -2.14584 -3.10216 0
M  V30 9640 H 890.764 -1.25201 -2.67224 0
M  V30 9641 H 890.845 -2.25139 -1.21433 0
M  V30 9642 H 890.489 -4.33356 -2.64886 0
M  V30 9643 H 890.419 -3.30364 -4.10082 0
M  V30 9644 H 892.91 -2.67149 -2.67282 0
M  V30 9645 H 893.223 -5.8875 -5.00592 0
M  V30 9646 H 891.568 -5.29029 -4.50726 0
M  V30 9647 H 894.759 -3.3682 -3.25069 0
M  V30 9648 H 894.932 -4.83458 -4.31477 0
M  V30 9649 N 888.338 1.20213 -1.01915 0
M  V30 9650 C 889.568 1.93341 -0.728197 0
M  V30 9651 C 889.976 1.75151 0.715454 0
M  V30 9652 O 889.319 1.06437 1.49722 0
M  V30 9653 C 889.381 3.45677 -0.9873 0
M  V30 9654 C 889.045 3.8763 -2.42057 0
M  V30 9655 C 890.042 3.93184 -3.40151 0
M  V30 9656 C 887.727 4.19547 -2.76199 0
M  V30 9657 C 889.721 4.30069 -4.70446 0
M  V30 9658 C 887.408 4.56106 -4.06707 0
M  V30 9659 C 888.406 4.6134 -5.03641 0
M  V30 9660 O 888.094 4.97059 -6.31813 0
M  V30 9661 H 887.826 0.621258 -0.266485 0
M  V30 9662 H 890.38 1.53577 -1.36393 0
M  V30 9663 H 888.61 3.85578 -0.294405 0
M  V30 9664 H 890.299 4.00035 -0.687536 0
M  V30 9665 H 891.065 3.68687 -3.15111 0
M  V30 9666 H 886.944 4.14663 -2.01434 0
M  V30 9667 H 890.488 4.34069 -5.46105 0
M  V30 9668 H 886.385 4.80059 -4.31525 0
M  V30 9669 H 887.153 5.15043 -6.36139 0
M  V30 9670 N 889.816 0.795718 1.36037 0
M  V30 9671 C 891.044 0.383153 2.03321 0
M  V30 9672 C 891.459 -1.00246 1.59988 0
M  V30 9673 O 890.816 -1.64406 0.792265 0
M  V30 9674 C 890.867 0.444467 3.58757 0
M  V30 9675 O 890.588 1.77544 4.00512 0
M  V30 9676 C 892.089 0.0233291 4.43294 0
M  V30 9677 H 889.309 0.157061 0.652359 0
M  V30 9678 H 891.853 1.07632 1.73884 0
M  V30 9679 H 890.008 -0.200341 3.86882 0
M  V30 9680 H 890.422 1.73065 4.95125 0
M  V30 9681 H 891.896 0.117361 5.51875 0
M  V30 9682 H 892.373 -1.03007 4.2695 0
M  V30 9683 H 892.979 0.64087 4.20444 0
M  V30 9684 N 891.294 -1.47756 0.548274 0
M  V30 9685 C 892.257 -2.28379 -0.193857 0
M  V30 9686 C 893.257 -1.36436 -0.850986 0
M  V30 9687 O 894.447 -1.59154 -0.70822 0
M  V30 9688 C 891.579 -3.15858 -1.28243 0
M  V30 9689 H 892.772 -2.95458 0.514231 0
M  V30 9690 H 890.325 -1.53298 0.304879 0
M  V30 9691 H 891.06 -2.5345 -2.0232 0
M  V30 9692 H 890.845 -3.83512 -0.816148 0
M  V30 9693 H 892.335 -3.76627 -1.80393 0
M  V30 9694 N 892.772 -0.284283 -1.55015 0
M  V30 9695 C 893.722 0.613913 -2.19579 0
M  V30 9696 C 894.706 1.11153 -1.16335 0
M  V30 9697 O 895.898 1.05508 -1.42116 0
M  V30 9698 C 893.027 1.79329 -2.92739 0
M  V30 9699 C 892.113 1.31242 -4.03282 0
M  V30 9700 N 892.504 0.548344 -5.02819 0
M  V30 9701 C 890.802 1.5946 -4.1652 0
M  V30 9702 C 891.503 0.294358 -5.80955 0
M  V30 9703 N 890.479 0.869406 -5.36603 0
M  V30 9704 H 894.281 0.0224088 -2.93891 0
M  V30 9705 H 891.795 -0.0882619 -1.6216 0
M  V30 9706 H 893.792 2.44814 -3.37449 0
M  V30 9707 H 892.452 2.38865 -2.1994 0
M  V30 9708 H 893.463 0.194812 -5.17533 0
M  V30 9709 H 890.14 2.19866 -3.54916 0
M  V30 9710 H 891.53 -0.318195 -6.71146 0
M  V30 9711 N 894.251 1.57596 -0.0117121 0
M  V30 9712 C 895.183 2.06025 1.0043 0
M  V30 9713 C 896.196 0.980348 1.29973 0
M  V30 9714 O 897.385 1.25691 1.26744 0
M  V30 9715 C 894.485 2.45514 2.33615 0
M  V30 9716 C 893.658 3.76378 2.22842 0
M  V30 9717 C 892.717 4.02606 3.38814 0
M  V30 9718 O 891.743 4.73108 3.16477 0
M  V30 9719 N 892.945 3.51416 4.62047 0
M  V30 9720 H 895.71 2.93811 0.591206 0
M  V30 9721 H 893.271 1.60947 0.175427 0
M  V30 9722 H 895.263 2.60166 3.09993 0
M  V30 9723 H 893.833 1.63186 2.66625 0
M  V30 9724 H 893.053 3.71691 1.313 0
M  V30 9725 H 894.341 4.62149 2.12829 0
M  V30 9726 H 893.739 2.94346 4.83091 0
M  V30 9727 H 892.296 3.71377 5.35651 0
M  V30 9728 N 895.729 -0.261212 1.5542 0
M  V30 9729 C 896.975 -0.992699 1.76843 0
M  V30 9730 C 897.308 -1.8551 0.574428 0
M  V30 9731 O 896.583 -1.89739 -0.427713 0
M  V30 9732 C 896.866 -1.86532 3.08022 0
M  V30 9733 C 896.719 -1.03206 4.378 0
M  V30 9734 C 898.038 -2.85036 3.35324 0
M  V30 9735 H 895.157 -0.359473 0.643388 0
M  V30 9736 H 897.799 -0.264214 1.88154 0
M  V30 9737 H 895.949 -2.48644 2.9851 0
M  V30 9738 H 897.621 -0.430743 4.59285 0
M  V30 9739 H 895.864 -0.335911 4.32497 0
M  V30 9740 H 896.535 -1.6761 5.25938 0
M  V30 9741 H 899.011 -2.3306 3.44706 0
M  V30 9742 H 897.887 -3.43226 4.28354 0
M  V30 9743 H 898.148 -3.60768 2.55537 0
M  V30 9744 N 897.207 -1.48554 -0.526253 0
M  V30 9745 C 898.137 -1.66252 -1.63959 0
M  V30 9746 C 899.118 -0.511351 -1.62232 0
M  V30 9747 O 900.303 -0.744322 -1.7937 0
M  V30 9748 C 897.433 -1.70556 -3.02536 0
M  V30 9749 C 896.387 -2.8521 -3.19123 0
M  V30 9750 C 895.713 -2.74606 -4.58798 0
M  V30 9751 C 897.013 -4.26463 -3.0154 0
M  V30 9752 H 898.707 -2.59459 -1.49404 0
M  V30 9753 H 896.253 -1.24862 -0.717326 0
M  V30 9754 H 898.206 -1.81524 -3.80298 0
M  V30 9755 H 896.93 -0.739297 -3.18123 0
M  V30 9756 H 895.589 -2.73802 -2.43779 0
M  V30 9757 H 895.237 -1.75941 -4.71226 0
M  V30 9758 H 894.937 -3.51544 -4.70841 0
M  V30 9759 H 896.461 -2.87548 -5.38655 0
M  V30 9760 H 897.875 -4.38685 -3.69091 0
M  V30 9761 H 896.272 -5.04428 -3.25073 0
M  V30 9762 H 897.342 -4.42667 -1.97925 0
M  V30 9763 N 898.685 0.775411 -1.37205 0
M  V30 9764 C 899.617 1.89761 -1.28544 0
M  V30 9765 C 900.63 1.61542 -0.201996 0
M  V30 9766 O 901.819 1.72528 -0.457848 0
M  V30 9767 C 898.919 3.24904 -0.963885 0
M  V30 9768 C 898.092 3.80796 -2.15205 0
M  V30 9769 C 897.151 4.94407 -1.80135 0
M  V30 9770 O 896.177 5.10185 -2.52388 0
M  V30 9771 N 897.379 5.75722 -0.743298 0
M  V30 9772 H 900.144 1.97708 -2.25237 0
M  V30 9773 H 897.705 0.954348 -1.30782 0
M  V30 9774 H 899.697 3.9842 -0.710182 0
M  V30 9775 H 898.267 3.12483 -0.085632 0
M  V30 9776 H 897.487 2.99101 -2.56773 0
M  V30 9777 H 898.775 4.1487 -2.94552 0
M  V30 9778 H 898.173 5.65518 -0.143655 0
M  V30 9779 H 896.73 6.4948 -0.549446 0
M  V30 9780 N 900.163 1.21714 1.00117 0
M  V30 9781 C 901.113 0.947259 2.07391 0
M  V30 9782 C 902.097 -0.0989662 1.60595 0
M  V30 9783 O 903.289 0.11047 1.76655 0
M  V30 9784 C 900.418 0.517954 3.3937 0
M  V30 9785 C 899.504 1.59846 3.92823 0
M  V30 9786 N 899.895 2.82438 4.19598 0
M  V30 9787 C 898.193 1.46822 4.2114 0
M  V30 9788 C 898.894 3.52247 4.62922 0
M  V30 9789 N 897.87 2.79696 4.66124 0
M  V30 9790 H 901.672 1.8786 2.26022 0
M  V30 9791 H 899.186 1.11344 1.18221 0
M  V30 9792 H 901.183 0.305951 4.15776 0
M  V30 9793 H 899.843 -0.40658 3.22144 0
M  V30 9794 H 900.854 3.18944 4.08038 0
M  V30 9795 H 897.531 0.609259 4.13031 0
M  V30 9796 H 898.921 4.57232 4.9233 0
M  V30 9797 N 901.641 -1.19671 1.02551 0
M  V30 9798 C 903.052 -1.70964 0.750208 0
M  V30 9799 C 903.403 -1.82095 -0.730461 0
M  V30 9800 O 902.528 -1.48974 -1.56958 0
M  V30 9801 C 903.123 -3.10516 1.35518 0
M  V30 9802 C 901.682 -3.59083 1.12854 0
M  V30 9803 C 900.829 -2.36041 1.45534 0
M  V30 9804 H 903.78 -1.04559 1.19386 0
M  V30 9805 H 903.801 -3.73028 0.750378 0
M  V30 9806 H 903.313 -3.02383 2.43282 0
M  V30 9807 H 901.414 -3.72536 0.0689627 0
M  V30 9808 H 901.527 -4.43395 1.81488 0
M  V30 9809 H 899.891 -2.39214 0.87458 0
M  V30 9810 H 900.674 -2.3054 2.54374 0
M  V30 9811 N 903.119 -0.802921 -1.35613 0
M  V30 9812 C 904.365 -0.391259 -1.99601 0
M  V30 9813 C 904.72 1.02922 -1.62557 0
M  V30 9814 O 904.013 1.70357 -0.876878 0
M  V30 9815 C 904.207 -0.507806 -3.53774 0
M  V30 9816 C 904.036 -1.93807 -4.05794 0
M  V30 9817 C 902.806 -2.56564 -4.3532 0
M  V30 9818 C 905.004 -2.90211 -4.24596 0
M  V30 9819 N 902.986 -3.91038 -4.73247 0
M  V30 9820 C 904.357 -4.09548 -4.65479 0
M  V30 9821 C 906.412 -2.87091 -4.06796 0
M  V30 9822 C 905.115 -5.26191 -4.90424 0
M  V30 9823 C 907.141 -4.02933 -4.32896 0
M  V30 9824 C 906.503 -5.21017 -4.74047 0
M  V30 9825 H 902.602 -0.190867 -0.758349 0
M  V30 9826 H 905.186 -1.04338 -1.64382 0
M  V30 9827 H 903.357 0.114306 -3.88232 0
M  V30 9828 H 905.089 -0.0710855 -4.04638 0
M  V30 9829 H 901.844 -2.07945 -4.25507 0
M  V30 9830 H 902.268 -4.60262 -4.96475 0
M  V30 9831 H 906.91 -1.96951 -3.74126 0
M  V30 9832 H 904.628 -6.16906 -5.2197 0
M  V30 9833 H 908.214 -4.01895 -4.2068 0
M  V30 9834 H 907.094 -6.09165 -4.93849 0
M  V30 9835 N 904.597 1.47463 -0.556102 0
M  V30 9836 C 905.846 2.01678 -0.029492 0
M  V30 9837 C 906.159 1.436 1.32809 0
M  V30 9838 O 907.365 1.89472 1.94455 0
M  V30 9839 C 905.821 3.599 -0.00223937 0
M  V30 9840 C 905.429 4.26969 -1.35651 0
M  V30 9841 C 907.173 4.2187 0.471822 0
M  V30 9842 C 905.08 5.77194 -1.28843 0
M  V30 9843 H 904.01 0.753965 -0.00725504 0
M  V30 9844 H 906.661 1.69467 -0.703789 0
M  V30 9845 H 905.043 3.89068 0.737682 0
M  V30 9846 H 906.217 4.09444 -2.11406 0
M  V30 9847 H 904.532 3.76983 -1.76842 0
M  V30 9848 H 907.129 5.31955 0.541139 0
M  V30 9849 H 907.472 3.88968 1.48356 0
M  V30 9850 H 908.005 3.97228 -0.213207 0
M  V30 9851 H 904.744 6.14713 -2.27613 0
M  V30 9852 H 904.264 5.9706 -0.572668 0
M  V30 9853 H 905.943 6.3938 -0.990031 0
M  V30 9854 N 906.075 0.2925 1.54862 0
M  V30 9855 C 906.985 -0.597036 2.26876 0
M  V30 9856 C 908.001 -1.15558 1.30086 0
M  V30 9857 O 909.177 -1.18217 1.63054 0
M  V30 9858 C 906.242 -1.75664 2.98903 0
M  V30 9859 C 905.303 -1.23303 4.11212 0
M  V30 9860 C 904.536 -2.33736 4.79795 0
M  V30 9861 O 904.759 -3.53459 4.47686 0
M  V30 9862 O 903.693 -2.00908 5.67379 0
M  V30 9863 H 907.519 -0.0131242 3.03697 0
M  V30 9864 H 905.104 0.0592642 1.49282 0
M  V30 9865 H 906.986 -2.43241 3.4411 0
M  V30 9866 H 905.661 -2.32731 2.24984 0
M  V30 9867 H 904.568 -0.523222 3.70423 0
M  V30 9868 H 905.901 -0.707887 4.87083 0
M  V30 9869 N 907.553 -1.57587 0.0200696 0
M  V30 9870 C 908.781 -1.95718 -0.670964 0
M  V30 9871 C 909.196 -0.896081 -1.6618 0
M  V30 9872 O 908.553 0.123037 -1.82085 0
M  V30 9873 C 908.604 -3.33904 -1.38529 0
M  V30 9874 O 908.325 -4.35943 -0.434167 0
M  V30 9875 C 909.826 -3.86614 -2.16898 0
M  V30 9876 H 907.046 -0.644819 -0.185606 0
M  V30 9877 H 909.59 -2.04354 0.0771495 0
M  V30 9878 H 907.745 -3.26515 -2.08487 0
M  V30 9879 H 908.159 -5.16001 -0.940378 0
M  V30 9880 H 909.633 -4.85673 -2.62346 0
M  V30 9881 H 910.11 -3.20379 -3.00423 0
M  V30 9882 H 910.716 -3.97243 -1.51916 0
M  V30 9883 N 909.032 0.252966 -1.55557 0
M  V30 9884 C 909.995 1.29645 -1.8901 0
M  V30 9885 C 910.995 1.41378 -0.766096 0
M  V30 9886 O 912.185 1.40183 -1.03414 0
M  V30 9887 C 909.317 2.67504 -2.11316 0
M  V30 9888 H 910.51 1.01202 -2.82309 0
M  V30 9889 H 908.063 0.491977 -1.48355 0
M  V30 9890 H 908.798 3.01095 -1.20466 0
M  V30 9891 H 908.583 2.6037 -2.93172 0
M  V30 9892 H 910.073 3.42861 -2.38403 0
M  V30 9893 N 910.51 1.48831 0.518367 0
M  V30 9894 C 911.758 1.57128 1.27103 0
M  V30 9895 C 912.079 0.252098 1.93364 0
M  V30 9896 O 911.349 -0.727281 1.819 0
M  V30 9897 H 909.929 0.578891 0.472116 0
M  V30 9898 H 912.591 1.85361 0.602262 0
M  V30 9899 H 911.687 2.35838 2.04418 0
M  V30 9900 N 911.988 -0.768124 1.37614 0
M  V30 9901 C 912.935 -1.88151 1.33671 0
M  V30 9902 C 913.905 -1.64871 0.201645 0
M  V30 9903 O 915.09 -1.86739 0.391582 0
M  V30 9904 C 912.23 -3.25264 1.15314 0
M  V30 9905 C 911.343 -3.60473 2.38082 0
M  V30 9906 C 910.478 -4.86814 2.12569 0
M  V30 9907 C 909.517 -5.14765 3.31184 0
M  V30 9908 N 908.654 -6.32295 3.052 0
M  V30 9909 H 913.494 -1.90857 2.28862 0
M  V30 9910 H 911.031 -0.933048 1.13722 0
M  V30 9911 H 912.989 -4.04364 1.02691 0
M  V30 9912 H 911.619 -3.21924 0.237689 0
M  V30 9913 H 910.671 -2.7633 2.61431 0
M  V30 9914 H 911.983 -3.77065 3.26532 0
M  V30 9915 H 911.137 -5.73826 1.96999 0
M  V30 9916 H 909.876 -4.72333 1.21462 0
M  V30 9917 H 908.881 -4.26227 3.4729 0
M  V30 9918 H 910.106 -5.31153 4.23147 0
M  V30 9919 H 908.052 -6.19166 2.16726 0
M  V30 9920 H 907.969 -6.4932 3.87195 0
M  V30 9921 H 909.237 -7.22234 2.93254 0
M  V30 9922 N 913.466 -1.22244 -0.994698 0
M  V30 9923 C 914.694 -1.07218 -1.76952 0
M  V30 9924 C 915.109 0.377388 -1.8499 0
M  V30 9925 O 914.466 1.26157 -1.31874 0
M  V30 9926 C 914.517 -1.67496 -3.20355 0
M  V30 9927 O 914.238 -3.06782 -3.12756 0
M  V30 9928 C 915.739 -1.57721 -4.14294 0
M  V30 9929 H 912.959 -0.375966 -0.555779 0
M  V30 9930 H 915.503 -1.61799 -1.25065 0
M  V30 9931 H 913.658 -1.16982 -3.69315 0
M  V30 9932 H 914.072 -3.35784 -4.02926 0
M  V30 9933 H 915.546 -2.04623 -5.12673 0
M  V30 9934 H 916.023 -0.533434 -4.35949 0
M  V30 9935 H 916.629 -2.07531 -3.71229 0
M  V30 9936 N 914.944 1.19125 -1.03184 0
M  V30 9937 C 915.892 2.24492 -0.608781 0
M  V30 9938 C 916.886 1.65529 0.360065 0
M  V30 9939 O 918.092 1.78546 0.22832 0
M  V30 9940 H 914.467 0.73048 -0.178616 0
M  V30 9941 H 916.438 2.5749 -1.50803 0
M  V30 9942 C 915.187 3.47693 0.0215126 0
M  V30 9943 H 914.51 3.93354 -0.715024 0
M  V30 9944 H 915.95 4.23072 0.280429 0
M  V30 9945 C 914.409 3.12088 1.26896 0
M  V30 9946 O 914.939 3.25013 2.36071 0
M  V30 9947 N 913.145 2.66494 1.15886 0
M  V30 9948 H 912.692 2.56176 0.270463 0
M  V30 9949 H 912.65 2.43042 1.99444 0
M  V30 9950 N 916.422 0.810101 1.35185 0
M  V30 9951 C 917.65 0.404696 2.02903 0
M  V30 9952 C 918.065 -0.985434 1.61042 0
M  V30 9953 O 917.422 -1.63557 0.809658 0
M  V30 9954 C 917.473 0.482493 3.58266 0
M  V30 9955 O 917.194 1.81782 3.98606 0
M  V30 9956 C 918.695 0.070345 4.43244 0
M  V30 9957 H 915.915 0.163972 0.650657 0
M  V30 9958 H 918.459 1.0947 1.72733 0
M  V30 9959 H 916.614 -0.159296 3.87072 0
M  V30 9960 H 917.028 1.78306 4.93262 0
M  V30 9961 H 918.502 0.175888 5.5172 0
M  V30 9962 H 918.979 -0.984724 4.28018 0
M  V30 9963 H 919.585 0.685427 4.1974 0
M  V30 9964 N 917.9 -1.47166 0.563914 0
M  V30 9965 C 919.146 -2.02756 0.0424338 0
M  V30 9966 C 919.479 -1.43662 -1.3067 0
M  V30 9967 O 918.754 -0.594676 -1.85186 0
M  V30 9968 C 919.037 -3.60074 -0.0434793 0
M  V30 9969 C 918.89 -4.29587 1.33323 0
M  V30 9970 C 920.209 -4.336 -0.753568 0
M  V30 9971 H 917.328 -0.736806 0.0168946 0
M  V30 9972 H 919.97 -1.75521 0.727496 0
M  V30 9973 H 918.12 -3.83409 -0.626906 0
M  V30 9974 H 919.792 -4.17573 1.96037 0
M  V30 9975 H 918.035 -3.8968 1.9061 0
M  V30 9976 H 918.706 -5.38218 1.22576 0
M  V30 9977 H 921.182 -4.15299 -0.258126 0
M  V30 9978 H 920.058 -5.43291 -0.782659 0
M  V30 9979 H 920.319 -4.03302 -1.81108 0
M  V30 9980 N 919.378 -0.300708 -1.54705 0
M  V30 9981 C 920.325 0.57552 -2.23509 0
M  V30 9982 C 921.295 1.12979 -1.21758 0
M  V30 9983 O 922.48 1.17437 -1.50377 0
M  V30 9984 C 919.62 1.74167 -2.97926 0
M  V30 9985 C 918.733 1.21882 -4.1445 0
M  V30 9986 C 917.868 2.34881 -4.7645 0
M  V30 9987 C 916.907 1.79729 -5.85119 0
M  V30 9988 N 916.044 2.863 -6.41075 0
M  V30 9989 H 920.884 -0.0178257 -2.97995 0
M  V30 9990 H 918.421 -0.0205666 -1.47086 0
M  V30 9991 H 920.379 2.42753 -3.39303 0
M  V30 9992 H 919.009 2.30665 -2.25817 0
M  V30 9993 H 918.061 0.425227 -3.78016 0
M  V30 9994 H 919.373 0.775065 -4.92741 0
M  V30 9995 H 918.527 3.11415 -5.20678 0
M  V30 9996 H 917.266 2.82584 -3.97489 0
M  V30 9997 H 916.271 1.01684 -5.40315 0
M  V30 9998 H 917.496 1.32931 -6.65963 0
M  V30 9999 H 915.442 3.33337 -5.64998 0
M  V30 10000 H 915.359 2.46419 -7.14712 0
M  V30 10001 H 916.627 3.62732 -6.89961 0
M  V30 10002 N 920.856 1.57574 -0.0284266 0
M  V30 10003 C 922.272 1.56194 0.327958 0
M  V30 10004 C 922.472 1.03397 1.72949 0
M  V30 10005 O 921.528 0.680392 2.4316 0
M  V30 10006 C 922.841 3.00177 0.177196 0
M  V30 10007 C 924.389 3.12 0.250014 0
M  V30 10008 C 924.864 4.57821 0.128049 0
M  V30 10009 N 926.355 4.6283 0.185054 0
M  V30 10010 C 927.09 5.73286 0.114454 0
M  V30 10011 N 926.586 6.928 -0.00719225 0
M  V30 10012 N 928.379 5.61848 0.16839 0
M  V30 10013 H 920.53 1.90224 -0.944921 0
M  V30 10014 H 922.793 0.874987 -0.364832 0
M  V30 10015 H 922.499 3.42753 -0.788224 0
M  V30 10016 H 922.373 3.65101 0.94768 0
M  V30 10017 H 924.76 2.69337 1.20589 0
M  V30 10018 H 924.841 2.49799 -0.550835 0
M  V30 10019 H 924.485 5.01165 -0.824407 0
M  V30 10020 H 924.415 5.18001 0.947753 0
M  V30 10021 H 926.906 3.76867 0.279247 0
M  V30 10022 H 927.219 7.72781 -0.0543903 0
M  V30 10023 H 925.564 6.94987 -0.0419648 0
M  V30 10024 H 928.755 4.67367 0.261821 0
M  V30 10025 H 928.928 6.47907 0.109908 0
M  V30 10026 N 922.334 -0.244713 1.55689 0
M  V30 10027 C 923.266 -1.32595 1.86952 0
M  V30 10028 C 924.279 -1.44185 0.755948 0
M  V30 10029 O 925.468 -1.45496 1.03408 0
M  V30 10030 C 922.568 -2.70429 2.04258 0
M  V30 10031 C 921.741 -2.8108 3.35131 0
M  V30 10032 C 920.8 -3.99773 3.42152 0
M  V30 10033 O 919.826 -3.89197 4.15348 0
M  V30 10034 N 921.028 -5.13041 2.71604 0
M  V30 10035 H 923.793 -1.06111 2.80287 0
M  V30 10036 H 921.354 -0.434811 1.55952 0
M  V30 10037 H 923.346 -3.48173 2.06295 0
M  V30 10038 H 921.916 -2.89612 1.17658 0
M  V30 10039 H 921.136 -1.89994 3.45392 0
M  V30 10040 H 922.424 -2.85147 4.21389 0
M  V30 10041 H 921.822 -5.24525 2.11872 0
M  V30 10042 H 920.379 -5.88912 2.79331 0
M  V30 10043 N 923.813 -1.49104 -0.510467 0
M  V30 10044 C 924.76 -1.65074 -1.61305 0
M  V30 10045 C 925.73 -0.492362 -1.58635 0
M  V30 10046 O 926.915 -0.718241 -1.76765 0
M  V30 10047 C 924.055 -1.71457 -2.99493 0
M  V30 10048 C 923.168 -2.98536 -3.12251 0
M  V30 10049 C 922.303 -2.95957 -4.41116 0
M  V30 10050 C 921.342 -4.17655 -4.47471 0
M  V30 10051 N 920.479 -4.13041 -5.67751 0
M  V30 10052 H 925.319 -2.59222 -1.46996 0
M  V30 10053 H 922.856 -1.28535 -0.715346 0
M  V30 10054 H 924.814 -1.7314 -3.79577 0
M  V30 10055 H 923.444 -0.807834 -3.12528 0
M  V30 10056 H 922.496 -3.06509 -2.25292 0
M  V30 10057 H 923.808 -3.88527 -3.12807 0
M  V30 10058 H 922.962 -2.96149 -5.2951 0
M  V30 10059 H 921.701 -2.03728 -4.4311 0
M  V30 10060 H 920.706 -4.17717 -3.57481 0
M  V30 10061 H 921.931 -5.11066 -4.472 0
M  V30 10062 H 919.877 -3.23643 -5.70606 0
M  V30 10063 H 919.794 -4.96757 -5.69884 0
M  V30 10064 H 921.062 -4.17322 -6.58379 0
M  V30 10065 N 925.291 0.760815 -1.38019 0
M  V30 10066 C 926.223 1.88387 -1.30549 0
M  V30 10067 C 927.236 1.61319 -0.219119 0
M  V30 10068 O 928.425 1.72033 -0.476122 0
M  V30 10069 C 925.525 3.23863 -0.998291 0
M  V30 10070 C 924.698 3.78492 -2.19232 0
M  V30 10071 C 923.757 4.92468 -1.85368 0
M  V30 10072 O 922.783 5.0748 -2.57785 0
M  V30 10073 N 923.985 5.74901 -0.804319 0
M  V30 10074 H 926.75 1.95308 -2.27322 0
M  V30 10075 H 924.311 0.940423 -1.31786 0
M  V30 10076 H 926.303 3.97644 -0.7524 0
M  V30 10077 H 924.873 3.12374 -0.11877 0
M  V30 10078 H 924.093 2.96361 -2.5993 0
M  V30 10079 H 925.381 4.11722 -2.98935 0
M  V30 10080 H 924.779 5.65333 -0.203628 0
M  V30 10081 H 923.336 6.48861 -0.618301 0
M  V30 10082 N 926.769 1.22769 0.988202 0
M  V30 10083 C 928.015 1.05665 1.73097 0
M  V30 10084 C 928.348 -0.406615 1.89895 0
M  V30 10085 O 927.623 -1.30132 1.44554 0
M  V30 10086 C 927.906 1.77381 3.13382 0
M  V30 10087 C 927.759 3.31332 3.04203 0
M  V30 10088 C 929.078 1.52999 4.12649 0
M  V30 10089 H 926.197 0.385258 0.628288 0
M  V30 10090 H 928.839 1.51171 1.15097 0
M  V30 10091 H 926.989 1.38696 3.62899 0
M  V30 10092 H 928.661 3.79489 2.6227 0
M  V30 10093 H 926.904 3.60767 2.40894 0
M  V30 10094 H 927.575 3.76692 4.03493 0
M  V30 10095 H 930.051 1.86611 3.71908 0
M  V30 10096 H 928.927 2.05666 5.08913 0
M  V30 10097 H 929.188 0.463615 4.39662 0
M  V30 10098 N 928.247 -1.18576 1.03814 0
M  V30 10099 C 929.472 -1.92978 0.759873 0
M  V30 10100 C 929.897 -1.75514 -0.676486 0
M  V30 10101 O 929.255 -1.06359 -1.46824 0
M  V30 10102 C 929.303 -3.42507 1.12788 0
M  V30 10103 O 928.407 -4.1163 0.251886 0
M  V30 10104 H 927.748 -0.602129 0.279886 0
M  V30 10105 H 930.278 -1.50383 1.3873 0
M  V30 10106 H 930.288 -3.93206 1.08872 0
M  V30 10107 H 928.963 -3.5454 2.17427 0
M  V30 10108 H 927.54 -3.7125 0.350441 0
M  V30 10109 N 929.725 -0.817259 -1.34754 0
M  V30 10110 C 931.136 -0.462215 -1.80888 0
M  V30 10111 C 931.487 1.01685 -1.67794 0
M  V30 10112 O 930.612 1.79094 -1.21468 0
M  V30 10113 C 931.207 -0.832204 -3.2842 0
M  V30 10114 C 929.766 -0.52961 -3.72655 0
M  V30 10115 C 928.913 -1.05214 -2.56564 0
M  V30 10116 H 931.864 -1.00795 -1.22581 0
M  V30 10117 H 931.885 -0.133804 -3.80265 0
M  V30 10118 H 931.397 -1.90873 -3.37919 0
M  V30 10119 H 929.498 0.537743 -3.68699 0
M  V30 10120 H 929.611 -1.06971 -4.67005 0
M  V30 10121 H 927.975 -0.473949 -2.50251 0
M  V30 10122 H 928.758 -2.135 -2.68836 0
M  V30 10123 N 931.203 1.46865 -0.571711 0
M  V30 10124 C 932.428 2.07323 -0.0564655 0
M  V30 10125 C 932.853 1.41938 1.23431 0
M  V30 10126 O 932.211 0.499334 1.74288 0
M  V30 10127 C 932.259 3.6044 0.107339 0
M  V30 10128 O 931.363 3.95558 1.1665 0
M  V30 10129 H 930.704 0.661475 -0.0578465 0
M  V30 10130 H 933.234 1.88669 -0.791524 0
M  V30 10131 H 933.244 4.06767 0.316987 0
M  V30 10132 H 931.919 4.07425 -0.835348 0
M  V30 10133 H 930.496 3.60957 0.936189 0
M  V30 10134 N 932.681 0.308908 1.54543 0
M  V30 10135 C 933.906 -0.303196 2.05172 0
M  V30 10136 C 934.331 -1.46133 1.18434 0
M  V30 10137 O 933.689 -1.803 0.190162 0
M  V30 10138 C 933.737 -0.729526 3.53143 0
M  V30 10139 O 932.841 -1.83348 3.69401 0
M  V30 10140 H 932.182 -0.0575066 0.661505 0
M  V30 10141 H 934.712 0.453055 1.99521 0
M  V30 10142 H 934.722 -1.01619 3.95143 0
M  V30 10143 H 933.397 0.117622 4.15734 0
M  V30 10144 H 931.974 -1.54676 3.39308 0
M  V30 10145 N 934.159 -1.57557 0.0367827 0
M  V30 10146 C 935.069 -2.14148 -0.958017 0
M  V30 10147 C 936.085 -1.09564 -1.35173 0
M  V30 10148 O 937.261 -1.4166 -1.43158 0
M  V30 10149 C 934.326 -2.6636 -2.21931 0
M  V30 10150 C 933.387 -3.85688 -1.8853 0
M  V30 10151 C 932.62 -4.35401 -3.08645 0
M  V30 10152 O 932.843 -3.8425 -4.21554 0
M  V30 10153 O 931.777 -5.27158 -2.90497 0
M  V30 10154 H 935.603 -2.99442 -0.506797 0
M  V30 10155 H 933.188 -1.48259 -0.184275 0
M  V30 10156 H 935.07 -2.99976 -2.9596 0
M  V30 10157 H 933.745 -1.84145 -2.66219 0
M  V30 10158 H 932.652 -3.56985 -1.11861 0
M  V30 10159 H 933.985 -4.69089 -1.49052 0
M  V30 10160 N 935.637 0.236453 -1.55816 0
M  V30 10161 C 936.885 0.96111 -1.77784 0
M  V30 10162 C 937.206 1.85454 -0.602648 0
M  V30 10163 O 936.476 1.92157 0.381137 0
M  V30 10164 H 935.056 0.35787 -0.655697 0
M  V30 10165 H 937.718 0.251888 -1.93265 0
M  V30 10166 H 936.814 1.5767 -2.69345 0
M  V30 10167 N 937.115 1.49373 0.502552 0
M  V30 10168 C 938.065 1.62321 1.60112 0
M  V30 10169 C 939.049 0.47895 1.53606 0
M  V30 10170 O 940.241 0.731824 1.61162 0
M  V30 10171 C 937.37 1.69162 2.98729 0
M  V30 10172 C 936.456 2.89161 3.10237 0
M  V30 10173 N 936.847 4.13256 2.91638 0
M  V30 10174 C 935.145 2.87065 3.41335 0
M  V30 10175 C 935.846 4.93913 3.07287 0
M  V30 10176 N 934.822 4.27249 3.36094 0
M  V30 10177 H 938.624 2.55989 1.44384 0
M  V30 10178 H 936.138 1.46123 0.708644 0
M  V30 10179 H 938.135 1.76536 3.77678 0
M  V30 10180 H 936.795 0.766301 3.15528 0
M  V30 10181 H 937.806 4.4326 2.67844 0
M  V30 10182 H 934.483 2.03905 3.6432 0
M  V30 10183 H 935.873 6.02491 2.97413 0
M  V30 10184 N 938.594 -0.753485 1.38421 0
M  V30 10185 C 939.841 -1.51261 1.34634 0
M  V30 10186 C 940.169 -1.94396 -0.0635771 0
M  V30 10187 O 939.424 -1.65736 -1.04068 0
M  V30 10188 C 939.723 -2.77836 2.24816 0
M  V30 10189 C 939.389 -2.53662 3.72782 0
M  V30 10190 C 938.051 -2.46779 4.13103 0
M  V30 10191 C 940.403 -2.32548 4.66445 0
M  V30 10192 C 937.731 -2.16796 5.45176 0
M  V30 10193 C 940.083 -2.04085 5.98775 0
M  V30 10194 C 938.747 -1.95658 6.3818 0
M  V30 10195 H 938.017 -0.553503 0.492661 0
M  V30 10196 H 940.664 -0.866406 1.7078 0
M  V30 10197 H 938.969 -3.47106 1.81726 0
M  V30 10198 H 940.666 -3.35793 2.19189 0
M  V30 10199 H 937.256 -2.59891 3.40815 0
M  V30 10200 H 941.44 -2.36845 4.3614 0
M  V30 10201 H 936.696 -2.0878 5.74648 0
M  V30 10202 H 940.87 -1.86751 6.70893 0
M  V30 10203 H 938.497 -1.7219 7.40442 0
M  V30 10204 N 940.072 -1.23292 -0.981677 0
M  V30 10205 C 941.488 -0.995295 -1.24764 0
M  V30 10206 C 941.688 0.304379 -1.99188 0
M  V30 10207 O 940.744 1.02414 -2.30798 0
M  V30 10208 C 942.057 -2.20135 -2.04844 0
M  V30 10209 C 943.605 -2.24612 -2.17988 0
M  V30 10210 C 944.08 -3.448 -3.01458 0
M  V30 10211 N 945.571 -3.45031 -3.09044 0
M  V30 10212 C 946.306 -4.34683 -3.7395 0
M  V30 10213 N 945.802 -5.34569 -4.4069 0
M  V30 10214 N 947.595 -4.22429 -3.70823 0
M  V30 10215 H 939.746 -2.06834 -0.483052 0
M  V30 10216 H 942.009 -0.906929 -0.276014 0
M  V30 10217 H 941.715 -3.14446 -1.57532 0
M  V30 10218 H 941.589 -2.21115 -3.05594 0
M  V30 10219 H 943.976 -1.30841 -2.64508 0
M  V30 10220 H 944.057 -2.27664 -1.16631 0
M  V30 10221 H 943.701 -4.38877 -2.55635 0
M  V30 10222 H 943.631 -3.38988 -4.02982 0
M  V30 10223 H 946.122 -2.72759 -2.61555 0
M  V30 10224 H 946.435 -5.99236 -4.87991 0
M  V30 10225 H 944.78 -5.3847 -4.39403 0
M  V30 10226 H 947.971 -3.43639 -3.17851 0
M  V30 10227 H 948.144 -4.92501 -4.21126 0
M  V30 10228 N 941.55 1.18024 -1.04442 0
M  V30 10229 C 942.775 1.92573 -0.770097 0
M  V30 10230 C 943.2 1.75871 0.667169 0
M  V30 10231 O 942.558 1.07136 1.46258 0
M  V30 10232 C 942.606 3.41904 -1.14602 0
M  V30 10233 O 941.71 4.11491 -0.273712 0
M  V30 10234 H 941.051 0.600636 -0.283076 0
M  V30 10235 H 943.581 1.49645 -1.39526 0
M  V30 10236 H 943.591 3.92623 -1.10956 0
M  V30 10237 H 942.266 3.53382 -2.19304 0
M  V30 10238 H 940.843 3.71059 -0.370124 0
M  V30 10239 N 943.028 0.824394 1.34319 0
M  V30 10240 C 943.96 0.204805 2.28283 0
M  V30 10241 C 944.973 -0.606162 1.51094 0
M  V30 10242 O 946.162 -0.435602 1.73103 0
M  V30 10243 C 943.262 -0.73139 3.30914 0
M  V30 10244 C 942.435 0.0370723 4.37384 0
M  V30 10245 C 941.494 -0.820272 5.19767 0
M  V30 10246 O 940.52 -0.264721 5.68584 0
M  V30 10247 N 941.722 -2.13984 5.39621 0
M  V30 10248 H 944.487 1.0121 2.82093 0
M  V30 10249 H 942.048 0.681494 1.46858 0
M  V30 10250 H 944.04 -1.30958 3.82926 0
M  V30 10251 H 942.61 -1.43943 2.77487 0
M  V30 10252 H 941.83 0.796578 3.86068 0
M  V30 10253 H 943.118 0.566014 5.05642 0
M  V30 10254 H 942.516 -2.61492 5.01636 0
M  V30 10255 H 941.073 -2.66685 5.94746 0
M  V30 10256 N 944.506 -1.46559 0.579492 0
M  V30 10257 C 945.456 -2.27316 -0.17645 0
M  V30 10258 C 946.44 -1.35681 -0.864835 0
M  V30 10259 O 947.632 -1.59879 -0.759462 0
M  V30 10260 C 944.761 -3.21957 -1.19157 0
M  V30 10261 C 943.847 -4.21077 -0.505459 0
M  V30 10262 N 944.238 -5.03908 0.437133 0
M  V30 10263 C 942.536 -4.39535 -0.75661 0
M  V30 10264 C 943.237 -5.75635 0.837819 0
M  V30 10265 N 942.213 -5.43276 0.187679 0
M  V30 10266 H 946.015 -2.88747 0.547932 0
M  V30 10267 H 943.529 -1.5737 0.401048 0
M  V30 10268 H 945.526 -3.78518 -1.74728 0
M  V30 10269 H 944.186 -2.62085 -1.9168 0
M  V30 10270 H 945.197 -5.11487 0.812488 0
M  V30 10271 H 941.874 -3.90815 -1.46867 0
M  V30 10272 H 943.264 -6.52235 1.61364 0
M  V30 10273 N 945.984 -0.3171 -1.54377 0
M  V30 10274 C 946.931 0.551782 -2.24107 0
M  V30 10275 C 947.901 1.11681 -1.22949 0
M  V30 10276 O 949.086 1.15836 -1.51614 0
M  V30 10277 C 946.226 1.70997 -2.99756 0
M  V30 10278 C 945.339 1.17479 -4.15719 0
M  V30 10279 C 944.474 2.29815 -4.78914 0
M  V30 10280 C 943.513 1.73513 -5.86992 0
M  V30 10281 N 942.65 2.79485 -6.44075 0
M  V30 10282 H 947.49 -0.049431 -2.97959 0
M  V30 10283 H 945.027 -0.0361658 -1.47056 0
M  V30 10284 H 946.985 2.39141 -3.41859 0
M  V30 10285 H 945.615 2.28257 -2.28251 0
M  V30 10286 H 944.667 0.385109 -3.78446 0
M  V30 10287 H 945.979 0.72276 -4.93536 0
M  V30 10288 H 945.133 3.05875 -5.23952 0
M  V30 10289 H 943.872 2.78352 -4.00464 0
M  V30 10290 H 942.877 0.959475 -5.41363 0
M  V30 10291 H 944.102 1.2586 -6.67335 0
M  V30 10292 H 942.048 3.27325 -5.68502 0
M  V30 10293 H 941.965 2.38825 -7.17286 0
M  V30 10294 H 943.233 3.55394 -6.93769 0
M  V30 10295 N 947.462 1.57535 -0.0451378 0
M  V30 10296 C 948.878 1.56533 0.311373 0
M  V30 10297 C 949.078 1.05225 1.71843 0
M  V30 10298 O 948.134 0.706144 2.42425 0
M  V30 10299 C 949.447 3.00349 0.145348 0
M  V30 10300 C 950.995 3.12248 0.216908 0
M  V30 10301 C 951.47 4.57931 0.0794834 0
M  V30 10302 N 952.961 4.63 0.135954 0
M  V30 10303 C 953.696 5.73375 0.0536426 0
M  V30 10304 N 953.192 6.92753 -0.0806725 0
M  V30 10305 N 954.985 5.61995 0.108789 0
M  V30 10306 H 947.136 1.89211 -0.965044 0
M  V30 10307 H 949.399 0.871068 -0.374091 0
M  V30 10308 H 949.105 3.41898 -0.824533 0
M  V30 10309 H 948.979 3.66086 0.908903 0
M  V30 10310 H 951.366 2.70601 1.17726 0
M  V30 10311 H 951.447 2.49201 -0.577299 0
M  V30 10312 H 951.091 5.00262 -0.877516 0
M  V30 10313 H 951.021 5.18977 0.892758 0
M  V30 10314 H 953.512 3.77142 0.23926 0
M  V30 10315 H 953.825 7.7268 -0.136351 0
M  V30 10316 H 952.17 6.94904 -0.115675 0
M  V30 10317 H 955.361 4.67619 0.212235 0
M  V30 10318 H 955.534 6.47987 0.0411822 0
M  V30 10319 N 948.94 -0.228186 1.55939 0
M  V30 10320 C 950.186 -0.954964 1.78909 0
M  V30 10321 C 950.519 -1.8425 0.613648 0
M  V30 10322 O 949.794 -1.90604 -0.38737 0
M  V30 10323 C 950.077 -1.79957 3.1191 0
M  V30 10324 C 949.93 -0.938968 4.3989 0
M  V30 10325 C 951.249 -2.77859 3.41295 0
M  V30 10326 H 948.368 -0.345745 0.650868 0
M  V30 10327 H 951.01 -0.224244 1.88672 0
M  V30 10328 H 949.16 -2.42256 3.03717 0
M  V30 10329 H 950.832 -0.333225 4.60095 0
M  V30 10330 H 949.075 -0.244096 4.33113 0
M  V30 10331 H 949.746 -1.56416 5.29375 0
M  V30 10332 H 952.222 -2.25695 3.49572 0
M  V30 10333 H 951.098 -3.34062 4.35538 0
M  V30 10334 H 951.359 -3.55266 2.63132 0
M  V30 10335 N 950.418 -1.49637 -0.494624 0
M  V30 10336 C 951.664 -1.59681 -1.25019 0
M  V30 10337 C 951.997 -0.285511 -1.9209 0
M  V30 10338 O 951.272 0.711398 -1.81023 0
M  V30 10339 C 951.555 -2.76058 -2.31222 0
M  V30 10340 C 951.408 -4.17002 -1.68611 0
M  V30 10341 C 952.727 -2.88056 -3.32734 0
M  V30 10342 H 949.846 -0.581209 -0.453172 0
M  V30 10343 H 952.488 -1.81944 -0.547391 0
M  V30 10344 H 950.638 -2.57207 -2.91164 0
M  V30 10345 H 952.31 -4.47385 -1.12447 0
M  V30 10346 H 950.553 -4.22352 -0.989991 0
M  V30 10347 H 951.224 -4.94316 -2.45674 0
M  V30 10348 H 953.7 -3.05237 -2.82789 0
M  V30 10349 H 952.576 -3.71151 -4.04399 0
M  V30 10350 H 952.837 -1.97676 -3.95445 0
M  V30 10351 N 951.896 0.746133 -1.38819 0
M  V30 10352 C 952.806 1.89063 -1.38897 0
M  V30 10353 C 953.822 1.71648 -0.28513 0
M  V30 10354 O 954.998 1.94443 -0.524783 0
M  V30 10355 C 952.063 3.24523 -1.22007 0
M  V30 10356 C 951.124 3.54411 -2.42263 0
M  V30 10357 C 950.357 4.83408 -2.26169 0
M  V30 10358 O 950.58 5.56325 -1.25931 0
M  V30 10359 O 949.514 5.12943 -3.14918 0
M  V30 10360 H 953.34 1.91951 -2.35347 0
M  V30 10361 H 950.925 0.892433 -1.19816 0
M  V30 10362 H 952.807 4.05496 -1.14677 0
M  V30 10363 H 951.482 3.2243 -0.286455 0
M  V30 10364 H 950.389 2.73569 -2.55168 0
M  V30 10365 H 951.722 3.61273 -3.3428 0
M  V30 10366 N 953.375 1.23811 0.975125 0
M  V30 10367 C 954.307 0.981779 2.07108 0
M  V30 10368 C 955.32 -0.0461211 1.62735 0
M  V30 10369 O 956.509 0.190039 1.77486 0
M  V30 10370 C 953.609 0.458364 3.35786 0
M  V30 10371 C 952.782 1.54767 4.09104 0
M  V30 10372 C 951.841 1.0282 5.16057 0
M  V30 10373 O 950.867 1.71831 5.42644 0
M  V30 10374 N 952.069 -0.141243 5.80328 0
M  V30 10375 H 954.834 1.92537 2.29673 0
M  V30 10376 H 952.395 1.1474 1.14221 0
M  V30 10377 H 954.387 0.0957686 4.04587 0
M  V30 10378 H 952.957 -0.390768 3.10148 0
M  V30 10379 H 952.177 2.08279 3.34684 0
M  V30 10380 H 953.465 2.28006 4.54853 0
M  V30 10381 H 952.863 -0.718382 5.6112 0
M  V30 10382 H 951.42 -0.445052 6.50279 0
M  V30 10383 N 954.853 -1.17469 1.05066 0
M  V30 10384 C 956.099 -1.87976 0.761113 0
M  V30 10385 C 956.432 -1.80756 -0.709995 0
M  V30 10386 O 955.707 -1.21469 -1.51906 0
M  V30 10387 C 955.99 -3.38055 1.2406 0
M  V30 10388 C 955.843 -3.54032 2.77455 0
M  V30 10389 C 957.162 -4.32036 0.838612 0
M  V30 10390 H 954.281 -0.682573 0.277963 0
M  V30 10391 H 956.923 -1.38147 1.30443 0
M  V30 10392 H 955.073 -3.80622 0.778388 0
M  V30 10393 H 956.745 -3.20489 3.3179 0
M  V30 10394 H 954.988 -2.96352 3.16793 0
M  V30 10395 H 955.659 -4.59377 3.06066 0
M  V30 10396 H 958.135 -3.97303 1.23651 0
M  V30 10397 H 957.011 -5.35583 1.20173 0
M  V30 10398 H 957.272 -4.41349 -0.257498 0
M  V30 10399 N 956.331 -0.831506 -1.3388 0
M  V30 10400 C 957.556 -0.435954 -2.02766 0
M  V30 10401 C 957.981 0.952889 -1.62178 0
M  V30 10402 O 957.339 1.62166 -0.810681 0
M  V30 10403 C 957.387 -0.555907 -3.56289 0
M  V30 10404 O 956.491 0.420826 -4.10247 0
M  V30 10405 H 955.832 -0.178248 -0.639628 0
M  V30 10406 H 958.362 -1.1243 -1.70941 0
M  V30 10407 H 958.372 -0.434831 -4.05676 0
M  V30 10408 H 957.047 -1.56881 -3.85177 0
M  V30 10409 H 955.624 0.257919 -3.72007 0
M  V30 10410 O 957.848 1.44165 -0.727918 0
M  V30 10411 H 958.539 1.91707 -0.277151 0
M  V30 END ATOM
M  V30 BEGIN BOND
M  V30 END BOND
M  V30 END CTAB
M  END
$$$$
