drugbank_target|P00183 Camphor 5-monooxygenase (DB01011; DB01663; DB01703; DB01744; DB01826; DB02125; DB02617; DB02817; DB02851; DB03031; DB03540; DB03627; DB03836; DB04032; DB04501)
 OpenBabel12092119503D

  0  0  0     0  0            999 V3000
M  V30 BEGIN CTAB
M  V30 COUNTS 6513 6592 0 0 0
M  V30 BEGIN ATOM
M  V30 1 H -0.908 1.98254 -0.117106 0
M  V30 2 N 0 1.576 0 0
M  V30 3 C 0.933 2.03868 1.02534 0
M  V30 4 C 1.911 0.928543 1.3348 0
M  V30 5 O 3.095 1.19667 1.45644 0
M  V30 6 C 0.222 2.43627 2.35294 0
M  V30 7 C -0.732 3.65373 2.2001 0
M  V30 8 S 0.101 5.13292 1.52614 0
M  V30 9 C 1.257 5.56322 2.86805 0
M  V30 10 H 1.49 2.90518 0.631377 0
M  V30 11 H -0.977 1.52953 0.210867 0
M  V30 12 H 0.981 2.67203 3.11629 0
M  V30 13 H -0.358 1.57376 2.7183 0
M  V30 14 H -1.165 3.90944 3.18086 0
M  V30 15 H -1.563 3.418 1.51819 0
M  V30 16 H 0.729 5.58782 3.83104 0
M  V30 17 H 1.672 6.56266 2.65933 0
M  V30 18 H 2.08 4.83886 2.90714 0
M  V30 19 N 1.4781 -0.272755 1.55222 0
M  V30 20 C 2.7061 -1.02255 1.79865 0
M  V30 21 C 3.1211 -1.79924 0.572088 0
M  V30 22 O 2.4781 -1.76638 -0.458842 0
M  V30 23 C 2.5291 -1.98094 3.02392 0
M  V30 24 O 2.2501 -1.23572 4.20311 0
M  V30 25 C 3.7511 -2.84884 3.39641 0
M  V30 26 H 0.9711 -0.302057 0.599168 0
M  V30 27 H 3.5151 -0.303465 2.02236 0
M  V30 28 H 1.6701 -2.65465 2.82147 0
M  V30 29 H 2.0841 -1.88172 4.89583 0
M  V30 30 H 3.5581 -3.47927 4.28545 0
M  V30 31 H 4.0351 -3.54665 2.59055 0
M  V30 32 H 4.6411 -2.23003 3.62146 0
M  V30 33 N 2.9562 -1.48159 -0.537278 0
M  V30 34 C 4.1842 -1.59454 -1.31841 0
M  V30 35 C 4.5992 -0.252065 -1.8711 0
M  V30 36 O 3.9562 0.757621 -1.66031 0
M  V30 37 C 4.0072 -2.63546 -2.47439 0
M  V30 38 O 3.7282 -3.92583 -1.94449 0
M  V30 39 C 5.2292 -2.85212 -3.39366 0
M  V30 40 H 2.4492 -0.53785 -0.401196 0
M  V30 41 H 4.9932 -1.93932 -0.648891 0
M  V30 42 H 3.1482 -2.31946 -3.1029 0
M  V30 43 H 3.5622 -4.49629 -2.70063 0
M  V30 44 H 5.0362 -3.61863 -4.16844 0
M  V30 45 H 5.5132 -1.93765 -3.94147 0
M  V30 46 H 6.1192 -3.18086 -2.82314 0
M  V30 47 N 4.4343 0.785586 -1.36625 0
M  V30 48 C 5.3443 1.92964 -1.33425 0
M  V30 49 C 6.3603 1.72394 -0.235851 0
M  V30 50 O 7.5363 1.95866 -0.468878 0
M  V30 51 C 4.6013 3.27884 -1.12662 0
M  V30 52 C 3.6623 3.61204 -2.32013 0
M  V30 53 C 2.8953 4.89687 -2.12231 0
M  V30 54 O 3.1183 5.59704 -1.09945 0
M  V30 55 O 2.0523 5.21752 -3.00098 0
M  V30 56 H 5.8783 1.98613 -2.29753 0
M  V30 57 H 3.4633 0.926384 -1.17211 0
M  V30 58 H 5.3453 4.08614 -1.03016 0
M  V30 59 H 4.0203 3.23118 -0.193991 0
M  V30 60 H 2.9273 2.80765 -2.47228 0
M  V30 61 H 4.2603 3.70698 -3.23796 0
M  V30 62 N 5.9124 1.20967 1.01018 0
M  V30 63 C 7.1404 1.04956 1.78303 0
M  V30 64 C 7.5554 -0.400915 1.84494 0
M  V30 65 O 6.9124 -1.27826 1.30257 0
M  V30 66 C 6.9634 1.63403 3.22462 0
M  V30 67 O 6.6844 3.02775 3.16637 0
M  V30 68 C 8.1854 1.52432 4.16268 0
M  V30 69 H 5.4054 0.368858 0.560522 0
M  V30 70 H 7.9494 1.60193 1.27116 0
M  V30 71 H 6.1044 1.1227 3.70775 0
M  V30 72 H 6.5184 3.30626 4.07169 0
M  V30 73 H 7.9924 1.98078 5.15237 0
M  V30 74 H 8.4694 0.477875 4.36592 0
M  V30 75 H 9.0754 2.02787 3.73841 0
M  V30 76 N 7.3905 -1.2043 1.01659 0
M  V30 77 C 8.6395 -1.89118 0.701237 0
M  V30 78 C 8.9525 -1.79705 -0.772358 0
M  V30 79 O 10.1585 -2.43528 -1.20026 0
M  V30 80 C 8.6145 -3.39168 1.20388 0
M  V30 81 C 8.2225 -3.57166 2.70438 0
M  V30 82 C 9.9665 -4.1341 0.963953 0
M  V30 83 C 7.8735 -5.01042 3.14183 0
M  V30 84 H 6.8035 -0.708267 0.2586 0
M  V30 85 H 9.4545 -1.36239 1.22927 0
M  V30 86 H 7.8365 -3.91369 0.603824 0
M  V30 87 H 9.0105 -3.15351 3.35992 0
M  V30 88 H 7.3255 -2.96294 2.92572 0
M  V30 89 H 9.9225 -5.19491 1.26621 0
M  V30 90 H 10.2655 -4.16181 -0.099578 0
M  V30 91 H 10.7985 -3.67309 1.52738 0
M  V30 92 H 7.5375 -5.03426 4.19812 0
M  V30 93 H 7.0575 -5.43668 2.53348 0
M  V30 94 H 8.7365 -5.69623 3.0682 0
M  V30 95 N 8.8686 -0.792821 -1.36206 0
M  V30 96 C 9.8006 -0.151469 -2.28699 0
M  V30 97 C 10.8136 0.641262 -1.49638 0
M  V30 98 O 12.0026 0.475885 -1.72039 0
M  V30 99 C 9.1026 0.808424 -3.29117 0
M  V30 100 C 8.2756 0.0650202 -4.37352 0
M  V30 101 C 7.3346 0.941358 -5.17711 0
M  V30 102 O 6.3606 0.397352 -5.67811 0
M  V30 103 N 7.5626 2.2652 -5.3448 0
M  V30 104 H 10.3276 -0.945982 -2.84379 0
M  V30 105 H 7.8886 -0.647032 -1.48409 0
M  V30 106 H 9.8806 1.3986 -3.79765 0
M  V30 107 H 8.4506 1.5038 -2.74052 0
M  V30 108 H 7.6706 -0.706255 -3.87822 0
M  V30 109 H 8.9586 -0.447847 -5.06825 0
M  V30 110 H 8.3566 2.73128 -4.95396 0
M  V30 111 H 6.9136 2.80493 -5.88359 0
M  V30 112 N 10.3467 1.47872 -0.545128 0
M  V30 113 C 11.5717 2.07391 -0.0190611 0
M  V30 114 C 11.9967 1.39688 1.25971 0
M  V30 115 O 11.3547 0.467816 1.7516 0
M  V30 116 C 11.4027 3.60188 0.172335 0
M  V30 117 O 10.5067 3.9339 1.23766 0
M  V30 118 H 9.8477 0.662411 -0.0459059 0
M  V30 119 H 12.3777 1.90066 -0.757365 0
M  V30 120 H 12.3877 4.06129 0.390305 0
M  V30 121 H 11.0627 4.08865 -0.761725 0
M  V30 122 H 9.6397 3.5921 1.00114 0
M  V30 123 N 11.8248 0.280983 1.55075 0
M  V30 124 C 12.7728 -0.619864 2.24188 0
M  V30 125 C 13.7668 -1.15315 1.24092 0
M  V30 126 O 14.9728 -1.1061 1.42005 0
M  V30 127 H 11.3478 -0.218459 0.719569 0
M  V30 128 H 13.3188 -0.0141831 2.98397 0
M  V30 129 C 12.0678 -1.7899 2.98091 0
M  V30 130 H 11.3908 -1.38874 3.74905 0
M  V30 131 H 12.8308 -2.39672 3.49762 0
M  V30 132 C 11.2898 -2.68192 2.03899 0
M  V30 133 O 11.8198 -3.6872 1.594 0
M  V30 134 N 10.0258 -2.35488 1.70275 0
M  V30 135 H 9.5728 -1.53787 2.06658 0
M  V30 136 H 9.5308 -2.95442 1.07524 0
M  V30 137 N 13.3029 -1.57598 0.00835791 0
M  V30 138 C 14.2659 -2.07884 -0.965242 0
M  V30 139 C 15.2659 -0.989825 -1.26725 0
M  V30 140 O 16.4559 -1.25218 -1.21104 0
M  V30 141 C 13.5879 -2.52731 -2.28779 0
M  V30 142 H 14.7809 -2.95178 -0.530112 0
M  V30 143 H 12.3339 -1.54458 -0.239283 0
M  V30 144 H 13.0689 -1.68705 -2.76964 0
M  V30 145 H 12.8539 -3.32272 -2.08177 0
M  V30 146 H 14.3439 -2.91933 -2.98605 0
M  V30 147 N 14.781 0.264519 -1.55364 0
M  V30 148 C 15.729 1.34702 -1.89626 0
M  V30 149 C 16.723 1.50712 -0.773459 0
M  V30 150 O 17.929 1.52395 -0.957897 0
M  V30 151 H 14.304 0.450682 -0.601988 0
M  V30 152 H 16.275 1.0306 -2.80038 0
M  V30 153 C 15.024 2.6989 -2.19214 0
M  V30 154 H 14.347 2.58365 -3.05103 0
M  V30 155 H 15.787 3.44553 -2.47102 0
M  V30 156 C 14.246 3.21637 -1.00254 0
M  V30 157 O 14.776 4.00973 -0.241501 0
M  V30 158 N 12.982 2.7943 -0.797938 0
M  V30 159 H 12.529 2.15026 -1.4185 0
M  V30 160 H 12.487 3.144 -0.00363422 0
M  V30 161 N 16.2591 1.48442 0.529413 0
M  V30 162 C 17.1891 1.65902 1.64313 0
M  V30 163 C 18.1701 0.507897 1.6234 0
M  V30 164 O 19.3551 0.740503 1.79528 0
M  V30 165 C 16.4851 1.69911 3.02898 0
M  V30 166 C 15.4391 2.8453 3.19729 0
M  V30 167 C 14.7651 2.73629 4.59381 0
M  V30 168 C 16.0651 4.25821 3.02447 0
M  V30 169 H 17.7591 2.5914 1.49955 0
M  V30 170 H 15.3051 1.24709 0.719982 0
M  V30 171 H 17.2581 1.80715 3.80684 0
M  V30 172 H 15.9821 0.732524 3.18279 0
M  V30 173 H 14.6411 2.73283 2.44361 0
M  V30 174 H 14.2891 1.74938 4.71599 0
M  V30 175 H 13.9891 3.50541 4.71588 0
M  V30 176 H 15.5131 2.86401 5.39265 0
M  V30 177 H 16.9271 4.37898 3.70024 0
M  V30 178 H 15.3241 5.03735 3.26146 0
M  V30 179 H 16.3941 4.42244 1.98867 0
M  V30 180 N 17.7372 -0.778329 1.37039 0
M  V30 181 C 18.7002 -1.87301 1.32102 0
M  V30 182 C 19.7002 -1.59198 0.226405 0
M  V30 183 O 20.8902 -1.67403 0.481861 0
M  V30 184 C 18.0222 -3.24309 1.05055 0
M  V30 185 H 19.2152 -1.93093 2.29467 0
M  V30 186 H 16.7682 -0.977358 1.21973 0
M  V30 187 H 17.5032 -3.24196 0.0819373 0
M  V30 188 H 17.2882 -3.46098 1.84279 0
M  V30 189 H 18.7782 -4.04382 1.04234 0
M  V30 190 N 19.2153 -1.21501 -1.00376 0
M  V30 191 C 20.6263 -1.03146 -1.55621 0
M  V30 192 C 20.9773 0.408375 -1.91903 0
M  V30 193 O 20.1023 1.29177 -1.73616 0
M  V30 194 C 20.6973 -1.86612 -2.82775 0
M  V30 195 C 19.2563 -1.72586 -3.34501 0
M  V30 196 C 18.4033 -1.83747 -2.07683 0
M  V30 197 H 21.3543 -1.35505 -0.826081 0
M  V30 198 H 21.3753 -1.3771 -3.54706 0
M  V30 199 H 20.8873 -2.91399 -2.56336 0
M  V30 200 H 18.9883 -0.704877 -3.65872 0
M  V30 201 H 19.1013 -2.54623 -4.05837 0
M  V30 202 H 17.4653 -1.27069 -2.20739 0
M  V30 203 H 18.2483 -2.90044 -1.83655 0
M  V30 204 N 20.6934 1.19889 -1.02296 0
M  V30 205 C 21.6234 2.25141 -0.619174 0
M  V30 206 C 22.6044 1.66051 0.368915 0
M  V30 207 O 23.7894 1.92546 0.252941 0
M  V30 208 C 20.9194 3.4728 0.0368783 0
M  V30 209 C 19.8734 4.19005 -0.872865 0
M  V30 210 C 19.1994 5.34637 -0.0822402 0
M  V30 211 C 20.4994 4.74452 -2.18387 0
M  V30 212 H 22.1934 2.59171 -1.49903 0
M  V30 213 H 19.7394 1.24579 -0.722222 0
M  V30 214 H 21.6924 4.20098 0.330958 0
M  V30 215 H 20.4164 3.12433 0.95149 0
M  V30 216 H 19.0754 3.48061 -1.15105 0
M  V30 217 H 18.7234 4.96034 0.83422 0
M  V30 218 H 18.4234 5.83557 -0.688149 0
M  V30 219 H 19.9474 6.10255 0.205238 0
M  V30 220 H 21.3614 5.39055 -1.95172 0
M  V30 221 H 19.7584 5.33834 -2.74119 0
M  V30 222 H 20.8284 3.92844 -2.84257 0
M  V30 223 N 22.1715 0.800033 1.35784 0
M  V30 224 C 23.5825 0.439142 1.81462 0
M  V30 225 C 23.9335 -1.03813 1.66485 0
M  V30 226 O 23.0585 -1.80626 1.19177 0
M  V30 227 C 23.6535 0.790314 3.29453 0
M  V30 228 C 22.2125 0.482111 3.733 0
M  V30 229 C 21.3595 1.01938 2.57883 0
M  V30 230 H 24.3105 0.992254 1.23855 0
M  V30 231 H 24.3315 0.0853677 3.80404 0
M  V30 232 H 23.8435 1.86554 3.40322 0
M  V30 233 H 21.9445 -0.584652 3.67984 0
M  V30 234 H 22.0575 1.01015 4.6833 0
M  V30 235 H 20.4215 0.442043 2.50835 0
M  V30 236 H 21.2045 2.10059 2.71533 0
M  V30 237 N 23.6496 -1.47581 0.552962 0
M  V30 238 C 25.0606 -1.86324 0.118463 0
M  V30 239 C 25.4116 -1.46006 -1.3106 0
M  V30 240 O 24.5366 -0.861182 -1.98526 0
M  V30 241 C 25.1316 -3.3816 0.20821 0
M  V30 242 C 23.6906 -3.7601 -0.171226 0
M  V30 243 C 22.8376 -2.71634 0.557686 0
M  V30 244 H 25.7886 -1.39159 0.762928 0
M  V30 245 H 25.8096 -3.76141 -0.574278 0
M  V30 246 H 25.3216 -3.67473 1.24841 0
M  V30 247 H 23.4226 -3.52313 -1.21269 0
M  V30 248 H 23.5356 -4.78745 0.184379 0
M  V30 249 H 21.8996 -2.547 0.00125792 0
M  V30 250 H 22.6826 -3.0379 1.59896 0
M  V30 251 N 25.1277 -0.289203 -1.54924 0
M  V30 252 C 26.0777 0.606939 -2.19773 0
M  V30 253 C 27.0617 1.10783 -1.16687 0
M  V30 254 O 28.2537 1.05057 -1.4245 0
M  V30 255 C 25.3827 1.78398 -2.93307 0
M  V30 256 C 24.4687 1.29961 -4.03697 0
M  V30 257 N 24.8597 0.532377 -5.0299 0
M  V30 258 C 23.1577 1.58136 -4.17024 0
M  V30 259 C 23.8587 0.275912 -5.81045 0
M  V30 260 N 22.8347 0.852365 -5.36876 0
M  V30 261 H 26.6367 0.0130779 -2.93897 0
M  V30 262 H 24.1507 -0.09341 -1.62131 0
M  V30 263 H 26.1477 2.43741 -3.38225 0
M  V30 264 H 24.8077 2.38166 -2.20697 0
M  V30 265 H 25.8187 0.17838 -5.17593 0
M  V30 266 H 22.4957 2.18738 -3.55612 0
M  V30 267 H 23.8857 -0.339502 -6.71042 0
M  V30 268 N 26.6058 1.57591 -0.0167156 0
M  V30 269 C 27.8518 1.91567 0.665582 0
M  V30 270 C 28.1848 0.892298 1.72487 0
M  V30 271 O 27.4598 -0.0867127 1.94307 0
M  V30 272 C 27.7428 3.36069 1.29342 0
M  V30 273 C 27.5958 4.49135 0.244541 0
M  V30 274 C 28.9148 3.803 2.21495 0
M  V30 275 H 26.0338 0.69666 0.240488 0
M  V30 276 H 28.6758 1.89866 -0.0714356 0
M  V30 277 H 26.8258 3.3765 1.92158 0
M  V30 278 H 28.4978 4.59689 -0.385228 0
M  V30 279 H 26.7408 4.3165 -0.431379 0
M  V30 280 H 27.4118 5.47242 0.723207 0
M  V30 281 H 29.8878 3.80377 1.68678 0
M  V30 282 H 28.7638 4.82127 2.62382 0
M  V30 283 H 29.0248 3.15104 3.101 0
M  V30 284 N 28.0839 -0.256276 1.55502 0
M  V30 285 C 29.4949 -0.826068 1.67431 0
M  V30 286 C 29.8459 -1.86396 0.612446 0
M  V30 287 O 28.9709 -2.15031 -0.243025 0
M  V30 288 C 29.5659 -1.50512 3.03532 0
M  V30 289 C 28.1249 -2.02273 3.17431 0
M  V30 290 C 27.2719 -0.870548 2.63281 0
M  V30 291 H 30.2229 -0.0322728 1.58667 0
M  V30 292 H 30.2439 -2.37279 2.97454 0
M  V30 293 H 29.7559 -0.749484 3.80794 0
M  V30 294 H 27.8569 -2.80746 2.44974 0
M  V30 295 H 27.9699 -2.22655 4.24219 0
M  V30 296 H 26.3339 -1.26851 2.20864 0
M  V30 297 H 27.1169 -0.128149 3.43061 0
M  V30 298 N 29.562 -1.4872 -0.521534 0
M  V30 299 C 30.472 -1.66569 -1.65203 0
M  V30 300 C 31.488 -0.548197 -1.65139 0
M  V30 301 O 32.664 -0.820339 -1.83936 0
M  V30 302 C 29.729 -1.70917 -3.01642 0
M  V30 303 C 28.79 -2.94356 -3.12495 0
M  V30 304 C 28.023 -2.98487 -4.42426 0
M  V30 305 O 28.246 -2.10786 -5.30024 0
M  V30 306 O 27.18 -3.90746 -4.57822 0
M  V30 307 H 31.006 -2.62298 -1.5308 0
M  V30 308 H 28.591 -1.3222 -0.695565 0
M  V30 309 H 30.473 -1.7625 -3.82771 0
M  V30 310 H 29.148 -0.783633 -3.14071 0
M  V30 311 H 28.055 -2.94552 -2.3063 0
M  V30 312 H 29.388 -3.86322 -3.04986 0
M  V30 313 N 31.0401 0.771051 -1.3745 0
M  V30 314 C 31.9901 1.87456 -1.29785 0
M  V30 315 C 32.9741 1.59827 -0.185541 0
M  V30 316 O 34.1661 1.71945 -0.419997 0
M  V30 317 C 31.2951 3.24935 -1.1078 0
M  V30 318 C 30.3811 3.58514 -2.26558 0
M  V30 319 N 30.7721 3.6327 -3.5195 0
M  V30 320 C 29.0701 3.88683 -2.18727 0
M  V30 321 C 29.7711 3.93616 -4.283 0
M  V30 322 N 28.7471 4.09551 -3.57448 0
M  V30 323 H 32.5491 1.89386 -2.24745 0
M  V30 324 H 30.0631 0.967531 -1.30432 0
M  V30 325 H 32.0601 4.03881 -1.03374 0
M  V30 326 H 30.7201 3.24268 -0.16738 0
M  V30 327 H 31.7311 3.45458 -3.85848 0
M  V30 328 H 28.4081 3.95834 -1.32746 0
M  V30 329 H 29.7981 4.04066 -5.36824 0
M  V30 330 N 32.5182 1.22032 0.997298 0
M  V30 331 C 33.4482 1.01065 2.10495 0
M  V30 332 C 34.4292 -0.0669542 1.69968 0
M  V30 333 O 35.6142 0.0943987 1.9397 0
M  V30 334 C 32.7442 0.582874 3.42374 0
M  V30 335 C 31.6982 1.60592 3.96729 0
M  V30 336 C 31.0242 1.03412 5.24605 0
M  V30 337 C 32.3242 2.99478 4.27914 0
M  V30 338 H 34.0182 1.93708 2.28292 0
M  V30 339 H 31.5642 0.932761 1.09707 0
M  V30 340 H 33.5172 0.423332 4.19268 0
M  V30 341 H 32.2412 -0.379213 3.24391 0
M  V30 342 H 30.9002 1.75316 3.21963 0
M  V30 343 H 30.5482 0.063518 5.0296 0
M  V30 344 H 30.2482 1.71754 5.61938 0
M  V30 345 H 31.7722 0.886066 6.04137 0
M  V30 346 H 33.1862 2.88153 4.95622 0
M  V30 347 H 31.5832 3.64903 4.76409 0
M  V30 348 H 32.6532 3.49742 3.3587 0
M  V30 349 N 33.9963 -1.19345 1.0293 0
M  V30 350 C 35.2423 -1.89318 0.727083 0
M  V30 351 C 35.5753 -1.79446 -0.742483 0
M  V30 352 O 34.8503 -1.1871 -1.54072 0
M  V30 353 C 35.1333 -3.40238 1.17942 0
M  V30 354 C 34.9863 -3.58979 2.71024 0
M  V30 355 C 36.3053 -4.33479 0.760548 0
M  V30 356 H 33.4243 -0.687475 0.265606 0
M  V30 357 H 36.0663 -1.40477 1.2793 0
M  V30 358 H 34.2163 -3.81964 0.709608 0
M  V30 359 H 35.8883 -3.26421 3.25955 0
M  V30 360 H 34.1313 -3.02018 3.11396 0
M  V30 361 H 34.8023 -4.64823 2.9773 0
M  V30 362 H 37.2783 -3.99469 1.16464 0
M  V30 363 H 36.1543 -5.37664 1.10493 0
M  V30 364 H 36.4153 -4.40813 -0.337063 0
M  V30 365 N 35.4744 -0.807222 -1.35358 0
M  V30 366 C 36.7214 -0.387888 -1.9875 0
M  V30 367 C 37.0494 1.04509 -1.64037 0
M  V30 368 O 36.3044 1.73986 -0.895946 0
M  V30 369 C 36.6034 -0.519036 -3.53611 0
M  V30 370 C 36.2694 -1.91542 -4.08194 0
M  V30 371 C 34.9314 -2.29745 -4.22813 0
M  V30 372 C 37.2834 -2.82896 -4.37744 0
M  V30 373 C 34.6114 -3.58668 -4.643 0
M  V30 374 C 36.9634 -4.11265 -4.8067 0
M  V30 375 C 35.6274 -4.49466 -4.93494 0
M  V30 376 H 34.8974 -0.141938 -0.727279 0
M  V30 377 H 37.5444 -1.02814 -1.6156 0
M  V30 378 H 35.8494 0.204658 -3.91265 0
M  V30 379 H 37.5464 -0.175345 -4.00616 0
M  V30 380 H 34.1364 -1.60862 -3.97268 0
M  V30 381 H 38.3204 -2.54629 -4.26002 0
M  V30 382 H 33.5764 -3.88113 -4.72418 0
M  V30 383 H 37.7504 -4.82153 -5.02496 0
M  V30 384 H 35.3774 -5.49418 -5.25399 0
M  V30 385 N 36.9525 1.47285 -0.560781 0
M  V30 386 C 38.2295 1.9558 0.0277798 0
M  V30 387 C 38.6095 1.5034 1.48192 0
M  V30 388 O 37.9575 0.743882 2.16052 0
M  V30 389 C 38.1675 3.48789 -0.121418 0
M  V30 390 C 39.5155 4.24594 0.0220912 0
M  V30 391 O 40.5395 3.56166 -0.0491439 0
M  V30 392 O 39.3985 5.46217 0.175958 0
M  V30 393 H 36.4925 0.824663 0.0621342 0
M  V30 394 H 39.0385 1.5767 -0.627556 0
M  V30 395 H 37.8105 3.74533 -1.13316 0
M  V30 396 H 37.4335 3.93473 0.571366 0
M  V30 397 N 38.4306 0.297415 1.54768 0
M  V30 398 C 39.6776 -0.312913 2.00068 0
M  V30 399 C 40.0056 -1.54171 1.18582 0
M  V30 400 O 39.2606 -1.94108 0.249133 0
M  V30 401 C 39.5596 -0.717561 3.50123 0
M  V30 402 C 39.2256 0.409095 4.4904 0
M  V30 403 C 37.8876 0.718399 4.75807 0
M  V30 404 C 40.2396 1.16717 5.07963 0
M  V30 405 C 37.5676 1.78896 5.5876 0
M  V30 406 C 39.9196 2.22762 5.92081 0
M  V30 407 C 38.5836 2.54303 6.1716 0
M  V30 408 H 37.8536 -0.114503 0.7321 0
M  V30 409 H 40.5006 0.415767 1.86932 0
M  V30 410 H 38.8056 -1.52627 3.60849 0
M  V30 411 H 40.5026 -1.20091 3.82595 0
M  V30 412 H 37.0926 0.157918 4.28309 0
M  V30 413 H 41.2766 0.941466 4.87289 0
M  V30 414 H 36.5326 2.0381 5.7643 0
M  V30 415 H 40.7066 2.81962 6.36765 0
M  V30 416 H 38.3336 3.3739 6.81229 0
M  V30 417 N 39.9087 -1.5758 0.0250728 0
M  V30 418 C 41.1857 -1.82917 -0.692873 0
M  V30 419 C 41.5657 -0.908137 -1.90568 0
M  V30 420 O 40.9137 0.0372298 -2.2847 0
M  V30 421 C 41.1237 -3.32034 -1.07492 0
M  V30 422 C 42.4717 -3.98406 -1.46826 0
M  V30 423 O 43.4957 -3.36505 -1.16801 0
M  V30 424 O 42.3547 -5.07497 -2.02754 0
M  V30 425 H 39.4487 -0.754079 -0.33955 0
M  V30 426 H 41.9947 -1.69619 0.0524456 0
M  V30 427 H 40.7667 -3.90728 -0.211552 0
M  V30 428 H 40.3897 -3.50424 -1.87854 0
M  V30 429 N 41.3868 0.248026 -1.55636 0
M  V30 430 C 42.3198 1.3334 -1.85191 0
M  V30 431 C 43.2978 1.46429 -0.706906 0
M  V30 432 O 44.4818 1.62662 -0.952544 0
M  V30 433 C 41.6088 2.70703 -2.03562 0
M  V30 434 C 40.6548 2.7477 -3.26196 0
M  V30 435 S 41.4878 2.31493 -4.82878 0
M  V30 436 C 42.6438 3.70783 -5.04253 0
M  V30 437 H 42.8768 1.08072 -2.76962 0
M  V30 438 H 40.4098 0.448952 -1.47729 0
M  V30 439 H 42.3678 3.49798 -2.1483 0
M  V30 440 H 41.0288 2.9321 -1.12635 0
M  V30 441 H 40.2218 3.75648 -3.36013 0
M  V30 442 H 39.8238 2.03719 -3.13647 0
M  V30 443 H 42.1158 4.6627 -4.91527 0
M  V30 444 H 43.0588 3.65901 -6.06236 0
M  V30 445 H 43.4668 3.63244 -4.32105 0
M  V30 446 N 42.8649 1.48995 0.513639 0
M  V30 447 C 44.0949 1.61297 1.291 0
M  V30 448 C 44.5029 0.278656 1.87137 0
M  V30 449 O 43.8459 -0.744325 1.67945 0
M  V30 450 C 43.9079 2.61326 2.46879 0
M  V30 451 C 43.5719 4.05993 2.09807 0
M  V30 452 C 44.5689 4.93183 1.64519 0
M  V30 453 C 42.2539 4.51642 2.19829 0
M  V30 454 C 44.2479 6.24056 1.2974 0
M  V30 455 C 41.9349 5.82532 1.84662 0
M  V30 456 C 42.9329 6.68562 1.3969 0
M  V30 457 O 42.6209 7.97014 1.04992 0
M  V30 458 H 42.3529 0.546236 0.39825 0
M  V30 459 H 44.9069 1.95673 0.62459 0
M  V30 460 H 43.1369 2.22104 3.16554 0
M  V30 461 H 44.8259 2.6329 3.08923 0
M  V30 462 H 45.5919 4.59147 1.56233 0
M  V30 463 H 41.4709 3.84855 2.53786 0
M  V30 464 H 45.0149 6.91161 0.945659 0
M  V30 465 H 40.9119 6.16099 1.92594 0
M  V30 466 H 41.6799 8.09913 1.18249 0
M  V30 467 N 44.343 -0.763751 1.37857 0
M  V30 468 C 45.291 -1.89864 1.34367 0
M  V30 469 C 46.285 -1.67816 0.231143 0
M  V30 470 O 47.491 -1.75508 0.399617 0
M  V30 471 H 43.866 -0.624501 0.41893 0
M  V30 472 H 45.837 -1.89925 2.30155 0
M  V30 473 C 44.586 -3.27227 1.1755 0
M  V30 474 H 43.909 -3.44773 2.02414 0
M  V30 475 H 45.349 -4.06911 1.1916 0
M  V30 476 C 43.808 -3.36692 -0.118311 0
M  V30 477 O 44.338 -3.86374 -1.09902 0
M  V30 478 N 42.544 -2.90092 -0.171717 0
M  V30 479 H 42.091 -2.49853 0.627012 0
M  V30 480 H 42.049 -2.96806 -1.03699 0
M  V30 481 N 45.8211 -1.22559 -0.990812 0
M  V30 482 C 47.2321 -1.04791 -1.54518 0
M  V30 483 C 47.5831 0.387998 -1.92325 0
M  V30 484 O 46.7081 1.27328 -1.74976 0
M  V30 485 C 47.3031 -1.896 -2.80779 0
M  V30 486 C 45.8621 -1.76124 -3.32652 0
M  V30 487 C 45.0091 -1.8594 -2.05722 0
M  V30 488 H 47.9601 -1.36374 -0.811662 0
M  V30 489 H 47.9811 -1.41464 -3.53225 0
M  V30 490 H 47.4931 -2.94101 -2.53231 0
M  V30 491 H 45.5941 -0.743643 -3.65104 0
M  V30 492 H 45.7071 -2.58913 -4.03114 0
M  V30 493 H 44.0711 -1.29403 -2.19379 0
M  V30 494 H 44.8541 -2.91976 -1.80568 0
M  V30 495 N 47.2992 1.18797 -1.03562 0
M  V30 496 C 48.5242 1.9314 -0.755764 0
M  V30 497 C 48.9492 1.7537 0.68022 0
M  V30 498 O 48.3072 1.06046 1.47051 0
M  V30 499 C 48.3552 3.42747 -1.12058 0
M  V30 500 O 47.4592 4.11683 -0.243124 0
M  V30 501 H 46.8002 0.602724 -0.278604 0
M  V30 502 H 49.3302 1.50678 -1.3841 0
M  V30 503 H 49.3402 3.93437 -1.08035 0
M  V30 504 H 48.0152 3.55002 -2.16672 0
M  V30 505 H 46.5922 3.71323 -0.342539 0
M  V30 506 N 48.7773 0.814389 1.34928 0
M  V30 507 C 49.7253 0.218424 2.31572 0
M  V30 508 C 50.7193 -0.636128 1.57002 0
M  V30 509 O 51.9253 -0.52842 1.72069 0
M  V30 510 H 48.3003 0.0518799 0.750208 0
M  V30 511 H 50.2713 1.04852 2.79372 0
M  V30 512 C 49.0203 -0.61207 3.4227 0
M  V30 513 H 48.3433 0.0361578 3.99784 0
M  V30 514 H 49.7833 -0.995317 4.12152 0
M  V30 515 C 48.2423 -1.78087 2.85984 0
M  V30 516 O 48.7723 -2.8787 2.80168 0
M  V30 517 N 46.9783 -1.59488 2.42924 0
M  V30 518 H 46.5253 -0.701874 2.47854 0
M  V30 519 H 46.4833 -2.37846 2.05613 0
M  V30 520 N 50.2554 -1.46986 0.568584 0
M  V30 521 C 51.1854 -2.32946 -0.160753 0
M  V30 522 C 52.1664 -1.44487 -0.897631 0
M  V30 523 O 53.3514 -1.73327 -0.875867 0
M  V30 524 C 50.4814 -3.26494 -1.18403 0
M  V30 525 C 49.4354 -4.24282 -0.562895 0
M  V30 526 C 48.7614 -5.07236 -1.69163 0
M  V30 527 C 50.0614 -5.19989 0.490761 0
M  V30 528 H 51.7554 -2.94175 0.556916 0
M  V30 529 H 49.3014 -1.4146 0.26927 0
M  V30 530 H 51.2544 -3.85477 -1.70251 0
M  V30 531 H 49.9784 -2.63343 -1.93179 0
M  V30 532 H 48.6374 -3.66541 -0.0656164 0
M  V30 533 H 48.2854 -4.4048 -2.42871 0
M  V30 534 H 47.9854 -5.7345 -1.28174 0
M  V30 535 H 49.5094 -5.6908 -2.21314 0
M  V30 536 H 50.9234 -5.73271 0.0579047 0
M  V30 537 H 49.3204 -5.94469 0.820165 0
M  V30 538 H 50.3904 -4.64777 1.3824 0
M  V30 539 N 51.7335 -0.305618 -1.54608 0
M  V30 540 C 52.9585 0.307562 -2.05107 0
M  V30 541 C 53.3835 1.46385 -1.18123 0
M  V30 542 O 52.7415 1.8034 -0.186324 0
M  V30 543 C 52.7895 0.73704 -3.52987 0
M  V30 544 O 51.8935 1.84134 -3.6901 0
M  V30 545 H 51.2345 0.0589143 -0.661381 0
M  V30 546 H 53.7645 -0.448807 -1.99617 0
M  V30 547 H 53.7745 1.02459 -3.94925 0
M  V30 548 H 52.4495 -0.108773 -4.15758 0
M  V30 549 H 51.0265 1.55398 -3.38978 0
M  V30 550 N 53.2116 1.57565 -0.0334293 0
M  V30 551 C 54.1746 2.09393 0.932048 0
M  V30 552 C 55.1746 1.00986 1.25134 0
M  V30 553 O 56.3646 1.27129 1.19096 0
M  V30 554 C 53.4966 2.56338 2.2473 0
M  V30 555 H 54.6896 2.95984 0.483085 0
M  V30 556 H 52.2426 1.54819 0.21468 0
M  V30 557 H 52.9776 1.7309 2.74245 0
M  V30 558 H 52.7626 3.35542 2.02865 0
M  V30 559 H 54.2526 2.96646 2.93923 0
M  V30 560 N 54.6897 -0.239769 1.55765 0
M  V30 561 C 55.9377 -0.964892 1.77579 0
M  V30 562 C 56.2587 -1.85582 0.598699 0
M  V30 563 O 55.5287 -1.92075 -0.385226 0
M  V30 564 H 54.1087 -0.359265 0.654933 0
M  V30 565 H 56.7707 -0.256001 1.93211 0
M  V30 566 H 55.8667 -1.58243 2.69009 0
M  V30 567 N 56.1678 -1.49265 -0.50573 0
M  V30 568 C 57.4138 -1.58748 -1.26202 0
M  V30 569 C 57.7468 -0.271227 -1.92297 0
M  V30 570 O 57.0218 0.724831 -1.80489 0
M  V30 571 C 57.3048 -2.74332 -2.33268 0
M  V30 572 C 57.1578 -4.15737 -1.71705 0
M  V30 573 C 58.4768 -2.85576 -3.34865 0
M  V30 574 H 55.5958 -0.577826 -0.457478 0
M  V30 575 H 58.2378 -1.81532 -0.560897 0
M  V30 576 H 56.3878 -2.55036 -2.93068 0
M  V30 577 H 58.0598 -4.46537 -1.15769 0
M  V30 578 H 56.3028 -4.21605 -1.02135 0
M  V30 579 H 56.9738 -4.92477 -2.49341 0
M  V30 580 H 59.4498 -3.03127 -2.8505 0
M  V30 581 H 58.3258 -3.68135 -4.07146 0
M  V30 582 H 58.5868 -1.94732 -3.96903 0
M  V30 583 N 57.6459 0.756429 -1.3826 0
M  V30 584 C 58.5779 1.87971 -1.31147 0
M  V30 585 C 59.5909 1.61248 -0.224239 0
M  V30 586 O 60.7799 1.71881 -0.481581 0
M  V30 587 C 57.8799 3.23545 -1.00857 0
M  V30 588 C 57.0529 3.77794 -2.20432 0
M  V30 589 C 56.1119 4.91877 -1.86931 0
M  V30 590 O 55.1379 5.06659 -2.59395 0
M  V30 591 N 56.3399 5.74643 -0.822568 0
M  V30 592 H 59.1049 1.94585 -2.2794 0
M  V30 593 H 56.6659 0.936234 -1.32084 0
M  V30 594 H 58.6579 3.97403 -0.765021 0
M  V30 595 H 57.2279 3.12335 -0.128687 0
M  V30 596 H 56.4479 2.95534 -2.6087 0
M  V30 597 H 57.7359 4.10771 -3.00241 0
M  V30 598 H 57.1339 5.65266 -0.221575 0
M  V30 599 H 55.6909 6.48661 -0.638899 0
M  V30 600 N 59.124 1.23083 0.984299 0
M  V30 601 C 60.034 1.02515 2.11016 0
M  V30 602 C 61.05 -0.0291702 1.73976 0
M  V30 603 O 62.226 0.165434 2.00719 0
M  V30 604 C 59.291 0.614673 3.41208 0
M  V30 605 C 58.352 1.74359 3.92297 0
M  V30 606 C 57.585 1.35261 5.16275 0
M  V30 607 O 57.808 0.235136 5.69915 0
M  V30 608 O 56.742 2.17227 5.61334 0
M  V30 609 H 60.568 1.96862 2.31255 0
M  V30 610 H 58.153 1.01753 1.09392 0
M  V30 611 H 60.035 0.396518 4.1953 0
M  V30 612 H 58.71 -0.299851 3.22308 0
M  V30 613 H 57.617 2.01635 3.1511 0
M  V30 614 H 58.95 2.63629 4.15645 0
M  V30 615 N 60.6021 -1.18246 1.0419 0
M  V30 616 C 61.5651 -2.20128 0.638452 0
M  V30 617 C 62.5651 -1.57885 -0.304805 0
M  V30 618 O 63.7551 -1.73967 -0.0900369 0
M  V30 619 C 60.8871 -3.4084 -0.0637751 0
M  V30 620 H 62.0801 -2.57336 1.54007 0
M  V30 621 H 59.6331 -1.32152 0.834598 0
M  V30 622 H 60.3681 -3.09166 -0.979136 0
M  V30 623 H 60.1531 -3.8726 0.614198 0
M  V30 624 H 61.6431 -4.16274 -0.332512 0
M  V30 625 N 62.0802 -0.821533 -1.34494 0
M  V30 626 C 63.3262 -0.418729 -1.99043 0
M  V30 627 C 63.6812 1.00672 -1.6396 0
M  V30 628 O 62.9742 1.69132 -0.900271 0
M  V30 629 C 63.1682 -0.556512 -3.53041 0
M  V30 630 C 62.9972 -1.9938 -4.03085 0
M  V30 631 C 61.7672 -2.62539 -4.31742 0
M  V30 632 C 63.9652 -2.96035 -4.20556 0
M  V30 633 N 61.9472 -3.97523 -4.67813 0
M  V30 634 C 63.3182 -4.15924 -4.59791 0
M  V30 635 C 65.3732 -2.9267 -4.02801 0
M  V30 636 C 64.0762 -5.32899 -4.83126 0
M  V30 637 C 66.1022 -4.08861 -4.27302 0
M  V30 638 C 65.4642 -5.275 -4.66822 0
M  V30 639 H 61.5632 -0.201299 -0.755647 0
M  V30 640 H 64.1472 -1.06594 -1.62929 0
M  V30 641 H 62.3182 0.0607924 -3.88352 0
M  V30 642 H 64.0502 -0.126842 -4.04501 0
M  V30 643 H 60.8052 -2.13789 -4.22601 0
M  V30 644 H 61.2292 -4.67061 -4.90085 0
M  V30 645 H 65.8712 -2.02088 -3.71376 0
M  V30 646 H 63.5892 -6.24041 -5.13418 0
M  V30 647 H 67.1752 -4.07654 -4.15101 0
M  V30 648 H 66.0552 -6.15913 -4.85408 0
M  V30 649 N 63.5583 1.46682 -0.576371 0
M  V30 650 C 64.5213 2.28707 0.150239 0
M  V30 651 C 65.5213 1.38035 0.824794 0
M  V30 652 O 66.7113 1.60476 0.677719 0
M  V30 653 C 63.8433 3.18248 1.22192 0
M  V30 654 H 65.0363 2.94423 -0.570521 0
M  V30 655 H 62.5893 1.52688 -0.334078 0
M  V30 656 H 63.3243 2.57265 1.97447 0
M  V30 657 H 63.1093 3.85 0.742812 0
M  V30 658 H 64.5993 3.80001 1.73172 0
M  V30 659 N 65.0364 0.313813 1.54444 0
M  V30 660 C 66.2824 -0.292108 2.00685 0
M  V30 661 C 66.6154 -1.52548 1.20177 0
M  V30 662 O 65.8904 -1.92452 0.281531 0
M  V30 663 C 66.1734 -0.635968 3.5444 0
M  V30 664 C 66.0264 0.607437 4.4568 0
M  V30 665 C 67.3454 -1.45747 4.15266 0
M  V30 666 H 64.4644 -0.104697 0.729526 0
M  V30 667 H 67.1064 0.428457 1.85106 0
M  V30 668 H 65.2564 -1.24986 3.67846 0
M  V30 669 H 66.9284 1.24581 4.44159 0
M  V30 670 H 65.1714 1.23822 4.15753 0
M  V30 671 H 65.8424 0.322515 5.51057 0
M  V30 672 H 68.3184 -0.938645 4.05375 0
M  V30 673 H 67.1944 -1.66683 5.2298 0
M  V30 674 H 67.4554 -2.45063 3.67963 0
M  V30 675 N 66.5145 -1.57545 0.0417849 0
M  V30 676 C 67.4445 -2.14009 -0.933929 0
M  V30 677 C 68.4255 -1.05938 -1.33083 0
M  V30 678 O 69.6105 -1.33833 -1.40721 0
M  V30 679 C 66.7405 -2.67747 -2.21199 0
M  V30 680 C 65.6945 -3.80718 -1.95544 0
M  V30 681 C 65.0205 -4.20935 -3.29724 0
M  V30 682 C 66.3205 -5.06258 -1.28452 0
M  V30 683 H 68.0145 -2.95788 -0.463645 0
M  V30 684 H 65.5605 -1.42285 -0.221573 0
M  V30 685 H 67.5135 -3.05886 -2.89848 0
M  V30 686 H 66.2375 -1.83147 -2.70416 0
M  V30 687 H 64.8965 -3.43037 -1.2931 0
M  V30 688 H 64.5445 -3.33298 -3.76724 0
M  V30 689 H 64.2445 -4.9707 -3.13361 0
M  V30 690 H 65.7685 -4.61666 -3.9962 0
M  V30 691 H 67.1825 -5.41903 -1.8712 0
M  V30 692 H 65.5795 -5.87475 -1.22445 0
M  V30 693 H 66.6495 -4.84207 -0.259219 0
M  V30 694 N 67.9926 0.231505 -1.5589 0
M  V30 695 C 68.9246 1.31006 -1.8807 0
M  V30 696 C 69.9376 1.43539 -0.768145 0
M  V30 697 O 71.1266 1.44614 -1.04638 0
M  V30 698 C 68.2266 2.68688 -2.06543 0
M  V30 699 C 67.3996 2.78228 -3.37502 0
M  V30 700 C 66.4586 3.96857 -3.4553 0
M  V30 701 O 65.4846 3.85662 -4.18633 0
M  V30 702 N 66.6866 5.1072 -2.75944 0
M  V30 703 H 69.4516 1.03731 -2.81176 0
M  V30 704 H 67.0126 0.421573 -1.56315 0
M  V30 705 H 69.0046 3.46412 -2.09239 0
M  V30 706 H 67.5746 2.88605 -1.20109 0
M  V30 707 H 66.7946 1.87059 -3.46991 0
M  V30 708 H 68.0826 2.81564 -4.23791 0
M  V30 709 H 67.4806 5.2271 -2.16311 0
M  V30 710 H 66.0376 5.86523 -2.84314 0
M  V30 711 N 69.4707 1.49531 0.497807 0
M  V30 712 C 70.3807 1.69176 1.62532 0
M  V30 713 C 71.3967 0.5744 1.64246 0
M  V30 714 O 72.5727 0.849497 1.82608 0
M  V30 715 C 69.6377 1.75695 2.98885 0
M  V30 716 C 68.6987 2.9929 3.07773 0
M  V30 717 C 67.9317 3.05488 4.37622 0
M  V30 718 O 68.1547 2.19192 5.26603 0
M  V30 719 O 67.0887 3.9798 4.51548 0
M  V30 720 H 70.9147 2.647 1.48887 0
M  V30 721 H 68.4997 1.3331 0.674441 0
M  V30 722 H 70.3817 1.82317 3.79919 0
M  V30 723 H 69.0567 0.8335 3.12785 0
M  V30 724 H 67.9637 2.98183 2.25915 0
M  V30 725 H 69.2967 3.91125 2.98801 0
M  V30 726 N 70.9488 -0.749086 1.3866 0
M  V30 727 C 72.1738 -1.54344 1.38538 0
M  V30 728 C 72.5988 -1.88088 -0.0216655 0
M  V30 729 O 71.9568 -1.50899 -1.00494 0
M  V30 730 C 72.0048 -2.8164 2.25192 0
M  V30 731 O 71.1088 -3.7698 1.67212 0
M  V30 732 H 70.4498 -0.466654 0.472367 0
M  V30 733 H 72.9798 -0.925355 1.82478 0
M  V30 734 H 72.9898 -3.30519 2.3921 0
M  V30 735 H 71.6648 -2.56411 3.27454 0
M  V30 736 H 70.2418 -3.35699 1.6236 0
M  V30 737 N 72.4269 -1.23603 -0.977757 0
M  V30 738 C 73.3749 -1.01704 -2.09187 0
M  V30 739 C 74.3689 0.0448214 -1.69341 0
M  V30 740 O 75.5749 -0.108902 -1.7967 0
M  V30 741 H 71.9499 -0.311803 -0.684312 0
M  V30 742 H 73.9209 -1.96207 -2.24823 0
M  V30 743 C 72.6699 -0.627746 -3.41986 0
M  V30 744 H 71.9929 -1.43656 -3.73099 0
M  V30 745 H 73.4329 -0.514053 -4.20872 0
M  V30 746 C 71.8919 0.664238 -3.30287 0
M  V30 747 O 72.4219 1.71268 -3.6336 0
M  V30 748 N 70.6279 0.641156 -2.83439 0
M  V30 749 H 70.1749 -0.212376 -2.56723 0
M  V30 750 H 70.1329 1.50583 -2.75993 0
M  V30 751 N 73.905 1.17692 -1.04816 0
M  V30 752 C 75.151 1.88137 -0.75711 0
M  V30 753 C 75.484 1.80604 0.713841 0
M  V30 754 O 74.759 1.21146 1.52164 0
M  V30 755 C 75.042 3.38318 -1.2334 0
M  V30 756 C 74.895 3.54622 -2.76701 0
M  V30 757 C 76.214 4.32214 -0.829415 0
M  V30 758 H 73.333 0.683163 -0.27651 0
M  V30 759 H 75.975 1.38424 -1.30149 0
M  V30 760 H 74.125 3.80787 -0.770286 0
M  V30 761 H 75.797 3.21194 -3.31107 0
M  V30 762 H 74.04 2.97026 -3.16161 0
M  V30 763 H 74.711 4.60028 -3.05088 0
M  V30 764 H 77.187 3.97565 -1.22805 0
M  V30 765 H 76.063 5.35838 -1.19033 0
M  V30 766 H 76.324 4.41294 0.266891 0
M  V30 767 N 75.3831 0.828654 1.34056 0
M  V30 768 C 76.7941 0.477534 1.8049 0
M  V30 769 C 77.1451 -1.00258 1.6865 0
M  V30 770 O 76.2701 -1.78057 1.22982 0
M  V30 771 C 76.8651 0.860018 3.27703 0
M  V30 772 C 75.4241 0.561185 3.72193 0
M  V30 773 C 74.5711 1.07385 2.55663 0
M  V30 774 H 77.5221 1.0183 1.21722 0
M  V30 775 H 77.5431 0.166038 3.80138 0
M  V30 776 H 77.0551 1.93731 3.36288 0
M  V30 777 H 75.1561 -0.506465 3.69142 0
M  V30 778 H 75.2691 1.10926 4.66082 0
M  V30 779 H 73.6331 0.495149 2.49841 0
M  V30 780 H 74.4161 2.15771 2.67016 0
M  V30 781 N 76.8612 -1.46375 0.584142 0
M  V30 782 C 78.1382 -1.956 0.0033388 0
M  V30 783 C 78.5182 -1.52679 -1.45782 0
M  V30 784 O 77.8662 -0.77816 -2.14842 0
M  V30 785 C 78.0762 -3.48551 0.176891 0
M  V30 786 C 79.4242 -4.24576 0.0454609 0
M  V30 787 O 80.4482 -3.56043 0.105801 0
M  V30 788 O 79.3072 -5.46427 -0.0890376 0
M  V30 789 H 76.4012 -0.825547 -0.0490066 0
M  V30 790 H 78.9472 -1.56652 0.65256 0
M  V30 791 H 77.7192 -3.72683 1.1926 0
M  V30 792 H 77.3422 -3.94332 -0.508695 0
M  V30 793 N 78.3393 -0.321999 -1.54275 0
M  V30 794 C 79.2693 0.537411 -2.27231 0
M  V30 795 C 80.2503 1.12064 -1.27968 0
M  V30 796 O 81.4353 1.14606 -1.56777 0
M  V30 797 C 78.5653 1.69919 -3.02894 0
M  V30 798 C 77.5193 1.24534 -4.09482 0
M  V30 799 C 76.8453 2.49394 -4.72977 0
M  V30 800 C 78.1453 0.361335 -5.21049 0
M  V30 801 H 79.8393 -0.0711406 -2.99315 0
M  V30 802 H 77.3853 -0.0356555 -1.43956 0
M  V30 803 H 79.3383 2.30668 -3.52662 0
M  V30 804 H 78.0623 2.33431 -2.28424 0
M  V30 805 H 76.7213 0.660782 -3.60596 0
M  V30 806 H 76.3693 3.11265 -3.95124 0
M  V30 807 H 76.0693 2.19718 -5.44975 0
M  V30 808 H 77.5933 3.10908 -5.25517 0
M  V30 809 H 79.0073 0.875072 -5.66582 0
M  V30 810 H 77.4043 0.157428 -5.99893 0
M  V30 811 H 78.4743 -0.60822 -4.8107 0
M  V30 812 N 79.8174 1.5752 -0.0501392 0
M  V30 813 C 81.0634 1.92936 0.624798 0
M  V30 814 C 81.3964 0.928685 1.70555 0
M  V30 815 O 80.6714 -0.0454779 1.94447 0
M  V30 816 C 80.9544 3.38737 1.22185 0
M  V30 817 C 80.8074 4.49552 0.149218 0
M  V30 818 C 82.1264 3.84913 2.13378 0
M  V30 819 H 79.2454 0.701604 0.225657 0
M  V30 820 H 81.8874 1.89671 -0.111693 0
M  V30 821 H 80.0374 3.4165 1.84953 0
M  V30 822 H 81.7094 4.58768 -0.482648 0
M  V30 823 H 79.9524 4.30638 -0.522841 0
M  V30 824 H 80.6234 5.48653 0.606966 0
M  V30 825 H 83.0994 3.8387 1.60572 0
M  V30 826 H 81.9754 4.87584 2.52097 0
M  V30 827 H 82.2364 3.21611 3.03346 0
M  V30 828 N 81.2955 -0.223234 1.56011 0
M  V30 829 C 82.5415 -0.944891 1.8012 0
M  V30 830 C 82.8965 -1.82039 0.622862 0
M  V30 831 O 82.1895 -1.8773 -0.383143 0
M  V30 832 C 82.3835 -1.81948 3.0762 0
M  V30 833 C 82.2125 -1.03014 4.37742 0
M  V30 834 C 80.9825 -0.72574 5.00061 0
M  V30 835 C 83.1805 -0.396256 5.12771 0
M  V30 836 N 81.1625 0.0851816 6.13841 0
M  V30 837 C 82.5335 0.278137 6.19376 0
M  V30 838 C 84.5885 -0.309117 4.9694 0
M  V30 839 C 83.2915 1.03133 7.11868 0
M  V30 840 C 85.3175 0.430607 5.8983 0
M  V30 841 C 84.6795 1.09355 6.9586 0
M  V30 842 H 80.7785 -0.326081 0.710771 0
M  V30 843 H 83.3625 -0.215914 1.93499 0
M  V30 844 H 81.5335 -2.52029 2.95527 0
M  V30 845 H 83.2655 -2.47848 3.19927 0
M  V30 846 H 80.0205 -1.04335 4.61964 0
M  V30 847 H 80.4445 0.479428 6.753 0
M  V30 848 H 85.0865 -0.807313 4.15021 0
M  V30 849 H 82.8045 1.54105 7.9327 0
M  V30 850 H 86.3905 0.499012 5.79656 0
M  V30 851 H 85.2705 1.65679 7.66499 0
M  V30 852 N 82.7736 -1.49793 -0.48987 0
M  V30 853 C 84.0016 -1.63568 -1.26701 0
M  V30 854 C 84.4166 -0.311465 -1.86213 0
M  V30 855 O 83.7736 0.704416 -1.68357 0
M  V30 856 C 83.8246 -2.71284 -2.38929 0
M  V30 857 O 83.5456 -3.9857 -1.81861 0
M  V30 858 C 85.0466 -2.95864 -3.3012 0
M  V30 859 H 82.2666 -0.550342 -0.383881 0
M  V30 860 H 84.8106 -1.95898 -0.586864 0
M  V30 861 H 82.9656 -2.417 -3.02753 0
M  V30 862 H 83.3796 -4.57993 -2.55622 0
M  V30 863 H 84.8536 -3.74941 -4.05121 0
M  V30 864 H 85.3306 -2.06206 -3.87783 0
M  V30 865 H 85.9366 -3.26907 -2.72051 0
M  V30 866 N 84.2517 0.741722 -1.39055 0
M  V30 867 C 85.6677 1.04638 -1.20512 0
M  V30 868 C 85.8677 2.01405 -0.0620218 0
M  V30 869 O 84.9237 2.45547 0.588457 0
M  V30 870 C 86.2367 1.6151 -2.53643 0
M  V30 871 C 87.7847 1.73623 -2.6043 0
M  V30 872 C 88.2597 2.33906 -3.93767 0
M  V30 873 N 89.7507 2.41323 -3.9537 0
M  V30 874 C 90.4857 2.88888 -4.95309 0
M  V30 875 N 89.9817 3.36401 -6.05645 0
M  V30 876 N 91.7747 2.88037 -4.82692 0
M  V30 877 H 83.9257 0.0998155 -2.12165 0
M  V30 878 H 86.1887 0.106907 -0.941953 0
M  V30 879 H 85.8947 0.978739 -3.37807 0
M  V30 880 H 85.7687 2.60411 -2.72885 0
M  V30 881 H 88.1557 2.36384 -1.76655 0
M  V30 882 H 88.2367 0.733945 -2.45045 0
M  V30 883 H 87.8807 1.71776 -4.7797 0
M  V30 884 H 87.8107 3.34799 -4.06469 0
M  V30 885 H 90.3017 2.07734 -3.15682 0
M  V30 886 H 90.6147 3.71186 -6.77821 0
M  V30 887 H 88.9597 3.34427 -6.09248 0
M  V30 888 H 92.1507 2.50237 -3.95599 0
M  V30 889 H 92.3237 3.24792 -5.60726 0
M  V30 890 N 85.7298 1.2412 0.971189 0
M  V30 891 C 86.9698 1.09066 1.7287 0
M  V30 892 C 87.3338 -0.364794 1.88503 0
M  V30 893 O 88.5348 -0.636748 2.61149 0
M  V30 894 C 86.8058 1.80629 3.08396 0
M  V30 895 S 88.3648 1.81263 3.99611 0
M  V30 896 H 85.1828 0.390145 0.594397 0
M  V30 897 H 87.7848 1.57397 1.15959 0
M  V30 898 H 86.4888 2.85647 2.94676 0
M  V30 899 H 86.0198 1.32617 3.70373 0
M  V30 900 H 88.0348 0.877804 4.88374 0
M  V30 901 N 87.2079 -1.17134 1.05439 0
M  V30 902 C 88.1559 -2.23289 0.651511 0
M  V30 903 C 89.1499 -1.66186 -0.328411 0
M  V30 904 O 90.3559 -1.78949 -0.194206 0
M  V30 905 H 86.7309 -0.726938 0.192523 0
M  V30 906 H 88.7019 -2.54565 1.55689 0
M  V30 907 C 87.4509 -3.47671 0.0448436 0
M  V30 908 H 86.7739 -3.91918 0.78996 0
M  V30 909 H 88.2139 -4.2353 -0.19964 0
M  V30 910 C 86.6729 -3.14453 -1.20918 0
M  V30 911 O 87.2029 -3.29459 -2.29825 0
M  V30 912 N 85.4089 -2.68657 -1.10779 0
M  V30 913 H 84.9559 -2.56646 -0.221526 0
M  V30 914 H 84.9139 -2.46804 -1.9477 0
M  V30 915 N 88.686 -0.835752 -1.33615 0
M  V30 916 C 89.934 -0.429109 -1.97492 0
M  V30 917 C 90.255 1.01433 -1.66543 0
M  V30 918 O 89.525 1.70611 -0.962744 0
M  V30 919 H 88.105 -0.155686 -0.730596 0
M  V30 920 H 90.767 -1.06802 -1.63031 0
M  V30 921 H 89.863 -0.55861 -3.0706 0
M  V30 922 N 90.1641 1.46063 -0.591896 0
M  V30 923 C 91.4121 2.01938 -0.0808391 0
M  V30 924 C 91.7331 1.46475 1.28725 0
M  V30 925 O 91.0031 0.652944 1.84698 0
M  V30 926 H 89.5831 0.746516 -0.0268938 0
M  V30 927 H 92.2451 1.79055 -0.769752 0
M  V30 928 H 91.3411 3.12094 -0.0187578 0
M  V30 929 N 91.6422 0.330177 1.54103 0
M  V30 930 C 92.5922 -0.548456 2.21305 0
M  V30 931 C 93.5762 -1.07651 1.19583 0
M  V30 932 O 94.7682 -1.01243 1.45186 0
M  V30 933 C 91.8972 -1.70559 2.97934 0
M  V30 934 C 90.9832 -1.19212 4.07 0
M  V30 935 N 91.3742 -0.398831 5.04225 0
M  V30 936 C 89.6722 -1.47024 4.2107 0
M  V30 937 C 90.3732 -0.121761 5.81573 0
M  V30 938 N 89.3492 -0.709722 5.38947 0
M  V30 939 H 93.1512 0.0648483 2.93828 0
M  V30 940 H 90.6652 0.136363 1.61826 0
M  V30 941 H 92.6622 -2.34688 3.44568 0
M  V30 942 H 91.3222 -2.32231 2.26934 0
M  V30 943 H 92.3332 -0.0410869 5.17884 0
M  V30 944 H 89.0102 -2.09232 3.61287 0
M  V30 945 H 90.4002 0.517298 6.69906 0
M  V30 946 N 93.1203 -1.57491 0.0584922 0
M  V30 947 C 94.3663 -1.94081 -0.608617 0
M  V30 948 C 94.7213 -0.937438 -1.68017 0
M  V30 949 O 94.0143 0.0423034 -1.91553 0
M  V30 950 C 94.2083 -3.3513 -1.24188 0
M  V30 951 C 94.0373 -4.49095 -0.233187 0
M  V30 952 C 92.8073 -5.04988 0.177439 0
M  V30 953 C 95.0053 -5.1162 0.524306 0
M  V30 954 N 92.9873 -6.02487 1.17823 0
M  V30 955 C 94.3583 -6.04493 1.37796 0
M  V30 956 C 96.4133 -4.94489 0.581822 0
M  V30 957 C 95.1163 -6.82075 2.28399 0
M  V30 958 C 97.1423 -5.72703 1.47531 0
M  V30 959 C 96.5043 -6.65214 2.31667 0
M  V30 960 H 92.6033 -0.75752 -0.194134 0
M  V30 961 H 95.1873 -1.94248 0.132533 0
M  V30 962 H 93.3583 -3.35726 -1.95302 0
M  V30 963 H 95.0903 -3.5899 -1.86838 0
M  V30 964 H 91.8453 -4.73165 -0.203004 0
M  V30 965 H 92.2693 -6.55933 1.67573 0
M  V30 966 H 96.9113 -4.22765 -0.054443 0
M  V30 967 H 94.6293 -7.53085 2.93067 0
M  V30 968 H 98.2153 -5.61472 1.52448 0
M  V30 969 H 97.0953 -7.24679 2.99683 0
M  V30 970 N 94.5984 0.214957 -1.56127 0
M  V30 971 C 95.8474 0.936451 -1.78643 0
M  V30 972 C 96.1604 1.85237 -0.628229 0
M  V30 973 O 97.3664 2.613 -0.737186 0
M  V30 974 C 95.8224 1.7154 -3.16389 0
M  V30 975 C 95.4304 0.845299 -4.39953 0
M  V30 976 C 97.1744 2.42772 -3.48227 0
M  V30 977 C 95.0814 1.62198 -5.68723 0
M  V30 978 H 94.0114 0.353401 -0.666051 0
M  V30 979 H 96.6624 0.190169 -1.82512 0
M  V30 980 H 95.0444 2.50484 -3.06715 0
M  V30 981 H 96.2184 0.0959353 -4.607 0
M  V30 982 H 94.5334 0.244789 -4.1568 0
M  V30 983 H 97.1304 3.01394 -4.41663 0
M  V30 984 H 97.4734 3.15984 -2.71035 0
M  V30 985 H 98.0064 1.70813 -3.5926 0
M  V30 986 H 94.7454 0.933011 -6.48826 0
M  V30 987 H 94.2654 2.34579 -5.52026 0
M  V30 988 H 95.9444 2.18095 -6.09133 0
M  V30 989 N 96.0765 1.50051 0.48192 0
M  V30 990 C 97.0395 1.67584 1.5636 0
M  V30 991 C 98.0395 0.546894 1.51214 0
M  V30 992 O 99.2295 0.813725 1.54026 0
M  V30 993 C 96.3615 1.691 2.96003 0
M  V30 994 H 97.5545 2.64078 1.42136 0
M  V30 995 H 95.1075 1.39369 0.707533 0
M  V30 996 H 95.8425 0.742589 3.15684 0
M  V30 997 H 95.6275 2.51105 3.01146 0
M  V30 998 H 97.1175 1.84656 3.74556 0
M  V30 999 N 97.5546 -0.734337 1.39446 0
M  V30 1000 C 98.7826 -1.52358 1.39981 0
M  V30 1001 C 99.1976 -1.88799 -0.0054975 0
M  V30 1002 O 98.5546 -1.54146 -0.976998 0
M  V30 1003 C 98.6056 -2.81072 2.27333 0
M  V30 1004 O 98.3266 -2.46178 3.62392 0
M  V30 1005 C 99.8276 -3.75096 2.36259 0
M  V30 1006 H 97.0476 -0.470806 0.478103 0
M  V30 1007 H 99.5916 -0.907339 1.83269 0
M  V30 1008 H 97.7466 -3.39026 1.87457 0
M  V30 1009 H 98.1606 -3.28866 4.08592 0
M  V30 1010 H 99.6346 -4.62305 3.01626 0
M  V30 1011 H 100.112 -4.16892 1.38194 0
M  V30 1012 H 100.718 -3.23061 2.76608 0
M  V30 1013 N 99.0327 -1.24633 -0.964593 0
M  V30 1014 C 100.449 -1.01239 -1.2338 0
M  V30 1015 C 100.649 0.2769 -1.99588 0
M  V30 1016 O 99.7047 0.992241 -2.32187 0
M  V30 1017 C 101.018 -2.22937 -2.01791 0
M  V30 1018 C 102.566 -2.27594 -2.14872 0
M  V30 1019 C 103.041 -3.48921 -2.96678 0
M  V30 1020 N 104.532 -3.49257 -3.04259 0
M  V30 1021 C 105.267 -4.39795 -3.67924 0
M  V30 1022 N 104.763 -5.40591 -4.33281 0
M  V30 1023 N 106.556 -4.275 -3.64966 0
M  V30 1024 H 98.7067 -2.0748 -0.454502 0
M  V30 1025 H 100.97 -0.910647 -0.26349 0
M  V30 1026 H 100.676 -3.16587 -1.53184 0
M  V30 1027 H 100.55 -2.25306 -3.02518 0
M  V30 1028 H 102.937 -1.34473 -2.6268 0
M  V30 1029 H 103.018 -2.2925 -1.13482 0
M  V30 1030 H 102.662 -4.42359 -2.49562 0
M  V30 1031 H 102.592 -3.4451 -3.98272 0
M  V30 1032 H 105.083 -2.76337 -2.57771 0
M  V30 1033 H 105.396 -6.05904 -4.79687 0
M  V30 1034 H 103.741 -5.44475 -4.3194 0
M  V30 1035 H 106.932 -3.47987 -3.13086 0
M  V30 1036 H 107.105 -4.98258 -4.14298 0
M  V30 1037 N 100.511 1.16574 -1.06058 0
M  V30 1038 C 101.759 1.86677 -0.77434 0
M  V30 1039 C 102.08 1.81959 0.701147 0
M  V30 1040 O 101.35 1.2515 1.50713 0
M  V30 1041 H 99.9298 0.691134 -0.283449 0
M  V30 1042 H 102.592 1.41378 -1.34158 0
M  V30 1043 H 101.688 2.92181 -1.09711 0
M  V30 1044 N 101.989 0.842826 1.3317 0
M  V30 1045 C 102.921 0.236245 2.27979 0
M  V30 1046 C 103.934 -0.585282 1.51915 0
M  V30 1047 O 105.123 -0.411705 1.73687 0
M  V30 1048 C 102.223 -0.685717 3.3189 0
M  V30 1049 C 101.396 0.0973448 4.37292 0
M  V30 1050 C 100.455 -0.748565 5.20848 0
M  V30 1051 O 99.4809 -0.186339 5.68895 0
M  V30 1052 N 100.683 -2.06527 5.42519 0
M  V30 1053 H 103.448 1.05088 2.80672 0
M  V30 1054 H 101.009 0.701667 1.45905 0
M  V30 1055 H 103.001 -1.25669 3.84694 0
M  V30 1056 H 101.571 -1.40105 2.79445 0
M  V30 1057 H 100.791 0.849706 3.84933 0
M  V30 1058 H 102.079 0.635643 5.04814 0
M  V30 1059 H 101.477 -2.54554 5.05192 0
M  V30 1060 H 100.034 -2.58464 5.98364 0
M  V30 1061 N 103.467 -1.45747 0.599634 0
M  V30 1062 C 104.397 -2.33235 -0.111306 0
M  V30 1063 C 105.378 -1.46359 -0.866781 0
M  V30 1064 O 106.563 -1.75146 -0.838904 0
M  V30 1065 C 103.693 -3.28932 -1.11451 0
M  V30 1066 C 102.647 -4.25381 -0.472772 0
M  V30 1067 C 101.973 -5.1071 -1.58365 0
M  V30 1068 C 103.273 -5.18831 0.600948 0
M  V30 1069 H 104.967 -2.92927 0.61919 0
M  V30 1070 H 102.513 -1.40857 0.299215 0
M  V30 1071 H 104.466 -3.89002 -1.62036 0
M  V30 1072 H 103.19 -2.67381 -1.8755 0
M  V30 1073 H 101.849 -3.66598 0.0121472 0
M  V30 1074 H 101.497 -4.45533 -2.33473 0
M  V30 1075 H 101.197 -5.7604 -1.15982 0
M  V30 1076 H 102.721 -5.73647 -2.09194 0
M  V30 1077 H 104.135 -5.73019 0.179491 0
M  V30 1078 H 102.532 -5.92595 0.946076 0
M  V30 1079 H 103.602 -4.6174 1.48068 0
M  V30 1080 N 104.945 -0.338344 -1.53925 0
M  V30 1081 C 106.194 0.260732 -2.00008 0
M  V30 1082 C 106.507 1.52073 -1.23017 0
M  V30 1083 O 107.713 2.19672 -1.5955 0
M  V30 1084 C 106.169 0.51515 -3.56194 0
M  V30 1085 C 105.777 -0.728645 -4.42035 0
M  V30 1086 C 107.521 1.07337 -4.10706 0
M  V30 1087 C 105.428 -0.445315 -5.89721 0
M  V30 1088 H 104.358 0.101205 -0.747177 0
M  V30 1089 H 107.009 -0.452866 -1.77824 0
M  V30 1090 H 105.391 1.28932 -3.74423 0
M  V30 1091 H 106.565 -1.50352 -4.35581 0
M  V30 1092 H 104.88 -1.20813 -3.98489 0
M  V30 1093 H 107.477 1.30022 -5.18651 0
M  V30 1094 H 107.82 2.0273 -3.63602 0
M  V30 1095 H 108.353 0.360034 -3.96167 0
M  V30 1096 H 105.092 -1.36883 -6.41049 0
M  V30 1097 H 104.612 0.291569 -5.99091 0
M  V30 1098 H 106.291 -0.0606218 -6.46972 0
M  V30 1099 N 106.423 1.57458 -0.0668435 0
M  V30 1100 C 107.839 1.56947 0.289772 0
M  V30 1101 C 108.039 1.07584 1.70376 0
M  V30 1102 O 107.095 0.739486 2.41429 0
M  V30 1103 C 108.408 3.0052 0.103943 0
M  V30 1104 C 109.956 3.12517 0.173857 0
M  V30 1105 C 110.431 4.57997 0.0163682 0
M  V30 1106 N 111.922 4.63144 0.0721352 0
M  V30 1107 C 112.657 5.73394 -0.0253794 0
M  V30 1108 N 112.153 6.92576 -0.176133 0
M  V30 1109 N 113.946 5.62091 0.0313305 0
M  V30 1110 H 106.097 1.87863 -0.991027 0
M  V30 1111 H 108.36 0.86583 -0.38606 0
M  V30 1112 H 108.066 3.40729 -0.871572 0
M  V30 1113 H 107.94 3.67304 0.858366 0
M  V30 1114 H 110.327 2.72197 1.13985 0
M  V30 1115 H 110.408 2.48381 -0.611586 0
M  V30 1116 H 110.052 4.99005 -0.946374 0
M  V30 1117 H 109.982 5.20158 0.821153 0
M  V30 1118 H 112.473 3.77436 0.187263 0
M  V30 1119 H 112.786 7.72418 -0.242821 0
M  V30 1120 H 111.131 6.94678 -0.211429 0
M  V30 1121 H 114.322 4.67867 0.147773 0
M  V30 1122 H 114.495 6.47982 -0.048121 0
M  V30 1123 N 107.901 -0.206675 1.56239 0
M  V30 1124 C 108.811 -1.27686 1.96808 0
M  V30 1125 C 109.827 -1.50455 0.874035 0
M  V30 1126 O 111.003 -1.63295 1.17884 0
M  V30 1127 C 108.068 -2.60358 2.28942 0
M  V30 1128 C 107.129 -2.45762 3.51994 0
M  V30 1129 C 106.362 -3.72108 3.82585 0
M  V30 1130 O 106.585 -4.75776 3.14631 0
M  V30 1131 O 105.519 -3.6833 4.76043 0
M  V30 1132 H 109.345 -0.962593 2.88041 0
M  V30 1133 H 106.93 -0.410746 1.43643 0
M  V30 1134 H 108.812 -3.38687 2.50737 0
M  V30 1135 H 107.487 -2.91435 1.4088 0
M  V30 1136 H 106.394 -1.65584 3.35459 0
M  V30 1137 H 107.727 -2.19621 4.40486 0
M  V30 1138 N 109.379 -1.50304 -0.473955 0
M  V30 1139 C 110.342 -1.6841 -1.55469 0
M  V30 1140 C 111.342 -0.554905 -1.50922 0
M  V30 1141 O 112.532 -0.821882 -1.53593 0
M  V30 1142 C 109.664 -1.70667 -2.95102 0
M  V30 1143 H 110.857 -2.64828 -1.40733 0
M  V30 1144 H 108.41 -1.39742 -0.700132 0
M  V30 1145 H 109.145 -0.75932 -3.15285 0
M  V30 1146 H 108.93 -2.52698 -2.9981 0
M  V30 1147 H 110.42 -1.8664 -3.73571 0
M  V30 1148 N 110.857 0.726932 -1.39834 0
M  V30 1149 C 112.087 1.51393 -1.40583 0
M  V30 1150 C 112.495 1.892 -0.000740625 0
M  V30 1151 O 111.838 1.55189 0.982951 0
M  V30 1152 C 111.9 2.82588 -2.22226 0
M  V30 1153 C 111.564 2.67169 -3.70769 0
M  V30 1154 C 112.561 2.3518 -4.63666 0
M  V30 1155 C 110.246 2.83788 -4.14451 0
M  V30 1156 C 112.24 2.20002 -5.98229 0
M  V30 1157 C 109.927 2.68229 -5.49087 0
M  V30 1158 C 110.925 2.36382 -6.4079 0
M  V30 1159 O 110.613 2.2093 -7.72946 0
M  V30 1160 H 110.345 0.474168 -0.48181 0
M  V30 1161 H 112.899 0.905247 -1.84376 0
M  V30 1162 H 111.129 3.45746 -1.73195 0
M  V30 1163 H 112.818 3.44247 -2.15055 0
M  V30 1164 H 113.584 2.21984 -4.31217 0
M  V30 1165 H 109.463 3.07566 -3.43401 0
M  V30 1166 H 113.007 1.95067 -6.69772 0
M  V30 1167 H 108.904 2.81006 -5.81125 0
M  V30 1168 H 109.672 2.35937 -7.83757 0
M  V30 1169 N 112.336 1.25143 0.95797 0
M  V30 1170 C 113.246 1.06968 2.08794 0
M  V30 1171 C 114.262 0.00773911 1.73998 0
M  V30 1172 O 115.438 0.207972 2.00323 0
M  V30 1173 C 112.503 0.68691 3.39827 0
M  V30 1174 C 111.564 1.82641 3.88511 0
M  V30 1175 C 110.797 1.46181 5.1329 0
M  V30 1176 O 111.02 0.355971 5.69288 0
M  V30 1177 O 109.954 2.29085 5.566 0
M  V30 1178 H 113.78 2.01723 2.27027 0
M  V30 1179 H 111.365 1.04051 1.07209 0
M  V30 1180 H 113.247 0.485417 4.18595 0
M  V30 1181 H 111.922 -0.231417 3.22872 0
M  V30 1182 H 110.829 2.08274 3.10762 0
M  V30 1183 H 112.162 2.72386 4.09959 0
M  V30 1184 N 113.814 -1.1601 1.06675 0
M  V30 1185 C 115.091 -1.82679 0.699114 0
M  V30 1186 C 115.471 -1.94559 -0.819137 0
M  V30 1187 O 114.819 -1.49169 -1.73092 0
M  V30 1188 C 115.029 -3.19445 1.40555 0
M  V30 1189 C 116.377 -3.95171 1.55323 0
M  V30 1190 O 117.401 -3.28976 1.36577 0
M  V30 1191 O 116.26 -5.13833 1.86112 0
M  V30 1192 H 113.354 -0.788954 0.247951 0
M  V30 1193 H 115.9 -1.23179 1.16726 0
M  V30 1194 H 114.672 -3.05856 2.44065 0
M  V30 1195 H 114.295 -3.86625 0.927733 0
M  V30 1196 N 115.292 -0.849877 -1.32721 0
M  V30 1197 C 116.522 -0.46408 -2.0132 0
M  V30 1198 C 116.93 0.94246 -1.64056 0
M  V30 1199 O 116.273 1.6257 -0.855379 0
M  V30 1200 C 116.335 -0.517887 -3.5575 0
M  V30 1201 C 115.999 -1.88248 -4.16427 0
M  V30 1202 C 116.996 -2.84726 -4.35002 0
M  V30 1203 C 114.681 -2.17832 -4.52609 0
M  V30 1204 C 116.675 -4.08945 -4.8892 0
M  V30 1205 C 114.362 -3.42304 -5.06232 0
M  V30 1206 C 115.36 -4.37677 -5.24335 0
M  V30 1207 O 115.048 -5.59946 -5.76815 0
M  V30 1208 H 114.78 -0.181327 -0.651227 0
M  V30 1209 H 117.334 -1.14713 -1.70382 0
M  V30 1210 H 115.564 0.221997 -3.86062 0
M  V30 1211 H 117.253 -0.148366 -4.05629 0
M  V30 1212 H 118.019 -2.63174 -4.07388 0
M  V30 1213 H 113.898 -1.44385 -4.37806 0
M  V30 1214 H 117.442 -4.83396 -5.02966 0
M  V30 1215 H 113.339 -3.63709 -5.33278 0
M  V30 1216 H 114.107 -5.61838 -5.95214 0
M  V30 1217 N 116.77 1.45427 -0.607355 0
M  V30 1218 C 118.186 1.57283 -0.270985 0
M  V30 1219 C 118.386 1.59875 1.22647 0
M  V30 1220 O 117.442 1.52893 2.00948 0
M  V30 1221 C 118.755 2.85566 -0.941952 0
M  V30 1222 C 120.303 2.9924 -0.917849 0
M  V30 1223 C 120.778 4.30293 -1.56882 0
M  V30 1224 N 122.269 4.37051 -1.5343 0
M  V30 1225 C 123.004 5.37123 -2.00715 0
M  V30 1226 N 122.5 6.43734 -2.56084 0
M  V30 1227 N 124.293 5.28479 -1.91484 0
M  V30 1228 H 116.444 1.41988 -1.57966 0
M  V30 1229 H 118.707 0.67885 -0.661715 0
M  V30 1230 H 118.413 2.8955 -1.99633 0
M  V30 1231 H 118.287 3.74322 -0.465096 0
M  V30 1232 H 120.674 2.94822 0.127984 0
M  V30 1233 H 120.755 2.11895 -1.43297 0
M  V30 1234 H 120.399 4.35469 -2.61398 0
M  V30 1235 H 120.329 5.16454 -1.02873 0
M  V30 1236 H 122.82 3.60615 -1.12982 0
M  V30 1237 H 123.133 7.16341 -2.89958 0
M  V30 1238 H 121.478 6.44485 -2.60122 0
M  V30 1239 H 124.669 4.44098 -1.47967 0
M  V30 1240 H 124.842 6.0632 -2.28648 0
M  V30 1241 N 118.248 0.346503 1.53744 0
M  V30 1242 C 119.198 -0.524953 2.21874 0
M  V30 1243 C 120.182 -1.06376 1.20718 0
M  V30 1244 O 121.374 -0.996972 1.46251 0
M  V30 1245 C 118.503 -1.6739 2.99726 0
M  V30 1246 C 117.589 -1.14888 4.08242 0
M  V30 1247 N 117.98 -0.345329 5.0462 0
M  V30 1248 C 116.278 -1.4255 4.22606 0
M  V30 1249 C 116.979 -0.0600706 5.81669 0
M  V30 1250 N 115.955 -0.65252 5.39669 0
M  V30 1251 H 119.757 0.0960091 2.93743 0
M  V30 1252 H 117.271 0.15352 1.61673 0
M  V30 1253 H 119.268 -2.3102 3.47038 0
M  V30 1254 H 117.928 -2.29811 2.29384 0
M  V30 1255 H 118.939 0.0138439 5.17898 0
M  V30 1256 H 115.616 -2.05389 3.63486 0
M  V30 1257 H 117.006 0.588321 6.69319 0
M  V30 1258 N 119.726 -1.57421 0.075193 0
M  V30 1259 C 120.973 -1.93618 -0.593146 0
M  V30 1260 C 121.301 -0.955484 -1.69413 0
M  V30 1261 O 120.556 0.0283251 -1.9568 0
M  V30 1262 C 120.855 -3.36428 -1.20626 0
M  V30 1263 C 120.521 -4.50307 -0.231078 0
M  V30 1264 C 119.183 -4.81186 0.0371936 0
M  V30 1265 C 121.535 -5.19374 0.435888 0
M  V30 1266 C 118.863 -5.78466 0.979461 0
M  V30 1267 C 121.215 -6.17665 1.3665 0
M  V30 1268 C 119.879 -6.46958 1.6432 0
M  V30 1269 H 119.149 -0.708499 -0.217047 0
M  V30 1270 H 121.796 -1.90937 0.146793 0
M  V30 1271 H 120.101 -3.35592 -2.02201 0
M  V30 1272 H 121.798 -3.61727 -1.73073 0
M  V30 1273 H 118.388 -4.26227 -0.450357 0
M  V30 1274 H 122.572 -4.95711 0.241748 0
M  V30 1275 H 117.828 -5.99487 1.20106 0
M  V30 1276 H 122.002 -6.70284 1.88924 0
M  V30 1277 H 119.629 -7.2215 2.37494 0
M  V30 1278 N 121.204 0.198386 -1.56346 0
M  V30 1279 C 122.429 0.939682 -1.84891 0
M  V30 1280 C 122.854 1.76202 -0.658369 0
M  V30 1281 O 122.212 1.76993 0.392851 0
M  V30 1282 C 122.26 1.81428 -3.11635 0
M  V30 1283 O 121.364 2.91265 -2.91956 0
M  V30 1284 H 120.705 0.264807 -0.608912 0
M  V30 1285 H 123.235 0.204695 -2.03573 0
M  V30 1286 H 123.245 2.21958 -3.42343 0
M  V30 1287 H 121.92 1.21004 -3.97908 0
M  V30 1288 H 120.497 2.54514 -2.72538 0
M  V30 1289 N 122.682 1.50554 0.465978 0
M  V30 1290 C 123.907 1.65838 1.24549 0
M  V30 1291 C 124.332 0.343486 1.84937 0
M  V30 1292 O 123.69 -0.69324 1.67523 0
M  V30 1293 C 123.738 2.75533 2.32624 0
M  V30 1294 O 122.842 2.37142 3.37398 0
M  V30 1295 H 122.183 0.553893 0.366194 0
M  V30 1296 H 124.713 1.96959 0.553927 0
M  V30 1297 H 124.723 2.98763 2.77857 0
M  V30 1298 H 123.398 3.70962 1.88043 0
M  V30 1299 H 121.975 2.24377 2.97841 0
M  V30 1300 N 124.16 -0.719506 1.40217 0
M  V30 1301 C 125.07 -1.86378 1.42479 0
M  V30 1302 C 126.086 -1.71073 0.317834 0
M  V30 1303 O 127.262 -1.93406 0.561794 0
M  V30 1304 C 124.327 -3.22136 1.28178 0
M  V30 1305 C 123.388 -3.49723 2.48982 0
M  V30 1306 C 122.621 -4.79004 2.35353 0
M  V30 1307 O 122.844 -5.53821 1.36524 0
M  V30 1308 O 121.778 -5.06839 3.2465 0
M  V30 1309 H 125.604 -1.87425 2.38968 0
M  V30 1310 H 123.189 -0.869405 1.21498 0
M  V30 1311 H 125.071 -4.03234 1.22395 0
M  V30 1312 H 123.746 -3.21825 0.347934 0
M  V30 1313 H 122.653 -2.6865 2.60342 0
M  V30 1314 H 123.986 -3.54828 3.41113 0
M  V30 1315 N 125.638 -1.25649 -0.95132 0
M  V30 1316 C 126.878 -1.11802 -1.71113 0
M  V30 1317 C 127.242 0.334758 -1.89059 0
M  V30 1318 O 128.443 0.595121 -2.62129 0
M  V30 1319 C 126.714 -1.85512 -3.05483 0
M  V30 1320 S 128.273 -1.87597 -3.96677 0
M  V30 1321 H 125.091 -0.399552 -0.588115 0
M  V30 1322 H 127.693 -1.59222 -1.1344 0
M  V30 1323 H 126.397 -2.90299 -2.90094 0
M  V30 1324 H 125.928 -1.38493 -3.68216 0
M  V30 1325 H 127.943 -0.955389 -4.86916 0
M  V30 1326 N 127.117 1.15442 -1.07289 0
M  V30 1327 C 128.528 1.67803 -0.818475 0
M  V30 1328 C 128.879 1.8489 0.656507 0
M  V30 1329 O 128.004 1.55176 1.50829 0
M  V30 1330 C 128.599 3.04805 -1.47917 0
M  V30 1331 C 127.158 3.54245 -1.27229 0
M  V30 1332 C 126.305 2.29986 -1.54925 0
M  V30 1333 H 129.256 0.996646 -1.23502 0
M  V30 1334 H 129.277 3.69702 -0.90005 0
M  V30 1335 H 128.789 2.92336 -2.55267 0
M  V30 1336 H 126.89 3.71956 -0.21899 0
M  V30 1337 H 127.003 4.35723 -1.99203 0
M  V30 1338 H 125.367 2.35496 -0.970242 0
M  V30 1339 H 126.15 2.20105 -2.63455 0
M  V30 1340 N 128.595 0.856903 1.32268 0
M  V30 1341 C 129.842 0.461386 1.97174 0
M  V30 1342 C 130.17 -0.983491 1.67803 0
M  V30 1343 O 129.425 -1.70541 0.959903 0
M  V30 1344 C 129.724 0.649919 3.51441 0
M  V30 1345 C 129.39 2.0656 4.00804 0
M  V30 1346 C 128.052 2.45279 4.13995 0
M  V30 1347 C 130.404 2.98947 4.26943 0
M  V30 1348 C 127.732 3.75653 4.50668 0
M  V30 1349 C 130.084 4.28822 4.65075 0
M  V30 1350 C 128.748 4.67472 4.76472 0
M  V30 1351 H 128.018 0.168833 0.72151 0
M  V30 1352 H 130.665 1.08739 1.57633 0
M  V30 1353 H 128.97 -0.0593018 3.91755 0
M  V30 1354 H 130.667 0.32391 3.9969 0
M  V30 1355 H 127.257 1.75495 3.91024 0
M  V30 1356 H 131.441 2.70265 4.16258 0
M  V30 1357 H 126.697 4.05379 4.57688 0
M  V30 1358 H 130.871 5.0047 4.84255 0
M  V30 1359 H 128.498 5.68539 5.04646 0
M  V30 1360 N 130.073 -1.45103 0.615059 0
M  V30 1361 C 131.322 -2.01396 0.110718 0
M  V30 1362 C 131.635 -1.48834 -1.26916 0
M  V30 1363 O 132.841 -1.97152 -1.86664 0
M  V30 1364 C 131.297 -3.59599 0.14723 0
M  V30 1365 C 130.905 -4.21158 1.52743 0
M  V30 1366 C 132.649 -4.23428 -0.30148 0
M  V30 1367 C 130.556 -5.71535 1.51992 0
M  V30 1368 H 129.486 -0.753061 0.0376241 0
M  V30 1369 H 132.137 -1.66494 0.77149 0
M  V30 1370 H 130.519 -3.91724 -0.580339 0
M  V30 1371 H 131.693 -4.00594 2.2773 0
M  V30 1372 H 130.008 -3.69552 1.91886 0
M  V30 1373 H 132.605 -5.33703 -0.326392 0
M  V30 1374 H 132.948 -3.94629 -1.32565 0
M  V30 1375 H 133.481 -3.96047 0.373065 0
M  V30 1376 H 130.22 -6.05044 2.52193 0
M  V30 1377 H 129.74 -5.94268 0.81274 0
M  V30 1378 H 131.419 -6.34873 1.24681 0
M  V30 1379 N 131.551 -0.354651 -1.53558 0
M  V30 1380 C 132.962 0.126902 -1.86268 0
M  V30 1381 C 133.313 1.49075 -1.27558 0
M  V30 1382 O 132.438 2.08105 -0.5934 0
M  V30 1383 C 133.033 0.237046 -3.3797 0
M  V30 1384 C 131.592 0.662842 -3.70518 0
M  V30 1385 C 130.739 -0.196652 -2.76602 0
M  V30 1386 H 133.69 -0.573849 -1.47962 0
M  V30 1387 H 133.711 1.06259 -3.65362 0
M  V30 1388 H 133.223 -0.755725 -3.80671 0
M  V30 1389 H 131.324 1.66424 -3.33367 0
M  V30 1390 H 131.437 0.445034 -4.77029 0
M  V30 1391 H 129.801 0.332763 -2.52517 0
M  V30 1392 H 130.584 -1.18676 -3.22135 0
M  V30 1393 N 133.029 1.57378 -0.0835403 0
M  V30 1394 C 134.445 1.57246 0.273109 0
M  V30 1395 C 134.645 1.09385 1.69225 0
M  V30 1396 O 133.701 0.765051 2.40631 0
M  V30 1397 C 135.014 3.00614 0.0720628 0
M  V30 1398 C 136.562 3.12684 0.1407 0
M  V30 1399 C 137.037 4.57989 -0.0322094 0
M  V30 1400 N 138.528 4.63194 0.0230085 0
M  V30 1401 C 139.263 5.73335 -0.0861941 0
M  V30 1402 N 138.759 6.9235 -0.24958 0
M  V30 1403 N 140.552 5.62093 -0.0282886 0
M  V30 1404 H 132.703 1.86801 -1.0109 0
M  V30 1405 H 134.966 0.861687 -0.395222 0
M  V30 1406 H 134.672 3.39786 -0.907662 0
M  V30 1407 H 134.546 3.68193 0.81936 0
M  V30 1408 H 136.933 2.73391 1.11092 0
M  V30 1409 H 137.014 2.47719 -0.637896 0
M  V30 1410 H 136.658 4.97973 -0.999247 0
M  V30 1411 H 136.588 5.21 0.765937 0
M  V30 1412 H 139.079 3.77613 0.14722 0
M  V30 1413 H 139.392 7.72117 -0.324733 0
M  V30 1414 H 137.737 6.94415 -0.285097 0
M  V30 1415 H 140.928 4.67997 0.0981408 0
M  V30 1416 H 141.101 6.47895 -0.116845 0
M  V30 1417 N 134.507 -0.190092 1.56449 0
M  V30 1418 C 135.417 -1.25591 1.98152 0
M  V30 1419 C 136.433 -1.49519 0.889944 0
M  V30 1420 O 137.609 -1.62036 1.19609 0
M  V30 1421 C 134.674 -2.57916 2.3169 0
M  V30 1422 C 133.735 -2.42015 3.5458 0
M  V30 1423 C 132.968 -3.6803 3.8651 0
M  V30 1424 O 133.191 -4.72413 3.1966 0
M  V30 1425 O 132.125 -3.6326 4.79923 0
M  V30 1426 H 135.951 -0.931988 2.89046 0
M  V30 1427 H 133.536 -0.395488 1.4407 0
M  V30 1428 H 135.418 -3.36008 2.54316 0
M  V30 1429 H 134.093 -2.89925 1.43963 0
M  V30 1430 H 133 -1.62017 3.37196 0
M  V30 1431 H 134.333 -2.14937 4.4279 0
M  V30 1432 N 135.985 -1.50799 -0.457987 0
M  V30 1433 C 136.948 -1.7005 -1.53674 0
M  V30 1434 C 137.948 -0.570881 -1.50325 0
M  V30 1435 O 139.138 -0.838126 -1.52712 0
M  V30 1436 C 136.27 -1.73788 -2.93276 0
M  V30 1437 H 137.463 -2.66306 -1.37917 0
M  V30 1438 H 135.016 -1.40477 -0.685271 0
M  V30 1439 H 135.751 -0.792717 -3.14462 0
M  V30 1440 H 135.536 -2.55864 -2.97113 0
M  V30 1441 H 137.026 -1.90591 -3.71571 0
M  V30 1442 N 137.463 0.71206 -1.40597 0
M  V30 1443 C 138.711 1.46907 -1.38791 0
M  V30 1444 C 139.032 1.94998 0.00780391 0
M  V30 1445 O 138.302 1.70587 0.963174 0
M  V30 1446 H 136.882 0.545043 -0.51082 0
M  V30 1447 H 139.544 0.843882 -1.75683 0
M  V30 1448 H 138.64 2.34021 -2.06496 0
M  V30 1449 N 138.941 1.26152 0.944643 0
M  V30 1450 C 139.851 1.09176 2.07648 0
M  V30 1451 C 140.867 0.0261935 1.7398 0
M  V30 1452 O 142.043 0.229208 2.00091 0
M  V30 1453 C 139.108 0.722915 3.39079 0
M  V30 1454 C 138.169 1.86752 3.86552 0
M  V30 1455 C 137.402 1.51617 5.11711 0
M  V30 1456 O 137.625 0.416331 5.68879 0
M  V30 1457 O 136.559 2.34975 5.54139 0
M  V30 1458 H 140.385 2.0412 2.24875 0
M  V30 1459 H 137.97 1.05182 1.061 0
M  V30 1460 H 139.852 0.529787 4.18056 0
M  V30 1461 H 138.527 -0.197159 3.23099 0
M  V30 1462 H 137.434 2.11558 3.08535 0
M  V30 1463 H 138.767 2.76719 4.07047 0
M  V30 1464 N 140.419 -1.14872 1.07899 0
M  V30 1465 C 141.382 -2.17986 0.708161 0
M  V30 1466 C 142.382 -1.58775 -0.25442 0
M  V30 1467 O 143.572 -1.74166 -0.034645 0
M  V30 1468 C 140.704 -3.40871 0.0446929 0
M  V30 1469 H 141.897 -2.52306 1.62116 0
M  V30 1470 H 139.45 -1.2943 0.876218 0
M  V30 1471 H 140.185 -3.12124 -0.880281 0
M  V30 1472 H 139.97 -3.8511 0.737091 0
M  V30 1473 H 141.46 -4.17121 -0.19991 0
M  V30 1474 N 141.898 -0.863906 -1.31812 0
M  V30 1475 C 143.128 -0.485406 -2.00817 0
M  V30 1476 C 143.536 0.925007 -1.65046 0
M  V30 1477 O 142.879 1.61653 -0.872574 0
M  V30 1478 C 142.941 -0.555589 -3.55181 0
M  V30 1479 C 142.605 -1.92654 -4.14407 0
M  V30 1480 C 143.602 -2.89324 -4.31958 0
M  V30 1481 C 141.287 -2.2262 -4.50273 0
M  V30 1482 C 143.281 -4.14108 -4.84555 0
M  V30 1483 C 140.968 -3.47654 -5.02573 0
M  V30 1484 C 141.966 -4.43214 -5.19664 0
M  V30 1485 O 141.654 -5.66033 -5.70843 0
M  V30 1486 H 141.386 -0.188224 -0.649267 0
M  V30 1487 H 143.94 -1.16514 -1.69156 0
M  V30 1488 H 142.17 0.181037 -3.86276 0
M  V30 1489 H 143.859 -0.19138 -4.05449 0
M  V30 1490 H 144.625 -2.6748 -4.04573 0
M  V30 1491 H 140.504 -1.4902 -4.3625 0
M  V30 1492 H 144.048 -4.88703 -4.9781 0
M  V30 1493 H 139.945 -3.69345 -5.29391 0
M  V30 1494 H 140.713 -5.6812 -5.89222 0
M  V30 1495 N 143.376 1.44774 -0.622745 0
M  V30 1496 C 144.653 1.95522 -0.0551974 0
M  V30 1497 C 145.033 1.5649 1.41683 0
M  V30 1498 O 144.381 0.834848 2.12703 0
M  V30 1499 C 144.591 3.4796 -0.269242 0
M  V30 1500 C 145.939 4.24306 -0.158014 0
M  V30 1501 O 146.963 3.55637 -0.200162 0
M  V30 1502 O 145.822 5.46471 -0.0558693 0
M  V30 1503 H 142.916 0.826556 0.0271015 0
M  V30 1504 H 145.462 1.54866 -0.693864 0
M  V30 1505 H 144.234 3.6939 -1.29099 0
M  V30 1506 H 143.857 3.95543 0.403966 0
M  V30 1507 N 144.854 0.36279 1.53368 0
M  V30 1508 C 146.101 -0.227776 2.01215 0
M  V30 1509 C 146.429 -1.49003 1.25014 0
M  V30 1510 O 145.684 -1.92876 0.331236 0
M  V30 1511 C 145.983 -0.568417 3.52851 0
M  V30 1512 C 145.649 0.59918 4.46901 0
M  V30 1513 C 144.311 0.919559 4.72332 0
M  V30 1514 C 146.663 1.38156 5.02556 0
M  V30 1515 C 143.991 2.02434 5.5067 0
M  V30 1516 C 146.343 2.47674 5.821 0
M  V30 1517 C 145.007 2.8025 6.05819 0
M  V30 1518 H 144.277 -0.083349 0.736297 0
M  V30 1519 H 146.924 0.494677 1.85001 0
M  V30 1520 H 145.229 -1.37185 3.66998 0
M  V30 1521 H 146.926 -1.03756 3.87344 0
M  V30 1522 H 143.516 0.339437 4.27254 0
M  V30 1523 H 147.7 1.14729 4.82857 0
M  V30 1524 H 142.956 2.28075 5.67267 0
M  V30 1525 H 147.13 3.08716 6.24234 0
M  V30 1526 H 144.757 3.65979 6.66306 0
M  V30 1527 N 146.332 -1.57332 0.0918853 0
M  V30 1528 C 147.581 -1.93412 -0.572249 0
M  V30 1529 C 147.894 -0.975515 -1.69538 0
M  V30 1530 O 149.1 -1.22991 -2.42045 0
M  V30 1531 C 147.556 -3.43648 -1.0693 0
M  V30 1532 C 147.164 -4.47994 0.0239049 0
M  V30 1533 C 148.908 -3.88695 -1.70635 0
M  V30 1534 C 146.815 -5.89381 -0.488319 0
M  V30 1535 H 145.745 -0.721939 -0.217532 0
M  V30 1536 H 148.396 -1.82735 0.167369 0
M  V30 1537 H 146.778 -3.49466 -1.8625 0
M  V30 1538 H 147.952 -4.53815 0.799277 0
M  V30 1539 H 146.267 -4.12536 0.565946 0
M  V30 1540 H 148.864 -4.91725 -2.10025 0
M  V30 1541 H 149.207 -3.27166 -2.57426 0
M  V30 1542 H 149.74 -3.85564 -0.979023 0
M  V30 1543 H 146.479 -6.54602 0.342906 0
M  V30 1544 H 145.999 -5.87037 -1.23077 0
M  V30 1545 H 147.678 -6.39863 -0.958317 0
M  V30 1546 N 147.81 0.181792 -1.56548 0
M  V30 1547 C 149.221 0.745244 -1.71181 0
M  V30 1548 C 149.572 1.83262 -0.70068 0
M  V30 1549 O 148.697 2.15946 0.140154 0
M  V30 1550 C 149.292 1.35859 -3.10367 0
M  V30 1551 C 147.851 1.86898 -3.2672 0
M  V30 1552 C 146.998 0.743942 -2.67134 0
M  V30 1553 H 149.949 -0.0434661 -1.5864 0
M  V30 1554 H 149.97 2.22817 -3.08436 0
M  V30 1555 H 149.482 0.566948 -3.83937 0
M  V30 1556 H 147.583 2.68738 -2.5809 0
M  V30 1557 H 147.696 2.02162 -4.34359 0
M  V30 1558 H 146.06 1.16169 -2.26665 0
M  V30 1559 H 146.843 -0.035676 -3.43281 0
M  V30 1560 N 149.288 1.51039 0.449983 0
M  V30 1561 C 150.516 1.66869 1.2232 0
M  V30 1562 C 150.931 0.360727 1.85322 0
M  V30 1563 O 150.288 -0.659531 1.70166 0
M  V30 1564 C 150.339 2.77524 2.31652 0
M  V30 1565 O 150.06 4.03252 1.7123 0
M  V30 1566 C 151.561 3.04512 3.2216 0
M  V30 1567 H 148.781 0.560326 0.369155 0
M  V30 1568 H 151.325 1.97385 0.534719 0
M  V30 1569 H 149.48 2.49642 2.96239 0
M  V30 1570 H 149.894 4.64609 2.43389 0
M  V30 1571 H 151.368 3.85551 3.95038 0
M  V30 1572 H 151.845 2.16415 3.8218 0
M  V30 1573 H 152.451 3.34005 2.63288 0
M  V30 1574 N 150.766 -0.704594 1.40972 0
M  V30 1575 C 151.991 -1.49858 1.43378 0
M  V30 1576 C 152.416 -1.88061 0.038184 0
M  V30 1577 O 151.774 -1.5402 -0.956425 0
M  V30 1578 C 151.822 -2.74333 2.34038 0
M  V30 1579 O 150.926 -3.7147 1.7912 0
M  V30 1580 H 150.267 -0.45139 0.486974 0
M  V30 1581 H 152.797 -0.866832 1.8533 0
M  V30 1582 H 152.807 -3.22741 2.49604 0
M  V30 1583 H 151.482 -2.45863 3.35446 0
M  V30 1584 H 150.059 -3.30363 1.72958 0
M  V30 1585 N 152.244 -1.26651 -0.937939 0
M  V30 1586 C 153.177 -1.02811 -2.03728 0
M  V30 1587 C 154.155 0.0481915 -1.62529 0
M  V30 1588 O 155.339 -0.0948839 -1.88261 0
M  V30 1589 C 152.466 -0.557517 -3.3408 0
M  V30 1590 C 151.512 -1.62686 -3.94253 0
M  V30 1591 S 152.345 -3.21667 -4.28125 0
M  V30 1592 C 153.501 -2.76384 -5.61572 0
M  V30 1593 H 153.734 -1.95891 -2.23638 0
M  V30 1594 H 151.267 -1.10367 -1.07974 0
M  V30 1595 H 153.225 -0.292674 -4.09455 0
M  V30 1596 H 151.886 0.353062 -3.12109 0
M  V30 1597 H 151.079 -1.24866 -4.88287 0
M  V30 1598 H 150.681 -1.84324 -3.25424 0
M  V30 1599 H 152.973 -2.2105 -6.40424 0
M  V30 1600 H 153.916 -3.69123 -6.0428 0
M  V30 1601 H 154.324 -2.15847 -5.21604 0
M  V30 1602 N 153.722 1.14298 -1.08507 0
M  V30 1603 C 154.999 1.81544 -0.728088 0
M  V30 1604 C 155.379 1.95838 0.78808 0
M  V30 1605 O 154.727 1.51904 1.70697 0
M  V30 1606 C 154.937 3.17169 -1.45619 0
M  V30 1607 C 156.285 3.9265 -1.61591 0
M  V30 1608 O 157.309 3.26762 -1.41793 0
M  V30 1609 O 156.168 5.10807 -1.94263 0
M  V30 1610 H 153.262 0.78491 -0.260471 0
M  V30 1611 H 155.808 1.21307 -1.18671 0
M  V30 1612 H 154.58 3.01934 -2.489 0
M  V30 1613 H 154.203 3.851 -0.989124 0
M  V30 1614 N 155.201 0.870884 1.31352 0
M  V30 1615 C 156.612 0.534714 1.78879 0
M  V30 1616 C 156.963 -0.948423 1.71754 0
M  V30 1617 O 156.088 -1.74055 1.28584 0
M  V30 1618 C 156.683 0.963839 3.24801 0
M  V30 1619 C 155.242 0.679311 3.70219 0
M  V30 1620 C 154.389 1.15465 2.52117 0
M  V30 1621 H 157.34 1.05651 1.18421 0
M  V30 1622 H 157.361 0.286892 3.79417 0
M  V30 1623 H 156.873 2.04332 3.29955 0
M  V30 1624 H 154.974 -0.388769 3.70566 0
M  V30 1625 H 155.087 1.25698 4.62317 0
M  V30 1626 H 153.451 0.574383 2.48139 0
M  V30 1627 H 154.234 2.24157 2.60016 0
M  V30 1628 N 156.679 -1.44442 0.630414 0
M  V30 1629 C 158.09 -1.85434 0.217063 0
M  V30 1630 C 158.441 -1.52748 -1.23136 0
M  V30 1631 O 157.566 -0.965205 -1.93682 0
M  V30 1632 C 158.161 -3.36581 0.387168 0
M  V30 1633 C 156.72 -3.76389 0.0283297 0
M  V30 1634 C 155.867 -2.68296 0.700889 0
M  V30 1635 H 158.818 -1.34919 0.83562 0
M  V30 1636 H 158.839 -3.78657 -0.374086 0
M  V30 1637 H 158.351 -3.60339 1.44144 0
M  V30 1638 H 156.452 -3.58246 -1.02423 0
M  V30 1639 H 156.565 -4.77095 0.437892 0
M  V30 1640 H 154.929 -2.54335 0.136267 0
M  V30 1641 H 155.712 -2.94887 1.75774 0
M  V30 1642 N 158.157 -0.370918 -1.53173 0
M  V30 1643 C 159.067 0.480823 -2.2962 0
M  V30 1644 C 160.083 1.08789 -1.35798 0
M  V30 1645 O 161.259 1.09768 -1.68858 0
M  V30 1646 C 158.324 1.60227 -3.07454 0
M  V30 1647 C 157.385 1.0222 -4.16953 0
M  V30 1648 C 156.618 2.0902 -4.91066 0
M  V30 1649 O 156.841 3.30222 -4.65091 0
M  V30 1650 O 155.775 1.71778 -5.76867 0
M  V30 1651 H 159.601 -0.141421 -3.03371 0
M  V30 1652 H 157.186 -0.135146 -1.48787 0
M  V30 1653 H 159.068 2.25417 -3.56041 0
M  V30 1654 H 157.743 2.20982 -2.36535 0
M  V30 1655 H 156.65 0.334064 -3.72605 0
M  V30 1656 H 157.983 0.459131 -4.90054 0
M  V30 1657 N 159.635 1.57281 -0.100228 0
M  V30 1658 C 160.567 2.11342 0.886972 0
M  V30 1659 C 161.58 1.05182 1.24261 0
M  V30 1660 O 162.769 1.32613 1.19483 0
M  V30 1661 C 159.869 2.5825 2.19454 0
M  V30 1662 C 159.042 3.88302 2.01346 0
M  V30 1663 C 158.101 4.21004 3.15661 0
M  V30 1664 O 157.127 4.9014 2.89398 0
M  V30 1665 N 158.329 3.76818 4.41575 0
M  V30 1666 H 161.094 2.96668 0.425216 0
M  V30 1667 H 158.655 1.61678 0.0847334 0
M  V30 1668 H 160.647 2.7717 2.94888 0
M  V30 1669 H 159.217 1.77907 2.57037 0
M  V30 1670 H 158.437 3.7848 1.10212 0
M  V30 1671 H 159.725 4.73375 1.8653 0
M  V30 1672 H 159.123 3.2102 4.65792 0
M  V30 1673 H 157.68 4.00882 5.13942 0
M  V30 1674 N 161.113 -0.173488 1.56642 0
M  V30 1675 C 162.529 -0.525174 1.50712 0
M  V30 1676 C 162.729 -1.8476 0.804107 0
M  V30 1677 O 161.785 -2.49869 0.363574 0
M  V30 1678 C 163.098 -0.559937 2.95441 0
M  V30 1679 C 164.646 -0.647288 3.06234 0
M  V30 1680 C 165.121 -0.712963 4.52417 0
M  V30 1681 N 166.612 -0.775911 4.56655 0
M  V30 1682 C 167.347 -0.847264 5.67106 0
M  V30 1683 N 166.843 -0.879585 6.87194 0
M  V30 1684 N 168.636 -0.886117 5.55071 0
M  V30 1685 H 160.787 0.693681 2.00753 0
M  V30 1686 H 163.05 0.249841 0.914485 0
M  V30 1687 H 162.756 0.343049 3.50023 0
M  V30 1688 H 162.63 -1.40718 3.49969 0
M  V30 1689 H 165.017 -1.5407 2.51687 0
M  V30 1690 H 165.098 0.226586 2.54794 0
M  V30 1691 H 164.742 0.176183 5.07594 0
M  V30 1692 H 164.672 -1.60295 5.0161 0
M  V30 1693 H 167.163 -0.759304 3.70193 0
M  V30 1694 H 167.476 -0.935144 7.67121 0
M  V30 1695 H 165.821 -0.847898 6.89808 0
M  V30 1696 H 169.012 -0.857853 4.60172 0
M  V30 1697 H 169.185 -0.938263 6.41171 0
M  V30 1698 N 162.591 -1.51276 -0.441967 0
M  V30 1699 C 163.523 -1.68444 -1.55433 0
M  V30 1700 C 164.536 -0.565187 -1.52674 0
M  V30 1701 O 165.725 -0.839356 -1.57534 0
M  V30 1702 C 162.825 -1.67966 -2.94348 0
M  V30 1703 C 161.998 -2.964 -3.21661 0
M  V30 1704 C 161.057 -2.88171 -4.40277 0
M  V30 1705 O 160.083 -3.62119 -4.39157 0
M  V30 1706 N 161.285 -2.03706 -5.43584 0
M  V30 1707 H 164.05 -2.644 -1.41112 0
M  V30 1708 H 161.611 -1.49104 -0.630838 0
M  V30 1709 H 163.603 -1.60035 -3.71713 0
M  V30 1710 H 162.173 -0.796225 -3.0229 0
M  V30 1711 H 161.393 -3.18234 -2.32638 0
M  V30 1712 H 162.681 -3.81427 -3.36736 0
M  V30 1713 H 162.079 -1.42995 -5.47329 0
M  V30 1714 H 160.636 -2.01658 -6.1982 0
M  V30 1715 N 164.069 0.697108 -1.41344 0
M  V30 1716 C 165.316 1.45714 -1.40619 0
M  V30 1717 C 165.644 1.94494 -0.0147907 0
M  V30 1718 O 164.899 1.69794 0.973066 0
M  V30 1719 C 165.198 2.68553 -2.35826 0
M  V30 1720 C 164.864 2.38438 -3.82698 0
M  V30 1721 C 163.526 2.29936 -4.22709 0
M  V30 1722 C 165.878 2.13567 -4.75435 0
M  V30 1723 C 163.206 1.94656 -5.53467 0
M  V30 1724 C 165.558 1.79797 -6.06511 0
M  V30 1725 C 164.222 1.69789 -6.45545 0
M  V30 1726 H 163.492 0.533206 -0.51456 0
M  V30 1727 H 166.139 0.796901 -1.74131 0
M  V30 1728 H 164.444 3.39503 -1.95563 0
M  V30 1729 H 166.141 3.2669 -2.32539 0
M  V30 1730 H 162.731 2.4595 -3.51008 0
M  V30 1731 H 166.915 2.19082 -4.45328 0
M  V30 1732 H 162.171 1.8546 -5.82593 0
M  V30 1733 H 166.345 1.59572 -6.77872 0
M  V30 1734 H 163.972 1.4222 -7.46778 0
M  V30 1735 N 165.547 1.27147 0.931209 0
M  V30 1736 C 166.963 1.04475 1.20653 0
M  V30 1737 C 167.163 -0.223885 2.00252 0
M  V30 1738 O 166.219 -0.930332 2.34736 0
M  V30 1739 C 167.532 2.28209 1.95809 0
M  V30 1740 C 169.08 2.33211 2.08762 0
M  V30 1741 C 169.555 3.56665 2.87323 0
M  V30 1742 N 171.046 3.57201 2.94892 0
M  V30 1743 C 171.781 4.49395 3.56134 0
M  V30 1744 N 171.277 5.51889 4.18796 0
M  V30 1745 N 173.07 4.37026 3.53504 0
M  V30 1746 H 165.221 2.08612 0.399333 0
M  V30 1747 H 167.484 0.917312 0.239253 0
M  V30 1748 H 167.19 3.20538 1.44736 0
M  V30 1749 H 167.064 2.33247 2.96438 0
M  V30 1750 H 169.451 1.41391 2.59023 0
M  V30 1751 H 169.532 2.32178 1.07364 0
M  V30 1752 H 169.176 4.4882 2.37746 0
M  V30 1753 H 169.106 3.54948 3.88998 0
M  V30 1754 H 171.597 2.83074 2.50354 0
M  V30 1755 H 171.91 6.18409 4.63454 0
M  V30 1756 H 170.255 5.55735 4.17353 0
M  V30 1757 H 173.446 3.56166 3.03749 0
M  V30 1758 H 173.619 5.09067 4.00942 0
M  V30 1759 N 167.025 -1.13721 1.09112 0
M  V30 1760 C 167.988 -2.17222 0.731241 0
M  V30 1761 C 168.988 -1.59035 -0.237566 0
M  V30 1762 O 170.178 -1.74192 -0.0161704 0
M  V30 1763 C 167.31 -3.40804 0.0808443 0
M  V30 1764 H 168.503 -2.50573 1.64783 0
M  V30 1765 H 166.056 -1.28493 0.889897 0
M  V30 1766 H 166.791 -3.1304 -0.847127 0
M  V30 1767 H 166.576 -3.84306 0.777896 0
M  V30 1768 H 168.066 -4.1731 -0.155657 0
M  V30 1769 N 168.503 -0.877838 -1.30888 0
M  V30 1770 C 169.433 -0.35534 -2.3078 0
M  V30 1771 C 170.414 0.557994 -1.60687 0
M  V30 1772 O 171.599 0.473355 -1.88343 0
M  V30 1773 C 168.729 0.437221 -3.44537 0
M  V30 1774 C 167.683 -0.383715 -4.26276 0
M  V30 1775 C 167.009 0.535014 -5.32017 0
M  V30 1776 C 168.309 -1.62201 -4.96476 0
M  V30 1777 H 170.003 -1.19007 -2.74732 0
M  V30 1778 H 167.549 -0.573698 -1.32078 0
M  V30 1779 H 169.502 0.813334 -4.13477 0
M  V30 1780 H 168.226 1.30553 -2.99372 0
M  V30 1781 H 166.885 -0.741874 -3.59015 0
M  V30 1782 H 166.533 1.40083 -4.831 0
M  V30 1783 H 166.233 -0.0104211 -5.87599 0
M  V30 1784 H 167.757 0.907799 -6.03814 0
M  V30 1785 H 169.171 -1.31689 -5.5797 0
M  V30 1786 H 167.568 -2.10711 -5.61891 0
M  V30 1787 H 168.638 -2.37044 -4.23011 0
M  V30 1788 N 169.982 1.44106 -0.638065 0
M  V30 1789 C 170.945 2.29138 0.0531013 0
M  V30 1790 C 171.945 1.41409 0.765506 0
M  V30 1791 O 173.135 1.63206 0.609046 0
M  V30 1792 C 170.267 3.23144 1.08584 0
M  V30 1793 H 171.46 2.91739 -0.694883 0
M  V30 1794 H 169.013 1.51134 -0.398538 0
M  V30 1795 H 169.748 2.65408 1.86357 0
M  V30 1796 H 169.533 3.87804 0.578852 0
M  V30 1797 H 171.023 3.87004 1.56899 0
M  V30 1798 N 171.46 0.379036 1.52974 0
M  V30 1799 C 172.408 -0.476033 2.27677 0
M  V30 1800 C 173.402 -1.0719 1.31174 0
M  V30 1801 O 174.608 -1.01355 1.48752 0
M  V30 1802 H 170.983 -0.172255 0.732006 0
M  V30 1803 H 172.954 0.175615 2.97883 0
M  V30 1804 C 171.703 -1.5967 3.0887 0
M  V30 1805 H 171.026 -1.1475 3.82978 0
M  V30 1806 H 172.466 -2.16943 3.64296 0
M  V30 1807 C 170.925 -2.54682 2.20542 0
M  V30 1808 O 171.455 -3.57836 1.82527 0
M  V30 1809 N 169.661 -2.24183 1.84907 0
M  V30 1810 H 169.208 -1.40333 2.1602 0
M  V30 1811 H 169.166 -2.88006 1.26096 0
M  V30 1812 N 172.938 -1.57226 0.108567 0
M  V30 1813 C 173.87 -2.11809 -0.875752 0
M  V30 1814 C 174.883 -1.05839 -1.23701 0
M  V30 1815 O 176.072 -1.33245 -1.18778 0
M  V30 1816 C 173.172 -2.59411 -2.18081 0
M  V30 1817 C 172.345 -3.89364 -1.99284 0
M  V30 1818 C 171.404 -4.22672 -3.13424 0
M  V30 1819 O 170.43 -4.91668 -2.86795 0
M  V30 1820 N 171.632 -3.79154 -4.3957 0
M  V30 1821 H 174.397 -2.9689 -0.409477 0
M  V30 1822 H 171.958 -1.61721 -0.076158 0
M  V30 1823 H 173.95 -2.7873 -2.93414 0
M  V30 1824 H 172.52 -1.79268 -2.5609 0
M  V30 1825 H 171.74 -3.79059 -1.08203 0
M  V30 1826 H 173.028 -4.74358 -1.84017 0
M  V30 1827 H 172.426 -3.23486 -4.64083 0
M  V30 1828 H 170.983 -4.03602 -5.11809 0
M  V30 1829 N 174.416 0.165178 -1.56732 0
M  V30 1830 C 175.662 0.882112 -1.82611 0
M  V30 1831 C 175.995 1.81628 -0.687378 0
M  V30 1832 O 175.27 1.92009 0.310267 0
M  V30 1833 C 175.553 1.67245 -3.18906 0
M  V30 1834 C 175.406 0.760987 -4.43316 0
M  V30 1835 C 176.725 2.63884 -3.52212 0
M  V30 1836 H 173.844 0.319242 -0.664269 0
M  V30 1837 H 176.486 0.148052 -1.89422 0
M  V30 1838 H 174.636 2.29824 -3.1323 0
M  V30 1839 H 176.308 0.147596 -4.61064 0
M  V30 1840 H 174.551 0.0694102 -4.33744 0
M  V30 1841 H 175.222 1.34962 -5.35247 0
M  V30 1842 H 177.698 2.11429 -3.58381 0
M  V30 1843 H 176.574 3.16245 -4.48643 0
M  V30 1844 H 176.835 3.44377 -2.77231 0
M  V30 1845 N 175.894 1.51508 0.433938 0
M  V30 1846 C 177.14 1.64588 1.18484 0
M  V30 1847 C 177.473 0.362666 1.90784 0
M  V30 1848 O 176.748 -0.637892 1.83742 0
M  V30 1849 C 177.031 2.85149 2.19913 0
M  V30 1850 C 176.884 4.23456 1.51674 0
M  V30 1851 C 178.203 3.01227 3.20858 0
M  V30 1852 H 175.322 0.598994 0.429389 0
M  V30 1853 H 177.964 1.84002 0.473647 0
M  V30 1854 H 176.114 2.68729 2.80566 0
M  V30 1855 H 177.786 4.51552 0.943322 0
M  V30 1856 H 176.029 4.25998 0.819035 0
M  V30 1857 H 176.7 5.03812 2.2556 0
M  V30 1858 H 179.176 3.16382 2.70263 0
M  V30 1859 H 178.052 3.87141 3.89118 0
M  V30 1860 H 178.313 2.13447 3.8716 0
M  V30 1861 N 177.372 -0.689602 1.41712 0
M  V30 1862 C 178.62 -1.4468 1.4111 0
M  V30 1863 C 178.941 -1.94986 0.0232196 0
M  V30 1864 O 178.211 -1.72097 -0.935913 0
M  V30 1865 H 176.791 -0.536847 0.519427 0
M  V30 1866 H 179.453 -0.815825 1.77004 0
M  V30 1867 H 178.549 -2.30706 2.10193 0
M  V30 1868 N 178.85 -1.27639 -0.924453 0
M  V30 1869 C 179.783 -1.04966 -2.02626 0
M  V30 1870 C 180.761 0.0309505 -1.62571 0
M  V30 1871 O 181.945 -0.114846 -1.8815 0
M  V30 1872 C 179.072 -0.59292 -3.3347 0
M  V30 1873 C 178.118 -1.66858 -3.92506 0
M  V30 1874 S 178.951 -3.2619 -4.24689 0
M  V30 1875 C 180.107 -2.82325 -5.58609 0
M  V30 1876 H 180.34 -1.98252 -2.21547 0
M  V30 1877 H 177.873 -1.11506 -1.06798 0
M  V30 1878 H 179.831 -0.336086 -4.09122 0
M  V30 1879 H 178.492 0.319939 -3.12466 0
M  V30 1880 H 177.685 -1.30038 -4.86935 0
M  V30 1881 H 177.287 -1.87766 -3.2345 0
M  V30 1882 H 179.579 -2.2783 -6.38044 0
M  V30 1883 H 180.522 -3.75511 -6.00331 0
M  V30 1884 H 180.93 -2.21367 -5.19285 0
M  V30 1885 N 180.328 1.1314 -1.09713 0
M  V30 1886 C 181.739 1.66029 -0.853885 0
M  V30 1887 C 182.09 1.86241 0.617142 0
M  V30 1888 O 181.215 1.5834 1.47503 0
M  V30 1889 C 181.81 3.01599 -1.5435 0
M  V30 1890 C 180.369 3.51467 -1.34714 0
M  V30 1891 C 179.516 2.26648 -1.59769 0
M  V30 1892 H 182.467 0.970226 -1.25588 0
M  V30 1893 H 182.488 3.67709 -0.978267 0
M  V30 1894 H 182 2.86856 -2.6141 0
M  V30 1895 H 180.101 3.71408 -0.297838 0
M  V30 1896 H 180.214 4.314 -2.08401 0
M  V30 1897 H 178.578 2.33385 -1.01998 0
M  V30 1898 H 179.361 2.14467 -2.68065 0
M  V30 1899 N 181.806 0.884767 1.30421 0
M  V30 1900 C 183.052 0.503851 1.96441 0
M  V30 1901 C 183.385 -0.944518 1.69684 0
M  V30 1902 O 182.66 -1.66737 1.00145 0
M  V30 1903 C 182.943 0.779085 3.51571 0
M  V30 1904 C 182.796 2.27807 3.87846 0
M  V30 1905 C 184.115 0.255452 4.39358 0
M  V30 1906 H 181.234 0.184533 0.713524 0
M  V30 1907 H 183.876 1.10872 1.54297 0
M  V30 1908 H 182.026 0.264274 3.876 0
M  V30 1909 H 183.698 2.86127 3.61841 0
M  V30 1910 H 181.941 2.74479 3.35922 0
M  V30 1911 H 182.612 2.42125 4.96064 0
M  V30 1912 H 185.088 0.696079 4.10236 0
M  V30 1913 H 183.964 0.477361 5.4682 0
M  V30 1914 H 184.225 -0.843293 4.33983 0
M  V30 1915 N 183.284 -1.43765 0.645699 0
M  V30 1916 C 184.53 -2.02197 0.156271 0
M  V30 1917 C 184.863 -1.50776 -1.22393 0
M  V30 1918 O 184.138 -0.697771 -1.81553 0
M  V30 1919 C 184.421 -3.59749 0.158872 0
M  V30 1920 C 184.274 -4.21419 1.57245 0
M  V30 1921 C 185.593 -4.37149 -0.50879 0
M  V30 1922 H 182.712 -0.734694 0.0582602 0
M  V30 1923 H 185.354 -1.71157 0.824951 0
M  V30 1924 H 183.504 -3.86325 -0.410525 0
M  V30 1925 H 185.176 -4.059 2.19186 0
M  V30 1926 H 183.419 -3.78356 2.122 0
M  V30 1927 H 184.09 -5.30482 1.52619 0
M  V30 1928 H 186.566 -4.16093 -0.024412 0
M  V30 1929 H 185.442 -5.4683 -0.476213 0
M  V30 1930 H 185.703 -4.12839 -1.58165 0
M  V30 1931 N 184.763 -0.387143 -1.52771 0
M  V30 1932 C 186.04 0.253197 -1.93954 0
M  V30 1933 C 186.42 1.64545 -1.32243 0
M  V30 1934 O 185.768 2.23191 -0.489699 0
M  V30 1935 C 185.978 0.281722 -3.47861 0
M  V30 1936 C 187.326 0.511715 -4.21505 0
M  V30 1937 O 188.35 0.362023 -3.54356 0
M  V30 1938 O 187.209 0.804847 -5.40541 0
M  V30 1939 H 184.303 0.156845 -0.811991 0
M  V30 1940 H 186.849 -0.441494 -1.63856 0
M  V30 1941 H 185.621 -0.693571 -3.85104 0
M  V30 1942 H 185.244 1.02142 -3.84256 0
M  V30 1943 N 186.241 1.57166 -0.116904 0
M  V30 1944 C 187.188 2.15202 0.83408 0
M  V30 1945 C 188.158 1.07644 1.26499 0
M  V30 1946 O 189.343 1.35541 1.34288 0
M  V30 1947 C 186.483 2.75405 2.07957 0
M  V30 1948 C 185.596 3.97264 1.69721 0
M  V30 1949 C 184.731 4.45561 2.89221 0
M  V30 1950 C 183.77 5.59956 2.47215 0
M  V30 1951 N 182.907 6.03006 3.59622 0
M  V30 1952 H 187.747 2.96141 0.332335 0
M  V30 1953 H 185.284 1.46309 0.152349 0
M  V30 1954 H 187.242 3.08439 2.80929 0
M  V30 1955 H 185.872 1.97159 2.55594 0
M  V30 1956 H 184.924 3.70404 0.866316 0
M  V30 1957 H 186.236 4.80226 1.34849 0
M  V30 1958 H 185.39 4.80493 3.7042 0
M  V30 1959 H 184.129 3.61544 3.27318 0
M  V30 1960 H 183.134 5.2463 1.64448 0
M  V30 1961 H 184.359 6.45738 2.10238 0
M  V30 1962 H 182.305 5.21931 3.97396 0
M  V30 1963 H 182.222 6.80819 3.28667 0
M  V30 1964 H 183.49 6.42576 4.41267 0
M  V30 1965 N 187.719 -0.156864 1.56817 0
M  V30 1966 C 188.649 -1.19589 2.00551 0
M  V30 1967 C 189.63 -1.4536 0.883426 0
M  V30 1968 O 190.815 -1.56449 1.15054 0
M  V30 1969 C 187.945 -2.53143 2.37773 0
M  V30 1970 C 186.899 -2.41913 3.53075 0
M  V30 1971 C 186.225 -3.80088 3.76081 0
M  V30 1972 C 187.525 -1.91157 4.86062 0
M  V30 1973 H 189.219 -0.832293 2.87599 0
M  V30 1974 H 186.765 -0.398918 1.38364 0
M  V30 1975 H 188.718 -3.26047 2.66967 0
M  V30 1976 H 187.442 -2.91319 1.4765 0
M  V30 1977 H 186.101 -1.71462 3.24031 0
M  V30 1978 H 185.749 -4.15683 2.83225 0
M  V30 1979 H 185.449 -3.73439 4.53671 0
M  V30 1980 H 186.973 -4.54556 4.0769 0
M  V30 1981 H 188.387 -2.53846 5.14038 0
M  V30 1982 H 186.784 -1.95422 5.67389 0
M  V30 1983 H 187.854 -0.866673 4.77092 0
M  V30 1984 N 189.197 -1.51736 -0.425897 0
M  V30 1985 C 190.107 -1.76738 -1.54275 0
M  V30 1986 C 191.123 -0.65211 -1.61318 0
M  V30 1987 O 192.299 -0.935654 -1.78346 0
M  V30 1988 C 189.364 -1.89755 -2.90162 0
M  V30 1989 C 188.425 -3.13633 -2.93143 0
M  V30 1990 C 187.658 -3.2602 -4.22548 0
M  V30 1991 O 187.881 -2.44067 -5.15546 0
M  V30 1992 O 186.815 -4.19071 -4.32046 0
M  V30 1993 H 190.641 -2.71502 -1.36089 0
M  V30 1994 H 188.226 -1.36376 -0.610069 0
M  V30 1995 H 190.108 -2.00236 -3.70788 0
M  V30 1996 H 188.783 -0.981785 -3.08452 0
M  V30 1997 H 187.69 -3.08622 -2.11431 0
M  V30 1998 H 189.023 -4.04936 -2.798 0
M  V30 1999 N 190.675 0.682077 -1.42076 0
M  V30 2000 C 191.623 1.81707 -1.45208 0
M  V30 2001 C 192.617 1.66183 -0.328591 0
M  V30 2002 O 193.823 1.7288 -0.501264 0
M  V30 2003 H 190.198 0.599014 -0.454628 0
M  V30 2004 H 192.169 1.76183 -2.40836 0
M  V30 2005 C 190.918 3.19816 -1.36428 0
M  V30 2006 H 190.241 3.32385 -2.22171 0
M  V30 2007 H 191.681 3.99272 -1.42681 0
M  V30 2008 C 190.14 3.36809 -0.078191 0
M  V30 2009 O 190.67 3.92124 0.87188 0
M  V30 2010 N 188.876 2.906 0.00229266 0
M  V30 2011 H 188.423 2.45772 -0.771616 0
M  V30 2012 H 188.381 3.02347 0.862179 0
M  V30 2013 N 192.153 1.28127 0.917671 0
M  V30 2014 C 193.569 1.05749 1.19538 0
M  V30 2015 C 193.769 -0.202633 2.00479 0
M  V30 2016 O 192.825 -0.905382 2.3571 0
M  V30 2017 C 194.138 2.30273 1.93378 0
M  V30 2018 C 195.686 2.35412 2.06277 0
M  V30 2019 C 196.161 3.59692 2.83524 0
M  V30 2020 N 197.652 3.60309 2.91087 0
M  V30 2021 C 198.387 4.53147 3.51348 0
M  V30 2022 N 197.883 5.563 4.12919 0
M  V30 2023 N 199.676 4.40751 3.48849 0
M  V30 2024 H 191.827 2.09024 0.377184 0
M  V30 2025 H 194.09 0.919798 0.22951 0
M  V30 2026 H 193.796 3.22055 1.41328 0
M  V30 2027 H 193.67 2.36378 2.93947 0
M  V30 2028 H 196.057 1.4413 2.57508 0
M  V30 2029 H 196.138 2.33304 1.04895 0
M  V30 2030 H 195.782 4.51316 2.32973 0
M  V30 2031 H 195.712 3.59054 3.85211 0
M  V30 2032 H 198.203 2.85714 2.47338 0
M  V30 2033 H 198.516 6.2329 4.56869 0
M  V30 2034 H 196.861 5.60131 4.11435 0
M  V30 2035 H 200.052 3.59367 2.99955 0
M  V30 2036 H 200.225 5.13291 3.9552 0
M  V30 2037 N 193.631 -1.12557 1.10312 0
M  V30 2038 C 194.88 -1.83395 0.839588 0
M  V30 2039 C 195.193 -1.84939 -0.636929 0
M  V30 2040 O 196.399 -2.51761 -1.01631 0
M  V30 2041 C 194.855 -3.29303 1.45215 0
M  V30 2042 C 194.463 -3.36122 2.96186 0
M  V30 2043 C 196.207 -4.05121 1.26796 0
M  V30 2044 C 194.114 -4.76357 3.50483 0
M  V30 2045 H 193.044 -0.687133 0.310425 0
M  V30 2046 H 195.695 -1.26746 1.32694 0
M  V30 2047 H 194.077 -3.85812 0.892469 0
M  V30 2048 H 195.251 -2.89559 3.58458 0
M  V30 2049 H 193.566 -2.73776 3.13745 0
M  V30 2050 H 196.163 -5.08668 1.64806 0
M  V30 2051 H 196.506 -4.15773 0.209409 0
M  V30 2052 H 197.039 -3.54967 1.79563 0
M  V30 2053 H 193.778 -4.70899 4.55998 0
M  V30 2054 H 193.298 -5.23377 2.92978 0
M  V30 2055 H 194.977 -5.45294 3.48228 0
M  V30 2056 N 195.109 -0.891671 -1.2995 0
M  V30 2057 C 196.041 -0.320695 -2.26945 0
M  V30 2058 C 197.054 0.528497 -1.53983 0
M  V30 2059 O 198.243 0.346959 -1.75096 0
M  V30 2060 C 195.343 0.562066 -3.34207 0
M  V30 2061 C 194.516 -0.259576 -4.36629 0
M  V30 2062 C 193.575 0.554739 -5.23268 0
M  V30 2063 O 192.601 -0.0249311 -5.69195 0
M  V30 2064 N 193.803 1.8625 -5.4981 0
M  V30 2065 H 196.568 -1.15432 -2.76578 0
M  V30 2066 H 194.129 -0.755336 -1.432 0
M  V30 2067 H 196.121 1.11304 -3.89093 0
M  V30 2068 H 194.691 1.29637 -2.84452 0
M  V30 2069 H 193.911 -0.991986 -3.81514 0
M  V30 2070 H 195.199 -0.822564 -5.02107 0
M  V30 2071 H 194.597 2.35628 -5.14292 0
M  V30 2072 H 193.154 2.36078 -6.07545 0
M  V30 2073 N 196.587 1.43421 -0.653314 0
M  V30 2074 C 197.497 2.34568 0.0388565 0
M  V30 2075 C 198.513 1.53888 0.81207 0
M  V30 2076 O 199.689 1.86539 0.759294 0
M  V30 2077 C 196.754 3.32167 0.993269 0
M  V30 2078 C 195.815 4.28751 0.216977 0
M  V30 2079 C 195.048 5.21688 1.12593 0
M  V30 2080 O 195.271 5.19052 2.36519 0
M  V30 2081 O 194.205 5.98919 0.598284 0
M  V30 2082 H 198.031 2.95251 -0.711386 0
M  V30 2083 H 195.616 1.43564 -0.413502 0
M  V30 2084 H 197.498 3.92183 1.54176 0
M  V30 2085 H 196.173 2.73987 1.72374 0
M  V30 2086 H 195.08 3.72215 -0.375101 0
M  V30 2087 H 196.413 4.89913 -0.473924 0
M  V30 2088 N 198.065 0.39524 1.52563 0
M  V30 2089 C 198.995 -0.428384 2.29537 0
M  V30 2090 C 199.976 -1.05831 1.33169 0
M  V30 2091 O 201.161 -1.06995 1.62067 0
M  V30 2092 C 198.291 -1.55274 3.10656 0
M  V30 2093 C 197.245 -1.04855 4.14957 0
M  V30 2094 C 196.571 -2.26543 4.84337 0
M  V30 2095 C 197.871 -0.112324 5.22179 0
M  V30 2096 H 199.565 0.213867 2.98635 0
M  V30 2097 H 197.111 0.104298 1.43622 0
M  V30 2098 H 199.064 -2.1358 3.63265 0
M  V30 2099 H 197.788 -2.22266 2.39302 0
M  V30 2100 H 196.447 -0.487985 3.63338 0
M  V30 2101 H 196.095 -2.92059 4.09525 0
M  V30 2102 H 195.795 -1.93466 5.54837 0
M  V30 2103 H 197.319 -2.85481 5.39753 0
M  V30 2104 H 198.733 -0.603752 5.70112 0
M  V30 2105 H 197.13 0.128968 5.99961 0
M  V30 2106 H 198.2 0.837052 4.77621 0
M  V30 2107 N 199.544 -1.57102 0.125237 0
M  V30 2108 C 200.507 -2.14471 -0.80838 0
M  V30 2109 C 201.507 -1.0811 -1.19033 0
M  V30 2110 O 202.697 -1.33856 -1.11482 0
M  V30 2111 C 199.829 -2.69005 -2.09402 0
M  V30 2112 H 201.022 -2.98297 -0.309696 0
M  V30 2113 H 198.575 -1.55807 -0.124051 0
M  V30 2114 H 199.31 -1.88785 -2.63687 0
M  V30 2115 H 199.095 -3.46799 -1.82957 0
M  V30 2116 H 200.585 -3.13278 -2.76128 0
M  V30 2117 N 201.022 0.148545 -1.56898 0
M  V30 2118 C 202.262 0.86765 -1.85071 0
M  V30 2119 C 202.626 1.78417 -0.709317 0
M  V30 2120 O 203.827 2.54261 -0.872049 0
M  V30 2121 C 202.098 1.62306 -3.1842 0
M  V30 2122 S 203.657 2.3878 -3.68143 0
M  V30 2123 H 200.475 0.290174 -0.649092 0
M  V30 2124 H 203.077 0.127755 -1.95082 0
M  V30 2125 H 201.781 0.941192 -3.99462 0
M  V30 2126 H 201.312 2.4039 -3.1141 0
M  V30 2127 H 203.327 3.63942 -3.37285 0
M  V30 2128 N 202.5 1.5196 0.417844 0
M  V30 2129 C 203.725 1.69717 1.1921 0
M  V30 2130 C 204.15 0.402148 1.83751 0
M  V30 2131 O 203.508 -0.639593 1.69643 0
M  V30 2132 C 203.556 2.82794 2.2374 0
M  V30 2133 O 202.66 2.47756 3.29683 0
M  V30 2134 H 202.001 0.565263 0.348387 0
M  V30 2135 H 204.531 1.98621 0.490985 0
M  V30 2136 H 204.541 3.07452 2.68212 0
M  V30 2137 H 203.216 3.76756 1.76146 0
M  V30 2138 H 201.793 2.33739 2.90552 0
M  V30 2139 N 203.978 -0.674533 1.42435 0
M  V30 2140 C 204.908 -1.80009 1.48724 0
M  V30 2141 C 205.889 -1.6659 0.343793 0
M  V30 2142 O 207.074 -1.86007 0.558137 0
M  V30 2143 C 204.204 -3.18306 1.38919 0
M  V30 2144 C 203.158 -3.46461 2.51294 0
M  V30 2145 C 202.484 -4.84335 2.26547 0
M  V30 2146 C 203.784 -3.43328 3.93603 0
M  V30 2147 H 205.478 -1.75004 2.42928 0
M  V30 2148 H 203.024 -0.840533 1.16923 0
M  V30 2149 H 204.977 -3.9678 1.41927 0
M  V30 2150 H 203.701 -3.2399 0.412094 0
M  V30 2151 H 202.36 -2.70348 2.47604 0
M  V30 2152 H 202.008 -4.86669 1.2713 0
M  V30 2153 H 201.708 -5.04136 3.01861 0
M  V30 2154 H 203.232 -5.65094 2.31304 0
M  V30 2155 H 204.646 -4.11772 3.98894 0
M  V30 2156 H 203.043 -3.74664 4.68771 0
M  V30 2157 H 204.113 -2.41897 4.20255 0
M  V30 2158 N 205.456 -1.28612 -0.910864 0
M  V30 2159 C 206.705 -1.15311 -1.65488 0
M  V30 2160 C 207.018 0.296999 -1.93332 0
M  V30 2161 O 208.224 0.551168 -2.65847 0
M  V30 2162 C 206.68 -2.01599 -2.98137 0
M  V30 2163 C 206.288 -3.51367 -2.7793 0
M  V30 2164 C 208.032 -1.96993 -3.76024 0
M  V30 2165 C 205.939 -4.29797 -4.06237 0
M  V30 2166 H 204.869 -0.42796 -0.620779 0
M  V30 2167 H 207.52 -1.53166 -1.01057 0
M  V30 2168 H 205.902 -1.56603 -3.63719 0
M  V30 2169 H 207.076 -4.0434 -2.21011 0
M  V30 2170 H 205.391 -3.57529 -2.13452 0
M  V30 2171 H 207.988 -2.52856 -4.71135 0
M  V30 2172 H 208.331 -0.94733 -4.05378 0
M  V30 2173 H 208.864 -2.39973 -3.17266 0
M  V30 2174 H 205.603 -5.32648 -3.82055 0
M  V30 2175 H 205.123 -3.81596 -4.62757 0
M  V30 2176 H 206.802 -4.39869 -4.74473 0
M  V30 2177 N 206.934 1.1197 -1.10907 0
M  V30 2178 C 207.844 2.21433 -0.774896 0
M  V30 2179 C 208.86 1.72478 0.229657 0
M  V30 2180 O 210.036 2.01288 0.0672008 0
M  V30 2181 C 207.101 3.4602 -0.216986 0
M  V30 2182 C 206.162 4.09791 -1.27944 0
M  V30 2183 C 205.395 5.28431 -0.748055 0
M  V30 2184 O 205.618 5.68823 0.423833 0
M  V30 2185 O 204.552 5.82644 -1.51027 0
M  V30 2186 H 208.378 2.5242 -1.68873 0
M  V30 2187 H 205.963 1.20399 -0.884555 0
M  V30 2188 H 207.845 4.21304 0.090059 0
M  V30 2189 H 206.52 3.16698 0.669633 0
M  V30 2190 H 205.427 3.36265 -1.63941 0
M  V30 2191 H 206.76 4.4328 -2.13925 0
M  V30 2192 N 208.412 0.89855 1.29475 0
M  V30 2193 C 209.637 0.538561 2.00285 0
M  V30 2194 C 210.062 -0.869135 1.66816 0
M  V30 2195 O 209.42 -1.57831 0.892145 0
M  V30 2196 C 209.468 0.736475 3.52999 0
M  V30 2197 O 208.572 -0.211537 4.11857 0
M  V30 2198 H 207.913 0.210563 0.62973 0
M  V30 2199 H 210.443 1.20982 1.64998 0
M  V30 2200 H 210.453 0.640685 4.02938 0
M  V30 2201 H 209.128 1.76276 3.76696 0
M  V30 2202 H 207.705 -0.0682991 3.72837 0
M  V30 2203 N 209.89 -1.43072 0.660911 0
M  V30 2204 C 210.82 -2.33497 -0.0122829 0
M  V30 2205 C 211.801 -1.49903 -0.803925 0
M  V30 2206 O 212.986 -1.78546 -0.763864 0
M  V30 2207 C 210.116 -3.33363 -0.973994 0
M  V30 2208 C 209.07 -4.27003 -0.291928 0
M  V30 2209 C 208.396 -5.16967 -1.36562 0
M  V30 2210 C 209.696 -5.15816 0.820462 0
M  V30 2211 H 211.39 -2.90038 0.742873 0
M  V30 2212 H 208.936 -1.39461 0.358688 0
M  V30 2213 H 210.889 -3.95524 -1.45392 0
M  V30 2214 H 209.613 -2.75095 -1.7604 0
M  V30 2215 H 208.272 -3.66217 0.167623 0
M  V30 2216 H 207.92 -4.55034 -2.14366 0
M  V30 2217 H 207.62 -5.80441 -0.914454 0
M  V30 2218 H 209.144 -5.82003 -1.84675 0
M  V30 2219 H 210.558 -5.71742 0.422366 0
M  V30 2220 H 208.955 -5.8805 1.19656 0
M  V30 2221 H 210.025 -4.55045 1.67518 0
M  V30 2222 N 211.368 -0.403325 -1.52352 0
M  V30 2223 C 212.784 -0.0539281 -1.59509 0
M  V30 2224 C 212.984 1.43307 -1.41652 0
M  V30 2225 O 212.04 2.19924 -1.24056 0
M  V30 2226 C 213.353 -0.543654 -2.95745 0
M  V30 2227 C 214.901 -0.501125 -3.08962 0
M  V30 2228 C 215.376 -0.967267 -4.47669 0
M  V30 2229 N 216.867 -0.923849 -4.53893 0
M  V30 2230 C 217.602 -1.25578 -5.5948 0
M  V30 2231 N 217.098 -1.65889 -6.72646 0
M  V30 2232 N 218.891 -1.17613 -5.49658 0
M  V30 2233 H 211.042 -1.37123 -1.62206 0
M  V30 2234 H 213.305 -0.56294 -0.76276 0
M  V30 2235 H 213.011 -1.58275 -3.14073 0
M  V30 2236 H 212.885 0.0498042 -3.77167 0
M  V30 2237 H 215.272 0.528909 -2.90321 0
M  V30 2238 H 215.353 -1.13056 -2.2946 0
M  V30 2239 H 214.997 -1.9956 -4.67053 0
M  V30 2240 H 214.927 -0.314698 -5.25659 0
M  V30 2241 H 217.418 -0.627403 -3.72655 0
M  V30 2242 H 217.731 -1.89543 -7.49195 0
M  V30 2243 H 216.076 -1.69787 -6.73942 0
M  V30 2244 H 219.267 -0.860115 -4.6013 0
M  V30 2245 H 219.44 -1.43812 -6.3184 0
M  V30 2246 N 212.846 1.57033 -0.133567 0
M  V30 2247 C 214.257 1.82593 0.389464 0
M  V30 2248 C 214.608 1.05156 1.6564 0
M  V30 2249 O 213.733 0.292644 2.14412 0
M  V30 2250 C 214.328 3.31204 0.713377 0
M  V30 2251 C 212.887 3.57393 1.18098 0
M  V30 2252 C 212.034 2.76598 0.197126 0
M  V30 2253 H 214.985 1.54598 -0.358481 0
M  V30 2254 H 215.006 3.46627 1.56939 0
M  V30 2255 H 214.518 3.87537 -0.2089 0
M  V30 2256 H 212.619 3.06433 2.11966 0
M  V30 2257 H 212.732 4.65915 1.11624 0
M  V30 2258 H 211.096 2.45257 0.687088 0
M  V30 2259 H 211.879 3.35697 -0.718504 0
M  V30 2260 N 214.325 -0.140222 1.56975 0
M  V30 2261 C 215.257 -1.19818 1.95388 0
M  V30 2262 C 216.27 -1.38816 0.850525 0
M  V30 2263 O 217.459 -1.38267 1.12891 0
M  V30 2264 C 214.559 -2.56189 2.21857 0
M  V30 2265 C 213.732 -2.58077 3.5315 0
M  V30 2266 C 212.791 -3.76037 3.6808 0
M  V30 2267 O 211.817 -3.60598 4.40406 0
M  V30 2268 N 213.019 -4.93763 3.05251 0
M  V30 2269 H 215.784 -0.871609 2.86746 0
M  V30 2270 H 213.345 -0.32972 1.58507 0
M  V30 2271 H 215.337 -3.33623 2.2908 0
M  V30 2272 H 213.907 -2.81111 1.36731 0
M  V30 2273 H 213.127 -1.6651 3.57307 0
M  V30 2274 H 214.415 -2.56377 4.39486 0
M  V30 2275 H 213.813 -5.09209 2.46419 0
M  V30 2276 H 212.37 -5.68949 3.18026 0
M  V30 2277 N 215.803 -1.52179 -0.40978 0
M  V30 2278 C 217.051 -1.65878 -1.15451 0
M  V30 2279 C 217.372 -0.390771 -1.91044 0
M  V30 2280 O 216.642 0.594323 -1.86667 0
M  V30 2281 H 215.222 -0.611405 -0.429177 0
M  V30 2282 H 217.884 -1.89219 -0.467134 0
M  V30 2283 H 216.98 -2.49954 -1.86894 0
M  V30 2284 N 217.281 0.66697 -1.42791 0
M  V30 2285 C 218.213 1.7925 -1.42836 0
M  V30 2286 C 219.226 1.59496 -0.326333 0
M  V30 2287 O 220.415 1.6847 -0.589916 0
M  V30 2288 C 217.515 3.16476 -1.21229 0
M  V30 2289 C 216.688 3.63011 -2.44013 0
M  V30 2290 C 215.747 4.78993 -2.17834 0
M  V30 2291 O 214.773 4.89137 -2.91091 0
M  V30 2292 N 215.975 5.68248 -1.18635 0
M  V30 2293 H 218.74 1.79695 -2.39854 0
M  V30 2294 H 216.301 0.850338 -1.37771 0
M  V30 2295 H 218.293 3.91734 -1.01621 0
M  V30 2296 H 216.863 3.10884 -0.32706 0
M  V30 2297 H 216.083 2.78346 -2.79137 0
M  V30 2298 H 217.371 3.90845 -3.25757 0
M  V30 2299 H 216.769 5.62712 -0.580615 0
M  V30 2300 H 215.326 6.43285 -1.05013 0
M  V30 2301 N 218.759 1.29093 0.90403 0
M  V30 2302 C 219.999 1.18076 1.66845 0
M  V30 2303 C 220.363 -0.26436 1.90171 0
M  V30 2304 O 221.564 -0.497423 2.64157 0
M  V30 2305 C 219.835 1.96722 2.98388 0
M  V30 2306 S 221.394 2.0219 3.89441 0
M  V30 2307 H 218.212 0.421104 0.572881 0
M  V30 2308 H 220.814 1.63322 1.07453 0
M  V30 2309 H 219.518 3.00866 2.7912 0
M  V30 2310 H 219.049 1.52064 3.62823 0
M  V30 2311 H 221.064 1.13545 4.83034 0
M  V30 2312 N 220.237 -1.11381 1.11499 0
M  V30 2313 C 221.185 -2.19522 0.768956 0
M  V30 2314 C 222.179 -1.67693 -0.239857 0
M  V30 2315 O 223.385 -1.79727 -0.0990755 0
M  V30 2316 H 219.76 -0.715711 0.230786 0
M  V30 2317 H 221.731 -2.45954 1.68964 0
M  V30 2318 C 220.48 -3.46945 0.229073 0
M  V30 2319 H 219.803 -3.8718 0.996596 0
M  V30 2320 H 221.243 -4.23993 0.0251441 0
M  V30 2321 C 219.702 -3.2042 -1.04079 0
M  V30 2322 O 220.232 -3.41178 -2.12038 0
M  V30 2323 N 218.438 -2.74151 -0.963823 0
M  V30 2324 H 217.985 -2.57459 -0.0851722 0
M  V30 2325 H 217.943 -2.56781 -1.81414 0
M  V30 2326 N 221.715 -0.905404 -1.28997 0
M  V30 2327 C 222.962 -0.534248 -1.95325 0
M  V30 2328 C 223.29 0.920535 -1.71337 0
M  V30 2329 O 222.545 1.66861 -1.02254 0
M  V30 2330 C 222.844 -0.779906 -3.48787 0
M  V30 2331 C 222.51 -2.21293 -3.92861 0
M  V30 2332 C 221.172 -2.60475 -4.04606 0
M  V30 2333 C 223.524 -3.14587 -4.15553 0
M  V30 2334 C 220.852 -3.9212 -4.36416 0
M  V30 2335 C 223.204 -4.45787 -4.48839 0
M  V30 2336 C 221.868 -4.84834 -4.58794 0
M  V30 2337 H 221.138 -0.195495 -0.714747 0
M  V30 2338 H 223.785 -1.14514 -1.53488 0
M  V30 2339 H 222.09 -0.0861365 -3.91705 0
M  V30 2340 H 223.787 -0.472029 -3.98212 0
M  V30 2341 H 220.377 -1.89887 -3.84241 0
M  V30 2342 H 224.561 -2.85528 -4.0594 0
M  V30 2343 H 219.817 -4.22086 -4.42327 0
M  V30 2344 H 223.991 -5.18098 -4.65346 0
M  V30 2345 H 221.618 -5.86877 -4.83197 0
M  V30 2346 N 223.193 1.4272 -0.668489 0
M  V30 2347 C 224.421 2.05966 -0.196348 0
M  V30 2348 C 224.836 1.50191 1.14403 0
M  V30 2349 O 224.193 0.639208 1.7094 0
M  V30 2350 C 224.244 3.61314 -0.115815 0
M  V30 2351 O 223.965 4.1502 -1.40322 0
M  V30 2352 C 225.466 4.41663 0.380579 0
M  V30 2353 H 222.686 0.663954 -0.0969829 0
M  V30 2354 H 225.23 1.82966 -0.913446 0
M  V30 2355 H 223.385 3.83448 0.551931 0
M  V30 2356 H 223.799 5.08832 -1.27243 0
M  V30 2357 H 225.273 5.5065 0.385848 0
M  V30 2358 H 225.75 4.15792 1.41471 0
M  V30 2359 H 226.356 4.24534 -0.255209 0
M  V30 2360 N 224.671 0.411399 1.52136 0
M  V30 2361 C 225.581 -0.419774 2.30814 0
M  V30 2362 C 226.597 -1.0515 1.38634 0
M  V30 2363 O 227.773 -1.05252 1.71709 0
M  V30 2364 C 224.838 -1.52019 3.11594 0
M  V30 2365 C 223.899 -0.91129 4.19516 0
M  V30 2366 C 223.132 -1.95927 4.96436 0
M  V30 2367 O 223.355 -3.17775 4.73683 0
M  V30 2368 O 222.289 -1.56423 5.81219 0
M  V30 2369 H 226.115 0.221805 3.02889 0
M  V30 2370 H 223.7 0.174547 1.48377 0
M  V30 2371 H 225.582 -2.15898 3.61892 0
M  V30 2372 H 224.257 -2.14633 2.42311 0
M  V30 2373 H 223.164 -0.235157 3.7336 0
M  V30 2374 H 224.497 -0.32904 4.91099 0
M  V30 2375 N 226.149 -1.5696 0.141893 0
M  V30 2376 C 227.426 -1.87553 -0.555281 0
M  V30 2377 C 227.806 -1.04699 -1.83306 0
M  V30 2378 O 227.154 -0.132346 -2.28116 0
M  V30 2379 C 227.364 -3.39093 -0.825664 0
M  V30 2380 C 228.712 -4.08199 -1.16869 0
M  V30 2381 O 229.736 -3.44242 -0.915185 0
M  V30 2382 O 228.595 -5.21139 -1.6455 0
M  V30 2383 H 225.689 -0.777188 -0.282679 0
M  V30 2384 H 228.235 -1.68763 0.17812 0
M  V30 2385 H 227.007 -3.91221 0.0788633 0
M  V30 2386 H 226.63 -3.63393 -1.61343 0
M  V30 2387 N 227.627 0.131896 -1.57047 0
M  V30 2388 C 228.857 0.855219 -1.88068 0
M  V30 2389 C 229.265 1.74557 -0.729817 0
M  V30 2390 O 228.608 1.81083 0.308962 0
M  V30 2391 C 228.67 1.75119 -3.13964 0
M  V30 2392 C 228.334 1.03646 -4.45091 0
M  V30 2393 C 229.331 0.383276 -5.18485 0
M  V30 2394 C 227.016 1.02148 -4.91804 0
M  V30 2395 C 229.01 -0.275347 -6.36805 0
M  V30 2396 C 226.697 0.359047 -6.10044 0
M  V30 2397 C 227.695 -0.288222 -6.82392 0
M  V30 2398 O 227.383 -0.94011 -7.98384 0
M  V30 2399 H 227.115 0.251864 -0.627328 0
M  V30 2400 H 229.669 0.124782 -2.05021 0
M  V30 2401 H 227.899 2.52295 -2.9306 0
M  V30 2402 H 229.588 2.3478 -3.31109 0
M  V30 2403 H 230.354 0.386562 -4.83457 0
M  V30 2404 H 226.233 1.5147 -4.35405 0
M  V30 2405 H 229.777 -0.781148 -6.93213 0
M  V30 2406 H 225.674 0.35348 -6.44531 0
M  V30 2407 H 226.442 -0.84329 -8.14144 0
M  V30 2408 N 229.106 1.52395 0.401703 0
M  V30 2409 C 230.069 1.75636 1.47257 0
M  V30 2410 C 231.069 0.62628 1.48103 0
M  V30 2411 O 232.259 0.894227 1.49497 0
M  V30 2412 C 229.391 1.84553 2.86624 0
M  V30 2413 H 230.584 2.71241 1.27938 0
M  V30 2414 H 228.137 1.42923 0.632662 0
M  V30 2415 H 228.872 0.908882 3.11303 0
M  V30 2416 H 228.657 2.66715 2.87412 0
M  V30 2417 H 230.147 2.04251 3.64241 0
M  V30 2418 N 230.584 -0.659388 1.43143 0
M  V30 2419 C 231.494 -1.80167 1.50256 0
M  V30 2420 C 232.51 -1.69571 0.390106 0
M  V30 2421 O 233.686 -1.90849 0.643319 0
M  V30 2422 C 230.751 -3.16409 1.41725 0
M  V30 2423 C 229.812 -3.38848 2.63591 0
M  V30 2424 C 229.045 -4.68591 2.55458 0
M  V30 2425 O 229.268 -5.47532 1.59891 0
M  V30 2426 O 228.202 -4.92614 3.45854 0
M  V30 2427 H 232.028 -1.77121 2.46702 0
M  V30 2428 H 229.613 -0.817092 1.25076 0
M  V30 2429 H 231.495 -3.9768 1.39387 0
M  V30 2430 H 230.17 -3.20059 0.484118 0
M  V30 2431 H 229.077 -2.57366 2.71502 0
M  V30 2432 H 230.41 -3.4004 3.55856 0
M  V30 2433 N 232.062 -1.29571 -0.897171 0
M  V30 2434 C 233.473 -1.15964 -1.46319 0
M  V30 2435 C 233.824 0.244267 -1.94674 0
M  V30 2436 O 232.949 1.13998 -1.83939 0
M  V30 2437 C 233.544 -2.09906 -2.65942 0
M  V30 2438 C 232.103 -2.00314 -3.18671 0
M  V30 2439 C 231.25 -2.00687 -1.91363 0
M  V30 2440 H 234.201 -1.42019 -0.708268 0
M  V30 2441 H 234.222 -1.67276 -3.41759 0
M  V30 2442 H 233.734 -3.12075 -2.30718 0
M  V30 2443 H 231.835 -1.01242 -3.58582 0
M  V30 2444 H 231.948 -2.88102 -3.82798 0
M  V30 2445 H 230.312 -1.45319 -2.09175 0
M  V30 2446 H 231.095 -3.04566 -1.58413 0
M  V30 2447 N 233.54 1.10788 -1.12088 0
M  V30 2448 C 234.787 1.82671 -0.873931 0
M  V30 2449 C 235.115 1.85004 0.600311 0
M  V30 2450 O 234.37 1.30365 1.45957 0
M  V30 2451 C 234.669 3.29294 -1.38926 0
M  V30 2452 C 234.335 3.47113 -2.87791 0
M  V30 2453 C 232.997 3.51684 -3.28439 0
M  V30 2454 C 235.349 3.52808 -3.83635 0
M  V30 2455 C 232.677 3.59513 -4.63646 0
M  V30 2456 C 235.029 3.62169 -5.18668 0
M  V30 2457 C 233.693 3.65003 -5.58864 0
M  V30 2458 H 232.963 0.668441 -0.319794 0
M  V30 2459 H 235.61 1.30613 -1.40045 0
M  V30 2460 H 233.915 3.83894 -0.783122 0
M  V30 2461 H 235.612 3.83416 -1.17443 0
M  V30 2462 H 232.202 3.4423 -2.5535 0
M  V30 2463 H 236.386 3.4853 -3.53328 0
M  V30 2464 H 231.642 3.59987 -4.94185 0
M  V30 2465 H 235.816 3.6552 -5.92763 0
M  V30 2466 H 233.443 3.70822 -6.63623 0
M  V30 2467 N 235.018 0.912232 1.28515 0
M  V30 2468 C 236.429 0.591352 1.77087 0
M  V30 2469 C 236.78 -0.8933 1.74684 0
M  V30 2470 O 235.905 -1.69876 1.34056 0
M  V30 2471 C 236.5 1.06668 3.2157 0
M  V30 2472 C 235.059 0.79675 3.67871 0
M  V30 2473 C 234.206 1.23427 2.48316 0
M  V30 2474 H 237.157 1.09365 1.15 0
M  V30 2475 H 237.178 0.407455 3.78312 0
M  V30 2476 H 236.69 2.14726 3.23287 0
M  V30 2477 H 234.791 -0.270679 3.71616 0
M  V30 2478 H 234.904 1.40343 4.58084 0
M  V30 2479 H 233.268 0.653036 2.46186 0
M  V30 2480 H 234.051 2.32316 2.52753 0
M  V30 2481 N 236.496 -1.42363 0.676048 0
M  V30 2482 C 237.745 -2.00745 0.196037 0
M  V30 2483 C 238.058 -1.54083 -1.20489 0
M  V30 2484 O 239.264 -2.04891 -1.78134 0
M  V30 2485 C 237.72 -3.58651 0.299616 0
M  V30 2486 C 237.328 -4.143 1.70468 0
M  V30 2487 C 239.072 -4.24326 -0.121619 0
M  V30 2488 C 236.979 -5.64574 1.76096 0
M  V30 2489 H 235.909 -0.750787 0.0695301 0
M  V30 2490 H 238.56 -1.63072 0.841412 0
M  V30 2491 H 236.942 -3.93833 -0.413673 0
M  V30 2492 H 238.116 -3.90575 2.44515 0
M  V30 2493 H 236.431 -3.61081 2.07387 0
M  V30 2494 H 239.028 -5.34607 -0.0997362 0
M  V30 2495 H 239.371 -3.99897 -1.15708 0
M  V30 2496 H 239.904 -3.94108 0.540706 0
M  V30 2497 H 236.643 -5.93804 2.77628 0
M  V30 2498 H 236.163 -5.90286 1.06406 0
M  V30 2499 H 237.842 -6.29013 1.51496 0
M  V30 2500 N 237.974 -0.419461 -1.51915 0
M  V30 2501 C 239.39 -0.0708431 -1.59443 0
M  V30 2502 C 239.59 1.41796 -1.43164 0
M  V30 2503 O 238.646 2.18596 -1.26381 0
M  V30 2504 C 239.959 -0.574991 -2.95151 0
M  V30 2505 C 241.507 -0.533867 -3.08413 0
M  V30 2506 C 241.982 -1.01469 -4.46618 0
M  V30 2507 N 243.473 -0.971939 -4.52888 0
M  V30 2508 C 244.208 -1.31505 -5.58116 0
M  V30 2509 N 243.704 -1.73014 -6.70849 0
M  V30 2510 N 245.497 -1.23436 -5.48379 0
M  V30 2511 H 237.648 -1.38836 -1.60743 0
M  V30 2512 H 239.911 -0.570998 -0.756747 0
M  V30 2513 H 239.617 -1.61597 -3.12377 0
M  V30 2514 H 239.491 0.00979777 -3.77199 0
M  V30 2515 H 241.878 0.498086 -2.90866 0
M  V30 2516 H 241.959 -1.15484 -2.28248 0
M  V30 2517 H 241.603 -2.04502 -4.6491 0
M  V30 2518 H 241.533 -0.370433 -5.25295 0
M  V30 2519 H 244.024 -0.666893 -3.71969 0
M  V30 2520 H 244.337 -1.97479 -7.47143 0
M  V30 2521 H 242.682 -1.76926 -6.72103 0
M  V30 2522 H 245.873 -0.908869 -4.59192 0
M  V30 2523 H 246.046 -1.50506 -6.30279 0
M  V30 2524 N 239.452 1.56882 -0.150215 0
M  V30 2525 C 240.701 1.95403 0.500071 0
M  V30 2526 C 241.014 1.03777 1.658 0
M  V30 2527 O 242.22 1.31889 2.37313 0
M  V30 2528 C 240.676 3.4738 0.941018 0
M  V30 2529 C 240.284 4.47596 -0.190158 0
M  V30 2530 C 242.028 3.9476 1.56091 0
M  V30 2531 C 239.935 5.90787 0.269237 0
M  V30 2532 H 238.865 0.729515 0.190588 0
M  V30 2533 H 241.516 1.81988 -0.235074 0
M  V30 2534 H 239.898 3.56138 1.73152 0
M  V30 2535 H 241.072 4.50536 -0.967157 0
M  V30 2536 H 239.387 4.10151 -0.718666 0
M  V30 2537 H 241.984 4.99181 1.9163 0
M  V30 2538 H 242.327 3.36494 2.45107 0
M  V30 2539 H 242.86 3.88932 0.835249 0
M  V30 2540 H 239.599 6.52879 -0.585621 0
M  V30 2541 H 239.119 5.912 1.01204 0
M  V30 2542 H 240.798 6.42979 0.720176 0
M  V30 2543 N 240.93 -0.123565 1.57115 0
M  V30 2544 C 242.177 -0.832153 1.84612 0
M  V30 2545 C 242.505 -1.80093 0.734627 0
M  V30 2546 O 241.76 -1.93766 -0.27442 0
M  V30 2547 C 242.059 -1.62016 3.18568 0
M  V30 2548 C 241.725 -0.796084 4.43817 0
M  V30 2549 C 240.387 -0.568816 4.77826 0
M  V30 2550 C 242.739 -0.221364 5.2073 0
M  V30 2551 C 240.067 0.243499 5.86194 0
M  V30 2552 C 242.419 0.578117 6.29953 0
M  V30 2553 C 241.083 0.815744 6.62497 0
M  V30 2554 H 240.353 -0.304507 0.675542 0
M  V30 2555 H 243 -0.0947248 1.91266 0
M  V30 2556 H 241.305 -2.42837 3.0747 0
M  V30 2557 H 243.002 -2.17231 3.37064 0
M  V30 2558 H 239.592 -0.983307 4.17168 0
M  V30 2559 H 243.776 -0.384173 4.94811 0
M  V30 2560 H 239.032 0.436871 6.09837 0
M  V30 2561 H 243.206 1.03046 6.88734 0
M  V30 2562 H 240.833 1.44701 7.46301 0
M  V30 2563 N 242.408 -1.52605 -0.393616 0
M  V30 2564 C 243.341 -1.71798 -1.50202 0
M  V30 2565 C 244.319 -0.565743 -1.52441 0
M  V30 2566 O 245.503 -0.794987 -1.70916 0
M  V30 2567 C 242.63 -1.7714 -2.88685 0
M  V30 2568 C 241.676 -2.98845 -3.04292 0
M  V30 2569 S 242.509 -4.58909 -2.75976 0
M  V30 2570 C 243.665 -4.6706 -4.1666 0
M  V30 2571 H 243.898 -2.65542 -1.33696 0
M  V30 2572 H 241.431 -1.42839 -0.586195 0
M  V30 2573 H 243.389 -1.80903 -3.68489 0
M  V30 2574 H 242.05 -0.844969 -3.02521 0
M  V30 2575 H 241.243 -2.99111 -4.05646 0
M  V30 2576 H 240.845 -2.9305 -2.32374 0
M  V30 2577 H 243.137 -4.45391 -5.10523 0
M  V30 2578 H 244.08 -5.6905 -4.21412 0
M  V30 2579 H 244.488 -3.95944 -4.02354 0
M  V30 2580 N 243.887 0.651787 -1.4349 0
M  V30 2581 C 244.817 1.77621 -1.51569 0
M  V30 2582 C 245.798 1.66022 -0.370253 0
M  V30 2583 O 246.983 1.85095 -0.587658 0
M  V30 2584 C 244.113 3.16056 -1.43966 0
M  V30 2585 C 243.067 3.4242 -2.56774 0
M  V30 2586 C 242.393 4.8067 -2.34223 0
M  V30 2587 C 243.693 3.37023 -3.99015 0
M  V30 2588 H 245.387 1.71117 -2.45681 0
M  V30 2589 H 242.933 0.821825 -1.18246 0
M  V30 2590 H 244.886 3.94472 -1.48221 0
M  V30 2591 H 243.61 3.23293 -0.463586 0
M  V30 2592 H 242.269 2.66375 -2.51873 0
M  V30 2593 H 241.917 4.84585 -1.34856 0
M  V30 2594 H 241.617 4.9927 -3.09844 0
M  V30 2595 H 243.141 5.61342 -2.40265 0
M  V30 2596 H 244.555 4.05374 -4.05395 0
M  V30 2597 H 242.952 3.67159 -4.74673 0
M  V30 2598 H 244.022 2.3518 -4.2405 0
M  V30 2599 N 245.365 1.30045 0.890287 0
M  V30 2600 C 246.295 1.18541 2.01172 0
M  V30 2601 C 247.276 0.0773356 1.69924 0
M  V30 2602 O 248.461 0.25845 1.92473 0
M  V30 2603 C 245.591 0.870941 3.36202 0
M  V30 2604 C 244.545 1.93637 3.81692 0
M  V30 2605 C 243.871 1.475 5.13953 0
M  V30 2606 C 245.171 3.34666 4.00994 0
M  V30 2607 H 246.865 2.12359 2.11054 0
M  V30 2608 H 244.411 1.02238 1.01407 0
M  V30 2609 H 246.364 0.777141 4.14172 0
M  V30 2610 H 245.088 -0.102926 3.26438 0
M  V30 2611 H 243.747 2.01972 3.05946 0
M  V30 2612 H 243.395 0.489551 5.00612 0
M  V30 2613 H 243.095 2.1876 5.4536 0
M  V30 2614 H 244.619 1.39489 5.94454 0
M  V30 2615 H 246.033 3.2912 4.69417 0
M  V30 2616 H 244.43 4.03966 4.43769 0
M  V30 2617 H 245.5 3.76949 3.05021 0
M  V30 2618 N 246.843 -1.10192 1.12674 0
M  V30 2619 C 247.806 -2.14786 0.799979 0
M  V30 2620 C 248.806 -1.59711 -0.18685 0
M  V30 2621 O 249.996 -1.74156 0.0392558 0
M  V30 2622 C 247.128 -3.40374 0.189228 0
M  V30 2623 H 248.321 -2.45203 1.72671 0
M  V30 2624 H 245.874 -1.25597 0.930326 0
M  V30 2625 H 246.609 -3.15577 -0.747107 0
M  V30 2626 H 246.394 -3.81637 0.899766 0
M  V30 2627 H 247.884 -4.17594 -0.0228143 0
M  V30 2628 N 248.321 -0.919034 -1.28029 0
M  V30 2629 C 249.569 -0.553838 -1.94363 0
M  V30 2630 C 249.89 0.906357 -1.72656 0
M  V30 2631 O 249.16 1.64143 -1.0693 0
M  V30 2632 H 247.74 -0.201834 -0.719216 0
M  V30 2633 H 250.402 -1.16954 -1.55909 0
M  V30 2634 H 249.498 -0.752758 -3.02886 0
M  V30 2635 N 249.799 1.42003 -0.683588 0
M  V30 2636 C 250.729 2.33487 -0.024866 0
M  V30 2637 C 251.71 1.51163 0.779975 0
M  V30 2638 O 252.895 1.79739 0.735362 0
M  V30 2639 C 250.025 3.3487 0.920836 0
M  V30 2640 C 248.979 4.27414 0.223958 0
M  V30 2641 C 248.305 5.19074 1.2832 0
M  V30 2642 C 249.605 5.14445 -0.90242 0
M  V30 2643 H 251.299 2.88819 -0.788921 0
M  V30 2644 H 248.845 1.38873 -0.38083 0
M  V30 2645 H 250.798 3.97787 1.39081 0
M  V30 2646 H 249.522 2.77861 1.71642 0
M  V30 2647 H 248.181 3.65904 -0.225864 0
M  V30 2648 H 247.829 4.58387 2.071 0
M  V30 2649 H 247.529 5.81822 0.821995 0
M  V30 2650 H 249.053 5.84867 1.75392 0
M  V30 2651 H 250.467 5.70998 -0.513272 0
M  V30 2652 H 248.864 5.86072 -1.28997 0
M  V30 2653 H 249.934 4.52322 -1.74737 0
M  V30 2654 N 251.277 0.427512 1.51691 0
M  V30 2655 C 252.688 -0.0378867 1.86662 0
M  V30 2656 C 253.039 -1.42819 1.34525 0
M  V30 2657 O 252.164 -2.05037 0.692014 0
M  V30 2658 C 252.759 -0.0755266 3.38716 0
M  V30 2659 C 251.318 -0.485309 3.73258 0
M  V30 2660 C 250.465 0.328399 2.75349 0
M  V30 2661 H 253.416 0.64379 1.45055 0
M  V30 2662 H 253.437 -0.887056 3.70016 0
M  V30 2663 H 252.949 0.936487 3.76632 0
M  V30 2664 H 251.05 -1.50329 3.40928 0
M  V30 2665 H 251.163 -0.21693 4.78609 0
M  V30 2666 H 249.527 -0.211905 2.53817 0
M  V30 2667 H 250.31 1.3391 3.16106 0
M  V30 2668 N 252.755 -1.56801 0.158532 0
M  V30 2669 C 253.665 -2.20916 -0.789518 0
M  V30 2670 C 254.681 -1.1969 -1.26294 0
M  V30 2671 O 255.857 -1.52308 -1.31773 0
M  V30 2672 C 252.922 -2.82727 -2.00665 0
M  V30 2673 C 251.983 -3.99114 -1.58134 0
M  V30 2674 C 251.216 -4.57968 -2.74045 0
M  V30 2675 O 251.439 -4.15704 -3.90572 0
M  V30 2676 O 250.373 -5.48047 -2.48855 0
M  V30 2677 H 254.199 -3.02464 -0.273681 0
M  V30 2678 H 251.784 -1.4924 -0.0690548 0
M  V30 2679 H 253.666 -3.21968 -2.71872 0
M  V30 2680 H 252.341 -2.04184 -2.51179 0
M  V30 2681 H 251.248 -3.64567 -0.839155 0
M  V30 2682 H 252.581 -4.79212 -1.12325 0
M  V30 2683 N 254.233 0.115231 -1.57178 0
M  V30 2684 C 255.143 1.15994 -2.03918 0
M  V30 2685 C 256.159 1.45103 -0.960268 0
M  V30 2686 O 257.335 1.56144 -1.27204 0
M  V30 2687 C 254.4 2.46568 -2.43732 0
M  V30 2688 C 253.461 2.24822 -3.65723 0
M  V30 2689 C 252.694 3.4917 -4.03629 0
M  V30 2690 O 252.917 4.56623 -3.41835 0
M  V30 2691 O 251.851 3.39949 -4.96708 0
M  V30 2692 H 255.677 0.793019 -2.93164 0
M  V30 2693 H 253.262 0.3263 -1.45793 0
M  V30 2694 H 255.144 3.23492 -2.70057 0
M  V30 2695 H 253.819 2.82726 -1.57631 0
M  V30 2696 H 252.726 1.45744 -3.44542 0
M  V30 2697 H 254.059 1.93566 -4.52541 0
M  V30 2698 N 255.711 1.52812 0.385517 0
M  V30 2699 C 256.988 1.5861 1.14465 0
M  V30 2700 C 257.368 0.381402 2.07626 0
M  V30 2701 O 256.716 -0.629999 2.19643 0
M  V30 2702 C 256.926 2.92664 1.90128 0
M  V30 2703 C 258.274 3.46526 2.45367 0
M  V30 2704 O 259.298 2.94562 2.0028 0
M  V30 2705 O 258.157 4.37323 3.27736 0
M  V30 2706 H 255.251 0.639855 0.523941 0
M  V30 2707 H 257.797 1.65149 0.390389 0
M  V30 2708 H 256.569 3.71788 1.22022 0
M  V30 2709 H 256.192 2.89527 2.72507 0
M  V30 2710 N 257.189 -0.644168 1.43834 0
M  V30 2711 C 258.438 -1.39985 1.45214 0
M  V30 2712 C 258.751 -1.95421 0.0835494 0
M  V30 2713 O 259.957 -2.71488 -0.0251748 0
M  V30 2714 C 258.413 -2.53384 2.55587 0
M  V30 2715 C 258.021 -2.04517 3.98594 0
M  V30 2716 C 259.765 -3.30685 2.66172 0
M  V30 2717 C 257.672 -3.1518 5.00416 0
M  V30 2718 H 256.602 -0.526005 0.540218 0
M  V30 2719 H 259.253 -0.694367 1.69855 0
M  V30 2720 H 257.635 -3.26446 2.24163 0
M  V30 2721 H 258.809 -1.38405 4.39523 0
M  V30 2722 H 257.124 -1.40068 3.92135 0
M  V30 2723 H 259.721 -4.13158 3.39418 0
M  V30 2724 H 260.064 -3.79312 1.71546 0
M  V30 2725 H 260.597 -2.64708 2.96942 0
M  V30 2726 H 257.336 -2.71511 5.96625 0
M  V30 2727 H 256.856 -3.79974 4.64091 0
M  V30 2728 H 258.535 -3.80166 5.23529 0
M  V30 2729 N 258.668 -1.30515 -0.883378 0
M  V30 2730 C 260.079 -1.17509 -1.45081 0
M  V30 2731 C 260.43 0.223605 -1.94922 0
M  V30 2732 O 259.555 1.12041 -1.85137 0
M  V30 2733 C 260.15 -2.12715 -2.63701 0
M  V30 2734 C 258.709 -2.03682 -3.16529 0
M  V30 2735 C 257.856 -2.02706 -1.89224 0
M  V30 2736 H 260.807 -1.42762 -0.693165 0
M  V30 2737 H 260.828 -1.70891 -3.39965 0
M  V30 2738 H 260.34 -3.14505 -2.27395 0
M  V30 2739 H 258.441 -1.05039 -3.57488 0
M  V30 2740 H 258.554 -2.92146 -3.7972 0
M  V30 2741 H 256.918 -1.4753 -2.07622 0
M  V30 2742 H 257.701 -3.06229 -1.55174 0
M  V30 2743 N 260.146 1.09593 -1.13257 0
M  V30 2744 C 261.096 2.14345 -0.777179 0
M  V30 2745 C 262.08 1.59277 0.227966 0
M  V30 2746 O 263.272 1.76971 0.0321413 0
M  V30 2747 C 260.401 3.42439 -0.242991 0
M  V30 2748 C 259.487 4.04419 -1.27694 0
M  V30 2749 N 259.878 4.40979 -2.47732 0
M  V30 2750 C 258.176 4.31596 -1.12432 0
M  V30 2751 C 258.877 4.89784 -3.13826 0
M  V30 2752 N 257.853 4.87133 -2.41252 0
M  V30 2753 H 261.655 2.40415 -1.69049 0
M  V30 2754 H 259.169 1.26803 -1.01463 0
M  V30 2755 H 261.166 4.16889 0.0298496 0
M  V30 2756 H 259.826 3.17824 0.66467 0
M  V30 2757 H 260.837 4.32396 -2.85051 0
M  V30 2758 H 257.514 4.16595 -0.274684 0
M  V30 2759 H 258.904 5.2755 -4.16102 0
M  V30 2760 N 261.624 0.925811 1.2754 0
M  V30 2761 C 262.554 0.440748 2.29303 0
M  V30 2762 C 263.535 -0.497971 1.62648 0
M  V30 2763 O 264.72 -0.403126 1.8997 0
M  V30 2764 C 261.85 -0.309048 3.45922 0
M  V30 2765 C 260.804 0.54166 4.24559 0
M  V30 2766 C 260.13 -0.337191 5.33636 0
M  V30 2767 C 261.43 1.80516 4.90114 0
M  V30 2768 H 263.124 1.29121 2.70126 0
M  V30 2769 H 260.67 0.622323 1.29858 0
M  V30 2770 H 262.623 -0.659315 4.1621 0
M  V30 2771 H 261.347 -1.19352 3.04011 0
M  V30 2772 H 260.006 0.874609 3.56014 0
M  V30 2773 H 259.654 -1.22056 4.87966 0
M  V30 2774 H 259.354 0.228497 5.87156 0
M  V30 2775 H 260.878 -0.683072 6.06767 0
M  V30 2776 H 262.292 1.52307 5.52698 0
M  V30 2777 H 260.689 2.3142 5.53683 0
M  V30 2778 H 261.759 2.52581 4.13921 0
M  V30 2779 N 263.102 -1.41638 0.69111 0
M  V30 2780 C 264.049 -2.30789 0.0229705 0
M  V30 2781 C 265.019 -1.46863 -0.775911 0
M  V30 2782 O 266.204 -1.75661 -0.74485 0
M  V30 2783 C 263.344 -3.32868 -0.910666 0
M  V30 2784 C 262.457 -4.31875 -0.103874 0
M  V30 2785 C 261.592 -5.21024 -1.03475 0
M  V30 2786 C 260.631 -6.11702 -0.220598 0
M  V30 2787 N 259.768 -6.93349 -1.10504 0
M  V30 2788 H 264.608 -2.87366 0.788978 0
M  V30 2789 H 262.145 -1.41535 0.400794 0
M  V30 2790 H 264.103 -3.90596 -1.46597 0
M  V30 2791 H 262.733 -2.77851 -1.64312 0
M  V30 2792 H 261.785 -3.76131 0.568285 0
M  V30 2793 H 263.097 -4.96003 0.527504 0
M  V30 2794 H 262.251 -5.83565 -1.65943 0
M  V30 2795 H 260.99 -4.57112 -1.69999 0
M  V30 2796 H 259.995 -5.48215 0.417187 0
M  V30 2797 H 261.22 -6.77668 0.440784 0
M  V30 2798 H 259.166 -6.3205 -1.75638 0
M  V30 2799 H 259.083 -7.54146 -0.529125 0
M  V30 2800 H 260.351 -7.60362 -1.71667 0
M  V30 2801 N 264.58 -0.43555 -1.51462 0
M  V30 2802 C 265.81 0.130053 -2.0619 0
M  V30 2803 C 266.218 1.37164 -1.30317 0
M  V30 2804 O 265.561 1.80225 -0.355598 0
M  V30 2805 C 265.623 0.519418 -3.55728 0
M  V30 2806 C 265.287 -0.615119 -4.52841 0
M  V30 2807 C 266.284 -1.48671 -4.9819 0
M  V30 2808 C 263.969 -0.795341 -4.95963 0
M  V30 2809 C 265.963 -2.52324 -5.8533 0
M  V30 2810 C 263.65 -1.83514 -5.82894 0
M  V30 2811 C 264.648 -2.69748 -6.27475 0
M  V30 2812 O 264.336 -3.71944 -7.1268 0
M  V30 2813 H 264.068 0.0121612 -0.675891 0
M  V30 2814 H 266.622 -0.6129 -1.96043 0
M  V30 2815 H 264.852 1.31505 -3.63653 0
M  V30 2816 H 266.541 1.01597 -3.92979 0
M  V30 2817 H 267.307 -1.359 -4.65571 0
M  V30 2818 H 263.186 -0.133713 -4.60806 0
M  V30 2819 H 266.73 -3.19665 -6.20048 0
M  V30 2820 H 262.627 -1.96306 -6.14926 0
M  V30 2821 H 263.395 -3.68503 -7.30854 0
M  V30 2822 N 266.058 1.56714 -0.166846 0
M  V30 2823 C 266.988 2.20754 0.760913 0
M  V30 2824 C 267.969 1.16178 1.24244 0
M  V30 2825 O 269.154 1.44592 1.29641 0
M  V30 2826 C 266.284 2.84478 1.99223 0
M  V30 2827 C 265.238 3.95053 1.64672 0
M  V30 2828 C 264.564 4.45805 2.95232 0
M  V30 2829 C 265.864 5.14865 0.878155 0
M  V30 2830 H 267.558 2.98537 0.22713 0
M  V30 2831 H 265.104 1.43596 0.107805 0
M  V30 2832 H 267.057 3.27951 2.64624 0
M  V30 2833 H 265.781 2.04056 2.55007 0
M  V30 2834 H 264.44 3.52228 1.01641 0
M  V30 2835 H 264.088 3.62181 3.49047 0
M  V30 2836 H 263.788 5.204 2.7287 0
M  V30 2837 H 265.312 4.91962 3.6167 0
M  V30 2838 H 266.726 5.55059 1.43466 0
M  V30 2839 H 265.123 5.95348 0.753738 0
M  V30 2840 H 266.193 4.84735 -0.126377 0
M  V30 2841 N 267.536 -0.106894 1.57237 0
M  V30 2842 C 268.764 -0.826389 1.8968 0
M  V30 2843 C 269.179 -1.72856 0.759353 0
M  V30 2844 O 268.536 -1.80503 -0.269263 0
M  V30 2845 C 268.587 -1.64967 3.21665 0
M  V30 2846 O 268.308 -0.783804 4.31031 0
M  V30 2847 C 269.809 -2.47326 3.67892 0
M  V30 2848 H 267.029 -0.236927 0.627779 0
M  V30 2849 H 269.573 -0.0876593 2.04312 0
M  V30 2850 H 267.728 -2.34103 3.08666 0
M  V30 2851 H 268.142 -1.35284 5.06753 0
M  V30 2852 H 269.616 -3.00604 4.6297 0
M  V30 2853 H 270.093 -3.25247 2.95146 0
M  V30 2854 H 270.699 -1.83411 3.83719 0
M  V30 2855 N 269.014 -1.53014 -0.377408 0
M  V30 2856 C 270.291 -1.59215 -1.13622 0
M  V30 2857 C 270.671 -0.392407 -2.07421 0
M  V30 2858 O 270.019 0.618342 -2.19975 0
M  V30 2859 C 270.229 -2.93669 -1.88573 0
M  V30 2860 C 271.577 -3.47822 -2.43526 0
M  V30 2861 O 272.601 -2.9562 -1.98715 0
M  V30 2862 O 271.46 -4.39055 -3.25412 0
M  V30 2863 H 268.554 -0.642625 -0.52054 0
M  V30 2864 H 271.1 -1.65353 -0.381625 0
M  V30 2865 H 269.872 -3.7243 -1.20048 0
M  V30 2866 H 269.495 -2.90968 -2.70968 0
M  V30 2867 N 270.492 0.636531 -1.44174 0
M  V30 2868 C 271.424 1.7618 -1.46606 0
M  V30 2869 C 272.437 1.58768 -0.360091 0
M  V30 2870 O 273.626 1.67181 -0.625518 0
M  V30 2871 C 270.726 3.13833 -1.27915 0
M  V30 2872 C 269.899 3.57753 -2.51658 0
M  V30 2873 C 268.958 4.74265 -2.27945 0
M  V30 2874 O 267.984 4.82852 -3.01401 0
M  V30 2875 N 269.186 5.65604 -1.30662 0
M  V30 2876 H 271.951 1.74567 -2.43612 0
M  V30 2877 H 269.512 0.820924 -1.39544 0
M  V30 2878 H 271.504 3.8949 -1.09907 0
M  V30 2879 H 270.074 3.10121 -0.39293 0
M  V30 2880 H 269.294 2.72362 -2.84978 0
M  V30 2881 H 270.582 3.83847 -3.33974 0
M  V30 2882 H 269.98 5.61354 -0.699844 0
M  V30 2883 H 268.537 6.40913 -1.18634 0
M  V30 2884 N 271.97 1.30982 0.876444 0
M  V30 2885 C 272.903 1.12414 1.98591 0
M  V30 2886 C 273.881 0.0294078 1.62573 0
M  V30 2887 O 275.065 0.184598 1.87594 0
M  V30 2888 C 272.192 0.716276 3.3104 0
M  V30 2889 C 271.238 1.81311 3.86042 0
M  V30 2890 S 272.071 3.41727 4.1229 0
M  V30 2891 C 273.227 3.02863 5.47745 0
M  V30 2892 H 273.46 2.06338 2.14037 0
M  V30 2893 H 270.993 1.15393 1.02586 0
M  V30 2894 H 272.951 0.487697 4.07593 0
M  V30 2895 H 271.612 -0.203749 3.13438 0
M  V30 2896 H 270.805 1.48021 4.81774 0
M  V30 2897 H 270.407 1.99641 3.16259 0
M  V30 2898 H 272.699 2.51353 6.29148 0
M  V30 2899 H 273.642 3.97533 5.8598 0
M  V30 2900 H 274.05 2.40487 5.10711 0
M  V30 2901 N 273.449 -1.08991 1.13837 0
M  V30 2902 C 274.677 -1.85011 0.926202 0
M  V30 2903 C 275.092 -1.8135 -0.525127 0
M  V30 2904 O 274.449 -1.21287 -1.36366 0
M  V30 2905 C 274.5 -3.32802 1.41155 0
M  V30 2906 O 274.221 -3.36444 2.80601 0
M  V30 2907 C 275.722 -4.25649 1.23847 0
M  V30 2908 H 272.942 -0.584249 0.32999 0
M  V30 2909 H 275.486 -1.37688 1.51202 0
M  V30 2910 H 273.641 -3.77536 0.868631 0
M  V30 2911 H 274.055 -4.28657 3.02248 0
M  V30 2912 H 275.529 -5.27485 1.62675 0
M  V30 2913 H 276.006 -4.38828 0.18065 0
M  V30 2914 H 276.612 -3.86735 1.76964 0
M  V30 2915 N 274.927 -0.932562 -1.27047 0
M  V30 2916 C 276.343 -0.633544 -1.46487 0
M  V30 2917 C 276.543 0.815746 -1.84249 0
M  V30 2918 O 275.599 1.59319 -1.95892 0
M  V30 2919 C 276.912 -1.58758 -2.55375 0
M  V30 2920 C 278.46 -1.59634 -2.69232 0
M  V30 2921 C 278.935 -2.53747 -3.81283 0
M  V30 2922 N 280.426 -2.51982 -3.88664 0
M  V30 2923 C 281.161 -3.21491 -4.74796 0
M  V30 2924 N 280.657 -4.00395 -5.65381 0
M  V30 2925 N 282.45 -3.10485 -4.68568 0
M  V30 2926 H 274.601 -1.86946 -1.00821 0
M  V30 2927 H 276.864 -0.802897 -0.504044 0
M  V30 2928 H 276.57 -2.62172 -2.34432 0
M  V30 2929 H 276.444 -1.33301 -3.52861 0
M  V30 2930 H 278.831 -0.569488 -2.89553 0
M  V30 2931 H 278.912 -1.89142 -1.72218 0
M  V30 2932 H 278.556 -3.56545 -3.61715 0
M  V30 2933 H 278.486 -2.21532 -4.77735 0
M  V30 2934 H 280.977 -1.94681 -3.23895 0
M  V30 2935 H 281.29 -4.50406 -6.27976 0
M  V30 2936 H 279.635 -4.04498 -5.65161 0
M  V30 2937 H 282.826 -2.48331 -3.96799 0
M  V30 2938 H 282.999 -3.64925 -5.35475 0
M  V30 2939 N 276.405 1.4127 -0.698611 0
M  V30 2940 C 277.816 1.84187 -0.305289 0
M  V30 2941 C 278.167 1.58449 1.15708 0
M  V30 2942 O 277.292 1.05651 1.88856 0
M  V30 2943 C 277.887 3.3435 -0.547314 0
M  V30 2944 C 276.446 3.75826 -0.207878 0
M  V30 2945 C 275.593 2.64647 -0.828099 0
M  V30 2946 H 278.544 1.30778 -0.89904 0
M  V30 2947 H 278.565 3.8001 0.192998 0
M  V30 2948 H 278.077 3.53051 -1.61172 0
M  V30 2949 H 276.178 3.62725 0.852143 0
M  V30 2950 H 276.291 4.74462 -0.665021 0
M  V30 2951 H 274.655 2.53395 -0.257458 0
M  V30 2952 H 275.438 2.86165 -1.89643 0
M  V30 2953 N 277.883 0.443576 1.51229 0
M  V30 2954 C 279.16 -0.181038 1.9476 0
M  V30 2955 C 279.54 -1.59523 1.38259 0
M  V30 2956 O 278.888 -2.2122 0.572198 0
M  V30 2957 C 279.098 -0.152422 3.48667 0
M  V30 2958 C 280.446 -0.354923 4.23114 0
M  V30 2959 O 281.47 -0.230257 3.55455 0
M  V30 2960 O 280.329 -0.603674 5.43156 0
M  V30 2961 H 277.423 -0.1266 0.817252 0
M  V30 2962 H 279.969 0.502004 1.62105 0
M  V30 2963 H 278.741 0.836022 3.82265 0
M  V30 2964 H 278.364 -0.878107 3.87782 0
M  V30 2965 N 279.361 -1.56624 0.175154 0
M  V30 2966 C 280.609 -1.96609 -0.467885 0
M  V30 2967 C 280.93 -1.06238 -1.63519 0
M  V30 2968 O 280.2 -0.129523 -1.95471 0
M  V30 2969 H 278.78 -0.726008 -0.175845 0
M  V30 2970 H 281.442 -1.93195 0.257234 0
M  V30 2971 H 280.538 -3.00989 -0.825342 0
M  V30 2972 N 280.839 0.0985539 -1.57292 0
M  V30 2973 C 282.064 0.820196 -1.90493 0
M  V30 2974 C 282.489 1.71658 -0.769094 0
M  V30 2975 O 281.847 1.79133 0.279495 0
M  V30 2976 C 281.895 1.61242 -3.22542 0
M  V30 2977 O 280.999 2.72108 -3.09888 0
M  V30 2978 H 280.34 0.225547 -0.62452 0
M  V30 2979 H 282.87 0.0748159 -2.04463 0
M  V30 2980 H 282.88 1.99737 -3.55766 0
M  V30 2981 H 281.555 0.954535 -4.04798 0
M  V30 2982 H 280.132 2.36667 -2.88172 0
M  V30 2983 N 282.317 1.53212 0.369288 0
M  V30 2984 C 283.25 1.74166 1.4745 0
M  V30 2985 C 284.228 0.589923 1.51521 0
M  V30 2986 O 285.412 0.822078 1.69629 0
M  V30 2987 C 282.539 1.81711 2.8583 0
M  V30 2988 C 281.585 3.03649 2.99499 0
M  V30 2989 S 282.418 4.63242 2.6864 0
M  V30 2990 C 283.574 4.7363 4.09177 0
M  V30 2991 H 283.807 2.67636 1.29454 0
M  V30 2992 H 281.34 1.43754 0.563396 0
M  V30 2993 H 283.298 1.86743 3.65564 0
M  V30 2994 H 281.959 0.89299 3.01139 0
M  V30 2995 H 281.152 3.05526 4.00836 0
M  V30 2996 H 280.754 2.9671 2.27683 0
M  V30 2997 H 283.046 4.53456 5.03372 0
M  V30 2998 H 283.989 5.75682 4.12306 0
M  V30 2999 H 284.397 4.02295 3.96004 0
M  V30 3000 N 283.795 -0.628877 1.44509 0
M  V30 3001 C 285.023 -1.41554 1.50897 0
M  V30 3002 C 285.438 -1.8832 0.134564 0
M  V30 3003 O 284.795 -1.60969 -0.859965 0
M  V30 3004 C 284.846 -2.63435 2.47556 0
M  V30 3005 O 284.567 -2.18619 3.79654 0
M  V30 3006 C 286.068 -3.56537 2.63431 0
M  V30 3007 H 283.288 -0.434044 0.511709 0
M  V30 3008 H 285.832 -0.768895 1.89495 0
M  V30 3009 H 283.987 -3.24187 2.12089 0
M  V30 3010 H 284.401 -2.97652 4.31861 0
M  V30 3011 H 285.875 -4.38657 3.35088 0
M  V30 3012 H 286.352 -4.05493 1.68738 0
M  V30 3013 H 286.958 -3.01653 2.9981 0
M  V30 3014 N 285.273 -1.31445 -0.869486 0
M  V30 3015 C 286.52 -1.21158 -1.62256 0
M  V30 3016 C 286.848 0.230155 -1.93133 0
M  V30 3017 O 286.103 1.17906 -1.56194 0
M  V30 3018 C 286.402 -2.00145 -2.96102 0
M  V30 3019 C 286.068 -3.4964 -2.84715 0
M  V30 3020 C 284.73 -3.90403 -2.81317 0
M  V30 3021 C 287.082 -4.44769 -2.71716 0
M  V30 3022 C 284.41 -5.24561 -2.62778 0
M  V30 3023 C 286.762 -5.79054 -2.54714 0
M  V30 3024 C 285.426 -6.19037 -2.49699 0
M  V30 3025 H 284.696 -0.443348 -0.593737 0
M  V30 3026 H 287.343 -1.62715 -1.00976 0
M  V30 3027 H 285.648 -1.5127 -3.6142 0
M  V30 3028 H 287.345 -1.89566 -3.53363 0
M  V30 3029 H 283.935 -3.17256 -2.88178 0
M  V30 3030 H 288.119 -4.14208 -2.73397 0
M  V30 3031 H 283.375 -5.54613 -2.57321 0
M  V30 3032 H 287.549 -6.52393 -2.43632 0
M  V30 3033 H 285.176 -7.22935 -2.35093 0
M  V30 3034 N 286.751 1.08385 -1.14413 0
M  V30 3035 C 287.714 2.13486 -0.834048 0
M  V30 3036 C 288.714 1.59988 0.161418 0
M  V30 3037 O 289.904 1.74071 -0.0669575 0
M  V30 3038 C 287.036 3.4003 -0.243354 0
M  V30 3039 H 288.229 2.42425 -1.7655 0
M  V30 3040 H 285.782 1.24101 -0.950189 0
M  V30 3041 H 286.517 3.16726 0.696807 0
M  V30 3042 H 286.302 3.80157 -0.960367 0
M  V30 3043 H 287.792 4.17577 -0.0436242 0
M  V30 3044 N 288.23 0.939286 1.26551 0
M  V30 3045 C 289.14 0.453432 2.30176 0
M  V30 3046 C 290.156 -0.471649 1.67486 0
M  V30 3047 O 291.332 -0.35164 1.98306 0
M  V30 3048 C 288.397 -0.275326 3.45605 0
M  V30 3049 C 287.458 0.686084 4.23782 0
M  V30 3050 C 286.691 -0.00798994 5.33699 0
M  V30 3051 O 286.914 -1.22528 5.57085 0
M  V30 3052 O 285.848 0.669746 5.98162 0
M  V30 3053 H 289.674 1.31416 2.73795 0
M  V30 3054 H 287.259 0.705095 1.31715 0
M  V30 3055 H 289.141 -0.685911 4.1578 0
M  V30 3056 H 287.816 -1.11147 3.0402 0
M  V30 3057 H 286.723 1.14658 3.56096 0
M  V30 3058 H 288.056 1.48979 4.69112 0
M  V30 3059 N 289.708 -1.40897 0.706093 0
M  V30 3060 C 290.671 -2.29131 0.0562841 0
M  V30 3061 C 291.671 -1.44901 -0.697166 0
M  V30 3062 O 292.861 -1.65926 -0.530484 0
M  V30 3063 C 289.993 -3.27957 -0.93043 0
M  V30 3064 H 291.186 -2.88091 0.833284 0
M  V30 3065 H 288.739 -1.4906 0.470192 0
M  V30 3066 H 289.474 -2.73997 -1.73482 0
M  V30 3067 H 289.259 -3.90124 -0.393166 0
M  V30 3068 H 290.749 -3.94049 -1.38256 0
M  V30 3069 N 291.186 -0.45159 -1.50991 0
M  V30 3070 C 292.133 0.352625 -2.2809 0
M  V30 3071 C 293.103 1.0044 -1.32291 0
M  V30 3072 O 294.288 1.02058 -1.6121 0
M  V30 3073 C 291.428 1.43983 -3.13629 0
M  V30 3074 C 290.541 0.804772 -4.24438 0
M  V30 3075 C 289.676 1.86822 -4.97263 0
M  V30 3076 C 288.715 1.21236 -5.99973 0
M  V30 3077 N 287.852 2.2178 -6.66152 0
M  V30 3078 H 292.692 -0.311186 -2.96371 0
M  V30 3079 H 290.229 -0.165308 -1.46168 0
M  V30 3080 H 292.187 2.08161 -3.61559 0
M  V30 3081 H 290.817 2.07307 -2.47434 0
M  V30 3082 H 289.869 0.0509129 -3.80366 0
M  V30 3083 H 291.181 0.286076 -4.97979 0
M  V30 3084 H 290.335 2.58628 -5.48813 0
M  V30 3085 H 289.074 2.42068 -4.23385 0
M  V30 3086 H 288.079 0.479828 -5.47702 0
M  V30 3087 H 289.304 0.667051 -6.75816 0
M  V30 3088 H 287.25 2.76079 -5.95077 0
M  V30 3089 H 287.167 1.74841 -7.35504 0
M  V30 3090 H 288.435 2.93026 -7.22327 0
M  V30 3091 N 292.664 1.56529 -0.183458 0
M  V30 3092 C 293.574 2.22144 0.754272 0
M  V30 3093 C 294.59 1.21684 1.24374 0
M  V30 3094 O 295.766 1.54385 1.29333 0
M  V30 3095 C 292.831 2.85884 1.96141 0
M  V30 3096 C 291.892 4.01579 1.51765 0
M  V30 3097 C 291.125 4.6227 2.66725 0
M  V30 3098 O 291.348 4.21865 3.83909 0
M  V30 3099 O 290.282 5.51936 2.40104 0
M  V30 3100 H 294.108 3.02861 0.225527 0
M  V30 3101 H 291.693 1.49331 0.0453032 0
M  V30 3102 H 293.575 3.26253 2.66715 0
M  V30 3103 H 292.25 2.08154 2.47899 0
M  V30 3104 H 291.157 3.65856 0.781049 0
M  V30 3105 H 292.49 4.80938 1.04686 0
M  V30 3106 N 294.142 -0.090211 1.57342 0
M  V30 3107 C 295.105 -1.09335 2.01441 0
M  V30 3108 C 296.105 -1.32666 0.908641 0
M  V30 3109 O 297.295 -1.28697 1.174 0
M  V30 3110 C 294.427 -2.44136 2.3793 0
M  V30 3111 H 295.62 -0.713662 2.91285 0
M  V30 3112 H 293.173 -0.335404 1.52659 0
M  V30 3113 H 293.908 -2.86972 1.51055 0
M  V30 3114 H 293.693 -2.28548 3.18603 0
M  V30 3115 H 295.183 -3.16277 2.72688 0
M  V30 3116 N 295.62 -1.53406 -0.361157 0
M  V30 3117 C 296.55 -1.83136 -1.44857 0
M  V30 3118 C 297.531 -0.685174 -1.5569 0
M  V30 3119 O 298.716 -0.93544 -1.70186 0
M  V30 3120 C 295.846 -2.02522 -2.82138 0
M  V30 3121 C 294.8 -3.18302 -2.86126 0
M  V30 3122 C 294.126 -3.22989 -4.26125 0
M  V30 3123 C 295.426 -4.56796 -2.53248 0
M  V30 3124 H 297.12 -2.74201 -1.20226 0
M  V30 3125 H 294.666 -1.31938 -0.576922 0
M  V30 3126 H 296.619 -2.21904 -3.58241 0
M  V30 3127 H 295.343 -1.08172 -3.08166 0
M  V30 3128 H 294.002 -2.98747 -2.12475 0
M  V30 3129 H 293.65 -2.26267 -4.49235 0
M  V30 3130 H 293.35 -4.00781 -4.29708 0
M  V30 3131 H 294.874 -3.44559 -5.04094 0
M  V30 3132 H 296.288 -4.7631 -3.19064 0
M  V30 3133 H 294.685 -5.36862 -2.68141 0
M  V30 3134 H 295.755 -4.61606 -1.48484 0
M  V30 3135 N 297.098 0.621204 -1.44841 0
M  V30 3136 C 298.328 1.40548 -1.51426 0
M  V30 3137 C 298.736 1.88673 -0.141083 0
M  V30 3138 O 298.079 1.62053 0.865128 0
M  V30 3139 C 298.141 2.65325 -2.42576 0
M  V30 3140 C 297.805 2.3893 -3.89566 0
M  V30 3141 C 298.802 2.00138 -4.79834 0
M  V30 3142 C 296.487 2.52263 -4.3436 0
M  V30 3143 C 298.481 1.75021 -6.129 0
M  V30 3144 C 296.168 2.2676 -5.67471 0
M  V30 3145 C 297.166 1.88199 -6.56559 0
M  V30 3146 O 296.854 1.62986 -7.87204 0
M  V30 3147 H 296.586 0.437122 -0.515655 0
M  V30 3148 H 299.14 0.765987 -1.90583 0
M  V30 3149 H 297.37 3.31947 -1.98364 0
M  V30 3150 H 299.059 3.27347 -2.39998 0
M  V30 3151 H 299.825 1.89386 -4.46495 0
M  V30 3152 H 295.704 2.81246 -3.65269 0
M  V30 3153 H 299.248 1.44848 -6.82396 0
M  V30 3154 H 295.145 2.37125 -6.00368 0
M  V30 3155 H 295.913 1.7715 -7.991 0
M  V30 3156 N 298.576 1.31904 0.862503 0
M  V30 3157 C 299.853 1.12644 1.59908 0
M  V30 3158 C 300.233 -0.316104 2.0872 0
M  V30 3159 O 299.581 -1.31145 1.87118 0
M  V30 3160 C 299.791 2.1472 2.7513 0
M  V30 3161 C 301.139 2.47637 3.44907 0
M  V30 3162 O 302.163 2.13205 2.85346 0
M  V30 3163 O 301.022 3.06632 4.52371 0
M  V30 3164 H 298.116 0.43416 0.703871 0
M  V30 3165 H 300.662 1.43408 0.907314 0
M  V30 3166 H 299.434 3.1172 2.3653 0
M  V30 3167 H 299.057 1.84905 3.51989 0
M  V30 3168 N 300.054 -1.07777 1.14986 0
M  V30 3169 C 301.284 -1.83752 0.944402 0
M  V30 3170 C 301.692 -1.8218 -0.51058 0
M  V30 3171 O 301.035 -1.22852 -1.36576 0
M  V30 3172 C 301.097 -3.32128 1.37592 0
M  V30 3173 C 300.761 -3.57425 2.84775 0
M  V30 3174 C 301.758 -3.5173 3.8286 0
M  V30 3175 C 299.443 -3.8523 3.2234 0
M  V30 3176 C 301.437 -3.73482 5.16517 0
M  V30 3177 C 299.124 -4.06634 4.56171 0
M  V30 3178 C 300.122 -4.00754 5.53069 0
M  V30 3179 O 299.81 -4.2159 6.84483 0
M  V30 3180 H 299.542 -0.58673 0.335744 0
M  V30 3181 H 302.096 -1.36982 1.53052 0
M  V30 3182 H 300.326 -3.79686 0.733165 0
M  V30 3183 H 302.015 -3.89555 1.14024 0
M  V30 3184 H 302.781 -3.30256 3.55184 0
M  V30 3185 H 298.66 -3.88923 2.47508 0
M  V30 3186 H 302.204 -3.68808 5.92137 0
M  V30 3187 H 298.101 -4.27593 4.83564 0
M  V30 3188 H 298.869 -4.38961 6.90837 0
M  V30 3189 N 301.532 -0.945985 -1.26051 0
M  V30 3190 C 302.462 -0.477172 -2.28572 0
M  V30 3191 C 303.443 0.472032 -1.63419 0
M  V30 3192 O 304.628 0.372853 -1.90587 0
M  V30 3193 C 301.758 0.253975 -3.4637 0
M  V30 3194 C 300.712 -0.609135 -4.23643 0
M  V30 3195 C 300.038 0.252252 -5.34105 0
M  V30 3196 C 301.338 -1.8829 -4.8718 0
M  V30 3197 H 303.032 -1.33402 -2.68038 0
M  V30 3198 H 300.578 -0.642904 -1.28852 0
M  V30 3199 H 302.531 0.593016 -4.17207 0
M  V30 3200 H 301.255 1.145 -3.05871 0
M  V30 3201 H 299.914 -0.931138 -3.54578 0
M  V30 3202 H 299.562 1.14278 -4.89846 0
M  V30 3203 H 299.262 -0.32188 -5.86718 0
M  V30 3204 H 300.786 0.586454 -6.07777 0
M  V30 3205 H 302.2 -1.61081 -5.50205 0
M  V30 3206 H 300.597 -2.40199 -5.49931 0
M  V30 3207 H 301.667 -2.59134 -4.09851 0
M  V30 3208 N 303.011 1.40521 -0.713556 0
M  V30 3209 C 304.26 2.00155 -0.249192 0
M  V30 3210 C 304.573 1.57224 1.16362 0
M  V30 3211 O 305.779 2.09542 1.72639 0
M  V30 3212 C 304.235 3.5773 -0.3946 0
M  V30 3213 C 303.843 4.09635 -1.81392 0
M  V30 3214 C 305.587 4.24499 0.00907364 0
M  V30 3215 C 303.494 5.59707 -1.91003 0
M  V30 3216 H 302.424 0.74868 -0.0894114 0
M  V30 3217 H 305.075 1.60784 -0.884352 0
M  V30 3218 H 303.457 3.94792 0.30911 0
M  V30 3219 H 304.631 3.83955 -2.54785 0
M  V30 3220 H 302.946 3.55456 -2.16888 0
M  V30 3221 H 305.543 5.34683 -0.0420404 0
M  V30 3222 H 305.886 4.02824 1.05065 0
M  V30 3223 H 306.419 3.92536 -0.645007 0
M  V30 3224 H 303.158 5.86234 -2.93275 0
M  V30 3225 H 302.678 5.87258 -1.22019 0
M  V30 3226 H 304.357 6.24776 -1.6812 0
M  V30 3227 N 304.489 0.459591 1.5075 0
M  V30 3228 C 305.9 0.00171547 1.867 0
M  V30 3229 C 306.251 -1.39934 1.37525 0
M  V30 3230 O 305.376 -2.03523 0.735349 0
M  V30 3231 C 305.971 -0.00366298 3.388 0
M  V30 3232 C 304.53 -0.406026 3.74204 0
M  V30 3233 C 303.677 0.38673 2.7459 0
M  V30 3234 H 306.628 0.674413 1.43657 0
M  V30 3235 H 306.649 -0.808371 3.71814 0
M  V30 3236 H 306.161 1.01617 3.74561 0
M  V30 3237 H 304.262 -1.43063 3.4404 0
M  V30 3238 H 304.375 -0.115362 4.78961 0
M  V30 3239 H 302.739 -0.158019 2.54209 0
M  V30 3240 H 303.522 1.40585 3.13194 0
M  V30 3241 N 305.967 -1.56429 0.191757 0
M  V30 3242 C 307.216 -1.9666 -0.448088 0
M  V30 3243 C 307.529 -1.08136 -1.62991 0
M  V30 3244 O 308.735 -1.38135 -2.33733 0
M  V30 3245 C 307.191 -3.49753 -0.848585 0
M  V30 3246 C 306.799 -4.46935 0.308764 0
M  V30 3247 C 308.543 -3.9876 -1.4557 0
M  V30 3248 C 306.45 -5.91293 -0.112506 0
M  V30 3249 H 305.38 -0.734312 -0.171179 0
M  V30 3250 H 308.031 -1.81301 0.283242 0
M  V30 3251 H 306.413 -3.60604 -1.63649 0
M  V30 3252 H 307.587 -4.47813 1.08627 0
M  V30 3253 H 305.902 -4.08102 0.827158 0
M  V30 3254 H 308.499 -5.04086 -1.78328 0
M  V30 3255 H 308.842 -3.42875 -2.36099 0
M  V30 3256 H 309.375 -3.9101 -0.731836 0
M  V30 3257 H 306.114 -6.51097 0.758514 0
M  V30 3258 H 305.634 -5.93676 -0.854941 0
M  V30 3259 H 307.313 -6.44663 -0.549448 0
M  V30 3260 N 307.445 0.0818655 -1.57387 0
M  V30 3261 C 308.694 0.781681 -1.85937 0
M  V30 3262 C 309.007 1.79246 -0.782957 0
M  V30 3263 O 310.213 2.54112 -0.955987 0
M  V30 3264 C 308.669 1.44109 -3.29789 0
M  V30 3265 C 308.277 0.469396 -4.45534 0
M  V30 3266 C 310.021 2.12386 -3.67549 0
M  V30 3267 C 307.928 1.13415 -5.80423 0
M  V30 3268 H 306.858 0.295682 -0.693605 0
M  V30 3269 H 309.509 0.0348051 -1.83467 0
M  V30 3270 H 307.891 2.23588 -3.2684 0
M  V30 3271 H 309.065 -0.294856 -4.59856 0
M  V30 3272 H 307.38 -0.108383 -4.16259 0
M  V30 3273 H 309.977 2.62878 -4.65617 0
M  V30 3274 H 310.32 2.91877 -2.96839 0
M  V30 3275 H 310.853 1.39751 -3.72444 0
M  V30 3276 H 307.592 0.379771 -6.54399 0
M  V30 3277 H 307.112 1.8695 -5.69921 0
M  V30 3278 H 308.791 1.65686 -6.25426 0
M  V30 3279 N 308.923 1.53595 0.353017 0
M  V30 3280 C 309.833 1.83897 1.45667 0
M  V30 3281 C 310.849 0.728334 1.58023 0
M  V30 3282 O 312.025 1.01968 1.73679 0
M  V30 3283 C 309.09 2.03383 2.80778 0
M  V30 3284 C 308.151 3.27262 2.77845 0
M  V30 3285 C 307.384 3.45809 4.06512 0
M  V30 3286 O 307.607 2.68387 5.03314 0
M  V30 3287 O 306.541 4.39207 4.11559 0
M  V30 3288 H 310.367 2.77686 1.2298 0
M  V30 3289 H 307.952 1.39132 0.544308 0
M  V30 3290 H 309.834 2.17698 3.60812 0
M  V30 3291 H 308.509 1.12783 3.03417 0
M  V30 3292 H 307.416 3.18359 1.96465 0
M  V30 3293 H 308.749 4.17824 2.60161 0
M  V30 3294 N 310.401 -0.613514 1.45168 0
M  V30 3295 C 311.333 -1.73825 1.4939 0
M  V30 3296 C 312.346 -1.58175 0.385304 0
M  V30 3297 O 313.535 -1.66165 0.652036 0
M  V30 3298 C 310.635 -3.11758 1.32891 0
M  V30 3299 C 309.808 -3.53704 2.57317 0
M  V30 3300 C 308.867 -4.70579 2.35462 0
M  V30 3301 O 307.893 -4.77996 3.09044 0
M  V30 3302 N 309.095 -5.63454 1.39644 0
M  V30 3303 H 311.86 -1.70669 2.46358 0
M  V30 3304 H 309.421 -0.79862 1.40832 0
M  V30 3305 H 311.413 -3.87692 1.1609 0
M  V30 3306 H 309.983 -3.09456 0.442218 0
M  V30 3307 H 309.203 -2.67794 2.89275 0
M  V30 3308 H 310.491 -3.78486 3.40038 0
M  V30 3309 H 309.889 -5.6017 0.789062 0
M  V30 3310 H 308.446 -6.38944 1.28816 0
M  V30 3311 N 311.879 -1.3236 -0.855495 0
M  V30 3312 C 313.295 -1.11332 -1.14356 0
M  V30 3313 C 313.495 0.106751 -2.01217 0
M  V30 3314 O 312.551 0.791891 -2.39761 0
M  V30 3315 C 313.864 -2.39237 -1.82171 0
M  V30 3316 C 315.412 -2.44986 -1.9481 0
M  V30 3317 C 315.887 -3.7281 -2.66039 0
M  V30 3318 N 317.378 -3.73787 -2.73565 0
M  V30 3319 C 318.113 -4.69394 -3.29327 0
M  V30 3320 N 317.609 -5.75367 -3.85907 0
M  V30 3321 N 319.402 -4.56893 -3.27423 0
M  V30 3322 H 311.553 -2.10586 -0.277027 0
M  V30 3323 H 313.816 -0.929701 -0.185364 0
M  V30 3324 H 313.522 -3.28431 -1.25802 0
M  V30 3325 H 313.396 -2.50134 -2.82335 0
M  V30 3326 H 315.783 -1.56252 -2.50338 0
M  V30 3327 H 315.864 -2.38043 -0.936448 0
M  V30 3328 H 315.508 -4.61918 -2.11174 0
M  V30 3329 H 315.438 -3.77024 -3.67642 0
M  V30 3330 H 317.929 -2.97189 -2.33424 0
M  V30 3331 H 318.242 -6.44378 -4.26611 0
M  V30 3332 H 316.587 -5.79123 -3.84242 0
M  V30 3333 H 319.778 -3.73269 -2.82467 0
M  V30 3334 H 319.951 -5.31577 -3.7058 0
M  V30 3335 N 313.357 1.07166 -1.15556 0
M  V30 3336 C 314.773 1.31899 -0.898603 0
M  V30 3337 C 314.973 1.96333 0.453383 0
M  V30 3338 O 314.029 2.22438 1.19489 0
M  V30 3339 C 315.342 2.20826 -2.04099 0
M  V30 3340 C 316.89 2.34269 -2.07574 0
M  V30 3341 C 317.365 3.26546 -3.21141 0
M  V30 3342 N 318.856 3.34127 -3.20801 0
M  V30 3343 C 319.591 4.05595 -4.05315 0
M  V30 3344 N 319.087 4.79661 -4.99897 0
M  V30 3345 N 320.88 4.01555 -3.93332 0
M  V30 3346 H 313.031 0.637302 -2.02613 0
M  V30 3347 H 315.294 0.343468 -0.883591 0
M  V30 3348 H 315 1.80744 -3.01703 0
M  V30 3349 H 314.874 3.21364 -1.97496 0
M  V30 3350 H 317.261 2.73603 -1.10568 0
M  V30 3351 H 317.342 1.33429 -2.18244 0
M  V30 3352 H 316.986 2.87931 -4.184 0
M  V30 3353 H 316.916 4.27345 -3.07708 0
M  V30 3354 H 319.407 2.81336 -2.52306 0
M  V30 3355 H 319.72 5.31694 -5.60822 0
M  V30 3356 H 318.065 4.78671 -5.03884 0
M  V30 3357 H 321.256 3.42806 -3.18751 0
M  V30 3358 H 321.429 4.56987 -4.5942 0
M  V30 3359 N 314.835 0.952656 1.25548 0
M  V30 3360 C 315.767 0.428609 2.25157 0
M  V30 3361 C 316.78 -0.454428 1.56329 0
M  V30 3362 O 317.969 -0.263023 1.76552 0
M  V30 3363 C 315.069 -0.401972 3.36508 0
M  V30 3364 C 314.242 0.467601 4.34893 0
M  V30 3365 C 313.301 -0.30445 5.25319 0
M  V30 3366 O 312.327 0.296473 5.68427 0
M  V30 3367 N 313.529 -1.59805 5.5807 0
M  V30 3368 H 316.294 1.28497 2.70756 0
M  V30 3369 H 313.855 0.822798 1.39433 0
M  V30 3370 H 315.847 -0.926134 3.9396 0
M  V30 3371 H 314.417 -1.15918 2.90313 0
M  V30 3372 H 313.637 1.17288 3.76347 0
M  V30 3373 H 314.925 1.06119 4.97611 0
M  V30 3374 H 314.323 -2.10823 5.24948 0
M  V30 3375 H 312.88 -2.06822 6.18116 0
M  V30 3376 N 316.313 -1.40141 0.720998 0
M  V30 3377 C 317.26 -2.30688 0.071919 0
M  V30 3378 C 318.23 -1.48476 -0.744584 0
M  V30 3379 O 319.415 -1.77201 -0.707423 0
M  V30 3380 C 316.555 -3.34724 -0.839855 0
M  V30 3381 C 315.668 -4.31998 -0.0122438 0
M  V30 3382 C 314.803 -5.23102 -0.923995 0
M  V30 3383 C 313.842 -6.12033 -0.0907969 0
M  V30 3384 N 312.979 -6.95537 -0.957718 0
M  V30 3385 H 317.819 -2.85628 0.849755 0
M  V30 3386 H 315.356 -1.40653 0.430726 0
M  V30 3387 H 317.314 -3.93618 -1.38279 0
M  V30 3388 H 315.944 -2.81274 -1.58381 0
M  V30 3389 H 314.996 -3.74841 0.64794 0
M  V30 3390 H 316.308 -4.94772 0.632595 0
M  V30 3391 H 315.462 -5.86953 -1.53527 0
M  V30 3392 H 314.201 -4.60615 -1.60264 0
M  V30 3393 H 313.206 -5.47207 0.533377 0
M  V30 3394 H 314.431 -6.76581 0.584428 0
M  V30 3395 H 312.377 -6.35633 -1.62192 0
M  V30 3396 H 312.294 -7.55099 -0.36904 0
M  V30 3397 H 313.562 -7.63832 -1.555 0
M  V30 3398 N 317.792 -0.46758 -1.50504 0
M  V30 3399 C 319.203 -0.0116166 -1.86696 0
M  V30 3400 C 319.554 1.39202 -1.38265 0
M  V30 3401 O 318.679 2.0313 -0.746132 0
M  V30 3402 C 319.274 -0.0143044 -3.38797 0
M  V30 3403 C 317.833 0.386175 -3.74414 0
M  V30 3404 C 316.98 -0.401287 -2.74381 0
M  V30 3405 H 319.931 -0.682022 -1.43297 0
M  V30 3406 H 319.952 0.788641 -3.72237 0
M  V30 3407 H 319.464 -1.03602 -3.74016 0
M  V30 3408 H 317.565 1.41237 -3.44794 0
M  V30 3409 H 317.678 0.0899596 -4.79016 0
M  V30 3410 H 316.042 0.144536 -2.5429 0
M  V30 3411 H 316.825 -1.42244 -3.12444 0
M  V30 3412 N 319.27 1.56325 -0.20005 0
M  V30 3413 C 320.518 1.97329 0.436547 0
M  V30 3414 C 320.839 1.08826 1.61808 0
M  V30 3415 O 320.109 0.160604 1.95241 0
M  V30 3416 H 318.689 0.728714 0.164272 0
M  V30 3417 H 321.351 1.92761 -0.287937 0
M  V30 3418 H 320.447 3.02264 0.777353 0
M  V30 3419 N 320.748 -0.0735177 1.57428 0
M  V30 3420 C 321.976 -0.785969 1.9139 0
M  V30 3421 C 322.391 -1.71207 0.795847 0
M  V30 3422 O 321.748 -1.81033 -0.230915 0
M  V30 3423 C 321.799 -1.58107 3.25091 0
M  V30 3424 O 321.52 -0.6922 4.32597 0
M  V30 3425 C 323.021 -2.39467 3.73055 0
M  V30 3426 H 320.241 -0.223558 0.632663 0
M  V30 3427 H 322.785 -0.044302 2.04452 0
M  V30 3428 H 320.94 -2.27503 3.13562 0
M  V30 3429 H 321.354 -1.24504 5.09508 0
M  V30 3430 H 322.828 -2.90716 4.69242 0
M  V30 3431 H 323.305 -3.18913 3.01979 0
M  V30 3432 H 323.911 -1.7523 3.87523 0
M  V30 3433 N 322.226 -1.5378 -0.344866 0
M  V30 3434 C 323.503 -1.61589 -1.10219 0
M  V30 3435 C 323.883 -0.436316 -2.06542 0
M  V30 3436 O 323.231 0.571543 -2.21237 0
M  V30 3437 C 323.441 -2.97602 -1.82301 0
M  V30 3438 C 324.789 -3.5291 -2.36093 0
M  V30 3439 O 325.813 -2.99768 -1.924 0
M  V30 3440 O 324.672 -4.45859 -3.16026 0
M  V30 3441 H 321.766 -0.653522 -0.506792 0
M  V30 3442 H 324.312 -1.66126 -0.346465 0
M  V30 3443 H 323.084 -3.74893 -1.12121 0
M  V30 3444 H 322.707 -2.9665 -2.64735 0
M  V30 3445 N 323.704 0.605807 -1.45491 0
M  V30 3446 C 324.667 1.69836 -1.5391 0
M  V30 3447 C 325.667 1.55261 -0.418424 0
M  V30 3448 O 326.857 1.60296 -0.681965 0
M  V30 3449 C 323.989 3.09117 -1.43734 0
M  V30 3450 H 325.182 1.63738 -2.51257 0
M  V30 3451 H 322.735 0.821689 -1.32959 0
M  V30 3452 H 323.47 3.20791 -0.475788 0
M  V30 3453 H 323.255 3.21104 -2.25021 0
M  V30 3454 H 324.745 3.88696 -1.52661 0
M  V30 3455 N 325.182 1.32811 0.848464 0
M  V30 3456 C 326.431 1.23075 1.59798 0
M  V30 3457 C 326.744 -0.204419 1.94529 0
M  V30 3458 O 327.95 -0.423701 2.68173 0
M  V30 3459 C 326.406 2.15594 2.88179 0
M  V30 3460 C 326.014 3.64228 2.60849 0
M  V30 3461 C 327.758 2.14709 3.66197 0
M  V30 3462 C 325.665 4.48689 3.85269 0
M  V30 3463 H 324.595 0.457091 0.599653 0
M  V30 3464 H 327.246 1.57813 0.936342 0
M  V30 3465 H 325.628 1.73778 3.55833 0
M  V30 3466 H 326.802 4.14424 2.01467 0
M  V30 3467 H 325.117 3.67306 1.96151 0
M  V30 3468 H 327.714 2.75046 4.58534 0
M  V30 3469 H 328.057 1.13966 4.00397 0
M  V30 3470 H 328.59 2.54837 3.05455 0
M  V30 3471 H 325.329 5.5027 3.56207 0
M  V30 3472 H 324.849 4.03241 4.44024 0
M  V30 3473 H 326.528 4.62006 4.52946 0
M  V30 3474 N 326.66 -1.06551 1.16123 0
M  V30 3475 C 327.885 -1.83544 0.965735 0
M  V30 3476 C 328.31 -1.81843 -0.481102 0
M  V30 3477 O 327.668 -1.21732 -1.34354 0
M  V30 3478 C 327.716 -3.28169 1.49457 0
M  V30 3479 O 326.82 -4.0643 0.699157 0
M  V30 3480 H 326.161 -0.568026 0.343864 0
M  V30 3481 H 328.691 -1.34362 1.54299 0
M  V30 3482 H 328.701 -3.78992 1.51092 0
M  V30 3483 H 327.376 -3.28722 2.54784 0
M  V30 3484 H 325.953 -3.65216 0.7531 0
M  V30 3485 N 328.138 -0.959301 -1.25041 0
M  V30 3486 C 329.387 -0.612254 -1.92183 0
M  V30 3487 C 329.7 0.855347 -1.75907 0
M  V30 3488 O 330.906 1.31256 -2.37664 0
M  V30 3489 C 329.362 -1.04435 -3.44414 0
M  V30 3490 C 328.97 -2.53482 -3.69393 0
M  V30 3491 C 330.714 -0.770055 -4.17457 0
M  V30 3492 C 328.621 -2.90468 -5.15153 0
M  V30 3493 H 327.551 -0.225279 -0.719559 0
M  V30 3494 H 330.202 -1.16438 -1.41825 0
M  V30 3495 H 328.584 -0.4206 -3.9376 0
M  V30 3496 H 329.758 -3.20916 -3.30681 0
M  V30 3497 H 328.073 -2.78432 -3.0962 0
M  V30 3498 H 330.67 -1.02249 -5.24832 0
M  V30 3499 H 331.013 0.293611 -4.15263 0
M  V30 3500 H 331.546 -1.35437 -3.74034 0
M  V30 3501 H 328.285 -3.95871 -5.22462 0
M  V30 3502 H 327.805 -2.27711 -5.54894 0
M  V30 3503 H 329.484 -2.79914 -5.83315 0
M  V30 3504 N 329.616 1.39756 -0.72842 0
M  V30 3505 C 330.862 2.00942 -0.273892 0
M  V30 3506 C 331.195 1.57656 1.13394 0
M  V30 3507 O 330.47 0.802434 1.77176 0
M  V30 3508 C 330.753 3.58211 -0.368346 0
M  V30 3509 C 330.606 4.11534 -1.81548 0
M  V30 3510 C 331.925 4.39372 0.253054 0
M  V30 3511 H 329.044 0.730047 -0.100996 0
M  V30 3512 H 331.686 1.66056 -0.923337 0
M  V30 3513 H 329.836 3.88061 0.184588 0
M  V30 3514 H 331.508 3.92431 -2.42478 0
M  V30 3515 H 329.751 3.65341 -2.33898 0
M  V30 3516 H 330.422 5.20682 -1.83288 0
M  V30 3517 H 332.898 4.15527 -0.218224 0
M  V30 3518 H 331.774 5.48677 0.156585 0
M  V30 3519 H 332.035 4.21358 1.33826 0
M  V30 3520 N 331.094 0.475555 1.50254 0
M  V30 3521 C 332.057 -0.305016 2.27161 0
M  V30 3522 C 333.057 -0.916519 1.32123 0
M  V30 3523 O 334.247 -0.785003 1.5551 0
M  V30 3524 C 331.379 -1.43496 3.09227 0
M  V30 3525 H 332.572 0.369511 2.97615 0
M  V30 3526 H 330.125 0.229747 1.54602 0
M  V30 3527 H 330.86 -2.14441 2.43281 0
M  V30 3528 H 330.645 -1.00223 3.79075 0
M  V30 3529 H 332.135 -1.98548 3.67381 0
M  V30 3530 N 332.573 -1.56217 0.208337 0
M  V30 3531 C 333.521 -2.21053 -0.723769 0
M  V30 3532 C 334.515 -1.18578 -1.20978 0
M  V30 3533 O 335.721 -1.36691 -1.17114 0
M  V30 3534 H 332.096 -0.708595 -0.251788 0
M  V30 3535 H 334.067 -2.98006 -0.153365 0
M  V30 3536 C 332.816 -2.89417 -1.927 0
M  V30 3537 H 332.139 -3.68019 -1.56212 0
M  V30 3538 H 333.579 -3.38201 -2.55727 0
M  V30 3539 C 332.038 -1.91166 -2.77411 0
M  V30 3540 O 332.568 -1.42026 -3.75754 0
M  V30 3541 N 330.774 -1.59105 -2.43175 0
M  V30 3542 H 330.321 -1.99259 -1.63259 0
M  V30 3543 H 330.279 -0.936255 -3.00136 0
M  V30 3544 N 334.051 0.0651679 -1.57465 0
M  V30 3545 C 335.299 0.761555 -1.87202 0
M  V30 3546 C 335.62 1.77778 -0.801243 0
M  V30 3547 O 334.89 1.95166 0.16937 0
M  V30 3548 H 333.47 0.284251 -0.690804 0
M  V30 3549 H 336.132 0.0396827 -1.9486 0
M  V30 3550 H 335.228 1.27365 -2.84929 0
M  V30 3551 N 335.529 1.53961 0.336706 0
M  V30 3552 C 336.461 1.78751 1.4346 0
M  V30 3553 C 337.474 0.669019 1.48418 0
M  V30 3554 O 338.663 0.945884 1.51378 0
M  V30 3555 C 335.763 1.87844 2.82078 0
M  V30 3556 C 334.936 3.17854 3.00479 0
M  V30 3557 C 333.995 3.17816 4.19379 0
M  V30 3558 O 333.021 3.91511 4.13168 0
M  V30 3559 N 334.223 2.40669 5.2826 0
M  V30 3560 H 336.988 2.73493 1.22563 0
M  V30 3561 H 334.549 1.53096 0.526625 0
M  V30 3562 H 336.541 1.85261 3.59806 0
M  V30 3563 H 335.111 1.00257 2.96086 0
M  V30 3564 H 334.331 3.33504 2.10163 0
M  V30 3565 H 335.619 4.03718 3.0966 0
M  V30 3566 H 335.017 1.8036 5.36178 0
M  V30 3567 H 333.574 2.43877 6.04456 0
M  V30 3568 N 337.007 -0.598083 1.45811 0
M  V30 3569 C 338.253 -1.35882 1.50545 0
M  V30 3570 C 338.586 -1.93616 0.150445 0
M  V30 3571 O 337.861 -1.75604 -0.83628 0
M  V30 3572 C 338.144 -2.49966 2.59208 0
M  V30 3573 C 337.997 -1.97367 4.04186 0
M  V30 3574 C 339.316 -3.52068 2.64076 0
M  V30 3575 H 336.435 -0.492717 0.548087 0
M  V30 3576 H 339.077 -0.673319 1.77669 0
M  V30 3577 H 337.227 -3.08443 2.3621 0
M  V30 3578 H 338.899 -1.43466 4.38423 0
M  V30 3579 H 337.142 -1.283 4.14393 0
M  V30 3580 H 337.813 -2.79649 4.75921 0
M  V30 3581 H 340.289 -3.03448 2.84708 0
M  V30 3582 H 339.165 -4.2937 3.41954 0
M  V30 3583 H 339.426 -4.08304 1.69531 0
M  V30 3584 N 338.485 -1.33259 -0.841409 0
M  V30 3585 C 339.433 -1.23279 -1.97244 0
M  V30 3586 C 340.427 -0.134706 -1.68864 0
M  V30 3587 O 341.633 -0.298501 -1.77508 0
M  V30 3588 H 338.008 -0.382497 -0.647457 0
M  V30 3589 H 339.979 -2.18906 -2.02787 0
M  V30 3590 C 338.728 -0.986268 -3.33419 0
M  V30 3591 H 338.051 -1.82347 -3.55794 0
M  V30 3592 H 339.491 -0.956728 -4.13065 0
M  V30 3593 C 337.95 0.310842 -3.35463 0
M  V30 3594 O 338.48 1.31838 -3.79449 0
M  V30 3595 N 336.686 0.337485 -2.88634 0
M  V30 3596 H 336.233 -0.482967 -2.53032 0
M  V30 3597 H 336.191 1.20518 -2.90384 0
M  V30 3598 N 339.963 1.05934 -1.16686 0
M  V30 3599 C 341.211 1.78447 -0.948744 0
M  V30 3600 C 341.532 1.87813 0.524523 0
M  V30 3601 O 340.802 1.38945 1.38098 0
M  V30 3602 H 339.382 0.660971 -0.348033 0
M  V30 3603 H 342.044 1.27947 -1.47022 0
M  V30 3604 H 341.14 2.80394 -1.37061 0
M  V30 3605 N 341.441 0.965919 1.2453 0
M  V30 3606 C 342.857 0.67216 1.44756 0
M  V30 3607 C 343.057 -0.766609 1.86347 0
M  V30 3608 O 342.113 -1.5407 2.00047 0
M  V30 3609 C 343.426 1.65473 2.51076 0
M  V30 3610 C 344.974 1.66716 2.64905 0
M  V30 3611 C 345.449 2.63766 3.74421 0
M  V30 3612 N 346.94 2.62198 3.81846 0
M  V30 3613 C 347.675 3.33966 4.66106 0
M  V30 3614 N 347.171 4.15245 5.54566 0
M  V30 3615 N 348.964 3.22799 4.60171 0
M  V30 3616 H 341.115 1.89553 0.958293 0
M  V30 3617 H 343.378 0.815979 0.482579 0
M  V30 3618 H 343.084 2.68296 2.27399 0
M  V30 3619 H 342.958 1.4261 3.49202 0
M  V30 3620 H 345.345 0.646057 2.87941 0
M  V30 3621 H 345.426 1.93642 1.67142 0
M  V30 3622 H 345.07 3.6601 3.52135 0
M  V30 3623 H 345 2.34121 4.71694 0
M  V30 3624 H 347.491 2.032 3.18619 0
M  V30 3625 H 347.804 4.66898 6.15814 0
M  V30 3626 H 346.149 4.1934 5.54237 0
M  V30 3627 H 349.34 2.58764 3.90075 0
M  V30 3628 H 349.513 3.78994 5.25612 0
M  V30 3629 N 342.919 -1.39368 0.735821 0
M  V30 3630 C 344.33 -1.83313 0.354015 0
M  V30 3631 C 344.681 -1.61461 -1.11466 0
M  V30 3632 O 343.806 -1.10621 -1.85989 0
M  V30 3633 C 344.401 -3.32781 0.635769 0
M  V30 3634 C 342.96 -3.75142 0.307448 0
M  V30 3635 C 342.107 -2.62358 0.897974 0
M  V30 3636 H 345.058 -1.28349 0.933398 0
M  V30 3637 H 345.079 -3.80388 -0.0921773 0
M  V30 3638 H 344.591 -3.48654 1.70476 0
M  V30 3639 H 342.692 -3.64857 -0.755674 0
M  V30 3640 H 342.805 -4.72532 0.790583 0
M  V30 3641 H 341.169 -2.52624 0.324551 0
M  V30 3642 H 341.952 -2.81036 1.97164 0
M  V30 3643 N 344.397 -0.483516 -1.5 0
M  V30 3644 C 345.646 0.0689102 -2.01582 0
M  V30 3645 C 345.959 1.39655 -1.36952 0
M  V30 3646 O 347.165 2.03465 -1.79762 0
M  V30 3647 C 345.621 0.173302 -3.59483 0
M  V30 3648 C 345.229 -1.14665 -4.33077 0
M  V30 3649 C 346.973 0.677024 -4.19066 0
M  V30 3650 C 344.88 -1.00537 -5.82792 0
M  V30 3651 H 343.81 0.0295277 -0.753422 0
M  V30 3652 H 346.461 -0.620295 -1.72698 0
M  V30 3653 H 344.843 0.926569 -3.85007 0
M  V30 3654 H 346.017 -1.91184 -4.19268 0
M  V30 3655 H 344.332 -1.58244 -3.85159 0
M  V30 3656 H 346.929 0.799952 -5.28682 0
M  V30 3657 H 347.272 1.67151 -3.81269 0
M  V30 3658 H 347.805 -0.0192083 -3.97795 0
M  V30 3659 H 344.544 -1.9736 -6.25083 0
M  V30 3660 H 344.064 -0.280776 -5.99142 0
M  V30 3661 H 345.743 -0.677 -6.43448 0
M  V30 3662 N 345.875 1.56104 -0.216619 0
M  V30 3663 C 347.103 2.02563 0.421413 0
M  V30 3664 C 347.518 1.0965 1.53695 0
M  V30 3665 O 346.875 0.10521 1.82196 0
M  V30 3666 C 346.926 3.48584 0.957665 0
M  V30 3667 O 346.647 4.37953 -0.113389 0
M  V30 3668 C 348.148 4.10664 1.66943 0
M  V30 3669 H 345.368 0.662944 0.103665 0
M  V30 3670 H 347.912 2.01793 -0.331629 0
M  V30 3671 H 346.067 3.49985 1.661 0
M  V30 3672 H 346.481 5.23704 0.288932 0
M  V30 3673 H 347.955 5.14622 1.99671 0
M  V30 3674 H 348.432 3.55373 2.58083 0
M  V30 3675 H 349.038 4.13098 1.01142 0
M  V30 3676 N 347.353 -0.0568162 1.57498 0
M  V30 3677 C 348.578 -0.769402 1.92601 0
M  V30 3678 C 349.003 -1.69559 0.814336 0
M  V30 3679 O 348.361 -1.79811 -0.231903 0
M  V30 3680 C 348.409 -1.52634 3.26704 0
M  V30 3681 O 347.513 -2.63797 3.16994 0
M  V30 3682 H 346.854 -0.208909 0.63028 0
M  V30 3683 H 349.384 -0.0205798 2.0459 0
M  V30 3684 H 349.394 -1.90234 3.60936 0
M  V30 3685 H 348.069 -0.846875 4.07186 0
M  V30 3686 H 346.646 -2.28943 2.94346 0
M  V30 3687 N 348.832 -1.54138 -0.328536 0
M  V30 3688 C 350.109 -1.62749 -1.08499 0
M  V30 3689 C 350.489 -0.458198 -2.06067 0
M  V30 3690 O 349.837 0.548046 -2.2183 0
M  V30 3691 C 350.047 -2.99519 -1.79135 0
M  V30 3692 C 351.395 -3.55394 -2.32337 0
M  V30 3693 O 352.419 -3.01792 -1.89209 0
M  V30 3694 O 351.278 -4.49186 -3.11279 0
M  V30 3695 H 348.372 -0.65886 -0.499832 0
M  V30 3696 H 350.918 -1.66484 -0.328826 0
M  V30 3697 H 349.69 -3.76061 -1.08139 0
M  V30 3698 H 349.313 -2.99441 -2.61574 0
M  V30 3699 N 350.31 0.590341 -1.46126 0
M  V30 3700 C 351.22 1.72793 -1.58681 0
M  V30 3701 C 352.236 1.67516 -0.470566 0
M  V30 3702 O 353.412 1.87562 -0.733642 0
M  V30 3703 C 350.477 3.09287 -1.5666 0
M  V30 3704 C 349.538 3.25886 -2.79458 0
M  V30 3705 C 348.771 4.55869 -2.77524 0
M  V30 3706 O 348.994 5.3928 -1.85832 0
M  V30 3707 O 347.928 4.75552 -3.68964 0
M  V30 3708 H 351.754 1.65149 -2.54872 0
M  V30 3709 H 349.339 0.756486 -1.28832 0
M  V30 3710 H 351.221 3.90577 -1.58202 0
M  V30 3711 H 349.896 3.17385 -0.636271 0
M  V30 3712 H 348.803 2.44119 -2.83472 0
M  V30 3713 H 350.136 3.22675 -3.71674 0
M  V30 3714 N 351.788 1.33704 0.83433 0
M  V30 3715 C 352.751 1.24244 1.92603 0
M  V30 3716 C 353.751 0.160383 1.59998 0
M  V30 3717 O 354.941 0.412228 1.69252 0
M  V30 3718 C 352.073 0.91555 3.28376 0
M  V30 3719 H 353.266 2.21287 2.02416 0
M  V30 3720 H 350.819 1.17827 1.02696 0
M  V30 3721 H 351.554 -0.0521886 3.24258 0
M  V30 3722 H 351.339 1.69811 3.53422 0
M  V30 3723 H 352.829 0.874231 4.08347 0
M  V30 3724 N 353.266 -1.05314 1.17247 0
M  V30 3725 C 354.213 -2.13031 0.888058 0
M  V30 3726 C 355.183 -1.65253 -0.167537 0
M  V30 3727 O 356.368 -1.90775 -0.0305974 0
M  V30 3728 C 353.508 -3.42702 0.406147 0
M  V30 3729 C 352.621 -4.04161 1.52572 0
M  V30 3730 C 351.756 -5.21744 0.997808 0
M  V30 3731 C 350.795 -5.75207 2.09291 0
M  V30 3732 N 349.932 -6.84094 1.57986 0
M  V30 3733 H 354.772 -2.36698 1.81048 0
M  V30 3734 H 352.309 -1.16121 0.903013 0
M  V30 3735 H 354.267 -4.17059 0.108305 0
M  V30 3736 H 352.897 -3.19222 -0.479313 0
M  V30 3737 H 351.949 -3.27253 1.93931 0
M  V30 3738 H 353.261 -4.39881 2.35172 0
M  V30 3739 H 352.415 -6.03168 0.653739 0
M  V30 3740 H 351.154 -4.87495 0.141232 0
M  V30 3741 H 350.159 -4.92414 2.44557 0
M  V30 3742 H 351.384 -6.11505 2.95362 0
M  V30 3743 H 349.33 -6.51745 0.74598 0
M  V30 3744 H 349.247 -7.18811 2.34195 0
M  V30 3745 H 350.515 -7.69172 1.26468 0
M  V30 3746 N 354.744 -0.972509 -1.24016 0
M  V30 3747 C 356.16 -0.679827 -1.44397 0
M  V30 3748 C 356.36 0.756716 -1.86751 0
M  V30 3749 O 355.416 1.53007 -2.00861 0
M  V30 3750 C 356.729 -1.66803 -2.50195 0
M  V30 3751 C 358.277 -1.68119 -2.64017 0
M  V30 3752 C 358.752 -2.65748 -3.73017 0
M  V30 3753 N 360.243 -2.64219 -3.8045 0
M  V30 3754 C 360.978 -3.36433 -4.64328 0
M  V30 3755 N 360.474 -4.1818 -5.52356 0
M  V30 3756 N 362.267 -3.25235 -4.58453 0
M  V30 3757 H 354.418 -1.90059 -0.948228 0
M  V30 3758 H 356.681 -0.818527 -0.478245 0
M  V30 3759 H 356.387 -2.69498 -2.25973 0
M  V30 3760 H 356.261 -1.4446 -3.48441 0
M  V30 3761 H 358.648 -0.661319 -2.87594 0
M  V30 3762 H 358.729 -1.94525 -1.66113 0
M  V30 3763 H 358.373 -3.67872 -3.50189 0
M  V30 3764 H 358.303 -2.36619 -4.70446 0
M  V30 3765 H 360.794 -2.04887 -3.17537 0
M  V30 3766 H 361.107 -4.70157 -6.13329 0
M  V30 3767 H 359.452 -4.22273 -5.52006 0
M  V30 3768 H 362.643 -2.60829 -3.88698 0
M  V30 3769 H 362.816 -3.81776 -5.23594 0
M  V30 3770 N 356.222 1.38976 -0.743202 0
M  V30 3771 C 357.155 2.28128 -0.0572165 0
M  V30 3772 C 358.133 1.44827 0.739182 0
M  V30 3773 O 359.317 1.74207 0.720009 0
M  V30 3774 C 356.444 3.25796 0.926001 0
M  V30 3775 C 355.49 4.25947 0.217099 0
M  V30 3776 S 356.323 5.24604 -1.07477 0
M  V30 3777 C 357.479 6.25829 -0.0943545 0
M  V30 3778 H 357.712 2.85961 -0.813246 0
M  V30 3779 H 355.245 1.44822 -0.535341 0
M  V30 3780 H 357.203 3.82583 1.48797 0
M  V30 3781 H 355.864 2.66966 1.65493 0
M  V30 3782 H 355.057 4.94746 0.961372 0
M  V30 3783 H 354.659 3.73002 -0.273059 0
M  V30 3784 H 356.951 6.73411 0.743239 0
M  V30 3785 H 357.894 7.0412 -0.749713 0
M  V30 3786 H 358.302 5.63797 0.281706 0
M  V30 3787 N 357.7 0.491464 1.49741 0
M  V30 3788 C 358.94 -0.0549118 2.04326 0
M  V30 3789 C 359.304 -1.35148 1.36378 0
M  V30 3790 O 360.505 -1.9815 1.81631 0
M  V30 3791 C 358.776 -0.213841 3.5676 0
M  V30 3792 S 360.335 -0.715839 4.32922 0
M  V30 3793 H 357.153 -0.00630513 0.710972 0
M  V30 3794 H 359.755 0.663257 1.83905 0
M  V30 3795 H 358.459 0.73527 4.0376 0
M  V30 3796 H 357.99 -0.957529 3.81569 0
M  V30 3797 H 360.005 -1.9864 4.54705 0
M  V30 3798 N 359.178 -1.55987 0.224894 0
M  V30 3799 C 360.426 -1.97998 -0.405099 0
M  V30 3800 C 360.747 -1.11387 -1.60056 0
M  V30 3801 O 360.017 -0.191645 -1.9496 0
M  V30 3802 H 358.597 -0.731235 -0.152658 0
M  V30 3803 H 361.259 -1.92279 0.318567 0
M  V30 3804 H 360.355 -3.03463 -0.729167 0
M  V30 3805 N 360.656 0.0484629 -1.57525 0
M  V30 3806 C 361.586 1.0549 -2.08313 0
M  V30 3807 C 362.567 1.38929 -0.981463 0
M  V30 3808 O 363.752 1.48151 -1.25558 0
M  V30 3809 C 360.882 2.36162 -2.54646 0
M  V30 3810 C 359.836 2.17016 -3.68901 0
M  V30 3811 C 359.162 3.53278 -4.01371 0
M  V30 3812 C 360.462 1.57219 -4.98076 0
M  V30 3813 H 362.156 0.632195 -2.92649 0
M  V30 3814 H 359.702 0.302654 -1.40784 0
M  V30 3815 H 361.655 3.06882 -2.88793 0
M  V30 3816 H 360.379 2.80456 -1.67368 0
M  V30 3817 H 359.038 1.48733 -3.35073 0
M  V30 3818 H 358.686 3.95185 -3.11188 0
M  V30 3819 H 358.386 3.41299 -4.78318 0
M  V30 3820 H 359.91 4.25391 -4.38035 0
M  V30 3821 H 361.324 2.17832 -5.30304 0
M  V30 3822 H 359.721 1.55871 -5.79503 0
M  V30 3823 H 360.791 0.535956 -4.81929 0
M  V30 3824 N 362.134 1.5431 0.320358 0
M  V30 3825 C 363.064 1.86912 1.3995 0
M  V30 3826 C 364.045 0.726211 1.53819 0
M  V30 3827 O 365.23 0.980233 1.67646 0
M  V30 3828 C 362.36 2.09932 2.7667 0
M  V30 3829 C 361.314 3.25776 2.77586 0
M  V30 3830 C 360.64 3.34173 4.17412 0
M  V30 3831 C 361.94 4.6335 2.41048 0
M  V30 3832 H 363.634 2.77292 1.12914 0
M  V30 3833 H 361.18 1.33421 0.541738 0
M  V30 3834 H 363.133 2.31324 3.52232 0
M  V30 3835 H 361.857 1.16304 3.0519 0
M  V30 3836 H 360.516 3.04276 2.04479 0
M  V30 3837 H 360.164 2.38098 4.43078 0
M  V30 3838 H 359.864 4.12033 4.18931 0
M  V30 3839 H 361.388 3.57803 4.94782 0
M  V30 3840 H 362.802 4.84602 3.06324 0
M  V30 3841 H 361.199 5.43782 2.53813 0
M  V30 3842 H 362.269 4.65381 1.36193 0
M  V30 3843 N 363.613 -0.582584 1.46437 0
M  V30 3844 C 364.543 -1.70187 1.59871 0
M  V30 3845 C 365.524 -1.64066 0.449042 0
M  V30 3846 O 366.709 -1.82081 0.6753 0
M  V30 3847 C 363.839 -3.08827 1.58881 0
M  V30 3848 C 362.793 -3.29779 2.72819 0
M  V30 3849 C 362.119 -4.68947 2.5689 0
M  V30 3850 C 363.419 -3.17601 4.1464 0
M  V30 3851 H 365.113 -1.592 2.53566 0
M  V30 3852 H 362.659 -0.764472 1.22032 0
M  V30 3853 H 364.612 -3.86951 1.66873 0
M  V30 3854 H 363.336 -3.20713 0.617306 0
M  V30 3855 H 361.995 -2.54054 2.64296 0
M  V30 3856 H 361.643 -4.77599 1.57823 0
M  V30 3857 H 361.343 -4.83919 3.33312 0
M  V30 3858 H 362.867 -5.4924 2.66773 0
M  V30 3859 H 364.281 -3.8557 4.24274 0
M  V30 3860 H 362.678 -3.44094 4.9165 0
M  V30 3861 H 363.748 -2.14681 4.34788 0
M  V30 3862 N 365.091 -1.34144 -0.827227 0
M  V30 3863 C 366.337 -1.26446 -1.58554 0
M  V30 3864 C 366.67 0.1664 -1.93486 0
M  V30 3865 O 365.945 1.1107 -1.59667 0
M  V30 3866 C 366.228 -2.15111 -2.8879 0
M  V30 3867 C 366.081 -3.66712 -2.60465 0
M  V30 3868 C 367.4 -2.03311 -3.90324 0
M  V30 3869 H 364.519 -0.46067 -0.575284 0
M  V30 3870 H 367.161 -1.64356 -0.953269 0
M  V30 3871 H 365.311 -1.8291 -3.42748 0
M  V30 3872 H 366.983 -4.09259 -2.1285 0
M  V30 3873 H 365.226 -3.88014 -1.93978 0
M  V30 3874 H 365.897 -4.24112 -3.53317 0
M  V30 3875 H 368.373 -2.31574 -3.45706 0
M  V30 3876 H 367.249 -2.67582 -4.79261 0
M  V30 3877 H 367.51 -1.00879 -4.30437 0
M  V30 3878 N 366.569 1.04691 -1.17803 0
M  V30 3879 C 367.817 1.7743 -0.967617 0
M  V30 3880 C 368.138 1.88359 0.504574 0
M  V30 3881 O 367.408 1.40402 1.36617 0
M  V30 3882 H 365.988 0.657242 -0.355024 0
M  V30 3883 H 368.65 1.2638 -1.48371 0
M  V30 3884 H 367.746 2.78924 -1.40027 0
M  V30 3885 N 368.047 0.979072 1.23499 0
M  V30 3886 C 369.295 0.645941 1.91499 0
M  V30 3887 C 369.616 -0.822948 1.76784 0
M  V30 3888 O 368.886 -1.58854 1.14639 0
M  V30 3889 H 367.466 0.235919 0.708767 0
M  V30 3890 H 370.128 1.2426 1.50152 0
M  V30 3891 H 369.224 0.896411 2.9895 0
M  V30 3892 N 369.525 -1.3858 0.750561 0
M  V30 3893 C 370.455 -2.33102 0.136237 0
M  V30 3894 C 371.436 -1.54713 -0.706965 0
M  V30 3895 O 372.621 -1.83043 -0.648769 0
M  V30 3896 C 369.751 -3.38882 -0.760017 0
M  V30 3897 C 368.705 -4.27995 -0.0197785 0
M  V30 3898 C 368.031 -5.24605 -1.03408 0
M  V30 3899 C 369.331 -5.09554 1.14684 0
M  V30 3900 H 371.025 -2.84726 0.925822 0
M  V30 3901 H 368.571 -1.36898 0.446654 0
M  V30 3902 H 370.524 -4.0397 -1.19943 0
M  V30 3903 H 369.248 -2.85734 -1.58189 0
M  V30 3904 H 367.907 -3.64409 0.400184 0
M  V30 3905 H 367.555 -4.67746 -1.84994 0
M  V30 3906 H 367.255 -5.85081 -0.543464 0
M  V30 3907 H 368.779 -5.9257 -1.47288 0
M  V30 3908 H 370.193 -5.67899 0.785118 0
M  V30 3909 H 368.59 -5.7925 1.56812 0
M  V30 3910 H 369.66 -4.4347 1.96118 0
M  V30 3911 N 371.003 -0.499398 -1.49478 0
M  V30 3912 C 372.28 0.108629 -1.95298 0
M  V30 3913 C 372.66 1.54282 -1.44084 0
M  V30 3914 O 372.008 2.18944 -0.653908 0
M  V30 3915 C 372.218 0.0229111 -3.48992 0
M  V30 3916 C 373.566 0.197643 -4.2414 0
M  V30 3917 O 374.59 0.0981735 -3.56065 0
M  V30 3918 O 373.449 0.401669 -5.45022 0
M  V30 3919 H 370.543 0.096181 -0.821388 0
M  V30 3920 H 373.089 -0.561822 -1.6013 0
M  V30 3921 H 371.861 -0.977321 -3.78899 0
M  V30 3922 H 371.484 0.733579 -3.90774 0
M  V30 3923 N 372.481 1.55866 -0.233164 0
M  V30 3924 C 373.709 2.02998 0.399905 0
M  V30 3925 C 374.124 1.11274 1.52524 0
M  V30 3926 O 373.481 0.124528 1.82075 0
M  V30 3927 C 373.532 3.4958 0.920639 0
M  V30 3928 O 373.253 4.37808 -0.159834 0
M  V30 3929 C 374.754 4.12411 1.62578 0
M  V30 3930 H 371.974 0.664006 0.0966281 0
M  V30 3931 H 374.518 2.0143 -0.353013 0
M  V30 3932 H 372.673 3.51727 1.62379 0
M  V30 3933 H 373.087 5.23981 0.23337 0
M  V30 3934 H 374.561 5.16711 1.94201 0
M  V30 3935 H 375.038 3.5809 2.54299 0
M  V30 3936 H 375.644 4.14148 0.967553 0
M  V30 3937 N 373.959 -0.0401083 1.57549 0
M  V30 3938 C 375.205 -0.734211 1.89043 0
M  V30 3939 C 375.538 -1.75591 0.829535 0
M  V30 3940 O 374.813 -1.93868 -0.156706 0
M  V30 3941 C 375.096 -1.41374 3.31188 0
M  V30 3942 C 374.949 -0.406299 4.47961 0
M  V30 3943 C 376.268 -2.35061 3.72068 0
M  V30 3944 H 373.387 -0.265447 0.687537 0
M  V30 3945 H 376.029 0.00294087 1.9 0
M  V30 3946 H 374.179 -2.04206 3.30503 0
M  V30 3947 H 375.851 0.219255 4.60779 0
M  V30 3948 H 374.094 0.275485 4.32924 0
M  V30 3949 H 374.765 -0.920022 5.44279 0
M  V30 3950 H 377.241 -1.82282 3.74049 0
M  V30 3951 H 376.117 -2.79593 4.72355 0
M  V30 3952 H 376.378 -3.21258 3.0372 0
M  V30 3953 N 375.437 -1.54477 -0.31217 0
M  V30 3954 C 376.683 -1.73483 -1.0503 0
M  V30 3955 C 377.016 -0.513125 -1.87298 0
M  V30 3956 O 376.291 0.489864 -1.8823 0
M  V30 3957 C 376.574 -3.01723 -1.96558 0
M  V30 3958 C 376.427 -4.3417 -1.17545 0
M  V30 3959 C 377.746 -3.25772 -2.95907 0
M  V30 3960 H 374.865 -0.631222 -0.380432 0
M  V30 3961 H 377.507 -1.87184 -0.325932 0
M  V30 3962 H 375.657 -2.90174 -2.58324 0
M  V30 3963 H 377.329 -4.5762 -0.581513 0
M  V30 3964 H 375.572 -4.31159 -0.477925 0
M  V30 3965 H 376.243 -5.20143 -1.84811 0
M  V30 3966 H 378.719 -3.36857 -2.44267 0
M  V30 3967 H 377.595 -4.16838 -3.57123 0
M  V30 3968 H 377.856 -2.43537 -3.68974 0
M  V30 3969 N 376.915 0.57481 -1.46744 0
M  V30 3970 C 377.863 1.70435 -1.58286 0
M  V30 3971 C 378.857 1.63287 -0.450956 0
M  V30 3972 O 380.063 1.68685 -0.628121 0
M  V30 3973 H 376.438 0.56364 -0.497809 0
M  V30 3974 H 378.409 1.57833 -2.53242 0
M  V30 3975 C 377.158 3.08815 -1.59776 0
M  V30 3976 H 376.481 3.1499 -2.46214 0
M  V30 3977 H 377.921 3.87588 -1.71905 0
M  V30 3978 C 376.38 3.35301 -0.327812 0
M  V30 3979 O 376.91 3.97511 0.57861 0
M  V30 3980 N 375.116 2.89816 -0.213274 0
M  V30 3981 H 374.663 2.39371 -0.951798 0
M  V30 3982 H 374.621 3.0791 0.63553 0
M  V30 3983 N 378.394 1.34581 0.820102 0
M  V30 3984 C 379.641 1.27096 1.57648 0
M  V30 3985 C 379.969 -0.158317 1.93855 0
M  V30 3986 O 379.224 -1.12028 1.60463 0
M  V30 3987 C 379.523 2.10997 2.8847 0
M  V30 3988 C 379.189 3.59966 2.71543 0
M  V30 3989 C 377.851 4.00575 2.66634 0
M  V30 3990 C 380.203 4.54548 2.55021 0
M  V30 3991 C 377.531 5.33953 2.43128 0
M  V30 3992 C 379.883 5.88109 2.33047 0
M  V30 3993 C 378.547 6.27878 2.26552 0
M  V30 3994 H 377.817 0.465078 0.576874 0
M  V30 3995 H 380.464 1.6635 0.948671 0
M  V30 3996 H 378.769 1.6458 3.55557 0
M  V30 3997 H 380.466 2.0255 3.46084 0
M  V30 3998 H 377.056 3.27733 2.76205 0
M  V30 3999 H 381.24 4.24069 2.57835 0
M  V30 4000 H 376.496 5.63781 2.3656 0
M  V30 4001 H 380.67 6.60985 2.19251 0
M  V30 4002 H 378.297 7.31162 2.081 0
M  V30 4003 N 379.872 -1.04064 1.18357 0
M  V30 4004 C 380.802 -2.14001 0.934113 0
M  V30 4005 C 381.783 -1.69616 -0.128186 0
M  V30 4006 O 382.968 -1.94185 0.0244093 0
M  V30 4007 C 380.098 -3.44253 0.459066 0
M  V30 4008 C 379.052 -4.02261 1.46185 0
M  V30 4009 C 378.378 -5.27992 0.844322 0
M  V30 4010 C 379.678 -4.38432 2.83856 0
M  V30 4011 H 381.372 -2.35127 1.85352 0
M  V30 4012 H 378.918 -1.12998 0.892604 0
M  V30 4013 H 380.871 -4.20522 0.271907 0
M  V30 4014 H 379.595 -3.22813 -0.495912 0
M  V30 4015 H 378.254 -3.28074 1.63595 0
M  V30 4016 H 377.902 -5.02862 -0.117845 0
M  V30 4017 H 377.602 -5.67765 1.51384 0
M  V30 4018 H 379.126 -6.06938 0.667693 0
M  V30 4019 H 380.54 -5.05688 2.70098 0
M  V30 4020 H 378.937 -4.89254 3.47491 0
M  V30 4021 H 380.007 -3.4826 3.37406 0
M  V30 4022 N 381.35 -0.985608 -1.22978 0
M  V30 4023 C 382.575 -0.675254 -1.961 0
M  V30 4024 C 383 0.752154 -1.72407 0
M  V30 4025 O 382.358 1.5131 -0.998751 0
M  V30 4026 C 382.406 -0.977899 -3.47087 0
M  V30 4027 O 381.51 -0.072685 -4.12336 0
M  V30 4028 H 380.851 -0.253443 -0.613728 0
M  V30 4029 H 383.381 -1.32061 -1.56272 0
M  V30 4030 H 383.391 -0.916739 -3.97567 0
M  V30 4031 H 382.066 -2.01807 -3.63657 0
M  V30 4032 H 380.643 -0.188703 -3.72422 0
M  V30 4033 N 382.828 1.3818 -0.7579 0
M  V30 4034 C 384.075 2.00019 -0.315985 0
M  V30 4035 C 384.403 1.60163 1.10355 0
M  V30 4036 O 383.658 0.83264 1.77103 0
M  V30 4037 C 383.957 3.55252 -0.391218 0
M  V30 4038 C 383.623 4.14834 -1.76702 0
M  V30 4039 C 382.285 4.30821 -2.14353 0
M  V30 4040 C 384.637 4.47658 -2.66931 0
M  V30 4041 C 381.965 4.76928 -3.41696 0
M  V30 4042 C 384.317 4.95184 -3.93669 0
M  V30 4043 C 382.981 5.09377 -4.31383 0
M  V30 4044 H 382.251 0.731923 -0.115627 0
M  V30 4045 H 384.898 1.65161 -0.969223 0
M  V30 4046 H 383.203 3.90273 0.34558 0
M  V30 4047 H 384.9 4.00988 -0.030805 0
M  V30 4048 H 381.49 4.02808 -1.46435 0
M  V30 4049 H 385.674 4.34904 -2.39106 0
M  V30 4050 H 380.93 4.86103 -3.70829 0
M  V30 4051 H 385.104 5.19551 -4.63724 0
M  V30 4052 H 382.731 5.44865 -5.30119 0
M  V30 4053 N 384.306 0.507319 1.49211 0
M  V30 4054 C 385.531 -0.033725 2.07373 0
M  V30 4055 C 385.956 -1.29485 1.36437 0
M  V30 4056 O 385.314 -1.76294 0.423087 0
M  V30 4057 C 385.362 -0.263945 3.59633 0
M  V30 4058 O 384.466 -1.33737 3.90113 0
M  V30 4059 H 383.807 0.0290331 0.663365 0
M  V30 4060 H 386.337 0.708749 1.91932 0
M  V30 4061 H 386.347 -0.493536 4.05004 0
M  V30 4062 H 385.022 0.657424 4.10671 0
M  V30 4063 H 383.599 -1.09224 3.56545 0
M  V30 4064 N 385.784 -1.5574 0.241426 0
M  V30 4065 C 386.717 -2.17168 -0.700935 0
M  V30 4066 C 387.695 -1.12206 -1.1768 0
M  V30 4067 O 388.879 -1.40565 -1.25593 0
M  V30 4068 C 386.006 -2.76796 -1.95196 0
M  V30 4069 C 385.052 -3.94764 -1.61442 0
M  V30 4070 S 385.885 -5.30613 -0.72182 0
M  V30 4071 C 387.041 -5.93691 -1.98197 0
M  V30 4072 H 387.274 -2.96761 -0.178882 0
M  V30 4073 H 384.807 -1.54378 0.0259299 0
M  V30 4074 H 386.765 -3.11787 -2.67019 0
M  V30 4075 H 385.426 -1.9716 -2.44514 0
M  V30 4076 H 384.619 -4.35057 -2.54443 0
M  V30 4077 H 384.221 -3.61022 -0.976672 0
M  V30 4078 H 386.513 -6.10874 -2.92983 0
M  V30 4079 H 387.456 -6.89258 -1.62262 0
M  V30 4080 H 387.864 -5.22709 -2.13156 0
M  V30 4081 N 387.262 0.0317525 -1.57568 0
M  V30 4082 C 388.172 1.05021 -2.0978 0
M  V30 4083 C 389.188 1.39809 -1.03583 0
M  V30 4084 O 390.364 1.49182 -1.35302 0
M  V30 4085 C 387.429 2.33301 -2.56459 0
M  V30 4086 C 386.49 2.0512 -3.77127 0
M  V30 4087 C 385.723 3.27283 -4.2157 0
M  V30 4088 O 385.946 4.37861 -3.65559 0
M  V30 4089 O 384.88 3.13141 -5.14029 0
M  V30 4090 H 388.706 0.636505 -2.96955 0
M  V30 4091 H 386.291 0.248559 -1.47318 0
M  V30 4092 H 388.173 3.08722 -2.86825 0
M  V30 4093 H 386.848 2.73973 -1.72397 0
M  V30 4094 H 385.755 1.27276 -3.51784 0
M  V30 4095 H 387.088 1.69305 -4.62165 0
M  V30 4096 N 388.74 1.54641 0.303973 0
M  V30 4097 C 389.987 1.7378 1.03955 0
M  V30 4098 C 390.315 0.521986 1.87365 0
M  V30 4099 O 389.57 -0.496099 1.89308 0
M  V30 4100 C 389.869 2.97753 1.97681 0
M  V30 4101 C 389.535 4.31671 1.30271 0
M  V30 4102 C 388.197 4.68075 1.11619 0
M  V30 4103 C 390.549 5.147 0.82055 0
M  V30 4104 C 387.877 5.8509 0.434304 0
M  V30 4105 C 390.229 6.32416 0.152395 0
M  V30 4106 C 388.893 6.67484 -0.0461067 0
M  V30 4107 H 388.163 0.635908 0.380398 0
M  V30 4108 H 390.81 1.88896 0.314718 0
M  V30 4109 H 389.115 2.77406 2.76682 0
M  V30 4110 H 390.812 3.09756 2.54661 0
M  V30 4111 H 387.402 4.03041 1.45795 0
M  V30 4112 H 391.586 4.87077 0.952374 0
M  V30 4113 H 386.842 6.10806 0.269495 0
M  V30 4114 H 391.016 6.96023 -0.229126 0
M  V30 4115 H 388.643 7.58011 -0.576494 0
M  V30 4116 N 390.218 -0.567019 1.47046 0
M  V30 4117 C 391.148 -1.68482 1.61667 0
M  V30 4118 C 392.129 -1.6358 0.466418 0
M  V30 4119 O 393.314 -1.81354 0.694574 0
M  V30 4120 C 390.444 -3.07124 1.62148 0
M  V30 4121 C 389.398 -3.26867 2.76301 0
M  V30 4122 C 388.724 -4.66196 2.61849 0
M  V30 4123 C 390.024 -3.13186 4.17986 0
M  V30 4124 H 391.718 -1.56502 2.5524 0
M  V30 4125 H 389.264 -0.751486 1.22836 0
M  V30 4126 H 391.217 -3.8516 1.70968 0
M  V30 4127 H 389.941 -3.2004 0.651287 0
M  V30 4128 H 388.6 -2.51237 2.66975 0
M  V30 4129 H 388.248 -4.75898 1.62879 0
M  V30 4130 H 387.948 -4.80356 3.38425 0
M  V30 4131 H 389.472 -5.46379 2.72584 0
M  V30 4132 H 390.886 -3.81049 4.2834 0
M  V30 4133 H 389.283 -3.3886 4.95272 0
M  V30 4134 H 390.353 -2.10057 4.3704 0
M  V30 4135 N 391.696 -1.35014 -0.812953 0
M  V30 4136 C 392.659 -1.27292 -1.90602 0
M  V30 4137 C 393.659 -0.185817 -1.59723 0
M  V30 4138 O 394.849 -0.439102 -1.68575 0
M  V30 4139 C 391.981 -0.967676 -3.26877 0
M  V30 4140 H 393.174 -2.24479 -1.9887 0
M  V30 4141 H 390.727 -1.19446 -1.00808 0
M  V30 4142 H 391.462 0.0005954 -3.243 0
M  V30 4143 H 391.247 -1.75412 -3.50675 0
M  V30 4144 H 392.737 -0.939085 -4.06904 0
M  V30 4145 N 393.175 1.03435 -1.18907 0
M  V30 4146 C 394.122 2.11591 -0.921837 0
M  V30 4147 C 395.092 1.65499 0.141226 0
M  V30 4148 O 396.277 1.908 0.000242829 0
M  V30 4149 C 393.417 3.42012 -0.460616 0
M  V30 4150 C 392.53 4.01682 -1.58982 0
M  V30 4151 C 391.665 5.20091 -1.08069 0
M  V30 4152 C 390.704 5.71805 -2.18416 0
M  V30 4153 N 389.841 6.81494 -1.68849 0
M  V30 4154 H 394.681 2.33787 -1.8479 0
M  V30 4155 H 392.218 1.1467 -0.921373 0
M  V30 4156 H 394.176 4.16834 -0.174642 0
M  V30 4157 H 392.806 3.19944 0.428467 0
M  V30 4158 H 391.858 3.24127 -1.99113 0
M  V30 4159 H 393.17 4.36084 -2.4214 0
M  V30 4160 H 392.324 6.02051 -0.749615 0
M  V30 4161 H 391.063 4.87209 -0.218771 0
M  V30 4162 H 390.068 4.88461 -2.5236 0
M  V30 4163 H 391.293 6.06728 -3.05054 0
M  V30 4164 H 389.239 6.50475 -0.849572 0
M  V30 4165 H 389.156 7.14994 -2.45601 0
M  V30 4166 H 390.424 7.67063 -1.38689 0
M  V30 4167 N 394.653 0.992116 1.22453 0
M  V30 4168 C 395.878 0.685644 1.95739 0
M  V30 4169 C 396.303 -0.743 1.72804 0
M  V30 4170 O 395.661 -1.50778 1.00676 0
M  V30 4171 C 395.709 0.996293 3.46564 0
M  V30 4172 O 394.813 0.0945512 4.12292 0
M  V30 4173 H 394.154 0.256694 0.612376 0
M  V30 4174 H 396.684 1.32888 1.5557 0
M  V30 4175 H 396.694 0.93781 3.97076 0
M  V30 4176 H 395.369 2.03733 3.62582 0
M  V30 4177 H 393.946 0.208451 3.72317 0
M  V30 4178 N 396.131 -1.37776 0.765217 0
M  V30 4179 C 397.542 -1.82521 0.392819 0
M  V30 4180 C 397.893 -1.63789 -1.08017 0
M  V30 4181 O 397.018 -1.14542 -1.83601 0
M  V30 4182 C 397.613 -3.31358 0.706214 0
M  V30 4183 C 396.172 -3.74406 0.386952 0
M  V30 4184 C 395.319 -2.60394 0.953422 0
M  V30 4185 H 398.27 -1.2634 0.960412 0
M  V30 4186 H 398.291 -3.80498 -0.0114706 0
M  V30 4187 H 397.803 -3.44959 1.77833 0
M  V30 4188 H 395.904 -3.66377 -0.678112 0
M  V30 4189 H 396.017 -4.70749 0.890636 0
M  V30 4190 H 394.381 -2.51878 0.378064 0
M  V30 4191 H 395.164 -2.76791 2.03081 0
M  V30 4192 N 397.609 -0.515225 -1.4894 0
M  V30 4193 C 398.519 0.259774 -2.33157 0
M  V30 4194 C 399.535 0.953501 -1.45548 0
M  V30 4195 O 400.711 0.931735 -1.78552 0
M  V30 4196 C 397.776 1.30193 -3.21326 0
M  V30 4197 C 396.837 0.620129 -4.24797 0
M  V30 4198 C 396.07 1.61263 -5.08753 0
M  V30 4199 O 396.293 2.84389 -4.94448 0
M  V30 4200 O 395.227 1.16013 -5.90614 0
M  V30 4201 H 399.053 -0.429932 -3.00641 0
M  V30 4202 H 396.638 -0.276346 -1.46822 0
M  V30 4203 H 398.52 1.90455 -3.75905 0
M  V30 4204 H 397.195 1.97431 -2.56521 0
M  V30 4205 H 396.102 -0.0226019 -3.74093 0
M  V30 4206 H 397.435 -0.0100493 -4.92199 0
M  V30 4207 N 399.087 1.5561 -0.249682 0
M  V30 4208 C 400.037 2.18157 0.662673 0
M  V30 4209 C 401.021 1.1383 1.13717 0
M  V30 4210 O 402.213 1.39731 1.08648 0
M  V30 4211 C 399.342 2.88672 1.85805 0
M  V30 4212 C 398.428 4.00258 1.40193 0
M  V30 4213 N 398.819 5.01473 0.660213 0
M  V30 4214 C 397.117 4.12864 1.68698 0
M  V30 4215 C 397.818 5.80155 0.423695 0
M  V30 4216 N 396.794 5.34533 0.988721 0
M  V30 4217 H 400.596 2.93769 0.0878688 0
M  V30 4218 H 398.11 1.62316 -0.0521183 0
M  V30 4219 H 400.107 3.31912 2.5227 0
M  V30 4220 H 398.767 2.14564 2.43705 0
M  V30 4221 H 399.778 5.16971 0.310047 0
M  V30 4222 H 396.455 3.4993 2.27717 0
M  V30 4223 H 397.845 6.71688 -0.168616 0
M  V30 4224 N 400.565 -0.0233959 1.57583 0
M  V30 4225 C 401.981 -0.379134 1.55031 0
M  V30 4226 C 402.181 -1.76255 0.976548 0
M  V30 4227 O 401.237 -2.45266 0.600078 0
M  V30 4228 C 402.55 -0.275792 2.99433 0
M  V30 4229 C 404.098 -0.352458 3.11009 0
M  V30 4230 C 404.573 -0.278501 4.57152 0
M  V30 4231 N 406.064 -0.337123 4.61972 0
M  V30 4232 C 406.799 -0.302876 5.726 0
M  V30 4233 N 406.295 -0.220589 6.92449 0
M  V30 4234 N 408.088 -0.353023 5.6099 0
M  V30 4235 H 400.239 0.881869 1.93227 0
M  V30 4236 H 402.502 0.335867 0.886509 0
M  V30 4237 H 402.208 0.675108 3.4516 0
M  V30 4238 H 402.082 -1.06721 3.61788 0
M  V30 4239 H 404.469 -1.29379 2.65226 0
M  V30 4240 H 404.55 0.468409 2.51475 0
M  V30 4241 H 404.194 0.659189 5.03604 0
M  V30 4242 H 404.124 -1.11755 5.14605 0
M  V30 4243 H 406.615 -0.403002 3.75745 0
M  V30 4244 H 406.928 -0.199713 7.72542 0
M  V30 4245 H 405.273 -0.186555 6.9475 0
M  V30 4246 H 408.464 -0.415339 4.66254 0
M  V30 4247 H 408.637 -0.322866 6.47195 0
M  V30 4248 N 402.043 -1.548 -0.295768 0
M  V30 4249 C 402.975 -1.82492 -1.3867 0
M  V30 4250 C 403.988 -0.708134 -1.46592 0
M  V30 4251 O 405.177 -0.985686 -1.48817 0
M  V30 4252 C 402.277 -1.95256 -2.76999 0
M  V30 4253 C 401.45 -3.25709 -2.91946 0
M  V30 4254 C 400.509 -3.28824 -4.10806 0
M  V30 4255 O 399.535 -4.02328 -4.02643 0
M  V30 4256 N 400.737 -2.5459 -5.21694 0
M  V30 4257 H 403.502 -2.76646 -1.15269 0
M  V30 4258 H 401.063 -1.54438 -0.485849 0
M  V30 4259 H 403.055 -1.94736 -3.54768 0
M  V30 4260 H 401.625 -1.08072 -2.93324 0
M  V30 4261 H 400.845 -3.38959 -2.01247 0
M  V30 4262 H 402.133 -4.11786 -2.98847 0
M  V30 4263 H 401.531 -1.94512 -5.31208 0
M  V30 4264 H 400.088 -2.59818 -5.97778 0
M  V30 4265 N 403.521 0.559213 -1.47345 0
M  V30 4266 C 404.431 1.69388 -1.62311 0
M  V30 4267 C 405.447 1.6648 -0.505993 0
M  V30 4268 O 406.623 1.85964 -0.773262 0
M  V30 4269 C 403.688 3.05894 -1.63185 0
M  V30 4270 C 402.749 3.19885 -2.86307 0
M  V30 4271 C 401.982 4.49879 -2.87131 0
M  V30 4272 O 402.205 5.35217 -1.97229 0
M  V30 4273 O 401.139 4.67618 -3.78968 0
M  V30 4274 H 404.965 1.59706 -2.58317 0
M  V30 4275 H 402.55 0.728989 -1.30407 0
M  V30 4276 H 404.432 3.87133 -1.66451 0
M  V30 4277 H 403.107 3.15964 -0.70345 0
M  V30 4278 H 402.014 2.38052 -2.88587 0
M  V30 4279 H 403.347 3.14718 -3.78435 0
M  V30 4280 N 404.999 1.35443 0.805782 0
M  V30 4281 C 405.929 1.31095 1.93226 0
M  V30 4282 C 406.91 0.185244 1.69088 0
M  V30 4283 O 408.095 0.380332 1.90439 0
M  V30 4284 C 405.225 1.08299 3.29983 0
M  V30 4285 C 404.179 2.17519 3.68605 0
M  V30 4286 C 403.505 1.79887 5.03532 0
M  V30 4287 C 404.805 3.5949 3.78898 0
M  V30 4288 H 406.499 2.25352 1.97122 0
M  V30 4289 H 404.045 1.0848 0.946996 0
M  V30 4290 H 405.998 1.03897 4.08391 0
M  V30 4291 H 404.722 0.104885 3.26432 0
M  V30 4292 H 403.381 2.2102 2.92482 0
M  V30 4293 H 403.029 0.80693 4.96485 0
M  V30 4294 H 402.729 2.53001 5.30344 0
M  V30 4295 H 404.253 1.77011 5.84379 0
M  V30 4296 H 405.667 3.58307 4.47536 0
M  V30 4297 H 404.064 4.31371 4.1718 0
M  V30 4298 H 405.134 3.95584 2.80431 0
M  V30 4299 N 406.477 -1.02803 1.19454 0
M  V30 4300 C 407.726 -1.7562 0.991996 0
M  V30 4301 C 408.039 -1.89672 -0.477901 0
M  V30 4302 O 409.245 -2.59468 -0.799287 0
M  V30 4303 C 407.701 -3.15812 1.72601 0
M  V30 4304 C 407.309 -3.0981 3.23607 0
M  V30 4305 C 409.053 -3.92918 1.60674 0
M  V30 4306 C 406.96 -4.44939 3.89594 0
M  V30 4307 H 405.89 -0.658352 0.367543 0
M  V30 4308 H 408.541 -1.15044 1.42959 0
M  V30 4309 H 406.923 -3.7686 1.21624 0
M  V30 4310 H 408.097 -2.58138 3.81709 0
M  V30 4311 H 406.412 -2.46201 3.35819 0
M  V30 4312 H 409.009 -4.9287 2.07323 0
M  V30 4313 H 409.352 -4.12502 0.561025 0
M  V30 4314 H 409.885 -3.38472 2.09001 0
M  V30 4315 H 406.624 -4.30559 4.94267 0
M  V30 4316 H 406.144 -4.96664 3.36281 0
M  V30 4317 H 407.823 -5.1382 3.93189 0
M  V30 4318 N 407.956 -0.998596 -1.21925 0
M  V30 4319 C 408.866 -0.562736 -2.27751 0
M  V30 4320 C 409.882 0.391203 -1.69545 0
M  V30 4321 O 411.058 0.256625 -1.99758 0
M  V30 4322 C 408.123 0.11012 -3.46525 0
M  V30 4323 C 407.184 -0.887495 -4.20026 0
M  V30 4324 C 406.417 -0.246654 -5.3313 0
M  V30 4325 O 406.64 0.958088 -5.62296 0
M  V30 4326 O 405.574 -0.954374 -5.94286 0
M  V30 4327 H 409.4 -1.44329 -2.67213 0
M  V30 4328 H 406.985 -0.767135 -1.28201 0
M  V30 4329 H 408.867 0.486756 -4.18579 0
M  V30 4330 H 407.542 0.965154 -3.08976 0
M  V30 4331 H 406.449 -1.31517 -3.5022 0
M  V30 4332 H 407.782 -1.71191 -4.6147 0
M  V30 4333 N 409.434 1.37368 -0.772513 0
M  V30 4334 C 410.85 1.53059 -0.452231 0
M  V30 4335 C 411.05 1.73065 1.03203 0
M  V30 4336 O 410.106 1.75245 1.81784 0
M  V30 4337 C 411.419 2.72659 -1.26797 0
M  V30 4338 C 412.967 2.86521 -1.25995 0
M  V30 4339 C 413.442 4.09105 -2.05905 0
M  V30 4340 N 414.933 4.16219 -2.03263 0
M  V30 4341 C 415.668 5.10107 -2.61875 0
M  V30 4342 N 415.164 6.09547 -3.29278 0
M  V30 4343 N 416.957 5.02596 -2.51701 0
M  V30 4344 H 409.108 1.22634 -1.7342 0
M  V30 4345 H 411.371 0.597206 -0.736239 0
M  V30 4346 H 411.077 2.64343 -2.31982 0
M  V30 4347 H 410.951 3.66363 -0.897672 0
M  V30 4348 H 413.338 2.94308 -0.216081 0
M  V30 4349 H 413.419 1.93774 -1.66989 0
M  V30 4350 H 413.063 4.0208 -3.10313 0
M  V30 4351 H 412.993 5.00968 -1.62292 0
M  V30 4352 H 415.484 3.45012 -1.54192 0
M  V30 4353 H 415.797 6.77718 -3.71374 0
M  V30 4354 H 414.142 6.09824 -3.33377 0
M  V30 4355 H 417.333 4.23855 -1.98657 0
M  V30 4356 H 417.506 5.75582 -2.97673 0
M  V30 4357 N 410.912 0.523116 1.48665 0
M  V30 4358 C 412.323 0.0808997 1.86525 0
M  V30 4359 C 412.674 -1.33975 1.43336 0
M  V30 4360 O 411.799 -2.00221 0.821009 0
M  V30 4361 C 412.394 0.140037 3.3851 0
M  V30 4362 C 410.953 -0.246948 3.75589 0
M  V30 4363 C 410.1 0.502845 2.72703 0
M  V30 4364 H 413.051 0.734736 1.40667 0
M  V30 4365 H 413.072 -0.649945 3.74908 0
M  V30 4366 H 412.584 1.17412 3.69914 0
M  V30 4367 H 410.685 -1.28343 3.49798 0
M  V30 4368 H 410.798 0.0878859 4.79019 0
M  V30 4369 H 409.162 -0.0500581 2.54651 0
M  V30 4370 H 409.945 1.53743 3.0695 0
M  V30 4371 N 412.39 -1.55475 0.257931 0
M  V30 4372 C 413.3 -2.2549 -0.647425 0
M  V30 4373 C 414.316 -1.2748 -1.18427 0
M  V30 4374 O 415.492 -1.6038 -1.2182 0
M  V30 4375 C 412.557 -2.94916 -1.82278 0
M  V30 4376 C 411.618 -4.08363 -1.32432 0
M  V30 4377 C 410.851 -4.74469 -2.44366 0
M  V30 4378 O 411.074 -4.39701 -3.63344 0
M  V30 4379 O 410.008 -5.62763 -2.13497 0
M  V30 4380 H 413.834 -3.03593 -0.0807707 0
M  V30 4381 H 411.419 -1.49377 0.0259962 0
M  V30 4382 H 413.301 -3.38606 -2.50846 0
M  V30 4383 H 411.976 -2.19744 -2.37685 0
M  V30 4384 H 410.883 -3.69166 -0.605605 0
M  V30 4385 H 412.216 -4.85385 -0.816211 0
M  V30 4386 N 413.868 0.0150385 -1.57593 0
M  V30 4387 C 415.284 0.370907 -1.5523 0
M  V30 4388 C 415.484 1.75735 -0.985882 0
M  V30 4389 O 414.54 2.44944 -0.613077 0
M  V30 4390 C 415.853 0.259908 -2.99575 0
M  V30 4391 C 417.401 0.335959 -3.11192 0
M  V30 4392 C 417.876 0.254253 -4.57294 0
M  V30 4393 N 419.367 0.312618 -4.62144 0
M  V30 4394 C 420.102 0.272505 -5.72752 0
M  V30 4395 N 419.598 0.183864 -6.92556 0
M  V30 4396 N 421.391 0.323267 -5.6117 0
M  V30 4397 H 413.542 -0.892104 -1.92757 0
M  V30 4398 H 415.805 -0.340563 -0.884715 0
M  V30 4399 H 415.511 -0.693403 -3.44797 0
M  V30 4400 H 415.385 1.048 -3.62349 0
M  V30 4401 H 417.772 1.27971 -2.65909 0
M  V30 4402 H 417.853 -0.481739 -2.51223 0
M  V30 4403 H 417.497 -0.685887 -5.03247 0
M  V30 4404 H 417.427 1.09024 -5.15191 0
M  V30 4405 H 419.918 0.38307 -3.75953 0
M  V30 4406 H 420.231 0.15874 -7.72637 0
M  V30 4407 H 418.576 0.149708 -6.94839 0
M  V30 4408 H 421.767 0.390607 -4.66467 0
M  V30 4409 H 421.94 0.288539 -6.47357 0
M  V30 4410 N 415.346 1.54954 0.287554 0
M  V30 4411 C 416.595 1.74081 1.01877 0
M  V30 4412 C 416.908 0.541135 1.87966 0
M  V30 4413 O 418.114 0.614491 2.64455 0
M  V30 4414 C 416.57 3.08042 1.86113 0
M  V30 4415 C 416.178 4.35531 1.04961 0
M  V30 4416 C 417.922 3.36523 2.58752 0
M  V30 4417 C 415.829 5.60538 1.88551 0
M  V30 4418 H 414.759 0.64884 0.384087 0
M  V30 4419 H 417.41 1.81426 0.275101 0
M  V30 4420 H 415.792 2.94696 2.64519 0
M  V30 4421 H 416.966 4.59751 0.31074 0
M  V30 4422 H 415.281 4.14085 0.43843 0
M  V30 4423 H 417.878 4.27122 3.21668 0
M  V30 4424 H 418.221 2.56 3.28283 0
M  V30 4425 H 418.754 3.50901 1.87386 0
M  V30 4426 H 415.493 6.43767 1.23466 0
M  V30 4427 H 415.013 5.40483 2.60074 0
M  V30 4428 H 416.692 5.98297 2.46273 0
M  V30 4429 N 416.824 -0.551391 1.4764 0
M  V30 4430 C 418.235 -1.13349 1.48354 0
M  V30 4431 C 418.586 -1.94709 0.241432 0
M  V30 4432 O 417.711 -2.06306 -0.653205 0
M  V30 4433 C 418.306 -2.0623 2.68802 0
M  V30 4434 C 416.865 -2.597 2.72457 0
M  V30 4435 C 416.012 -1.36201 2.41546 0
M  V30 4436 H 418.963 -0.337698 1.55065 0
M  V30 4437 H 418.984 -2.90196 2.46103 0
M  V30 4438 H 418.496 -1.46987 3.59188 0
M  V30 4439 H 416.597 -3.22724 1.86225 0
M  V30 4440 H 416.71 -3.00296 3.73308 0
M  V30 4441 H 415.074 -1.67068 1.9225 0
M  V30 4442 H 415.857 -0.787425 3.34147 0
M  V30 4443 N 418.302 -1.35869 -0.798587 0
M  V30 4444 C 419.265 -1.29307 -1.89242 0
M  V30 4445 C 420.265 -0.202747 -1.59517 0
M  V30 4446 O 421.455 -0.456957 -1.681 0
M  V30 4447 C 418.587 -1.00229 -3.25833 0
M  V30 4448 H 419.78 -2.26576 -1.96478 0
M  V30 4449 H 417.333 -1.20509 -0.995358 0
M  V30 4450 H 418.068 -0.033801 -3.24282 0
M  V30 4451 H 417.853 -1.79121 -3.48795 0
M  V30 4452 H 419.343 -0.98219 -4.05885 0
M  V30 4453 N 419.78 1.02168 -1.19998 0
M  V30 4454 C 420.743 2.08765 -0.94604 0
M  V30 4455 C 421.743 1.60618 0.0763846 0
M  V30 4456 O 422.933 1.73472 -0.159135 0
M  V30 4457 C 420.065 3.38262 -0.423255 0
M  V30 4458 H 421.258 2.32726 -1.89153 0
M  V30 4459 H 418.811 1.1889 -1.01464 0
M  V30 4460 H 419.546 3.19974 0.527938 0
M  V30 4461 H 419.331 3.74532 -1.16053 0
M  V30 4462 H 420.821 4.16759 -0.264911 0
M  V30 4463 N 421.258 1.00505 1.21394 0
M  V30 4464 C 422.498 0.696149 1.9218 0
M  V30 4465 C 422.862 -0.759099 1.76357 0
M  V30 4466 O 424.063 -1.17998 2.41516 0
M  V30 4467 C 422.334 1.10571 3.39866 0
M  V30 4468 S 423.893 0.91702 4.29111 0
M  V30 4469 H 420.711 0.254147 0.664026 0
M  V30 4470 H 423.313 1.28988 1.46909 0
M  V30 4471 H 422.017 2.16096 3.489 0
M  V30 4472 H 421.548 0.504268 3.90155 0
M  V30 4473 H 423.563 -0.185855 4.95852 0
M  V30 4474 N 422.737 -1.36956 0.779787 0
M  V30 4475 C 423.647 -2.33965 0.172491 0
M  V30 4476 C 424.663 -1.60574 -0.670222 0
M  V30 4477 O 425.839 -1.92617 -0.588263 0
M  V30 4478 C 422.904 -3.39761 -0.690173 0
M  V30 4479 C 421.965 -4.28964 0.169924 0
M  V30 4480 C 421.198 -5.29707 -0.651662 0
M  V30 4481 O 421.421 -5.38238 -1.88827 0
M  V30 4482 O 420.355 -6.01873 -0.0566264 0
M  V30 4483 H 424.181 -2.87647 0.974321 0
M  V30 4484 H 421.766 -1.39258 0.541078 0
M  V30 4485 H 423.648 -4.04471 -1.1824 0
M  V30 4486 H 422.323 -2.88394 -1.47006 0
M  V30 4487 H 421.23 -3.67326 0.708696 0
M  V30 4488 H 422.563 -4.83656 0.913085 0
M  V30 4489 N 424.215 -0.530993 -1.48385 0
M  V30 4490 C 425.125 0.23503 -2.3342 0
M  V30 4491 C 426.141 0.93801 -1.46552 0
M  V30 4492 O 427.317 0.912745 -1.7953 0
M  V30 4493 C 424.382 1.26778 -3.22689 0
M  V30 4494 C 423.443 0.575038 -4.25431 0
M  V30 4495 C 422.676 1.55858 -5.10435 0
M  V30 4496 O 422.899 2.79129 -4.97437 0
M  V30 4497 O 421.833 1.09742 -5.91811 0
M  V30 4498 H 425.659 -0.461794 -3.00169 0
M  V30 4499 H 423.244 -0.291903 -1.46521 0
M  V30 4500 H 425.126 1.86457 -3.77904 0
M  V30 4501 H 423.801 1.94699 -2.586 0
M  V30 4502 H 422.708 -0.0622782 -3.74048 0
M  V30 4503 H 424.041 -0.062253 -4.92161 0
M  V30 4504 N 425.693 1.55336 -0.266172 0
M  V30 4505 C 426.623 2.25146 0.618981 0
M  V30 4506 C 427.604 1.23845 1.16604 0
M  V30 4507 O 428.789 1.52544 1.20183 0
M  V30 4508 C 425.919 2.96572 1.80728 0
M  V30 4509 C 424.873 4.04726 1.39215 0
M  V30 4510 C 424.199 4.63678 2.66283 0
M  V30 4511 C 425.499 5.19407 0.548942 0
M  V30 4512 H 427.193 2.99377 0.0368116 0
M  V30 4513 H 424.739 1.43991 0.0162651 0
M  V30 4514 H 426.692 3.44116 2.43232 0
M  V30 4515 H 425.416 2.19861 2.41514 0
M  V30 4516 H 424.075 3.57979 0.790351 0
M  V30 4517 H 423.723 3.83646 3.25308 0
M  V30 4518 H 423.423 5.367 2.39222 0
M  V30 4519 H 424.947 5.13967 3.29651 0
M  V30 4520 H 426.361 5.63059 1.07876 0
M  V30 4521 H 424.758 5.98936 0.373593 0
M  V30 4522 H 425.828 4.8295 -0.434394 0
M  V30 4523 N 427.171 -0.0066808 1.57599 0
M  V30 4524 C 428.101 -0.999296 2.11036 0
M  V30 4525 C 429.082 -1.36278 1.01795 0
M  V30 4526 O 430.267 -1.4477 1.29442 0
M  V30 4527 C 427.397 -2.29328 2.60818 0
M  V30 4528 C 426.351 -2.07159 3.74525 0
M  V30 4529 C 425.677 -3.42512 4.10596 0
M  V30 4530 C 426.977 -1.43959 5.02069 0
M  V30 4531 H 428.671 -0.554382 2.94223 0
M  V30 4532 H 426.217 -0.265221 1.41536 0
M  V30 4533 H 428.17 -2.99117 2.96828 0
M  V30 4534 H 426.894 -2.7592 1.74745 0
M  V30 4535 H 425.553 -1.39797 3.38899 0
M  V30 4536 H 425.201 -3.86795 3.21556 0
M  V30 4537 H 424.901 -3.28498 4.87199 0
M  V30 4538 H 426.425 -4.13628 4.4916 0
M  V30 4539 H 427.839 -2.03696 5.35893 0
M  V30 4540 H 426.236 -1.40452 5.83432 0
M  V30 4541 H 427.306 -0.407992 4.83181 0
M  V30 4542 N 428.649 -1.55105 -0.279332 0
M  V30 4543 C 430.065 -1.46803 -0.626187 0
M  V30 4544 C 430.265 -0.676939 -1.89789 0
M  V30 4545 O 429.321 -0.19326 -2.51759 0
M  V30 4546 C 430.634 -2.90962 -0.759034 0
M  V30 4547 C 432.182 -3.01138 -0.853504 0
M  V30 4548 C 432.657 -4.46539 -1.01818 0
M  V30 4549 N 434.148 -4.50341 -1.08386 0
M  V30 4550 C 434.883 -5.60053 -1.22996 0
M  V30 4551 N 434.379 -6.79645 -1.34366 0
M  V30 4552 N 436.172 -5.47783 -1.26056 0
M  V30 4553 H 428.323 -2.04996 0.555921 0
M  V30 4554 H 430.586 -0.929325 0.187239 0
M  V30 4555 H 430.292 -3.51544 0.104852 0
M  V30 4556 H 430.166 -3.39619 -1.64131 0
M  V30 4557 H 432.553 -2.40658 -1.70786 0
M  V30 4558 H 432.634 -2.55745 0.0532466 0
M  V30 4559 H 432.278 -5.0762 -0.168504 0
M  V30 4560 H 432.208 -4.89583 -1.93948 0
M  V30 4561 H 434.699 -3.64191 -1.00864 0
M  V30 4562 H 435.012 -7.59012 -1.4533 0
M  V30 4563 H 433.357 -6.82469 -1.31382 0
M  V30 4564 H 436.548 -4.53294 -1.168 0
M  V30 4565 H 436.721 -6.33331 -1.37098 0
M  V30 4566 N 430.127 0.543554 -1.4793 0
M  V30 4567 C 431.543 0.870806 -1.3375 0
M  V30 4568 C 431.743 1.9864 -0.338261 0
M  V30 4569 O 430.799 2.51305 0.245371 0
M  V30 4570 C 432.112 1.25114 -2.73435 0
M  V30 4571 C 433.66 1.3618 -2.81823 0
M  V30 4572 C 434.135 1.77563 -4.22179 0
M  V30 4573 N 435.626 1.8469 -4.24787 0
M  V30 4574 C 436.361 2.18067 -5.30315 0
M  V30 4575 N 435.857 2.49963 -6.46135 0
M  V30 4576 N 437.65 2.18958 -5.17701 0
M  V30 4577 H 429.801 -0.19275 -2.11524 0
M  V30 4578 H 432.064 -0.0235777 -0.947707 0
M  V30 4579 H 431.77 0.50514 -3.48053 0
M  V30 4580 H 431.644 2.20431 -3.06088 0
M  V30 4581 H 434.031 2.09859 -2.07468 0
M  V30 4582 H 434.112 0.390169 -2.52807 0
M  V30 4583 H 433.756 1.04449 -4.97044 0
M  V30 4584 H 433.686 2.75753 -4.48629 0
M  V30 4585 H 436.177 1.62372 -3.41239 0
M  V30 4586 H 436.49 2.74497 -7.22406 0
M  V30 4587 H 434.835 2.47513 -6.49432 0
M  V30 4588 H 438.026 1.93488 -4.2624 0
M  V30 4589 H 438.199 2.44639 -6.00047 0
M  V30 4590 N 431.605 1.3629 0.791371 0
M  V30 4591 C 432.852 1.30412 1.54916 0
M  V30 4592 C 433.18 -0.117162 1.94147 0
M  V30 4593 O 432.435 -1.08599 1.62803 0
M  V30 4594 C 432.734 2.17068 2.8393 0
M  V30 4595 C 432.4 3.65645 2.63846 0
M  V30 4596 C 431.062 4.0614 2.58077 0
M  V30 4597 C 433.414 4.59855 2.45322 0
M  V30 4598 C 430.742 5.3899 2.31748 0
M  V30 4599 C 433.094 5.9292 2.2052 0
M  V30 4600 C 431.758 6.32542 2.13183 0
M  V30 4601 H 431.028 0.47721 0.566879 0
M  V30 4602 H 433.675 1.68325 0.913172 0
M  V30 4603 H 431.98 1.72085 3.51986 0
M  V30 4604 H 433.677 2.09846 3.4171 0
M  V30 4605 H 430.267 3.33518 2.69191 0
M  V30 4606 H 434.451 4.29443 2.48782 0
M  V30 4607 H 429.707 5.68672 2.24548 0
M  V30 4608 H 433.881 6.65487 2.05182 0
M  V30 4609 H 431.508 7.35412 1.92544 0
M  V30 4610 N 433.083 -1.0153 1.20538 0
M  V30 4611 C 434.308 -1.79283 1.04271 0
M  V30 4612 C 434.733 -1.8372 -0.403544 0
M  V30 4613 O 434.091 -1.27321 -1.2907 0
M  V30 4614 C 434.139 -3.21535 1.63241 0
M  V30 4615 O 433.243 -4.03099 0.870908 0
M  V30 4616 H 432.584 -0.55293 0.367647 0
M  V30 4617 H 435.114 -1.27696 1.59859 0
M  V30 4618 H 435.124 -3.72243 1.6703 0
M  V30 4619 H 433.799 -3.1762 2.68497 0
M  V30 4620 H 432.376 -3.61693 0.907323 0
M  V30 4621 N 434.561 -1.01147 -1.20859 0
M  V30 4622 C 435.491 -0.597663 -2.25722 0
M  V30 4623 C 436.472 0.384744 -1.65692 0
M  V30 4624 O 437.657 0.271303 -1.92296 0
M  V30 4625 C 434.787 0.0700149 -3.47229 0
M  V30 4626 C 433.741 -0.832843 -4.19819 0
M  V30 4627 C 433.067 -0.0312202 -5.34691 0
M  V30 4628 C 434.367 -2.1385 -4.76514 0
M  V30 4629 H 436.061 -1.47423 -2.60589 0
M  V30 4630 H 433.607 -0.710301 -1.25263 0
M  V30 4631 H 435.56 0.37103 -4.19763 0
M  V30 4632 H 434.284 0.981259 -3.11511 0
M  V30 4633 H 432.943 -1.11778 -3.49144 0
M  V30 4634 H 432.591 0.881515 -4.95215 0
M  V30 4635 H 432.291 -0.632434 -5.84187 0
M  V30 4636 H 433.815 0.26346 -6.10031 0
M  V30 4637 H 435.229 -1.9002 -5.40893 0
M  V30 4638 H 433.626 -2.69012 -5.36426 0
M  V30 4639 H 434.696 -2.80495 -3.95538 0
M  V30 4640 N 436.039 1.36541 -0.78704 0
M  V30 4641 C 437.285 1.99599 -0.358872 0
M  V30 4642 C 437.618 1.62323 1.06606 0
M  V30 4643 O 436.893 0.876858 1.73613 0
M  V30 4644 C 437.176 3.56327 -0.519944 0
M  V30 4645 C 437.029 4.03464 -1.98839 0
M  V30 4646 C 438.348 4.4005 0.0664737 0
M  V30 4647 H 435.467 0.725107 -0.131869 0
M  V30 4648 H 438.109 1.6199 -0.992936 0
M  V30 4649 H 436.259 3.88495 0.0198321 0
M  V30 4650 H 437.931 3.81793 -2.58905 0
M  V30 4651 H 436.174 3.55092 -2.49183 0
M  V30 4652 H 436.845 5.12439 -2.05207 0
M  V30 4653 H 439.321 4.14228 -0.394267 0
M  V30 4654 H 438.197 5.48847 -0.0762682 0
M  V30 4655 H 438.458 4.26655 1.15835 0
M  V30 4656 N 437.518 0.538854 1.48102 0
M  V30 4657 C 438.481 -0.208395 2.28251 0
M  V30 4658 C 439.481 -0.859656 1.35892 0
M  V30 4659 O 440.671 -0.71834 1.58699 0
M  V30 4660 C 437.803 -1.30252 3.15035 0
M  V30 4661 H 438.996 0.495407 2.9578 0
M  V30 4662 H 436.549 0.295112 1.53489 0
M  V30 4663 H 437.284 -2.0393 2.52157 0
M  V30 4664 H 437.069 -0.840551 3.82985 0
M  V30 4665 H 438.559 -1.82787 3.75471 0
M  V30 4666 N 438.996 -1.55193 0.274407 0
M  V30 4667 C 440.273 -1.91584 -0.394331 0
M  V30 4668 C 440.653 -1.19858 -1.73774 0
M  V30 4669 O 440.001 -0.3252 -2.26174 0
M  V30 4670 C 440.211 -3.4487 -0.535311 0
M  V30 4671 C 441.559 -4.16636 -0.818534 0
M  V30 4672 O 442.583 -3.5076 -0.620146 0
M  V30 4673 O 441.442 -5.33209 -1.19792 0
M  V30 4674 H 438.536 -0.798349 -0.215794 0
M  V30 4675 H 441.082 -1.66646 0.320507 0
M  V30 4676 H 439.854 -3.89145 0.410141 0
M  V30 4677 H 439.477 -3.75759 -1.29964 0
M  V30 4678 N 440.474 -0.00167713 -1.576 0
M  V30 4679 C 441.722 0.681471 -1.90264 0
M  V30 4680 C 442.043 1.7422 -0.875924 0
M  V30 4681 O 441.313 1.95709 0.0864412 0
M  V30 4682 H 439.893 0.254696 -0.702239 0
M  V30 4683 H 442.555 -0.0429996 -1.94853 0
M  V30 4684 H 441.651 1.15166 -2.90075 0
M  V30 4685 N 441.952 1.55251 0.271103 0
M  V30 4686 C 443.368 1.47133 0.618393 0
M  V30 4687 C 443.568 0.686994 1.89427 0
M  V30 4688 O 442.624 0.206609 2.51653 0
M  V30 4689 C 443.937 2.91361 0.743593 0
M  V30 4690 C 445.485 3.01587 0.837522 0
M  V30 4691 C 445.96 4.47073 0.994483 0
M  V30 4692 N 447.451 4.50909 1.05996 0
M  V30 4693 C 448.186 5.60698 1.20024 0
M  V30 4694 N 447.682 6.80348 1.30759 0
M  V30 4695 N 449.475 5.48444 1.23149 0
M  V30 4696 H 441.626 2.04698 -0.566784 0
M  V30 4697 H 443.889 0.928319 -0.192165 0
M  V30 4698 H 443.595 3.51483 -0.123493 0
M  V30 4699 H 443.469 3.40484 1.62328 0
M  V30 4700 H 445.856 2.4156 1.69507 0
M  V30 4701 H 445.937 2.55713 -0.0668086 0
M  V30 4702 H 445.581 5.07703 0.141582 0
M  V30 4703 H 445.511 4.90605 1.91349 0
M  V30 4704 H 448.002 3.6472 0.989316 0
M  V30 4705 H 448.315 7.59772 1.41303 0
M  V30 4706 H 446.66 6.83156 1.27761 0
M  V30 4707 H 449.851 4.53907 1.14394 0
M  V30 4708 H 450.024 6.34049 1.33738 0
M  V30 4709 N 443.43 -0.535701 1.48216 0
M  V30 4710 C 444.679 -1.28828 1.55197 0
M  V30 4711 C 444.992 -1.94263 0.228278 0
M  V30 4712 O 446.198 -2.70927 0.176278 0
M  V30 4713 C 444.654 -2.33727 2.73678 0
M  V30 4714 C 444.262 -1.74386 4.12666 0
M  V30 4715 C 446.006 -3.1003 2.89968 0
M  V30 4716 C 443.913 -2.77192 5.22416 0
M  V30 4717 H 442.843 -0.484484 0.577747 0
M  V30 4718 H 445.494 -0.56646 1.74538 0
M  V30 4719 H 443.876 -3.08919 2.4776 0
M  V30 4720 H 445.05 -1.05421 4.48579 0
M  V30 4721 H 443.365 -1.10595 4.01445 0
M  V30 4722 H 445.962 -3.86842 3.6913 0
M  V30 4723 H 446.305 -3.65542 1.9921 0
M  V30 4724 H 446.838 -2.41952 3.15759 0
M  V30 4725 H 443.577 -2.26507 6.15122 0
M  V30 4726 H 443.097 -3.44502 4.90998 0
M  V30 4727 H 444.776 -3.40285 5.50286 0
M  V30 4728 N 444.908 -1.36708 -0.784132 0
M  V30 4729 C 445.838 -1.34153 -1.91116 0
M  V30 4730 C 446.819 -0.212121 -1.68772 0
M  V30 4731 O 448.004 -0.410581 -1.8981 0
M  V30 4732 C 445.134 -1.13535 -3.28218 0
M  V30 4733 C 444.088 -2.23356 -3.65097 0
M  V30 4734 C 443.414 -1.87875 -5.00607 0
M  V30 4735 C 444.714 -3.65473 -3.73131 0
M  V30 4736 H 446.408 -2.28459 -1.93512 0
M  V30 4737 H 443.954 -1.09973 -0.929618 0
M  V30 4738 H 445.907 -1.10381 -4.06687 0
M  V30 4739 H 444.631 -0.156804 -3.26223 0
M  V30 4740 H 443.29 -2.25645 -2.88929 0
M  V30 4741 H 442.938 -0.885814 -4.95139 0
M  V30 4742 H 442.638 -2.61406 -5.26252 0
M  V30 4743 H 444.162 -1.86286 -5.81489 0
M  V30 4744 H 445.576 -3.65382 -4.41779 0
M  V30 4745 H 443.973 -4.37953 -4.10265 0
M  V30 4746 H 445.043 -3.99995 -2.74102 0
M  V30 4747 N 446.386 1.0089 -1.21074 0
M  V30 4748 C 447.614 1.78191 -1.05145 0
M  V30 4749 C 448.029 1.84537 0.398952 0
M  V30 4750 O 447.386 1.30393 1.27687 0
M  V30 4751 C 447.437 3.22288 -1.63746 0
M  V30 4752 O 447.158 3.16315 -3.03111 0
M  V30 4753 C 448.659 4.16106 -1.52875 0
M  V30 4754 H 445.879 0.560129 -0.369454 0
M  V30 4755 H 448.423 1.26945 -1.60328 0
M  V30 4756 H 446.578 3.70655 -1.12664 0
M  V30 4757 H 446.992 4.06817 -3.31059 0
M  V30 4758 H 448.466 5.15026 -1.98626 0
M  V30 4759 H 448.943 4.36541 -0.482521 0
M  V30 4760 H 449.549 3.73625 -2.03185 0
M  V30 4761 N 447.864 1.01787 1.20321 0
M  V30 4762 C 449.089 0.727009 1.9424 0
M  V30 4763 C 449.514 -0.706179 1.74341 0
M  V30 4764 O 448.872 -1.48609 1.03852 0
M  V30 4765 C 448.92 1.06958 3.44372 0
M  V30 4766 O 448.024 0.181983 4.11998 0
M  V30 4767 H 447.365 0.269626 0.606793 0
M  V30 4768 H 449.895 1.36158 1.52716 0
M  V30 4769 H 449.905 1.02182 3.94997 0
M  V30 4770 H 448.58 2.11378 3.58179 0
M  V30 4771 H 447.157 0.287378 3.71791 0
M  V30 4772 N 449.342 -1.36122 0.79427 0
M  V30 4773 C 450.619 -1.93398 0.292685 0
M  V30 4774 C 450.999 -1.72567 -1.21589 0
M  V30 4775 O 450.347 -1.08745 -2.00965 0
M  V30 4776 C 450.557 -3.42099 0.690614 0
M  V30 4777 C 451.905 -4.19231 0.673105 0
M  V30 4778 O 452.929 -3.50559 0.631389 0
M  V30 4779 O 451.788 -5.41732 0.720362 0
M  V30 4780 H 448.882 -0.823712 0.0736693 0
M  V30 4781 H 451.428 -1.45273 0.87714 0
M  V30 4782 H 450.2 -3.50938 1.73085 0
M  V30 4783 H 449.823 -3.97519 0.0803036 0
M  V30 4784 N 450.82 -0.546701 -1.47814 0
M  V30 4785 C 452.05 -0.0232519 -2.06587 0
M  V30 4786 C 452.458 1.2712 -1.40133 0
M  V30 4787 O 451.801 1.77091 -0.488305 0
M  V30 4788 C 451.863 0.254117 -3.58601 0
M  V30 4789 C 451.527 -0.949331 -4.47031 0
M  V30 4790 C 452.524 -1.85216 -4.85789 0
M  V30 4791 C 450.209 -1.16104 -4.88697 0
M  V30 4792 C 452.203 -2.95047 -5.65001 0
M  V30 4793 C 449.89 -2.26247 -5.67676 0
M  V30 4794 C 450.888 -3.1555 -6.05737 0
M  V30 4795 O 450.576 -4.23784 -6.83127 0
M  V30 4796 H 450.308 -0.0380082 -0.674931 0
M  V30 4797 H 452.862 -0.756631 -1.90956 0
M  V30 4798 H 451.092 1.04168 -3.72406 0
M  V30 4799 H 452.781 0.72167 -3.99433 0
M  V30 4800 H 453.547 -1.70061 -4.54207 0
M  V30 4801 H 449.426 -0.475159 -4.58545 0
M  V30 4802 H 452.97 -3.64778 -5.94628 0
M  V30 4803 H 448.867 -2.41379 -5.98671 0
M  V30 4804 H 449.635 -4.21701 -7.01506 0
M  V30 4805 N 452.299 1.55045 -0.282633 0
M  V30 4806 C 453.209 2.26491 0.61147 0
M  V30 4807 C 454.225 1.29348 1.16384 0
M  V30 4808 O 455.401 1.62298 1.19253 0
M  V30 4809 C 452.466 2.97779 1.77563 0
M  V30 4810 C 451.527 4.10418 1.25919 0
M  V30 4811 C 450.76 4.78297 2.36786 0
M  V30 4812 O 450.983 4.45426 3.56303 0
M  V30 4813 O 449.917 5.66089 2.04517 0
M  V30 4814 H 453.743 3.03683 0.0324615 0
M  V30 4815 H 451.328 1.49317 -0.0497576 0
M  V30 4816 H 453.21 3.42554 2.45427 0
M  V30 4817 H 451.885 2.23498 2.34159 0
M  V30 4818 H 450.792 3.70082 0.546797 0
M  V30 4819 H 452.125 4.86622 0.738887 0
M  V30 4820 N 453.777 0.010035 1.57597 0
M  V30 4821 C 455.024 -0.6727 1.91 0
M  V30 4822 C 455.352 -1.73219 0.884614 0
M  V30 4823 O 454.607 -1.95395 -0.109215 0
M  V30 4824 C 454.906 -1.34434 3.31153 0
M  V30 4825 C 454.572 -0.417083 4.48967 0
M  V30 4826 C 453.234 -0.161809 4.80928 0
M  V30 4827 C 455.586 0.220753 5.20732 0
M  V30 4828 C 452.914 0.739426 5.82022 0
M  V30 4829 C 455.266 1.10993 6.22787 0
M  V30 4830 C 453.93 1.37428 6.532 0
M  V30 4831 H 453.2 -0.246158 0.698918 0
M  V30 4832 H 455.847 0.0677145 1.9138 0
M  V30 4833 H 454.152 -2.15905 3.26944 0
M  V30 4834 H 455.849 -1.87883 3.54261 0
M  V30 4835 H 452.439 -0.626217 4.24001 0
M  V30 4836 H 456.623 0.0365643 4.96287 0
M  V30 4837 H 451.879 0.952139 6.03941 0
M  V30 4838 H 456.053 1.61046 6.77523 0
M  V30 4839 H 453.68 2.0743 7.31353 0
M  V30 4840 N 455.255 -1.55392 -0.262866 0
M  V30 4841 C 456.205 -1.85355 -1.32768 0
M  V30 4842 C 457.189 -0.713188 -1.44231 0
M  V30 4843 O 458.381 -0.974765 -1.47741 0
M  V30 4844 C 455.51 -2.13781 -2.68612 0
M  V30 4845 C 454.596 -3.34104 -2.61219 0
M  V30 4846 N 454.987 -4.53766 -2.2345 0
M  V30 4847 C 453.285 -3.36895 -2.92263 0
M  V30 4848 C 453.986 -5.35877 -2.26298 0
M  V30 4849 N 452.962 -4.74536 -2.65172 0
M  V30 4850 H 456.764 -2.75413 -1.02591 0
M  V30 4851 H 454.278 -1.55405 -0.471503 0
M  V30 4852 H 456.275 -2.33407 -3.45437 0
M  V30 4853 H 454.935 -1.25013 -2.99669 0
M  V30 4854 H 455.946 -4.79682 -1.95258 0
M  V30 4855 H 452.623 -2.58351 -3.27965 0
M  V30 4856 H 454.013 -6.41577 -1.99572 0
M  V30 4857 N 456.733 0.527833 -1.48498 0
M  V30 4858 C 457.981 1.28101 -1.56316 0
M  V30 4859 C 458.302 1.9352 -0.239781 0
M  V30 4860 O 457.572 1.81433 0.738849 0
M  V30 4861 H 456.152 0.475793 -0.575873 0
M  V30 4862 H 458.814 0.614052 -1.84974 0
M  V30 4863 H 457.91 2.05916 -2.34532 0
M  V30 4864 N 458.211 1.37122 0.776871 0
M  V30 4865 C 459.457 1.32243 1.53752 0
M  V30 4866 C 459.79 -0.0944745 1.9397 0
M  V30 4867 O 459.065 -1.05068 1.6368 0
M  V30 4868 C 459.348 2.25681 2.80607 0
M  V30 4869 C 459.201 3.76127 2.46676 0
M  V30 4870 C 460.52 2.17657 3.82509 0
M  V30 4871 H 457.639 0.481704 0.557791 0
M  V30 4872 H 460.281 1.6778 0.891612 0
M  V30 4873 H 458.431 1.95505 3.35723 0
M  V30 4874 H 460.103 4.16877 1.97513 0
M  V30 4875 H 458.346 3.94946 1.79443 0
M  V30 4876 H 459.017 4.36933 3.37333 0
M  V30 4877 H 461.493 2.44245 3.36873 0
M  V30 4878 H 460.369 2.85185 4.69 0
M  V30 4879 H 460.63 1.16785 4.26396 0
M  V30 4880 N 459.689 -1.00246 1.21608 0
M  V30 4881 C 460.621 -2.09244 0.935401 0
M  V30 4882 C 461.634 -1.62592 -0.0823594 0
M  V30 4883 O 462.823 -1.77865 0.150456 0
M  V30 4884 C 459.923 -3.36724 0.383453 0
M  V30 4885 C 459.096 -4.1245 1.45615 0
M  V30 4886 C 458.155 -5.18219 0.912991 0
M  V30 4887 O 457.181 -5.46337 1.59701 0
M  V30 4888 N 458.383 -5.7987 -0.270478 0
M  V30 4889 H 461.148 -2.33905 1.87373 0
M  V30 4890 H 458.709 -1.16748 1.12167 0
M  V30 4891 H 460.701 -4.047 0.00562157 0
M  V30 4892 H 459.271 -3.09201 -0.459758 0
M  V30 4893 H 458.491 -3.39241 2.00772 0
M  V30 4894 H 459.779 -4.59819 2.17817 0
M  V30 4895 H 459.177 -5.59381 -0.843195 0
M  V30 4896 H 457.734 -6.49126 -0.589794 0
M  V30 4897 N 461.167 -1.02423 -1.1978 0
M  V30 4898 C 462.097 -0.62157 -2.25075 0
M  V30 4899 C 463.078 0.367148 -1.6609 0
M  V30 4900 O 464.263 0.250892 -1.92573 0
M  V30 4901 C 461.393 0.0331826 -3.47284 0
M  V30 4902 C 460.347 -0.877323 -4.18912 0
M  V30 4903 C 459.673 -0.0879296 -5.34628 0
M  V30 4904 C 460.973 -2.18892 -4.74219 0
M  V30 4905 H 462.667 -1.50179 -2.59011 0
M  V30 4906 H 460.213 -0.723547 -1.24502 0
M  V30 4907 H 462.166 0.326488 -4.20133 0
M  V30 4908 H 460.89 0.948164 -3.12534 0
M  V30 4909 H 459.549 -1.15475 -3.47938 0
M  V30 4910 H 459.197 0.828941 -4.96123 0
M  V30 4911 H 458.897 -0.694359 -5.83483 0
M  V30 4912 H 460.421 0.198743 -6.10276 0
M  V30 4913 H 461.835 -1.95746 -5.38847 0
M  V30 4914 H 460.232 -2.74686 -5.33542 0
M  V30 4915 H 461.302 -2.84674 -3.92541 0
M  V30 4916 N 462.645 1.35699 -0.801477 0
M  V30 4917 C 463.592 2.29876 -0.206294 0
M  V30 4918 C 464.562 1.52565 0.656752 0
M  V30 4919 O 465.747 1.81024 0.602906 0
M  V30 4920 C 462.887 3.39052 0.643272 0
M  V30 4921 C 462 4.31335 -0.239644 0
M  V30 4922 C 461.135 5.27599 0.61744 0
M  V30 4923 C 460.174 6.11521 -0.26619 0
M  V30 4924 N 459.311 6.99938 0.550571 0
M  V30 4925 H 464.151 2.80187 -1.01484 0
M  V30 4926 H 461.688 1.37902 -0.511997 0
M  V30 4927 H 463.646 4.0101 1.15094 0
M  V30 4928 H 462.276 2.9003 1.41713 0
M  V30 4929 H 461.328 3.70426 -0.865381 0
M  V30 4930 H 462.64 4.90243 -0.919985 0
M  V30 4931 H 461.794 5.94906 1.19045 0
M  V30 4932 H 460.533 4.69176 1.33137 0
M  V30 4933 H 459.538 5.43166 -0.851507 0
M  V30 4934 H 460.763 6.72022 -0.9779 0
M  V30 4935 H 458.709 6.44008 1.24856 0
M  V30 4936 H 458.626 7.55966 -0.071832 0
M  V30 4937 H 459.894 7.71599 1.10702 0
M  V30 4938 N 464.123 0.554532 1.47522 0
M  V30 4939 C 465.07 -0.19466 2.29978 0
M  V30 4940 C 466.04 -0.910882 1.38896 0
M  V30 4941 O 467.225 -0.907102 1.67858 0
M  V30 4942 C 464.365 -1.22035 3.22802 0
M  V30 4943 C 463.478 -0.510474 4.28973 0
M  V30 4944 C 462.613 -1.52123 5.08952 0
M  V30 4945 C 461.652 -0.796173 6.069 0
M  V30 4946 N 460.789 -1.75363 6.79847 0
M  V30 4947 H 465.629 0.51461 2.93523 0
M  V30 4948 H 463.166 0.265607 1.44682 0
M  V30 4949 H 465.124 -1.8276 3.7504 0
M  V30 4950 H 463.754 -1.89769 2.61127 0
M  V30 4951 H 462.806 0.211234 3.79813 0
M  V30 4952 H 464.118 0.0576503 4.98767 0
M  V30 4953 H 463.272 -2.20207 5.65326 0
M  V30 4954 H 462.011 -2.12327 4.39054 0
M  V30 4955 H 461.016 -0.101388 5.49707 0
M  V30 4956 H 462.241 -0.199911 6.78806 0
M  V30 4957 H 460.187 -2.3443 6.12682 0
M  V30 4958 H 460.104 -1.23759 7.45801 0
M  V30 4959 H 461.372 -2.4257 7.40797 0
M  V30 4960 N 465.601 -1.54893 0.290851 0
M  V30 4961 C 466.849 -1.99538 -0.320756 0
M  V30 4962 C 467.17 -1.18075 -1.55188 0
M  V30 4963 O 466.44 -0.274162 -1.93972 0
M  V30 4964 H 465.02 -0.737052 -0.121507 0
M  V30 4965 H 467.682 -1.90755 0.399832 0
M  V30 4966 H 466.778 -3.06282 -0.599802 0
M  V30 4967 N 467.08 -0.0183926 -1.57589 0
M  V30 4968 C 468.357 0.700621 -1.82622 0
M  V30 4969 C 468.737 1.90951 -0.90005 0
M  V30 4970 O 468.085 2.28452 0.0469145 0
M  V30 4971 C 468.295 1.08899 -3.31575 0
M  V30 4972 C 469.643 1.48514 -3.9778 0
M  V30 4973 O 470.667 1.18227 -3.36007 0
M  V30 4974 O 469.526 2.04903 -5.06633 0
M  V30 4975 H 466.62 0.342743 -0.752633 0
M  V30 4976 H 469.166 -0.0452548 -1.6964 0
M  V30 4977 H 467.938 0.228113 -3.90635 0
M  V30 4978 H 467.561 1.89338 -3.49624 0
M  V30 4979 N 468.558 1.5553 0.254621 0
M  V30 4980 C 469.49 1.86104 1.33783 0
M  V30 4981 C 470.503 0.746752 1.44663 0
M  V30 4982 O 471.692 1.0248 1.46151 0
M  V30 4983 C 468.792 2.02532 2.71724 0
M  V30 4984 C 467.965 3.33335 2.83208 0
M  V30 4985 C 467.024 3.396 4.01943 0
M  V30 4986 O 466.05 4.12862 3.91834 0
M  V30 4987 N 467.252 2.68332 5.1476 0
M  V30 4988 H 470.017 2.79605 1.07893 0
M  V30 4989 H 467.578 1.55672 0.444732 0
M  V30 4990 H 469.57 2.04074 3.4948 0
M  V30 4991 H 468.14 1.15811 2.90356 0
M  V30 4992 H 467.36 3.44176 1.92189 0
M  V30 4993 H 468.648 4.19565 2.87824 0
M  V30 4994 H 468.046 2.08528 5.25864 0
M  V30 4995 H 466.603 2.75575 5.90679 0
M  V30 4996 N 470.036 -0.519951 1.48776 0
M  V30 4997 C 471.285 -1.27175 1.56555 0
M  V30 4998 C 471.598 -1.9401 0.248869 0
M  V30 4999 O 472.804 -2.70725 0.205004 0
M  V30 5000 C 471.26 -2.30811 2.76142 0
M  V30 5001 C 470.868 -1.7 4.14493 0
M  V30 5002 C 472.612 -3.06937 2.9324 0
M  V30 5003 C 470.519 -2.71635 5.25327 0
M  V30 5004 H 469.449 -0.478329 0.582853 0
M  V30 5005 H 472.1 -0.547916 1.75129 0
M  V30 5006 H 470.482 -3.06274 2.51023 0
M  V30 5007 H 471.656 -1.00658 4.49672 0
M  V30 5008 H 469.971 -1.06331 4.02595 0
M  V30 5009 H 472.568 -3.82905 3.73213 0
M  V30 5010 H 472.911 -3.63409 2.03075 0
M  V30 5011 H 473.444 -2.38589 3.18308 0
M  V30 5012 H 470.183 -2.1997 6.1749 0
M  V30 5013 H 469.703 -3.39275 4.94624 0
M  V30 5014 H 471.382 -3.34429 5.53865 0
M  V30 5015 N 471.514 -1.37532 -0.769588 0
M  V30 5016 C 472.444 -1.36172 -1.89682 0
M  V30 5017 C 473.425 -0.23001 -1.68538 0
M  V30 5018 O 474.61 -0.43069 -1.89364 0
M  V30 5019 C 471.74 -1.1701 -3.26995 0
M  V30 5020 C 470.694 -2.27216 -3.62708 0
M  V30 5021 C 470.02 -1.93174 -4.98586 0
M  V30 5022 C 471.32 -3.6941 -3.69234 0
M  V30 5023 H 473.014 -2.30499 -1.91078 0
M  V30 5024 H 470.56 -1.10953 -0.917902 0
M  V30 5025 H 472.513 -1.14688 -4.05493 0
M  V30 5026 H 471.237 -0.191395 -3.26039 0
M  V30 5027 H 469.896 -2.28697 -2.86519 0
M  V30 5028 H 469.544 -0.938281 -4.94171 0
M  V30 5029 H 469.244 -2.66973 -5.23449 0
M  V30 5030 H 470.768 -1.92443 -5.79481 0
M  V30 5031 H 472.182 -3.70047 -4.37879 0
M  V30 5032 H 470.579 -4.4228 -4.05597 0
M  V30 5033 H 471.649 -4.0288 -2.69844 0
M  V30 5034 N 472.992 0.995999 -1.22138 0
M  V30 5035 C 473.922 2.10387 -1.01289 0
M  V30 5036 C 474.903 1.69975 0.0651454 0
M  V30 5037 O 476.088 1.9396 -0.0964628 0
M  V30 5038 C 473.218 3.42312 -0.586517 0
M  V30 5039 C 472.172 3.96558 -1.61014 0
M  V30 5040 C 471.498 5.24494 -1.0397 0
M  V30 5041 C 472.798 4.27595 -2.99933 0
M  V30 5042 H 474.492 2.28086 -1.93951 0
M  V30 5043 H 472.038 1.09607 -0.933928 0
M  V30 5044 H 473.991 4.19223 -0.427793 0
M  V30 5045 H 472.715 3.24431 0.375761 0
M  V30 5046 H 471.374 3.21776 -1.75658 0
M  V30 5047 H 471.022 5.02953 -0.0688703 0
M  V30 5048 H 470.722 5.61755 -1.72352 0
M  V30 5049 H 472.246 6.04042 -0.892494 0
M  V30 5050 H 473.66 4.95315 -2.8868 0
M  V30 5051 H 472.057 4.76021 -3.6541 0
M  V30 5052 H 473.127 3.35498 -3.50099 0
M  V30 5053 N 474.47 1.03057 1.19235 0
M  V30 5054 C 475.881 0.757449 1.70645 0
M  V30 5055 C 476.232 -0.722735 1.82403 0
M  V30 5056 O 475.357 -1.56325 1.49638 0
M  V30 5057 C 475.952 1.36833 3.09939 0
M  V30 5058 C 474.511 1.14375 3.58602 0
M  V30 5059 C 473.658 1.46533 2.35422 0
M  V30 5060 H 476.609 1.19828 1.04052 0
M  V30 5061 H 476.63 0.766184 3.72706 0
M  V30 5062 H 476.142 2.44562 3.01349 0
M  V30 5063 H 474.243 0.0847542 3.72504 0
M  V30 5064 H 474.356 1.83366 4.42622 0
M  V30 5065 H 472.72 0.884712 2.38841 0
M  V30 5066 H 473.503 2.55349 2.2946 0
M  V30 5067 N 475.948 -1.35272 0.808662 0
M  V30 5068 C 476.88 -2.28507 0.178149 0
M  V30 5069 C 477.893 -1.50377 -0.623754 0
M  V30 5070 O 479.082 -1.72583 -0.455774 0
M  V30 5071 C 476.182 -3.30038 -0.769959 0
M  V30 5072 C 475.355 -4.37398 -0.0139749 0
M  V30 5073 C 474.414 -5.18775 -0.880875 0
M  V30 5074 O 473.44 -5.68236 -0.331059 0
M  V30 5075 N 474.642 -5.37087 -2.20267 0
M  V30 5076 H 477.407 -2.83255 0.979106 0
M  V30 5077 H 474.968 -1.47643 0.664308 0
M  V30 5078 H 476.96 -3.81371 -1.35418 0
M  V30 5079 H 475.53 -2.75789 -1.47171 0
M  V30 5080 H 474.75 -3.86971 0.751468 0
M  V30 5081 H 476.038 -5.06268 0.506965 0
M  V30 5082 H 475.436 -4.9855 -2.67328 0
M  V30 5083 H 473.993 -5.91593 -2.73608 0
M  V30 5084 N 477.426 -0.562348 -1.47226 0
M  V30 5085 C 478.359 0.230405 -2.27034 0
M  V30 5086 C 479.337 0.915609 -1.3437 0
M  V30 5087 O 480.521 0.933573 -1.63758 0
M  V30 5088 C 477.648 1.32874 -3.11548 0
M  V30 5089 C 476.694 0.751552 -4.19826 0
M  V30 5090 S 477.527 -0.405848 -5.3396 0
M  V30 5091 C 478.683 0.694186 -6.22038 0
M  V30 5092 H 478.916 -0.446811 -2.93923 0
M  V30 5093 H 476.449 -0.348781 -1.50409 0
M  V30 5094 H 478.407 1.95773 -3.60809 0
M  V30 5095 H 477.068 1.97782 -2.44011 0
M  V30 5096 H 476.261 1.57651 -4.78709 0
M  V30 5097 H 475.863 0.198645 -3.73472 0
M  V30 5098 H 478.155 1.58501 -6.58698 0
M  V30 5099 H 479.098 0.142592 -7.07956 0
M  V30 5100 H 479.506 0.989169 -5.55766 0
M  V30 5101 N 478.904 1.54736 -0.299062 0
M  V30 5102 C 479.834 2.26409 0.571085 0
M  V30 5103 C 480.815 1.2629 1.13951 0
M  V30 5104 O 482 1.55059 1.16921 0
M  V30 5105 C 479.13 3.00338 1.74396 0
M  V30 5106 C 478.084 4.07588 1.30599 0
M  V30 5107 C 477.41 4.69222 2.56387 0
M  V30 5108 C 478.71 5.20455 0.438645 0
M  V30 5109 H 480.404 2.99388 -0.0266991 0
M  V30 5110 H 477.95 1.43993 -0.0142812 0
M  V30 5111 H 479.903 3.49198 2.35878 0
M  V30 5112 H 478.627 2.24934 2.36796 0
M  V30 5113 H 477.286 3.59575 0.71424 0
M  V30 5114 H 476.934 3.9046 3.17097 0
M  V30 5115 H 476.634 5.41653 2.27784 0
M  V30 5116 H 478.158 5.20844 3.18675 0
M  V30 5117 H 479.572 5.65221 0.959085 0
M  V30 5118 H 477.969 5.99594 0.246466 0
M  V30 5119 H 479.039 4.8192 -0.536738 0
M  V30 5120 N 480.382 0.0267497 1.57577 0
M  V30 5121 C 481.607 -0.666227 1.96408 0
M  V30 5122 C 482.032 -1.65004 0.903071 0
M  V30 5123 O 481.39 -1.80787 -0.136263 0
M  V30 5124 C 481.438 -1.35101 3.34335 0
M  V30 5125 O 480.542 -2.46623 3.30531 0
M  V30 5126 H 479.883 -0.175206 0.640468 0
M  V30 5127 H 482.413 0.0878977 2.04411 0
M  V30 5128 H 482.423 -1.70834 3.70513 0
M  V30 5129 H 481.098 -0.629844 4.11103 0
M  V30 5130 H 479.675 -2.13019 3.06068 0
M  V30 5131 N 481.861 -1.55662 -0.24637 0
M  V30 5132 C 483.109 -1.77168 -0.972411 0
M  V30 5133 C 483.43 -0.590827 -1.85834 0
M  V30 5134 O 482.7 0.393365 -1.9191 0
M  V30 5135 H 481.28 -0.653405 -0.362038 0
M  V30 5136 H 483.942 -1.93101 -0.264189 0
M  V30 5137 H 483.038 -2.68335 -1.59382 0
M  V30 5138 N 483.339 0.512053 -1.4905 0
M  V30 5139 C 484.269 1.62365 -1.67809 0
M  V30 5140 C 485.25 1.61737 -0.526809 0
M  V30 5141 O 486.435 1.78651 -0.761404 0
M  V30 5142 C 483.565 3.00895 -1.73435 0
M  V30 5143 C 482.519 3.16387 -2.88242 0
M  V30 5144 C 481.845 4.56157 -2.78971 0
M  V30 5145 C 483.145 2.97457 -4.29321 0
M  V30 5146 H 484.839 1.46921 -2.60873 0
M  V30 5147 H 482.385 0.705379 -1.2554 0
M  V30 5148 H 484.338 3.78549 -1.85145 0
M  V30 5149 H 483.062 3.17403 -0.769619 0
M  V30 5150 H 481.721 2.41155 -2.76116 0
M  V30 5151 H 481.369 4.69525 -1.8043 0
M  V30 5152 H 481.069 4.67465 -3.5602 0
M  V30 5153 H 482.593 5.35886 -2.92675 0
M  V30 5154 H 484.007 3.64888 -4.42187 0
M  V30 5155 H 482.404 3.20245 -5.07507 0
M  V30 5156 H 483.474 1.93692 -4.44535 0
M  V30 5157 N 484.817 1.37938 0.762283 0
M  V30 5158 C 486.094 1.24196 1.51112 0
M  V30 5159 C 486.474 -0.160409 2.1049 0
M  V30 5160 O 485.822 -1.16904 1.96331 0
M  V30 5161 C 486.032 2.34537 2.58445 0
M  V30 5162 C 487.38 2.7254 3.25588 0
M  V30 5163 O 488.404 2.33783 2.68745 0
M  V30 5164 O 487.263 3.39343 4.28379 0
M  V30 5165 H 484.357 0.485175 0.669727 0
M  V30 5166 H 486.903 1.49743 0.798438 0
M  V30 5167 H 485.675 3.28406 2.12756 0
M  V30 5168 H 485.298 2.10505 3.37303 0
M  V30 5169 N 486.295 -0.989507 1.22664 0
M  V30 5170 C 487.205 -2.11449 1.01619 0
M  V30 5171 C 488.221 -1.73962 -0.036545 0
M  V30 5172 O 489.397 -2.00788 0.156924 0
M  V30 5173 C 486.462 -3.41465 0.600204 0
M  V30 5174 C 485.523 -3.93033 1.72695 0
M  V30 5175 C 484.756 -5.16844 1.33071 0
M  V30 5176 O 484.979 -5.7001 0.210975 0
M  V30 5177 O 483.913 -5.6225 2.14845 0
M  V30 5178 H 487.739 -2.32088 1.9588 0
M  V30 5179 H 485.324 -1.09823 1.01289 0
M  V30 5180 H 487.206 -4.19695 0.37873 0
M  V30 5181 H 485.881 -3.22178 -0.313511 0
M  V30 5182 H 484.788 -3.15961 2.00298 0
M  V30 5183 H 486.121 -4.16758 2.61865 0
M  V30 5184 N 487.773 -1.03688 -1.18687 0
M  V30 5185 C 489.189 -0.755413 -1.4059 0
M  V30 5186 C 489.389 0.656659 -1.905 0
M  V30 5187 O 488.445 1.42144 -2.08689 0
M  V30 5188 C 489.758 -1.7983 -2.41001 0
M  V30 5189 C 491.306 -1.81877 -2.54735 0
M  V30 5190 C 491.781 -2.85148 -3.58406 0
M  V30 5191 N 493.272 -2.84015 -3.6591 0
M  V30 5192 C 494.007 -3.60573 -4.45841 0
M  V30 5193 N 493.503 -4.46871 -5.29413 0
M  V30 5194 N 495.296 -3.49079 -4.40568 0
M  V30 5195 H 487.447 -1.94818 -0.846148 0
M  V30 5196 H 489.71 -0.842727 -0.434184 0
M  V30 5197 H 489.416 -2.81097 -2.1137 0
M  V30 5198 H 489.29 -1.62727 -3.40294 0
M  V30 5199 H 491.677 -0.812836 -2.83685 0
M  V30 5200 H 491.758 -2.03057 -1.55568 0
M  V30 5201 H 491.402 -3.85918 -3.30197 0
M  V30 5202 H 491.332 -2.61224 -4.57241 0
M  V30 5203 H 493.823 -2.21431 -3.0623 0
M  V30 5204 H 494.136 -5.02007 -5.87545 0
M  V30 5205 H 492.481 -4.5094 -5.28846 0
M  V30 5206 H 495.672 -2.81066 -3.74325 0
M  V30 5207 H 495.845 -4.08994 -5.02621 0
M  V30 5208 N 489.251 1.34841 -0.815825 0
M  V30 5209 C 490.161 2.33425 -0.234462 0
M  V30 5210 C 491.177 1.62295 0.627413 0
M  V30 5211 O 492.353 1.94109 0.536987 0
M  V30 5212 C 489.418 3.41471 0.599849 0
M  V30 5213 C 488.479 4.28362 -0.283596 0
M  V30 5214 C 487.712 5.31248 0.51099 0
M  V30 5215 O 487.935 5.43056 1.7449 0
M  V30 5216 O 486.869 6.01812 -0.10297 0
M  V30 5217 H 490.695 2.84962 -1.05024 0
M  V30 5218 H 488.28 1.37774 -0.577809 0
M  V30 5219 H 490.162 4.07464 1.07475 0
M  V30 5220 H 488.837 2.9219 1.39308 0
M  V30 5221 H 487.744 3.65318 -0.805836 0
M  V30 5222 H 489.077 4.81066 -1.041 0
M  V30 5223 N 490.729 0.570148 1.46925 0
M  V30 5224 C 491.677 -0.183181 2.31878 0
M  V30 5225 C 492.671 -0.896721 1.43719 0
M  V30 5226 O 493.877 -0.816536 1.60414 0
M  V30 5227 H 490.252 -0.077944 0.74795 0
M  V30 5228 H 492.223 0.552312 2.93244 0
M  V30 5229 C 490.972 -1.19172 3.2664 0
M  V30 5230 H 490.295 -0.652088 3.94446 0
M  V30 5231 H 491.735 -1.68946 3.88887 0
M  V30 5232 C 490.194 -2.24627 2.51086 0
M  V30 5233 O 490.724 -3.31773 2.26472 0
M  V30 5234 N 488.93 -1.98898 2.11867 0
M  V30 5235 H 488.477 -1.11777 2.32086 0
M  V30 5236 H 488.435 -2.6967 1.61634 0
M  V30 5237 N 492.207 -1.54576 0.307264 0
M  V30 5238 C 493.17 -2.22423 -0.553224 0
M  V30 5239 C 494.17 -1.21231 -1.05639 0
M  V30 5240 O 495.36 -1.45923 -0.951419 0
M  V30 5241 C 492.492 -2.91552 -1.76664 0
M  V30 5242 H 493.685 -2.99874 0.0396484 0
M  V30 5243 H 491.238 -1.56192 0.0581629 0
M  V30 5244 H 491.973 -2.18196 -2.39918 0
M  V30 5245 H 491.758 -3.65738 -1.41343 0
M  V30 5246 H 493.248 -3.43292 -2.37783 0
M  V30 5247 N 493.685 -0.035106 -1.57561 0
M  V30 5248 C 494.925 0.646316 -1.93913 0
M  V30 5249 C 495.289 1.68947 -0.912185 0
M  V30 5250 O 496.49 2.42381 -1.1621 0
M  V30 5251 C 494.761 1.24136 -3.35149 0
M  V30 5252 S 496.32 1.94302 -3.93436 0
M  V30 5253 H 493.138 0.212642 -0.678457 0
M  V30 5254 H 495.74 -0.100203 -1.95243 0
M  V30 5255 H 494.444 0.46979 -4.07702 0
M  V30 5256 H 493.975 2.02505 -3.37276 0
M  V30 5257 H 495.99 3.22205 -3.77357 0
M  V30 5258 N 495.163 1.55791 0.238111 0
M  V30 5259 C 496.574 1.68383 0.806472 0
M  V30 5260 C 496.925 0.634157 1.85669 0
M  V30 5261 O 496.05 -0.217913 2.153 0
M  V30 5262 C 496.645 3.05268 1.46959 0
M  V30 5263 C 495.204 3.1977 1.98555 0
M  V30 5264 C 494.351 2.64279 0.839763 0
M  V30 5265 H 497.302 1.58694 0.0137535 0
M  V30 5266 H 497.323 3.00203 2.33792 0
M  V30 5267 H 496.835 3.81643 0.704993 0
M  V30 5268 H 494.936 2.48234 2.77868 0
M  V30 5269 H 495.049 4.26788 2.17689 0
M  V30 5270 H 493.413 2.22329 1.24265 0
M  V30 5271 H 494.196 3.43187 0.0881032 0
M  V30 5272 N 496.642 -0.504142 1.49319 0
M  V30 5273 C 497.575 -1.62361 1.60356 0
M  V30 5274 C 498.553 -1.56169 0.45277 0
M  V30 5275 O 499.737 -1.76271 0.667892 0
M  V30 5276 C 496.864 -3.00864 1.55559 0
M  V30 5277 C 495.91 -3.25328 2.75797 0
M  V30 5278 S 496.743 -3.08791 4.37503 0
M  V30 5279 C 497.899 -4.49695 4.35345 0
M  V30 5280 H 498.132 -1.52753 2.55056 0
M  V30 5281 H 495.665 -0.689065 1.38171 0
M  V30 5282 H 497.623 -3.8073 1.53477 0
M  V30 5283 H 496.284 -3.0789 0.621515 0
M  V30 5284 H 495.477 -4.2643 2.68651 0
M  V30 5285 H 495.079 -2.53179 2.75275 0
M  V30 5286 H 497.371 -5.41721 4.06871 0
M  V30 5287 H 498.314 -4.61891 5.36714 0
M  V30 5288 H 498.722 -4.30227 3.65465 0
M  V30 5289 N 498.12 -1.38341 -0.754957 0
M  V30 5290 C 499.07 -1.31964 -1.85929 0
M  V30 5291 C 500.054 -0.204181 -1.59599 0
M  V30 5292 O 501.246 -0.440036 -1.71443 0
M  V30 5293 C 498.375 -1.14565 -3.2362 0
M  V30 5294 C 497.461 -2.30727 -3.55846 0
M  V30 5295 N 497.852 -3.56165 -3.59138 0
M  V30 5296 C 496.15 -2.23249 -3.86104 0
M  V30 5297 C 496.851 -4.32865 -3.88591 0
M  V30 5298 N 495.827 -3.62203 -4.05351 0
M  V30 5299 H 499.629 -2.2694 -1.8675 0
M  V30 5300 H 497.143 -1.31553 -0.952243 0
M  V30 5301 H 499.14 -1.0808 -4.02647 0
M  V30 5302 H 497.8 -0.205212 -3.24051 0
M  V30 5303 H 498.811 -3.89854 -3.40932 0
M  V30 5304 H 495.488 -1.37357 -3.94258 0
M  V30 5305 H 496.878 -5.41504 -3.97773 0
M  V30 5306 N 499.598 0.982988 -1.23187 0
M  V30 5307 C 500.844 1.72648 -1.06398 0
M  V30 5308 C 501.177 1.90066 0.398561 0
M  V30 5309 O 500.452 1.45105 1.29518 0
M  V30 5310 C 500.735 3.12627 -1.78707 0
M  V30 5311 C 500.588 3.02795 -3.32618 0
M  V30 5312 C 501.907 4.11997 -1.54747 0
M  V30 5313 H 499.026 0.626649 -0.387918 0
M  V30 5314 H 501.668 1.14455 -1.51658 0
M  V30 5315 H 499.818 3.62308 -1.40234 0
M  V30 5316 H 501.49 2.60659 -3.80598 0
M  V30 5317 H 499.733 2.39362 -3.61785 0
M  V30 5318 H 500.404 4.01893 -3.78399 0
M  V30 5319 H 502.88 3.71114 -1.88186 0
M  V30 5320 H 501.756 5.08037 -2.07821 0
M  V30 5321 H 502.017 4.39462 -0.482249 0
M  V30 5322 N 501.076 1.04316 1.18135 0
M  V30 5323 C 502.353 0.662166 1.84051 0
M  V30 5324 C 502.733 -0.858169 1.9287 0
M  V30 5325 O 502.081 -1.76062 1.45652 0
M  V30 5326 C 502.291 1.3409 3.22212 0
M  V30 5327 C 503.639 1.4733 3.9822 0
M  V30 5328 O 504.663 1.29921 3.31661 0
M  V30 5329 O 503.522 1.75722 5.17479 0
M  V30 5330 H 500.616 0.232005 0.79379 0
M  V30 5331 H 503.162 1.1422 1.25506 0
M  V30 5332 H 501.934 2.37853 3.10711 0
M  V30 5333 H 501.557 0.849649 3.88416 0
M  V30 5334 N 502.554 -1.34406 0.822964 0
M  V30 5335 C 503.801 -1.98284 0.411057 0
M  V30 5336 C 504.129 -1.65245 -1.02588 0
M  V30 5337 O 503.384 -0.91619 -1.72929 0
M  V30 5338 C 503.683 -3.52981 0.560268 0
M  V30 5339 C 503.349 -4.05931 1.96293 0
M  V30 5340 C 502.011 -4.20103 2.34664 0
M  V30 5341 C 504.363 -4.34412 2.87985 0
M  V30 5342 C 501.691 -4.60082 3.64062 0
M  V30 5343 C 504.043 -4.75838 4.16847 0
M  V30 5344 C 502.707 -4.88215 4.55195 0
M  V30 5345 H 501.977 -0.725573 0.150416 0
M  V30 5346 H 504.624 -1.60349 1.04692 0
M  V30 5347 H 502.929 -3.91477 -0.158982 0
M  V30 5348 H 504.626 -4.00385 0.222087 0
M  V30 5349 H 501.216 -3.95363 1.65487 0
M  V30 5350 H 505.4 -4.23001 2.59584 0
M  V30 5351 H 500.656 -4.67856 3.93599 0
M  V30 5352 H 504.83 -4.96834 4.87984 0
M  V30 5353 H 502.457 -5.18952 5.55512 0
M  V30 5354 N 504.032 -0.577932 -1.46621 0
M  V30 5355 C 505.257 -0.0652536 -2.07297 0
M  V30 5356 C 505.682 1.22828 -1.4246 0
M  V30 5357 O 505.04 1.74075 -0.506718 0
M  V30 5358 C 505.088 0.0920589 -3.60482 0
M  V30 5359 O 504.192 1.14972 -3.96049 0
M  V30 5360 H 503.533 -0.06065 -0.661224 0
M  V30 5361 H 506.063 -0.799515 -1.88332 0
M  V30 5362 H 506.073 0.299741 -4.06897 0
M  V30 5363 H 504.748 -0.852612 -4.07067 0
M  V30 5364 H 503.325 0.920879 -3.61351 0
M  V30 5365 N 505.51 1.54411 -0.315457 0
M  V30 5366 C 506.926 1.59556 0.037464 0
M  V30 5367 C 507.126 1.33217 1.5118 0
M  V30 5368 O 506.182 1.11264 2.26664 0
M  V30 5369 C 507.495 2.98372 -0.373477 0
M  V30 5370 C 509.043 3.11324 -0.323452 0
M  V30 5371 C 509.518 4.52472 -0.709433 0
M  V30 5372 N 511.009 4.58437 -0.662524 0
M  V30 5373 C 511.744 5.65751 -0.933474 0
M  V30 5374 N 511.24 6.81039 -1.27114 0
M  V30 5375 N 513.033 5.55489 -0.859573 0
M  V30 5376 H 505.184 1.6979 -1.27614 0
M  V30 5377 H 507.447 0.793732 -0.518356 0
M  V30 5378 H 507.153 3.22618 -1.40037 0
M  V30 5379 H 507.027 3.76264 0.265615 0
M  V30 5380 H 509.414 2.86818 0.694223 0
M  V30 5381 H 509.495 2.35555 -0.997367 0
M  V30 5382 H 509.139 4.7771 -1.72498 0
M  V30 5383 H 509.069 5.26598 -0.0132923 0
M  V30 5384 H 511.56 3.75636 -0.413065 0
M  V30 5385 H 511.873 7.58816 -1.46348 0
M  V30 5386 H 510.218 6.82555 -1.30932 0
M  V30 5387 H 513.409 4.64299 -0.595324 0
M  V30 5388 H 513.582 6.39036 -1.0741 0
M  V30 5389 N 506.988 0.0434614 1.5754 0
M  V30 5390 C 507.92 -0.962586 2.08007 0
M  V30 5391 C 508.933 -1.27972 1.00634 0
M  V30 5392 O 510.122 -1.24186 1.28219 0
M  V30 5393 C 507.222 -2.28621 2.50171 0
M  V30 5394 C 506.395 -2.15214 3.80791 0
M  V30 5395 C 505.454 -3.30633 4.09351 0
M  V30 5396 O 504.48 -3.0688 4.79388 0
M  V30 5397 N 505.682 -4.54873 3.60654 0
M  V30 5398 H 508.447 -0.531891 2.94942 0
M  V30 5399 H 506.008 -0.142965 1.61268 0
M  V30 5400 H 508 -3.04689 2.66359 0
M  V30 5401 H 506.57 -2.63283 1.68525 0
M  V30 5402 H 505.79 -1.23785 3.74261 0
M  V30 5403 H 507.078 -2.03475 4.66343 0
M  V30 5404 H 506.476 -4.77063 3.04019 0
M  V30 5405 H 505.033 -5.2806 3.82094 0
M  V30 5406 N 508.466 -1.55915 -0.229846 0
M  V30 5407 C 509.413 -1.91734 -1.28478 0
M  V30 5408 C 510.383 -0.773539 -1.46988 0
M  V30 5409 O 511.568 -1.02871 -1.60693 0
M  V30 5410 C 508.708 -2.23224 -2.63182 0
M  V30 5411 C 507.821 -3.50497 -2.52539 0
M  V30 5412 C 506.956 -3.71474 -3.79711 0
M  V30 5413 C 505.995 -4.92289 -3.63755 0
M  V30 5414 N 505.132 -5.09698 -4.82858 0
M  V30 5415 H 509.972 -2.81692 -0.972308 0
M  V30 5416 H 507.509 -1.39429 -0.468815 0
M  V30 5417 H 509.467 -2.3949 -3.41614 0
M  V30 5418 H 508.097 -1.36451 -2.92542 0
M  V30 5419 H 507.149 -3.4247 -1.65585 0
M  V30 5420 H 508.461 -4.39079 -2.36666 0
M  V30 5421 H 507.615 -3.87791 -4.66586 0
M  V30 5422 H 506.354 -2.81157 -3.985 0
M  V30 5423 H 505.359 -4.7593 -2.75264 0
M  V30 5424 H 506.584 -5.84083 -3.46445 0
M  V30 5425 H 504.53 -4.22322 -5.01976 0
M  V30 5426 H 504.447 -5.92399 -4.69681 0
M  V30 5427 H 505.715 -5.30443 -5.71183 0
M  V30 5428 N 509.944 0.496216 -1.49584 0
M  V30 5429 C 511.19 1.25189 -1.59548 0
M  V30 5430 C 511.523 1.9212 -0.283466 0
M  V30 5431 O 510.798 1.80947 0.713324 0
M  V30 5432 C 511.081 2.31516 -2.75812 0
M  V30 5433 C 510.934 1.69054 -4.16822 0
M  V30 5434 C 512.253 3.3304 -2.87702 0
M  V30 5435 H 509.372 0.45379 -0.580727 0
M  V30 5436 H 512.014 0.549327 -1.81886 0
M  V30 5437 H 510.164 2.91438 -2.56897 0
M  V30 5438 H 511.836 1.12923 -4.47265 0
M  V30 5439 H 510.079 0.994485 -4.22247 0
M  V30 5440 H 510.75 2.462 -4.94054 0
M  V30 5441 H 513.226 2.83114 -3.04936 0
M  V30 5442 H 512.102 4.04794 -3.7072 0
M  V30 5443 H 512.363 3.95655 -1.97255 0
M  V30 5444 N 511.423 1.38739 0.74761 0
M  V30 5445 C 512.648 1.38702 1.54197 0
M  V30 5446 C 513.073 -0.019664 1.8809 0
M  V30 5447 O 512.431 -1.00333 1.51006 0
M  V30 5448 C 512.479 2.25492 2.814 0
M  V30 5449 O 511.583 1.67613 3.76802 0
M  V30 5450 H 510.924 0.472863 0.466151 0
M  V30 5451 H 513.454 1.82577 0.923413 0
M  V30 5452 H 513.464 2.39561 3.30264 0
M  V30 5453 H 512.139 3.27727 2.56062 0
M  V30 5454 H 510.716 1.62718 3.35526 0
M  V30 5455 N 512.901 -0.976442 1.23707 0
M  V30 5456 C 513.851 -2.0544 0.988851 0
M  V30 5457 C 514.835 -1.60762 -0.0665901 0
M  V30 5458 O 516.027 -1.76396 0.14604 0
M  V30 5459 C 513.156 -3.38258 0.586223 0
M  V30 5460 C 512.242 -3.89523 1.67728 0
M  V30 5461 N 512.633 -4.13823 2.90834 0
M  V30 5462 C 510.931 -4.18097 1.55277 0
M  V30 5463 C 511.632 -4.55731 3.61502 0
M  V30 5464 N 510.608 -4.60394 2.8903 0
M  V30 5465 H 514.41 -2.22191 1.92376 0
M  V30 5466 H 511.924 -1.15954 1.13704 0
M  V30 5467 H 513.921 -4.15075 0.389658 0
M  V30 5468 H 512.581 -3.22898 -0.341594 0
M  V30 5469 H 513.592 -4.01529 3.271 0
M  V30 5470 H 510.269 -4.11719 0.692351 0
M  V30 5471 H 511.659 -4.83018 4.67059 0
M  V30 5472 N 514.379 -1.04941 -1.1758 0
M  V30 5473 C 515.607 -0.778294 -1.91703 0
M  V30 5474 C 516.022 0.665697 -1.76675 0
M  V30 5475 O 515.379 1.45456 -1.10222 0
M  V30 5476 C 515.43 -1.14628 -3.42845 0
M  V30 5477 O 515.151 -2.53359 -3.57409 0
M  V30 5478 C 516.652 -0.900931 -4.34049 0
M  V30 5479 H 513.872 -0.283167 -0.608323 0
M  V30 5480 H 516.416 -1.39942 -1.49119 0
M  V30 5481 H 514.571 -0.569953 -3.83184 0
M  V30 5482 H 514.985 -2.67709 -4.51035 0
M  V30 5483 H 516.459 -1.20817 -5.38616 0
M  V30 5484 H 516.936 0.163966 -4.38894 0
M  V30 5485 H 517.542 -1.46097 -3.99419 0
M  V30 5486 N 515.857 1.33968 -0.830081 0
M  V30 5487 C 517.085 2.0228 -0.434773 0
M  V30 5488 C 517.5 1.62487 0.961419 0
M  V30 5489 O 516.857 0.833849 1.62337 0
M  V30 5490 C 516.908 3.5751 -0.535625 0
M  V30 5491 O 516.629 3.95864 -1.87679 0
M  V30 5492 C 518.13 4.43091 -0.136137 0
M  V30 5493 H 515.35 0.648151 -0.173613 0
M  V30 5494 H 517.894 1.71089 -1.12022 0
M  V30 5495 H 516.049 3.87266 0.101817 0
M  V30 5496 H 516.463 4.9056 -1.85609 0
M  V30 5497 H 517.937 5.51398 -0.257772 0
M  V30 5498 H 518.414 4.29433 0.921076 0
M  V30 5499 H 519.02 4.18677 -0.747662 0
M  V30 5500 N 517.335 0.585699 1.46312 0
M  V30 5501 C 518.582 0.0724211 2.0237 0
M  V30 5502 C 518.91 -1.28868 1.45683 0
M  V30 5503 O 518.165 -1.85853 0.612945 0
M  V30 5504 C 518.464 -0.0401312 3.57377 0
M  V30 5505 C 518.13 1.25376 4.33119 0
M  V30 5506 C 516.792 1.60824 4.5353 0
M  V30 5507 C 519.144 2.10987 4.76586 0
M  V30 5508 C 516.472 2.81676 5.14661 0
M  V30 5509 C 518.824 3.31068 5.39052 0
M  V30 5510 C 517.488 3.66794 5.5769 0
M  V30 5511 H 516.758 0.0265007 0.740526 0
M  V30 5512 H 519.405 0.762935 1.75646 0
M  V30 5513 H 517.71 -0.813791 3.83255 0
M  V30 5514 H 519.407 -0.453078 3.98432 0
M  V30 5515 H 515.997 0.967808 4.1753 0
M  V30 5516 H 520.181 1.84904 4.60569 0
M  V30 5517 H 515.437 3.0949 5.27282 0
M  V30 5518 H 519.611 3.97672 5.71691 0
M  V30 5519 H 517.238 4.60529 6.04828 0
M  V30 5520 N 518.813 -1.54241 0.323641 0
M  V30 5521 C 520.061 -2.00174 -0.278359 0
M  V30 5522 C 520.382 -1.2134 -1.52648 0
M  V30 5523 O 519.652 -0.315244 -1.93347 0
M  V30 5524 H 518.232 -0.739463 -0.105845 0
M  V30 5525 H 520.894 -1.89864 0.440204 0
M  V30 5526 H 519.99 -3.07486 -0.5347 0
M  V30 5527 N 520.291 -0.0518155 -1.57515 0
M  V30 5528 C 521.241 0.932017 -2.0808 0
M  V30 5529 C 522.225 1.27141 -0.986098 0
M  V30 5530 O 523.417 1.25373 -1.24943 0
M  V30 5531 C 520.546 2.20665 -2.62986 0
M  V30 5532 C 519.632 1.89462 -3.79427 0
M  V30 5533 N 520.023 1.28621 -4.89173 0
M  V30 5534 C 518.321 2.19327 -3.88345 0
M  V30 5535 C 519.022 1.15062 -5.70207 0
M  V30 5536 N 517.998 1.65372 -5.17835 0
M  V30 5537 H 521.8 0.456964 -2.90326 0
M  V30 5538 H 519.314 0.152619 -1.61681 0
M  V30 5539 H 521.311 2.92044 -2.97516 0
M  V30 5540 H 519.971 2.68776 -1.8218 0
M  V30 5541 H 520.982 0.958341 -5.08956 0
M  V30 5542 H 517.659 2.69955 -3.18482 0
M  V30 5543 H 519.049 0.678243 -6.68468 0
M  V30 5544 N 521.769 1.56035 0.221574 0
M  V30 5545 C 523.017 1.78693 0.944102 0
M  V30 5546 C 523.338 0.620317 1.8487 0
M  V30 5547 O 522.608 -0.362784 1.92512 0
M  V30 5548 H 521.188 0.659082 0.351597 0
M  V30 5549 H 523.85 1.93497 0.233435 0
M  V30 5550 H 522.946 2.70837 1.55093 0
M  V30 5551 N 523.247 -0.488276 1.49845 0
M  V30 5552 C 524.472 -1.26997 1.63971 0
M  V30 5553 C 524.897 -1.85427 0.315994 0
M  V30 5554 O 524.255 -1.66475 -0.718032 0
M  V30 5555 C 524.303 -2.36689 2.72049 0
M  V30 5556 O 523.407 -3.40882 2.32107 0
M  V30 5557 H 522.748 -0.374376 0.548396 0
M  V30 5558 H 525.278 -0.583104 1.96115 0
M  V30 5559 H 525.288 -2.82262 2.94605 0
M  V30 5560 H 523.963 -1.93529 3.68129 0
M  V30 5561 H 522.54 -3.01139 2.19931 0
M  V30 5562 N 524.725 -1.39134 -0.740242 0
M  V30 5563 C 525.675 -1.33928 -1.84519 0
M  V30 5564 C 526.659 -0.221097 -1.59374 0
M  V30 5565 O 527.851 -0.458195 -1.70967 0
M  V30 5566 C 524.98 -1.17991 -3.22387 0
M  V30 5567 C 524.066 -2.34488 -3.53378 0
M  V30 5568 N 524.457 -3.59954 -3.5534 0
M  V30 5569 C 522.755 -2.27331 -3.83714 0
M  V30 5570 C 523.456 -4.36962 -3.83978 0
M  V30 5571 N 522.432 -3.66482 -4.01487 0
M  V30 5572 H 526.234 -2.28907 -1.84333 0
M  V30 5573 H 523.748 -1.32555 -0.938237 0
M  V30 5574 H 525.745 -1.12345 -4.01478 0
M  V30 5575 H 524.405 -0.23957 -3.23815 0
M  V30 5576 H 525.416 -3.93448 -3.36778 0
M  V30 5577 H 522.093 -1.41531 -3.92779 0
M  V30 5578 H 523.483 -5.45692 -3.92008 0
M  V30 5579 N 526.204 0.969867 -1.24223 0
M  V30 5580 C 527.134 2.08191 -1.05729 0
M  V30 5581 C 528.115 1.70075 0.0290765 0
M  V30 5582 O 529.3 1.93712 -0.137583 0
M  V30 5583 C 526.43 3.40991 -0.658995 0
M  V30 5584 C 525.384 3.93054 -1.69389 0
M  V30 5585 C 524.71 5.22171 -1.15072 0
M  V30 5586 C 526.01 4.21137 -3.08935 0
M  V30 5587 H 527.704 2.23921 -1.98746 0
M  V30 5588 H 525.25 1.07602 -0.956967 0
M  V30 5589 H 527.203 4.18221 -0.51662 0
M  V30 5590 H 525.927 3.25155 0.30686 0
M  V30 5591 H 524.586 3.17977 -1.82444 0
M  V30 5592 H 524.234 5.02694 -0.175539 0
M  V30 5593 H 523.934 5.57973 -1.84229 0
M  V30 5594 H 525.458 6.02013 -1.02042 0
M  V30 5595 H 526.872 4.8908 -2.99121 0
M  V30 5596 H 525.269 4.68163 -3.75425 0
M  V30 5597 H 526.339 3.27996 -3.57137 0
M  V30 5598 N 527.682 1.05563 1.17022 0
M  V30 5599 C 528.922 0.777033 1.89054 0
M  V30 5600 C 529.286 -0.683617 1.79418 0
M  V30 5601 O 530.487 -1.07648 2.46303 0
M  V30 5602 C 528.758 1.24886 3.34871 0
M  V30 5603 S 530.317 1.0982 4.24835 0
M  V30 5604 H 527.135 0.282082 0.652649 0
M  V30 5605 H 529.737 1.35103 1.41306 0
M  V30 5606 H 528.441 2.30699 3.3942 0
M  V30 5607 H 527.972 0.669292 3.87665 0
M  V30 5608 H 529.987 0.02462 4.96194 0
M  V30 5609 N 529.16 -1.33526 0.837174 0
M  V30 5610 C 530.09 -2.31764 0.284206 0
M  V30 5611 C 531.071 -1.58896 -0.607142 0
M  V30 5612 O 532.256 -1.86798 -0.531047 0
M  V30 5613 C 529.386 -3.43029 -0.542962 0
M  V30 5614 C 528.34 -4.27255 0.252451 0
M  V30 5615 C 527.666 -5.3012 -0.69836 0
M  V30 5616 C 528.966 -5.01229 1.46858 0
M  V30 5617 H 530.66 -2.78262 1.10502 0
M  V30 5618 H 528.206 -1.3378 0.532812 0
M  V30 5619 H 530.159 -4.1078 -0.940096 0
M  V30 5620 H 528.883 -2.95216 -1.39697 0
M  V30 5621 H 527.542 -3.61127 0.631124 0
M  V30 5622 H 527.19 -4.78564 -1.54872 0
M  V30 5623 H 526.89 -5.87353 -0.170274 0
M  V30 5624 H 528.414 -6.00737 -1.09305 0
M  V30 5625 H 529.828 -5.61756 1.14469 0
M  V30 5626 H 528.225 -5.68104 1.93333 0
M  V30 5627 H 529.295 -4.301 2.23924 0
M  V30 5628 N 530.638 -0.59345 -1.46 0
M  V30 5629 C 531.886 -0.082988 -2.0193 0
M  V30 5630 C 532.207 1.28569 -1.46612 0
M  V30 5631 O 531.477 1.84629 -0.654909 0
M  V30 5632 H 530.057 -0.0276882 -0.746487 0
M  V30 5633 H 532.719 -0.771657 -1.78973 0
M  V30 5634 H 531.815 -0.022079 -3.12092 0
M  V30 5635 N 532.116 1.54067 -0.331816 0
M  V30 5636 C 533.048 2.22139 0.564538 0
M  V30 5637 C 534.061 1.22408 1.07332 0
M  V30 5638 O 535.25 1.4883 0.985481 0
M  V30 5639 C 532.35 2.87876 1.78831 0
M  V30 5640 C 531.523 4.13817 1.41682 0
M  V30 5641 C 530.582 4.63072 2.49901 0
M  V30 5642 O 529.608 5.27562 2.13699 0
M  V30 5643 N 530.81 4.38001 3.80967 0
M  V30 5644 H 533.575 2.99694 -0.0183736 0
M  V30 5645 H 531.136 1.61153 -0.155396 0
M  V30 5646 H 533.128 3.17747 2.50637 0
M  V30 5647 H 531.698 2.13977 2.27887 0
M  V30 5648 H 530.918 3.9062 0.530044 0
M  V30 5649 H 532.206 4.95762 1.14443 0
M  V30 5650 H 531.604 3.864 4.13173 0
M  V30 5651 H 530.161 4.72507 4.48977 0
M  V30 5652 N 533.594 0.0601682 1.57485 0
M  V30 5653 C 534.544 -0.920969 2.08572 0
M  V30 5654 C 535.528 -1.26617 0.992827 0
M  V30 5655 O 536.72 -1.24708 1.25606 0
M  V30 5656 C 533.849 -2.19267 2.64153 0
M  V30 5657 C 532.935 -1.87447 3.80427 0
M  V30 5658 N 533.326 -1.26025 4.89848 0
M  V30 5659 C 531.624 -2.17265 3.89502 0
M  V30 5660 C 532.325 -1.12036 5.70809 0
M  V30 5661 N 531.301 -1.62624 5.18705 0
M  V30 5662 H 535.103 -0.441561 2.90564 0
M  V30 5663 H 532.617 -0.144043 1.6176 0
M  V30 5664 H 534.614 -2.90462 2.99061 0
M  V30 5665 H 533.274 -2.67806 1.83603 0
M  V30 5666 H 534.285 -0.931336 5.09457 0
M  V30 5667 H 530.962 -2.68262 3.19909 0
M  V30 5668 H 532.352 -0.642783 6.68818 0
M  V30 5669 N 535.072 -1.5615 -0.213296 0
M  V30 5670 C 536.002 -1.96109 -1.26742 0
M  V30 5671 C 536.983 -0.830448 -1.48451 0
M  V30 5672 O 538.168 -1.09339 -1.60495 0
M  V30 5673 C 535.298 -2.28492 -2.61551 0
M  V30 5674 C 534.252 -3.44124 -2.54485 0
M  V30 5675 C 533.578 -3.62134 -3.93399 0
M  V30 5676 C 534.878 -4.78855 -2.08556 0
M  V30 5677 H 536.572 -2.84412 -0.935434 0
M  V30 5678 H 534.118 -1.36836 -0.44854 0
M  V30 5679 H 536.071 -2.55039 -3.3546 0
M  V30 5680 H 534.795 -1.37052 -2.96453 0
M  V30 5681 H 533.454 -3.17639 -1.83033 0
M  V30 5682 H 533.102 -2.68055 -4.25623 0
M  V30 5683 H 532.802 -4.39913 -3.89551 0
M  V30 5684 H 534.326 -3.91038 -4.68958 0
M  V30 5685 H 535.74 -5.04552 -2.72213 0
M  V30 5686 H 534.137 -5.59975 -2.1575 0
M  V30 5687 H 535.207 -4.73657 -1.03811 0
M  V30 5688 N 536.55 0.480323 -1.50102 0
M  V30 5689 C 537.513 1.56181 -1.6775 0
M  V30 5690 C 538.513 1.51156 -0.548503 0
M  V30 5691 O 539.703 1.5394 -0.815363 0
M  V30 5692 C 536.835 2.95823 -1.69415 0
M  V30 5693 H 538.028 1.41855 -2.6423 0
M  V30 5694 H 535.581 0.70605 -1.39444 0
M  V30 5695 H 536.316 3.15604 -0.745948 0
M  V30 5696 H 536.101 3.00878 -2.51425 0
M  V30 5697 H 537.591 3.74359 -1.85054 0
M  V30 5698 N 538.028 1.39524 0.732853 0
M  V30 5699 C 539.444 1.21176 1.03868 0
M  V30 5700 C 539.644 0.0748448 2.01361 0
M  V30 5701 O 538.7 -0.57281 2.45917 0
M  V30 5702 C 540.013 2.54667 1.59892 0
M  V30 5703 C 541.561 2.6153 1.71962 0
M  V30 5704 C 542.036 3.95248 2.31394 0
M  V30 5705 N 543.527 3.96899 2.38801 0
M  V30 5706 C 544.262 4.97138 2.85729 0
M  V30 5707 N 543.758 6.07775 3.32537 0
M  V30 5708 N 545.551 4.84516 2.84957 0
M  V30 5709 H 537.702 2.12225 0.086304 0
M  V30 5710 H 539.965 0.942614 0.100907 0
M  V30 5711 H 539.671 3.38423 0.95721 0
M  V30 5712 H 539.545 2.74538 2.58668 0
M  V30 5713 H 541.932 1.78156 2.35254 0
M  V30 5714 H 542.013 2.45507 0.718327 0
M  V30 5715 H 541.657 4.79054 1.68729 0
M  V30 5716 H 541.587 4.08593 3.32204 0
M  V30 5717 H 544.078 3.16998 2.05719 0
M  V30 5718 H 544.391 6.8017 3.66862 0
M  V30 5719 H 542.736 6.11366 3.30541 0
M  V30 5720 H 545.927 3.97185 2.47713 0
M  V30 5721 H 546.1 5.62783 3.21215 0
M  V30 5722 N 539.506 -0.963266 1.24736 0
M  V30 5723 C 540.922 -1.23273 1.01371 0
M  V30 5724 C 541.122 -1.99618 -0.274776 0
M  V30 5725 O 540.178 -2.32293 -0.989769 0
M  V30 5726 C 541.491 -2.01554 2.23152 0
M  V30 5727 C 543.039 -2.14629 2.27823 0
M  V30 5728 C 543.514 -2.96307 3.49237 0
M  V30 5729 N 545.005 -3.03887 3.49581 0
M  V30 5730 C 545.74 -3.67456 4.40186 0
M  V30 5731 N 545.236 -4.32706 5.41052 0
M  V30 5732 N 547.029 -3.64511 4.27888 0
M  V30 5733 H 539.18 -0.452294 2.07528 0
M  V30 5734 H 541.443 -0.262521 0.910926 0
M  V30 5735 H 541.149 -1.52847 3.1675 0
M  V30 5736 H 541.023 -3.02278 2.25628 0
M  V30 5737 H 543.41 -2.62537 1.34753 0
M  V30 5738 H 543.491 -1.13238 2.2937 0
M  V30 5739 H 543.135 -2.49091 4.42624 0
M  V30 5740 H 543.065 -3.97905 3.44933 0
M  V30 5741 H 545.556 -2.57477 2.76611 0
M  V30 5742 H 545.869 -4.79042 6.06415 0
M  V30 5743 H 544.214 -4.31361 5.44934 0
M  V30 5744 H 547.405 -3.12715 3.4832 0
M  V30 5745 H 547.578 -4.13768 4.98698 0
M  V30 5746 N 540.985 -1.06182 -1.16461 0
M  V30 5747 C 541.895 -0.682671 -2.24448 0
M  V30 5748 C 542.911 0.30078 -1.71381 0
M  V30 5749 O 544.087 0.150376 -2.00838 0
M  V30 5750 C 541.152 -0.0737202 -3.46622 0
M  V30 5751 C 540.213 -1.10889 -4.14731 0
M  V30 5752 C 539.446 -0.528908 -5.31073 0
M  V30 5753 O 539.669 0.65868 -5.66584 0
M  V30 5754 O 538.603 -1.26805 -5.88391 0
M  V30 5755 H 542.429 -1.58291 -2.59187 0
M  V30 5756 H 540.014 -0.834013 -1.23954 0
M  V30 5757 H 541.896 0.264192 -4.20571 0
M  V30 5758 H 540.571 0.800015 -3.13658 0
M  V30 5759 H 539.478 -1.49896 -3.42756 0
M  V30 5760 H 540.811 -1.95412 -4.51747 0
M  V30 5761 N 542.463 1.3308 -0.844243 0
M  V30 5762 C 543.712 1.96868 -0.438833 0
M  V30 5763 C 544.025 1.67599 1.00846 0
M  V30 5764 O 545.231 2.25043 1.51881 0
M  V30 5765 C 543.687 3.5234 -0.73377 0
M  V30 5766 C 543.295 3.90481 -2.1961 0
M  V30 5767 C 545.039 4.22653 -0.395574 0
M  V30 5768 C 542.946 5.38954 -2.43481 0
M  V30 5769 H 541.876 0.736749 -0.160364 0
M  V30 5770 H 544.527 1.51623 -1.03358 0
M  V30 5771 H 542.909 3.95941 -0.068589 0
M  V30 5772 H 544.083 3.57922 -2.90221 0
M  V30 5773 H 542.398 3.33165 -2.4978 0
M  V30 5774 H 544.995 5.31848 -0.551477 0
M  V30 5775 H 545.338 4.11004 0.661921 0
M  V30 5776 H 545.871 3.84601 -1.01621 0
M  V30 5777 H 542.61 5.55612 -3.47816 0
M  V30 5778 H 542.13 5.72954 -1.77437 0
M  V30 5779 H 543.809 6.05907 -2.26905 0
M  V30 5780 N 543.941 0.601185 1.45683 0
M  V30 5781 C 545.19 0.0914953 2.01492 0
M  V30 5782 C 545.503 -1.28331 1.47616 0
M  V30 5783 O 546.709 -1.88537 1.95362 0
M  V30 5784 C 545.165 0.11291 3.59723 0
M  V30 5785 C 544.773 1.48717 4.22596 0
M  V30 5786 C 546.517 -0.341871 4.23121 0
M  V30 5787 C 544.424 1.46531 5.7296 0
M  V30 5788 H 543.354 0.0304365 0.753385 0
M  V30 5789 H 546.005 0.755568 1.67223 0
M  V30 5790 H 544.387 -0.617692 3.91153 0
M  V30 5791 H 545.561 2.23897 4.02749 0
M  V30 5792 H 543.876 1.88351 3.71366 0
M  V30 5793 H 546.473 -0.377304 5.33367 0
M  V30 5794 H 546.816 -1.36325 3.93346 0
M  V30 5795 H 547.349 0.335256 3.96385 0
M  V30 5796 H 544.088 2.46408 6.07423 0
M  V30 5797 H 543.608 0.755997 5.95017 0
M  V30 5798 H 545.287 1.18618 6.36034 0
M  V30 5799 N 545.419 -1.53889 0.339982 0
M  V30 5800 C 546.665 -2.01152 -0.258003 0
M  V30 5801 C 546.998 -1.22749 -1.50487 0
M  V30 5802 O 546.273 -0.314156 -1.91946 0
M  V30 5803 C 546.556 -3.55468 -0.575717 0
M  V30 5804 C 546.409 -4.44584 0.682996 0
M  V30 5805 C 547.728 -4.1768 -1.38677 0
M  V30 5806 H 544.847 -0.731198 -0.0922992 0
M  V30 5807 H 547.489 -1.84352 0.459814 0
M  V30 5808 H 545.639 -3.69914 -1.18725 0
M  V30 5809 H 547.311 -4.41981 1.32102 0
M  V30 5810 H 545.554 -4.13592 1.3086 0
M  V30 5811 H 546.225 -5.5043 0.416001 0
M  V30 5812 H 548.701 -4.0691 -0.869705 0
M  V30 5813 H 547.577 -5.25734 -1.57783 0
M  V30 5814 H 547.838 -3.72069 -2.38782 0
M  V30 5815 N 546.897 -0.0685191 -1.57451 0
M  V30 5816 C 548.125 0.610462 -1.97689 0
M  V30 5817 C 548.54 1.63346 -0.946758 0
M  V30 5818 O 547.897 1.82377 0.0669868 0
M  V30 5819 C 547.948 1.28196 -3.38006 0
M  V30 5820 O 547.669 0.299906 -4.37072 0
M  V30 5821 C 549.17 2.04907 -3.931 0
M  V30 5822 H 546.39 0.165689 -0.650222 0
M  V30 5823 H 548.934 -0.139953 -2.04021 0
M  V30 5824 H 547.089 1.98348 -3.32771 0
M  V30 5825 H 547.503 0.78126 -5.18649 0
M  V30 5826 H 548.977 2.47287 -4.93511 0
M  V30 5827 H 549.454 2.9043 -3.29465 0
M  V30 5828 H 550.06 1.39629 -4.01726 0
M  V30 5829 N 548.375 1.56261 0.205012 0
M  V30 5830 C 549.305 1.96779 1.257 0
M  V30 5831 C 550.286 0.838309 1.48008 0
M  V30 5832 O 551.471 1.10189 1.59913 0
M  V30 5833 C 548.601 2.29876 2.60335 0
M  V30 5834 C 547.555 3.45469 2.52656 0
M  V30 5835 C 546.881 3.64215 3.91473 0
M  V30 5836 C 548.181 4.79954 2.06014 0
M  V30 5837 H 549.875 2.84904 0.920338 0
M  V30 5838 H 547.421 1.37072 0.441277 0
M  V30 5839 H 549.374 2.56814 3.34102 0
M  V30 5840 H 548.098 1.38622 2.95722 0
M  V30 5841 H 546.757 3.18605 1.81345 0
M  V30 5842 H 546.405 2.70309 4.24196 0
M  V30 5843 H 546.105 4.41973 3.87213 0
M  V30 5844 H 547.629 3.93519 4.66878 0
M  V30 5845 H 549.043 5.05989 2.69533 0
M  V30 5846 H 547.44 5.61111 2.12777 0
M  V30 5847 H 548.51 4.74201 1.01297 0
M  V30 5848 N 549.853 -0.472356 1.50355 0
M  V30 5849 C 550.8 -1.57051 1.69126 0
M  V30 5850 C 551.77 -1.5733 0.532574 0
M  V30 5851 O 552.955 -1.7488 0.762994 0
M  V30 5852 C 550.095 -2.95033 1.79024 0
M  V30 5853 C 549.208 -3.04552 3.06386 0
M  V30 5854 C 548.343 -4.33441 3.07087 0
M  V30 5855 C 547.382 -4.36697 4.28908 0
M  V30 5856 N 546.519 -5.57056 4.27356 0
M  V30 5857 H 551.359 -1.40351 2.62879 0
M  V30 5858 H 548.896 -0.682403 1.30314 0
M  V30 5859 H 550.854 -3.75048 1.82744 0
M  V30 5860 H 549.484 -3.10371 0.887109 0
M  V30 5861 H 548.536 -2.17419 3.12143 0
M  V30 5862 H 549.848 -3.02818 3.96362 0
M  V30 5863 H 549.002 -5.21801 3.09529 0
M  V30 5864 H 547.741 -4.37782 2.14939 0
M  V30 5865 H 546.746 -3.46734 4.2668 0
M  V30 5866 H 547.971 -4.34049 5.22282 0
M  V30 5867 H 545.917 -5.62184 3.3806 0
M  V30 5868 H 545.834 -5.57058 5.111 0
M  V30 5869 H 547.102 -6.47545 4.33942 0
M  V30 5870 N 551.331 -1.39911 -0.725443 0
M  V30 5871 C 552.241 -1.41688 -1.8698 0
M  V30 5872 C 553.257 -0.310579 -1.71206 0
M  V30 5873 O 554.433 -0.55359 -1.93642 0
M  V30 5874 C 551.498 -1.26811 -3.22676 0
M  V30 5875 C 550.559 -2.47497 -3.50776 0
M  V30 5876 C 549.792 -2.3332 -4.79997 0
M  V30 5877 O 550.015 -1.34175 -5.54394 0
M  V30 5878 O 548.949 -3.22498 -5.08211 0
M  V30 5879 H 552.775 -2.38171 -1.88436 0
M  V30 5880 H 550.36 -1.21128 -0.874548 0
M  V30 5881 H 552.242 -1.20684 -4.03749 0
M  V30 5882 H 550.917 -0.334289 -3.21969 0
M  V30 5883 H 549.824 -2.59201 -2.69751 0
M  V30 5884 H 551.157 -3.39606 -3.5627 0
M  V30 5885 N 552.809 0.956637 -1.25245 0
M  V30 5886 C 554.055 1.70413 -1.11044 0
M  V30 5887 C 554.41 1.89275 0.345377 0
M  V30 5888 O 553.703 1.45116 1.25107 0
M  V30 5889 C 553.897 3.08996 -1.79601 0
M  V30 5890 C 553.726 3.03654 -3.317 0
M  V30 5891 C 552.496 3.07521 -4.00947 0
M  V30 5892 C 554.694 2.84975 -4.28128 0
M  V30 5893 N 552.676 2.92316 -5.39838 0
M  V30 5894 C 554.047 2.7818 -5.5409 0
M  V30 5895 C 556.102 2.6964 -4.18568 0
M  V30 5896 C 554.805 2.57616 -6.71585 0
M  V30 5897 C 556.831 2.50447 -5.35752 0
M  V30 5898 C 556.193 2.4437 -6.60653 0
M  V30 5899 H 552.292 0.631642 -0.461035 0
M  V30 5900 H 554.876 1.13331 -1.58317 0
M  V30 5901 H 553.047 3.64248 -1.34826 0
M  V30 5902 H 554.779 3.72515 -1.58161 0
M  V30 5903 H 551.534 3.16635 -3.52192 0
M  V30 5904 H 551.958 2.87923 -6.12723 0
M  V30 5905 H 556.6 2.73113 -3.22752 0
M  V30 5906 H 554.318 2.52885 -7.67512 0
M  V30 5907 H 557.904 2.39509 -5.30214 0
M  V30 5908 H 556.784 2.29712 -7.49801 0
M  V30 5909 N 554.287 1.06798 1.15896 0
M  V30 5910 C 555.217 0.704677 2.22613 0
M  V30 5911 C 556.198 -0.305252 1.67339 0
M  V30 5912 O 557.383 -0.179247 1.93371 0
M  V30 5913 C 554.513 0.0957325 3.47168 0
M  V30 5914 C 553.467 1.0322 4.15367 0
M  V30 5915 C 552.793 0.286293 5.33933 0
M  V30 5916 C 554.093 2.36341 4.65768 0
M  V30 5917 H 555.787 1.59688 2.53259 0
M  V30 5918 H 553.333 0.769257 1.21731 0
M  V30 5919 H 555.286 -0.170333 4.21056 0
M  V30 5920 H 554.01 -0.831516 3.15838 0
M  V30 5921 H 552.669 1.28309 3.43413 0
M  V30 5922 H 552.317 -0.644237 4.98857 0
M  V30 5923 H 552.017 0.910436 5.80504 0
M  V30 5924 H 553.541 0.0278938 6.10594 0
M  V30 5925 H 554.955 2.1561 5.31211 0
M  V30 5926 H 553.352 2.94299 5.2298 0
M  V30 5927 H 554.422 2.99047 3.81705 0
M  V30 5928 N 555.766 -1.3263 0.851289 0
M  V30 5929 C 556.994 -2.01563 0.466899 0
M  V30 5930 C 557.409 -1.63996 -0.935447 0
M  V30 5931 O 556.766 -0.85957 -1.6099 0
M  V30 5932 C 556.817 -3.56613 0.592433 0
M  V30 5933 O 556.538 -3.92828 1.93954 0
M  V30 5934 C 558.039 -4.42818 0.206612 0
M  V30 5935 H 555.259 -0.645307 0.183902 0
M  V30 5936 H 557.803 -1.69285 1.1473 0
M  V30 5937 H 555.958 -3.87379 -0.0401936 0
M  V30 5938 H 556.372 -4.87545 1.9339 0
M  V30 5939 H 557.846 -5.50918 0.345462 0
M  V30 5940 H 558.323 -4.30844 -0.85264 0
M  V30 5941 H 558.929 -4.17434 0.814176 0
M  V30 5942 N 557.244 -0.608902 -1.45362 0
M  V30 5943 C 558.66 -0.272659 -1.57254 0
M  V30 5944 C 558.86 1.22477 -1.60005 0
M  V30 5945 O 557.916 2.00785 -1.53106 0
M  V30 5946 C 559.229 -0.944991 -2.85465 0
M  V30 5947 C 560.777 -0.921033 -2.99142 0
M  V30 5948 C 561.252 -1.5734 -4.30126 0
M  V30 5949 N 562.743 -1.53895 -4.36887 0
M  V30 5950 C 563.478 -2.01286 -5.36909 0
M  V30 5951 N 562.974 -2.56768 -6.43461 0
M  V30 5952 N 564.767 -1.92046 -5.28275 0
M  V30 5953 H 556.918 -1.58117 -1.4182 0
M  V30 5954 H 559.181 -0.662437 -0.678146 0
M  V30 5955 H 558.887 -1.99941 -2.89338 0
M  V30 5956 H 558.761 -0.469079 -3.74272 0
M  V30 5957 H 561.148 0.124846 -2.94836 0
M  V30 5958 H 561.229 -1.43522 -2.11743 0
M  V30 5959 H 560.873 -2.61862 -4.35191 0
M  V30 5960 H 560.803 -1.03422 -5.16344 0
M  V30 5961 H 563.294 -1.13366 -3.60495 0
M  V30 5962 H 563.607 -2.9072 -7.16032 0
M  V30 5963 H 561.952 -2.60808 -6.44208 0
M  V30 5964 H 565.143 -1.48439 -4.43941 0
M  V30 5965 H 565.316 -2.29293 -6.06077 0
M  V30 5966 N 558.722 1.53707 -0.348139 0
M  V30 5967 C 559.971 2.0017 0.247992 0
M  V30 5968 C 560.284 1.23983 1.51286 0
M  V30 5969 O 561.49 1.60946 2.18652 0
M  V30 5970 C 559.946 3.56515 0.492459 0
M  V30 5971 C 559.554 4.41562 -0.756777 0
M  V30 5972 C 561.298 4.11381 1.0472 0
M  V30 5973 C 559.205 5.89426 -0.482856 0
M  V30 5974 H 558.135 0.747806 0.0964452 0
M  V30 5975 H 560.786 1.77532 -0.464179 0
M  V30 5976 H 559.168 3.75236 1.26545 0
M  V30 5977 H 560.342 4.34615 -1.53122 0
M  V30 5978 H 558.657 3.97711 -1.23348 0
M  V30 5979 H 561.254 5.19468 1.26717 0
M  V30 5980 H 561.597 3.64885 2.00411 0
M  V30 5981 H 562.13 3.96389 0.334801 0
M  V30 5982 H 558.869 6.40164 -1.40962 0
M  V30 5983 H 558.389 5.99264 0.253416 0
M  V30 5984 H 560.068 6.4692 -0.101816 0
M  V30 5985 N 560.2 0.0768682 1.57412 0
M  V30 5986 C 561.611 -0.455037 1.8107 0
M  V30 5987 C 561.962 -1.69323 0.991162 0
M  V30 5988 O 561.087 -2.15328 0.215156 0
M  V30 5989 C 561.682 -0.832316 3.28417 0
M  V30 5990 C 560.241 -1.30906 3.52903 0
M  V30 5991 C 559.388 -0.296714 2.75708 0
M  V30 5992 H 562.339 0.302514 1.5579 0
M  V30 5993 H 562.36 -1.69333 3.40744 0
M  V30 5994 H 561.872 0.0690532 3.88039 0
M  V30 5995 H 559.973 -2.22875 2.98592 0
M  V30 5996 H 560.086 -1.28348 4.61588 0
M  V30 5997 H 558.45 -0.775059 2.42621 0
M  V30 5998 H 559.233 0.597015 3.38069 0
M  V30 5999 N 561.678 -1.56367 -0.196722 0
M  V30 6000 C 562.955 -1.71359 -0.943159 0
M  V30 6001 C 563.335 -0.631192 -2.01443 0
M  V30 6002 O 562.683 0.358071 -2.25677 0
M  V30 6003 C 562.893 -3.13623 -1.53106 0
M  V30 6004 C 564.241 -3.73806 -2.01381 0
M  V30 6005 O 565.265 -3.16742 -1.62951 0
M  V30 6006 O 564.124 -4.73951 -2.7209 0
M  V30 6007 H 561.218 -0.698851 -0.442195 0
M  V30 6008 H 563.764 -1.68672 -0.186547 0
M  V30 6009 H 562.536 -3.83873 -0.758785 0
M  V30 6010 H 562.159 -3.20532 -2.35255 0
M  V30 6011 N 563.156 0.464375 -1.50603 0
M  V30 6012 C 564.403 1.21596 -1.61928 0
M  V30 6013 C 564.731 1.91804 -0.322737 0
M  V30 6014 O 563.986 1.83065 0.691776 0
M  V30 6015 C 564.285 2.278 -2.75394 0
M  V30 6016 C 563.951 1.74797 -4.1564 0
M  V30 6017 C 562.613 1.60063 -4.53799 0
M  V30 6018 C 564.965 1.35548 -5.03266 0
M  V30 6019 C 562.293 1.04514 -5.77316 0
M  V30 6020 C 564.645 0.814381 -6.27336 0
M  V30 6021 C 563.309 0.653726 -6.64291 0
M  V30 6022 H 562.579 0.444951 -0.592536 0
M  V30 6023 H 565.226 0.510964 -1.84557 0
M  V30 6024 H 563.531 3.04233 -2.46879 0
M  V30 6025 H 565.228 2.85723 -2.81359 0
M  V30 6026 H 561.818 1.87234 -3.8554 0
M  V30 6027 H 566.002 1.45763 -4.74412 0
M  V30 6028 H 561.258 0.908186 -6.04617 0
M  V30 6029 H 565.432 0.501626 -6.94591 0
M  V30 6030 H 563.059 0.22114 -7.59878 0
M  V30 6031 N 564.634 1.40294 0.718013 0
M  V30 6032 C 565.859 1.41941 1.5122 0
M  V30 6033 C 566.284 0.0202371 1.88089 0
M  V30 6034 O 565.642 -0.971078 1.53101 0
M  V30 6035 C 565.69 2.3141 2.76554 0
M  V30 6036 O 564.794 1.75567 3.73162 0
M  V30 6037 H 564.135 0.482644 0.456016 0
M  V30 6038 H 566.665 1.84494 0.884478 0
M  V30 6039 H 566.675 2.46513 3.25108 0
M  V30 6040 H 565.35 3.33085 2.49053 0
M  V30 6041 H 563.927 1.69798 3.31999 0
M  V30 6042 N 566.112 -0.949982 1.2575 0
M  V30 6043 C 567.361 -1.68956 1.10168 0
M  V30 6044 C 567.674 -1.92327 -0.356309 0
M  V30 6045 O 568.88 -2.64026 -0.632657 0
M  V30 6046 C 567.336 -3.04196 1.92336 0
M  V30 6047 C 566.944 -2.88603 3.42655 0
M  V30 6048 C 568.688 -3.81904 1.85336 0
M  V30 6049 C 566.595 -4.19262 4.17101 0
M  V30 6050 H 565.525 -0.633645 0.408668 0
M  V30 6051 H 568.176 -1.05719 1.49986 0
M  V30 6052 H 566.558 -3.68363 1.45344 0
M  V30 6053 H 567.732 -2.3334 3.97353 0
M  V30 6054 H 566.047 -2.24345 3.50796 0
M  V30 6055 H 568.644 -4.78688 2.38248 0
M  V30 6056 H 568.987 -4.08099 0.822226 0
M  V30 6057 H 569.52 -3.24495 2.30104 0
M  V30 6058 H 566.259 -3.98254 5.20648 0
M  V30 6059 H 565.779 -4.74273 3.67186 0
M  V30 6060 H 567.458 -4.87775 4.25071 0
M  V30 6061 N 567.59 -1.07411 -1.15328 0
M  V30 6062 C 568.553 -0.698914 -2.18284 0
M  V30 6063 C 569.553 0.261149 -1.58665 0
M  V30 6064 O 570.743 0.0420277 -1.74149 0
M  V30 6065 C 567.875 -0.0302427 -3.40887 0
M  V30 6066 H 569.068 -1.61045 -2.52991 0
M  V30 6067 H 566.621 -0.870724 -1.298 0
M  V30 6068 H 567.356 0.893505 -3.11748 0
M  V30 6069 H 567.141 -0.720759 -3.85419 0
M  V30 6070 H 568.631 0.21759 -4.17033 0
M  V30 6071 N 569.068 1.32177 -0.85831 0
M  V30 6072 C 570.479 1.79381 -0.517621 0
M  V30 6073 C 570.83 1.70841 0.964769 0
M  V30 6074 O 569.955 1.26917 1.75274 0
M  V30 6075 C 570.55 3.25706 -0.932801 0
M  V30 6076 C 569.109 3.70851 -0.643953 0
M  V30 6077 C 568.256 2.53208 -1.13054 0
M  V30 6078 H 571.207 1.19424 -1.04516 0
M  V30 6079 H 571.228 3.79673 -0.250674 0
M  V30 6080 H 570.74 3.31889 -2.01174 0
M  V30 6081 H 568.841 3.70178 0.424112 0
M  V30 6082 H 568.954 4.63495 -1.21281 0
M  V30 6083 H 567.318 2.48676 -0.550679 0
M  V30 6084 H 568.101 2.62143 -2.21666 0
M  V30 6085 N 570.547 0.616602 1.45037 0
M  V30 6086 C 571.795 0.115103 2.01772 0
M  V30 6087 C 572.116 -1.2622 1.48639 0
M  V30 6088 O 571.386 -1.83563 0.684199 0
M  V30 6089 H 569.966 0.0395607 0.745952 0
M  V30 6090 H 572.628 0.800032 1.77723 0
M  V30 6091 H 571.724 0.0717274 3.12018 0
M  V30 6092 N 572.025 -1.5352 0.356285 0
M  V30 6093 C 572.988 -2.24071 -0.482182 0
M  V30 6094 C 573.988 -1.24531 -1.01729 0
M  V30 6095 O 575.178 -1.48876 -0.904513 0
M  V30 6096 C 572.31 -2.97025 -1.67299 0
M  V30 6097 H 573.503 -2.99596 0.135031 0
M  V30 6098 H 571.056 -1.55928 0.107825 0
M  V30 6099 H 571.791 -2.25719 -2.32855 0
M  V30 6100 H 571.576 -3.7005 -1.29636 0
M  V30 6101 H 573.066 -3.50683 -2.26741 0
M  V30 6102 N 573.503 -0.0852151 -1.57369 0
M  V30 6103 C 574.435 0.907099 -2.10486 0
M  V30 6104 C 575.448 1.25259 -1.03991 0
M  V30 6105 O 576.637 1.20743 -1.31467 0
M  V30 6106 C 573.737 2.21908 -2.56145 0
M  V30 6107 C 572.91 2.05042 -3.86363 0
M  V30 6108 C 571.969 3.19664 -4.17973 0
M  V30 6109 O 570.995 2.94062 -4.87356 0
M  V30 6110 N 572.197 4.45151 -3.72587 0
M  V30 6111 H 574.962 0.453505 -2.96249 0
M  V30 6112 H 572.523 0.100157 -1.6159 0
M  V30 6113 H 574.515 2.97519 -2.74343 0
M  V30 6114 H 573.085 2.58723 -1.75446 0
M  V30 6115 H 572.305 1.13819 -3.77411 0
M  V30 6116 H 573.593 1.91039 -4.71574 0
M  V30 6117 H 572.991 4.68834 -3.16561 0
M  V30 6118 H 571.548 5.17744 -3.9596 0
M  V30 6119 N 574.981 1.5647 0.188427 0
M  V30 6120 C 576.23 1.80207 0.905995 0
M  V30 6121 C 576.543 0.659579 1.84144 0
M  V30 6122 O 577.749 0.781431 2.60011 0
M  V30 6123 C 576.205 3.19255 1.66145 0
M  V30 6124 C 575.813 4.41324 0.770504 0
M  V30 6125 C 577.557 3.52298 2.36826 0
M  V30 6126 C 575.464 5.71394 1.52521 0
M  V30 6127 H 574.394 0.671953 0.342045 0
M  V30 6128 H 577.045 1.82808 0.159164 0
M  V30 6129 H 575.427 3.10922 2.45242 0
M  V30 6130 H 576.601 4.60797 0.0177261 0
M  V30 6131 H 574.916 4.16035 0.174199 0
M  V30 6132 H 577.513 4.46715 2.93854 0
M  V30 6133 H 577.856 2.76359 3.11338 0
M  V30 6134 H 578.389 3.62108 1.6469 0
M  V30 6135 H 575.128 6.50316 0.82275 0
M  V30 6136 H 574.648 5.55928 2.25175 0
M  V30 6137 H 576.327 6.12747 2.07725 0
M  V30 6138 N 576.459 -0.456382 1.50847 0
M  V30 6139 C 577.391 -1.57033 1.66953 0
M  V30 6140 C 578.404 -1.53207 0.550593 0
M  V30 6141 O 579.593 -1.58328 0.824285 0
M  V30 6142 C 576.693 -2.95937 1.65149 0
M  V30 6143 C 575.866 -3.24475 2.93317 0
M  V30 6144 C 574.925 -4.43007 2.83957 0
M  V30 6145 O 573.951 -4.42592 3.57912 0
M  V30 6146 N 575.153 -5.45503 1.9851 0
M  V30 6147 H 577.918 -1.43629 2.63042 0
M  V30 6148 H 575.479 -0.645037 1.48495 0
M  V30 6149 H 577.471 -3.73224 1.56481 0
M  V30 6150 H 576.041 -3.03036 0.767343 0
M  V30 6151 H 575.261 -2.35664 3.16 0
M  V30 6152 H 576.549 -3.4036 3.78196 0
M  V30 6153 H 575.947 -5.48668 1.37766 0
M  V30 6154 H 574.504 -6.21716 1.95735 0
M  V30 6155 N 577.937 -1.40673 -0.710563 0
M  V30 6156 C 578.887 -1.37812 -1.81636 0
M  V30 6157 C 579.871 -0.254853 -1.58869 0
M  V30 6158 O 581.063 -0.494356 -1.69956 0
M  V30 6159 C 578.192 -1.24802 -3.19811 0
M  V30 6160 C 577.278 -2.41931 -3.48325 0
M  V30 6161 N 577.669 -3.67411 -3.47625 0
M  V30 6162 C 575.967 -2.35419 -3.78806 0
M  V30 6163 C 576.668 -4.45008 -3.74623 0
M  V30 6164 N 575.644 -3.74916 -3.93623 0
M  V30 6165 H 579.446 -2.32766 -1.79436 0
M  V30 6166 H 576.96 -1.34516 -0.909909 0
M  V30 6167 H 578.957 -1.20835 -3.99004 0
M  V30 6168 H 577.617 -0.308202 -3.23234 0
M  V30 6169 H 578.628 -4.00503 -3.28356 0
M  V30 6170 H 575.305 -1.4983 -3.89689 0
M  V30 6171 H 576.695 -5.53884 -3.80344 0
M  V30 6172 N 579.415 0.9433 -1.26252 0
M  V30 6173 C 580.362 2.0417 -1.07625 0
M  V30 6174 C 581.332 1.6609 0.0180738 0
M  V30 6175 O 582.517 1.90276 -0.141289 0
M  V30 6176 C 579.657 3.37653 -0.713043 0
M  V30 6177 C 578.77 3.88783 -1.8834 0
M  V30 6178 C 577.905 5.10642 -1.4635 0
M  V30 6179 C 576.944 5.54028 -2.60229 0
M  V30 6180 N 576.081 6.67092 -2.18936 0
M  V30 6181 H 580.921 2.19436 -2.01623 0
M  V30 6182 H 578.458 1.07519 -1.00389 0
M  V30 6183 H 580.416 4.14391 -0.483358 0
M  V30 6184 H 579.046 3.22241 0.18996 0
M  V30 6185 H 578.098 3.08464 -2.22608 0
M  V30 6186 H 579.41 4.16922 -2.73821 0
M  V30 6187 H 578.564 5.94832 -1.19414 0
M  V30 6188 H 577.303 4.84244 -0.579568 0
M  V30 6189 H 576.308 4.68396 -2.87898 0
M  V30 6190 H 577.533 5.82429 -3.49219 0
M  V30 6191 H 575.479 6.42381 -1.32974 0
M  V30 6192 H 575.396 6.94806 -2.97961 0
M  V30 6193 H 576.664 7.54662 -1.95206 0
M  V30 6194 N 580.893 1.08022 1.14757 0
M  V30 6195 C 582.118 0.82895 1.90114 0
M  V30 6196 C 582.543 -0.612772 1.77839 0
M  V30 6197 O 581.901 -1.42895 1.11583 0
M  V30 6198 C 581.949 1.25062 3.38219 0
M  V30 6199 O 581.053 0.400119 4.10454 0
M  V30 6200 H 580.394 0.301412 0.591648 0
M  V30 6201 H 582.924 1.44062 1.45284 0
M  V30 6202 H 582.934 1.22977 3.89025 0
M  V30 6203 H 581.609 2.30067 3.46471 0
M  V30 6204 H 580.186 0.484052 3.69745 0
M  V30 6205 N 582.371 -1.3172 0.865308 0
M  V30 6206 C 583.619 -1.96487 0.472995 0
M  V30 6207 C 583.94 -1.68761 -0.976975 0
M  V30 6208 O 583.21 -1.00051 -1.68424 0
M  V30 6209 H 581.79 -0.726947 0.171922 0
M  V30 6210 H 584.452 -1.60612 1.10407 0
M  V30 6211 H 583.548 -3.0574 0.62687 0
M  V30 6212 N 583.85 -0.624285 -1.44708 0
M  V30 6213 C 585.099 -0.123539 -2.01321 0
M  V30 6214 C 585.412 1.25966 -1.49639 0
M  V30 6215 O 586.618 1.85405 -1.98336 0
M  V30 6216 C 585.074 -0.170124 -3.59498 0
M  V30 6217 C 584.682 -1.55421 -4.20176 0
M  V30 6218 C 586.426 0.274513 -4.23611 0
M  V30 6219 C 584.332 -1.55628 -5.70556 0
M  V30 6220 H 583.263 -0.0424183 -0.752806 0
M  V30 6221 H 585.913 -0.782076 -1.65999 0
M  V30 6222 H 584.296 0.555385 -3.92086 0
M  V30 6223 H 585.47 -2.30276 -3.99136 0
M  V30 6224 H 583.784 -1.94235 -3.68323 0
M  V30 6225 H 586.382 0.292402 -5.339 0
M  V30 6226 H 586.725 1.3005 -3.95465 0
M  V30 6227 H 587.258 -0.398275 -3.95801 0
M  V30 6228 H 583.997 -2.56041 -6.03426 0
M  V30 6229 H 583.517 -0.850563 -5.93739 0
M  V30 6230 H 585.196 -1.28721 -6.34066 0
M  V30 6231 N 585.328 1.53329 -0.364422 0
M  V30 6232 C 586.574 2.01537 0.225969 0
M  V30 6233 C 586.907 1.25128 1.48515 0
M  V30 6234 O 586.182 0.344653 1.91422 0
M  V30 6235 C 586.465 3.56339 0.519092 0
M  V30 6236 C 586.318 4.43441 -0.753639 0
M  V30 6237 C 587.637 4.19833 1.32015 0
M  V30 6238 H 584.756 0.732573 0.0806548 0
M  V30 6239 H 587.398 1.83597 -0.489084 0
M  V30 6240 H 585.548 3.71756 1.12825 0
M  V30 6241 H 587.22 4.39823 -1.39116 0
M  V30 6242 H 585.463 4.11457 -1.37424 0
M  V30 6243 H 586.134 5.49699 -0.503517 0
M  V30 6244 H 588.61 4.08242 0.804859 0
M  V30 6245 H 587.486 5.28177 1.49399 0
M  V30 6246 H 587.747 3.75821 2.32832 0
M  V30 6247 N 586.806 0.0935595 1.57322 0
M  V30 6248 C 588.031 -0.582324 1.99057 0
M  V30 6249 C 588.456 -1.61025 0.972242 0
M  V30 6250 O 587.814 -1.81202 -0.0594622 0
M  V30 6251 C 587.862 -1.20799 3.39765 0
M  V30 6252 O 586.966 -2.32382 3.40694 0
M  V30 6253 H 586.307 -0.147884 0.647323 0
M  V30 6254 H 588.837 0.174516 2.03854 0
M  V30 6255 H 588.847 -1.54966 3.77425 0
M  V30 6256 H 587.522 -0.454914 4.13405 0
M  V30 6257 H 586.099 -1.99845 3.14827 0
M  V30 6258 N 588.284 -1.56567 -0.180126 0
M  V30 6259 C 589.532 -1.81133 -0.896392 0
M  V30 6260 C 589.853 -0.669114 -1.83161 0
M  V30 6261 O 589.123 0.311616 -1.93406 0
M  V30 6262 H 587.703 -0.668172 -0.333999 0
M  V30 6263 H 590.365 -1.94048 -0.182051 0
M  V30 6264 H 589.461 -2.74854 -1.47857 0
M  V30 6265 N 589.762 0.448376 -1.51087 0
M  V30 6266 C 591.008 1.20049 -1.6345 0
M  V30 6267 C 591.341 1.91121 -0.344444 0
M  V30 6268 O 590.616 1.83125 0.655396 0
M  V30 6269 C 590.899 2.22624 -2.83038 0
M  V30 6270 C 590.752 1.55708 -4.21989 0
M  V30 6271 C 592.071 3.23718 -2.98152 0
M  V30 6272 H 589.19 0.435085 -0.59487 0
M  V30 6273 H 591.832 0.491183 -1.83541 0
M  V30 6274 H 589.982 2.83117 -2.66039 0
M  V30 6275 H 591.654 0.986367 -4.50631 0
M  V30 6276 H 589.897 0.859647 -4.25197 0
M  V30 6277 H 590.568 2.30357 -5.01637 0
M  V30 6278 H 593.044 2.73269 -3.13788 0
M  V30 6279 H 591.92 3.92795 -3.83411 0
M  V30 6280 H 592.181 3.89179 -2.09743 0
M  V30 6281 N 591.24 1.41047 0.703093 0
M  V30 6282 C 592.172 1.38228 1.82827 0
M  V30 6283 C 593.185 0.285637 1.60275 0
M  V30 6284 O 594.374 0.54685 1.69917 0
M  V30 6285 C 591.474 1.13136 3.19458 0
M  V30 6286 C 590.647 2.34695 3.69103 0
M  V30 6287 C 589.706 2.05574 4.84382 0
M  V30 6288 O 588.732 2.78549 4.96386 0
M  V30 6289 N 589.934 1.04135 5.71083 0
M  V30 6290 H 592.699 2.35203 1.85741 0
M  V30 6291 H 590.26 1.35562 0.885125 0
M  V30 6292 H 592.252 0.916183 3.94193 0
M  V30 6293 H 590.822 0.247836 3.11616 0
M  V30 6294 H 590.042 2.71963 2.85359 0
M  V30 6295 H 591.33 3.15705 3.99009 0
M  V30 6296 H 590.728 0.43722 5.64008 0
M  V30 6297 H 589.285 0.886078 6.45749 0
M  V30 6298 N 592.718 -0.936591 1.26751 0
M  V30 6299 C 593.681 -2.01752 1.08761 0
M  V30 6300 C 594.681 -1.60763 0.0344435 0
M  V30 6301 O 595.871 -1.71963 0.278258 0
M  V30 6302 C 593.003 -3.34543 0.655271 0
M  V30 6303 H 594.196 -2.19143 2.04735 0
M  V30 6304 H 591.749 -1.11618 1.09413 0
M  V30 6305 H 592.484 -3.22851 -0.30626 0
M  V30 6306 H 592.269 -3.65647 1.41578 0
M  V30 6307 H 593.759 -4.13944 0.551378 0
M  V30 6308 N 594.196 -1.08629 -1.14182 0
M  V30 6309 C 595.126 -0.740003 -2.21464 0
M  V30 6310 C 596.107 0.278591 -1.67803 0
M  V30 6311 O 597.292 0.148461 -1.93632 0
M  V30 6312 C 594.422 -0.150952 -3.46972 0
M  V30 6313 C 593.376 -1.09815 -4.13672 0
M  V30 6314 C 592.702 -0.3712 -5.3341 0
M  V30 6315 C 594.002 -2.43722 -4.61949 0
M  V30 6316 H 595.696 -1.63697 -2.50686 0
M  V30 6317 H 593.242 -0.788526 -1.20492 0
M  V30 6318 H 595.195 0.103325 -4.21273 0
M  V30 6319 H 593.919 0.781164 -3.1712 0
M  V30 6320 H 592.578 -1.33756 -3.41328 0
M  V30 6321 H 592.226 0.564792 -4.99819 0
M  V30 6322 H 591.926 -1.00267 -5.78982 0
M  V30 6323 H 593.45 -0.12503 -6.10472 0
M  V30 6324 H 594.864 -2.24034 -5.27714 0
M  V30 6325 H 593.261 -3.02582 -5.18232 0
M  V30 6326 H 594.331 -3.05082 -3.76899 0
M  V30 6327 N 595.674 1.31259 -0.872281 0
M  V30 6328 C 597.085 1.78822 -0.536617 0
M  V30 6329 C 597.436 1.71855 0.946594 0
M  V30 6330 O 596.561 1.28769 1.73918 0
M  V30 6331 C 597.156 3.24698 -0.967294 0
M  V30 6332 C 595.715 3.70147 -0.683251 0
M  V30 6333 C 594.862 2.51994 -1.15733 0
M  V30 6334 H 597.813 1.18308 -1.05777 0
M  V30 6335 H 597.834 3.79386 -0.290929 0
M  V30 6336 H 597.346 3.29737 -2.04683 0
M  V30 6337 H 595.447 3.70607 0.384825 0
M  V30 6338 H 595.56 4.62183 -1.2619 0
M  V30 6339 H 593.924 2.48078 -0.577024 0
M  V30 6340 H 594.707 2.59778 -2.24434 0
M  V30 6341 N 597.152 0.631951 1.44375 0
M  V30 6342 C 598.082 -0.0593243 2.33425 0
M  V30 6343 C 599.063 -0.833964 1.48253 0
M  V30 6344 O 600.248 -0.799682 1.76971 0
M  V30 6345 C 597.378 -1.04096 3.31333 0
M  V30 6346 C 596.332 -0.377899 4.26328 0
M  V30 6347 C 595.658 -1.4695 5.14111 0
M  V30 6348 C 596.958 0.716371 5.17364 0
M  V30 6349 H 598.652 0.684287 2.91475 0
M  V30 6350 H 596.198 0.330518 1.40156 0
M  V30 6351 H 598.151 -1.53331 3.92514 0
M  V30 6352 H 596.875 -1.81547 2.71493 0
M  V30 6353 H 595.534 0.0938054 3.6648 0
M  V30 6354 H 595.182 -2.2349 4.50623 0
M  V30 6355 H 594.882 -1.03121 5.78481 0
M  V30 6356 H 596.406 -1.96363 5.78164 0
M  V30 6357 H 597.82 0.307089 5.72477 0
M  V30 6358 H 596.217 1.07784 5.90341 0
M  V30 6359 H 597.287 1.58316 4.58327 0
M  V30 6360 N 598.631 -1.53133 0.372548 0
M  V30 6361 C 599.877 -2.01654 -0.215277 0
M  V30 6362 C 600.21 -1.25914 -1.47849 0
M  V30 6363 O 599.485 -0.3548 -1.91237 0
M  V30 6364 C 599.768 -3.56609 -0.500187 0
M  V30 6365 C 599.621 -4.43036 0.777145 0
M  V30 6366 C 600.94 -4.20528 -1.29786 0
M  V30 6367 H 598.059 -0.732991 -0.0767686 0
M  V30 6368 H 600.701 -1.83335 0.498814 0
M  V30 6369 H 598.851 -3.7235 -1.10852 0
M  V30 6370 H 600.523 -4.39079 1.41447 0
M  V30 6371 H 598.766 -4.10723 1.39604 0
M  V30 6372 H 599.437 -5.49424 0.532662 0
M  V30 6373 H 601.913 -4.08663 -0.783198 0
M  V30 6374 H 600.789 -5.28962 -1.46596 0
M  V30 6375 H 601.05 -3.77051 -2.30836 0
M  V30 6376 N 600.109 -0.101901 -1.5727 0
M  V30 6377 C 601.355 0.554864 -1.95686 0
M  V30 6378 C 601.71 1.65368 -0.983415 0
M  V30 6379 O 601.003 1.91597 -0.0105374 0
M  V30 6380 C 601.197 1.14898 -3.38427 0
M  V30 6381 C 601.026 0.109251 -4.49567 0
M  V30 6382 C 599.796 -0.316633 -5.04307 0
M  V30 6383 C 601.994 -0.665196 -5.0998 0
M  V30 6384 N 599.976 -1.34393 -5.99009 0
M  V30 6385 C 601.347 -1.54413 -6.00464 0
M  V30 6386 C 603.402 -0.717966 -4.92696 0
M  V30 6387 C 602.105 -2.47122 -6.75517 0
M  V30 6388 C 604.131 -1.63268 -5.68417 0
M  V30 6389 C 603.493 -2.49923 -6.58572 0
M  V30 6390 H 599.592 0.17317 -0.762585 0
M  V30 6391 H 602.176 -0.18605 -1.93809 0
M  V30 6392 H 600.347 1.85969 -3.40984 0
M  V30 6393 H 602.079 1.76867 -3.64006 0
M  V30 6394 H 598.834 0.0724419 -4.73545 0
M  V30 6395 H 599.258 -1.85598 -6.51062 0
M  V30 6396 H 603.9 -0.0621637 -4.22754 0
M  V30 6397 H 601.618 -3.13724 -7.44717 0
M  V30 6398 H 605.204 -1.67874 -5.57054 0
M  V30 6399 H 604.084 -3.19553 -7.16139 0
M  V30 6400 N 601.587 1.56661 0.17182 0
M  V30 6401 C 602.864 1.72838 0.915778 0
M  V30 6402 C 603.244 0.66316 2.00413 0
M  V30 6403 O 602.592 -0.322123 2.26218 0
M  V30 6404 C 602.802 3.16019 1.48097 0
M  V30 6405 C 604.15 3.76962 1.95408 0
M  V30 6406 O 605.174 3.19294 1.57892 0
M  V30 6407 O 604.033 4.78219 2.64516 0
M  V30 6408 H 601.127 0.705797 0.431021 0
M  V30 6409 H 603.673 1.68947 0.159689 0
M  V30 6410 H 602.445 3.85031 0.697618 0
M  V30 6411 H 602.068 3.24234 2.30126 0
M  V30 6412 N 603.065 -0.440357 1.51323 0
M  V30 6413 C 604.476 -1.02032 1.56353 0
M  V30 6414 C 604.827 -1.92382 0.385197 0
M  V30 6415 O 603.952 -2.10583 -0.498373 0
M  V30 6416 C 604.547 -1.85723 2.83359 0
M  V30 6417 C 603.106 -2.38774 2.90971 0
M  V30 6418 C 602.253 -1.17908 2.50984 0
M  V30 6419 H 605.204 -0.221744 1.57143 0
M  V30 6420 H 605.225 -2.71141 2.66951 0
M  V30 6421 H 604.737 -1.19939 3.69102 0
M  V30 6422 H 602.838 -3.08021 2.09651 0
M  V30 6423 H 602.951 -2.71778 3.94555 0
M  V30 6424 H 601.315 -1.52347 2.04114 0
M  V30 6425 H 602.098 -0.537393 3.39068 0
M  V30 6426 N 604.543 -1.41418 -0.695603 0
M  V30 6427 C 605.506 -1.42988 -1.79129 0
M  V30 6428 C 606.506 -0.320514 -1.57573 0
M  V30 6429 O 607.696 -0.58039 -1.64247 0
M  V30 6430 C 604.828 -1.24122 -3.175 0
M  V30 6431 H 606.021 -2.40526 -1.7913 0
M  V30 6432 H 603.574 -1.2756 -0.903225 0
M  V30 6433 H 604.309 -0.274253 -3.23138 0
M  V30 6434 H 604.094 -2.045 -3.34547 0
M  V30 6435 H 605.584 -1.28056 -3.97481 0
M  V30 6436 N 606.021 0.929856 -1.27246 0
M  V30 6437 C 607.249 1.71144 -1.16265 0
M  V30 6438 C 607.664 1.867 0.280786 0
M  V30 6439 O 607.021 1.38249 1.19136 0
M  V30 6440 C 607.072 3.11222 -1.83911 0
M  V30 6441 O 606.793 2.96398 -3.22614 0
M  V30 6442 C 608.294 4.05541 -1.79028 0
M  V30 6443 H 605.514 0.535499 -0.404328 0
M  V30 6444 H 608.058 1.16492 -1.68077 0
M  V30 6445 H 606.213 3.6274 -1.36009 0
M  V30 6446 H 606.627 3.8494 -3.56261 0
M  V30 6447 H 608.101 5.01351 -2.30978 0
M  V30 6448 H 608.578 4.32589 -0.759168 0
M  V30 6449 H 609.184 3.59947 -2.26535 0
M  V30 6450 N 607.499 1.09233 1.13605 0
M  V30 6451 C 608.727 0.848908 1.88683 0
M  V30 6452 C 609.142 -0.599667 1.79024 0
M  V30 6453 O 608.499 -1.41265 1.15544 0
M  V30 6454 C 608.55 1.27273 3.38355 0
M  V30 6455 O 608.271 2.66449 3.47759 0
M  V30 6456 C 609.772 1.0614 4.30406 0
M  V30 6457 H 606.992 0.305549 0.597395 0
M  V30 6458 H 609.536 1.4538 1.43823 0
M  V30 6459 H 607.691 0.711776 3.80805 0
M  V30 6460 H 608.105 2.84264 4.40788 0
M  V30 6461 H 609.579 1.40725 5.33761 0
M  V30 6462 H 610.056 -0.000960332 4.392 0
M  V30 6463 H 610.662 1.60821 3.93722 0
M  V30 6464 N 608.977 -1.30795 0.87923 0
M  V30 6465 C 609.924 -2.28282 0.339968 0
M  V30 6466 C 610.894 -1.56134 -0.566685 0
M  V30 6467 O 612.079 -1.84231 -0.496338 0
M  V30 6468 C 609.219 -3.42225 -0.444501 0
M  V30 6469 C 608.332 -4.29204 0.490717 0
M  V30 6470 C 607.467 -5.30302 -0.308784 0
M  V30 6471 C 606.506 -6.08929 0.622272 0
M  V30 6472 N 605.643 -7.01957 -0.14155 0
M  V30 6473 H 610.483 -2.73794 1.17647 0
M  V30 6474 H 608.02 -1.34682 0.591527 0
M  V30 6475 H 609.978 -4.07038 -0.915186 0
M  V30 6476 H 608.608 -2.97799 -1.24562 0
M  V30 6477 H 607.66 -3.6475 1.07988 0
M  V30 6478 H 608.972 -4.84045 1.20425 0
M  V30 6479 H 608.126 -6.00835 -0.841575 0
M  V30 6480 H 606.865 -4.7614 -1.05556 0
M  V30 6481 H 605.87 -5.37278 1.16674 0
M  V30 6482 H 607.095 -6.65178 1.36804 0
M  V30 6483 H 605.041 -6.50192 -0.870966 0
M  V30 6484 H 604.958 -7.54261 0.51246 0
M  V30 6485 H 606.226 -7.76741 -0.655271 0
M  V30 6486 N 610.455 -0.639598 -1.44038 0
M  V30 6487 C 611.418 0.0506628 -2.29144 0
M  V30 6488 C 612.418 0.764001 -1.41491 0
M  V30 6489 O 613.608 0.607309 -1.63271 0
M  V30 6490 C 610.74 1.0824 -3.2326 0
M  V30 6491 H 611.933 -0.697987 -2.91664 0
M  V30 6492 H 609.486 -0.400146 -1.51091 0
M  V30 6493 H 610.221 1.86075 -2.65606 0
M  V30 6494 H 610.006 0.574725 -3.87865 0
M  V30 6495 H 611.496 1.56487 -3.87171 0
M  V30 6496 N 611.933 1.52934 -0.380664 0
M  V30 6497 C 613.179 2.01765 0.20458 0
M  V30 6498 C 613.512 1.26696 1.47179 0
M  V30 6499 O 612.787 0.364936 1.91046 0
M  V30 6500 C 613.07 3.56869 0.481269 0
M  V30 6501 C 612.923 4.42617 -0.800629 0
M  V30 6502 C 614.242 4.2121 1.27554 0
M  V30 6503 H 611.361 0.733388 0.0728803 0
M  V30 6504 H 614.003 1.83068 -0.50853 0
M  V30 6505 H 612.153 3.72932 1.08875 0
M  V30 6506 H 613.825 4.38323 -1.43773 0
M  V30 6507 H 612.068 4.09977 -1.4178 0
M  V30 6508 H 612.739 5.49134 -0.561791 0
M  V30 6509 H 615.215 4.09072 0.761514 0
M  V30 6510 H 614.091 5.29732 1.43788 0
M  V30 6511 H 614.352 3.78269 2.28833 0
M  V30 6512 O 613.45 0.250515 1.59545 0
M  V30 6513 H 614.141 -0.324371 1.90965 0
M  V30 END ATOM
M  V30 BEGIN BOND
M  V30 END BOND
M  V30 END CTAB
M  END
$$$$
