drugbank_target|Q7L266 Isoaspartyl peptidase/L-asparaginase (DB00128; DB00174)
 OpenBabel12092120083D

  0  0  0     0  0            999 V3000
M  V30 BEGIN CTAB
M  V30 COUNTS 4495 4527 0 0 0
M  V30 BEGIN ATOM
M  V30 1 H -0.908 1.98254 -0.117106 0
M  V30 2 N 0 1.576 0 0
M  V30 3 C 0.933 2.03868 1.02534 0
M  V30 4 C 1.911 0.928543 1.3348 0
M  V30 5 O 3.095 1.19667 1.45644 0
M  V30 6 C 0.222 2.43627 2.35294 0
M  V30 7 C -0.732 3.65373 2.2001 0
M  V30 8 S 0.101 5.13292 1.52614 0
M  V30 9 C 1.257 5.56322 2.86805 0
M  V30 10 H 1.49 2.90518 0.631377 0
M  V30 11 H -0.977 1.52953 0.210867 0
M  V30 12 H 0.981 2.67203 3.11629 0
M  V30 13 H -0.358 1.57376 2.7183 0
M  V30 14 H -1.165 3.90944 3.18086 0
M  V30 15 H -1.563 3.418 1.51819 0
M  V30 16 H 0.729 5.58782 3.83104 0
M  V30 17 H 1.672 6.56266 2.65933 0
M  V30 18 H 2.08 4.83886 2.90714 0
M  V30 19 N 1.4781 -0.272755 1.55222 0
M  V30 20 C 2.4261 -1.35705 1.88909 0
M  V30 21 C 3.4201 -1.5112 0.765456 0
M  V30 22 O 4.6261 -1.52901 0.949802 0
M  V30 23 H 1.0011 -0.453868 0.59959 0
M  V30 24 H 2.9721 -1.04544 2.79487 0
M  V30 25 C 1.7211 -2.71049 2.17779 0
M  V30 26 H 1.0441 -2.59979 3.03728 0
M  V30 27 H 2.4841 -3.45858 2.45272 0
M  V30 28 C 0.9431 -3.22165 0.985473 0
M  V30 29 O 1.4731 -4.01096 0.220233 0
M  V30 30 N -0.3209 -2.7985 0.783108 0
M  V30 31 H -0.7739 -2.15775 1.40708 0
M  V30 32 H -0.8159 -3.14397 -0.0130392 0
M  V30 33 N 2.9562 -1.48159 -0.537278 0
M  V30 34 C 4.3672 -1.49429 -1.11928 0
M  V30 35 C 4.7182 -0.26 -1.9447 0
M  V30 36 O 3.8432 0.633489 -2.0692 0
M  V30 37 C 4.4382 -2.70758 -2.03656 0
M  V30 38 C 2.9972 -2.74923 -2.57088 0
M  V30 39 C 2.1442 -2.42835 -1.3389 0
M  V30 40 H 5.0952 -1.55381 -0.322886 0
M  V30 41 H 5.1162 -2.48861 -2.87834 0
M  V30 42 H 4.6282 -3.60575 -1.43553 0
M  V30 43 H 2.7292 -1.89296 -3.20933 0
M  V30 44 H 2.8422 -3.76157 -2.9672 0
M  V30 45 H 1.2062 -1.93836 -1.65226 0
M  V30 46 H 1.9892 -3.34884 -0.755504 0
M  V30 47 N 4.4343 0.785586 -1.36625 0
M  V30 48 C 5.6833 1.53883 -1.30396 0
M  V30 49 C 5.9963 1.95271 0.113452 0
M  V30 50 O 7.2023 2.69858 0.298142 0
M  V30 51 C 5.6583 2.77808 -2.28802 0
M  V30 52 C 5.2663 2.43574 -3.75999 0
M  V30 53 C 7.0103 3.55783 -2.31558 0
M  V30 54 C 4.9173 3.63919 -4.66173 0
M  V30 55 H 3.8473 0.577678 -0.484566 0
M  V30 56 H 6.4983 0.861705 -1.62009 0
M  V30 57 H 4.8803 3.47339 -1.90188 0
M  V30 58 H 6.0543 1.81916 -4.23371 0
M  V30 59 H 4.3693 1.78803 -3.76056 0
M  V30 60 H 6.9663 4.45205 -2.96137 0
M  V30 61 H 7.3093 3.94644 -1.3252 0
M  V30 62 H 7.8423 2.93235 -2.68809 0
M  V30 63 H 4.5813 3.3015 -5.66287 0
M  V30 64 H 4.1013 4.2473 -4.23515 0
M  V30 65 H 5.7803 4.30901 -4.82632 0
M  V30 66 N 5.9124 1.20967 1.01018 0
M  V30 67 C 7.1584 1.02526 1.74975 0
M  V30 68 C 7.4914 -0.4408 1.89131 0
M  V30 69 O 6.7664 -1.32718 1.42184 0
M  V30 70 C 7.0494 1.71699 3.1653 0
M  V30 71 C 6.9024 3.25791 3.10129 0
M  V30 72 C 8.2214 1.45531 4.15342 0
M  V30 73 H 5.3404 0.373863 0.635134 0
M  V30 74 H 7.9824 1.49071 1.17805 0
M  V30 75 H 6.1324 1.32128 3.65341 0
M  V30 76 H 7.8044 3.74697 2.69072 0
M  V30 77 H 6.0474 3.56363 2.47362 0
M  V30 78 H 6.7184 3.69353 4.10222 0
M  V30 79 H 9.1944 1.79872 3.75213 0
M  V30 80 H 8.0704 1.96453 5.1254 0
M  V30 81 H 8.3314 0.384237 4.40427 0
M  V30 82 N 7.3905 -1.2043 1.01659 0
M  V30 83 C 8.6365 -1.90079 0.706963 0
M  V30 84 C 8.9695 -1.78648 -0.761474 0
M  V30 85 O 8.2445 -1.17069 -1.55323 0
M  V30 86 C 8.5275 -3.41469 1.14327 0
M  V30 87 C 8.3805 -3.61833 2.67201 0
M  V30 88 C 9.6995 -4.34261 0.714529 0
M  V30 89 H 6.8185 -0.690254 0.2583 0
M  V30 90 H 9.4605 -1.41826 1.26433 0
M  V30 91 H 7.6105 -3.82696 0.669056 0
M  V30 92 H 9.2825 -3.2986 3.22475 0
M  V30 93 H 7.5255 -3.05304 3.08175 0
M  V30 94 H 8.1965 -4.67955 2.92783 0
M  V30 95 H 10.6725 -4.00682 1.12221 0
M  V30 96 H 9.5485 -5.38806 1.04784 0
M  V30 97 H 9.8095 -4.40431 -0.383799 0
M  V30 98 N 8.8686 -0.792821 -1.36206 0
M  V30 99 C 10.1146 -0.36733 -1.99446 0
M  V30 100 C 10.4476 1.05917 -1.62774 0
M  V30 101 O 9.7226 1.7324 -0.88421 0
M  V30 102 C 10.0056 -0.535044 -3.56103 0
M  V30 103 C 9.8586 -2.00548 -4.02617 0
M  V30 104 C 11.1776 0.0478191 -4.40074 0
M  V30 105 H 8.2966 -0.134941 -0.724541 0
M  V30 106 H 10.9386 -0.999794 -1.61568 0
M  V30 107 H 9.0886 0.00336329 -3.885 0
M  V30 108 H 10.7606 -2.60521 -3.80692 0
M  V30 109 H 9.0036 -2.50686 -3.54032 0
M  V30 110 H 9.6746 -2.07377 -5.11565 0
M  V30 111 H 12.1506 -0.411822 -4.14057 0
M  V30 112 H 11.0266 -0.0995336 -5.4881 0
M  V30 113 H 11.2876 1.14025 -4.27142 0
M  V30 114 N 10.3467 1.47872 -0.545128 0
M  V30 115 C 11.2967 2.26842 0.229456 0
M  V30 116 C 12.2807 1.33626 0.896267 0
M  V30 117 O 13.4727 1.58063 0.79657 0
M  V30 118 C 10.6017 3.19089 1.26638 0
M  V30 119 C 9.6877 4.19783 0.603598 0
M  V30 120 N 10.0787 5.0479 -0.319405 0
M  V30 121 C 8.3767 4.3765 0.858989 0
M  V30 122 C 9.0777 5.77433 -0.703241 0
M  V30 123 N 8.0537 5.43566 -0.0608309 0
M  V30 124 H 11.8557 2.89947 -0.480391 0
M  V30 125 H 9.3697 1.58263 -0.364209 0
M  V30 126 H 11.3667 3.74337 1.83515 0
M  V30 127 H 10.0267 2.5754 1.97745 0
M  V30 128 H 11.0377 5.13244 -0.692889 0
M  V30 129 H 7.7147 3.87281 1.55948 0
M  V30 130 H 9.1047 6.55824 -1.46098 0
M  V30 131 N 11.8248 0.280983 1.55075 0
M  V30 132 C 13.0728 -0.333455 1.9933 0
M  V30 133 C 13.3938 -1.55937 1.17085 0
M  V30 134 O 12.6638 -1.94143 0.261805 0
M  V30 135 H 11.2438 -0.126197 0.736263 0
M  V30 136 H 13.9058 0.387678 1.91005 0
M  V30 137 H 13.0018 -0.619292 3.05894 0
M  V30 138 N 13.3029 -1.57598 0.00835791 0
M  V30 139 C 14.5509 -1.90551 -0.6734 0
M  V30 140 C 14.8719 -0.883301 -1.73847 0
M  V30 141 O 14.1419 0.0781442 -1.95744 0
M  V30 142 H 12.7219 -0.703312 -0.251717 0
M  V30 143 H 15.3839 -1.94833 0.0512592 0
M  V30 144 H 14.4799 -2.9056 -1.13935 0
M  V30 145 N 14.781 0.264519 -1.55364 0
M  V30 146 C 16.029 0.993021 -1.76021 0
M  V30 147 C 16.35 1.86511 -0.569099 0
M  V30 148 O 15.62 1.91438 0.415735 0
M  V30 149 H 14.2 0.369639 -0.649135 0
M  V30 150 H 16.862 0.286707 -1.9278 0
M  V30 151 H 15.958 1.62502 -2.66457 0
M  V30 152 N 16.2591 1.48442 0.529413 0
M  V30 153 C 17.2221 1.62524 1.61612 0
M  V30 154 C 18.2221 0.498509 1.52877 0
M  V30 155 O 19.4121 0.76431 1.56537 0
M  V30 156 C 16.5441 1.59597 3.01233 0
M  V30 157 H 17.7371 2.59423 1.50465 0
M  V30 158 H 15.2901 1.37047 0.751514 0
M  V30 159 H 16.0251 0.641781 3.17886 0
M  V30 160 H 15.8101 2.41397 3.08982 0
M  V30 161 H 17.3001 1.72646 3.80241 0
M  V30 162 N 17.7372 -0.778329 1.37039 0
M  V30 163 C 18.9852 -1.53361 1.31623 0
M  V30 164 C 19.3062 -1.94739 -0.100831 0
M  V30 165 O 18.5762 -1.65797 -1.04347 0
M  V30 166 H 17.1562 -0.568794 0.484234 0
M  V30 167 H 19.8182 -0.926742 1.71457 0
M  V30 168 H 18.9142 -2.43606 1.95096 0
M  V30 169 N 19.2153 -1.21501 -1.00376 0
M  V30 170 C 20.6263 -1.03146 -1.55621 0
M  V30 171 C 20.9773 0.408375 -1.91903 0
M  V30 172 O 20.1023 1.29177 -1.73616 0
M  V30 173 C 20.6973 -1.86612 -2.82775 0
M  V30 174 C 19.2563 -1.72586 -3.34501 0
M  V30 175 C 18.4033 -1.83747 -2.07683 0
M  V30 176 H 21.3543 -1.35505 -0.826081 0
M  V30 177 H 21.3753 -1.3771 -3.54706 0
M  V30 178 H 20.8873 -2.91399 -2.56336 0
M  V30 179 H 18.9883 -0.704877 -3.65872 0
M  V30 180 H 19.1013 -2.54623 -4.05837 0
M  V30 181 H 17.4653 -1.27069 -2.20739 0
M  V30 182 H 18.2483 -2.90044 -1.83655 0
M  V30 183 N 20.6934 1.19889 -1.02296 0
M  V30 184 C 21.9424 1.88743 -0.711257 0
M  V30 185 C 22.2554 1.80112 0.762817 0
M  V30 186 O 23.4614 2.44161 1.18733 0
M  V30 187 C 21.9174 3.38525 -1.22185 0
M  V30 188 C 21.5254 3.55727 -2.72328 0
M  V30 189 C 23.2694 4.12893 -0.985864 0
M  V30 190 C 21.1764 4.99369 -3.16835 0
M  V30 191 H 20.1064 0.706885 -0.262353 0
M  V30 192 H 22.7574 1.35586 -1.23648 0
M  V30 193 H 21.1394 3.91044 -0.624571 0
M  V30 194 H 22.3134 3.13564 -3.3766 0
M  V30 195 H 20.6284 2.94739 -2.9414 0
M  V30 196 H 23.2254 5.18813 -1.29374 0
M  V30 197 H 23.5684 4.16228 0.0775055 0
M  V30 198 H 24.1014 3.66494 -1.54684 0
M  V30 199 H 20.8404 5.01193 -4.22476 0
M  V30 200 H 20.3604 5.42317 -2.56228 0
M  V30 201 H 22.0394 5.67988 -3.09837 0
M  V30 202 N 22.1715 0.800033 1.35784 0
M  V30 203 C 23.3965 0.388511 2.03729 0
M  V30 204 C 23.8215 -0.990481 1.5991 0
M  V30 205 O 23.1795 -1.64013 0.772612 0
M  V30 206 C 23.2275 0.4726 3.5749 0
M  V30 207 O 22.3315 -0.51646 4.09153 0
M  V30 208 H 21.6725 0.163271 0.643614 0
M  V30 209 H 24.2025 1.0841 1.73518 0
M  V30 210 H 24.2125 0.34003 4.06581 0
M  V30 211 H 22.8875 1.47848 3.88734 0
M  V30 212 H 21.4645 -0.344673 3.71304 0
M  V30 213 N 23.6496 -1.47581 0.552962 0
M  V30 214 C 24.5966 -2.29957 -0.197108 0
M  V30 215 C 25.5666 -1.38799 -0.912359 0
M  V30 216 O 26.7516 -1.67761 -0.908888 0
M  V30 217 C 23.8916 -3.22672 -1.22379 0
M  V30 218 C 23.0046 -4.28919 -0.515038 0
M  V30 219 C 22.1396 -5.0879 -1.52664 0
M  V30 220 C 21.1786 -6.06815 -0.802631 0
M  V30 221 N 20.3156 -6.7966 -1.76086 0
M  V30 222 H 25.1556 -2.93578 0.511486 0
M  V30 223 H 22.6926 -1.4471 0.264067 0
M  V30 224 H 24.6506 -3.74845 -1.83159 0
M  V30 225 H 23.2806 -2.60925 -1.90047 0
M  V30 226 H 22.3326 -3.79835 0.207192 0
M  V30 227 H 23.6446 -4.98773 0.0523425 0
M  V30 228 H 22.7986 -5.65091 -2.20809 0
M  V30 229 H 21.5376 -4.38828 -2.12794 0
M  V30 230 H 20.5426 -5.49695 -0.107238 0
M  V30 231 H 21.7676 -6.78784 -0.207135 0
M  V30 232 H 19.7136 -6.12432 -2.35081 0
M  V30 233 H 19.6306 -7.45669 -1.24552 0
M  V30 234 H 20.8986 -7.40538 -2.43359 0
M  V30 235 N 25.1277 -0.289203 -1.54924 0
M  V30 236 C 26.4047 0.376032 -1.91951 0
M  V30 237 C 26.7847 1.72622 -1.21511 0
M  V30 238 O 26.1327 2.25853 -0.346767 0
M  V30 239 C 26.3427 0.502378 -3.45365 0
M  V30 240 C 27.6907 0.778741 -4.17398 0
M  V30 241 O 28.7147 0.586647 -3.51336 0
M  V30 242 O 27.5737 1.14698 -5.34328 0
M  V30 243 H 24.6677 0.208167 -0.800372 0
M  V30 244 H 27.2137 -0.336394 -1.66332 0
M  V30 245 H 25.9857 -0.447255 -3.88736 0
M  V30 246 H 25.6087 1.26373 -3.76982 0
M  V30 247 N 26.6058 1.57591 -0.0167156 0
M  V30 248 C 28.0218 1.55946 0.339557 0
M  V30 249 C 28.2218 1.02109 1.73713 0
M  V30 250 O 27.2778 0.662303 2.43659 0
M  V30 251 C 28.5908 3.00037 0.199499 0
M  V30 252 C 30.1388 3.11805 0.273193 0
M  V30 253 C 30.6138 4.57713 0.162068 0
M  V30 254 N 32.1048 4.6268 0.219444 0
M  V30 255 C 32.8398 5.73185 0.157054 0
M  V30 256 N 32.3358 6.92786 0.0442936 0
M  V30 257 N 34.1288 5.61707 0.21014 0
M  V30 258 H 26.2798 1.90921 -0.930758 0
M  V30 259 H 28.5428 0.877674 -0.358319 0
M  V30 260 H 28.2488 3.4333 -0.76273 0
M  V30 261 H 28.1228 3.64387 0.974786 0
M  V30 262 H 30.5098 2.68433 1.22587 0
M  V30 263 H 30.5908 2.50201 -0.532256 0
M  V30 264 H 30.2348 5.01763 -0.78714 0
M  V30 265 H 30.1648 5.17283 0.986222 0
M  V30 266 H 32.6558 3.76649 0.307246 0
M  V30 267 H 32.9688 7.728 0.00304069 0
M  V30 268 H 31.3138 6.94999 0.00968457 0
M  V30 269 H 34.5048 4.6716 0.296546 0
M  V30 270 H 34.6778 6.47807 0.158054 0
M  V30 271 N 28.0839 -0.256276 1.55502 0
M  V30 272 C 29.0309 -1.31714 1.89526 0
M  V30 273 C 30.0009 -1.4828 0.748479 0
M  V30 274 O 31.1859 -1.62416 1.00128 0
M  V30 275 C 28.3259 -2.66933 2.18725 0
M  V30 276 C 27.4389 -2.58452 3.4616 0
M  V30 277 C 26.5739 -3.85961 3.64976 0
M  V30 278 C 25.6129 -3.72059 4.86044 0
M  V30 279 N 24.7499 -4.9144 5.01429 0
M  V30 280 H 29.5899 -1.01998 2.80001 0
M  V30 281 H 27.1269 -0.492413 1.38613 0
M  V30 282 H 29.0849 -3.4563 2.33657 0
M  V30 283 H 27.7149 -2.94816 1.31466 0
M  V30 284 H 26.7669 -1.71374 3.3961 0
M  V30 285 H 28.0789 -2.44085 4.34999 0
M  V30 286 H 27.2329 -4.73101 3.79816 0
M  V30 287 H 25.9719 -4.03215 2.74353 0
M  V30 288 H 24.9769 -2.83302 4.7119 0
M  V30 289 H 26.2019 -3.56309 5.78118 0
M  V30 290 H 24.1479 -5.09072 4.13741 0
M  V30 291 H 24.0649 -4.79668 5.84341 0
M  V30 292 H 25.3329 -5.80104 5.20672 0
M  V30 293 N 29.562 -1.4872 -0.521534 0
M  V30 294 C 30.472 -1.66569 -1.65203 0
M  V30 295 C 31.488 -0.548197 -1.65139 0
M  V30 296 O 32.664 -0.820339 -1.83936 0
M  V30 297 C 29.729 -1.70917 -3.01642 0
M  V30 298 C 28.79 -2.94356 -3.12495 0
M  V30 299 C 28.023 -2.98487 -4.42426 0
M  V30 300 O 28.246 -2.10786 -5.30024 0
M  V30 301 O 27.18 -3.90746 -4.57822 0
M  V30 302 H 31.006 -2.62298 -1.5308 0
M  V30 303 H 28.591 -1.3222 -0.695565 0
M  V30 304 H 30.473 -1.7625 -3.82771 0
M  V30 305 H 29.148 -0.783633 -3.14071 0
M  V30 306 H 28.055 -2.94552 -2.3063 0
M  V30 307 H 29.388 -3.86322 -3.04986 0
M  V30 308 N 31.0401 0.771051 -1.3745 0
M  V30 309 C 32.4561 1.07171 -1.18265 0
M  V30 310 C 32.6561 2.01491 -0.019287 0
M  V30 311 O 31.7121 2.44244 0.640408 0
M  V30 312 C 33.0251 1.66854 -2.50161 0
M  V30 313 C 34.5731 1.79109 -2.56689 0
M  V30 314 C 35.0481 2.42205 -3.88717 0
M  V30 315 N 36.5391 2.49655 -3.90162 0
M  V30 316 C 37.2741 2.9933 -4.8907 0
M  V30 317 N 36.7701 3.49172 -5.98374 0
M  V30 318 N 38.5631 2.9821 -4.76474 0
M  V30 319 H 30.7141 0.144796 -2.11906 0
M  V30 320 H 32.9771 0.126863 -0.939473 0
M  V30 321 H 32.6831 1.05017 -3.35655 0
M  V30 322 H 32.5571 2.6614 -2.673 0
M  V30 323 H 34.9441 2.40077 -1.71601 0
M  V30 324 H 35.0251 0.785757 -2.43433 0
M  V30 325 H 34.6691 1.81875 -4.74219 0
M  V30 326 H 34.5991 3.43345 -3.99276 0
M  V30 327 H 37.0901 2.14383 -3.11205 0
M  V30 328 H 37.4031 3.8548 -6.69795 0
M  V30 329 H 35.7481 3.47275 -6.02018 0
M  V30 330 H 38.9391 2.58572 -3.90203 0
M  V30 331 H 39.1121 3.36613 -5.53711 0
M  V30 332 N 32.5182 1.22032 0.997298 0
M  V30 333 C 33.7642 1.04376 1.73878 0
M  V30 334 C 34.0972 -0.420716 1.89588 0
M  V30 335 O 33.3722 -1.31202 1.43583 0
M  V30 336 C 33.6552 1.75047 3.14691 0
M  V30 337 C 33.5082 3.29062 3.06656 0
M  V30 338 C 34.8272 1.49928 4.13775 0
M  V30 339 H 31.9462 0.380578 0.631133 0
M  V30 340 H 34.5882 1.50312 1.16217 0
M  V30 341 H 32.7382 1.35996 3.63919 0
M  V30 342 H 34.4102 3.7753 2.65083 0
M  V30 343 H 32.6532 3.58967 2.43568 0
M  V30 344 H 33.3242 3.73683 4.06282 0
M  V30 345 H 35.8002 1.83842 3.73285 0
M  V30 346 H 34.6762 2.01878 5.10428 0
M  V30 347 H 34.9372 0.430929 4.39995 0
M  V30 348 N 33.9963 -1.19345 1.0293 0
M  V30 349 C 34.9463 -2.20472 0.58104 0
M  V30 350 C 35.9303 -1.56578 -0.370442 0
M  V30 351 O 37.1223 -1.75963 -0.191344 0
M  V30 352 C 34.2513 -3.43236 -0.066306 0
M  V30 353 C 33.3373 -4.14274 0.907642 0
M  V30 354 N 33.7283 -4.61492 2.07023 0
M  V30 355 C 32.0263 -4.39966 0.731177 0
M  V30 356 C 32.7273 -5.1605 2.68454 0
M  V30 357 N 31.7033 -5.06875 1.96414 0
M  V30 358 H 35.5053 -2.54659 1.46717 0
M  V30 359 H 33.0193 -1.35423 0.896345 0
M  V30 360 H 35.0163 -4.14927 -0.405068 0
M  V30 361 H 33.6763 -3.10549 -0.948118 0
M  V30 362 H 34.6873 -4.56304 2.44963 0
M  V30 363 H 31.3643 -4.17377 -0.101507 0
M  V30 364 H 32.7543 -5.6287 3.66915 0
M  V30 365 N 35.4744 -0.807222 -1.35358 0
M  V30 366 C 36.4064 -0.175717 -2.28525 0
M  V30 367 C 37.4194 0.625354 -1.5031 0
M  V30 368 O 38.6084 0.457611 -1.72535 0
M  V30 369 C 35.7084 0.773471 -3.29956 0
M  V30 370 C 34.8814 0.0186296 -4.37396 0
M  V30 371 C 33.9404 0.886395 -5.18681 0
M  V30 372 O 32.9664 0.337106 -5.68201 0
M  V30 373 N 34.1684 2.20839 -5.36852 0
M  V30 374 H 36.9334 -0.976091 -2.83359 0
M  V30 375 H 34.4944 -0.662737 -1.47714 0
M  V30 376 H 36.4864 1.35824 -3.81227 0
M  V30 377 H 35.0564 1.47465 -2.75632 0
M  V30 378 H 34.2764 -0.747349 -3.87051 0
M  V30 379 H 35.5644 -0.501577 -5.06322 0
M  V30 380 H 34.9624 2.67858 -4.98265 0
M  V30 381 H 33.5194 2.74237 -5.91301 0
M  V30 382 N 36.9525 1.47285 -0.560781 0
M  V30 383 C 38.2005 2.02064 -0.0379868 0
M  V30 384 C 38.5215 1.43711 1.31803 0
M  V30 385 O 37.7915 0.61362 1.86042 0
M  V30 386 H 36.3715 0.746918 -0.0110531 0
M  V30 387 H 39.0335 1.80648 -0.731598 0
M  V30 388 H 38.1295 3.12064 0.0474463 0
M  V30 389 N 38.4306 0.297415 1.54768 0
M  V30 390 C 39.3636 -0.622188 2.19554 0
M  V30 391 C 40.3416 -1.13558 1.16376 0
M  V30 392 O 41.5256 -1.20444 1.45002 0
M  V30 393 C 38.6526 -1.8509 2.83653 0
M  V30 394 C 37.6986 -1.47106 4.00328 0
M  V30 395 S 38.5316 -0.53006 5.3287 0
M  V30 396 C 39.6876 -1.76665 6.0045 0
M  V30 397 H 39.9206 -0.0717806 2.97213 0
M  V30 398 H 37.4536 0.0815678 1.54184 0
M  V30 399 H 39.4116 -2.55605 3.21211 0
M  V30 400 H 38.0726 -2.37247 2.05846 0
M  V30 401 H 37.2656 -2.38594 4.43947 0
M  V30 402 H 36.8676 -0.845885 3.64309 0
M  V30 403 H 39.1596 -2.7077 6.21039 0
M  V30 404 H 40.1026 -1.37308 6.9466 0
M  V30 405 H 40.5106 -1.94174 5.30054 0
M  V30 406 N 39.9087 -1.5758 0.0250728 0
M  V30 407 C 41.1547 -1.91917 -0.655413 0
M  V30 408 C 41.4877 -0.901433 -1.72011 0
M  V30 409 O 40.7627 0.0764069 -1.9435 0
M  V30 410 C 41.0457 -3.36751 -1.27558 0
M  V30 411 C 40.8987 -4.49258 -0.220719 0
M  V30 412 C 42.2177 -3.81469 -2.19475 0
M  V30 413 H 39.3367 -0.697925 -0.23679 0
M  V30 414 H 41.9787 -1.89825 0.0815036 0
M  V30 415 H 40.1287 -3.38664 -1.90365 0
M  V30 416 H 41.8007 -4.59478 0.409601 0
M  V30 417 H 40.0437 -4.31415 0.454264 0
M  V30 418 H 40.7147 -5.47618 -0.694175 0
M  V30 419 H 43.1907 -3.81266 -1.66659 0
M  V30 420 H 42.0667 -4.83512 -2.59822 0
M  V30 421 H 42.3277 -3.16744 -3.08424 0
M  V30 422 N 41.3868 0.248026 -1.55636 0
M  V30 423 C 42.8028 0.596483 -1.48035 0
M  V30 424 C 43.0028 1.88386 -0.715039 0
M  V30 425 O 42.0588 2.51319 -0.243944 0
M  V30 426 C 43.3718 0.700258 -2.92433 0
M  V30 427 C 44.9198 0.792659 -3.02797 0
M  V30 428 C 45.3948 0.928005 -4.485 0
M  V30 429 N 46.8858 0.992903 -4.52433 0
M  V30 430 C 47.6208 1.11687 -5.62418 0
M  V30 431 N 47.1168 1.20645 -6.82214 0
M  V30 432 N 48.9098 1.14994 -5.50212 0
M  V30 433 H 41.0608 -0.597109 -2.03834 0
M  V30 434 H 43.3238 -0.205925 -0.925364 0
M  V30 435 H 43.0298 -0.175658 -3.51261 0
M  V30 436 H 42.9038 1.57255 -3.42857 0
M  V30 437 H 45.2908 1.65903 -2.4405 0
M  V30 438 H 45.3718 -0.104762 -2.55585 0
M  V30 439 H 45.0158 0.0661971 -5.07857 0
M  V30 440 H 44.9458 1.84045 -4.93391 0
M  V30 441 H 47.4368 0.935064 -3.66149 0
M  V30 442 H 47.7498 1.30008 -7.61786 0
M  V30 443 H 46.0948 1.17605 -6.84977 0
M  V30 444 H 49.2858 1.07643 -4.55555 0
M  V30 445 H 49.4588 1.24311 -6.35965 0
M  V30 446 N 42.8649 1.48995 0.513639 0
M  V30 447 C 43.8279 1.64229 1.59879 0
M  V30 448 C 44.8279 0.514696 1.5234 0
M  V30 449 O 46.0179 0.78087 1.55718 0
M  V30 450 C 43.1499 1.62783 2.99524 0
M  V30 451 H 44.3429 2.61004 1.47705 0
M  V30 452 H 41.8959 1.37837 0.736936 0
M  V30 453 H 42.6309 0.675461 3.17188 0
M  V30 454 H 42.4159 2.4466 3.06404 0
M  V30 455 H 43.9059 1.76669 3.78388 0
M  V30 456 N 44.343 -0.763751 1.37857 0
M  V30 457 C 45.306 -1.85889 1.34081 0
M  V30 458 C 46.306 -1.58949 0.243277 0
M  V30 459 O 47.496 -1.66882 0.499589 0
M  V30 460 C 44.628 -3.23176 1.08489 0
M  V30 461 H 45.821 -1.90648 2.31502 0
M  V30 462 H 43.374 -0.964367 1.23003 0
M  V30 463 H 44.109 -3.24091 0.116318 0
M  V30 464 H 43.894 -3.44124 1.8794 0
M  V30 465 H 45.384 -4.03254 1.08517 0
M  V30 466 N 45.8211 -1.22559 -0.990812 0
M  V30 467 C 47.0491 -1.07779 -1.76611 0
M  V30 468 C 47.4641 0.371513 -1.85109 0
M  V30 469 O 46.8211 1.25737 -1.32274 0
M  V30 470 C 46.8721 -1.68512 -3.19822 0
M  V30 471 O 46.5931 -3.07774 -3.1178 0
M  V30 472 C 48.0941 -1.59035 -4.13791 0
M  V30 473 H 45.3141 -0.377729 -0.554583 0
M  V30 474 H 47.8581 -1.62195 -1.24551 0
M  V30 475 H 46.0131 -1.18154 -3.68942 0
M  V30 476 H 46.4271 -3.37062 -4.01858 0
M  V30 477 H 47.9011 -2.0625 -5.1202 0
M  V30 478 H 48.3781 -0.547273 -4.35777 0
M  V30 479 H 48.9841 -2.08709 -3.70568 0
M  V30 480 N 47.2992 1.18797 -1.03562 0
M  V30 481 C 48.5452 1.8893 -0.737113 0
M  V30 482 C 48.8782 1.79837 0.732956 0
M  V30 483 O 48.1532 1.19525 1.5344 0
M  V30 484 C 48.4362 3.39607 -1.19745 0
M  V30 485 C 48.2892 3.57537 -2.72924 0
M  V30 486 C 49.6082 4.33069 -0.783526 0
M  V30 487 H 46.7272 0.686057 -0.269249 0
M  V30 488 H 49.3692 1.39797 -1.28673 0
M  V30 489 H 47.5192 3.81583 -0.729855 0
M  V30 490 H 49.1912 3.24688 -3.27682 0
M  V30 491 H 47.4342 3.00363 -3.12993 0
M  V30 492 H 48.1052 4.63238 -3.00191 0
M  V30 493 H 50.5812 3.98846 -1.18581 0
M  V30 494 H 49.4572 5.3707 -1.13343 0
M  V30 495 H 49.7182 4.40986 0.313681 0
M  V30 496 N 48.7773 0.814389 1.34928 0
M  V30 497 C 50.0253 0.397636 1.9815 0
M  V30 498 C 50.3463 -1.04069 1.64908 0
M  V30 499 O 49.6163 -1.72121 0.93548 0
M  V30 500 H 48.1963 0.144043 0.732981 0
M  V30 501 H 50.8583 1.04195 1.6471 0
M  V30 502 H 49.9543 0.509688 3.0791 0
M  V30 503 N 50.2554 -1.46986 0.568584 0
M  V30 504 C 51.4854 -2.0653 0.0539173 0
M  V30 505 C 51.8934 -1.42004 -1.25026 0
M  V30 506 O 51.2364 -0.514541 -1.76347 0
M  V30 507 C 51.2984 -3.58938 -0.200854 0
M  V30 508 C 50.9624 -4.45572 1.01559 0
M  V30 509 C 51.9594 -4.82986 1.92407 0
M  V30 510 C 49.6444 -4.8692 1.23346 0
M  V30 511 C 51.6384 -5.60559 3.03402 0
M  V30 512 C 49.3254 -5.64255 2.34649 0
M  V30 513 C 50.3234 -6.00986 3.24507 0
M  V30 514 O 50.0114 -6.76761 4.33878 0
M  V30 515 H 49.7434 -0.674292 0.0480234 0
M  V30 516 H 52.2974 -1.89812 0.784896 0
M  V30 517 H 50.5274 -3.73911 -0.986279 0
M  V30 518 H 52.2164 -4.0046 -0.662294 0
M  V30 519 H 52.9824 -4.51633 1.76785 0
M  V30 520 H 48.8614 -4.57789 0.543178 0
M  V30 521 H 52.4054 -5.89147 3.73565 0
M  V30 522 H 48.3024 -5.95021 2.5024 0
M  V30 523 H 49.0704 -6.95168 4.32068 0
M  V30 524 N 51.7335 -0.305618 -1.54608 0
M  V30 525 C 52.9815 0.301701 -1.99835 0
M  V30 526 C 53.3025 1.54054 -1.19551 0
M  V30 527 O 52.5725 1.93702 -0.292658 0
M  V30 528 H 51.1525 0.114468 -0.738178 0
M  V30 529 H 53.8145 -0.418016 -1.90364 0
M  V30 530 H 52.9105 0.570548 -3.06841 0
M  V30 531 N 53.2116 1.57565 -0.0334293 0
M  V30 532 C 54.4606 1.91155 0.643639 0
M  V30 533 C 54.7736 0.91192 1.73042 0
M  V30 534 O 55.9796 1.13923 2.46442 0
M  V30 535 C 54.4356 3.39443 1.1961 0
M  V30 536 C 54.0436 4.47774 0.142381 0
M  V30 537 C 55.7876 3.82094 1.84944 0
M  V30 538 C 53.6946 5.87162 0.706727 0
M  V30 539 H 52.6246 0.713368 0.244176 0
M  V30 540 H 55.2756 1.8323 -0.0994323 0
M  V30 541 H 53.6576 3.42313 1.99092 0
M  V30 542 H 54.8316 4.56469 -0.630296 0
M  V30 543 H 53.1466 4.14352 -0.412446 0
M  V30 544 H 55.7436 4.83591 2.2813 0
M  V30 545 H 56.0866 3.17386 2.69392 0
M  V30 546 H 56.6196 3.81665 1.12145 0
M  V30 547 H 53.3586 6.55424 -0.0997178 0
M  V30 548 H 52.8786 5.82064 1.44779 0
M  V30 549 H 54.5576 6.35866 1.19514 0
M  V30 550 N 54.6897 -0.239769 1.55765 0
M  V30 551 C 55.6197 -1.30052 1.9393 0
M  V30 552 C 56.6007 -1.49839 0.805132 0
M  V30 553 O 57.7857 -1.62328 1.06599 0
M  V30 554 C 54.9157 -2.65391 2.2402 0
M  V30 555 C 53.8697 -2.60289 3.39755 0
M  V30 556 C 53.1957 -3.99489 3.55405 0
M  V30 557 C 54.4957 -2.16654 4.75246 0
M  V30 558 H 56.1897 -0.983573 2.82783 0
M  V30 559 H 53.7357 -0.471701 1.36055 0
M  V30 560 H 55.6887 -3.3974 2.49308 0
M  V30 561 H 54.4127 -2.98736 1.32 0
M  V30 562 H 53.0717 -1.88398 3.14487 0
M  V30 563 H 52.7197 -4.30112 2.60793 0
M  V30 564 H 52.4197 -3.96962 4.33238 0
M  V30 565 H 53.9437 -4.75528 3.83022 0
M  V30 566 H 55.3577 -2.80737 4.99859 0
M  V30 567 H 53.7547 -2.25223 5.56232 0
M  V30 568 H 54.8247 -1.11835 4.71827 0
M  V30 569 N 56.1678 -1.49265 -0.50573 0
M  V30 570 C 57.5838 -1.35923 -0.836486 0
M  V30 571 C 57.7838 -0.388704 -1.97715 0
M  V30 572 O 56.8398 0.181336 -2.51848 0
M  V30 573 C 58.1528 -2.76531 -1.18115 0
M  V30 574 C 59.7008 -2.85197 -1.28964 0
M  V30 575 C 60.1758 -4.26561 -1.66761 0
M  V30 576 N 61.6668 -4.2935 -1.73819 0
M  V30 577 C 62.4018 -5.35693 -2.045 0
M  V30 578 N 61.8978 -6.52287 -2.33438 0
M  V30 579 N 63.6908 -5.23105 -2.05711 0
M  V30 580 H 55.8418 -2.10965 0.246519 0
M  V30 581 H 58.1048 -0.9468 0.0476887 0
M  V30 582 H 57.8108 -3.49226 -0.416398 0
M  V30 583 H 57.6848 -3.11599 -2.1257 0
M  V30 584 H 60.0718 -2.12742 -2.04511 0
M  V30 585 H 60.1528 -2.53718 -0.325704 0
M  V30 586 H 59.7968 -4.99541 -0.917656 0
M  V30 587 H 59.7268 -4.55502 -2.64246 0
M  V30 588 H 62.2178 -3.4526 -1.53635 0
M  V30 589 H 62.5308 -7.29158 -2.56024 0
M  V30 590 H 60.8758 -6.55521 -2.30905 0
M  V30 591 H 64.0668 -4.31026 -1.82577 0
M  V30 592 H 64.2398 -6.06078 -2.29289 0
M  V30 593 N 57.6459 0.756429 -1.3826 0
M  V30 594 C 58.5559 1.9009 -1.37488 0
M  V30 595 C 59.5719 1.71855 -0.272366 0
M  V30 596 O 60.7479 1.94827 -0.510318 0
M  V30 597 C 57.8129 3.25421 -1.19592 0
M  V30 598 C 56.8739 3.56202 -2.39622 0
M  V30 599 C 56.1069 4.85075 -2.2257 0
M  V30 600 O 56.3299 5.57246 -1.21793 0
M  V30 601 O 55.2639 5.15269 -3.11098 0
M  V30 602 H 59.0899 1.93695 -2.33914 0
M  V30 603 H 56.6749 0.901313 -1.1915 0
M  V30 604 H 58.5569 4.06337 -1.11661 0
M  V30 605 H 57.2319 3.22634 -0.262486 0
M  V30 606 H 56.1389 2.75458 -2.53128 0
M  V30 607 H 57.4719 3.63747 -3.31586 0
M  V30 608 N 59.124 1.23083 0.984299 0
M  V30 609 C 60.372 1.05848 1.72165 0
M  V30 610 C 60.693 -0.406049 1.90726 0
M  V30 611 O 59.963 -1.29139 1.47309 0
M  V30 612 H 58.543 0.388685 0.637913 0
M  V30 613 H 61.205 1.54736 1.18503 0
M  V30 614 H 60.301 1.54327 2.71274 0
M  V30 615 N 60.6021 -1.18246 1.0419 0
M  V30 616 C 61.8501 -1.87886 0.744543 0
M  V30 617 C 62.1711 -1.8082 -0.730006 0
M  V30 618 O 61.4411 -1.22736 -1.52685 0
M  V30 619 H 60.0211 -0.695556 0.272417 0
M  V30 620 H 62.6831 -1.43494 1.31892 0
M  V30 621 H 61.7791 -2.9389 1.05049 0
M  V30 622 N 62.0802 -0.821533 -1.34494 0
M  V30 623 C 63.3052 -0.420873 -2.03085 0
M  V30 624 C 63.7302 0.964915 -1.61465 0
M  V30 625 O 63.0882 1.62763 -0.798607 0
M  V30 626 C 63.1362 -0.529414 -3.56693 0
M  V30 627 O 62.2402 0.451302 -4.09923 0
M  V30 628 H 61.5812 -0.173489 -0.640935 0
M  V30 629 H 64.1112 -1.11157 -1.71771 0
M  V30 630 H 64.1212 -0.404671 -4.05988 0
M  V30 631 H 62.7962 -1.54014 -3.86332 0
M  V30 632 H 61.3732 0.285558 -3.71805 0
M  V30 633 N 63.5583 1.46682 -0.576371 0
M  V30 634 C 64.5213 2.28707 0.150239 0
M  V30 635 C 65.5213 1.38035 0.824794 0
M  V30 636 O 66.7113 1.60476 0.677719 0
M  V30 637 C 63.8433 3.18248 1.22192 0
M  V30 638 H 65.0363 2.94423 -0.570521 0
M  V30 639 H 62.5893 1.52688 -0.334078 0
M  V30 640 H 63.3243 2.57265 1.97447 0
M  V30 641 H 63.1093 3.85 0.742812 0
M  V30 642 H 64.5993 3.80001 1.73172 0
M  V30 643 N 65.0364 0.313813 1.54444 0
M  V30 644 C 66.2824 -0.292108 2.00685 0
M  V30 645 C 66.6154 -1.52548 1.20177 0
M  V30 646 O 65.8904 -1.92452 0.281531 0
M  V30 647 C 66.1734 -0.635968 3.5444 0
M  V30 648 C 66.0264 0.607437 4.4568 0
M  V30 649 C 67.3454 -1.45747 4.15266 0
M  V30 650 H 64.4644 -0.104697 0.729526 0
M  V30 651 H 67.1064 0.428457 1.85106 0
M  V30 652 H 65.2564 -1.24986 3.67846 0
M  V30 653 H 66.9284 1.24581 4.44159 0
M  V30 654 H 65.1714 1.23822 4.15753 0
M  V30 655 H 65.8424 0.322515 5.51057 0
M  V30 656 H 68.3184 -0.938645 4.05375 0
M  V30 657 H 67.1944 -1.66683 5.2298 0
M  V30 658 H 67.4554 -2.45063 3.67963 0
M  V30 659 N 66.5145 -1.57545 0.0417849 0
M  V30 660 C 67.7915 -1.83642 -0.673433 0
M  V30 661 C 68.1715 -0.928298 -1.89594 0
M  V30 662 O 67.5195 0.0129955 -2.28496 0
M  V30 663 C 67.7295 -3.33155 -1.03964 0
M  V30 664 C 69.0775 -3.99941 -1.42592 0
M  V30 665 O 70.1015 -3.37725 -1.13226 0
M  V30 666 O 68.9605 -5.09619 -1.9736 0
M  V30 667 H 66.0545 -0.757638 -0.331533 0
M  V30 668 H 68.6005 -1.69554 0.070433 0
M  V30 669 H 67.3725 -3.9093 -0.170098 0
M  V30 670 H 66.9955 -3.52396 -1.84126 0
M  V30 671 N 67.9926 0.231505 -1.5589 0
M  V30 672 C 68.9556 1.27028 -1.90779 0
M  V30 673 C 69.9556 1.40308 -0.785507 0
M  V30 674 O 71.1456 1.38744 -1.05336 0
M  V30 675 C 68.2776 2.64566 -2.14983 0
M  V30 676 H 69.4706 0.973017 -2.83677 0
M  V30 677 H 67.0236 0.471486 -1.49019 0
M  V30 678 H 67.7586 2.99406 -1.24604 0
M  V30 679 H 67.5436 2.56305 -2.96732 0
M  V30 680 H 69.0336 3.39543 -2.43105 0
M  V30 681 N 69.4707 1.49531 0.497807 0
M  V30 682 C 70.7167 1.59415 1.25358 0
M  V30 683 C 71.0497 0.281422 1.9215 0
M  V30 684 O 70.3247 -0.715249 1.80871 0
M  V30 685 C 70.6077 2.75566 2.3181 0
M  V30 686 C 70.4607 4.16642 1.69498 0
M  V30 687 C 71.7797 2.87347 3.33346 0
M  V30 688 H 68.8987 0.580244 0.454408 0
M  V30 689 H 71.5407 1.81827 0.551262 0
M  V30 690 H 69.6907 2.56587 2.91711 0
M  V30 691 H 71.3627 4.47145 1.13399 0
M  V30 692 H 69.6057 4.22141 0.998978 0
M  V30 693 H 70.2767 4.93792 2.46725 0
M  V30 694 H 72.7527 3.04634 2.83438 0
M  V30 695 H 71.6287 3.70289 4.05188 0
M  V30 696 H 71.8897 1.96834 3.95865 0
M  V30 697 N 70.9488 -0.749086 1.3866 0
M  V30 698 C 71.8588 -1.89358 1.38494 0
M  V30 699 C 72.8748 -1.71708 0.281476 0
M  V30 700 O 74.0508 -1.94554 0.520643 0
M  V30 701 C 71.1158 -3.24782 1.21316 0
M  V30 702 C 70.1768 -3.54926 2.41508 0
M  V30 703 C 69.4098 -4.83888 2.2514 0
M  V30 704 O 69.6328 -5.56592 1.24746 0
M  V30 705 O 68.5668 -5.13612 3.13826 0
M  V30 706 H 72.3928 -1.92452 2.34938 0
M  V30 707 H 69.9778 -0.894981 1.19626 0
M  V30 708 H 71.8598 -4.05739 1.13814 0
M  V30 709 H 70.5348 -3.2249 0.279592 0
M  V30 710 H 69.4418 -2.74112 2.54585 0
M  V30 711 H 70.7748 -3.61983 3.3351 0
M  V30 712 N 72.4269 -1.23603 -0.977757 0
M  V30 713 C 73.6749 -1.06759 -1.71601 0
M  V30 714 C 73.9959 0.395929 -1.90938 0
M  V30 715 O 73.2659 1.28356 -1.47992 0
M  V30 716 H 71.8459 -0.392062 -0.635843 0
M  V30 717 H 74.5079 -1.55362 -1.1768 0
M  V30 718 H 73.6039 -1.55763 -2.70452 0
M  V30 719 N 73.905 1.17692 -1.04816 0
M  V30 720 C 74.868 2.19787 -0.650117 0
M  V30 721 C 75.868 1.58044 0.296427 0
M  V30 722 O 77.058 1.74012 0.0808097 0
M  V30 723 C 74.19 3.40869 0.0456987 0
M  V30 724 H 75.383 2.56516 -1.5537 0
M  V30 725 H 72.936 1.31708 -0.841594 0
M  V30 726 H 73.671 3.09681 0.962726 0
M  V30 727 H 73.456 3.86928 -0.634727 0
M  V30 728 H 74.946 4.16445 0.310432 0
M  V30 729 N 75.3831 0.828654 1.34056 0
M  V30 730 C 76.6291 0.42008 1.98402 0
M  V30 731 C 76.9621 -1.01564 1.65525 0
M  V30 732 O 76.2371 -1.70834 0.929831 0
M  V30 733 C 76.5201 0.62927 3.54559 0
M  V30 734 C 76.3731 2.11152 3.97159 0
M  V30 735 C 77.6921 0.0688756 4.40046 0
M  V30 736 H 74.8111 0.154104 0.720709 0
M  V30 737 H 77.4531 1.04228 1.5886 0
M  V30 738 H 75.6031 0.0996418 3.88372 0
M  V30 739 H 77.2751 2.70522 3.73651 0
M  V30 740 H 75.5181 2.59985 3.47261 0
M  V30 741 H 76.1891 2.20868 5.05887 0
M  V30 742 H 78.6651 0.521458 4.1282 0
M  V30 743 H 77.5411 0.245006 5.48353 0
M  V30 744 H 77.8021 -1.0266 4.30015 0
M  V30 745 N 76.8612 -1.46375 0.584142 0
M  V30 746 C 78.1072 -2.02678 0.0703716 0
M  V30 747 C 78.4402 -1.4545 -1.28678 0
M  V30 748 O 77.7152 -0.62014 -1.84349 0
M  V30 749 C 77.9982 -3.60099 0.00614674 0
M  V30 750 C 77.8512 -4.27709 1.3923 0
M  V30 751 C 79.1702 -4.34598 -0.693742 0
M  V30 752 H 76.2892 -0.736504 0.027047 0
M  V30 753 H 78.9312 -1.74501 0.751615 0
M  V30 754 H 77.0812 -3.84236 -0.574009 0
M  V30 755 H 78.7532 -4.14832 2.01773 0
M  V30 756 H 76.9962 -3.87016 1.95962 0
M  V30 757 H 77.6672 -5.36478 1.29982 0
M  V30 758 H 80.1432 -4.15615 -0.200869 0
M  V30 759 H 79.0192 -5.44318 -0.707714 0
M  V30 760 H 79.2802 -4.05759 -1.75533 0
M  V30 761 N 78.3393 -0.321999 -1.54275 0
M  V30 762 C 79.3023 0.531975 -2.22941 0
M  V30 763 C 80.3023 1.04478 -1.22234 0
M  V30 764 O 81.4923 0.937452 -1.46825 0
M  V30 765 C 78.6243 1.73874 -2.93224 0
M  V30 766 H 79.8173 -0.0682612 -2.99822 0
M  V30 767 H 77.3703 -0.0730644 -1.56129 0
M  V30 768 H 78.1053 2.37825 -2.20476 0
M  V30 769 H 77.8903 1.37847 -3.6707 0
M  V30 770 H 79.3803 2.34496 -3.45545 0
M  V30 771 N 79.8174 1.5752 -0.0501392 0
M  V30 772 C 80.7474 2.14502 0.922566 0
M  V30 773 C 81.7284 1.06642 1.3252 0
M  V30 774 O 82.9134 1.34577 1.4001 0
M  V30 775 C 80.0434 2.68916 2.19776 0
M  V30 776 C 78.9974 3.8175 1.93523 0
M  V30 777 C 78.3234 4.22677 3.27487 0
M  V30 778 C 79.6234 5.06932 1.25765 0
M  V30 779 H 81.3174 2.9603 0.447952 0
M  V30 780 H 78.8634 1.42401 0.214024 0
M  V30 781 H 80.8164 3.07419 2.88222 0
M  V30 782 H 79.5404 1.84578 2.69441 0
M  V30 783 H 78.1994 3.43718 1.27489 0
M  V30 784 H 77.8474 3.35291 3.74952 0
M  V30 785 H 77.5474 4.98725 3.1072 0
M  V30 786 H 79.0714 4.63779 3.97166 0
M  V30 787 H 80.4854 5.42888 1.84244 0
M  V30 788 H 78.8824 5.88116 1.19328 0
M  V30 789 H 79.9524 4.84337 0.233536 0
M  V30 790 N 81.2955 -0.223234 1.56011 0
M  V30 791 C 82.2055 -1.29766 1.95443 0
M  V30 792 C 83.2215 -1.51373 0.858028 0
M  V30 793 O 84.3975 -1.64536 1.16146 0
M  V30 794 C 81.4625 -2.62772 2.26167 0
M  V30 795 C 80.5235 -2.49482 3.49367 0
M  V30 796 C 79.7565 -3.76145 3.78616 0
M  V30 797 O 79.9795 -4.79087 3.09568 0
M  V30 798 O 78.9135 -3.73358 4.72109 0
M  V30 799 H 82.7395 -0.99309 2.87004 0
M  V30 800 H 80.3245 -0.425958 1.43199 0
M  V30 801 H 82.2065 -3.41327 2.47131 0
M  V30 802 H 80.8815 -2.92913 1.37781 0
M  V30 803 H 79.7885 -1.69133 3.33684 0
M  V30 804 H 81.1215 -2.2428 4.38131 0
M  V30 805 N 82.7736 -1.49793 -0.48987 0
M  V30 806 C 84.0506 -1.50348 -1.25119 0
M  V30 807 C 84.4306 -0.237466 -2.0976 0
M  V30 808 O 83.7786 0.77981 -2.14782 0
M  V30 809 C 83.9886 -2.78872 -2.09837 0
M  V30 810 C 85.3366 -3.288 -2.68655 0
M  V30 811 O 86.3606 -2.80065 -2.20096 0
M  V30 812 O 85.2196 -4.13707 -3.57083 0
M  V30 813 H 82.3136 -0.602242 -0.566775 0
M  V30 814 H 84.8596 -1.62067 -0.503229 0
M  V30 815 H 83.6316 -3.62499 -1.47343 0
M  V30 816 H 83.2546 -2.70066 -2.91805 0
M  V30 817 N 84.2517 0.741722 -1.39055 0
M  V30 818 C 85.5287 1.49252 -1.26425 0
M  V30 819 C 85.9087 2.10705 0.129144 0
M  V30 820 O 85.2567 1.98045 1.13976 0
M  V30 821 C 85.4667 2.54934 -2.38347 0
M  V30 822 C 86.8147 3.21506 -2.77343 0
M  V30 823 O 87.8387 2.65245 -2.37747 0
M  V30 824 O 86.6977 4.23294 -3.45665 0
M  V30 825 H 83.7917 0.662451 -0.495064 0
M  V30 826 H 86.3377 0.776121 -1.50912 0
M  V30 827 H 85.1097 2.07857 -3.31529 0
M  V30 828 H 84.7327 3.34141 -2.15489 0
M  V30 829 N 85.7298 1.2412 0.971189 0
M  V30 830 C 87.1408 1.07236 1.52831 0
M  V30 831 C 87.4918 -0.357352 1.92918 0
M  V30 832 O 86.6168 -1.24528 1.76979 0
M  V30 833 C 87.2118 1.94043 2.77728 0
M  V30 834 C 85.7708 1.81394 3.29808 0
M  V30 835 C 84.9178 1.89189 2.02738 0
M  V30 836 H 87.8688 1.37648 0.789864 0
M  V30 837 H 87.8898 1.47066 3.5093 0
M  V30 838 H 87.4018 2.98093 2.4852 0
M  V30 839 H 85.5028 0.801634 3.63874 0
M  V30 840 H 85.6158 2.65294 3.98944 0
M  V30 841 H 83.9798 1.32877 2.17292 0
M  V30 842 H 84.7628 2.94812 1.759 0
M  V30 843 N 87.2079 -1.17134 1.05439 0
M  V30 844 C 88.1179 -2.24878 0.668365 0
M  V30 845 C 89.1339 -1.71186 -0.311687 0
M  V30 846 O 90.3099 -2.00738 -0.163161 0
M  V30 847 C 87.3749 -3.46662 0.051648 0
M  V30 848 C 86.4359 -4.15429 1.08246 0
M  V30 849 C 85.6689 -5.31399 0.495082 0
M  V30 850 O 85.8919 -5.66153 -0.694743 0
M  V30 851 O 84.8259 -5.89187 1.23056 0
M  V30 852 H 88.6519 -2.60189 1.56637 0
M  V30 853 H 86.2369 -1.24482 0.826104 0
M  V30 854 H 88.1189 -4.20394 -0.290966 0
M  V30 855 H 86.7939 -3.13142 -0.819971 0
M  V30 856 H 85.7009 -3.43704 1.47711 0
M  V30 857 H 87.0339 -4.52982 1.92532 0
M  V30 858 N 88.686 -0.835752 -1.33615 0
M  V30 859 C 89.933 -0.429959 -1.97883 0
M  V30 860 C 90.261 1.01006 -1.66217 0
M  V30 861 O 89.516 1.72047 -0.93265 0
M  V30 862 C 89.815 -0.593925 -3.52431 0
M  V30 863 C 89.481 -2.00158 -4.04039 0
M  V30 864 C 88.143 -2.38662 -4.17844 0
M  V30 865 C 90.495 -2.92117 -4.31644 0
M  V30 866 C 87.823 -3.68435 -4.56588 0
M  V30 867 C 90.175 -4.21368 -4.71838 0
M  V30 868 C 88.839 -4.59833 -4.83849 0
M  V30 869 H 88.109 -0.157333 -0.724104 0
M  V30 870 H 90.756 -1.06217 -1.59343 0
M  V30 871 H 89.061 0.121619 -3.91611 0
M  V30 872 H 90.758 -0.260282 -4.00154 0
M  V30 873 H 87.348 -1.69252 -3.93766 0
M  V30 874 H 91.532 -2.63608 -4.20505 0
M  V30 875 H 86.788 -3.98046 -4.64079 0
M  V30 876 H 90.962 -4.92703 -4.92155 0
M  V30 877 H 88.589 -5.60438 -5.13627 0
M  V30 878 N 90.1641 1.46063 -0.591896 0
M  V30 879 C 91.1121 2.32124 0.148739 0
M  V30 880 C 92.1061 1.45035 0.875286 0
M  V30 881 O 93.3121 1.61609 0.792632 0
M  V30 882 H 89.6871 0.749024 0.066832 0
M  V30 883 H 91.6581 2.92392 -0.595783 0
M  V30 884 C 90.4071 3.28373 1.1431 0
M  V30 885 H 89.7301 3.95371 0.59346 0
M  V30 886 H 91.1701 3.91352 1.63155 0
M  V30 887 C 89.6291 2.54393 2.20875 0
M  V30 888 O 90.1591 2.31373 3.28374 0
M  V30 889 N 88.3651 2.14797 1.95731 0
M  V30 890 H 87.9121 2.33719 1.08319 0
M  V30 891 H 87.8701 1.65619 2.67241 0
M  V30 892 N 91.6422 0.330177 1.54103 0
M  V30 893 C 92.6052 -0.520144 2.2322 0
M  V30 894 C 93.6052 -1.03828 1.22786 0
M  V30 895 O 94.7952 -0.929652 1.4732 0
M  V30 896 C 91.9272 -1.72317 2.94142 0
M  V30 897 H 93.1202 0.0841605 2.99782 0
M  V30 898 H 90.6732 0.0813433 1.56088 0
M  V30 899 H 91.4082 -2.36653 2.21734 0
M  V30 900 H 91.1932 -1.35898 3.67796 0
M  V30 901 H 92.6832 -2.3266 3.46784 0
M  V30 902 N 93.1203 -1.57491 0.0584922 0
M  V30 903 C 94.3683 -1.92597 -0.612436 0
M  V30 904 C 94.6893 -0.938162 -1.70949 0
M  V30 905 O 93.9593 0.0158301 -1.95894 0
M  V30 906 H 92.5393 -0.710964 -0.229214 0
M  V30 907 H 95.2013 -1.94571 0.113218 0
M  V30 908 H 94.2973 -2.94038 -1.04633 0
M  V30 909 N 94.5984 0.214957 -1.56127 0
M  V30 910 C 95.8384 0.945364 -1.81224 0
M  V30 911 C 96.2024 1.81265 -0.633005 0
M  V30 912 O 97.4034 2.57731 -0.763423 0
M  V30 913 C 95.6744 1.75665 -3.1125 0
M  V30 914 S 97.2334 2.54179 -3.57685 0
M  V30 915 H 94.0514 0.317443 -0.6362 0
M  V30 916 H 96.6534 0.210381 -1.94365 0
M  V30 917 H 95.3574 1.10977 -3.9511 0
M  V30 918 H 94.8884 2.53381 -3.00934 0
M  V30 919 H 96.9034 3.7792 -3.21545 0
M  V30 920 N 96.0765 1.50051 0.48192 0
M  V30 921 C 97.3245 1.60181 1.23234 0
M  V30 922 C 97.6455 0.299176 1.92691 0
M  V30 923 O 96.9155 -0.682708 1.83619 0
M  V30 924 H 95.4955 0.590232 0.457859 0
M  V30 925 H 98.1575 1.86775 0.556881 0
M  V30 926 H 97.2535 2.40753 1.98607 0
M  V30 927 N 97.5546 -0.734337 1.39446 0
M  V30 928 C 98.7796 -1.52866 1.40167 0
M  V30 929 C 99.2046 -1.881 -0.00171513 0
M  V30 930 O 98.5626 -1.51957 -0.988879 0
M  V30 931 C 98.6106 -2.79235 2.28167 0
M  V30 932 O 97.7146 -3.75185 1.71201 0
M  V30 933 H 97.0556 -0.461618 0.477289 0
M  V30 934 H 99.5856 -0.905949 1.8345 0
M  V30 935 H 99.5956 -3.27963 2.42702 0
M  V30 936 H 98.2706 -2.52923 3.30156 0
M  V30 937 H 96.8476 -3.33958 1.65912 0
M  V30 938 N 99.0327 -1.24633 -0.964593 0
M  V30 939 C 100.279 -1.08949 -1.71049 0
M  V30 940 C 100.612 0.370302 -1.90637 0
M  V30 941 O 99.8867 1.27349 -1.47011 0
M  V30 942 C 100.17 -1.83329 -3.0994 0
M  V30 943 C 100.023 -3.37077 -2.97824 0
M  V30 944 C 101.342 -1.60846 -4.09654 0
M  V30 945 H 98.4607 -0.397178 -0.620821 0
M  V30 946 H 101.103 -1.5334 -1.12191 0
M  V30 947 H 99.2527 -1.45597 -3.60186 0
M  V30 948 H 100.925 -3.84425 -2.5498 0
M  V30 949 H 99.1677 -3.65298 -2.33965 0
M  V30 950 H 99.8387 -3.84324 -3.96231 0
M  V30 951 H 102.315 -1.93674 -3.68279 0
M  V30 952 H 101.191 -2.1534 -5.04896 0
M  V30 953 H 101.452 -0.547434 -4.38698 0
M  V30 954 N 100.511 1.16574 -1.06058 0
M  V30 955 C 101.441 2.23057 -0.690488 0
M  V30 956 C 102.422 1.67141 0.315901 0
M  V30 957 O 103.607 1.93253 0.191556 0
M  V30 958 C 100.737 3.47222 -0.073625 0
M  V30 959 C 99.6908 4.16016 -1.00573 0
M  V30 960 C 99.0168 5.34104 -0.252289 0
M  V30 961 C 100.317 4.67264 -2.33371 0
M  V30 962 H 102.011 2.54271 -1.58072 0
M  V30 963 H 99.5568 1.22218 -0.76149 0
M  V30 964 H 101.51 4.20939 0.19714 0
M  V30 965 H 100.234 3.15302 0.85161 0
M  V30 966 H 98.8928 3.44223 -1.2612 0
M  V30 967 H 98.5408 4.98437 0.675988 0
M  V30 968 H 98.2408 5.81072 -0.873455 0
M  V30 969 H 99.7648 6.10599 0.0109857 0
M  V30 970 H 101.179 5.32573 -2.12223 0
M  V30 971 H 99.5758 5.24843 -2.90963 0
M  V30 972 H 100.646 3.83602 -2.96611 0
M  V30 973 N 101.989 0.842826 1.3317 0
M  V30 974 C 102.937 0.267495 2.31057 0
M  V30 975 C 103.931 -0.602682 1.58316 0
M  V30 976 O 105.137 -0.491803 1.73151 0
M  V30 977 H 101.512 0.0677813 0.748939 0
M  V30 978 H 103.483 1.10754 2.77085 0
M  V30 979 C 102.232 -0.539331 3.43492 0
M  V30 980 H 101.555 0.12095 3.99617 0
M  V30 981 H 102.995 -0.90767 4.14171 0
M  V30 982 C 101.454 -1.71981 2.89697 0
M  V30 983 O 101.984 -2.81862 2.86211 0
M  V30 984 N 100.19 -1.54299 2.46252 0
M  V30 985 H 99.7369 -0.649143 2.49287 0
M  V30 986 H 99.6949 -2.33431 2.10612 0
M  V30 987 N 103.467 -1.45747 0.599634 0
M  V30 988 C 104.695 -2.06668 0.0978551 0
M  V30 989 C 105.11 -1.44562 -1.21439 0
M  V30 990 O 104.467 -0.556923 -1.73795 0
M  V30 991 C 104.518 -3.61456 -0.0567044 0
M  V30 992 O 104.239 -4.21242 1.20361 0
M  V30 993 C 105.74 -4.39345 -0.590869 0
M  V30 994 H 102.96 -0.667825 0.0651943 0
M  V30 995 H 105.504 -1.87115 0.82511 0
M  V30 996 H 103.659 -3.80378 -0.734251 0
M  V30 997 H 104.073 -5.14323 1.02821 0
M  V30 998 H 105.547 -5.48182 -0.648131 0
M  V30 999 H 106.024 -4.08568 -1.61147 0
M  V30 1000 H 106.63 -4.25268 0.0523679 0
M  V30 1001 N 104.945 -0.338344 -1.53925 0
M  V30 1002 C 105.893 0.536231 -2.26335 0
M  V30 1003 C 106.887 1.1063 -1.28286 0
M  V30 1004 O 108.093 1.05264 -1.46012 0
M  V30 1005 H 104.468 0.191602 -0.727181 0
M  V30 1006 H 106.439 -0.0965747 -2.98244 0
M  V30 1007 C 105.188 1.67803 -3.04528 0
M  V30 1008 H 104.511 1.24864 -3.79801 0
M  V30 1009 H 105.951 2.26526 -3.58416 0
M  V30 1010 C 104.41 2.60439 -2.13712 0
M  V30 1011 O 104.94 3.6255 -1.72975 0
M  V30 1012 N 103.146 2.29006 -1.78898 0
M  V30 1013 H 102.693 1.46011 -2.12223 0
M  V30 1014 H 102.651 2.91248 -1.18416 0
M  V30 1015 N 106.423 1.57458 -0.0668435 0
M  V30 1016 C 107.671 1.92919 0.602214 0
M  V30 1017 C 107.992 0.947215 1.70449 0
M  V30 1018 O 107.262 -0.00544117 1.95899 0
M  V30 1019 H 105.842 0.71217 0.22544 0
M  V30 1020 H 108.504 1.94508 -0.123535 0
M  V30 1021 H 107.6 2.94589 1.03073 0
M  V30 1022 N 107.901 -0.206675 1.56239 0
M  V30 1023 C 108.811 -1.27686 1.96808 0
M  V30 1024 C 109.827 -1.50455 0.874035 0
M  V30 1025 O 111.003 -1.63295 1.17884 0
M  V30 1026 C 108.068 -2.60358 2.28942 0
M  V30 1027 C 107.129 -2.45762 3.51994 0
M  V30 1028 C 106.362 -3.72108 3.82585 0
M  V30 1029 O 106.585 -4.75776 3.14631 0
M  V30 1030 O 105.519 -3.6833 4.76043 0
M  V30 1031 H 109.345 -0.962593 2.88041 0
M  V30 1032 H 106.93 -0.410746 1.43643 0
M  V30 1033 H 108.812 -3.38687 2.50737 0
M  V30 1034 H 107.487 -2.91435 1.4088 0
M  V30 1035 H 106.394 -1.65584 3.35459 0
M  V30 1036 H 107.727 -2.19621 4.40486 0
M  V30 1037 N 109.379 -1.50304 -0.473955 0
M  V30 1038 C 110.625 -1.61389 -1.22806 0
M  V30 1039 C 110.958 -0.311955 -1.91678 0
M  V30 1040 O 110.233 0.686384 -1.81986 0
M  V30 1041 C 110.516 -2.79219 -2.27396 0
M  V30 1042 C 110.369 -4.19286 -1.62848 0
M  V30 1043 C 111.688 -2.92614 -3.28732 0
M  V30 1044 H 108.807 -0.587399 -0.445119 0
M  V30 1045 H 111.449 -1.82681 -0.522265 0
M  V30 1046 H 109.599 -2.61195 -2.87592 0
M  V30 1047 H 111.271 -4.48892 -1.06271 0
M  V30 1048 H 109.514 -4.23677 -0.931693 0
M  V30 1049 H 110.185 -4.97655 -2.38838 0
M  V30 1050 H 112.661 -3.09105 -2.78556 0
M  V30 1051 H 111.537 -3.76688 -3.99246 0
M  V30 1052 H 111.798 -2.03107 -3.92683 0
M  V30 1053 N 110.857 0.726932 -1.39834 0
M  V30 1054 C 111.767 1.87131 -1.41489 0
M  V30 1055 C 112.783 1.71239 -0.308757 0
M  V30 1056 O 113.959 1.93701 -0.551529 0
M  V30 1057 C 111.024 3.22811 -1.26468 0
M  V30 1058 C 110.085 3.51039 -2.47124 0
M  V30 1059 C 109.318 4.80245 -2.3281 0
M  V30 1060 O 109.541 5.54537 -1.33585 0
M  V30 1061 O 108.475 5.08554 -3.21957 0
M  V30 1062 H 112.301 1.8869 -2.3797 0
M  V30 1063 H 109.886 0.875837 -1.21035 0
M  V30 1064 H 111.768 4.03877 -1.20255 0
M  V30 1065 H 110.443 3.22005 -0.330862 0
M  V30 1066 H 109.35 2.70027 -2.58914 0
M  V30 1067 H 110.683 3.56632 -3.39227 0
M  V30 1068 N 112.336 1.25143 0.95797 0
M  V30 1069 C 113.269 0.995565 2.05338 0
M  V30 1070 C 114.247 -0.0740423 1.62431 0
M  V30 1071 O 115.431 0.0649212 1.88388 0
M  V30 1072 C 112.558 0.504298 3.34925 0
M  V30 1073 C 111.604 1.56393 3.96792 0
M  V30 1074 S 112.437 3.14815 4.33188 0
M  V30 1075 C 113.593 2.67415 5.65898 0
M  V30 1076 H 113.826 1.92309 2.26726 0
M  V30 1077 H 111.359 1.08635 1.09716 0
M  V30 1078 H 113.317 0.227497 4.09869 0
M  V30 1079 H 111.978 -0.402671 3.11508 0
M  V30 1080 H 111.171 1.17082 4.90212 0
M  V30 1081 H 110.773 1.79124 3.28315 0
M  V30 1082 H 113.065 2.10833 6.4386 0
M  V30 1083 H 114.008 3.59463 6.10076 0
M  V30 1084 H 114.416 2.07521 5.24972 0
M  V30 1085 N 113.814 -1.1601 1.06675 0
M  V30 1086 C 115.091 -1.82679 0.699114 0
M  V30 1087 C 115.471 -1.94559 -0.819137 0
M  V30 1088 O 114.819 -1.49169 -1.73092 0
M  V30 1089 C 115.029 -3.19445 1.40555 0
M  V30 1090 C 116.377 -3.95171 1.55323 0
M  V30 1091 O 117.401 -3.28976 1.36577 0
M  V30 1092 O 116.26 -5.13833 1.86112 0
M  V30 1093 H 113.354 -0.788954 0.247951 0
M  V30 1094 H 115.9 -1.23179 1.16726 0
M  V30 1095 H 114.672 -3.05856 2.44065 0
M  V30 1096 H 114.295 -3.86625 0.927733 0
M  V30 1097 N 115.292 -0.849877 -1.32721 0
M  V30 1098 C 116.255 -0.296122 -2.27279 0
M  V30 1099 C 117.255 0.541458 -1.5141 0
M  V30 1100 O 118.445 0.353658 -1.70572 0
M  V30 1101 C 115.577 0.581579 -3.35902 0
M  V30 1102 H 116.77 -1.13064 -2.77771 0
M  V30 1103 H 114.323 -0.62383 -1.43311 0
M  V30 1104 H 115.058 1.43809 -2.9067 0
M  V30 1105 H 114.843 -0.0178814 -3.92096 0
M  V30 1106 H 116.333 0.961951 -4.0637 0
M  V30 1107 N 116.77 1.45427 -0.607355 0
M  V30 1108 C 117.995 2.07124 -0.107006 0
M  V30 1109 C 118.42 1.44906 1.19933 0
M  V30 1110 O 117.778 0.541687 1.73019 0
M  V30 1111 C 117.826 3.60595 0.0194119 0
M  V30 1112 O 116.93 3.98285 1.0697 0
M  V30 1113 H 116.271 0.659868 -0.0739597 0
M  V30 1114 H 118.801 1.86683 -0.837297 0
M  V30 1115 H 118.811 4.07419 0.2177 0
M  V30 1116 H 117.486 4.05266 -0.934453 0
M  V30 1117 H 116.063 3.63133 0.847889 0
M  V30 1118 N 118.248 0.346503 1.53744 0
M  V30 1119 C 119.497 -0.250122 2.00143 0
M  V30 1120 C 119.81 -1.51418 1.23822 0
M  V30 1121 O 121.016 -2.18823 1.60713 0
M  V30 1122 C 119.472 -0.496252 3.56462 0
M  V30 1123 C 119.08 0.752077 4.41642 0
M  V30 1124 C 120.824 -1.05157 4.11269 0
M  V30 1125 C 118.731 0.476583 5.89477 0
M  V30 1126 H 117.661 -0.0972409 0.747703 0
M  V30 1127 H 120.312 0.46229 1.77581 0
M  V30 1128 H 118.694 -1.26944 3.75102 0
M  V30 1129 H 119.868 1.5266 4.34778 0
M  V30 1130 H 118.183 1.22925 3.97842 0
M  V30 1131 H 120.78 -1.27269 5.19333 0
M  V30 1132 H 121.123 -2.00799 3.64672 0
M  V30 1133 H 121.656 -0.339019 3.96353 0
M  V30 1134 H 118.395 1.4028 6.40314 0
M  V30 1135 H 117.915 -0.259794 5.99237 0
M  V30 1136 H 119.594 0.0949315 6.4693 0
M  V30 1137 N 119.726 -1.57421 0.075193 0
M  V30 1138 C 120.659 -2.08528 -0.926904 0
M  V30 1139 C 121.637 -0.991171 -1.28898 0
M  V30 1140 O 122.821 -1.26479 -1.39769 0
M  V30 1141 C 119.948 -2.54576 -2.23402 0
M  V30 1142 C 118.994 -3.75454 -2.02327 0
M  V30 1143 S 119.827 -5.19989 -1.27951 0
M  V30 1144 C 120.983 -5.69372 -2.59935 0
M  V30 1145 H 121.216 -2.932 -0.492048 0
M  V30 1146 H 118.749 -1.53785 -0.137651 0
M  V30 1147 H 120.707 -2.81767 -2.98526 0
M  V30 1148 H 119.368 -1.70166 -2.64012 0
M  V30 1149 H 118.561 -4.05675 -2.99071 0
M  V30 1150 H 118.163 -3.48654 -1.35339 0
M  V30 1151 H 120.455 -5.76424 -3.56008 0
M  V30 1152 H 121.398 -6.68207 -2.34319 0
M  V30 1153 H 121.806 -4.97205 -2.67296 0
M  V30 1154 N 121.204 0.198386 -1.56346 0
M  V30 1155 C 122.481 0.944982 -1.71258 0
M  V30 1156 C 122.861 2.0151 -0.629048 0
M  V30 1157 O 122.209 2.25639 0.360473 0
M  V30 1158 C 122.419 1.5344 -3.1346 0
M  V30 1159 C 123.767 2.01778 -3.73591 0
M  V30 1160 O 124.791 1.63288 -3.16568 0
M  V30 1161 O 123.65 2.72594 -4.73661 0
M  V30 1162 H 120.744 0.442939 -0.69838 0
M  V30 1163 H 123.29 0.188342 -1.68652 0
M  V30 1164 H 122.062 0.762869 -3.83792 0
M  V30 1165 H 121.685 2.35596 -3.20282 0
M  V30 1166 N 122.682 1.50554 0.465978 0
M  V30 1167 C 123.93 1.61479 1.21528 0
M  V30 1168 C 124.251 0.319596 1.92363 0
M  V30 1169 O 123.521 -0.663194 1.84333 0
M  V30 1170 H 122.101 0.595055 0.451573 0
M  V30 1171 H 124.763 1.87355 0.53704 0
M  V30 1172 H 123.859 2.42846 1.96042 0
M  V30 1173 N 124.16 -0.719506 1.40217 0
M  V30 1174 C 125.107 -1.83359 1.40172 0
M  V30 1175 C 126.077 -1.64065 0.259206 0
M  V30 1176 O 127.262 -1.85254 0.456677 0
M  V30 1177 C 124.402 -3.2103 1.26624 0
M  V30 1178 C 123.515 -3.51923 2.50548 0
M  V30 1179 C 122.65 -4.79079 2.29471 0
M  V30 1180 C 121.689 -5.02863 3.48992 0
M  V30 1181 N 120.826 -6.2123 3.27135 0
M  V30 1182 H 125.666 -1.82733 2.35399 0
M  V30 1183 H 123.203 -0.892688 1.16917 0
M  V30 1184 H 125.161 -4.00524 1.16776 0
M  V30 1185 H 123.791 -3.20895 0.350176 0
M  V30 1186 H 122.843 -2.67014 2.70939 0
M  V30 1187 H 124.155 -3.6541 3.39525 0
M  V30 1188 H 123.309 -5.66582 2.16955 0
M  V30 1189 H 122.048 -4.67794 1.37913 0
M  V30 1190 H 121.053 -4.13816 3.6199 0
M  V30 1191 H 122.278 -5.16023 4.41472 0
M  V30 1192 H 120.224 -6.11204 2.38256 0
M  V30 1193 H 120.141 -6.35375 4.09675 0
M  V30 1194 H 121.409 -7.11532 3.18344 0
M  V30 1195 N 125.638 -1.25649 -0.95132 0
M  V30 1196 C 126.915 -1.01361 -1.67288 0
M  V30 1197 C 127.295 0.459135 -2.06046 0
M  V30 1198 O 126.643 1.43723 -1.7764 0
M  V30 1199 C 126.853 -1.95256 -2.89268 0
M  V30 1200 C 128.201 -2.23289 -3.61147 0
M  V30 1201 O 129.225 -1.93041 -2.99355 0
M  V30 1202 O 128.084 -2.74741 -4.72419 0
M  V30 1203 H 125.178 -0.38464 -0.732107 0
M  V30 1204 H 127.724 -1.36817 -1.00395 0
M  V30 1205 H 126.496 -2.94685 -2.57442 0
M  V30 1206 H 126.119 -1.60218 -3.6389 0
M  V30 1207 N 127.117 1.15442 -1.07289 0
M  V30 1208 C 128.047 2.22312 -0.714107 0
M  V30 1209 C 129.028 1.67467 0.298155 0
M  V30 1210 O 130.213 1.93445 0.171048 0
M  V30 1211 C 127.343 3.47124 -0.110448 0
M  V30 1212 C 126.297 4.14926 -1.04979 0
M  V30 1213 C 125.623 5.33807 -0.308924 0
M  V30 1214 C 126.923 4.64762 -2.38314 0
M  V30 1215 H 128.617 2.5258 -1.6076 0
M  V30 1216 H 126.163 1.21404 -0.77441 0
M  V30 1217 H 128.116 4.21124 0.152482 0
M  V30 1218 H 126.84 3.16187 0.81812 0
M  V30 1219 H 125.499 3.42866 -1.29764 0
M  V30 1220 H 125.147 4.99126 0.623084 0
M  V30 1221 H 124.847 5.80113 -0.935036 0
M  V30 1222 H 126.371 6.10576 -0.0537771 0
M  V30 1223 H 127.785 5.30292 -2.1786 0
M  V30 1224 H 126.182 5.21728 -2.96514 0
M  V30 1225 H 127.252 3.80434 -3.00663 0
M  V30 1226 N 128.595 0.856903 1.32268 0
M  V30 1227 C 129.82 0.474569 2.01897 0
M  V30 1228 C 130.245 -0.921766 1.63967 0
M  V30 1229 O 129.603 -1.60589 0.84148 0
M  V30 1230 C 129.651 0.623799 3.55164 0
M  V30 1231 O 128.755 -0.342459 4.10976 0
M  V30 1232 H 128.096 0.190422 0.63611 0
M  V30 1233 H 130.626 1.15672 1.68764 0
M  V30 1234 H 130.636 0.512169 4.04773 0
M  V30 1235 H 129.311 1.64202 3.82113 0
M  V30 1236 H 127.888 -0.18688 3.72431 0
M  V30 1237 N 130.073 -1.45103 0.615059 0
M  V30 1238 C 131.036 -2.29025 -0.0895485 0
M  V30 1239 C 132.036 -1.40174 -0.787906 0
M  V30 1240 O 133.226 -1.62217 -0.634933 0
M  V30 1241 C 130.358 -3.21376 -1.13711 0
M  V30 1242 H 131.551 -2.92807 0.648382 0
M  V30 1243 H 129.104 -1.51749 0.374444 0
M  V30 1244 H 129.839 -2.6241 -1.90556 0
M  V30 1245 H 129.624 -3.86834 -0.640475 0
M  V30 1246 H 131.114 -3.84459 -1.63036 0
M  V30 1247 N 131.551 -0.354651 -1.53558 0
M  V30 1248 C 132.799 0.237972 -2.00694 0
M  V30 1249 C 133.12 1.50173 -1.24391 0
M  V30 1250 O 132.39 1.92673 -0.354135 0
M  V30 1251 H 130.97 0.0909256 -0.741446 0
M  V30 1252 H 133.632 -0.478368 -1.88938 0
M  V30 1253 H 132.728 0.47264 -3.085 0
M  V30 1254 N 133.029 1.57378 -0.0835403 0
M  V30 1255 C 133.992 2.12252 0.864959 0
M  V30 1256 C 134.992 1.04916 1.21858 0
M  V30 1257 O 136.182 1.30853 1.14991 0
M  V30 1258 C 133.314 2.63358 2.16461 0
M  V30 1259 H 134.507 2.97371 0.388676 0
M  V30 1260 H 132.06 1.55423 0.165317 0
M  V30 1261 H 132.795 1.81727 2.686 0
M  V30 1262 H 132.58 3.41826 1.92087 0
M  V30 1263 H 134.07 3.05847 2.84337 0
M  V30 1264 N 134.507 -0.190092 1.56449 0
M  V30 1265 C 135.753 -0.911052 1.81184 0
M  V30 1266 C 136.086 -1.82699 0.658396 0
M  V30 1267 O 135.361 -1.91491 -0.340775 0
M  V30 1268 C 135.644 -1.72297 3.16205 0
M  V30 1269 C 135.497 -0.831419 4.42049 0
M  V30 1270 C 136.816 -2.69454 3.47969 0
M  V30 1271 H 133.935 -0.32977 0.659106 0
M  V30 1272 H 136.577 -0.178169 1.89163 0
M  V30 1273 H 134.727 -2.34778 3.09534 0
M  V30 1274 H 136.399 -0.220929 4.60771 0
M  V30 1275 H 134.642 -0.138406 4.33579 0
M  V30 1276 H 135.313 -1.43461 5.33032 0
M  V30 1277 H 137.789 -2.17104 3.54972 0
M  V30 1278 H 136.665 -3.23342 4.43555 0
M  V30 1279 H 136.926 -3.48744 2.71717 0
M  V30 1280 N 135.985 -1.50799 -0.457987 0
M  V30 1281 C 137.21 -1.66496 -1.23668 0
M  V30 1282 C 137.635 -0.353288 -1.84752 0
M  V30 1283 O 136.993 0.684346 -1.67888 0
M  V30 1284 C 137.041 -2.76763 -2.3116 0
M  V30 1285 O 136.145 -2.38928 -3.36136 0
M  V30 1286 H 135.486 -0.555828 -0.363252 0
M  V30 1287 H 138.016 -1.9725 -0.543474 0
M  V30 1288 H 138.026 -3.00232 -2.76269 0
M  V30 1289 H 136.701 -3.71954 -1.86073 0
M  V30 1290 H 135.278 -2.25953 -2.96647 0
M  V30 1291 N 137.463 0.71206 -1.40597 0
M  V30 1292 C 138.426 1.80785 -1.40888 0
M  V30 1293 C 139.426 1.57937 -0.302103 0
M  V30 1294 O 140.616 1.64913 -0.561182 0
M  V30 1295 C 137.748 3.18927 -1.20409 0
M  V30 1296 H 138.941 1.81924 -2.38419 0
M  V30 1297 H 136.494 0.91805 -1.26497 0
M  V30 1298 H 137.229 3.23436 -0.236522 0
M  V30 1299 H 137.014 3.36911 -2.00582 0
M  V30 1300 H 138.504 3.98949 -1.23408 0
M  V30 1301 N 138.941 1.26152 0.944643 0
M  V30 1302 C 140.187 1.11657 1.69294 0
M  V30 1303 C 140.52 -0.339926 1.91202 0
M  V30 1304 O 139.795 -1.24994 1.49019 0
M  V30 1305 C 140.078 1.88236 3.06984 0
M  V30 1306 C 139.931 3.41772 2.92424 0
M  V30 1307 C 141.25 1.67343 4.07043 0
M  V30 1308 H 138.369 0.407004 0.614424 0
M  V30 1309 H 141.011 1.55106 1.09737 0
M  V30 1310 H 139.161 1.51308 3.57824 0
M  V30 1311 H 140.833 3.88433 2.48832 0
M  V30 1312 H 139.076 3.68974 2.28124 0
M  V30 1313 H 139.747 3.90579 3.90067 0
M  V30 1314 H 142.223 1.99509 3.65151 0
M  V30 1315 H 141.099 2.23346 5.01406 0
M  V30 1316 H 141.36 0.617158 4.37771 0
M  V30 1317 N 140.419 -1.14872 1.07899 0
M  V30 1318 C 141.351 -2.19425 0.662231 0
M  V30 1319 C 142.364 -1.60231 -0.288079 0
M  V30 1320 O 143.553 -1.78336 -0.076534 0
M  V30 1321 C 140.653 -3.38867 -0.0470695 0
M  V30 1322 C 139.826 -4.27597 0.920831 0
M  V30 1323 C 138.885 -5.25616 0.247805 0
M  V30 1324 O 137.911 -5.62189 0.890599 0
M  V30 1325 N 139.113 -5.71746 -1.00435 0
M  V30 1326 H 141.878 -2.55797 1.56166 0
M  V30 1327 H 139.439 -1.30042 0.964404 0
M  V30 1328 H 141.431 -4.01497 -0.50813 0
M  V30 1329 H 140.001 -3.00864 -0.848523 0
M  V30 1330 H 139.221 -3.61982 1.56087 0
M  V30 1331 H 140.509 -4.83748 1.57688 0
M  V30 1332 H 139.907 -5.44153 -1.54642 0
M  V30 1333 H 138.464 -6.36389 -1.40899 0
M  V30 1334 N 141.898 -0.863906 -1.31812 0
M  V30 1335 C 143.138 -0.47825 -1.98726 0
M  V30 1336 C 143.502 0.950397 -1.66828 0
M  V30 1337 O 144.703 1.44109 -2.26905 0
M  V30 1338 C 142.974 -0.721134 -3.50049 0
M  V30 1339 S 144.533 -0.434432 -4.36644 0
M  V30 1340 H 141.351 -0.178773 -0.688158 0
M  V30 1341 H 143.953 -1.11862 -1.60334 0
M  V30 1342 H 142.657 -1.75981 -3.70755 0
M  V30 1343 H 142.188 -0.0675315 -3.93342 0
M  V30 1344 H 144.203 0.735786 -4.90714 0
M  V30 1345 N 143.376 1.44774 -0.622745 0
M  V30 1346 C 144.625 2.01334 -0.121397 0
M  V30 1347 C 144.938 1.49505 1.26125 0
M  V30 1348 O 146.144 1.98139 1.85616 0
M  V30 1349 C 144.6 3.59516 -0.166298 0
M  V30 1350 C 144.208 4.20342 -1.54974 0
M  V30 1351 C 145.952 4.23582 0.279021 0
M  V30 1352 C 143.859 5.70721 -1.55021 0
M  V30 1353 H 142.789 0.752851 -0.0416172 0
M  V30 1354 H 145.44 1.66083 -0.780309 0
M  V30 1355 H 143.822 3.92027 0.559557 0
M  V30 1356 H 144.996 3.99381 -2.29851 0
M  V30 1357 H 143.311 3.68529 -1.93843 0
M  V30 1358 H 145.908 5.33868 0.298083 0
M  V30 1359 H 146.251 3.95327 1.30471 0
M  V30 1360 H 146.784 3.95843 -0.394063 0
M  V30 1361 H 143.523 6.03698 -2.55399 0
M  V30 1362 H 143.043 5.93829 -0.844245 0
M  V30 1363 H 144.722 6.34203 -1.28047 0
M  V30 1364 N 144.854 0.36279 1.53368 0
M  V30 1365 C 145.817 -0.472679 2.24273 0
M  V30 1366 C 146.817 -1.012 1.24961 0
M  V30 1367 O 148.007 -0.898194 1.49259 0
M  V30 1368 C 145.139 -1.66039 2.97731 0
M  V30 1369 H 146.332 0.14773 2.99536 0
M  V30 1370 H 143.885 0.114434 1.55881 0
M  V30 1371 H 144.62 -2.31896 2.26704 0
M  V30 1372 H 144.405 -1.28066 3.70596 0
M  V30 1373 H 145.895 -2.25252 3.51641 0
M  V30 1374 N 146.332 -1.57332 0.0918853 0
M  V30 1375 C 147.28 -2.15075 -0.885747 0
M  V30 1376 C 148.274 -1.09277 -1.29441 0
M  V30 1377 O 149.48 -1.27627 -1.26931 0
M  V30 1378 H 145.855 -0.687966 -0.303656 0
M  V30 1379 H 147.826 -2.96047 -0.373995 0
M  V30 1380 C 146.575 -2.74325 -2.13638 0
M  V30 1381 H 145.898 -3.55418 -1.8308 0
M  V30 1382 H 147.338 -3.183 -2.80109 0
M  V30 1383 C 145.797 -1.70062 -2.90827 0
M  V30 1384 O 146.327 -1.13763 -3.85254 0
M  V30 1385 N 144.533 -1.40628 -2.54307 0
M  V30 1386 H 144.08 -1.866 -1.7759 0
M  V30 1387 H 144.038 -0.711043 -3.06254 0
M  V30 1388 N 147.81 0.181792 -1.56548 0
M  V30 1389 C 149.221 0.745244 -1.71181 0
M  V30 1390 C 149.572 1.83262 -0.70068 0
M  V30 1391 O 148.697 2.15946 0.140154 0
M  V30 1392 C 149.292 1.35859 -3.10367 0
M  V30 1393 C 147.851 1.86898 -3.2672 0
M  V30 1394 C 146.998 0.743942 -2.67134 0
M  V30 1395 H 149.949 -0.0434661 -1.5864 0
M  V30 1396 H 149.97 2.22817 -3.08436 0
M  V30 1397 H 149.482 0.566948 -3.83937 0
M  V30 1398 H 147.583 2.68738 -2.5809 0
M  V30 1399 H 147.696 2.02162 -4.34359 0
M  V30 1400 H 146.06 1.16169 -2.26665 0
M  V30 1401 H 146.843 -0.035676 -3.43281 0
M  V30 1402 N 149.288 1.51039 0.449983 0
M  V30 1403 C 150.537 1.62317 1.19733 0
M  V30 1404 C 150.85 0.339101 1.92638 0
M  V30 1405 O 152.056 0.331069 2.69474 0
M  V30 1406 C 150.512 2.86608 2.17678 0
M  V30 1407 C 150.12 4.21972 1.50479 0
M  V30 1408 C 151.864 3.07239 2.92924 0
M  V30 1409 C 149.771 5.37426 2.46834 0
M  V30 1410 H 148.701 0.604532 0.450619 0
M  V30 1411 H 151.352 1.77494 0.465625 0
M  V30 1412 H 149.734 2.65037 2.94231 0
M  V30 1413 H 150.908 4.53878 0.795716 0
M  V30 1414 H 149.223 4.07117 0.874344 0
M  V30 1415 H 151.82 3.90668 3.65079 0
M  V30 1416 H 152.163 2.19807 3.5354 0
M  V30 1417 H 152.696 3.29091 2.23481 0
M  V30 1418 H 149.435 6.27079 1.90926 0
M  V30 1419 H 148.955 5.09912 3.15832 0
M  V30 1420 H 150.634 5.68862 3.08228 0
M  V30 1421 N 150.766 -0.704594 1.40972 0
M  V30 1422 C 151.713 -1.81862 1.42109 0
M  V30 1423 C 152.683 -1.63781 0.276593 0
M  V30 1424 O 153.868 -1.84759 0.4763 0
M  V30 1425 C 151.008 -3.19669 1.30022 0
M  V30 1426 C 150.121 -3.49246 2.54267 0
M  V30 1427 C 149.256 -4.76618 2.3454 0
M  V30 1428 C 148.295 -4.99133 3.54306 0
M  V30 1429 N 147.432 -6.17726 3.33706 0
M  V30 1430 H 152.272 -1.80226 2.37324 0
M  V30 1431 H 149.809 -0.880238 1.17857 0
M  V30 1432 H 151.767 -3.99263 1.21018 0
M  V30 1433 H 150.397 -3.20506 0.384192 0
M  V30 1434 H 149.449 -2.64125 2.73756 0
M  V30 1435 H 150.761 -3.61788 3.43381 0
M  V30 1436 H 149.915 -5.64249 2.22952 0
M  V30 1437 H 148.654 -4.66305 1.42867 0
M  V30 1438 H 147.659 -4.09953 3.66359 0
M  V30 1439 H 148.884 -5.11311 4.4692 0
M  V30 1440 H 146.83 -6.08642 2.44725 0
M  V30 1441 H 146.747 -6.30995 4.16391 0
M  V30 1442 H 148.015 -7.08115 3.25873 0
M  V30 1443 N 152.244 -1.26651 -0.937939 0
M  V30 1444 C 153.174 -1.10993 -2.05433 0
M  V30 1445 C 154.155 -0.0142161 -1.70094 0
M  V30 1446 O 155.34 -0.186837 -1.93299 0
M  V30 1447 C 152.47 -0.745561 -3.39203 0
M  V30 1448 C 151.424 -1.79337 -3.88616 0
M  V30 1449 C 150.75 -1.28324 -5.19073 0
M  V30 1450 C 152.05 -3.19553 -4.13138 0
M  V30 1451 H 153.744 -2.0438 -2.1879 0
M  V30 1452 H 151.29 -0.984041 -1.05131 0
M  V30 1453 H 153.243 -0.622888 -4.16771 0
M  V30 1454 H 151.967 0.22401 -3.25831 0
M  V30 1455 H 150.626 -1.90477 -3.13231 0
M  V30 1456 H 150.274 -0.303414 -5.02084 0
M  V30 1457 H 149.974 -1.98369 -5.53103 0
M  V30 1458 H 151.498 -1.1733 -5.99221 0
M  V30 1459 H 152.912 -3.11471 -4.81309 0
M  V30 1460 H 151.309 -3.87218 -4.58457 0
M  V30 1461 H 152.379 -3.65368 -3.18801 0
M  V30 1462 N 153.722 1.14298 -1.08507 0
M  V30 1463 C 154.685 2.17607 -0.719711 0
M  V30 1464 C 155.685 1.58907 0.245997 0
M  V30 1465 O 156.875 1.74181 0.0254081 0
M  V30 1466 C 154.007 3.40842 -0.0627695 0
M  V30 1467 H 155.2 2.51443 -1.63452 0
M  V30 1468 H 152.753 1.28963 -0.88307 0
M  V30 1469 H 153.488 3.12587 0.863716 0
M  V30 1470 H 153.273 3.84713 -0.757504 0
M  V30 1471 H 154.763 4.17221 0.177786 0
M  V30 1472 N 155.201 0.870884 1.31352 0
M  V30 1473 C 156.617 0.562932 1.49343 0
M  V30 1474 C 156.817 -0.902725 1.80148 0
M  V30 1475 O 155.873 -1.68484 1.88067 0
M  V30 1476 C 157.186 1.46393 2.62659 0
M  V30 1477 C 158.734 1.46607 2.76542 0
M  V30 1478 C 159.209 2.35266 3.92955 0
M  V30 1479 N 160.7 2.33151 4.00243 0
M  V30 1480 C 161.435 2.98471 4.89594 0
M  V30 1481 N 160.931 3.72964 5.8384 0
M  V30 1482 N 162.724 2.87775 4.82848 0
M  V30 1483 H 154.875 1.81923 1.09626 0
M  V30 1484 H 157.138 0.777934 0.541777 0
M  V30 1485 H 156.844 2.50689 2.46674 0
M  V30 1486 H 156.718 1.16314 3.58819 0
M  V30 1487 H 159.105 0.43069 2.9194 0
M  V30 1488 H 159.186 1.8071 1.81046 0
M  V30 1489 H 158.83 3.38881 3.78315 0
M  V30 1490 H 158.76 1.98487 4.87761 0
M  V30 1491 H 161.251 1.79006 3.32814 0
M  V30 1492 H 161.564 4.19932 6.4875 0
M  V30 1493 H 159.909 3.77073 5.83816 0
M  V30 1494 H 163.1 2.29116 4.08195 0
M  V30 1495 H 163.273 3.38961 5.52277 0
M  V30 1496 N 156.679 -1.44442 0.630414 0
M  V30 1497 C 157.609 -2.33418 -0.0618083 0
M  V30 1498 C 158.59 -1.48165 -0.835541 0
M  V30 1499 O 159.775 -1.76886 -0.801564 0
M  V30 1500 C 156.905 -3.31222 -1.04449 0
M  V30 1501 C 155.859 -4.26288 -0.382436 0
M  V30 1502 C 155.185 -5.13954 -1.47497 0
M  V30 1503 C 156.485 -5.1744 0.710865 0
M  V30 1504 H 158.179 -2.91548 0.681184 0
M  V30 1505 H 155.725 -1.40191 0.329026 0
M  V30 1506 H 157.678 -3.92351 -1.53748 0
M  V30 1507 H 156.402 -2.71299 -1.81836 0
M  V30 1508 H 155.061 -3.6649 0.0899054 0
M  V30 1509 H 154.709 -4.50385 -2.2397 0
M  V30 1510 H 154.409 -5.7837 -1.03737 0
M  V30 1511 H 155.933 -5.77955 -1.96979 0
M  V30 1512 H 157.347 -5.72509 0.300996 0
M  V30 1513 H 155.744 -5.90455 1.07156 0
M  V30 1514 H 156.814 -4.58496 1.57829 0
M  V30 1515 N 158.157 -0.370918 -1.53173 0
M  V30 1516 C 159.403 0.217423 -2.01631 0
M  V30 1517 C 159.736 1.47983 -1.25756 0
M  V30 1518 O 159.011 1.91274 -0.352764 0
M  V30 1519 C 159.294 0.503982 -3.56556 0
M  V30 1520 C 159.147 -0.77243 -4.43118 0
M  V30 1521 C 160.466 1.30234 -4.20389 0
M  V30 1522 H 157.585 0.0775486 -0.732909 0
M  V30 1523 H 160.227 -0.496863 -1.83388 0
M  V30 1524 H 158.377 1.11248 -3.72231 0
M  V30 1525 H 160.049 -1.4098 -4.39229 0
M  V30 1526 H 158.292 -1.39167 -4.10871 0
M  V30 1527 H 158.963 -0.526815 -5.4948 0
M  V30 1528 H 161.439 0.787546 -4.08579 0
M  V30 1529 H 160.315 1.47158 -5.28806 0
M  V30 1530 H 160.576 2.31237 -3.76805 0
M  V30 1531 N 159.635 1.57281 -0.100228 0
M  V30 1532 C 160.568 2.09976 0.893612 0
M  V30 1533 C 161.546 1.01155 1.27304 0
M  V30 1534 O 162.73 1.28687 1.37739 0
M  V30 1535 C 159.857 2.58098 2.19324 0
M  V30 1536 C 158.903 3.78626 1.96328 0
M  V30 1537 S 159.736 5.21959 1.19662 0
M  V30 1538 C 160.892 5.73435 2.50844 0
M  V30 1539 H 161.125 2.93946 0.44534 0
M  V30 1540 H 158.658 1.53985 0.113167 0
M  V30 1541 H 160.616 2.8648 2.94005 0
M  V30 1542 H 159.277 1.74344 2.61272 0
M  V30 1543 H 158.47 4.10382 2.92579 0
M  V30 1544 H 158.072 3.50763 1.29775 0
M  V30 1545 H 160.364 5.82015 3.46792 0
M  V30 1546 H 161.307 6.7185 2.23659 0
M  V30 1547 H 161.715 5.01395 2.59352 0
M  V30 1548 N 161.113 -0.173488 1.56642 0
M  V30 1549 C 162.023 -1.23482 1.99473 0
M  V30 1550 C 163.039 -1.48567 0.905752 0
M  V30 1551 O 164.215 -1.60758 1.21321 0
M  V30 1552 C 161.28 -2.55444 2.34413 0
M  V30 1553 C 160.341 -2.38241 3.57127 0
M  V30 1554 C 159.574 -3.63909 3.90392 0
M  V30 1555 O 159.797 -4.68996 3.24653 0
M  V30 1556 O 158.731 -3.58149 4.83749 0
M  V30 1557 H 162.557 -0.901279 2.90018 0
M  V30 1558 H 160.142 -0.380185 1.44482 0
M  V30 1559 H 162.024 -3.33292 2.57865 0
M  V30 1560 H 160.699 -2.88382 1.4703 0
M  V30 1561 H 159.606 -1.58431 3.38896 0
M  V30 1562 H 160.939 -2.10228 4.45045 0
M  V30 1563 N 162.591 -1.51276 -0.441967 0
M  V30 1564 C 163.538 -1.72256 -1.53612 0
M  V30 1565 C 164.508 -0.564164 -1.56225 0
M  V30 1566 O 165.693 -0.798074 -1.73307 0
M  V30 1567 C 162.833 -1.84932 -2.91366 0
M  V30 1568 C 161.946 -3.12459 -2.98317 0
M  V30 1569 C 161.081 -3.15758 -4.27166 0
M  V30 1570 C 160.12 -4.37619 -4.27967 0
M  V30 1571 N 159.257 -4.38493 -5.48333 0
M  V30 1572 H 164.097 -2.65654 -1.35026 0
M  V30 1573 H 161.634 -1.31662 -0.656009 0
M  V30 1574 H 163.592 -1.90263 -3.7129 0
M  V30 1575 H 162.222 -0.949461 -3.08521 0
M  V30 1576 H 161.274 -3.1646 -2.11086 0
M  V30 1577 H 162.586 -4.02382 -2.94771 0
M  V30 1578 H 161.74 -3.19979 -5.15459 0
M  V30 1579 H 160.479 -2.23715 -4.33362 0
M  V30 1580 H 159.484 -4.33579 -3.38067 0
M  V30 1581 H 160.709 -5.30921 -4.23438 0
M  V30 1582 H 158.655 -3.49318 -5.55259 0
M  V30 1583 H 158.572 -5.22219 -5.46647 0
M  V30 1584 H 159.84 -4.469 -6.38671 0
M  V30 1585 N 164.069 0.697108 -1.41344 0
M  V30 1586 C 165.297 1.48593 -1.43972 0
M  V30 1587 C 165.712 1.88747 -0.0445612 0
M  V30 1588 O 165.069 1.56682 0.935785 0
M  V30 1589 C 165.12 2.74946 -2.34706 0
M  V30 1590 O 164.841 2.36484 -3.68791 0
M  V30 1591 C 166.342 3.687 -2.46121 0
M  V30 1592 H 163.562 0.457964 -0.490418 0
M  V30 1593 H 166.106 0.858429 -1.8561 0
M  V30 1594 H 164.261 3.33937 -1.9638 0
M  V30 1595 H 164.675 3.17918 -4.17167 0
M  V30 1596 H 166.149 4.54145 -3.13777 0
M  V30 1597 H 166.626 4.13081 -1.49199 0
M  V30 1598 H 167.232 3.15613 -2.85076 0
M  V30 1599 N 165.547 1.27147 0.931209 0
M  V30 1600 C 166.958 1.12044 1.49342 0
M  V30 1601 C 167.309 -0.295795 1.93957 0
M  V30 1602 O 166.434 -1.18835 1.80852 0
M  V30 1603 C 167.029 2.02781 2.71414 0
M  V30 1604 C 165.588 1.91794 3.2387 0
M  V30 1605 C 164.735 1.95543 1.96617 0
M  V30 1606 H 167.686 1.40091 0.745672 0
M  V30 1607 H 167.707 1.58156 3.46074 0
M  V30 1608 H 167.219 3.05848 2.38911 0
M  V30 1609 H 165.32 0.916992 3.6114 0
M  V30 1610 H 165.433 2.77852 3.90302 0
M  V30 1611 H 163.797 1.39722 2.12955 0
M  V30 1612 H 164.58 3.00259 1.66432 0
M  V30 1613 N 167.025 -1.13721 1.09112 0
M  V30 1614 C 167.975 -2.17082 0.697091 0
M  V30 1615 C 168.959 -1.58321 -0.286923 0
M  V30 1616 O 170.151 -1.7673 -0.0978008 0
M  V30 1617 C 167.28 -3.43105 0.115729 0
M  V30 1618 C 166.366 -4.0888 1.12596 0
M  V30 1619 N 166.757 -4.4987 2.31195 0
M  V30 1620 C 165.055 -4.35471 0.963366 0
M  V30 1621 C 165.756 -5.01094 2.95431 0
M  V30 1622 N 164.732 -4.95751 2.23006 0
M  V30 1623 H 168.534 -2.46524 1.6001 0
M  V30 1624 H 166.048 -1.30481 0.966869 0
M  V30 1625 H 168.045 -4.16491 -0.184555 0
M  V30 1626 H 166.705 -3.15138 -0.78217 0
M  V30 1627 H 167.716 -4.42678 2.68806 0
M  V30 1628 H 164.393 -4.17328 0.119878 0
M  V30 1629 H 165.783 -5.4263 3.96236 0
M  V30 1630 N 168.503 -0.877838 -1.30888 0
M  V30 1631 C 169.743 -0.499301 -1.98208 0
M  V30 1632 C 170.107 0.932649 -1.67826 0
M  V30 1633 O 171.308 1.41694 -2.28421 0
M  V30 1634 C 169.579 -0.758221 -3.49265 0
M  V30 1635 S 171.138 -0.480719 -4.36159 0
M  V30 1636 H 167.956 -0.186062 -0.686223 0
M  V30 1637 H 170.558 -1.13556 -1.59139 0
M  V30 1638 H 169.262 -1.79903 -3.68867 0
M  V30 1639 H 168.793 -0.109247 -3.93248 0
M  V30 1640 H 170.808 0.683698 -4.91467 0
M  V30 1641 N 169.982 1.44106 -0.638065 0
M  V30 1642 C 171.229 2.01978 -0.14533 0
M  V30 1643 C 171.557 1.50234 1.23532 0
M  V30 1644 O 170.812 0.679548 1.83523 0
M  V30 1645 C 171.111 3.5729 -0.0887327 0
M  V30 1646 C 170.777 4.28317 -1.40909 0
M  V30 1647 C 169.439 4.47437 -1.77069 0
M  V30 1648 C 171.791 4.6867 -2.28031 0
M  V30 1649 C 169.119 5.04171 -3.00047 0
M  V30 1650 C 171.471 5.26766 -3.50286 0
M  V30 1651 C 170.135 5.44104 -3.86661 0
M  V30 1652 H 169.405 0.739089 -0.0531801 0
M  V30 1653 H 172.052 1.72781 -0.825761 0
M  V30 1654 H 170.357 3.8594 0.675095 0
M  V30 1655 H 172.054 3.99807 0.309145 0
M  V30 1656 H 168.644 4.1377 -1.1177 0
M  V30 1657 H 172.828 4.53604 -2.01388 0
M  V30 1658 H 168.084 5.15782 -3.28298 0
M  V30 1659 H 172.258 5.56983 -4.18023 0
M  V30 1660 H 169.885 5.87832 -4.82034 0
M  V30 1661 N 171.46 0.379036 1.52974 0
M  V30 1662 C 172.39 -0.452706 2.29069 0
M  V30 1663 C 173.371 -1.07237 1.32039 0
M  V30 1664 O 174.556 -1.08708 1.60923 0
M  V30 1665 C 171.686 -1.5856 3.08992 0
M  V30 1666 C 170.64 -1.0925 4.13822 0
M  V30 1667 C 169.966 -2.31668 4.81907 0
M  V30 1668 C 171.266 -0.167702 5.22031 0
M  V30 1669 H 172.96 0.182181 2.98845 0
M  V30 1670 H 170.506 0.0890592 1.43724 0
M  V30 1671 H 172.459 -2.1742 3.6098 0
M  V30 1672 H 171.183 -2.24792 2.36931 0
M  V30 1673 H 169.842 -0.526494 3.628 0
M  V30 1674 H 169.49 -2.96386 4.06404 0
M  V30 1675 H 169.19 -1.9934 5.52754 0
M  V30 1676 H 170.714 -2.91189 5.36695 0
M  V30 1677 H 172.128 -0.664186 5.6944 0
M  V30 1678 H 170.525 0.0653265 6.00064 0
M  V30 1679 H 171.595 0.786347 4.78482 0
M  V30 1680 N 172.938 -1.57226 0.108567 0
M  V30 1681 C 174.166 -1.99179 -0.559954 0
M  V30 1682 C 174.581 -0.988022 -1.60884 0
M  V30 1683 O 173.938 0.0205512 -1.82488 0
M  V30 1684 C 173.989 -3.41159 -1.19552 0
M  V30 1685 O 173.71 -4.37694 -0.188577 0
M  V30 1686 C 175.211 -3.98188 -1.94837 0
M  V30 1687 H 172.431 -0.654228 -0.149088 0
M  V30 1688 H 174.975 -2.03598 0.19183 0
M  V30 1689 H 173.13 -3.37711 -1.89815 0
M  V30 1690 H 173.544 -5.20469 -0.649014 0
M  V30 1691 H 175.018 -4.99644 -2.34648 0
M  V30 1692 H 175.495 -3.3675 -2.81951 0
M  V30 1693 H 176.101 -4.0515 -1.2936 0
M  V30 1694 N 174.416 0.165178 -1.56732 0
M  V30 1695 C 175.693 0.908443 -1.73224 0
M  V30 1696 C 176.073 2.0013 -0.67165 0
M  V30 1697 O 175.421 2.26353 0.31253 0
M  V30 1698 C 175.631 1.46756 -3.16644 0
M  V30 1699 C 176.979 1.93809 -3.77787 0
M  V30 1700 O 178.003 1.56537 -3.1996 0
M  V30 1701 O 176.862 2.62486 -4.79336 0
M  V30 1702 H 173.956 0.428025 -0.707618 0
M  V30 1703 H 176.502 0.152526 -1.69013 0
M  V30 1704 H 175.274 0.68129 -3.85323 0
M  V30 1705 H 174.897 2.28749 -3.25207 0
M  V30 1706 N 175.894 1.51508 0.433938 0
M  V30 1707 C 176.826 1.69266 1.54537 0
M  V30 1708 C 177.839 0.573276 1.52373 0
M  V30 1709 O 179.028 0.847698 1.57087 0
M  V30 1710 C 176.128 1.69524 2.93453 0
M  V30 1711 C 175.301 2.98101 3.20085 0
M  V30 1712 C 174.36 2.90502 4.38742 0
M  V30 1713 O 173.386 3.64442 4.3723 0
M  V30 1714 N 174.588 2.06586 5.42496 0
M  V30 1715 H 177.353 2.65145 1.39708 0
M  V30 1716 H 174.914 1.49437 0.622922 0
M  V30 1717 H 176.906 1.62004 3.70859 0
M  V30 1718 H 175.476 0.812245 3.01863 0
M  V30 1719 H 174.696 3.19464 2.30947 0
M  V30 1720 H 175.984 3.83207 3.34708 0
M  V30 1721 H 175.382 1.45896 5.46563 0
M  V30 1722 H 173.939 2.04943 6.18742 0
M  V30 1723 N 177.372 -0.689602 1.41712 0
M  V30 1724 C 178.62 -1.4468 1.4111 0
M  V30 1725 C 178.941 -1.94986 0.0232196 0
M  V30 1726 O 178.211 -1.72097 -0.935913 0
M  V30 1727 H 176.791 -0.536847 0.519427 0
M  V30 1728 H 179.453 -0.815825 1.77004 0
M  V30 1729 H 178.549 -2.30706 2.10193 0
M  V30 1730 N 178.85 -1.27639 -0.924453 0
M  V30 1731 C 179.813 -1.10681 -2.00705 0
M  V30 1732 C 180.813 -0.0497823 -1.60723 0
M  V30 1733 O 182.003 -0.294654 -1.7169 0
M  V30 1734 C 179.135 -0.687164 -3.33902 0
M  V30 1735 H 180.328 -2.06817 -2.17179 0
M  V30 1736 H 177.881 -1.10473 -1.10569 0
M  V30 1737 H 178.616 0.275439 -3.23128 0
M  V30 1738 H 178.401 -1.45061 -3.6428 0
M  V30 1739 H 179.891 -0.590853 -4.13399 0
M  V30 1740 N 180.328 1.1314 -1.09713 0
M  V30 1741 C 181.291 2.16831 -0.742751 0
M  V30 1742 C 182.291 1.59159 0.229129 0
M  V30 1743 O 183.481 1.74199 0.00693237 0
M  V30 1744 C 180.613 3.40756 -0.0989168 0
M  V30 1745 H 181.806 2.49695 -1.66109 0
M  V30 1746 H 179.359 1.2802 -0.896699 0
M  V30 1747 H 180.094 3.13485 0.830514 0
M  V30 1748 H 179.879 3.83888 -0.798265 0
M  V30 1749 H 181.369 4.17386 0.133524 0
M  V30 1750 N 181.806 0.884767 1.30421 0
M  V30 1751 C 182.738 0.308655 2.27112 0
M  V30 1752 C 183.751 -0.536655 1.53701 0
M  V30 1753 O 184.94 -0.35624 1.74909 0
M  V30 1754 C 182.04 -0.579782 3.33904 0
M  V30 1755 C 181.213 0.236417 4.36761 0
M  V30 1756 C 180.272 -0.582482 5.22966 0
M  V30 1757 O 179.298 -0.00525502 5.692 0
M  V30 1758 N 180.5 -1.89163 5.48815 0
M  V30 1759 H 183.265 1.13964 2.77186 0
M  V30 1760 H 180.826 0.747731 1.43599 0
M  V30 1761 H 182.818 -1.13366 3.88497 0
M  V30 1762 H 181.388 -1.31144 2.83761 0
M  V30 1763 H 180.608 0.97174 3.82035 0
M  V30 1764 H 181.896 0.795924 5.02536 0
M  V30 1765 H 181.294 -2.38352 5.13035 0
M  V30 1766 H 179.851 -2.39296 6.06284 0
M  V30 1767 N 183.284 -1.43765 0.645699 0
M  V30 1768 C 184.531 -2.01898 0.15604 0
M  V30 1769 C 184.859 -1.50887 -1.22733 0
M  V30 1770 O 184.114 -0.689271 -1.8316 0
M  V30 1771 C 184.413 -3.57238 0.107679 0
M  V30 1772 C 184.079 -4.27564 1.43178 0
M  V30 1773 C 182.741 -4.46492 1.7944 0
M  V30 1774 C 185.093 -4.67454 2.30513 0
M  V30 1775 C 182.421 -5.02573 3.02716 0
M  V30 1776 C 184.773 -5.24901 3.53074 0
M  V30 1777 C 183.437 -5.42046 3.89541 0
M  V30 1778 H 182.707 -0.738797 0.057099 0
M  V30 1779 H 185.354 -1.72341 0.834912 0
M  V30 1780 H 183.659 -3.86293 -0.654618 0
M  V30 1781 H 185.356 -3.99965 -0.287938 0
M  V30 1782 H 181.946 -4.13171 1.13963 0
M  V30 1783 H 186.13 -4.5253 2.0379 0
M  V30 1784 H 181.386 -5.14033 3.31028 0
M  V30 1785 H 185.56 -5.54758 4.20971 0
M  V30 1786 H 183.187 -5.85268 4.85145 0
M  V30 1787 N 184.763 -0.387143 -1.52771 0
M  V30 1788 C 185.726 0.436939 -2.24997 0
M  V30 1789 C 186.726 0.991991 -1.26555 0
M  V30 1790 O 187.916 0.874335 -1.50669 0
M  V30 1791 C 185.048 1.61281 -3.00335 0
M  V30 1792 H 186.241 -0.195365 -2.99263 0
M  V30 1793 H 183.794 -0.139218 -1.55679 0
M  V30 1794 H 184.529 2.2826 -2.30364 0
M  V30 1795 H 184.314 1.22154 -3.72587 0
M  V30 1796 H 185.804 2.19629 -3.5518 0
M  V30 1797 N 186.241 1.57166 -0.116904 0
M  V30 1798 C 187.204 2.14039 0.819742 0
M  V30 1799 C 188.204 1.07477 1.19605 0
M  V30 1800 O 189.394 1.33263 1.1219 0
M  V30 1801 C 186.526 2.67891 2.10826 0
M  V30 1802 H 187.719 2.98128 0.325511 0
M  V30 1803 H 185.272 1.55739 0.132312 0
M  V30 1804 H 186.007 1.87384 2.64685 0
M  V30 1805 H 185.792 3.45823 1.84793 0
M  V30 1806 H 187.282 3.11809 2.77785 0
M  V30 1807 N 187.719 -0.156864 1.56817 0
M  V30 1808 C 188.682 -1.17781 1.96622 0
M  V30 1809 C 189.682 -1.36401 0.851555 0
M  V30 1810 O 190.872 -1.33561 1.11836 0
M  V30 1811 C 188.004 -2.54008 2.27361 0
M  V30 1812 H 189.197 -0.836564 2.87996 0
M  V30 1813 H 186.75 -0.39985 1.51099 0
M  V30 1814 H 187.485 -2.9312 1.38748 0
M  V30 1815 H 187.27 -2.41856 3.08623 0
M  V30 1816 H 188.76 -3.27558 2.59029 0
M  V30 1817 N 189.197 -1.51736 -0.425897 0
M  V30 1818 C 190.13 -1.68574 -1.53812 0
M  V30 1819 C 191.108 -0.53328 -1.53606 0
M  V30 1820 O 192.292 -0.758555 -1.72564 0
M  V30 1821 C 189.419 -1.70977 -2.92377 0
M  V30 1822 C 188.465 -2.92324 -3.10563 0
M  V30 1823 S 189.298 -4.52952 -2.85648 0
M  V30 1824 C 190.454 -4.58117 -4.26474 0
M  V30 1825 H 190.687 -2.62647 -1.39298 0
M  V30 1826 H 188.22 -1.41564 -0.616361 0
M  V30 1827 H 190.178 -1.73047 -3.72243 0
M  V30 1828 H 188.839 -0.78061 -3.04245 0
M  V30 1829 H 188.032 -2.90439 -4.11899 0
M  V30 1830 H 187.634 -2.88055 -2.38538 0
M  V30 1831 H 189.926 -4.34462 -5.19855 0
M  V30 1832 H 190.869 -5.59983 -4.33388 0
M  V30 1833 H 191.277 -3.8732 -4.10662 0
M  V30 1834 N 190.675 0.682077 -1.42076 0
M  V30 1835 C 191.923 1.4393 -1.41876 0
M  V30 1836 C 192.244 1.94971 -0.0335599 0
M  V30 1837 O 191.514 1.72591 0.926773 0
M  V30 1838 H 190.094 0.534085 -0.522267 0
M  V30 1839 H 192.756 0.806427 -1.77434 0
M  V30 1840 H 191.852 2.29588 -2.11414 0
M  V30 1841 N 192.153 1.28127 0.917671 0
M  V30 1842 C 193.399 1.15223 1.66888 0
M  V30 1843 C 193.732 -0.299293 1.9188 0
M  V30 1844 O 193.007 -1.21805 1.51637 0
M  V30 1845 C 193.29 1.94706 3.02922 0
M  V30 1846 C 193.143 3.47898 2.85109 0
M  V30 1847 C 194.462 1.75939 4.03402 0
M  V30 1848 H 191.581 0.419946 0.605652 0
M  V30 1849 H 194.223 1.57398 1.06423 0
M  V30 1850 H 192.373 1.58864 3.54534 0
M  V30 1851 H 194.045 3.93624 2.40537 0
M  V30 1852 H 192.288 3.7373 2.20246 0
M  V30 1853 H 192.959 3.98765 3.81694 0
M  V30 1854 H 195.435 2.07209 3.60837 0
M  V30 1855 H 194.311 2.33931 4.96556 0
M  V30 1856 H 194.572 0.709877 4.36364 0
M  V30 1857 N 193.631 -1.12557 1.10312 0
M  V30 1858 C 195.042 -1.65574 0.862678 0
M  V30 1859 C 195.393 -1.86566 -0.607256 0
M  V30 1860 O 194.518 -1.59121 -1.46662 0
M  V30 1861 C 195.113 -3.00776 1.55947 0
M  V30 1862 C 193.672 -3.50748 1.36576 0
M  V30 1863 C 192.819 -2.25797 1.60968 0
M  V30 1864 H 195.77 -0.963552 1.26101 0
M  V30 1865 H 195.791 -3.67185 0.997753 0
M  V30 1866 H 195.303 -2.85465 2.62928 0
M  V30 1867 H 193.404 -3.71245 0.317531 0
M  V30 1868 H 193.517 -4.30289 2.10686 0
M  V30 1869 H 191.881 -2.32841 1.03234 0
M  V30 1870 H 192.664 -2.13043 2.69198 0
M  V30 1871 N 195.109 -0.891671 -1.2995 0
M  V30 1872 C 196.019 -0.367691 -2.31701 0
M  V30 1873 C 197.035 0.533486 -1.6562 0
M  V30 1874 O 198.211 0.424997 -1.96865 0
M  V30 1875 C 195.276 0.403406 -3.44345 0
M  V30 1876 C 194.337 -0.528328 -4.26037 0
M  V30 1877 C 193.57 0.206063 -5.33302 0
M  V30 1878 O 193.793 1.43119 -5.52153 0
M  V30 1879 O 192.727 -0.447281 -6.00236 0
M  V30 1880 H 196.553 -1.21163 -2.78484 0
M  V30 1881 H 194.138 -0.655725 -1.34241 0
M  V30 1882 H 196.02 0.839753 -4.12948 0
M  V30 1883 H 194.695 1.22354 -2.99685 0
M  V30 1884 H 193.602 -1.01362 -3.60106 0
M  V30 1885 H 194.935 -1.31465 -4.74318 0
M  V30 1886 N 196.587 1.43421 -0.653314 0
M  V30 1887 C 197.836 2.01032 -0.164076 0
M  V30 1888 C 198.149 1.52147 1.22926 0
M  V30 1889 O 199.355 2.02031 1.81371 0
M  V30 1890 C 197.811 3.59082 -0.24252 0
M  V30 1891 C 197.419 4.1696 -1.63855 0
M  V30 1892 C 199.163 4.24079 0.18911 0
M  V30 1893 C 197.07 5.67304 -1.67092 0
M  V30 1894 H 196 0.751798 -0.0575769 0
M  V30 1895 H 198.651 1.6439 -0.815362 0
M  V30 1896 H 197.033 3.93125 0.476276 0
M  V30 1897 H 198.207 3.94416 -2.38271 0
M  V30 1898 H 196.522 3.64335 -2.01616 0
M  V30 1899 H 199.119 5.34381 0.184775 0
M  V30 1900 H 199.462 3.98005 1.22056 0
M  V30 1901 H 199.995 3.94918 -0.477938 0
M  V30 1902 H 196.734 5.98145 -2.68146 0
M  V30 1903 H 196.254 5.91904 -0.970014 0
M  V30 1904 H 197.933 6.31344 -1.4147 0
M  V30 1905 N 198.065 0.39524 1.52563 0
M  V30 1906 C 199.476 -0.0774719 1.86539 0
M  V30 1907 C 199.827 -1.45641 1.31466 0
M  V30 1908 O 198.952 -2.06459 0.648367 0
M  V30 1909 C 199.547 -0.147356 3.38479 0
M  V30 1910 C 198.106 -0.564373 3.72145 0
M  V30 1911 C 197.253 0.269919 2.75983 0
M  V30 1912 H 200.204 0.612876 1.46388 0
M  V30 1913 H 200.225 -0.965343 3.68051 0
M  V30 1914 H 199.737 0.856387 3.78534 0
M  V30 1915 H 197.838 -1.57527 3.37663 0
M  V30 1916 H 197.951 -0.318402 4.78041 0
M  V30 1917 H 196.315 -0.265696 2.5331 0
M  V30 1918 H 197.098 1.27175 3.18875 0
M  V30 1919 N 199.544 -1.57102 0.125237 0
M  V30 1920 C 200.792 -1.95021 -0.530198 0
M  V30 1921 C 201.113 -1.00982 -1.66816 0
M  V30 1922 O 200.383 -0.0672693 -1.95784 0
M  V30 1923 H 198.963 -0.720046 -0.198853 0
M  V30 1924 H 201.625 -1.93916 0.19564 0
M  V30 1925 H 200.721 -2.98211 -0.920681 0
M  V30 1926 N 201.022 0.148545 -1.56898 0
M  V30 1927 C 201.932 1.20293 -2.01412 0
M  V30 1928 C 202.948 1.47107 -0.929273 0
M  V30 1929 O 204.124 1.58807 -1.23863 0
M  V30 1930 C 201.189 2.51682 -2.38447 0
M  V30 1931 C 200.25 2.32529 -3.60872 0
M  V30 1932 C 199.483 3.57653 -3.96132 0
M  V30 1933 O 199.706 4.63771 -3.32073 0
M  V30 1934 O 198.64 3.50408 -4.89385 0
M  V30 1935 H 202.466 0.855025 -2.91416 0
M  V30 1936 H 200.051 0.357151 -1.45068 0
M  V30 1937 H 201.933 3.29147 -2.63135 0
M  V30 1938 H 200.608 2.86006 -1.51599 0
M  V30 1939 H 199.515 1.53019 -3.41373 0
M  V30 1940 H 200.848 2.03121 -4.48333 0
M  V30 1941 N 202.5 1.5196 0.417844 0
M  V30 1942 C 203.447 1.74678 1.50852 0
M  V30 1943 C 204.417 0.588947 1.55308 0
M  V30 1944 O 205.602 0.825544 1.72016 0
M  V30 1945 C 202.742 1.89544 2.88387 0
M  V30 1946 C 201.855 3.17166 2.93309 0
M  V30 1947 C 200.99 3.22513 4.22088 0
M  V30 1948 C 200.029 4.44372 4.20951 0
M  V30 1949 N 199.166 4.47161 5.41287 0
M  V30 1950 H 204.006 2.67768 1.30783 0
M  V30 1951 H 201.543 1.32689 0.63498 0
M  V30 1952 H 203.501 1.96146 3.68216 0
M  V30 1953 H 202.131 0.998424 3.06971 0
M  V30 1954 H 201.183 3.19778 2.06024 0
M  V30 1955 H 202.495 4.07021 2.88332 0
M  V30 1956 H 201.649 3.28139 5.10303 0
M  V30 1957 H 200.388 2.30581 4.29748 0
M  V30 1958 H 199.393 4.38902 3.31127 0
M  V30 1959 H 200.618 5.3759 4.14938 0
M  V30 1960 H 198.564 3.58108 5.49632 0
M  V30 1961 H 198.481 5.3085 5.3827 0
M  V30 1962 H 199.749 4.57005 6.3148 0
M  V30 1963 N 203.978 -0.674533 1.42435 0
M  V30 1964 C 204.908 -1.80009 1.48724 0
M  V30 1965 C 205.889 -1.6659 0.343793 0
M  V30 1966 O 207.074 -1.86007 0.558137 0
M  V30 1967 C 204.204 -3.18306 1.38919 0
M  V30 1968 C 203.158 -3.46461 2.51294 0
M  V30 1969 C 202.484 -4.84335 2.26547 0
M  V30 1970 C 203.784 -3.43328 3.93603 0
M  V30 1971 H 205.478 -1.75004 2.42928 0
M  V30 1972 H 203.024 -0.840533 1.16923 0
M  V30 1973 H 204.977 -3.9678 1.41927 0
M  V30 1974 H 203.701 -3.2399 0.412094 0
M  V30 1975 H 202.36 -2.70348 2.47604 0
M  V30 1976 H 202.008 -4.86669 1.2713 0
M  V30 1977 H 201.708 -5.04136 3.01861 0
M  V30 1978 H 203.232 -5.65094 2.31304 0
M  V30 1979 H 204.646 -4.11772 3.98894 0
M  V30 1980 H 203.043 -3.74664 4.68771 0
M  V30 1981 H 204.113 -2.41897 4.20255 0
M  V30 1982 N 205.456 -1.28612 -0.910864 0
M  V30 1983 C 206.702 -1.16106 -1.66274 0
M  V30 1984 C 207.035 0.289113 -1.92036 0
M  V30 1985 O 206.31 1.21 -1.52281 0
M  V30 1986 C 206.593 -1.96309 -3.01885 0
M  V30 1987 C 206.446 -3.49405 -2.8326 0
M  V30 1988 C 207.765 -1.78076 -4.02463 0
M  V30 1989 H 204.884 -0.423152 -0.603417 0
M  V30 1990 H 207.526 -1.57961 -1.05586 0
M  V30 1991 H 205.676 -1.60742 -3.53687 0
M  V30 1992 H 207.348 -3.94894 -2.38446 0
M  V30 1993 H 205.591 -3.74893 -2.18261 0
M  V30 1994 H 206.262 -4.00784 -3.79574 0
M  V30 1995 H 208.738 -2.0912 -3.59733 0
M  V30 1996 H 207.614 -2.36561 -4.95308 0
M  V30 1997 H 207.875 -0.733008 -4.35981 0
M  V30 1998 N 206.934 1.1197 -1.10907 0
M  V30 1999 C 208.162 1.87402 -0.876824 0
M  V30 2000 C 208.577 1.79894 0.573025 0
M  V30 2001 O 207.934 1.17629 1.39534 0
M  V30 2002 C 207.985 3.36428 -1.32282 0
M  V30 2003 O 207.706 3.43765 -2.71582 0
M  V30 2004 C 209.207 4.28783 -1.12518 0
M  V30 2005 H 206.427 0.592793 -0.314384 0
M  V30 2006 H 208.971 1.41649 -1.47499 0
M  V30 2007 H 207.126 3.79706 -0.768229 0
M  V30 2008 H 207.54 4.3652 -2.90776 0
M  V30 2009 H 209.014 5.31613 -1.48633 0
M  V30 2010 H 209.491 4.39153 -0.0642394 0
M  V30 2011 H 210.097 3.91291 -1.66648 0
M  V30 2012 N 208.412 0.89855 1.29475 0
M  V30 2013 C 209.322 0.379974 2.31502 0
M  V30 2014 C 210.338 -0.524695 1.659 0
M  V30 2015 O 211.514 -0.414551 1.97087 0
M  V30 2016 C 208.579 -0.385138 3.44554 0
M  V30 2017 C 207.64 0.550914 4.2575 0
M  V30 2018 C 206.873 -0.177778 5.33404 0
M  V30 2019 O 207.096 -1.40189 5.52904 0
M  V30 2020 O 206.03 0.479106 5.9999 0
M  V30 2021 H 209.856 1.22639 2.77837 0
M  V30 2022 H 207.441 0.662834 1.33891 0
M  V30 2023 H 209.323 -0.817841 4.13388 0
M  V30 2024 H 207.998 -1.20763 3.0033 0
M  V30 2025 H 206.905 1.03271 3.59564 0
M  V30 2026 H 208.238 1.33979 4.73614 0
M  V30 2027 N 209.89 -1.43072 0.660911 0
M  V30 2028 C 211.306 -1.56169 0.329173 0
M  V30 2029 C 211.506 -1.64317 -1.16629 0
M  V30 2030 O 210.562 -1.60245 -1.95135 0
M  V30 2031 C 211.875 -2.81873 1.04729 0
M  V30 2032 C 213.423 -2.95627 1.02828 0
M  V30 2033 C 213.898 -4.24174 1.72744 0
M  V30 2034 N 215.389 -4.31055 1.69545 0
M  V30 2035 C 216.124 -5.29304 2.20511 0
M  V30 2036 N 215.62 -6.33786 2.79799 0
M  V30 2037 N 217.413 -5.21008 2.10966 0
M  V30 2038 H 209.564 -1.36027 1.63127 0
M  V30 2039 H 211.827 -0.653823 0.686454 0
M  V30 2040 H 211.533 -2.81942 2.10242 0
M  V30 2041 H 211.407 -3.72338 0.603702 0
M  V30 2042 H 213.794 -2.95094 -0.0184742 0
M  V30 2043 H 213.875 -2.06431 1.51063 0
M  V30 2044 H 213.519 -4.25467 2.7738 0
M  V30 2045 H 213.449 -5.1228 1.2197 0
M  V30 2046 H 215.94 -3.56174 1.26288 0
M  V30 2047 H 216.253 -7.05086 3.16344 0
M  V30 2048 H 214.598 -6.34387 2.83863 0
M  V30 2049 H 217.789 -4.38301 1.64347 0
M  V30 2050 H 217.962 -5.97416 2.50993 0
M  V30 2051 N 211.368 -0.403325 -1.52352 0
M  V30 2052 C 212.316 0.439752 -2.28405 0
M  V30 2053 C 213.31 1.05089 -1.32863 0
M  V30 2054 O 214.516 0.989759 -1.50345 0
M  V30 2055 H 210.891 0.160587 -0.734653 0
M  V30 2056 H 212.862 -0.222983 -2.97566 0
M  V30 2057 C 211.611 1.54736 -3.11371 0
M  V30 2058 H 210.934 1.08643 -3.84755 0
M  V30 2059 H 212.374 2.1112 -3.67701 0
M  V30 2060 C 210.833 2.51141 -2.24566 0
M  V30 2061 O 211.363 3.54887 -1.88196 0
M  V30 2062 N 209.569 2.21213 -1.8845 0
M  V30 2063 H 209.116 1.36878 -2.18225 0
M  V30 2064 H 209.074 2.85963 -1.30662 0
M  V30 2065 N 212.846 1.57033 -0.133567 0
M  V30 2066 C 213.793 2.16074 0.811208 0
M  V30 2067 C 214.763 1.08979 1.2535 0
M  V30 2068 O 215.948 1.36958 1.32843 0
M  V30 2069 C 213.088 2.77595 2.05024 0
M  V30 2070 C 212.201 3.99042 1.65498 0
M  V30 2071 C 211.336 4.48603 2.84479 0
M  V30 2072 C 210.375 5.62547 2.41262 0
M  V30 2073 N 209.512 6.06787 3.53206 0
M  V30 2074 H 214.352 2.96477 0.300906 0
M  V30 2075 H 211.889 1.46462 0.136822 0
M  V30 2076 H 213.847 3.11402 2.77642 0
M  V30 2077 H 212.477 1.99859 2.53488 0
M  V30 2078 H 211.529 3.71302 0.826981 0
M  V30 2079 H 212.841 4.81629 1.29748 0
M  V30 2080 H 211.995 4.84395 3.65303 0
M  V30 2081 H 210.734 3.64995 3.23465 0
M  V30 2082 H 209.739 5.26345 1.58874 0
M  V30 2083 H 210.964 6.47931 2.03377 0
M  V30 2084 H 208.91 5.26117 3.91838 0
M  V30 2085 H 208.827 6.84266 3.21427 0
M  V30 2086 H 210.095 6.4722 4.34427 0
M  V30 2087 N 214.325 -0.140222 1.56975 0
M  V30 2088 C 215.272 -1.17292 1.98774 0
M  V30 2089 C 216.242 -1.4232 0.856408 0
M  V30 2090 O 217.427 -1.54541 1.119 0
M  V30 2091 C 214.567 -2.49973 2.37923 0
M  V30 2092 C 213.68 -2.32062 3.64378 0
M  V30 2093 C 212.815 -3.57825 3.926 0
M  V30 2094 C 211.854 -3.3498 5.12303 0
M  V30 2095 N 210.991 -4.52891 5.36502 0
M  V30 2096 H 215.831 -0.809472 2.86795 0
M  V30 2097 H 213.368 -0.388237 1.41884 0
M  V30 2098 H 215.326 -3.27346 2.58652 0
M  V30 2099 H 213.956 -2.84252 1.52972 0
M  V30 2100 H 213.008 -1.45711 3.51387 0
M  V30 2101 H 214.32 -2.11145 4.51906 0
M  V30 2102 H 213.474 -4.43624 4.13863 0
M  V30 2103 H 212.213 -3.81753 3.03506 0
M  V30 2104 H 211.218 -2.4757 4.90906 0
M  V30 2105 H 212.443 -3.12444 6.02956 0
M  V30 2106 H 210.389 -4.76979 4.50363 0
M  V30 2107 H 210.306 -4.35001 6.18312 0
M  V30 2108 H 211.574 -5.39884 5.62268 0
M  V30 2109 N 215.803 -1.52179 -0.40978 0
M  V30 2110 C 217.219 -1.40968 -0.74835 0
M  V30 2111 C 217.419 -0.513657 -1.94843 0
M  V30 2112 O 216.475 0.0208026 -2.52491 0
M  V30 2113 C 217.788 -2.83483 -1.0029 0
M  V30 2114 C 219.336 -2.92821 -1.10565 0
M  V30 2115 C 219.811 -4.36303 -1.39296 0
M  V30 2116 N 221.302 -4.39535 -1.46162 0
M  V30 2117 C 222.037 -5.47614 -1.70018 0
M  V30 2118 N 221.533 -6.65812 -1.91483 0
M  V30 2119 N 223.326 -5.35129 -1.72027 0
M  V30 2120 H 215.477 -2.0897 0.380186 0
M  V30 2121 H 217.74 -0.94185 0.107805 0
M  V30 2122 H 217.446 -3.51168 -0.193461 0
M  V30 2123 H 217.32 -3.24487 -1.92323 0
M  V30 2124 H 219.707 -2.25318 -1.90568 0
M  V30 2125 H 219.788 -2.55276 -0.16369 0
M  V30 2126 H 219.432 -5.04366 -0.598109 0
M  V30 2127 H 219.362 -4.71385 -2.34743 0
M  V30 2128 H 221.853 -3.54332 -1.31367 0
M  V30 2129 H 222.166 -7.43964 -2.09134 0
M  V30 2130 H 220.511 -6.68879 -1.88749 0
M  V30 2131 H 223.702 -4.41764 -1.54796 0
M  V30 2132 H 223.875 -6.19433 -1.9028 0
M  V30 2133 N 217.281 0.66697 -1.42791 0
M  V30 2134 C 218.211 1.79218 -1.49677 0
M  V30 2135 C 219.192 1.66405 -0.352623 0
M  V30 2136 O 220.377 1.85708 -0.567993 0
M  V30 2137 C 217.507 3.17565 -1.40605 0
M  V30 2138 C 216.461 3.45124 -2.53127 0
M  V30 2139 C 215.787 4.83127 -2.29112 0
M  V30 2140 C 217.087 3.41236 -3.95418 0
M  V30 2141 H 218.781 1.73713 -2.43853 0
M  V30 2142 H 216.327 0.83432 -1.17367 0
M  V30 2143 H 218.28 3.96022 -1.44029 0
M  V30 2144 H 217.004 3.23767 -0.429271 0
M  V30 2145 H 215.663 2.69031 -2.49034 0
M  V30 2146 H 215.311 4.85988 -1.29709 0
M  V30 2147 H 215.011 5.02528 -3.04531 0
M  V30 2148 H 216.535 5.63859 -2.34297 0
M  V30 2149 H 217.949 4.09651 -4.01073 0
M  V30 2150 H 216.346 3.72173 -4.70752 0
M  V30 2151 H 217.416 2.39665 -4.21532 0
M  V30 2152 N 218.759 1.29093 0.90403 0
M  V30 2153 C 219.669 1.15727 2.0407 0
M  V30 2154 C 220.685 0.0815308 1.73809 0
M  V30 2155 O 221.861 0.292749 1.99261 0
M  V30 2156 C 218.926 0.830424 3.36608 0
M  V30 2157 C 217.987 1.98955 3.80415 0
M  V30 2158 C 217.22 1.6782 5.06628 0
M  V30 2159 O 217.443 0.597105 5.67266 0
M  V30 2160 O 216.377 2.52486 5.46383 0
M  V30 2161 H 220.203 2.11171 2.18267 0
M  V30 2162 H 217.788 1.08504 1.027 0
M  V30 2163 H 219.67 0.662521 4.16159 0
M  V30 2164 H 218.345 -0.0942678 3.23563 0
M  V30 2165 H 217.252 2.21267 3.01648 0
M  V30 2166 H 218.585 2.89529 3.98037 0
M  V30 2167 N 220.237 -1.11381 1.11499 0
M  V30 2168 C 221.184 -2.17439 0.773887 0
M  V30 2169 C 222.154 -1.64132 -0.254899 0
M  V30 2170 O 223.339 -1.90345 -0.13168 0
M  V30 2171 C 220.479 -3.44373 0.223917 0
M  V30 2172 C 219.592 -4.1168 1.30934 0
M  V30 2173 C 218.727 -5.263 0.71984 0
M  V30 2174 C 217.766 -5.85493 1.78507 0
M  V30 2175 N 216.903 -6.91507 1.21502 0
M  V30 2176 H 221.743 -2.45962 1.68246 0
M  V30 2177 H 219.28 -1.20744 0.840191 0
M  V30 2178 H 221.238 -4.17047 -0.112921 0
M  V30 2179 H 219.868 -3.16232 -0.647851 0
M  V30 2180 H 218.92 -3.37073 1.76312 0
M  V30 2181 H 220.232 -4.51729 2.11524 0
M  V30 2182 H 219.386 -6.05785 0.333094 0
M  V30 2183 H 218.125 -4.87559 -0.117377 0
M  V30 2184 H 217.13 -5.04686 2.18111 0
M  V30 2185 H 218.355 -6.26301 2.62533 0
M  V30 2186 H 216.301 -6.54783 0.399455 0
M  V30 2187 H 216.218 -7.30214 1.95763 0
M  V30 2188 H 217.486 -7.74795 0.855181 0
M  V30 2189 N 221.715 -0.905404 -1.28997 0
M  V30 2190 C 222.625 -0.392246 -2.31298 0
M  V30 2191 C 223.641 0.515889 -1.66176 0
M  V30 2192 O 224.817 0.404093 -1.97304 0
M  V30 2193 C 221.882 0.36686 -3.44754 0
M  V30 2194 C 220.943 -0.573485 -4.25452 0
M  V30 2195 C 220.176 0.149488 -5.33491 0
M  V30 2196 O 220.399 1.37255 -5.5364 0
M  V30 2197 O 219.333 -0.510919 -5.99728 0
M  V30 2198 H 223.159 -1.2411 -2.77183 0
M  V30 2199 H 220.744 -0.669926 -1.33538 0
M  V30 2200 H 222.626 0.795907 -4.13816 0
M  V30 2201 H 221.301 1.19169 -3.00966 0
M  V30 2202 H 220.208 -1.05176 -3.59011 0
M  V30 2203 H 221.541 -1.36489 -4.72897 0
M  V30 2204 N 223.193 1.4272 -0.668489 0
M  V30 2205 C 224.14 2.30796 0.0137489 0
M  V30 2206 C 225.11 1.4561 0.799177 0
M  V30 2207 O 226.295 1.74453 0.772702 0
M  V30 2208 C 223.435 3.31377 0.963507 0
M  V30 2209 C 222.548 4.31655 0.172569 0
M  V30 2210 C 221.683 5.19312 1.1175 0
M  V30 2211 C 220.722 6.11274 0.317886 0
M  V30 2212 N 219.859 6.91504 1.2152 0
M  V30 2213 H 224.699 2.88585 -0.743161 0
M  V30 2214 H 222.236 1.42154 -0.378226 0
M  V30 2215 H 224.194 3.88214 1.52792 0
M  V30 2216 H 222.824 2.75202 1.68712 0
M  V30 2217 H 221.876 3.76988 -0.508374 0
M  V30 2218 H 223.188 4.96779 -0.448527 0
M  V30 2219 H 222.342 5.80851 1.75206 0
M  V30 2220 H 221.081 4.5435 1.77249 0
M  V30 2221 H 220.086 5.48809 -0.329918 0
M  V30 2222 H 221.311 6.78283 -0.332917 0
M  V30 2223 H 219.257 6.29176 1.85671 0
M  V30 2224 H 219.174 7.53209 0.649036 0
M  V30 2225 H 220.442 7.57535 1.83742 0
M  V30 2226 N 224.671 0.411399 1.52136 0
M  V30 2227 C 225.621 -0.430376 2.23901 0
M  V30 2228 C 226.605 -1.0116 1.25121 0
M  V30 2229 O 227.797 -0.934044 1.50348 0
M  V30 2230 C 224.926 -1.54527 3.06556 0
M  V30 2231 C 224.012 -0.9747 4.12747 0
M  V30 2232 N 224.403 -0.130991 5.0563 0
M  V30 2233 C 222.701 -1.24497 4.28271 0
M  V30 2234 C 223.402 0.186689 5.814 0
M  V30 2235 N 222.378 -0.42304 5.41951 0
M  V30 2236 H 226.18 0.220509 2.93072 0
M  V30 2237 H 223.694 0.221952 1.60876 0
M  V30 2238 H 225.691 -2.16093 3.56524 0
M  V30 2239 H 224.351 -2.19875 2.38925 0
M  V30 2240 H 225.362 0.23349 5.17373 0
M  V30 2241 H 222.039 -1.89787 3.7187 0
M  V30 2242 H 223.429 0.871673 6.66222 0
M  V30 2243 N 226.149 -1.5696 0.141893 0
M  V30 2244 C 227.059 -2.20066 -0.812905 0
M  V30 2245 C 228.075 -1.18344 -1.27557 0
M  V30 2246 O 229.251 -1.50902 -1.33381 0
M  V30 2247 C 226.316 -2.80583 -2.03652 0
M  V30 2248 C 225.377 -3.97414 -1.62359 0
M  V30 2249 C 224.61 -4.55036 -2.78887 0
M  V30 2250 O 224.833 -4.11538 -3.94959 0
M  V30 2251 O 223.767 -5.45376 -2.54653 0
M  V30 2252 H 227.593 -3.02157 -0.305746 0
M  V30 2253 H 225.178 -1.49159 -0.0848799 0
M  V30 2254 H 227.06 -3.19067 -2.75272 0
M  V30 2255 H 225.735 -2.01508 -2.5333 0
M  V30 2256 H 224.642 -3.63656 -0.877775 0
M  V30 2257 H 225.975 -4.77994 -1.17401 0
M  V30 2258 N 227.627 0.131896 -1.57047 0
M  V30 2259 C 228.574 1.16236 -1.99393 0
M  V30 2260 C 229.544 1.41863 -0.863943 0
M  V30 2261 O 230.729 1.53946 -1.12718 0
M  V30 2262 C 227.869 2.48708 -2.39245 0
M  V30 2263 C 226.982 2.30127 -3.65603 0
M  V30 2264 C 226.117 3.55738 -3.94492 0
M  V30 2265 C 225.156 3.32259 -5.14073 0
M  V30 2266 N 224.293 4.50039 -5.38896 0
M  V30 2267 H 229.133 0.794251 -2.87221 0
M  V30 2268 H 226.67 0.380707 -1.42088 0
M  V30 2269 H 228.628 3.25969 -2.60384 0
M  V30 2270 H 227.258 2.83437 -1.54478 0
M  V30 2271 H 226.31 1.43845 -3.52154 0
M  V30 2272 H 227.622 2.08746 -4.5302 0
M  V30 2273 H 226.776 4.41423 -4.1621 0
M  V30 2274 H 225.515 3.80138 -3.05526 0
M  V30 2275 H 224.52 2.44963 -4.92212 0
M  V30 2276 H 225.745 3.09242 -6.04604 0
M  V30 2277 H 223.691 4.74584 -4.52886 0
M  V30 2278 H 223.608 4.31716 -6.2061 0
M  V30 2279 H 224.876 5.36895 -5.65123 0
M  V30 2280 N 229.106 1.52395 0.401703 0
M  V30 2281 C 230.354 1.66488 1.14569 0
M  V30 2282 C 230.675 0.400897 1.90835 0
M  V30 2283 O 229.945 -0.584415 1.8698 0
M  V30 2284 H 228.525 0.613672 0.425929 0
M  V30 2285 H 231.187 1.89464 0.457093 0
M  V30 2286 H 230.283 2.50942 1.85566 0
M  V30 2287 N 230.584 -0.659388 1.43143 0
M  V30 2288 C 231.547 -1.75432 1.47501 0
M  V30 2289 C 232.547 -1.56707 0.360512 0
M  V30 2290 O 233.737 -1.62717 0.622002 0
M  V30 2291 C 230.869 -3.14239 1.32162 0
M  V30 2292 H 232.062 -1.7295 2.45006 0
M  V30 2293 H 229.615 -0.870469 1.29817 0
M  V30 2294 H 230.35 -3.22336 0.356401 0
M  V30 2295 H 230.135 -3.29235 2.12948 0
M  V30 2296 H 231.625 -3.94094 1.3813 0
M  V30 2297 N 232.062 -1.29571 -0.897171 0
M  V30 2298 C 232.994 -1.10724 -2.00681 0
M  V30 2299 C 234.007 -0.0540026 -1.6271 0
M  V30 2300 O 235.196 -0.298783 -1.75982 0
M  V30 2301 C 232.296 -0.663912 -3.32333 0
M  V30 2302 C 231.469 -1.79622 -3.98816 0
M  V30 2303 C 230.528 -1.34349 -5.0876 0
M  V30 2304 O 229.554 -2.04864 -5.31055 0
M  V30 2305 N 230.756 -0.215764 -5.80099 0
M  V30 2306 H 233.521 -2.06291 -2.17403 0
M  V30 2307 H 231.082 -1.21544 -1.06951 0
M  V30 2308 H 233.074 -0.344295 -4.03233 0
M  V30 2309 H 231.644 0.199375 -3.11964 0
M  V30 2310 H 230.864 -2.28459 -3.21248 0
M  V30 2311 H 232.152 -2.55535 -4.39976 0
M  V30 2312 H 231.55 0.372091 -5.64475 0
M  V30 2313 H 230.107 0.0444707 -6.51785 0
M  V30 2314 N 233.54 1.10788 -1.12088 0
M  V30 2315 C 234.487 2.17025 -0.785407 0
M  V30 2316 C 235.457 1.64265 0.246191 0
M  V30 2317 O 236.642 1.90412 0.121584 0
M  V30 2318 C 233.782 3.44249 -0.242177 0
M  V30 2319 C 232.895 4.1098 -1.33115 0
M  V30 2320 C 232.03 5.25911 -0.747741 0
M  V30 2321 C 231.069 5.84538 -1.81609 0
M  V30 2322 N 230.206 6.90853 -1.25167 0
M  V30 2323 H 235.046 2.45066 -1.69548 0
M  V30 2324 H 232.583 1.20297 -0.846582 0
M  V30 2325 H 234.541 4.17101 0.0908026 0
M  V30 2326 H 233.171 3.16571 0.631072 0
M  V30 2327 H 232.223 3.36133 -1.78097 0
M  V30 2328 H 233.535 4.50601 -2.13917 0
M  V30 2329 H 232.689 6.056 -0.365216 0
M  V30 2330 H 231.428 4.87614 0.0915188 0
M  V30 2331 H 230.433 5.03522 -2.20785 0
M  V30 2332 H 231.658 6.249 -2.6585 0
M  V30 2333 H 229.604 6.54562 -0.434174 0
M  V30 2334 H 229.521 7.29166 -1.99633 0
M  V30 2335 H 230.789 7.7433 -0.896259 0
M  V30 2336 N 235.018 0.912232 1.28515 0
M  V30 2337 C 236.246 0.560416 1.99166 0
M  V30 2338 C 236.661 -0.857927 1.68182 0
M  V30 2339 O 236.018 -1.56805 0.933733 0
M  V30 2340 C 236.069 0.758142 3.53461 0
M  V30 2341 O 235.79 2.12067 3.83352 0
M  V30 2342 C 237.291 0.412954 4.41372 0
M  V30 2343 H 234.511 0.213805 0.636026 0
M  V30 2344 H 237.055 1.22502 1.63749 0
M  V30 2345 H 235.21 0.140556 3.87145 0
M  V30 2346 H 235.624 2.15923 4.77993 0
M  V30 2347 H 237.098 0.60208 5.48707 0
M  V30 2348 H 237.575 -0.65073 4.34353 0
M  V30 2349 H 238.181 1.00802 4.13182 0
M  V30 2350 N 236.496 -1.42363 0.676048 0
M  V30 2351 C 237.773 -1.95183 0.127726 0
M  V30 2352 C 238.153 -1.61641 -1.35777 0
M  V30 2353 O 237.501 -0.913216 -2.09458 0
M  V30 2354 C 237.711 -3.46721 0.398199 0
M  V30 2355 C 239.059 -4.23427 0.315383 0
M  V30 2356 O 240.083 -3.54649 0.332016 0
M  V30 2357 O 238.942 -5.45888 0.25865 0
M  V30 2358 H 236.036 -0.826992 0.00359427 0
M  V30 2359 H 238.582 -1.52184 0.750864 0
M  V30 2360 H 237.354 -3.64344 1.4272 0
M  V30 2361 H 236.977 -3.96769 -0.256885 0
M  V30 2362 N 237.974 -0.419461 -1.51915 0
M  V30 2363 C 239.214 0.152336 -2.03832 0
M  V30 2364 C 239.578 1.41501 -1.29775 0
M  V30 2365 O 240.779 2.06591 -1.7197 0
M  V30 2366 C 239.05 0.383812 -3.55333 0
M  V30 2367 S 240.609 0.921577 -4.29013 0
M  V30 2368 H 237.427 0.0402193 -0.709862 0
M  V30 2369 H 240.029 -0.574758 -1.8686 0
M  V30 2370 H 238.733 -0.541794 -4.06808 0
M  V30 2371 H 238.264 1.13849 -3.76566 0
M  V30 2372 H 240.279 2.20108 -4.4471 0
M  V30 2373 N 239.452 1.56882 -0.150215 0
M  V30 2374 C 240.384 2.14057 0.819286 0
M  V30 2375 C 241.397 1.09082 1.20851 0
M  V30 2376 O 242.586 1.36347 1.15203 0
M  V30 2377 C 239.686 2.65102 2.11127 0
M  V30 2378 C 238.859 3.94511 1.88891 0
M  V30 2379 C 237.918 4.30834 3.02107 0
M  V30 2380 O 236.944 4.99099 2.73659 0
M  V30 2381 N 238.146 3.90676 4.29363 0
M  V30 2382 H 240.911 2.97871 0.330618 0
M  V30 2383 H 238.472 1.61866 0.0332538 0
M  V30 2384 H 240.464 2.86411 2.85921 0
M  V30 2385 H 239.034 1.85994 2.51247 0
M  V30 2386 H 238.254 3.81795 0.981152 0
M  V30 2387 H 239.542 4.7907 1.71376 0
M  V30 2388 H 238.94 3.35677 4.55343 0
M  V30 2389 H 237.497 4.1703 5.00928 0
M  V30 2390 N 240.93 -0.123565 1.57115 0
M  V30 2391 C 241.877 -1.15177 2.00007 0
M  V30 2392 C 242.847 -1.41403 0.871454 0
M  V30 2393 O 244.032 -1.53346 1.13533 0
M  V30 2394 C 241.172 -2.47436 2.40561 0
M  V30 2395 C 240.285 -2.28184 3.66819 0
M  V30 2396 C 239.42 -3.53641 3.96373 0
M  V30 2397 C 238.459 -3.29528 5.15827 0
M  V30 2398 N 237.596 -4.47175 5.41275 0
M  V30 2399 H 242.436 -0.779008 2.87638 0
M  V30 2400 H 239.973 -0.373166 1.42288 0
M  V30 2401 H 241.931 -3.24584 2.62109 0
M  V30 2402 H 240.561 -2.82614 1.55978 0
M  V30 2403 H 239.613 -1.41976 3.52912 0
M  V30 2404 H 240.925 -2.0634 4.5412 0
M  V30 2405 H 240.079 -4.39209 4.18545 0
M  V30 2406 H 238.818 -3.78512 3.07538 0
M  V30 2407 H 237.823 -2.42349 4.93505 0
M  V30 2408 H 239.048 -3.06031 6.06236 0
M  V30 2409 H 236.994 -4.72175 4.55397 0
M  V30 2410 H 236.911 -4.28419 6.22891 0
M  V30 2411 H 238.179 -5.3389 5.67963 0
M  V30 2412 N 242.408 -1.52605 -0.393616 0
M  V30 2413 C 243.356 -1.77688 -1.50099 0
M  V30 2414 C 244.35 -0.644615 -1.56656 0
M  V30 2415 O 245.556 -0.826997 -1.59877 0
M  V30 2416 H 241.931 -0.562159 -0.499481 0
M  V30 2417 H 243.902 -2.7043 -1.26135 0
M  V30 2418 C 242.651 -1.95858 -2.87289 0
M  V30 2419 H 241.974 -2.8241 -2.82992 0
M  V30 2420 H 243.414 -2.174 -3.64024 0
M  V30 2421 C 241.873 -0.729848 -3.28899 0
M  V30 2422 O 242.403 0.0949217 -4.01588 0
M  V30 2423 N 240.609 -0.561283 -2.85128 0
M  V30 2424 H 240.156 -1.23357 -2.26143 0
M  V30 2425 H 240.114 0.2595 -3.13327 0
M  V30 2426 N 243.887 0.651787 -1.4349 0
M  V30 2427 C 244.817 1.77621 -1.51569 0
M  V30 2428 C 245.798 1.66022 -0.370253 0
M  V30 2429 O 246.983 1.85095 -0.587658 0
M  V30 2430 C 244.113 3.16056 -1.43966 0
M  V30 2431 C 243.067 3.4242 -2.56774 0
M  V30 2432 C 242.393 4.8067 -2.34223 0
M  V30 2433 C 243.693 3.37023 -3.99015 0
M  V30 2434 H 245.387 1.71117 -2.45681 0
M  V30 2435 H 242.933 0.821825 -1.18246 0
M  V30 2436 H 244.886 3.94472 -1.48221 0
M  V30 2437 H 243.61 3.23293 -0.463586 0
M  V30 2438 H 242.269 2.66375 -2.51873 0
M  V30 2439 H 241.917 4.84585 -1.34856 0
M  V30 2440 H 241.617 4.9927 -3.09844 0
M  V30 2441 H 243.141 5.61342 -2.40265 0
M  V30 2442 H 244.555 4.05374 -4.05395 0
M  V30 2443 H 242.952 3.67159 -4.74673 0
M  V30 2444 H 244.022 2.3518 -4.2405 0
M  V30 2445 N 245.365 1.30045 0.890287 0
M  V30 2446 C 246.613 1.18327 1.63839 0
M  V30 2447 C 246.934 -0.263455 1.93212 0
M  V30 2448 O 246.204 -1.17856 1.56482 0
M  V30 2449 H 244.784 0.434933 0.607324 0
M  V30 2450 H 247.446 1.631 1.06698 0
M  V30 2451 H 246.542 1.74024 2.59079 0
M  V30 2452 N 246.843 -1.10192 1.12674 0
M  V30 2453 C 248.071 -1.85983 0.906527 0
M  V30 2454 C 248.486 -1.80783 -0.544333 0
M  V30 2455 O 247.843 -1.19834 -1.37645 0
M  V30 2456 C 247.894 -3.34281 1.37618 0
M  V30 2457 O 247.615 -3.39401 2.77017 0
M  V30 2458 C 249.116 -4.26938 1.19325 0
M  V30 2459 H 246.336 -0.587716 0.323775 0
M  V30 2460 H 248.88 -1.39284 1.49734 0
M  V30 2461 H 247.035 -3.78436 0.828539 0
M  V30 2462 H 247.449 -4.31838 2.97684 0
M  V30 2463 H 248.923 -5.29181 1.57071 0
M  V30 2464 H 249.4 -4.38995 0.134097 0
M  V30 2465 H 250.006 -3.8859 1.72852 0
M  V30 2466 N 248.321 -0.919034 -1.28029 0
M  V30 2467 C 249.567 -0.555757 -1.95036 0
M  V30 2468 C 249.9 0.899198 -1.72128 0
M  V30 2469 O 249.175 1.64023 -1.04531 0
M  V30 2470 C 249.458 -0.872024 -3.49382 0
M  V30 2471 C 249.311 -2.3801 -3.81669 0
M  V30 2472 C 250.63 -0.37185 -4.38526 0
M  V30 2473 H 247.749 -0.203386 -0.708381 0
M  V30 2474 H 250.391 -1.14924 -1.51303 0
M  V30 2475 H 248.541 -0.366946 -3.86763 0
M  V30 2476 H 250.213 -2.9562 -3.54128 0
M  V30 2477 H 248.456 -2.83289 -3.28526 0
M  V30 2478 H 249.127 -2.55192 -4.8947 0
M  V30 2479 H 251.603 -0.804602 -4.08247 0
M  V30 2480 H 250.479 -0.622173 -5.45362 0
M  V30 2481 H 250.74 0.727934 -4.36066 0
M  V30 2482 N 249.799 1.42003 -0.683588 0
M  V30 2483 C 251.047 2.01015 -0.209101 0
M  V30 2484 C 251.368 1.54365 1.19149 0
M  V30 2485 O 250.638 0.769083 1.80172 0
M  V30 2486 H 249.218 0.743294 -0.074315 0
M  V30 2487 H 251.88 1.73798 -0.882066 0
M  V30 2488 H 250.976 3.11343 -0.2172 0
M  V30 2489 N 251.277 0.427512 1.51691 0
M  V30 2490 C 252.24 -0.377132 2.26076 0
M  V30 2491 C 253.24 -0.958089 1.29141 0
M  V30 2492 O 254.43 -0.83408 1.52934 0
M  V30 2493 C 251.562 -1.53262 3.04506 0
M  V30 2494 H 252.755 0.27464 2.9864 0
M  V30 2495 H 250.308 0.180445 1.55255 0
M  V30 2496 H 251.043 -2.22072 2.36335 0
M  V30 2497 H 250.828 -1.12232 3.75694 0
M  V30 2498 H 252.318 -2.10135 3.60878 0
M  V30 2499 N 252.755 -1.56801 0.158532 0
M  V30 2500 C 254.001 -1.96781 -0.490405 0
M  V30 2501 C 254.334 -1.04397 -1.63753 0
M  V30 2502 O 253.609 -0.0885805 -1.94298 0
M  V30 2503 C 253.892 -3.4635 -0.985594 0
M  V30 2504 C 253.745 -4.49512 0.160824 0
M  V30 2505 C 255.064 -3.98697 -1.86355 0
M  V30 2506 H 252.183 -0.715482 -0.176788 0
M  V30 2507 H 254.825 -1.88451 0.242088 0
M  V30 2508 H 252.975 -3.53579 -1.60978 0
M  V30 2509 H 254.647 -4.54353 0.797537 0
M  V30 2510 H 252.89 -4.26013 0.818256 0
M  V30 2511 H 253.561 -5.51531 -0.227569 0
M  V30 2512 H 256.037 -3.94019 -1.33746 0
M  V30 2513 H 254.913 -5.03792 -2.17909 0
M  V30 2514 H 255.174 -3.41744 -2.8047 0
M  V30 2515 N 254.233 0.115231 -1.57178 0
M  V30 2516 C 255.196 1.12526 -1.99676 0
M  V30 2517 C 256.196 1.34095 -0.88742 0
M  V30 2518 O 257.386 1.30548 -1.15337 0
M  V30 2519 C 254.518 2.4789 -2.34015 0
M  V30 2520 H 255.711 0.759912 -2.90113 0
M  V30 2521 H 253.264 0.359648 -1.52106 0
M  V30 2522 H 253.999 2.89339 -1.4647 0
M  V30 2523 H 253.784 2.33588 -3.14927 0
M  V30 2524 H 255.274 3.20575 -2.67622 0
M  V30 2525 N 255.711 1.52812 0.385517 0
M  V30 2526 C 256.641 1.80808 1.47752 0
M  V30 2527 C 257.622 0.660318 1.5676 0
M  V30 2528 O 258.807 0.908246 1.71652 0
M  V30 2529 C 255.937 1.98008 2.85324 0
M  V30 2530 C 254.891 3.13709 2.91154 0
M  V30 2531 C 254.217 3.16169 4.31209 0
M  V30 2532 C 255.517 4.52709 2.60483 0
M  V30 2533 H 257.211 2.72253 1.24573 0
M  V30 2534 H 254.757 1.31003 0.597839 0
M  V30 2535 H 256.71 2.16176 3.61726 0
M  V30 2536 H 255.434 1.03255 3.09848 0
M  V30 2537 H 254.093 2.95329 2.17201 0
M  V30 2538 H 253.741 2.19092 4.52778 0
M  V30 2539 H 253.441 3.93894 4.36029 0
M  V30 2540 H 254.965 3.36496 5.09512 0
M  V30 2541 H 256.379 4.71173 3.26602 0
M  V30 2542 H 254.776 5.32528 2.76648 0
M  V30 2543 H 255.846 4.59186 1.55809 0
M  V30 2544 N 257.189 -0.644168 1.43834 0
M  V30 2545 C 258.466 -1.40188 1.36406 0
M  V30 2546 C 258.846 -2.11094 0.0163124 0
M  V30 2547 O 258.194 -2.05426 -1.00062 0
M  V30 2548 C 258.404 -2.3791 2.55343 0
M  V30 2549 C 259.752 -3.01637 2.98832 0
M  V30 2550 O 260.776 -2.48237 2.55455 0
M  V30 2551 O 259.635 -3.98477 3.74003 0
M  V30 2552 H 256.729 -0.626773 0.539523 0
M  V30 2553 H 259.275 -0.670317 1.559 0
M  V30 2554 H 258.047 -1.84525 3.4506 0
M  V30 2555 H 257.67 -3.18503 2.37995 0
M  V30 2556 N 258.668 -1.30515 -0.883378 0
M  V30 2557 C 259.908 -1.20716 -1.64946 0
M  V30 2558 C 260.272 0.234072 -1.90568 0
M  V30 2559 O 261.473 0.455335 -2.64915 0
M  V30 2560 C 259.744 -2.01444 -2.9522 0
M  V30 2561 S 261.303 -2.0836 -3.86175 0
M  V30 2562 H 258.121 -0.430165 -0.566109 0
M  V30 2563 H 260.723 -1.65011 -1.04841 0
M  V30 2564 H 259.427 -3.05268 -2.74298 0
M  V30 2565 H 258.958 -1.57817 -3.60357 0
M  V30 2566 H 260.973 -1.21215 -4.81167 0
M  V30 2567 N 260.146 1.09593 -1.13257 0
M  V30 2568 C 261.093 2.1618 -0.808381 0
M  V30 2569 C 262.063 1.64517 0.228754 0
M  V30 2570 O 263.248 1.9053 0.101381 0
M  V30 2571 C 260.388 3.43973 -0.278675 0
M  V30 2572 C 259.501 4.09545 -1.37466 0
M  V30 2573 C 258.636 5.25088 -0.803479 0
M  V30 2574 C 257.675 5.82579 -1.87799 0
M  V30 2575 N 256.812 6.89486 -1.32488 0
M  V30 2576 H 261.652 2.43254 -1.72138 0
M  V30 2577 H 259.189 1.19392 -0.859294 0
M  V30 2578 H 261.147 4.17174 0.0465583 0
M  V30 2579 H 259.777 3.17223 0.597459 0
M  V30 2580 H 258.829 3.34226 -1.81652 0
M  V30 2581 H 260.141 4.48307 -2.18684 0
M  V30 2582 H 259.295 6.05178 -0.429427 0
M  V30 2583 H 258.034 4.87684 0.0397956 0
M  V30 2584 H 257.039 5.01152 -2.26113 0
M  V30 2585 H 258.264 6.22045 -2.72463 0
M  V30 2586 H 256.21 6.54064 -0.503575 0
M  V30 2587 H 256.127 7.27007 -2.07355 0
M  V30 2588 H 257.395 7.73336 -0.978336 0
M  V30 2589 N 261.624 0.925811 1.2754 0
M  V30 2590 C 262.872 0.564138 1.94067 0
M  V30 2591 C 263.193 -0.897188 1.73134 0
M  V30 2592 O 262.463 -1.63573 1.07799 0
M  V30 2593 H 261.043 0.205645 0.718136 0
M  V30 2594 H 263.705 1.1778 1.55287 0
M  V30 2595 H 262.801 0.76881 3.02483 0
M  V30 2596 N 263.102 -1.41638 0.69111 0
M  V30 2597 C 264.05 -2.32597 0.0115199 0
M  V30 2598 C 265.044 -1.5072 -0.773296 0
M  V30 2599 O 266.25 -1.66685 -0.67942 0
M  V30 2600 H 262.625 -0.751849 -0.0150746 0
M  V30 2601 H 264.596 -2.87593 0.795791 0
M  V30 2602 C 263.345 -3.35467 -0.914172 0
M  V30 2603 H 262.668 -3.9852 -0.319687 0
M  V30 2604 H 264.108 -4.01662 -1.35808 0
M  V30 2605 C 262.567 -2.69004 -2.02826 0
M  V30 2606 O 263.097 -2.53444 -3.11655 0
M  V30 2607 N 261.303 -2.2777 -1.80469 0
M  V30 2608 H 260.85 -2.40626 -0.919615 0
M  V30 2609 H 260.808 -1.83635 -2.55197 0
M  V30 2610 N 264.58 -0.43555 -1.51462 0
M  V30 2611 C 265.826 0.131709 -2.02372 0
M  V30 2612 C 266.159 1.42516 -1.3192 0
M  V30 2613 O 265.434 1.89606 -0.433573 0
M  V30 2614 C 265.717 0.352301 -3.58373 0
M  V30 2615 C 265.57 -0.959676 -4.39443 0
M  V30 2616 C 266.889 1.12286 -4.25535 0
M  V30 2617 H 264.008 0.0463936 -0.735538 0
M  V30 2618 H 266.65 -0.574197 -1.81116 0
M  V30 2619 H 264.8 0.9536 -3.76615 0
M  V30 2620 H 266.472 -1.59482 -4.32855 0
M  V30 2621 H 264.715 -1.56468 -4.04599 0
M  V30 2622 H 265.386 -0.759394 -5.46752 0
M  V30 2623 H 267.862 0.613545 -4.11552 0
M  V30 2624 H 266.738 1.24598 -5.34571 0
M  V30 2625 H 266.999 2.15048 -3.86273 0
M  V30 2626 N 266.058 1.56714 -0.166846 0
M  V30 2627 C 267.021 2.16539 0.751232 0
M  V30 2628 C 268.021 1.11228 1.16125 0
M  V30 2629 O 269.211 1.36765 1.07894 0
M  V30 2630 C 266.343 2.74462 2.02196 0
M  V30 2631 H 267.536 2.99013 0.230499 0
M  V30 2632 H 265.089 1.56081 0.0826982 0
M  V30 2633 H 265.824 1.95709 2.58589 0
M  V30 2634 H 265.609 3.51527 1.73698 0
M  V30 2635 H 267.099 3.20489 2.67725 0
M  V30 2636 N 267.536 -0.106894 1.57237 0
M  V30 2637 C 268.766 -0.825191 1.89405 0
M  V30 2638 C 269.174 -1.73374 0.757496 0
M  V30 2639 O 268.517 -1.81552 -0.280115 0
M  V30 2640 C 268.579 -1.70102 3.1671 0
M  V30 2641 C 268.243 -0.965523 4.46684 0
M  V30 2642 C 269.24 -0.300741 5.19029 0
M  V30 2643 C 266.925 -0.943105 4.93367 0
M  V30 2644 C 268.919 0.376622 6.36286 0
M  V30 2645 C 266.606 -0.261949 6.10538 0
M  V30 2646 C 267.604 0.396748 6.81847 0
M  V30 2647 O 267.292 1.06701 7.96787 0
M  V30 2648 H 267.024 -0.241852 0.631255 0
M  V30 2649 H 269.578 -0.0921491 2.05193 0
M  V30 2650 H 267.808 -2.47601 2.97036 0
M  V30 2651 H 269.497 -2.29483 3.34802 0
M  V30 2652 H 270.263 -0.309599 4.84011 0
M  V30 2653 H 266.142 -1.44524 4.3776 0
M  V30 2654 H 269.686 0.891334 6.91882 0
M  V30 2655 H 265.583 -0.250896 6.45012 0
M  V30 2656 H 266.351 0.972707 8.127 0
M  V30 2657 N 269.014 -1.53014 -0.377408 0
M  V30 2658 C 269.977 -1.77957 -1.44444 0
M  V30 2659 C 270.977 -0.649763 -1.47087 0
M  V30 2660 O 272.167 -0.917897 -1.48055 0
M  V30 2661 C 269.299 -1.89089 -2.83651 0
M  V30 2662 H 270.492 -2.73243 -1.23606 0
M  V30 2663 H 268.045 -1.43912 -0.609844 0
M  V30 2664 H 268.78 -0.958293 -3.09818 0
M  V30 2665 H 268.565 -2.71254 -2.83132 0
M  V30 2666 H 270.055 -2.1002 -3.60945 0
M  V30 2667 N 270.492 0.636531 -1.44174 0
M  V30 2668 C 271.72 1.42353 -1.50144 0
M  V30 2669 C 272.135 1.88389 -0.124575 0
M  V30 2670 O 271.492 1.6051 0.868489 0
M  V30 2671 C 271.543 2.64744 -2.46156 0
M  V30 2672 O 271.264 2.20629 -3.7849 0
M  V30 2673 C 272.765 3.57929 -2.61537 0
M  V30 2674 H 269.985 0.436752 -0.5094 0
M  V30 2675 H 272.529 0.778933 -1.89084 0
M  V30 2676 H 270.684 3.25307 -2.10366 0
M  V30 2677 H 271.098 2.99938 -4.30276 0
M  V30 2678 H 272.572 4.40428 -3.32757 0
M  V30 2679 H 273.049 4.06382 -1.66585 0
M  V30 2680 H 273.655 3.03238 -2.98206 0
M  V30 2681 N 271.97 1.30982 0.876444 0
M  V30 2682 C 273.195 1.23373 1.66715 0
M  V30 2683 C 273.62 -0.19885 1.87046 0
M  V30 2684 O 272.978 -1.1427 1.40756 0
M  V30 2685 C 273.026 1.97644 3.01611 0
M  V30 2686 O 272.13 1.30935 3.91062 0
M  V30 2687 H 271.471 0.426279 0.509099 0
M  V30 2688 H 274.001 1.72944 1.09323 0
M  V30 2689 H 274.011 2.06992 3.51594 0
M  V30 2690 H 272.686 3.01829 2.86133 0
M  V30 2691 H 271.263 1.29996 3.49507 0
M  V30 2692 N 273.449 -1.08991 1.13837 0
M  V30 2693 C 274.677 -1.85011 0.926202 0
M  V30 2694 C 275.092 -1.8135 -0.525127 0
M  V30 2695 O 274.449 -1.21287 -1.36366 0
M  V30 2696 C 274.5 -3.32802 1.41155 0
M  V30 2697 O 274.221 -3.36444 2.80601 0
M  V30 2698 C 275.722 -4.25649 1.23847 0
M  V30 2699 H 272.942 -0.584249 0.32999 0
M  V30 2700 H 275.486 -1.37688 1.51202 0
M  V30 2701 H 273.641 -3.77536 0.868631 0
M  V30 2702 H 274.055 -4.28657 3.02248 0
M  V30 2703 H 275.529 -5.27485 1.62675 0
M  V30 2704 H 276.006 -4.38828 0.18065 0
M  V30 2705 H 276.612 -3.86735 1.76964 0
M  V30 2706 N 274.927 -0.932562 -1.27047 0
M  V30 2707 C 276.175 -0.574422 -1.93765 0
M  V30 2708 C 276.496 0.887993 -1.73608 0
M  V30 2709 O 275.766 1.62999 -1.08665 0
M  V30 2710 H 274.346 -0.209451 -0.717035 0
M  V30 2711 H 277.008 -1.18601 -1.5466 0
M  V30 2712 H 276.104 -0.784841 -3.02071 0
M  V30 2713 N 276.405 1.4127 -0.698611 0
M  V30 2714 C 277.653 2.00782 -0.230409 0
M  V30 2715 C 277.974 1.5562 1.17505 0
M  V30 2716 O 277.244 0.78815 1.79346 0
M  V30 2717 H 275.824 0.742464 -0.0821944 0
M  V30 2718 H 278.486 1.72852 -0.90045 0
M  V30 2719 H 277.582 3.11095 -0.25021 0
M  V30 2720 N 277.883 0.443576 1.51229 0
M  V30 2721 C 279.132 -0.122332 2.01329 0
M  V30 2722 C 279.445 -1.43237 1.33201 0
M  V30 2723 O 280.651 -2.0816 1.74304 0
M  V30 2724 C 279.107 -0.268551 3.58897 0
M  V30 2725 C 278.715 1.03142 4.35965 0
M  V30 2726 C 280.459 -0.787894 4.17124 0
M  V30 2727 C 278.366 0.850504 5.85252 0
M  V30 2728 H 277.296 -0.0494929 0.752374 0
M  V30 2729 H 279.947 0.574289 1.74282 0
M  V30 2730 H 278.329 -1.02832 3.82415 0
M  V30 2731 H 279.503 1.80001 4.24189 0
M  V30 2732 H 277.818 1.47977 3.89219 0
M  V30 2733 H 280.415 -0.939841 5.26375 0
M  V30 2734 H 280.758 -1.77201 3.76703 0
M  V30 2735 H 281.291 -0.0862669 3.97706 0
M  V30 2736 H 278.03 1.80718 6.30096 0
M  V30 2737 H 277.55 0.121825 5.99676 0
M  V30 2738 H 279.229 0.506163 6.45017 0
M  V30 2739 N 279.361 -1.56624 0.175154 0
M  V30 2740 C 280.607 -1.9729 -0.469506 0
M  V30 2741 C 280.94 -1.06128 -1.62636 0
M  V30 2742 O 280.215 -0.109183 -1.94193 0
M  V30 2743 C 280.498 -3.47375 -0.948804 0
M  V30 2744 C 280.351 -4.49317 0.208491 0
M  V30 2745 C 281.67 -4.00652 -1.82116 0
M  V30 2746 H 278.789 -0.717317 -0.16919 0
M  V30 2747 H 281.431 -1.88184 0.262062 0
M  V30 2748 H 279.581 -3.55267 -1.57219 0
M  V30 2749 H 281.253 -4.53482 0.845682 0
M  V30 2750 H 279.496 -4.25121 0.863395 0
M  V30 2751 H 280.167 -5.51741 -0.169059 0
M  V30 2752 H 282.643 -3.95416 -1.2956 0
M  V30 2753 H 281.519 -5.06075 -2.12554 0
M  V30 2754 H 281.78 -3.44699 -2.7683 0
M  V30 2755 N 280.839 0.0985539 -1.57292 0
M  V30 2756 C 281.787 1.1387 -2.02821 0
M  V30 2757 C 282.781 1.41676 -0.928666 0
M  V30 2758 O 283.987 1.41398 -1.11385 0
M  V30 2759 H 280.362 0.384419 -0.646317 0
M  V30 2760 H 282.333 0.728347 -2.89375 0
M  V30 2761 C 281.082 2.45166 -2.46554 0
M  V30 2762 H 280.405 2.24613 -3.3074 0
M  V30 2763 H 281.845 3.16456 -2.8219 0
M  V30 2764 C 280.304 3.09216 -1.33742 0
M  V30 2765 O 280.834 3.96163 -0.66464 0
M  V30 2766 N 279.04 2.69413 -1.08928 0
M  V30 2767 H 278.587 1.98801 -1.63817 0
M  V30 2768 H 278.545 3.12594 -0.336458 0
M  V30 2769 N 282.317 1.53212 0.369288 0
M  V30 2770 C 283.264 1.79388 1.45219 0
M  V30 2771 C 284.234 0.638059 1.53356 0
M  V30 2772 O 285.419 0.879852 1.69302 0
M  V30 2773 C 282.559 1.98623 2.82211 0
M  V30 2774 C 281.672 3.26337 2.8307 0
M  V30 2775 C 280.807 3.35779 4.11614 0
M  V30 2776 C 279.846 4.5754 4.06601 0
M  V30 2777 N 278.983 4.64155 5.26787 0
M  V30 2778 H 283.823 2.71794 1.22198 0
M  V30 2779 H 281.36 1.34642 0.592444 0
M  V30 2780 H 283.318 2.07761 3.61789 0
M  V30 2781 H 281.948 1.09558 3.03639 0
M  V30 2782 H 281 3.26171 1.95747 0
M  V30 2783 H 282.312 4.15988 2.75237 0
M  V30 2784 H 281.466 3.44208 4.99606 0
M  V30 2785 H 280.205 2.44137 4.22195 0
M  V30 2786 H 279.21 4.49215 3.16996 0
M  V30 2787 H 280.435 5.50519 3.97625 0
M  V30 2788 H 278.381 3.75413 5.3796 0
M  V30 2789 H 278.298 5.47706 5.21109 0
M  V30 2790 H 279.566 4.76863 6.16621 0
M  V30 2791 N 283.795 -0.628877 1.44509 0
M  V30 2792 C 284.728 -1.75367 1.46019 0
M  V30 2793 C 285.706 -1.59444 0.318787 0
M  V30 2794 O 286.89 -1.81297 0.516099 0
M  V30 2795 C 284.017 -3.12965 1.29501 0
M  V30 2796 C 283.063 -3.47532 2.47233 0
M  V30 2797 S 283.896 -3.44758 4.09758 0
M  V30 2798 C 285.052 -4.84973 3.95667 0
M  V30 2799 H 285.285 -1.7382 2.41193 0
M  V30 2800 H 282.818 -0.803686 1.31834 0
M  V30 2801 H 284.776 -3.92367 1.20658 0
M  V30 2802 H 283.437 -3.12049 0.358341 0
M  V30 2803 H 282.63 -4.47664 2.31544 0
M  V30 2804 H 282.232 -2.75598 2.52828 0
M  V30 2805 H 284.524 -5.74255 3.59496 0
M  V30 2806 H 285.467 -5.05716 4.95638 0
M  V30 2807 H 285.875 -4.59653 3.27688 0
M  V30 2808 N 285.273 -1.31445 -0.869486 0
M  V30 2809 C 286.519 -1.21337 -1.62496 0
M  V30 2810 C 286.852 0.227872 -1.92858 0
M  V30 2811 O 286.127 1.16094 -1.56053 0
M  V30 2812 C 286.41 -2.05814 -2.95487 0
M  V30 2813 C 286.263 -3.5824 -2.72 0
M  V30 2814 C 287.582 -1.9079 -3.96594 0
M  V30 2815 H 284.701 -0.442135 -0.589649 0
M  V30 2816 H 287.343 -1.6124 -1.00507 0
M  V30 2817 H 285.493 -1.71913 -3.48394 0
M  V30 2818 H 287.165 -4.0228 -2.25762 0
M  V30 2819 H 285.408 -3.81647 -2.06224 0
M  V30 2820 H 286.079 -4.12657 -3.66631 0
M  V30 2821 H 288.555 -2.20459 -3.52898 0
M  V30 2822 H 287.431 -2.52199 -4.87531 0
M  V30 2823 H 287.692 -0.871341 -4.33428 0
M  V30 2824 N 286.751 1.08385 -1.14413 0
M  V30 2825 C 287.999 1.80419 -0.910679 0
M  V30 2826 C 288.32 1.86658 0.564243 0
M  V30 2827 O 287.59 1.35985 1.41014 0
M  V30 2828 H 286.17 0.668204 -0.333934 0
M  V30 2829 H 288.832 1.31037 -1.44275 0
M  V30 2830 H 287.928 2.83238 -1.31082 0
M  V30 2831 N 288.23 0.939286 1.26551 0
M  V30 2832 C 289.646 0.641304 1.46149 0
M  V30 2833 C 289.846 -0.805964 1.84679 0
M  V30 2834 O 288.902 -1.58278 1.96734 0
M  V30 2835 C 290.215 1.6011 2.54529 0
M  V30 2836 C 291.763 1.6106 2.68382 0
M  V30 2837 C 292.238 2.55765 3.79932 0
M  V30 2838 N 293.729 2.5404 3.87322 0
M  V30 2839 C 294.464 3.24004 4.73085 0
M  V30 2840 N 293.96 4.03388 5.63249 0
M  V30 2841 N 295.753 3.12965 4.66914 0
M  V30 2842 H 287.904 1.87478 0.998285 0
M  V30 2843 H 290.167 0.805559 0.499779 0
M  V30 2844 H 289.873 2.63412 2.33039 0
M  V30 2845 H 289.747 1.35171 3.52149 0
M  V30 2846 H 292.134 0.584835 2.89247 0
M  V30 2847 H 292.215 1.90053 1.71212 0
M  V30 2848 H 291.859 3.58458 3.5982 0
M  V30 2849 H 291.789 2.24063 4.76554 0
M  V30 2850 H 294.28 1.96396 3.22858 0
M  V30 2851 H 294.593 4.5373 6.25579 0
M  V30 2852 H 292.938 4.07489 5.63008 0
M  V30 2853 H 296.129 2.50432 3.95476 0
M  V30 2854 H 296.302 3.67759 5.33533 0
M  V30 2855 N 289.708 -1.40897 0.706093 0
M  V30 2856 C 290.954 -2.01352 0.241889 0
M  V30 2857 C 291.287 -1.55832 -1.15888 0
M  V30 2858 O 290.562 -0.774145 -1.7843 0
M  V30 2859 C 290.845 -3.58752 0.311311 0
M  V30 2860 C 290.698 -4.1437 1.74978 0
M  V30 2861 C 292.017 -4.38914 -0.322922 0
M  V30 2862 H 289.136 -0.731562 0.0893687 0
M  V30 2863 H 291.778 -1.67504 0.896802 0
M  V30 2864 H 289.928 -3.87718 -0.246302 0
M  V30 2865 H 291.6 -3.96239 2.36205 0
M  V30 2866 H 289.843 -3.69016 2.28057 0
M  V30 2867 H 290.514 -5.23532 1.74981 0
M  V30 2868 H 292.99 -4.15822 0.152089 0
M  V30 2869 H 291.866 -5.48358 -0.243855 0
M  V30 2870 H 292.127 -4.19176 -1.40513 0
M  V30 2871 N 291.186 -0.45159 -1.50991 0
M  V30 2872 C 292.434 0.109857 -2.01801 0
M  V30 2873 C 292.755 1.41958 -1.3369 0
M  V30 2874 O 292.025 1.9003 -0.475951 0
M  V30 2875 H 290.605 0.0435884 -0.745727 0
M  V30 2876 H 293.267 -0.597557 -1.85514 0
M  V30 2877 H 292.363 0.275489 -3.10882 0
M  V30 2878 N 292.664 1.56529 -0.183458 0
M  V30 2879 C 293.941 1.88959 0.50536 0
M  V30 2880 C 294.321 1.09523 1.80466 0
M  V30 2881 O 293.669 0.19278 2.27685 0
M  V30 2882 C 293.879 3.41162 0.73547 0
M  V30 2883 C 295.227 4.11155 1.06005 0
M  V30 2884 O 296.251 3.46548 0.823594 0
M  V30 2885 O 295.11 5.25318 1.50675 0
M  V30 2886 H 292.204 0.78441 0.261973 0
M  V30 2887 H 294.75 1.68231 -0.222802 0
M  V30 2888 H 293.522 3.90874 -0.182561 0
M  V30 2889 H 293.145 3.67543 1.51651 0
M  V30 2890 N 294.142 -0.090211 1.57342 0
M  V30 2891 C 295.367 -0.810082 1.90925 0
M  V30 2892 C 295.792 -1.71248 0.778187 0
M  V30 2893 O 295.15 -1.79278 -0.269991 0
M  V30 2894 C 295.198 -1.59529 3.23393 0
M  V30 2895 O 294.302 -2.70461 3.11327 0
M  V30 2896 H 293.643 -0.222231 0.625707 0
M  V30 2897 H 296.173 -0.0639716 2.045 0
M  V30 2898 H 296.183 -1.97847 3.5682 0
M  V30 2899 H 294.858 -0.933055 4.05299 0
M  V30 2900 H 293.435 -2.35135 2.89423 0
M  V30 2901 N 295.62 -1.53406 -0.361157 0
M  V30 2902 C 297.031 -1.61442 -0.937728 0
M  V30 2903 C 297.382 -0.48461 -1.90121 0
M  V30 2904 O 296.507 0.388312 -2.12888 0
M  V30 2905 C 297.102 -2.92624 -1.70753 0
M  V30 2906 C 295.661 -3.02981 -2.23337 0
M  V30 2907 C 294.808 -2.5677 -1.04712 0
M  V30 2908 H 297.759 -1.58083 -0.139816 0
M  V30 2909 H 297.78 -2.80675 -2.56908 0
M  V30 2910 H 297.292 -3.74834 -1.00604 0
M  V30 2911 H 295.393 -2.25368 -2.96715 0
M  V30 2912 H 295.506 -4.0814 -2.50916 0
M  V30 2913 H 293.87 -2.11752 -1.41539 0
M  V30 2914 H 294.653 -3.41402 -0.360539 0
M  V30 2915 N 297.098 0.621204 -1.44841 0
M  V30 2916 C 298.338 1.39201 -1.49674 0
M  V30 2917 C 298.702 1.91561 -0.129764 0
M  V30 2918 O 299.903 2.68748 -0.0527814 0
M  V30 2919 C 298.174 2.519 -2.53537 0
M  V30 2920 S 299.733 3.39916 -2.77494 0
M  V30 2921 H 296.551 0.474758 -0.529269 0
M  V30 2922 H 299.153 0.718171 -1.81831 0
M  V30 2923 H 297.857 2.11761 -3.51547 0
M  V30 2924 H 297.388 3.241 -2.22986 0
M  V30 2925 H 299.403 4.49646 -2.0984 0
M  V30 2926 N 298.576 1.31904 0.862503 0
M  V30 2927 C 299.506 1.22782 1.98612 0
M  V30 2928 C 300.487 0.113362 1.69722 0
M  V30 2929 O 301.672 0.299218 1.91881 0
M  V30 2930 C 298.802 0.942058 3.34279 0
M  V30 2931 C 297.756 2.0169 3.77499 0
M  V30 2932 C 297.082 1.58369 5.10709 0
M  V30 2933 C 298.382 3.43096 3.93805 0
M  V30 2934 H 300.076 2.16788 2.06502 0
M  V30 2935 H 297.622 1.04366 0.992154 0
M  V30 2936 H 299.575 0.864818 4.1243 0
M  V30 2937 H 298.299 -0.0336603 3.26583 0
M  V30 2938 H 296.958 2.08416 3.01593 0
M  V30 2939 H 296.606 0.595628 4.99461 0
M  V30 2940 H 296.306 2.30279 5.40597 0
M  V30 2941 H 297.83 1.52067 5.91361 0
M  V30 2942 H 299.244 3.39003 4.62331 0
M  V30 2943 H 297.641 4.13288 4.35101 0
M  V30 2944 H 298.711 3.83334 2.96957 0
M  V30 2945 N 300.054 -1.07777 1.14986 0
M  V30 2946 C 301.302 -1.79934 0.920235 0
M  V30 2947 C 301.623 -1.86955 -0.554336 0
M  V30 2948 O 300.893 -1.36731 -1.40291 0
M  V30 2949 H 299.473 -0.666424 0.337473 0
M  V30 2950 H 302.135 -1.3027 1.44968 0
M  V30 2951 H 301.231 -2.82539 1.32583 0
M  V30 2952 N 301.532 -0.945985 -1.26051 0
M  V30 2953 C 302.495 -0.463897 -2.24456 0
M  V30 2954 C 303.495 0.427655 -1.55009 0
M  V30 2955 O 304.685 0.226157 -1.72726 0
M  V30 2956 C 301.817 0.330812 -3.39291 0
M  V30 2957 H 303.01 -1.33357 -2.68619 0
M  V30 2958 H 300.563 -0.728416 -1.38289 0
M  V30 2959 H 301.298 1.21852 -3.00537 0
M  V30 2960 H 301.083 -0.308679 -3.90883 0
M  V30 2961 H 302.573 0.657865 -4.12386 0
M  V30 2962 N 303.011 1.40521 -0.713556 0
M  V30 2963 C 304.259 2.00527 -0.251692 0
M  V30 2964 C 304.58 1.56857 1.15848 0
M  V30 2965 O 303.85 0.807127 1.785 0
M  V30 2966 H 302.43 0.741551 -0.0900646 0
M  V30 2967 H 305.092 1.71887 -0.918733 0
M  V30 2968 H 304.188 3.10813 -0.283192 0
M  V30 2969 N 304.489 0.459591 1.5075 0
M  V30 2970 C 305.737 -0.0991532 2.01857 0
M  V30 2971 C 306.058 -1.41247 1.34441 0
M  V30 2972 O 305.328 -1.89775 0.486022 0
M  V30 2973 H 303.908 -0.039633 0.745948 0
M  V30 2974 H 306.57 0.607387 1.85194 0
M  V30 2975 H 305.666 -0.258998 3.11023 0
M  V30 2976 N 305.967 -1.56429 0.191757 0
M  V30 2977 C 307.197 -2.01574 -0.452928 0
M  V30 2978 C 307.605 -1.07107 -1.55964 0
M  V30 2979 O 306.948 -0.067534 -1.83576 0
M  V30 2980 C 307.01 -3.43121 -1.07278 0
M  V30 2981 C 306.674 -4.56879 -0.105214 0
M  V30 2982 C 307.671 -5.15379 0.684149 0
M  V30 2983 C 305.356 -5.023 0.00489824 0
M  V30 2984 C 307.35 -6.17746 1.57062 0
M  V30 2985 C 305.037 -6.04511 0.894935 0
M  V30 2986 C 306.035 -6.62108 1.67637 0
M  V30 2987 O 305.723 -7.62335 2.55149 0
M  V30 2988 H 305.455 -0.665554 -0.118379 0
M  V30 2989 H 308.009 -2.03245 0.296737 0
M  V30 2990 H 306.239 -3.38425 -1.87097 0
M  V30 2991 H 307.928 -3.72093 -1.62177 0
M  V30 2992 H 308.694 -4.81157 0.609365 0
M  V30 2993 H 304.573 -4.57168 -0.593156 0
M  V30 2994 H 308.117 -6.6263 2.181 0
M  V30 2995 H 304.014 -6.38157 0.970847 0
M  V30 2996 H 304.782 -7.79741 2.48892 0
M  V30 2997 N 307.445 0.0818655 -1.57387 0
M  V30 2998 C 308.408 1.08265 -2.02018 0
M  V30 2999 C 309.408 1.32183 -0.915664 0
M  V30 3000 O 310.598 1.28073 -1.18081 0
M  V30 3001 C 307.73 2.42871 -2.39221 0
M  V30 3002 H 308.923 0.698204 -2.91659 0
M  V30 3003 H 306.476 0.327303 -1.52835 0
M  V30 3004 H 307.211 2.86167 -1.52575 0
M  V30 3005 H 306.996 2.26855 -3.19811 0
M  V30 3006 H 308.486 3.14826 -2.74362 0
M  V30 3007 N 308.923 1.53595 0.353017 0
M  V30 3008 C 310.2 1.61002 1.11075 0
M  V30 3009 C 310.58 0.425356 2.0677 0
M  V30 3010 O 309.928 -0.583267 2.2093 0
M  V30 3011 C 310.138 2.96631 1.83877 0
M  V30 3012 C 311.486 3.51653 2.37961 0
M  V30 3013 O 312.51 2.98743 1.93987 0
M  V30 3014 O 311.369 4.44177 3.18386 0
M  V30 3015 H 308.463 0.650825 0.510251 0
M  V30 3016 H 311.009 1.6594 0.35527 0
M  V30 3017 H 309.781 3.74293 1.14108 0
M  V30 3018 H 309.404 2.95242 2.66304 0
M  V30 3019 N 310.401 -0.613514 1.45168 0
M  V30 3020 C 311.349 -1.74572 1.53712 0
M  V30 3021 C 312.343 -1.64426 0.407505 0
M  V30 3022 O 313.549 -1.70291 0.583176 0
M  V30 3023 H 309.924 -0.576641 0.48269 0
M  V30 3024 H 311.895 -1.64492 2.48968 0
M  V30 3025 C 310.644 -3.12943 1.51532 0
M  V30 3026 H 309.967 -3.21407 2.37776 0
M  V30 3027 H 311.407 -3.9201 1.61569 0
M  V30 3028 C 309.866 -3.36053 0.238798 0
M  V30 3029 O 310.396 -3.95837 -0.6838 0
M  V30 3030 N 308.602 -2.9028 0.136359 0
M  V30 3031 H 308.149 -2.41811 0.887999 0
M  V30 3032 H 308.107 -3.06116 -0.716944 0
M  V30 3033 N 311.879 -1.3236 -0.855495 0
M  V30 3034 C 313.156 -1.13491 -1.59309 0
M  V30 3035 C 313.536 0.30503 -2.08885 0
M  V30 3036 O 312.884 1.30151 -1.87811 0
M  V30 3037 C 313.094 -2.16176 -2.73987 0
M  V30 3038 C 314.442 -2.49463 -3.43589 0
M  V30 3039 O 315.466 -2.14715 -2.84211 0
M  V30 3040 O 314.325 -3.09027 -4.50738 0
M  V30 3041 H 311.419 -0.437887 -0.701559 0
M  V30 3042 H 313.965 -1.43887 -0.899696 0
M  V30 3043 H 312.737 -3.1297 -2.34873 0
M  V30 3044 H 312.36 -1.86769 -3.51003 0
M  V30 3045 N 313.357 1.07166 -1.15556 0
M  V30 3046 C 314.606 1.79181 -0.926132 0
M  V30 3047 C 314.919 1.87768 0.547967 0
M  V30 3048 O 316.125 2.56323 0.895036 0
M  V30 3049 C 314.581 3.22 -1.60761 0
M  V30 3050 C 314.189 3.21607 -3.11886 0
M  V30 3051 C 315.933 3.9861 -1.4598 0
M  V30 3052 C 313.84 4.59092 -3.72812 0
M  V30 3053 H 312.77 0.67154 -0.342856 0
M  V30 3054 H 315.421 1.2027 -1.3859 0
M  V30 3055 H 313.803 3.81115 -1.07553 0
M  V30 3056 H 314.977 2.72127 -3.71865 0
M  V30 3057 H 313.292 2.58495 -3.2645 0
M  V30 3058 H 315.889 5.00225 -1.88888 0
M  V30 3059 H 316.232 4.143 -0.407541 0
M  V30 3060 H 316.765 3.45996 -1.96295 0
M  V30 3061 H 313.504 4.48606 -4.77946 0
M  V30 3062 H 313.024 5.08803 -3.17616 0
M  V30 3063 H 314.703 5.28059 -3.73848 0
M  V30 3064 N 314.835 0.952656 1.25548 0
M  V30 3065 C 316.083 0.605176 1.92826 0
M  V30 3066 C 316.404 -0.860261 1.74999 0
M  V30 3067 O 315.674 -1.6125 1.11244 0
M  V30 3068 H 314.254 0.220832 0.713612 0
M  V30 3069 H 316.916 1.21047 1.52754 0
M  V30 3070 H 316.012 0.832798 3.00784 0
M  V30 3071 N 316.313 -1.40141 0.720998 0
M  V30 3072 C 317.276 -2.29058 0.0805834 0
M  V30 3073 C 318.276 -1.45632 -0.681758 0
M  V30 3074 O 319.466 -1.6648 -0.512856 0
M  V30 3075 C 316.598 -3.28925 -0.895593 0
M  V30 3076 H 317.791 -2.87191 0.863793 0
M  V30 3077 H 315.344 -1.48553 0.485975 0
M  V30 3078 H 316.079 -2.75822 -1.70566 0
M  V30 3079 H 315.864 -3.90519 -0.351766 0
M  V30 3080 H 317.354 -3.95494 -1.34069 0
M  V30 3081 N 317.792 -0.46758 -1.50504 0
M  V30 3082 C 319.038 0.0887532 -2.02606 0
M  V30 3083 C 319.371 1.39686 -1.34913 0
M  V30 3084 O 318.646 1.88644 -0.473694 0
M  V30 3085 C 318.929 0.276206 -3.59039 0
M  V30 3086 C 318.782 -1.05267 -4.37309 0
M  V30 3087 C 320.101 1.03235 -4.27821 0
M  V30 3088 H 317.22 0.0307814 -0.736357 0
M  V30 3089 H 319.862 -0.612485 -1.79857 0
M  V30 3090 H 318.012 0.8735 -3.78553 0
M  V30 3091 H 319.684 -1.68628 -4.29374 0
M  V30 3092 H 317.927 -1.65015 -4.01189 0
M  V30 3093 H 318.598 -0.875197 -5.45018 0
M  V30 3094 H 321.074 0.526111 -4.12761 0
M  V30 3095 H 319.95 1.1323 -5.37094 0
M  V30 3096 H 320.211 2.06806 -3.90748 0
M  V30 3097 N 319.27 1.56325 -0.20005 0
M  V30 3098 C 320.495 2.02548 0.44597 0
M  V30 3099 C 320.92 1.07922 1.5406 0
M  V30 3100 O 320.278 0.0635775 1.81188 0
M  V30 3101 C 320.326 3.47175 0.974761 0
M  V30 3102 O 319.43 3.55671 2.08739 0
M  V30 3103 H 318.771 0.655862 0.103638 0
M  V30 3104 H 321.301 2.02201 -0.312381 0
M  V30 3105 H 321.311 3.87067 1.2901 0
M  V30 3106 H 319.986 4.15538 0.17347 0
M  V30 3107 H 318.563 3.27657 1.78032 0
M  V30 3108 N 320.748 -0.0735177 1.57428 0
M  V30 3109 C 321.976 -0.785969 1.9139 0
M  V30 3110 C 322.391 -1.71207 0.795847 0
M  V30 3111 O 321.748 -1.81033 -0.230915 0
M  V30 3112 C 321.799 -1.58107 3.25091 0
M  V30 3113 O 321.52 -0.6922 4.32597 0
M  V30 3114 C 323.021 -2.39467 3.73055 0
M  V30 3115 H 320.241 -0.223558 0.632663 0
M  V30 3116 H 322.785 -0.044302 2.04452 0
M  V30 3117 H 320.94 -2.27503 3.13562 0
M  V30 3118 H 321.354 -1.24504 5.09508 0
M  V30 3119 H 322.828 -2.90716 4.69242 0
M  V30 3120 H 323.305 -3.18913 3.01979 0
M  V30 3121 H 323.911 -1.7523 3.87523 0
M  V30 3122 N 322.226 -1.5378 -0.344866 0
M  V30 3123 C 323.454 -1.74899 -1.10534 0
M  V30 3124 C 323.869 -0.487534 -1.82397 0
M  V30 3125 O 323.226 0.540741 -1.74305 0
M  V30 3126 C 323.277 -2.92822 -2.11984 0
M  V30 3127 O 322.998 -4.14089 -1.43044 0
M  V30 3128 C 324.499 -3.25982 -3.00417 0
M  V30 3129 H 321.719 -0.584426 -0.329678 0
M  V30 3130 H 324.263 -2.006 -0.397474 0
M  V30 3131 H 322.418 -2.69457 -2.78338 0
M  V30 3132 H 322.832 -4.80272 -2.10805 0
M  V30 3133 H 324.306 -4.11848 -3.67539 0
M  V30 3134 H 324.783 -2.42228 -3.66363 0
M  V30 3135 H 325.389 -3.51349 -2.39654 0
M  V30 3136 N 323.704 0.605807 -1.45491 0
M  V30 3137 C 324.952 1.36207 -1.49305 0
M  V30 3138 C 325.273 1.94519 -0.136863 0
M  V30 3139 O 324.543 1.77261 0.833983 0
M  V30 3140 H 323.123 0.50565 -0.549843 0
M  V30 3141 H 325.785 0.711239 -1.81459 0
M  V30 3142 H 324.881 2.18058 -2.23287 0
M  V30 3143 N 325.182 1.32811 0.848464 0
M  V30 3144 C 326.132 1.18842 1.94578 0
M  V30 3145 C 327.116 0.0937517 1.60627 0
M  V30 3146 O 328.308 0.320887 1.74067 0
M  V30 3147 C 325.437 0.91999 3.30743 0
M  V30 3148 C 324.523 2.05665 3.70894 0
M  V30 3149 N 324.914 3.30579 3.8282 0
M  V30 3150 C 323.212 1.9612 4.00566 0
M  V30 3151 C 323.913 4.05067 4.17487 0
M  V30 3152 N 322.889 3.33419 4.2934 0
M  V30 3153 H 326.691 2.13536 2.0194 0
M  V30 3154 H 324.205 1.2468 1.0406 0
M  V30 3155 H 326.202 0.800859 4.09136 0
M  V30 3156 H 324.862 -0.0185076 3.24695 0
M  V30 3157 H 325.873 3.65441 3.66978 0
M  V30 3158 H 322.55 1.09871 4.02784 0
M  V30 3159 H 323.94 5.12815 4.34131 0
M  V30 3160 N 326.66 -1.06551 1.16123 0
M  V30 3161 C 327.908 -1.78947 0.939267 0
M  V30 3162 C 328.229 -1.87532 -0.534476 0
M  V30 3163 O 327.499 -1.38211 -1.38833 0
M  V30 3164 H 326.079 -0.662807 0.344523 0
M  V30 3165 H 328.741 -1.28725 1.46342 0
M  V30 3166 H 327.837 -2.81117 1.35572 0
M  V30 3167 N 328.138 -0.959301 -1.25041 0
M  V30 3168 C 329.048 -0.489994 -2.29426 0
M  V30 3169 C 330.064 0.444944 -1.68215 0
M  V30 3170 O 331.24 0.320046 -1.98841 0
M  V30 3171 C 328.305 0.220309 -3.45999 0
M  V30 3172 C 327.366 -0.753418 -4.22637 0
M  V30 3173 C 326.599 -0.076918 -5.33645 0
M  V30 3174 O 326.822 1.13649 -5.58963 0
M  V30 3175 O 325.756 -0.764824 -5.97021 0
M  V30 3176 H 329.582 -1.35755 -2.71669 0
M  V30 3177 H 327.167 -0.725961 -1.30576 0
M  V30 3178 H 329.049 0.619677 -4.16819 0
M  V30 3179 H 327.724 1.06296 -3.0575 0
M  V30 3180 H 326.631 -1.20308 -3.54227 0
M  V30 3181 H 327.964 -1.56423 -4.66683 0
M  V30 3182 N 329.616 1.39756 -0.72842 0
M  V30 3183 C 330.841 2.05472 -0.282159 0
M  V30 3184 C 331.266 1.54549 1.07221 0
M  V30 3185 O 330.624 0.686372 1.67805 0
M  V30 3186 C 330.672 3.59462 -0.286264 0
M  V30 3187 O 329.776 4.05918 0.728298 0
M  V30 3188 H 329.117 0.651226 -0.129618 0
M  V30 3189 H 331.647 1.78915 -0.992499 0
M  V30 3190 H 331.657 4.07798 -0.128373 0
M  V30 3191 H 330.332 3.95889 -1.27456 0
M  V30 3192 H 328.909 3.69012 0.537081 0
M  V30 3193 N 331.094 0.475555 1.50254 0
M  V30 3194 C 332.343 -0.0795996 2.01543 0
M  V30 3195 C 332.656 -1.4038 1.36209 0
M  V30 3196 O 333.862 -2.04415 1.7868 0
M  V30 3197 C 332.318 -0.192363 3.59386 0
M  V30 3198 C 331.926 1.12367 4.33679 0
M  V30 3199 C 333.67 -0.699238 4.18701 0
M  V30 3200 C 331.577 0.974453 5.83317 0
M  V30 3201 H 330.507 -0.0335228 0.753254 0
M  V30 3202 H 333.158 0.611128 1.73025 0
M  V30 3203 H 331.54 -0.946974 3.84511 0
M  V30 3204 H 332.714 1.88958 4.20276 0
M  V30 3205 H 331.029 1.562 3.85993 0
M  V30 3206 H 333.626 -0.827978 5.28251 0
M  V30 3207 H 333.969 -1.69171 3.80377 0
M  V30 3208 H 334.502 -0.00188807 3.978 0
M  V30 3209 H 331.241 1.94042 6.26121 0
M  V30 3210 H 330.761 0.248998 5.99283 0
M  V30 3211 H 332.44 0.642867 6.43798 0
M  V30 3212 N 332.573 -1.56217 0.208337 0
M  V30 3213 C 333.503 -2.22694 -0.702116 0
M  V30 3214 C 334.484 -1.19432 -1.2112 0
M  V30 3215 O 335.669 -1.47978 -1.25762 0
M  V30 3216 C 332.799 -2.8966 -1.9161 0
M  V30 3217 C 331.753 -3.9928 -1.5414 0
M  V30 3218 C 331.079 -4.53476 -2.83308 0
M  V30 3219 C 332.379 -5.17012 -0.741339 0
M  V30 3220 H 334.073 -2.99034 -0.147898 0
M  V30 3221 H 331.619 -1.43831 -0.0696951 0
M  V30 3222 H 333.572 -3.34852 -2.55836 0
M  V30 3223 H 332.296 -2.10746 -2.49507 0
M  V30 3224 H 330.955 -3.54799 -0.922668 0
M  V30 3225 H 330.603 -3.71308 -3.39322 0
M  V30 3226 H 330.303 -5.27451 -2.58976 0
M  V30 3227 H 331.827 -5.01378 -3.485 0
M  V30 3228 H 333.241 -5.58667 -1.28699 0
M  V30 3229 H 331.638 -5.97137 -0.595627 0
M  V30 3230 H 332.708 -4.8423 0.254851 0
M  V30 3231 N 334.051 0.0651679 -1.57465 0
M  V30 3232 C 334.998 1.07675 -2.04144 0
M  V30 3233 C 335.968 1.38071 -0.923335 0
M  V30 3234 O 337.153 1.49026 -1.19146 0
M  V30 3235 C 334.293 2.38337 -2.49579 0
M  V30 3236 C 333.406 2.14413 -3.75035 0
M  V30 3237 C 332.541 3.38686 -4.09225 0
M  V30 3238 C 331.58 3.10156 -5.27702 0
M  V30 3239 N 330.717 4.26778 -5.57499 0
M  V30 3240 H 335.557 0.671716 -2.90331 0
M  V30 3241 H 333.094 0.3201 -1.43575 0
M  V30 3242 H 335.052 3.14632 -2.73975 0
M  V30 3243 H 333.682 2.7663 -1.6636 0
M  V30 3244 H 332.734 1.2878 -3.57939 0
M  V30 3245 H 334.046 1.89344 -4.61466 0
M  V30 3246 H 333.2 4.23373 -4.34558 0
M  V30 3247 H 331.939 3.66837 -3.21374 0
M  V30 3248 H 330.944 2.23866 -5.02159 0
M  V30 3249 H 332.169 2.8332 -6.17176 0
M  V30 3250 H 330.115 4.54948 -4.72608 0
M  V30 3251 H 330.032 4.05005 -6.38362 0
M  V30 3252 H 331.3 5.12443 -5.87386 0
M  V30 3253 N 335.529 1.53961 0.336706 0
M  V30 3254 C 336.775 1.7179 1.07777 0
M  V30 3255 C 337.108 0.483263 1.88091 0
M  V30 3256 O 336.383 -0.519747 1.87427 0
M  V30 3257 C 336.666 2.98558 2.01334 0
M  V30 3258 C 336.519 4.32245 1.24437 0
M  V30 3259 C 337.838 3.21023 3.01052 0
M  V30 3260 H 334.957 0.625089 0.390426 0
M  V30 3261 H 337.599 1.86641 0.35567 0
M  V30 3262 H 335.749 2.86028 2.62908 0
M  V30 3263 H 337.421 4.56637 0.654243 0
M  V30 3264 H 335.664 4.30344 0.546458 0
M  V30 3265 H 336.335 5.17137 1.93063 0
M  V30 3266 H 338.811 3.32929 2.49595 0
M  V30 3267 H 337.687 4.11104 3.6371 0
M  V30 3268 H 337.948 2.37637 3.72802 0
M  V30 3269 N 337.007 -0.598083 1.45811 0
M  V30 3270 C 337.955 -1.72932 1.55555 0
M  V30 3271 C 338.949 -1.63984 0.424921 0
M  V30 3272 O 340.155 -1.69663 0.601205 0
M  V30 3273 H 336.53 -0.571489 0.488779 0
M  V30 3274 H 338.501 -1.61842 2.50699 0
M  V30 3275 C 337.25 -3.11318 1.54843 0
M  V30 3276 H 336.573 -3.18867 2.41172 0
M  V30 3277 H 338.013 -3.90274 1.65717 0
M  V30 3278 C 336.472 -3.3578 0.274427 0
M  V30 3279 O 337.002 -3.9654 -0.641778 0
M  V30 3280 N 335.208 -2.90119 0.167139 0
M  V30 3281 H 334.755 -2.40855 0.913596 0
M  V30 3282 H 334.713 -3.0686 -0.684435 0
M  V30 3283 N 338.485 -1.33259 -0.841409 0
M  V30 3284 C 339.415 -1.25926 -1.96634 0
M  V30 3285 C 340.396 -0.140349 -1.6952 0
M  V30 3286 O 341.581 -0.329707 -1.91381 0
M  V30 3287 C 338.711 -0.99512 -3.32738 0
M  V30 3288 C 337.665 -2.0767 -3.74242 0
M  V30 3289 C 336.991 -1.66474 -5.08125 0
M  V30 3290 C 338.291 -3.49318 -3.88297 0
M  V30 3291 H 339.985 -2.20046 -2.03027 0
M  V30 3292 H 337.531 -1.05931 -0.975425 0
M  V30 3293 H 339.484 -0.930323 -4.11002 0
M  V30 3294 H 338.208 -0.0183004 -3.26595 0
M  V30 3295 H 336.867 -2.13187 -2.98239 0
M  V30 3296 H 336.515 -0.675012 -4.9845 0
M  V30 3297 H 336.215 -2.3885 -5.36865 0
M  V30 3298 H 337.739 -1.61455 -5.88867 0
M  V30 3299 H 339.153 -3.46316 -4.56879 0
M  V30 3300 H 337.55 -4.20158 -4.28471 0
M  V30 3301 H 338.62 -3.8801 -2.9082 0
M  V30 3302 N 339.963 1.05934 -1.16686 0
M  V30 3303 C 340.926 2.11669 -0.879144 0
M  V30 3304 C 341.926 1.60294 0.127445 0
M  V30 3305 O 343.116 1.7389 -0.103865 0
M  V30 3306 C 340.248 3.39438 -0.315425 0
M  V30 3307 H 341.441 2.38626 -1.81653 0
M  V30 3308 H 338.994 1.22058 -0.976299 0
M  V30 3309 H 339.729 3.18132 0.629468 0
M  V30 3310 H 339.514 3.78034 -1.04079 0
M  V30 3311 H 341.004 4.17391 -0.132189 0
M  V30 3312 N 341.441 0.965919 1.2453 0
M  V30 3313 C 342.857 0.67216 1.44756 0
M  V30 3314 C 343.057 -0.766609 1.86347 0
M  V30 3315 O 342.113 -1.5407 2.00047 0
M  V30 3316 C 343.426 1.65473 2.51076 0
M  V30 3317 C 344.974 1.66716 2.64905 0
M  V30 3318 C 345.449 2.63766 3.74421 0
M  V30 3319 N 346.94 2.62198 3.81846 0
M  V30 3320 C 347.675 3.33966 4.66106 0
M  V30 3321 N 347.171 4.15245 5.54566 0
M  V30 3322 N 348.964 3.22799 4.60171 0
M  V30 3323 H 341.115 1.89553 0.958293 0
M  V30 3324 H 343.378 0.815979 0.482579 0
M  V30 3325 H 343.084 2.68296 2.27399 0
M  V30 3326 H 342.958 1.4261 3.49202 0
M  V30 3327 H 345.345 0.646057 2.87941 0
M  V30 3328 H 345.426 1.93642 1.67142 0
M  V30 3329 H 345.07 3.6601 3.52135 0
M  V30 3330 H 345 2.34121 4.71694 0
M  V30 3331 H 347.491 2.032 3.18619 0
M  V30 3332 H 347.804 4.66898 6.15814 0
M  V30 3333 H 346.149 4.1934 5.54237 0
M  V30 3334 H 349.34 2.58764 3.90075 0
M  V30 3335 H 349.513 3.78994 5.25612 0
M  V30 3336 N 342.919 -1.39368 0.735821 0
M  V30 3337 C 343.849 -2.33234 0.111506 0
M  V30 3338 C 344.83 -1.53954 -0.723334 0
M  V30 3339 O 346.015 -1.82344 -0.668147 0
M  V30 3340 C 343.145 -3.38057 -0.795917 0
M  V30 3341 C 342.099 -4.2795 -0.065172 0
M  V30 3342 C 341.425 -5.23479 -1.08967 0
M  V30 3343 C 342.725 -5.10741 1.09273 0
M  V30 3344 H 344.419 -2.85692 0.895571 0
M  V30 3345 H 341.965 -1.37364 0.432109 0
M  V30 3346 H 343.918 -4.02675 -1.24221 0
M  V30 3347 H 342.642 -2.8404 -1.61211 0
M  V30 3348 H 341.301 -3.64813 0.361511 0
M  V30 3349 H 340.949 -4.65758 -1.89944 0
M  V30 3350 H 340.649 -5.84472 -0.605489 0
M  V30 3351 H 342.173 -5.90974 -1.53565 0
M  V30 3352 H 343.587 -5.68699 0.724841 0
M  V30 3353 H 341.984 -5.8088 1.50659 0
M  V30 3354 H 343.054 -4.45525 1.91404 0
M  V30 3355 N 344.397 -0.483516 -1.5 0
M  V30 3356 C 345.625 0.0644831 -2.06799 0
M  V30 3357 C 346.04 1.32399 -1.34596 0
M  V30 3358 O 345.397 1.77626 -0.418946 0
M  V30 3359 C 345.448 0.339927 -3.59898 0
M  V30 3360 O 345.169 -0.869635 -4.29382 0
M  V30 3361 C 346.67 0.933515 -4.33359 0
M  V30 3362 H 343.89 -0.0126333 -0.670881 0
M  V30 3363 H 346.434 -0.675864 -1.93009 0
M  V30 3364 H 344.589 1.03022 -3.7345 0
M  V30 3365 H 345.003 -0.62179 -5.20801 0
M  V30 3366 H 346.477 1.07593 -5.41413 0
M  V30 3367 H 346.954 1.92685 -3.94676 0
M  V30 3368 H 347.56 0.281221 -4.24369 0
M  V30 3369 N 345.875 1.56104 -0.216619 0
M  V30 3370 C 346.805 2.23063 0.690296 0
M  V30 3371 C 347.786 1.20072 1.20485 0
M  V30 3372 O 348.971 1.48643 1.24976 0
M  V30 3373 C 346.101 2.90672 1.90072 0
M  V30 3374 C 345.055 4.00092 1.5202 0
M  V30 3375 C 344.381 4.54972 2.80899 0
M  V30 3376 C 345.681 5.17398 0.71391 0
M  V30 3377 H 347.375 2.99109 0.132038 0
M  V30 3378 H 344.921 1.43866 0.0620664 0
M  V30 3379 H 346.874 3.36204 2.54057 0
M  V30 3380 H 345.598 2.12066 2.48386 0
M  V30 3381 H 344.257 3.55283 0.903839 0
M  V30 3382 H 343.905 3.73102 3.37348 0
M  V30 3383 H 343.605 5.28817 2.56176 0
M  V30 3384 H 345.129 5.0322 3.45836 0
M  V30 3385 H 346.543 5.59342 1.25735 0
M  V30 3386 H 344.94 5.97444 0.563951 0
M  V30 3387 H 346.01 4.84088 -0.280527 0
M  V30 3388 N 347.353 -0.0568162 1.57498 0
M  V30 3389 C 348.6 -0.753104 1.87975 0
M  V30 3390 C 348.928 -1.76815 0.81035 0
M  V30 3391 O 348.183 -1.94756 -0.19199 0
M  V30 3392 C 348.482 -1.48359 3.25153 0
M  V30 3393 C 348.148 -0.60713 4.46794 0
M  V30 3394 C 346.81 -0.365642 4.79809 0
M  V30 3395 C 349.162 -0.000305978 5.212 0
M  V30 3396 C 346.49 0.491905 5.84634 0
M  V30 3397 C 348.842 0.844781 6.26934 0
M  V30 3398 C 347.506 1.096 6.58441 0
M  V30 3399 H 346.776 -0.27558 0.687849 0
M  V30 3400 H 349.423 -0.0135173 1.91495 0
M  V30 3401 H 347.728 -2.29577 3.17492 0
M  V30 3402 H 349.425 -2.02739 3.45974 0
M  V30 3403 H 346.015 -0.805487 4.20963 0
M  V30 3404 H 350.199 -0.173961 4.95995 0
M  V30 3405 H 345.455 0.695131 6.07436 0
M  V30 3406 H 349.629 1.32165 6.83744 0
M  V30 3407 H 347.256 1.76224 7.39492 0
M  V30 3408 N 348.832 -1.54138 -0.328536 0
M  V30 3409 C 349.782 -1.79557 -1.4051 0
M  V30 3410 C 350.766 -0.651373 -1.47126 0
M  V30 3411 O 351.958 -0.911226 -1.51742 0
M  V30 3412 C 349.087 -2.02196 -2.77438 0
M  V30 3413 C 348.173 -3.22724 -2.75155 0
M  V30 3414 N 348.564 -4.43881 -2.42494 0
M  V30 3415 C 346.862 -3.24196 -3.06289 0
M  V30 3416 C 347.563 -5.25797 -2.48822 0
M  V30 3417 N 346.539 -4.62862 -2.8506 0
M  V30 3418 H 350.341 -2.70814 -1.1418 0
M  V30 3419 H 347.855 -1.53265 -0.536991 0
M  V30 3420 H 349.852 -2.18546 -3.55026 0
M  V30 3421 H 348.512 -1.12191 -3.04702 0
M  V30 3422 H 349.523 -4.70969 -2.15428 0
M  V30 3423 H 346.2 -2.44208 -3.38627 0
M  V30 3424 H 347.59 -6.32535 -2.26603 0
M  V30 3425 N 350.31 0.590341 -1.46126 0
M  V30 3426 C 351.559 1.34499 -1.50309 0
M  V30 3427 C 351.872 1.94977 -0.156021 0
M  V30 3428 O 353.078 2.71395 -0.0756037 0
M  V30 3429 C 351.534 2.43723 -2.64815 0
M  V30 3430 C 351.142 1.89582 -4.0591 0
M  V30 3431 C 352.886 3.20579 -2.78262 0
M  V30 3432 C 350.793 2.9639 -5.11769 0
M  V30 3433 H 349.723 0.505593 -0.559368 0
M  V30 3434 H 352.374 0.630848 -1.72315 0
M  V30 3435 H 350.756 3.17902 -2.36124 0
M  V30 3436 H 351.93 1.21997 -4.44357 0
M  V30 3437 H 350.245 1.25418 -3.97063 0
M  V30 3438 H 352.842 4.00276 -3.54519 0
M  V30 3439 H 353.185 3.72684 -1.85505 0
M  V30 3440 H 353.718 2.53505 -3.06562 0
M  V30 3441 H 350.457 2.49181 -6.06291 0
M  V30 3442 H 349.977 3.62487 -4.77873 0
M  V30 3443 H 351.656 3.60474 -5.37278 0
M  V30 3444 N 351.788 1.33704 0.83433 0
M  V30 3445 C 352.698 1.26382 1.97648 0
M  V30 3446 C 353.714 0.173548 1.73132 0
M  V30 3447 O 354.89 0.397962 1.97429 0
M  V30 3448 C 351.955 1.00769 3.31733 0
M  V30 3449 C 351.016 2.1884 3.69334 0
M  V30 3450 C 350.249 1.9444 4.9702 0
M  V30 3451 O 350.472 0.896961 5.63303 0
M  V30 3452 O 349.406 2.81093 5.32231 0
M  V30 3453 H 353.232 2.22444 2.06767 0
M  V30 3454 H 350.817 1.13795 0.968037 0
M  V30 3455 H 352.699 0.882186 4.12062 0
M  V30 3456 H 351.374 0.0773783 3.23608 0
M  V30 3457 H 350.281 2.36946 2.89495 0
M  V30 3458 H 351.614 3.10221 3.82131 0
M  V30 3459 N 353.266 -1.05314 1.17247 0
M  V30 3460 C 354.198 -2.13023 0.845812 0
M  V30 3461 C 355.211 -1.62096 -0.151246 0
M  V30 3462 O 356.4 -1.78343 0.0748818 0
M  V30 3463 C 353.5 -3.38047 0.240292 0
M  V30 3464 C 352.673 -4.18255 1.27991 0
M  V30 3465 C 351.732 -5.21625 0.692375 0
M  V30 3466 O 350.758 -5.52619 1.36385 0
M  V30 3467 N 351.96 -5.78201 -0.516178 0
M  V30 3468 H 354.725 -2.41642 1.77283 0
M  V30 3469 H 352.286 -1.21401 1.07115 0
M  V30 3470 H 354.278 -4.04359 -0.16603 0
M  V30 3471 H 352.848 -3.06972 -0.590487 0
M  V30 3472 H 352.068 -3.47451 1.86203 0
M  V30 3473 H 353.356 -4.68643 1.98119 0
M  V30 3474 H 352.754 -5.55301 -1.07969 0
M  V30 3475 H 351.311 -6.4604 -0.86458 0
M  V30 3476 N 354.744 -0.972509 -1.24016 0
M  V30 3477 C 355.992 -0.635776 -1.91839 0
M  V30 3478 C 356.313 0.832312 -1.76345 0
M  V30 3479 O 355.583 1.5946 -1.13795 0
M  V30 3480 H 354.163 -0.232157 -0.710009 0
M  V30 3481 H 356.825 -1.23462 -1.50809 0
M  V30 3482 H 355.921 -0.880545 -2.99421 0
M  V30 3483 N 356.222 1.38976 -0.743202 0
M  V30 3484 C 357.169 2.30544 -0.10861 0
M  V30 3485 C 358.139 1.49642 0.720869 0
M  V30 3486 O 359.324 1.78304 0.679142 0
M  V30 3487 C 356.464 3.36018 0.786496 0
M  V30 3488 C 355.577 4.31963 -0.0564849 0
M  V30 3489 C 354.712 5.24506 0.840657 0
M  V30 3490 C 353.751 6.121 -0.00658363 0
M  V30 3491 N 352.888 6.96973 0.846943 0
M  V30 3492 H 357.728 2.8424 -0.895088 0
M  V30 3493 H 355.265 1.3995 -0.453048 0
M  V30 3494 H 357.223 3.95768 1.31999 0
M  V30 3495 H 355.853 2.83758 1.53887 0
M  V30 3496 H 354.905 3.73763 -0.707492 0
M  V30 3497 H 356.217 4.93703 -0.711229 0
M  V30 3498 H 355.371 5.89322 1.4417 0
M  V30 3499 H 354.11 4.63107 1.52916 0
M  V30 3500 H 353.115 5.46289 -0.620366 0
M  V30 3501 H 354.34 6.75565 -0.691992 0
M  V30 3502 H 352.286 6.38133 1.52059 0
M  V30 3503 H 352.203 7.5559 0.248864 0
M  V30 3504 H 353.471 7.6621 1.43328 0
M  V30 3505 N 357.7 0.491464 1.49741 0
M  V30 3506 C 358.928 -0.0535151 2.06831 0
M  V30 3507 C 359.343 -1.31683 1.35296 0
M  V30 3508 O 358.7 -1.77402 0.42836 0
M  V30 3509 C 358.751 -0.320835 3.60073 0
M  V30 3510 O 358.472 0.892394 4.28915 0
M  V30 3511 C 359.973 -0.910519 4.33848 0
M  V30 3512 H 357.193 0.0161909 0.670805 0
M  V30 3513 H 359.737 0.68609 1.92647 0
M  V30 3514 H 357.892 -1.0104 3.73991 0
M  V30 3515 H 358.306 0.649401 5.20464 0
M  V30 3516 H 359.78 -1.04721 5.41976 0
M  V30 3517 H 360.257 -1.90589 3.95692 0
M  V30 3518 H 360.863 -0.258712 4.24512 0
M  V30 3519 N 359.178 -1.55987 0.224894 0
M  V30 3520 C 360.424 -1.98684 -0.406502 0
M  V30 3521 C 360.757 -1.11248 -1.59177 0
M  V30 3522 O 360.032 -0.170909 -1.93748 0
M  V30 3523 C 360.315 -3.50218 -0.837808 0
M  V30 3524 C 360.168 -4.48426 0.351332 0
M  V30 3525 C 361.487 -4.06243 -1.69278 0
M  V30 3526 H 358.606 -0.722337 -0.146283 0
M  V30 3527 H 361.248 -1.87255 0.321799 0
M  V30 3528 H 359.398 -3.60089 -1.45837 0
M  V30 3529 H 361.07 -4.50562 0.989526 0
M  V30 3530 H 359.313 -4.22159 0.998207 0
M  V30 3531 H 359.984 -5.52 0.00655905 0
M  V30 3532 H 362.46 -3.99337 -1.16914 0
M  V30 3533 H 361.336 -5.12581 -1.96346 0
M  V30 3534 H 361.597 -3.53332 -2.65723 0
M  V30 3535 N 360.656 0.0484629 -1.57525 0
M  V30 3536 C 361.566 1.07241 -2.08654 0
M  V30 3537 C 362.582 1.409 -1.02095 0
M  V30 3538 O 363.758 1.50609 -1.33712 0
M  V30 3539 C 360.823 2.36008 -2.5397 0
M  V30 3540 C 359.884 2.09108 -3.7493 0
M  V30 3541 C 359.117 3.31736 -4.18075 0
M  V30 3542 O 359.34 4.41714 -3.60895 0
M  V30 3543 O 358.274 3.18576 -5.10679 0
M  V30 3544 H 362.1 0.667965 -2.96263 0
M  V30 3545 H 359.685 0.26417 -1.47046 0
M  V30 3546 H 361.567 3.11747 -2.83535 0
M  V30 3547 H 360.242 2.75786 -1.69481 0
M  V30 3548 H 359.149 1.31 -3.50414 0
M  V30 3549 H 360.482 1.74198 -4.60343 0
M  V30 3550 N 362.134 1.5431 0.320358 0
M  V30 3551 C 363.044 1.86946 1.41734 0
M  V30 3552 C 364.06 0.761689 1.56443 0
M  V30 3553 O 365.236 1.05629 1.71477 0
M  V30 3554 C 362.301 2.09293 2.76401 0
M  V30 3555 C 361.362 3.33082 2.70841 0
M  V30 3556 C 360.595 3.54353 3.99086 0
M  V30 3557 O 360.818 2.79002 4.97508 0
M  V30 3558 O 359.752 4.47838 4.0215 0
M  V30 3559 H 363.578 2.80232 1.17062 0
M  V30 3560 H 361.163 1.40255 0.514673 0
M  V30 3561 H 363.045 2.25303 3.56113 0
M  V30 3562 H 361.72 1.19194 3.00956 0
M  V30 3563 H 360.627 3.22454 1.89668 0
M  V30 3564 H 361.96 4.23249 2.5124 0
M  V30 3565 N 363.613 -0.582584 1.46437 0
M  V30 3566 C 364.576 -1.67366 1.56592 0
M  V30 3567 C 365.576 -1.54575 0.443072 0
M  V30 3568 O 366.766 -1.59191 0.707381 0
M  V30 3569 C 363.898 -3.06791 1.48634 0
M  V30 3570 H 365.091 -1.5972 2.5383 0
M  V30 3571 H 362.644 -0.800432 1.34249 0
M  V30 3572 H 363.379 -3.19993 0.526763 0
M  V30 3573 H 363.164 -3.17484 2.30101 0
M  V30 3574 H 364.654 -3.86218 1.58826 0
M  V30 3575 N 365.091 -1.34144 -0.827227 0
M  V30 3576 C 366.054 -1.25264 -1.91942 0
M  V30 3577 C 367.054 -0.168866 -1.59911 0
M  V30 3578 O 368.244 -0.421198 -1.69031 0
M  V30 3579 C 365.376 -0.932952 -3.27885 0
M  V30 3580 H 366.569 -2.22357 -2.0124 0
M  V30 3581 H 364.122 -1.1837 -1.0207 0
M  V30 3582 H 364.857 0.0349917 -3.24281 0
M  V30 3583 H 364.642 -1.71682 -3.52516 0
M  V30 3584 H 366.132 -0.895874 -4.07877 0
M  V30 3585 N 366.569 1.04691 -1.17803 0
M  V30 3586 C 367.846 1.7472 -0.879328 0
M  V30 3587 C 368.226 2.01812 0.619271 0
M  V30 3588 O 367.574 1.65824 1.57209 0
M  V30 3589 C 367.784 3.03686 -1.71976 0
M  V30 3590 C 369.132 3.77542 -1.94286 0
M  V30 3591 O 370.156 3.13569 -1.68976 0
M  V30 3592 O 369.015 4.92506 -2.36855 0
M  V30 3593 H 366.109 0.760011 -0.326056 0
M  V30 3594 H 368.655 1.10813 -1.28525 0
M  V30 3595 H 367.427 2.79754 -2.73594 0
M  V30 3596 H 367.05 3.75332 -1.31194 0
M  V30 3597 N 368.047 0.979072 1.23499 0
M  V30 3598 C 368.977 0.537606 2.27227 0
M  V30 3599 C 369.958 -0.428539 1.64613 0
M  V30 3600 O 371.143 -0.322191 1.91509 0
M  V30 3601 C 368.273 -0.162052 3.46922 0
M  V30 3602 C 367.227 0.721242 4.21879 0
M  V30 3603 C 366.553 -0.110555 5.34586 0
M  V30 3604 C 367.853 2.01141 4.82016 0
M  V30 3605 H 369.547 1.40462 2.64406 0
M  V30 3606 H 367.093 0.67684 1.27102 0
M  V30 3607 H 369.046 -0.482192 4.18632 0
M  V30 3608 H 367.77 -1.06351 3.08799 0
M  V30 3609 H 366.429 1.02482 3.51984 0
M  V30 3610 H 366.077 -1.0125 4.92704 0
M  V30 3611 H 365.777 0.477325 5.85658 0
M  V30 3612 H 367.301 -0.425107 6.09118 0
M  V30 3613 H 368.715 1.75612 5.45741 0
M  V30 3614 H 367.112 2.54695 5.43369 0
M  V30 3615 H 368.182 2.69909 4.02836 0
M  V30 3616 N 369.525 -1.3858 0.750561 0
M  V30 3617 C 370.75 -2.04997 0.314812 0
M  V30 3618 C 371.175 -1.56235 -1.04749 0
M  V30 3619 O 370.533 -0.712981 -1.66692 0
M  V30 3620 C 370.581 -3.58961 0.343415 0
M  V30 3621 O 369.685 -4.07025 -0.663628 0
M  V30 3622 H 369.026 -0.649081 0.139962 0
M  V30 3623 H 371.556 -1.77313 1.02084 0
M  V30 3624 H 371.566 -4.07542 0.193233 0
M  V30 3625 H 370.241 -3.93811 1.33738 0
M  V30 3626 H 368.818 -3.6982 -0.478307 0
M  V30 3627 N 371.003 -0.499398 -1.49478 0
M  V30 3628 C 371.933 0.269244 -2.31943 0
M  V30 3629 C 372.914 0.964054 -1.40143 0
M  V30 3630 O 374.099 0.955767 -1.69052 0
M  V30 3631 C 371.229 1.33504 -3.20615 0
M  V30 3632 C 370.183 0.760202 -4.21195 0
M  V30 3633 C 369.509 1.9264 -4.98792 0
M  V30 3634 C 370.809 -0.247661 -5.21712 0
M  V30 3635 H 372.503 -0.419082 -2.96452 0
M  V30 3636 H 370.049 -0.202988 -1.42562 0
M  V30 3637 H 372.002 1.88048 -3.77115 0
M  V30 3638 H 370.726 2.05253 -2.54045 0
M  V30 3639 H 369.385 0.23653 -3.65836 0
M  V30 3640 H 369.033 2.63154 -4.28671 0
M  V30 3641 H 368.733 1.54785 -5.66847 0
M  V30 3642 H 370.257 2.4762 -5.58137 0
M  V30 3643 H 371.671 0.209579 -5.72917 0
M  V30 3644 H 370.068 -0.541962 -5.97648 0
M  V30 3645 H 371.138 -1.16409 -4.7072 0
M  V30 3646 N 372.481 1.55866 -0.233164 0
M  V30 3647 C 373.729 1.9821 0.394593 0
M  V30 3648 C 374.05 1.12234 1.59463 0
M  V30 3649 O 373.32 0.201981 1.94856 0
M  V30 3650 H 371.9 0.732034 0.148778 0
M  V30 3651 H 374.562 1.92107 -0.32876 0
M  V30 3652 H 373.658 3.03845 0.713063 0
M  V30 3653 N 373.959 -0.0401083 1.57549 0
M  V30 3654 C 375.189 -0.744115 1.92734 0
M  V30 3655 C 375.597 -1.70005 0.830348 0
M  V30 3656 O 374.94 -1.82576 -0.20286 0
M  V30 3657 C 375.002 -1.56516 3.2364 0
M  V30 3658 C 374.666 -0.7752 4.50377 0
M  V30 3659 C 375.663 -0.0803326 5.19838 0
M  V30 3660 C 373.348 -0.733002 4.96923 0
M  V30 3661 C 375.342 0.646154 6.34116 0
M  V30 3662 C 373.029 -0.00276321 6.111 0
M  V30 3663 C 374.027 0.685585 6.7955 0
M  V30 3664 O 373.715 1.40399 7.91545 0
M  V30 3665 H 373.447 -0.214861 0.640945 0
M  V30 3666 H 376.001 -0.00503675 2.05399 0
M  V30 3667 H 374.231 -2.3478 3.07271 0
M  V30 3668 H 375.92 -2.15076 3.44234 0
M  V30 3669 H 376.686 -0.104035 4.84888 0
M  V30 3670 H 372.565 -1.25827 4.43496 0
M  V30 3671 H 376.109 1.18398 6.87479 0
M  V30 3672 H 372.006 0.0229012 6.45496 0
M  V30 3673 H 372.774 1.31653 8.07843 0
M  V30 3674 N 375.437 -1.54477 -0.31217 0
M  V30 3675 C 376.37 -1.79519 -1.40884 0
M  V30 3676 C 377.348 -0.645753 -1.49227 0
M  V30 3677 O 378.532 -0.884468 -1.66461 0
M  V30 3678 C 375.659 -1.92194 -2.78889 0
M  V30 3679 C 374.705 -3.14555 -2.88023 0
M  V30 3680 S 375.538 -4.72893 -2.51262 0
M  V30 3681 C 376.694 -4.8849 -3.91317 0
M  V30 3682 H 376.927 -2.72256 -1.19432 0
M  V30 3683 H 374.46 -1.45746 -0.509654 0
M  V30 3684 H 376.418 -2.00182 -3.58382 0
M  V30 3685 H 375.079 -1.00414 -2.97617 0
M  V30 3686 H 374.272 -3.20193 -3.89221 0
M  V30 3687 H 373.874 -3.04955 -2.16514 0
M  V30 3688 H 376.166 -4.71826 -4.86196 0
M  V30 3689 H 377.109 -5.90588 -3.90656 0
M  V30 3690 H 377.517 -4.16715 -3.80801 0
M  V30 3691 N 376.915 0.57481 -1.46744 0
M  V30 3692 C 377.862 1.68329 -1.57905 0
M  V30 3693 C 378.832 1.60625 -0.422927 0
M  V30 3694 O 380.017 1.79721 -0.640711 0
M  V30 3695 C 377.157 3.06665 -1.58274 0
M  V30 3696 C 376.27 3.24935 -2.84678 0
M  V30 3697 C 375.405 4.53566 -2.76499 0
M  V30 3698 C 374.444 4.65207 -3.97806 0
M  V30 3699 N 373.581 5.85172 -3.87967 0
M  V30 3700 H 378.421 1.58127 -2.52587 0
M  V30 3701 H 375.958 0.770552 -1.25303 0
M  V30 3702 H 377.916 3.86745 -1.56473 0
M  V30 3703 H 376.546 3.15745 -0.671194 0
M  V30 3704 H 375.598 2.38405 -2.96424 0
M  V30 3705 H 376.91 3.29403 -3.7456 0
M  V30 3706 H 376.064 5.41885 -2.72848 0
M  V30 3707 H 374.803 4.51548 -1.8427 0
M  V30 3708 H 373.808 3.75304 -4.0178 0
M  V30 3709 H 375.033 4.68997 -4.9114 0
M  V30 3710 H 372.979 5.84137 -2.98529 0
M  V30 3711 H 372.896 5.90943 -4.71511 0
M  V30 3712 H 374.164 6.759 -3.88303 0
M  V30 3713 N 378.394 1.34581 0.820102 0
M  V30 3714 C 379.619 1.30333 1.61332 0
M  V30 3715 C 380.044 -0.119339 1.87721 0
M  V30 3716 O 379.402 -1.08197 1.45475 0
M  V30 3717 C 379.45 2.10258 2.92957 0
M  V30 3718 O 378.554 1.47404 3.85157 0
M  V30 3719 H 377.895 0.447488 0.490561 0
M  V30 3720 H 380.425 1.77425 1.01889 0
M  V30 3721 H 380.435 2.21718 3.42498 0
M  V30 3722 H 379.11 3.13693 2.73074 0
M  V30 3723 H 377.687 1.44703 3.43679 0
M  V30 3724 N 379.872 -1.04064 1.18357 0
M  V30 3725 C 381.288 -1.2947 0.933258 0
M  V30 3726 C 381.488 -1.97466 -0.401169 0
M  V30 3727 O 380.544 -2.25528 -1.13549 0
M  V30 3728 C 381.857 -2.15337 2.09882 0
M  V30 3729 C 383.405 -2.28683 2.13712 0
M  V30 3730 C 383.88 -3.17917 3.29686 0
M  V30 3731 N 385.371 -3.25504 3.29547 0
M  V30 3732 C 386.106 -3.94706 4.15926 0
M  V30 3733 N 385.602 -4.66239 5.12439 0
M  V30 3734 N 387.395 -3.90986 4.0384 0
M  V30 3735 H 379.546 -0.583359 2.04232 0
M  V30 3736 H 381.809 -0.319921 0.892387 0
M  V30 3737 H 381.515 -1.72682 3.06389 0
M  V30 3738 H 381.389 -3.16015 2.05947 0
M  V30 3739 H 383.776 -2.70575 1.17784 0
M  V30 3740 H 383.857 -1.27596 2.21705 0
M  V30 3741 H 383.501 -2.76736 4.25887 0
M  V30 3742 H 383.431 -4.19036 3.1893 0
M  V30 3743 H 385.922 -2.74547 2.59677 0
M  V30 3744 H 386.235 -5.16638 5.74722 0
M  V30 3745 H 384.58 -4.65143 5.16398 0
M  V30 3746 H 387.771 -3.34234 3.27727 0
M  V30 3747 H 387.944 -4.44646 4.71375 0
M  V30 3748 N 381.35 -0.985608 -1.22978 0
M  V30 3749 C 382.596 -0.65836 -1.91816 0
M  V30 3750 C 382.929 0.806692 -1.76653 0
M  V30 3751 O 382.204 1.58252 -1.13078 0
M  V30 3752 C 382.487 -1.056 -3.44268 0
M  V30 3753 C 382.34 -2.57906 -3.68516 0
M  V30 3754 C 383.659 -0.603781 -4.35939 0
M  V30 3755 H 380.778 -0.24065 -0.696604 0
M  V30 3756 H 383.42 -1.22783 -1.44998 0
M  V30 3757 H 381.57 -0.571445 -3.84274 0
M  V30 3758 H 383.242 -3.13976 -3.3796 0
M  V30 3759 H 381.485 -3.00305 -3.13048 0
M  V30 3760 H 382.156 -2.80779 -4.75255 0
M  V30 3761 H 384.632 -1.01987 -4.03408 0
M  V30 3762 H 383.508 -0.910383 -5.41298 0
M  V30 3763 H 383.769 0.495761 -4.39312 0
M  V30 3764 N 382.828 1.3818 -0.7579 0
M  V30 3765 C 383.775 2.30416 -0.133057 0
M  V30 3766 C 384.745 1.50398 0.704957 0
M  V30 3767 O 385.93 1.79014 0.660192 0
M  V30 3768 C 383.07 3.36834 0.750813 0
M  V30 3769 C 382.183 4.31879 -0.102297 0
M  V30 3770 C 381.318 5.25368 0.784979 0
M  V30 3771 C 380.357 6.12058 -0.0715046 0
M  V30 3772 N 379.494 6.97832 0.772972 0
M  V30 3773 H 384.334 2.83274 -0.925186 0
M  V30 3774 H 381.871 1.39461 -0.467866 0
M  V30 3775 H 383.829 3.97145 1.27794 0
M  V30 3776 H 382.459 2.85374 1.50868 0
M  V30 3777 H 381.511 3.72991 -0.747095 0
M  V30 3778 H 382.823 4.92921 -0.763552 0
M  V30 3779 H 381.977 5.90818 1.37911 0
M  V30 3780 H 380.716 4.64703 1.47996 0
M  V30 3781 H 379.721 5.456 -0.678272 0
M  V30 3782 H 380.946 6.74793 -0.763606 0
M  V30 3783 H 378.892 6.3971 1.45282 0
M  V30 3784 H 378.809 7.55812 0.168709 0
M  V30 3785 H 380.077 7.67687 1.35194 0
M  V30 3786 N 384.306 0.507319 1.49211 0
M  V30 3787 C 385.554 -0.0348839 2.0207 0
M  V30 3788 C 385.875 -1.36898 1.38866 0
M  V30 3789 O 385.145 -1.88133 0.546151 0
M  V30 3790 H 383.725 -0.0158812 0.746831 0
M  V30 3791 H 386.387 0.665998 1.83168 0
M  V30 3792 H 385.483 -0.159917 3.1169 0
M  V30 3793 N 385.784 -1.5574 0.241426 0
M  V30 3794 C 386.714 -2.24133 -0.654722 0
M  V30 3795 C 387.695 -1.21974 -1.1856 0
M  V30 3796 O 388.88 -1.50612 -1.22595 0
M  V30 3797 C 386.01 -2.93659 -1.85423 0
M  V30 3798 C 384.964 -4.0246 -1.45636 0
M  V30 3799 C 384.29 -4.59383 -2.73626 0
M  V30 3800 C 385.59 -5.18468 -0.631506 0
M  V30 3801 H 387.284 -2.99281 -0.0844353 0
M  V30 3802 H 384.83 -1.43947 -0.0391707 0
M  V30 3803 H 386.783 -3.40203 -2.48676 0
M  V30 3804 H 385.507 -2.15991 -2.44981 0
M  V30 3805 H 384.166 -3.56676 -0.847202 0
M  V30 3806 H 383.814 -3.78422 -3.3137 0
M  V30 3807 H 383.514 -5.32826 -2.4773 0
M  V30 3808 H 385.038 -5.08658 -3.37786 0
M  V30 3809 H 386.452 -5.61272 -1.1682 0
M  V30 3810 H 384.849 -5.98266 -0.468831 0
M  V30 3811 H 385.919 -4.8358 0.357506 0
M  V30 3812 N 387.262 0.0317525 -1.57568 0
M  V30 3813 C 388.51 0.721676 -1.88776 0
M  V30 3814 C 388.831 1.76039 -0.838772 0
M  V30 3815 O 388.101 1.95482 0.127935 0
M  V30 3816 H 386.681 0.269534 -0.696678 0
M  V30 3817 H 389.343 -0.00165879 -1.949 0
M  V30 3818 H 388.439 1.21293 -2.87566 0
M  V30 3819 N 388.74 1.54641 0.303973 0
M  V30 3820 C 389.988 1.73437 1.0375 0
M  V30 3821 C 390.309 0.521449 1.87899 0
M  V30 3822 O 389.579 -0.46432 1.90318 0
M  V30 3823 H 388.159 0.639518 0.386039 0
M  V30 3824 H 390.821 1.91988 0.335675 0
M  V30 3825 H 389.917 2.62235 1.69231 0
M  V30 3826 N 390.218 -0.567019 1.47046 0
M  V30 3827 C 391.148 -1.68482 1.61667 0
M  V30 3828 C 392.129 -1.6358 0.466418 0
M  V30 3829 O 393.314 -1.81354 0.694574 0
M  V30 3830 C 390.444 -3.07124 1.62148 0
M  V30 3831 C 389.398 -3.26867 2.76301 0
M  V30 3832 C 388.724 -4.66196 2.61849 0
M  V30 3833 C 390.024 -3.13186 4.17986 0
M  V30 3834 H 391.718 -1.56502 2.5524 0
M  V30 3835 H 389.264 -0.751486 1.22836 0
M  V30 3836 H 391.217 -3.8516 1.70968 0
M  V30 3837 H 389.941 -3.2004 0.651287 0
M  V30 3838 H 388.6 -2.51237 2.66975 0
M  V30 3839 H 388.248 -4.75898 1.62879 0
M  V30 3840 H 387.948 -4.80356 3.38425 0
M  V30 3841 H 389.472 -5.46379 2.72584 0
M  V30 3842 H 390.886 -3.81049 4.2834 0
M  V30 3843 H 389.283 -3.3886 4.95272 0
M  V30 3844 H 390.353 -2.10057 4.3704 0
M  V30 3845 N 391.696 -1.35014 -0.812953 0
M  V30 3846 C 392.945 -1.27269 -1.56479 0
M  V30 3847 C 393.258 0.152771 -1.95002 0
M  V30 3848 O 394.464 0.352451 -2.69203 0
M  V30 3849 C 392.92 -2.23159 -2.82362 0
M  V30 3850 C 392.528 -3.71016 -2.511 0
M  V30 3851 C 394.272 -2.24342 -3.60376 0
M  V30 3852 C 392.179 -4.58746 -3.73237 0
M  V30 3853 H 391.109 -0.472829 -0.587324 0
M  V30 3854 H 393.76 -1.6024 -0.894171 0
M  V30 3855 H 392.142 -1.83151 -3.51101 0
M  V30 3856 H 393.316 -4.1962 -1.90409 0
M  V30 3857 H 391.631 -3.72378 -1.86343 0
M  V30 3858 H 394.228 -2.87107 -4.51081 0
M  V30 3859 H 394.571 -1.24542 -3.97234 0
M  V30 3860 H 395.104 -2.62846 -2.98591 0
M  V30 3861 H 391.843 -5.59521 -3.41492 0
M  V30 3862 H 391.363 -4.14871 -4.33176 0
M  V30 3863 H 393.042 -4.73852 -4.40537 0
M  V30 3864 N 393.175 1.03435 -1.18907 0
M  V30 3865 C 394.421 1.77005 -0.989798 0
M  V30 3866 C 394.754 1.88205 0.478816 0
M  V30 3867 O 394.029 1.39481 1.35556 0
M  V30 3868 C 394.312 3.19925 -1.65287 0
M  V30 3869 C 394.165 3.1663 -3.19477 0
M  V30 3870 C 395.484 4.18189 -1.37134 0
M  V30 3871 H 392.603 0.642538 -0.360991 0
M  V30 3872 H 395.245 1.20784 -1.46667 0
M  V30 3873 H 393.395 3.67929 -1.24741 0
M  V30 3874 H 395.067 2.76567 -3.692 0
M  V30 3875 H 393.31 2.54491 -3.51307 0
M  V30 3876 H 393.981 4.1758 -3.61013 0
M  V30 3877 H 396.457 3.78761 -1.72276 0
M  V30 3878 H 395.333 5.16394 -1.86087 0
M  V30 3879 H 395.594 4.41112 -0.295424 0
M  V30 3880 N 394.653 0.992116 1.22453 0
M  V30 3881 C 395.899 0.668523 1.91464 0
M  V30 3882 C 396.232 -0.797313 1.77078 0
M  V30 3883 O 395.507 -1.5765 1.13916 0
M  V30 3884 C 395.79 1.07424 3.43703 0
M  V30 3885 C 395.643 2.59857 3.67143 0
M  V30 3886 C 396.962 0.626891 4.35612 0
M  V30 3887 H 394.081 0.244341 0.695318 0
M  V30 3888 H 396.723 1.2355 1.44345 0
M  V30 3889 H 394.873 0.591816 3.83966 0
M  V30 3890 H 396.545 3.15764 3.3629 0
M  V30 3891 H 394.788 3.01961 3.11451 0
M  V30 3892 H 395.459 2.83296 4.73759 0
M  V30 3893 H 397.935 1.04125 4.02861 0
M  V30 3894 H 396.811 0.939076 5.40807 0
M  V30 3895 H 397.072 -0.472457 4.39568 0
M  V30 3896 N 396.131 -1.37776 0.765217 0
M  V30 3897 C 397.356 -2.04651 0.336537 0
M  V30 3898 C 397.781 -1.57337 -1.03086 0
M  V30 3899 O 397.139 -0.730621 -1.65927 0
M  V30 3900 C 397.187 -3.58577 0.381468 0
M  V30 3901 O 396.291 -4.07706 -0.62042 0
M  V30 3902 H 395.632 -0.64756 0.146838 0
M  V30 3903 H 398.162 -1.76221 1.03959 0
M  V30 3904 H 398.172 -4.07314 0.236448 0
M  V30 3905 H 396.847 -3.9237 1.37907 0
M  V30 3906 H 395.424 -3.70306 -0.439056 0
M  V30 3907 N 397.609 -0.515225 -1.4894 0
M  V30 3908 C 398.556 0.255567 -2.29381 0
M  V30 3909 C 399.526 0.947387 -1.36432 0
M  V30 3910 O 400.711 0.951288 -1.65394 0
M  V30 3911 C 397.851 1.30551 -3.19453 0
M  V30 3912 C 396.964 0.624029 -4.27469 0
M  V30 3913 C 396.099 1.65563 -5.0474 0
M  V30 3914 C 395.138 0.956802 -6.04576 0
M  V30 3915 N 394.275 1.93326 -6.74959 0
M  V30 3916 H 399.115 -0.436607 -2.94784 0
M  V30 3917 H 396.652 -0.227154 -1.45336 0
M  V30 3918 H 398.61 1.92639 -3.70062 0
M  V30 3919 H 397.24 1.96626 -2.56004 0
M  V30 3920 H 396.292 -0.110459 -3.8024 0
M  V30 3921 H 397.604 0.0746092 -4.98744 0
M  V30 3922 H 396.758 2.35119 -5.59289 0
M  V30 3923 H 395.497 2.23893 -4.3327 0
M  V30 3924 H 394.502 0.247097 -5.49244 0
M  V30 3925 H 395.727 0.379814 -6.78037 0
M  V30 3926 H 393.673 2.50591 -6.06251 0
M  V30 3927 H 393.59 1.43489 -7.42258 0
M  V30 3928 H 394.858 2.62126 -7.34105 0
M  V30 3929 N 399.087 1.5561 -0.249682 0
M  V30 3930 C 400.315 2.03411 0.378352 0
M  V30 3931 C 400.73 1.12886 1.51335 0
M  V30 3932 O 400.087 0.143833 1.81932 0
M  V30 3933 C 400.138 3.50537 0.88351 0
M  V30 3934 O 399.859 4.37614 -0.20626 0
M  V30 3935 C 401.36 4.14113 1.58195 0
M  V30 3936 H 398.58 0.664994 0.08958 0
M  V30 3937 H 401.124 2.01044 -0.374357 0
M  V30 3938 H 399.279 3.5343 1.58639 0
M  V30 3939 H 399.693 5.24199 0.177782 0
M  V30 3940 H 401.167 5.18741 1.8871 0
M  V30 3941 H 401.644 3.60767 2.50487 0
M  V30 3942 H 402.25 4.15151 0.923573 0
M  V30 3943 N 400.565 -0.0233959 1.57583 0
M  V30 3944 C 401.813 -0.711654 1.89156 0
M  V30 3945 C 402.134 -1.75591 0.848096 0
M  V30 3946 O 401.404 -1.95547 -0.117566 0
M  V30 3947 H 399.984 -0.265835 0.698098 0
M  V30 3948 H 402.646 0.0119948 1.94896 0
M  V30 3949 H 401.742 -1.19766 2.88206 0
M  V30 3950 N 402.043 -1.548 -0.295768 0
M  V30 3951 C 403.32 -1.65014 -1.05023 0
M  V30 3952 C 403.7 -0.501805 -2.05049 0
M  V30 3953 O 403.048 0.500869 -2.22943 0
M  V30 3954 C 403.258 -3.03252 -1.72741 0
M  V30 3955 C 404.606 -3.60242 -2.24746 0
M  V30 3956 O 405.63 -3.05737 -1.82765 0
M  V30 3957 O 404.489 -4.55687 -3.01681 0
M  V30 3958 H 401.583 -0.669314 -0.485744 0
M  V30 3959 H 404.129 -1.67144 -0.293438 0
M  V30 3960 H 402.901 -3.7827 -1.00138 0
M  V30 3961 H 402.524 -3.04922 -2.55163 0
M  V30 3962 N 403.521 0.559213 -1.47345 0
M  V30 3963 C 404.767 1.31614 -1.55079 0
M  V30 3964 C 405.122 1.91257 -0.209422 0
M  V30 3965 O 404.415 1.74796 0.784656 0
M  V30 3966 C 404.609 2.44853 -2.6035 0
M  V30 3967 C 404.438 1.96305 -4.04591 0
M  V30 3968 C 403.208 1.8024 -4.72061 0
M  V30 3969 C 405.406 1.50872 -4.91673 0
M  V30 3970 N 403.388 1.26011 -6.00828 0
M  V30 3971 C 404.759 1.08395 -6.10451 0
M  V30 3972 C 406.814 1.38905 -4.78132 0
M  V30 3973 C 405.517 0.551399 -7.17183 0
M  V30 3974 C 407.543 0.870518 -5.84958 0
M  V30 3975 C 406.905 0.455661 -7.02925 0
M  V30 3976 H 403.004 0.473712 -0.62219 0
M  V30 3977 H 405.588 0.634103 -1.84085 0
M  V30 3978 H 403.759 3.10589 -2.33215 0
M  V30 3979 H 405.491 3.11849 -2.57938 0
M  V30 3980 H 402.246 2.02895 -4.27937 0
M  V30 3981 H 402.67 1.00991 -6.69425 0
M  V30 3982 H 407.312 1.69591 -3.87297 0
M  V30 3983 H 405.03 0.232159 -8.07766 0
M  V30 3984 H 408.616 0.781507 -5.76527 0
M  V30 3985 H 407.496 0.0606414 -7.84177 0
M  V30 3986 N 404.999 1.35443 0.805782 0
M  V30 3987 C 406.245 1.28952 1.56522 0
M  V30 3988 C 406.578 -0.135597 1.93726 0
M  V30 3989 O 405.853 -1.08516 1.61414 0
M  V30 3990 C 406.136 2.19678 2.85331 0
M  V30 3991 C 405.989 3.7081 2.54598 0
M  V30 3992 C 407.308 2.09495 3.8704 0
M  V30 3993 H 404.427 0.469764 0.567883 0
M  V30 3994 H 407.069 1.65851 0.927001 0
M  V30 3995 H 405.219 1.8834 3.39795 0
M  V30 3996 H 406.891 4.12593 2.06312 0
M  V30 3997 H 405.134 3.91051 1.8778 0
M  V30 3998 H 405.805 4.29679 3.46525 0
M  V30 3999 H 408.281 2.37045 3.41978 0
M  V30 4000 H 407.157 2.75173 4.74943 0
M  V30 4001 H 407.418 1.07714 4.28777 0
M  V30 4002 N 406.477 -1.02803 1.19454 0
M  V30 4003 C 407.44 -2.09264 0.934955 0
M  V30 4004 C 408.44 -1.60576 -0.0849015 0
M  V30 4005 O 409.63 -1.73554 0.149933 0
M  V30 4006 C 406.762 -3.38482 0.40531 0
M  V30 4007 H 407.955 -2.33726 1.87916 0
M  V30 4008 H 405.508 -1.19426 1.00832 0
M  V30 4009 H 406.243 -3.19689 -0.544899 0
M  V30 4010 H 406.028 -3.75142 1.14065 0
M  V30 4011 H 407.518 -4.16894 0.242806 0
M  V30 4012 N 407.956 -0.998596 -1.21925 0
M  V30 4013 C 408.903 -0.553621 -2.24062 0
M  V30 4014 C 409.873 0.416999 -1.6078 0
M  V30 4015 O 411.058 0.320482 -1.88089 0
M  V30 4016 C 408.198 0.119959 -3.44891 0
M  V30 4017 C 407.311 -0.893077 -4.22668 0
M  V30 4018 C 406.446 -0.192424 -5.30851 0
M  V30 4019 C 405.485 -1.19344 -6.00353 0
M  V30 4020 N 404.622 -0.520707 -7.00166 0
M  V30 4021 H 409.462 -1.4293 -2.61486 0
M  V30 4022 H 406.999 -0.715838 -1.28507 0
M  V30 4023 H 408.957 0.527459 -4.13852 0
M  V30 4024 H 407.587 0.959389 -3.08214 0
M  V30 4025 H 406.639 -1.41886 -3.52948 0
M  V30 4026 H 407.951 -1.65512 -4.70539 0
M  V30 4027 H 407.105 0.271515 -6.06092 0
M  V30 4028 H 405.844 0.602075 -4.83969 0
M  V30 4029 H 404.849 -1.66795 -5.23889 0
M  V30 4030 H 406.074 -1.98891 -6.49322 0
M  V30 4031 H 404.02 0.254252 -6.55507 0
M  V30 4032 H 403.937 -1.2211 -7.46073 0
M  V30 4033 H 405.205 -0.0797596 -7.79459 0
M  V30 4034 N 409.434 1.37368 -0.772513 0
M  V30 4035 C 410.68 2.00423 -0.3467 0
M  V30 4036 C 411.035 1.60224 1.06518 0
M  V30 4037 O 410.328 0.838712 1.72268 0
M  V30 4038 C 410.522 3.54817 -0.428876 0
M  V30 4039 C 410.351 4.10011 -1.84719 0
M  V30 4040 C 409.121 4.40927 -2.46803 0
M  V30 4041 C 411.319 4.30955 -2.80681 0
M  V30 4042 N 409.301 4.8184 -3.80399 0
M  V30 4043 C 410.672 4.74486 -3.99078 0
M  V30 4044 C 412.727 4.1309 -2.77958 0
M  V30 4045 C 411.43 5.02023 -5.15136 0
M  V30 4046 C 413.456 4.41764 -3.9319 0
M  V30 4047 C 412.818 4.85535 -5.10328 0
M  V30 4048 H 408.917 0.762413 -0.173927 0
M  V30 4049 H 411.501 1.66666 -1.00651 0
M  V30 4050 H 409.672 3.87881 0.200757 0
M  V30 4051 H 411.404 4.04696 0.0190668 0
M  V30 4052 H 408.159 4.30033 -1.98415 0
M  V30 4053 H 408.583 5.06604 -4.49089 0
M  V30 4054 H 413.225 3.7842 -1.88568 0
M  V30 4055 H 410.943 5.35582 -6.05126 0
M  V30 4056 H 414.529 4.29528 -3.92425 0
M  V30 4057 H 413.409 5.07296 -5.98013 0
M  V30 4058 N 410.912 0.523116 1.48665 0
M  V30 4059 C 412.14 -0.0096312 2.06898 0
M  V30 4060 C 412.555 -1.28784 1.38059 0
M  V30 4061 O 411.912 -1.76453 0.465893 0
M  V30 4062 C 411.963 -0.244386 3.60673 0
M  V30 4063 O 411.684 0.983172 4.26925 0
M  V30 4064 C 413.185 -0.818289 4.35682 0
M  V30 4065 H 410.405 0.0304161 0.67031 0
M  V30 4066 H 412.949 0.726799 1.91149 0
M  V30 4067 H 411.104 -0.930847 3.76051 0
M  V30 4068 H 411.518 0.759653 5.1897 0
M  V30 4069 H 412.992 -0.93201 5.44075 0
M  V30 4070 H 413.469 -1.82153 3.99646 0
M  V30 4071 H 414.075 -0.168609 4.24966 0
M  V30 4072 N 412.39 -1.55475 0.257931 0
M  V30 4073 C 413.615 -2.04064 -0.370488 0
M  V30 4074 C 414.04 -1.13565 -1.49948 0
M  V30 4075 O 413.398 -0.130781 -1.80828 0
M  V30 4076 C 413.446 -3.50554 -0.845237 0
M  V30 4077 O 412.55 -3.63173 -1.95394 0
M  V30 4078 H 411.891 -0.659257 -0.0792243 0
M  V30 4079 H 414.421 -2.00903 0.387212 0
M  V30 4080 H 414.431 -3.91588 -1.14555 0
M  V30 4081 H 413.106 -4.15896 -0.0191259 0
M  V30 4082 H 411.683 -3.34039 -1.65748 0
M  V30 4083 N 413.868 0.0150385 -1.57593 0
M  V30 4084 C 415.096 0.714395 -1.94175 0
M  V30 4085 C 415.511 1.68135 -0.858841 0
M  V30 4086 O 414.868 1.81766 0.163567 0
M  V30 4087 C 414.919 1.45933 -3.30735 0
M  V30 4088 O 414.64 0.531167 -4.34868 0
M  V30 4089 C 416.141 2.25456 -3.81686 0
M  V30 4090 H 413.361 0.199923 -0.640525 0
M  V30 4091 H 415.905 -0.0316096 -2.04476 0
M  V30 4092 H 414.06 2.15709 -3.21789 0
M  V30 4093 H 414.474 1.05509 -5.13778 0
M  V30 4094 H 415.948 2.731 -4.79709 0
M  V30 4095 H 416.425 3.07485 -3.13607 0
M  V30 4096 H 417.031 1.60727 -3.9376 0
M  V30 4097 N 415.346 1.54954 0.287554 0
M  V30 4098 C 416.571 1.79209 1.04397 0
M  V30 4099 C 416.996 0.556431 1.79682 0
M  V30 4100 O 416.354 -0.493518 1.74454 0
M  V30 4101 C 416.402 3.00739 1.98969 0
M  V30 4102 O 415.506 2.74805 3.075 0
M  V30 4103 H 414.847 0.592755 0.299227 0
M  V30 4104 H 417.377 2.02068 0.320886 0
M  V30 4105 H 417.387 3.29077 2.4119 0
M  V30 4106 H 416.062 3.90329 1.43582 0
M  V30 4107 H 414.639 2.57523 2.69697 0
M  V30 4108 N 416.824 -0.551391 1.4764 0
M  V30 4109 C 417.757 -1.6738 1.5511 0
M  V30 4110 C 418.735 -1.5753 0.402856 0
M  V30 4111 O 419.919 -1.78307 0.611475 0
M  V30 4112 C 417.046 -3.05661 1.45908 0
M  V30 4113 C 416.092 -3.33938 2.65307 0
M  V30 4114 S 416.925 -3.22553 4.27457 0
M  V30 4115 C 418.081 -4.63317 4.20818 0
M  V30 4116 H 418.314 -1.6079 2.50068 0
M  V30 4117 H 415.847 -0.732674 1.35909 0
M  V30 4118 H 417.805 -3.8542 1.41286 0
M  V30 4119 H 416.466 -3.09711 0.523248 0
M  V30 4120 H 415.659 -4.34761 2.54948 0
M  V30 4121 H 415.261 -2.61809 2.67081 0
M  V30 4122 H 417.553 -5.54391 3.89431 0
M  V30 4123 H 418.496 -4.78732 5.21748 0
M  V30 4124 H 418.904 -4.41636 3.51593 0
M  V30 4125 N 418.302 -1.35869 -0.798587 0
M  V30 4126 C 419.713 -1.26498 -1.37314 0
M  V30 4127 C 420.064 0.0991899 -1.95949 0
M  V30 4128 O 419.189 1.0004 -1.91888 0
M  V30 4129 C 419.784 -2.29054 -2.49639 0
M  V30 4130 C 418.343 -2.234 -3.02935 0
M  V30 4131 C 417.49 -2.14329 -1.75949 0
M  V30 4132 H 420.441 -1.46881 -0.600971 0
M  V30 4133 H 420.462 -1.92166 -3.28409 0
M  V30 4134 H 419.974 -3.2833 -2.06933 0
M  V30 4135 H 418.075 -1.27562 -3.50084 0
M  V30 4136 H 418.188 -3.15703 -3.60372 0
M  V30 4137 H 416.552 -1.60435 -1.9782 0
M  V30 4138 H 417.335 -3.15477 -1.35384 0
M  V30 4139 N 419.78 1.02168 -1.19998 0
M  V30 4140 C 421.026 1.7606 -1.01855 0
M  V30 4141 C 421.381 1.87178 0.445222 0
M  V30 4142 O 420.674 1.3828 1.32624 0
M  V30 4143 C 420.868 3.18081 -1.62969 0
M  V30 4144 C 420.697 3.20809 -3.15137 0
M  V30 4145 C 419.467 3.28342 -3.84083 0
M  V30 4146 C 421.665 3.07268 -4.1242 0
M  V30 4147 N 419.647 3.2052 -5.23584 0
M  V30 4148 C 421.018 3.0716 -5.38566 0
M  V30 4149 C 423.073 2.91448 -4.03686 0
M  V30 4150 C 421.776 2.92853 -6.56985 0
M  V30 4151 C 423.802 2.78494 -5.21723 0
M  V30 4152 C 423.164 2.79046 -6.46771 0
M  V30 4153 H 419.263 0.655192 -0.426905 0
M  V30 4154 H 421.847 1.21564 -1.52087 0
M  V30 4155 H 420.018 3.70882 -1.15329 0
M  V30 4156 H 421.75 3.80375 -1.38192 0
M  V30 4157 H 418.505 3.34859 -3.34913 0
M  V30 4158 H 418.929 3.19997 -5.96599 0
M  V30 4159 H 423.571 2.89838 -3.07821 0
M  V30 4160 H 421.289 2.93213 -7.53028 0
M  V30 4161 H 424.875 2.67278 -5.16773 0
M  V30 4162 H 423.755 2.69134 -7.36571 0
M  V30 4163 N 421.258 1.00505 1.21394 0
M  V30 4164 C 422.221 0.570459 2.21987 0
M  V30 4165 C 423.221 -0.353211 1.56873 0
M  V30 4166 O 424.411 -0.14349 1.73608 0
M  V30 4167 C 421.543 -0.168555 3.40483 0
M  V30 4168 H 422.736 1.46021 2.6195 0
M  V30 4169 H 420.289 0.793565 1.34656 0
M  V30 4170 H 421.024 -1.07374 3.06009 0
M  V30 4171 H 420.809 0.494823 3.88965 0
M  V30 4172 H 422.299 -0.460362 4.15055 0
M  V30 4173 N 422.737 -1.36956 0.779787 0
M  V30 4174 C 423.7 -2.2851 0.177662 0
M  V30 4175 C 424.7 -1.48393 -0.619377 0
M  V30 4176 O 425.89 -1.68505 -0.441785 0
M  V30 4177 C 423.022 -3.32428 -0.755279 0
M  V30 4178 H 424.215 -2.83269 0.984823 0
M  V30 4179 H 421.768 -1.46358 0.548544 0
M  V30 4180 H 422.503 -2.82808 -1.58714 0
M  V30 4181 H 422.288 -3.91659 -0.185817 0
M  V30 4182 H 423.778 -4.00824 -1.17174 0
M  V30 4183 N 424.215 -0.530993 -1.48385 0
M  V30 4184 C 425.178 0.220497 -2.28137 0
M  V30 4185 C 426.178 0.866851 -1.35434 0
M  V30 4186 O 427.368 0.726746 -1.58316 0
M  V30 4187 C 424.5 1.31921 -3.1434 0
M  V30 4188 H 425.693 -0.479714 -2.96038 0
M  V30 4189 H 423.246 -0.286968 -1.53643 0
M  V30 4190 H 423.981 2.05264 -2.51072 0
M  V30 4191 H 423.766 0.86085 -3.82533 0
M  V30 4192 H 425.256 1.84776 -3.74497 0
M  V30 4193 N 425.693 1.55336 -0.266172 0
M  V30 4194 C 426.64 2.22172 0.625165 0
M  V30 4195 C 427.61 1.19211 1.15663 0
M  V30 4196 O 428.795 1.47723 1.20758 0
M  V30 4197 C 425.935 2.93972 1.8076 0
M  V30 4198 C 425.048 4.11632 1.31084 0
M  V30 4199 C 424.183 4.71099 2.45436 0
M  V30 4200 C 423.222 5.8097 1.92718 0
M  V30 4201 N 422.359 6.34538 3.00509 0
M  V30 4202 H 427.199 2.9796 0.0485582 0
M  V30 4203 H 424.736 1.47095 0.0122024 0
M  V30 4204 H 426.694 3.33811 2.50251 0
M  V30 4205 H 425.324 2.20623 2.35638 0
M  V30 4206 H 424.376 3.76975 0.509326 0
M  V30 4207 H 425.688 4.90893 0.884633 0
M  V30 4208 H 424.842 5.13612 3.22936 0
M  V30 4209 H 423.581 3.91096 2.91368 0
M  V30 4210 H 422.586 5.37916 1.13695 0
M  V30 4211 H 423.811 6.62836 1.47733 0
M  V30 4212 H 421.757 5.57433 3.45839 0
M  V30 4213 H 421.674 7.09046 2.62279 0
M  V30 4214 H 422.942 6.81709 3.78011 0
M  V30 4215 N 427.171 -0.0066808 1.57599 0
M  V30 4216 C 428.448 -0.729586 1.81484 0
M  V30 4217 C 428.828 -1.92359 0.869558 0
M  V30 4218 O 428.176 -2.28348 -0.0832533 0
M  V30 4219 C 428.386 -1.1416 3.29801 0
M  V30 4220 C 429.734 -1.54823 3.95367 0
M  V30 4221 O 430.758 -1.23558 3.34084 0
M  V30 4222 O 429.617 -2.12937 5.03309 0
M  V30 4223 H 426.711 -0.354674 0.747085 0
M  V30 4224 H 429.257 0.0182609 1.6969 0
M  V30 4225 H 428.029 -0.290231 3.90222 0
M  V30 4226 H 427.652 -1.94876 3.46568 0
M  V30 4227 N 428.649 -1.55105 -0.279332 0
M  V30 4228 C 429.897 -1.75066 -1.00977 0
M  V30 4229 C 430.218 -0.551276 -1.87045 0
M  V30 4230 O 429.488 0.433984 -1.91032 0
M  V30 4231 H 428.068 -0.645578 -0.375816 0
M  V30 4232 H 430.73 -1.92497 -0.305089 0
M  V30 4233 H 429.826 -2.64894 -1.65038 0
M  V30 4234 N 430.127 0.543554 -1.4793 0
M  V30 4235 C 431.074 1.64942 -1.6144 0
M  V30 4236 C 432.044 1.59692 -0.456903 0
M  V30 4237 O 433.229 1.78321 -0.678688 0
M  V30 4238 C 430.369 3.03238 -1.64744 0
M  V30 4239 C 429.482 3.18823 -2.91506 0
M  V30 4240 C 428.617 4.47599 -2.86057 0
M  V30 4241 C 427.656 4.56664 -4.07584 0
M  V30 4242 N 426.793 5.76811 -4.00292 0
M  V30 4243 H 431.633 1.52733 -2.55884 0
M  V30 4244 H 429.17 0.7438 -1.2691 0
M  V30 4245 H 431.128 3.83339 -1.64641 0
M  V30 4246 H 429.758 3.1425 -0.738017 0
M  V30 4247 H 428.81 2.32064 -3.01414 0
M  V30 4248 H 430.122 3.21384 -3.81463 0
M  V30 4249 H 429.276 5.35975 -2.84281 0
M  V30 4250 H 428.015 4.47538 -1.93807 0
M  V30 4251 H 427.02 3.66697 -4.09651 0
M  V30 4252 H 428.245 4.58474 -5.00978 0
M  V30 4253 H 426.191 5.77673 -3.10853 0
M  V30 4254 H 426.108 5.80808 -4.8394 0
M  V30 4255 H 427.376 6.67512 -4.02553 0
M  V30 4256 N 431.605 1.3629 0.791371 0
M  V30 4257 C 432.535 1.33137 1.91825 0
M  V30 4258 C 433.516 0.203168 1.68882 0
M  V30 4259 O 434.701 0.400509 1.90025 0
M  V30 4260 C 431.831 1.11793 3.28816 0
M  V30 4261 C 430.785 2.21417 3.66277 0
M  V30 4262 C 430.111 1.85218 5.01596 0
M  V30 4263 C 431.411 3.63489 3.75064 0
M  V30 4264 H 433.105 2.2743 1.9472 0
M  V30 4265 H 430.651 1.09479 0.935437 0
M  V30 4266 H 432.604 1.08222 4.07266 0
M  V30 4267 H 431.328 0.139501 3.26302 0
M  V30 4268 H 429.987 2.2411 2.90121 0
M  V30 4269 H 429.635 0.859544 4.95602 0
M  V30 4270 H 429.335 2.58611 5.27631 0
M  V30 4271 H 430.859 1.832 5.82469 0
M  V30 4272 H 432.273 3.63034 4.43711 0
M  V30 4273 H 430.67 4.35771 4.12582 0
M  V30 4274 H 431.74 3.98536 2.76219 0
M  V30 4275 N 433.083 -1.0153 1.20538 0
M  V30 4276 C 434.033 -2.08482 0.922991 0
M  V30 4277 C 435.017 -1.60469 -0.117702 0
M  V30 4278 O 436.209 -1.76772 0.0898465 0
M  V30 4279 C 433.338 -3.39952 0.478312 0
M  V30 4280 C 432.424 -3.94662 1.5525 0
M  V30 4281 N 432.815 -4.22866 2.77521 0
M  V30 4282 C 431.113 -4.22825 1.41897 0
M  V30 4283 C 431.814 -4.67002 3.4682 0
M  V30 4284 N 430.79 -4.69356 2.74237 0
M  V30 4285 H 434.592 -2.28199 1.85209 0
M  V30 4286 H 432.106 -1.19512 1.09957 0
M  V30 4287 H 434.103 -4.16105 0.257408 0
M  V30 4288 H 432.763 -3.21648 -0.444148 0
M  V30 4289 H 433.774 -4.11732 3.1416 0
M  V30 4290 H 430.451 -4.13714 0.561015 0
M  V30 4291 H 431.841 -4.97632 4.51455 0
M  V30 4292 N 434.561 -1.01147 -1.20859 0
M  V30 4293 C 435.808 -0.697865 -1.90095 0
M  V30 4294 C 436.136 0.772014 -1.78522 0
M  V30 4295 O 435.391 1.57595 -1.16027 0
M  V30 4296 C 435.69 -1.0727 -3.40922 0
M  V30 4297 C 435.356 -2.53792 -3.72693 0
M  V30 4298 C 434.018 -2.93829 -3.81075 0
M  V30 4299 C 436.37 -3.48674 -3.87397 0
M  V30 4300 C 433.698 -4.27696 -4.01613 0
M  V30 4301 C 436.05 -4.82223 -4.09444 0
M  V30 4302 C 434.714 -5.21973 -4.16054 0
M  V30 4303 H 433.984 -0.255367 -0.695607 0
M  V30 4304 H 436.631 -1.27111 -1.43231 0
M  V30 4305 H 434.936 -0.417799 -3.89566 0
M  V30 4306 H 436.633 -0.807818 -3.92779 0
M  V30 4307 H 433.223 -2.21768 -3.66765 0
M  V30 4308 H 437.407 -3.18904 -3.80281 0
M  V30 4309 H 432.663 -4.58055 -4.04964 0
M  V30 4310 H 436.837 -5.55672 -4.19763 0
M  V30 4311 H 434.464 -6.25717 -4.31721 0
M  V30 4312 N 436.039 1.36541 -0.78704 0
M  V30 4313 C 437.287 1.98911 -0.357633 0
M  V30 4314 C 437.608 1.62778 1.07371 0
M  V30 4315 O 436.878 0.900612 1.73971 0
M  V30 4316 H 435.458 0.735734 -0.129246 0
M  V30 4317 H 438.12 1.66776 -1.00855 0
M  V30 4318 H 437.216 3.08874 -0.447549 0
M  V30 4319 N 437.518 0.538854 1.48102 0
M  V30 4320 C 438.767 0.0059532 2.01699 0
M  V30 4321 C 439.08 -1.34476 1.42041 0
M  V30 4322 O 440.286 -1.96653 1.87189 0
M  V30 4323 C 438.742 -0.0397627 3.59878 0
M  V30 4324 C 438.35 1.30659 4.28523 0
M  V30 4325 C 440.094 -0.521024 4.2129 0
M  V30 4326 C 438.001 1.22098 5.78659 0
M  V30 4327 H 436.931 -0.00154456 0.753998 0
M  V30 4328 H 439.582 0.683963 1.70277 0
M  V30 4329 H 437.964 -0.783037 3.88181 0
M  V30 4330 H 439.138 2.06613 4.11883 0
M  V30 4331 H 437.453 1.7243 3.79021 0
M  V30 4332 H 440.05 -0.603184 5.31287 0
M  V30 4333 H 440.393 -1.52885 3.8721 0
M  V30 4334 H 440.926 0.166834 3.9745 0
M  V30 4335 H 437.665 2.20424 6.17328 0
M  V30 4336 H 437.185 0.50295 5.97688 0
M  V30 4337 H 438.864 0.915345 6.40492 0
M  V30 4338 N 438.996 -1.55193 0.274407 0
M  V30 4339 C 440.273 -1.91584 -0.394331 0
M  V30 4340 C 440.653 -1.19858 -1.73774 0
M  V30 4341 O 440.001 -0.3252 -2.26174 0
M  V30 4342 C 440.211 -3.4487 -0.535311 0
M  V30 4343 C 441.559 -4.16636 -0.818534 0
M  V30 4344 O 442.583 -3.5076 -0.620146 0
M  V30 4345 O 441.442 -5.33209 -1.19792 0
M  V30 4346 H 438.536 -0.798349 -0.215794 0
M  V30 4347 H 441.082 -1.66646 0.320507 0
M  V30 4348 H 439.854 -3.89145 0.410141 0
M  V30 4349 H 439.477 -3.75759 -1.29964 0
M  V30 4350 N 440.474 -0.00167713 -1.576 0
M  V30 4351 C 441.885 0.54091 -1.78693 0
M  V30 4352 C 442.236 1.7386 -0.909247 0
M  V30 4353 O 441.361 2.16109 -0.112176 0
M  V30 4354 C 441.956 0.98806 -3.24072 0
M  V30 4355 C 440.515 1.47594 -3.46256 0
M  V30 4356 C 439.662 0.42792 -2.73978 0
M  V30 4357 H 442.613 -0.22784 -1.57056 0
M  V30 4358 H 442.634 1.85398 -3.32277 0
M  V30 4359 H 442.146 0.116164 -3.87926 0
M  V30 4360 H 440.247 2.36868 -2.87618 0
M  V30 4361 H 440.36 1.50225 -4.54939 0
M  V30 4362 H 438.724 0.889934 -2.38647 0
M  V30 4363 H 439.507 -0.435038 -3.40532 0
M  V30 4364 N 441.952 1.55251 0.271103 0
M  V30 4365 C 443.229 1.66664 1.02384 0
M  V30 4366 C 443.609 0.534363 2.04225 0
M  V30 4367 O 442.957 -0.465337 2.23712 0
M  V30 4368 C 443.167 3.05961 1.67895 0
M  V30 4369 C 444.515 3.63772 2.18986 0
M  V30 4370 O 445.539 3.08606 1.77878 0
M  V30 4371 O 444.398 4.60429 2.94393 0
M  V30 4372 H 441.492 0.676957 0.475035 0
M  V30 4373 H 444.038 1.67589 0.26681 0
M  V30 4374 H 442.81 3.79815 0.941071 0
M  V30 4375 H 442.433 3.08943 2.5028 0
M  V30 4376 N 443.43 -0.535701 1.48216 0
M  V30 4377 C 444.707 -1.29683 1.46429 0
M  V30 4378 C 445.087 -2.10391 0.172852 0
M  V30 4379 O 444.435 -2.12282 -0.845488 0
M  V30 4380 C 444.645 -2.18313 2.72287 0
M  V30 4381 C 445.993 -2.78639 3.20383 0
M  V30 4382 O 447.017 -2.28604 2.73164 0
M  V30 4383 O 445.876 -3.69636 4.02531 0
M  V30 4384 H 442.97 -0.585026 0.584529 0
M  V30 4385 H 445.516 -0.552827 1.60443 0
M  V30 4386 H 444.288 -1.58421 3.57797 0
M  V30 4387 H 443.911 -2.99971 2.60966 0
M  V30 4388 N 444.908 -1.36708 -0.784132 0
M  V30 4389 C 446.136 -1.34398 -1.57305 0
M  V30 4390 C 446.551 0.0735577 -1.88657 0
M  V30 4391 O 445.908 1.03193 -1.50524 0
M  V30 4392 C 445.959 -2.17053 -2.89085 0
M  V30 4393 O 445.68 -3.53281 -2.59083 0
M  V30 4394 C 447.181 -2.22583 -3.83369 0
M  V30 4395 H 444.401 -0.460819 -0.487736 0
M  V30 4396 H 446.945 -1.79879 -0.972819 0
M  V30 4397 H 445.1 -1.75113 -3.45564 0
M  V30 4398 H 445.514 -3.9647 -3.43383 0
M  V30 4399 H 446.988 -2.84763 -4.72878 0
M  V30 4400 H 447.465 -1.23075 -4.21603 0
M  V30 4401 H 448.071 -2.64781 -3.32823 0
M  V30 4402 N 446.386 1.0089 -1.21074 0
M  V30 4403 C 447.614 1.78191 -1.05145 0
M  V30 4404 C 448.029 1.84537 0.398952 0
M  V30 4405 O 447.386 1.30393 1.27687 0
M  V30 4406 C 447.437 3.22288 -1.63746 0
M  V30 4407 O 447.158 3.16315 -3.03111 0
M  V30 4408 C 448.659 4.16106 -1.52875 0
M  V30 4409 H 445.879 0.560129 -0.369454 0
M  V30 4410 H 448.423 1.26945 -1.60328 0
M  V30 4411 H 446.578 3.70655 -1.12664 0
M  V30 4412 H 446.992 4.06817 -3.31059 0
M  V30 4413 H 448.466 5.15026 -1.98626 0
M  V30 4414 H 448.943 4.36541 -0.482521 0
M  V30 4415 H 449.549 3.73625 -2.03185 0
M  V30 4416 N 447.864 1.01787 1.20321 0
M  V30 4417 C 449.113 0.703249 1.89043 0
M  V30 4418 C 449.426 -0.770445 1.79787 0
M  V30 4419 O 450.632 -1.19767 2.43656 0
M  V30 4420 C 449.088 1.20749 3.3904 0
M  V30 4421 C 448.696 2.70817 3.56878 0
M  V30 4422 C 450.44 0.968352 4.13308 0
M  V30 4423 C 448.347 3.14716 5.00708 0
M  V30 4424 H 447.277 0.259354 0.707991 0
M  V30 4425 H 449.928 1.23072 1.36108 0
M  V30 4426 H 448.31 0.607989 3.91305 0
M  V30 4427 H 449.484 3.36327 3.14993 0
M  V30 4428 H 447.799 2.92888 2.95983 0
M  V30 4429 H 450.396 1.27173 5.19356 0
M  V30 4430 H 450.739 -0.095149 4.16191 0
M  V30 4431 H 451.272 1.53129 3.67146 0
M  V30 4432 H 448.011 4.20347 5.02979 0
M  V30 4433 H 447.531 2.53927 5.43398 0
M  V30 4434 H 449.21 3.07426 5.69296 0
M  V30 4435 N 449.342 -1.36122 0.79427 0
M  V30 4436 C 450.57 -2.03362 0.380989 0
M  V30 4437 C 450.985 -1.59881 -1.00416 0
M  V30 4438 O 450.342 -0.790515 -1.6449 0
M  V30 4439 C 450.393 -3.58804 0.440649 0
M  V30 4440 O 450.114 -4.007 1.77118 0
M  V30 4441 C 451.615 -4.43296 0.0186117 0
M  V30 4442 H 448.835 -0.652526 0.156367 0
M  V30 4443 H 451.379 -1.73998 1.07447 0
M  V30 4444 H 449.534 -3.8686 -0.204458 0
M  V30 4445 H 449.948 -4.95309 1.72538 0
M  V30 4446 H 451.422 -5.51887 0.111488 0
M  V30 4447 H 451.899 -4.2684 -1.03461 0
M  V30 4448 H 452.505 -4.20512 0.636395 0
M  V30 4449 N 450.82 -0.546701 -1.47814 0
M  V30 4450 C 452.097 0.0464413 -1.95545 0
M  V30 4451 C 452.477 1.4962 -1.48919 0
M  V30 4452 O 451.825 2.16752 -0.723232 0
M  V30 4453 C 452.035 -0.0881298 -3.48889 0
M  V30 4454 C 453.383 0.0626059 -4.24554 0
M  V30 4455 O 454.407 -0.0151555 -3.56197 0
M  V30 4456 O 453.266 0.228071 -5.46024 0
M  V30 4457 H 450.36 0.0700004 -0.824032 0
M  V30 4458 H 452.906 -0.612482 -1.58262 0
M  V30 4459 H 451.678 -1.09737 -3.75597 0
M  V30 4460 H 451.301 0.608886 -3.9291 0
M  V30 4461 N 452.299 1.55045 -0.282633 0
M  V30 4462 C 453.229 2.2579 0.595066 0
M  V30 4463 C 454.21 1.25074 1.15284 0
M  V30 4464 O 455.395 1.5381 1.18559 0
M  V30 4465 C 452.525 2.98472 1.77572 0
M  V30 4466 C 451.479 4.0618 1.34914 0
M  V30 4467 C 450.805 4.66477 2.6135 0
M  V30 4468 C 452.105 5.1996 0.493821 0
M  V30 4469 H 453.799 2.994 0.00505653 0
M  V30 4470 H 451.345 1.44 0.000992001 0
M  V30 4471 H 453.298 3.46677 2.39568 0
M  V30 4472 H 452.022 2.2241 2.39168 0
M  V30 4473 H 450.681 3.58797 0.752338 0
M  V30 4474 H 450.329 3.87074 3.2122 0
M  V30 4475 H 450.029 5.39207 2.33516 0
M  V30 4476 H 451.553 5.17435 3.24181 0
M  V30 4477 H 452.967 5.64172 1.01898 0
M  V30 4478 H 451.364 5.99299 0.310047 0
M  V30 4479 H 452.434 4.82462 -0.485593 0
M  V30 4480 N 453.777 0.010035 1.57597 0
M  V30 4481 C 455.188 -0.531426 1.78977 0
M  V30 4482 C 455.539 -1.73375 0.918454 0
M  V30 4483 O 454.664 -2.16047 0.123635 0
M  V30 4484 C 455.259 -0.97086 3.24592 0
M  V30 4485 C 453.818 -1.45756 3.47033 0
M  V30 4486 C 452.965 -0.413384 2.74201 0
M  V30 4487 H 455.916 0.236166 1.56933 0
M  V30 4488 H 455.937 -1.83633 3.33255 0
M  V30 4489 H 455.449 -0.0955893 3.87982 0
M  V30 4490 H 453.55 -2.35339 2.88871 0
M  V30 4491 H 453.663 -1.4781 4.55729 0
M  V30 4492 H 452.027 -0.877266 2.39115 0
M  V30 4493 H 452.81 0.453092 3.40297 0
M  V30 4494 O 455.294 -1.6096 -0.132018 0
M  V30 4495 H 455.985 -1.77966 -0.764703 0
M  V30 END ATOM
M  V30 BEGIN BOND
M  V30 END BOND
M  V30 END CTAB
M  END
$$$$
