drugbank_target|P13631 Retinoic acid receptor gamma (DB00210; DB00459; DB00523; DB00755; DB00799; DB00926; DB00982; DB02258; DB02466; DB02741; DB03279; DB03466; DB05467; DB05785; DB07031; DB07294; DB12808)
 OpenBabel12092119253D

  0  0  0     0  0            999 V3000
M  V30 BEGIN CTAB
M  V30 COUNTS 7039 7116 0 0 0
M  V30 BEGIN ATOM
M  V30 1 H -0.908 1.98254 -0.117106 0
M  V30 2 N 0 1.576 0 0
M  V30 3 C 0.933 2.03868 1.02534 0
M  V30 4 C 1.911 0.928543 1.3348 0
M  V30 5 O 3.095 1.19667 1.45644 0
M  V30 6 C 0.222 2.43627 2.35294 0
M  V30 7 C -0.732 3.65373 2.2001 0
M  V30 8 S 0.101 5.13292 1.52614 0
M  V30 9 C 1.257 5.56322 2.86805 0
M  V30 10 H 1.49 2.90518 0.631377 0
M  V30 11 H -0.977 1.52953 0.210867 0
M  V30 12 H 0.981 2.67203 3.11629 0
M  V30 13 H -0.358 1.57376 2.7183 0
M  V30 14 H -1.165 3.90944 3.18086 0
M  V30 15 H -1.563 3.418 1.51819 0
M  V30 16 H 0.729 5.58782 3.83104 0
M  V30 17 H 1.672 6.56266 2.65933 0
M  V30 18 H 2.08 4.83886 2.90714 0
M  V30 19 N 1.4781 -0.272755 1.55222 0
M  V30 20 C 2.4411 -1.32041 1.87344 0
M  V30 21 C 3.4411 -1.42342 0.74803 0
M  V30 22 O 4.6311 -1.41488 1.0162 0
M  V30 23 C 1.7631 -2.70173 2.07893 0
M  V30 24 H 2.9561 -1.04789 2.80997 0
M  V30 25 H 0.5091 -0.51083 1.47717 0
M  V30 26 H 1.2441 -3.02605 1.16622 0
M  V30 27 H 1.0291 -2.64082 2.89833 0
M  V30 28 H 2.5191 -3.45869 2.34017 0
M  V30 29 N 2.9562 -1.48159 -0.537278 0
M  V30 30 C 4.1842 -1.59454 -1.31841 0
M  V30 31 C 4.5992 -0.252065 -1.8711 0
M  V30 32 O 3.9562 0.757621 -1.66031 0
M  V30 33 C 4.0072 -2.63546 -2.47439 0
M  V30 34 O 3.7282 -3.92583 -1.94449 0
M  V30 35 C 5.2292 -2.85212 -3.39366 0
M  V30 36 H 2.4492 -0.53785 -0.401196 0
M  V30 37 H 4.9932 -1.93932 -0.648891 0
M  V30 38 H 3.1482 -2.31946 -3.1029 0
M  V30 39 H 3.5622 -4.49629 -2.70063 0
M  V30 40 H 5.0362 -3.61863 -4.16844 0
M  V30 41 H 5.5132 -1.93765 -3.94147 0
M  V30 42 H 6.1192 -3.18086 -2.82314 0
M  V30 43 N 4.4343 0.785586 -1.36625 0
M  V30 44 C 5.3823 1.91978 -1.31329 0
M  V30 45 C 6.3763 1.68162 -0.204416 0
M  V30 46 O 7.5823 1.76122 -0.371645 0
M  V30 47 H 3.9573 0.631087 -0.408942 0
M  V30 48 H 5.9283 1.93562 -2.27104 0
M  V30 49 C 4.6773 3.29055 -1.12329 0
M  V30 50 H 4.0003 3.4795 -1.96903 0
M  V30 51 H 5.4403 4.08756 -1.12671 0
M  V30 52 C 3.8993 3.36461 0.171861 0
M  V30 53 O 4.4293 3.84576 1.16035 0
M  V30 54 N 2.6353 2.89782 0.217846 0
M  V30 55 H 2.1823 2.50819 -0.587183 0
M  V30 56 H 2.1403 2.95119 1.08408 0
M  V30 57 N 5.9124 1.20967 1.01018 0
M  V30 58 C 6.8594 0.964281 2.09691 0
M  V30 59 C 7.8294 -0.107853 1.65749 0
M  V30 60 O 9.0144 0.0381987 1.90762 0
M  V30 61 C 6.1544 0.52943 3.41015 0
M  V30 62 C 5.2674 1.67043 3.98398 0
M  V30 63 C 4.4024 1.18525 5.17808 0
M  V30 64 C 3.4414 2.29892 5.67288 0
M  V30 65 N 2.5784 1.82546 6.77954 0
M  V30 66 H 7.4184 1.89463 2.30017 0
M  V30 67 H 4.9554 0.944289 1.1279 0
M  V30 68 H 6.9134 0.258588 4.16398 0
M  V30 69 H 5.5434 -0.363919 3.20742 0
M  V30 70 H 4.5954 2.05603 3.20049 0
M  V30 71 H 5.9074 2.50877 4.31117 0
M  V30 72 H 5.0614 0.870762 6.00419 0
M  V30 73 H 3.8004 0.316887 4.86669 0
M  V30 74 H 2.8054 2.6215 4.83278 0
M  V30 75 H 4.0304 3.17216 6.00459 0
M  V30 76 H 1.9764 0.980454 6.48632 0
M  V30 77 H 1.8934 2.59956 7.09901 0
M  V30 78 H 3.1614 1.54115 7.64113 0
M  V30 79 N 7.3905 -1.2043 1.01659 0
M  V30 80 C 8.3005 -2.2689 0.596484 0
M  V30 81 C 9.3165 -1.70107 -0.36599 0
M  V30 82 O 10.4925 -2.00117 -0.226942 0
M  V30 83 C 7.5575 -3.4665 -0.0586659 0
M  V30 84 C 6.6185 -4.18662 0.949751 0
M  V30 85 C 5.8515 -5.32705 0.32577 0
M  V30 86 O 6.0745 -5.63656 -0.874509 0
M  V30 87 O 5.0085 -5.92803 1.04249 0
M  V30 88 H 8.8345 -2.65041 1.4828 0
M  V30 89 H 6.4195 -1.27048 0.786082 0
M  V30 90 H 8.3015 -4.19256 -0.424564 0
M  V30 91 H 6.9765 -3.10375 -0.91918 0
M  V30 92 H 5.8835 -3.48229 1.36702 0
M  V30 93 H 7.2165 -4.58878 1.78023 0
M  V30 94 N 8.8686 -0.792821 -1.36206 0
M  V30 95 C 10.2846 -0.474903 -1.52371 0
M  V30 96 C 10.4846 1.00622 -1.74578 0
M  V30 97 O 9.5406 1.79162 -1.77924 0
M  V30 98 C 10.8536 -1.3083 -2.70747 0
M  V30 99 C 12.4016 -1.30234 -2.84619 0
M  V30 100 C 12.8766 -2.11956 -4.06004 0
M  V30 101 N 14.3676 -2.09419 -4.13156 0
M  V30 102 C 15.1026 -2.69419 -5.06163 0
M  V30 103 N 14.5986 -3.3829 -6.04592 0
M  V30 104 N 16.3916 -2.59134 -4.98804 0
M  V30 105 H 8.5426 -1.75222 -1.20046 0
M  V30 106 H 10.8056 -0.745024 -0.586211 0
M  V30 107 H 10.5116 -2.35881 -2.6087 0
M  V30 108 H 10.3856 -0.95196 -3.6499 0
M  V30 109 H 12.7726 -0.259748 -2.93955 0
M  V30 110 H 12.8536 -1.69847 -1.91274 0
M  V30 111 H 12.4976 -3.16248 -3.97429 0
M  V30 112 H 12.4276 -1.69711 -4.98503 0
M  V30 113 H 14.9186 -1.59297 -3.42685 0
M  V30 114 H 15.2316 -3.81394 -6.7213 0
M  V30 115 H 13.5766 -3.42393 -6.04807 0
M  V30 116 H 16.7676 -2.04927 -4.20859 0
M  V30 117 H 16.9406 -3.06185 -5.711 0
M  V30 118 N 10.3467 1.47872 -0.545128 0
M  V30 119 C 11.2767 2.32661 0.197793 0
M  V30 120 C 12.2577 1.43041 0.920504 0
M  V30 121 O 13.4427 1.71912 0.90333 0
M  V30 122 C 10.5727 3.24569 1.23582 0
M  V30 123 C 9.5267 4.23333 0.630323 0
M  V30 124 C 8.8527 5.0448 1.77211 0
M  V30 125 C 10.1527 5.20704 -0.407974 0
M  V30 126 H 11.8467 2.95024 -0.510045 0
M  V30 127 H 9.3927 1.4187 -0.246731 0
M  V30 128 H 11.3457 3.8272 1.76362 0
M  V30 129 H 10.0697 2.60236 1.97344 0
M  V30 130 H 8.7287 3.6639 0.123922 0
M  V30 131 H 8.3767 4.36561 2.49847 0
M  V30 132 H 8.0767 5.71339 1.37281 0
M  V30 133 H 9.6007 5.65487 2.3034 0
M  V30 134 H 11.0147 5.7329 0.033305 0
M  V30 135 H 9.4117 5.95699 -0.725486 0
M  V30 136 H 10.4817 4.66917 -1.30828 0
M  V30 137 N 11.8248 0.280983 1.55075 0
M  V30 138 C 13.0718 -0.334115 1.99725 0
M  V30 139 C 13.3998 -1.5542 1.1694 0
M  V30 140 O 12.6548 -1.94361 0.228531 0
M  V30 141 C 12.9538 -0.754656 3.49342 0
M  V30 142 C 12.6198 0.361445 4.49449 0
M  V30 143 C 11.2818 0.667893 4.76542 0
M  V30 144 C 13.6338 1.11322 5.09173 0
M  V30 145 C 10.9618 1.7296 5.60626 0
M  V30 146 C 13.3138 2.1647 5.9441 0
M  V30 147 C 11.9778 2.47742 6.19822 0
M  V30 148 H 11.2478 -0.122261 0.730844 0
M  V30 149 H 13.8948 0.395917 1.87363 0
M  V30 150 H 12.1998 -1.56446 3.5921 0
M  V30 151 H 13.8968 -1.24142 3.813 0
M  V30 152 H 10.4868 0.112481 4.28452 0
M  V30 153 H 14.6708 0.88973 4.8826 0
M  V30 154 H 9.9268 1.97684 5.78559 0
M  V30 155 H 14.1008 2.75193 6.3972 0
M  V30 156 H 11.7278 3.30145 6.84769 0
M  V30 157 N 13.3029 -1.57598 0.00835791 0
M  V30 158 C 14.2659 -2.07884 -0.965242 0
M  V30 159 C 15.2659 -0.989825 -1.26725 0
M  V30 160 O 16.4559 -1.25218 -1.21104 0
M  V30 161 C 13.5879 -2.52731 -2.28779 0
M  V30 162 H 14.7809 -2.95178 -0.530112 0
M  V30 163 H 12.3339 -1.54458 -0.239283 0
M  V30 164 H 13.0689 -1.68705 -2.76964 0
M  V30 165 H 12.8539 -3.32272 -2.08177 0
M  V30 166 H 14.3439 -2.91933 -2.98605 0
M  V30 167 N 14.781 0.264519 -1.55364 0
M  V30 168 C 15.744 1.31046 -1.88042 0
M  V30 169 C 16.744 1.41943 -0.755569 0
M  V30 170 O 17.934 1.40947 -1.02369 0
M  V30 171 C 15.066 2.69067 -2.09323 0
M  V30 172 H 16.259 1.03297 -2.81549 0
M  V30 173 H 13.812 0.502989 -1.47986 0
M  V30 174 H 14.547 3.01982 -1.18226 0
M  V30 175 H 14.332 2.62542 -2.91229 0
M  V30 176 H 15.822 3.44623 -2.35848 0
M  V30 177 N 16.2591 1.48442 0.529413 0
M  V30 178 C 17.5071 1.56179 1.28267 0
M  V30 179 C 17.8281 0.237721 1.93546 0
M  V30 180 O 17.0981 -0.740779 1.81354 0
M  V30 181 H 15.6781 0.575367 0.476405 0
M  V30 182 H 18.3401 1.84909 0.61602 0
M  V30 183 H 17.4361 2.34312 2.06165 0
M  V30 184 N 17.7372 -0.778329 1.37039 0
M  V30 185 C 18.7002 -1.87301 1.32102 0
M  V30 186 C 19.7002 -1.59198 0.226405 0
M  V30 187 O 20.8902 -1.67403 0.481861 0
M  V30 188 C 18.0222 -3.24309 1.05055 0
M  V30 189 H 19.2152 -1.93093 2.29467 0
M  V30 190 H 16.7682 -0.977358 1.21973 0
M  V30 191 H 17.5032 -3.24196 0.0819373 0
M  V30 192 H 17.2882 -3.46098 1.84279 0
M  V30 193 H 18.7782 -4.04382 1.04234 0
M  V30 194 N 19.2153 -1.21501 -1.00376 0
M  V30 195 C 20.1453 -0.999478 -2.11028 0
M  V30 196 C 21.1263 0.0759671 -1.6993 0
M  V30 197 O 22.3113 -0.0841106 -1.94018 0
M  V30 198 C 19.4413 -0.564709 -3.42678 0
M  V30 199 C 18.3953 -1.58486 -3.97576 0
M  V30 200 C 17.7213 -1.00628 -5.25146 0
M  V30 201 C 19.0213 -2.97204 -4.29496 0
M  V30 202 H 20.7153 -1.92495 -2.29317 0
M  V30 203 H 18.2613 -0.92693 -1.102 0
M  V30 204 H 20.2143 -0.401091 -4.19487 0
M  V30 205 H 18.9383 0.396411 -3.24185 0
M  V30 206 H 17.5973 -1.73606 -3.22888 0
M  V30 207 H 17.2453 -0.0368439 -5.02987 0
M  V30 208 H 16.9453 -1.68771 -5.62841 0
M  V30 209 H 18.4693 -0.854015 -6.04598 0
M  V30 210 H 19.8833 -2.8552 -4.97143 0
M  V30 211 H 18.2803 -3.62372 -4.78338 0
M  V30 212 H 19.3503 -3.47956 -3.3772 0
M  V30 213 N 20.6934 1.19889 -1.02296 0
M  V30 214 C 21.9414 1.89046 -0.714558 0
M  V30 215 C 22.2624 1.79636 0.758681 0
M  V30 216 O 21.5324 1.20292 1.54618 0
M  V30 217 H 20.1124 0.699802 -0.261317 0
M  V30 218 H 22.7744 1.45574 -1.29592 0
M  V30 219 H 21.8704 2.95524 -1.0036 0
M  V30 220 N 22.1715 0.800033 1.35784 0
M  V30 221 C 23.5825 0.439142 1.81462 0
M  V30 222 C 23.9335 -1.03813 1.66485 0
M  V30 223 O 23.0585 -1.80626 1.19177 0
M  V30 224 C 23.6535 0.790314 3.29453 0
M  V30 225 C 22.2125 0.482111 3.733 0
M  V30 226 C 21.3595 1.01938 2.57883 0
M  V30 227 H 24.3105 0.992254 1.23855 0
M  V30 228 H 24.3315 0.0853677 3.80404 0
M  V30 229 H 23.8435 1.86554 3.40322 0
M  V30 230 H 21.9445 -0.584652 3.67984 0
M  V30 231 H 22.0575 1.01015 4.6833 0
M  V30 232 H 20.4215 0.442043 2.50835 0
M  V30 233 H 21.2045 2.10059 2.71533 0
M  V30 234 N 23.6496 -1.47581 0.552962 0
M  V30 235 C 24.8976 -2.02082 0.0272703 0
M  V30 236 C 25.2186 -1.4301 -1.32563 0
M  V30 237 O 24.4886 -0.603745 -1.86365 0
M  V30 238 H 23.0686 -0.746966 0.00709182 0
M  V30 239 H 25.7306 -1.81033 0.722008 0
M  V30 240 H 24.8266 -3.12034 -0.0639951 0
M  V30 241 N 25.1277 -0.289203 -1.54924 0
M  V30 242 C 26.3527 0.329299 -2.04769 0
M  V30 243 C 26.7777 1.4763 -1.16564 0
M  V30 244 O 26.1357 1.80527 -0.167186 0
M  V30 245 C 26.1837 0.774438 -3.52186 0
M  V30 246 O 25.2877 1.88038 -3.67036 0
M  V30 247 H 24.6287 0.0659259 -0.660719 0
M  V30 248 H 27.1587 -0.42761 -2.00082 0
M  V30 249 H 27.1687 1.06642 -3.93816 0
M  V30 250 H 25.8437 -0.0646707 -4.1585 0
M  V30 251 H 24.4207 1.58985 -3.3731 0
M  V30 252 N 26.6058 1.57591 -0.0167156 0
M  V30 253 C 27.8538 1.90906 0.663285 0
M  V30 254 C 28.1748 0.892509 1.73376 0
M  V30 255 O 27.4448 -0.0677623 1.95783 0
M  V30 256 H 26.0248 0.704637 0.247983 0
M  V30 257 H 28.6868 1.94803 -0.0615909 0
M  V30 258 H 27.7828 2.9116 1.12393 0
M  V30 259 N 28.0839 -0.256276 1.55502 0
M  V30 260 C 29.3139 -1.00196 1.80677 0
M  V30 261 C 29.7219 -1.79805 0.588797 0
M  V30 262 O 29.0649 -1.78055 -0.451883 0
M  V30 263 C 29.1269 -1.99515 2.99055 0
M  V30 264 C 28.7909 -1.38688 4.35448 0
M  V30 265 C 29.7879 -0.794079 5.138 0
M  V30 266 C 27.4729 -1.40906 4.82132 0
M  V30 267 C 29.4669 -0.231562 6.36979 0
M  V30 268 C 27.1539 -0.842684 6.05262 0
M  V30 269 C 28.1519 -0.254953 6.82524 0
M  V30 270 O 27.8399 0.3027 8.0333 0
M  V30 271 H 27.5719 -0.300919 0.60533 0
M  V30 272 H 30.1259 -0.287307 2.03381 0
M  V30 273 H 28.3559 -2.74785 2.72084 0
M  V30 274 H 30.0449 -2.60349 3.11405 0
M  V30 275 H 30.8109 -0.769519 4.78856 0
M  V30 276 H 26.6899 -1.85591 4.21992 0
M  V30 277 H 30.2339 0.227816 6.97228 0
M  V30 278 H 26.1309 -0.86454 6.39684 0
M  V30 279 H 26.8989 0.193662 8.18271 0
M  V30 280 N 29.562 -1.4872 -0.521534 0
M  V30 281 C 30.973 -1.50607 -1.10337 0
M  V30 282 C 31.324 -0.280612 -1.94183 0
M  V30 283 O 30.449 0.611507 -2.0758 0
M  V30 284 C 31.044 -2.72903 -2.00772 0
M  V30 285 C 29.603 -2.77634 -2.54158 0
M  V30 286 C 28.75 -2.44241 -1.31307 0
M  V30 287 H 31.701 -1.55714 -0.306388 0
M  V30 288 H 31.722 -2.519 -2.85178 0
M  V30 289 H 31.234 -3.62077 -1.39721 0
M  V30 290 H 29.335 -1.92689 -3.18907 0
M  V30 291 H 29.448 -3.79283 -2.92714 0
M  V30 292 H 27.812 -1.95577 -1.63161 0
M  V30 293 H 28.595 -3.35666 -0.719943 0
M  V30 294 N 31.0401 0.771051 -1.3745 0
M  V30 295 C 32.2881 1.52661 -1.32435 0
M  V30 296 C 32.6091 1.9479 0.0905024 0
M  V30 297 O 31.8791 1.66348 1.03466 0
M  V30 298 H 30.4591 0.566218 -0.487244 0
M  V30 299 H 33.1211 0.917636 -1.71946 0
M  V30 300 H 32.2171 2.42568 -1.96385 0
M  V30 301 N 32.5182 1.22032 0.997298 0
M  V30 302 C 33.4812 0.987909 2.06816 0
M  V30 303 C 34.4812 -0.0440084 1.6074 0
M  V30 304 O 35.6712 0.194053 1.73116 0
M  V30 305 C 32.8032 0.49132 3.37341 0
M  V30 306 H 33.9962 1.93803 2.28868 0
M  V30 307 H 31.5492 1.03838 1.16822 0
M  V30 308 H 32.2842 -0.463364 3.20973 0
M  V30 309 H 32.0692 1.23575 3.72118 0
M  V30 310 H 33.5592 0.348824 4.16141 0
M  V30 311 N 33.9963 -1.19345 1.0293 0
M  V30 312 C 35.2443 -1.88665 0.724574 0
M  V30 313 C 35.5653 -1.80036 -0.749144 0
M  V30 314 O 34.8353 -1.2111 -1.53978 0
M  V30 315 H 33.4153 -0.698406 0.265025 0
M  V30 316 H 36.0773 -1.44885 1.30362 0
M  V30 317 H 35.1733 -2.94987 1.01926 0
M  V30 318 N 35.4744 -0.807222 -1.35358 0
M  V30 319 C 36.7214 -0.387888 -1.9875 0
M  V30 320 C 37.0494 1.04509 -1.64037 0
M  V30 321 O 36.3044 1.73986 -0.895946 0
M  V30 322 C 36.6034 -0.519036 -3.53611 0
M  V30 323 C 36.2694 -1.91542 -4.08194 0
M  V30 324 C 34.9314 -2.29745 -4.22813 0
M  V30 325 C 37.2834 -2.82896 -4.37744 0
M  V30 326 C 34.6114 -3.58668 -4.643 0
M  V30 327 C 36.9634 -4.11265 -4.8067 0
M  V30 328 C 35.6274 -4.49466 -4.93494 0
M  V30 329 H 34.8974 -0.141938 -0.727279 0
M  V30 330 H 37.5444 -1.02814 -1.6156 0
M  V30 331 H 35.8494 0.204658 -3.91265 0
M  V30 332 H 37.5464 -0.175345 -4.00616 0
M  V30 333 H 34.1364 -1.60862 -3.97268 0
M  V30 334 H 38.3204 -2.54629 -4.26002 0
M  V30 335 H 33.5764 -3.88113 -4.72418 0
M  V30 336 H 37.7504 -4.82153 -5.02496 0
M  V30 337 H 35.3774 -5.49418 -5.25399 0
M  V30 338 N 36.9525 1.47285 -0.560781 0
M  V30 339 C 38.3635 1.86258 -0.128343 0
M  V30 340 C 38.7145 1.46699 1.30284 0
M  V30 341 O 37.8395 0.871698 1.98067 0
M  V30 342 C 38.4345 3.38044 -0.22614 0
M  V30 343 C 36.9935 3.76096 0.151283 0
M  V30 344 C 36.1405 2.71335 -0.572084 0
M  V30 345 H 39.0915 1.38752 -0.770297 0
M  V30 346 H 39.1125 3.76441 0.554322 0
M  V30 347 H 38.6245 3.66806 -1.26788 0
M  V30 348 H 36.7255 3.52951 1.19399 0
M  V30 349 H 36.8385 4.78641 -0.209765 0
M  V30 350 H 35.2025 2.54696 -0.0147653 0
M  V30 351 H 35.9855 3.02938 -1.61504 0
M  V30 352 N 38.4306 0.297415 1.54768 0
M  V30 353 C 39.6776 -0.312913 2.00068 0
M  V30 354 C 40.0056 -1.54171 1.18582 0
M  V30 355 O 39.2606 -1.94108 0.249133 0
M  V30 356 C 39.5596 -0.717561 3.50123 0
M  V30 357 C 39.2256 0.409095 4.4904 0
M  V30 358 C 37.8876 0.718399 4.75807 0
M  V30 359 C 40.2396 1.16717 5.07963 0
M  V30 360 C 37.5676 1.78896 5.5876 0
M  V30 361 C 39.9196 2.22762 5.92081 0
M  V30 362 C 38.5836 2.54303 6.1716 0
M  V30 363 H 37.8536 -0.114503 0.7321 0
M  V30 364 H 40.5006 0.415767 1.86932 0
M  V30 365 H 38.8056 -1.52627 3.60849 0
M  V30 366 H 40.5026 -1.20091 3.82595 0
M  V30 367 H 37.0926 0.157918 4.28309 0
M  V30 368 H 41.2766 0.941466 4.87289 0
M  V30 369 H 36.5326 2.0381 5.7643 0
M  V30 370 H 40.7066 2.81962 6.36765 0
M  V30 371 H 38.3336 3.3739 6.81229 0
M  V30 372 N 39.9087 -1.5758 0.0250728 0
M  V30 373 C 40.8717 -2.08896 -0.943139 0
M  V30 374 C 41.8717 -1.00321 -1.25668 0
M  V30 375 O 43.0617 -1.26495 -1.19769 0
M  V30 376 C 40.1937 -2.55143 -2.26086 0
M  V30 377 H 41.3867 -2.95723 -0.498775 0
M  V30 378 H 38.9397 -1.54703 -0.222888 0
M  V30 379 H 39.6747 -1.71633 -2.75159 0
M  V30 380 H 39.4597 -3.34461 -2.04641 0
M  V30 381 H 40.9497 -2.95083 -2.95492 0
M  V30 382 N 41.3868 0.248026 -1.55636 0
M  V30 383 C 42.6338 0.976224 -1.77415 0
M  V30 384 C 42.9618 1.85361 -0.589193 0
M  V30 385 O 42.2168 1.90973 0.427529 0
M  V30 386 C 42.5158 1.86819 -3.04686 0
M  V30 387 C 42.1818 1.14625 -4.36087 0
M  V30 388 C 40.8438 0.946723 -4.71795 0
M  V30 389 C 43.1958 0.634463 -5.17324 0
M  V30 390 C 40.5238 0.223091 -5.86276 0
M  V30 391 C 42.8758 -0.0756959 -6.32555 0
M  V30 392 C 41.5398 -0.286711 -6.66884 0
M  V30 393 H 40.8098 0.357226 -0.649208 0
M  V30 394 H 43.4568 0.246415 -1.89908 0
M  V30 395 H 41.7618 2.66502 -2.872 0
M  V30 396 H 43.4588 2.43329 -3.18735 0
M  V30 397 H 40.0488 1.3117 -4.08035 0
M  V30 398 H 44.2328 0.77616 -4.90193 0
M  V30 399 H 39.4888 0.0491185 -6.1138 0
M  V30 400 H 43.6628 -0.479899 -6.94745 0
M  V30 401 H 41.2898 -0.849389 -7.5544 0
M  V30 402 N 42.8649 1.48995 0.513639 0
M  V30 403 C 44.2759 1.5119 1.09537 0
M  V30 404 C 44.6269 0.290906 1.94031 0
M  V30 405 O 43.7519 -0.60049 2.07902 0
M  V30 406 C 44.3469 2.73964 1.99322 0
M  V30 407 C 42.9059 2.78978 2.52682 0
M  V30 408 C 42.0529 2.44934 1.30009 0
M  V30 409 H 45.0039 1.55875 0.298125 0
M  V30 410 H 45.0249 2.53409 2.83838 0
M  V30 411 H 44.5369 3.62813 1.37799 0
M  V30 412 H 42.6379 1.94378 3.1788 0
M  V30 413 H 42.7509 3.8083 2.90698 0
M  V30 414 H 41.1149 1.9644 1.62122 0
M  V30 415 H 41.8979 3.36043 0.702131 0
M  V30 416 N 44.343 -0.763751 1.37857 0
M  V30 417 C 45.591 -1.51957 1.33243 0
M  V30 418 C 45.912 -1.94835 -0.0801709 0
M  V30 419 O 45.182 -1.66894 -1.02582 0
M  V30 420 H 43.762 -0.563626 0.49024 0
M  V30 421 H 46.424 -0.908504 1.7243 0
M  V30 422 H 45.52 -2.41523 1.97669 0
M  V30 423 N 45.8211 -1.22559 -0.990812 0
M  V30 424 C 46.7841 -0.998863 -2.0629 0
M  V30 425 C 47.7841 0.0354834 -1.60761 0
M  V30 426 O 48.9741 -0.203231 -1.7301 0
M  V30 427 C 46.1061 -0.509203 -3.37076 0
M  V30 428 H 47.2991 -1.95014 -2.27837 0
M  V30 429 H 44.8521 -1.04456 -1.16269 0
M  V30 430 H 45.5871 0.446335 -3.21214 0
M  V30 431 H 45.3721 -1.25547 -3.71457 0
M  V30 432 H 46.8621 -0.370888 -4.1595 0
M  V30 433 N 47.2992 1.18797 -1.03562 0
M  V30 434 C 48.2292 2.24472 -0.643019 0
M  V30 435 C 49.2102 1.66433 0.351283 0
M  V30 436 O 50.3952 1.92803 0.232505 0
M  V30 437 C 47.5252 3.473 4.24935e-05 0
M  V30 438 C 46.4792 4.18055 -0.917257 0
M  V30 439 C 45.8052 5.34519 -0.138941 0
M  V30 440 C 47.1052 4.72109 -2.23407 0
M  V30 441 H 48.7992 2.57566 -1.52643 0
M  V30 442 H 46.3452 1.23806 -0.735394 0
M  V30 443 H 48.2982 4.20426 0.286383 0
M  V30 444 H 47.0222 3.13424 0.918299 0
M  V30 445 H 45.6812 3.46821 -1.1879 0
M  V30 446 H 45.3292 4.96891 0.781562 0
M  V30 447 H 45.0292 5.82794 -0.750005 0
M  V30 448 H 46.5532 6.10438 0.1405 0
M  V30 449 H 47.9672 5.36955 -2.00879 0
M  V30 450 H 46.3642 5.30897 -2.79765 0
M  V30 451 H 47.4342 3.89807 -2.88407 0
M  V30 452 N 48.7773 0.814389 1.34928 0
M  V30 453 C 50.1933 0.499084 1.51596 0
M  V30 454 C 50.3933 -0.978319 1.76157 0
M  V30 455 O 49.4493 -1.76309 1.80752 0
M  V30 456 C 50.7623 1.35121 2.68631 0
M  V30 457 C 52.3103 1.34746 2.82511 0
M  V30 458 C 52.7853 2.18388 4.0258 0
M  V30 459 N 54.2763 2.15966 4.09772 0
M  V30 460 C 55.0113 2.77437 5.01813 0
M  V30 461 N 54.5073 3.47866 5.99134 0
M  V30 462 N 56.3003 2.67037 4.94619 0
M  V30 463 H 48.4513 1.7711 1.17243 0
M  V30 464 H 50.7143 0.754256 0.574284 0
M  V30 465 H 50.4203 2.40001 2.57085 0
M  V30 466 H 50.2943 1.00991 3.63429 0
M  V30 467 H 52.6813 0.30648 2.93504 0
M  V30 468 H 52.7623 1.72869 1.88547 0
M  V30 469 H 52.4063 3.2253 3.92347 0
M  V30 470 H 52.3363 1.77621 4.9574 0
M  V30 471 H 54.8273 1.64729 3.40107 0
M  V30 472 H 55.1403 3.92038 6.65977 0
M  V30 473 H 53.4853 3.51972 5.99284 0
M  V30 474 H 56.6763 2.11597 4.17546 0
M  V30 475 H 56.8493 3.15232 5.66156 0
M  V30 476 N 50.2554 -1.46986 0.568584 0
M  V30 477 C 51.5034 -2.02041 0.0487022 0
M  V30 478 C 51.8244 -1.44408 -1.31039 0
M  V30 479 O 51.0944 -0.623477 -1.85714 0
M  V30 480 H 49.6744 -0.746849 0.015014 0
M  V30 481 H 52.3364 -1.80257 0.741168 0
M  V30 482 H 51.4324 -3.12085 -0.0308961 0
M  V30 483 N 51.7335 -0.305618 -1.54608 0
M  V30 484 C 52.9585 0.307562 -2.05107 0
M  V30 485 C 53.3835 1.46385 -1.18123 0
M  V30 486 O 52.7415 1.8034 -0.186324 0
M  V30 487 C 52.7895 0.73704 -3.52987 0
M  V30 488 O 51.8935 1.84134 -3.6901 0
M  V30 489 H 51.2345 0.0589143 -0.661381 0
M  V30 490 H 53.7645 -0.448807 -1.99617 0
M  V30 491 H 53.7745 1.02459 -3.94925 0
M  V30 492 H 52.4495 -0.108773 -4.15758 0
M  V30 493 H 51.0265 1.55398 -3.38978 0
M  V30 494 N 53.2116 1.57565 -0.0334293 0
M  V30 495 C 54.6226 1.79746 0.504798 0
M  V30 496 C 54.9736 0.944091 1.71992 0
M  V30 497 O 54.0986 0.155694 2.15839 0
M  V30 498 C 54.6936 3.25997 0.922567 0
M  V30 499 C 53.2526 3.49159 1.40588 0
M  V30 500 C 52.3996 2.74785 0.372633 0
M  V30 501 H 55.3506 1.56565 -0.259436 0
M  V30 502 H 55.3716 3.35945 1.78666 0
M  V30 503 H 54.8836 3.88081 0.0379825 0
M  V30 504 H 52.9846 2.92332 2.31025 0
M  V30 505 H 53.0976 4.57873 1.41028 0
M  V30 506 H 51.4616 2.40391 0.841672 0
M  V30 507 H 52.2446 3.39587 -0.503559 0
M  V30 508 N 54.6897 -0.239769 1.55765 0
M  V30 509 C 56.1007 -0.808263 1.68297 0
M  V30 510 C 56.4517 -1.85736 0.632181 0
M  V30 511 O 55.5767 -2.15277 -0.220204 0
M  V30 512 C 56.1717 -1.47284 3.05111 0
M  V30 513 C 54.7307 -1.98895 3.19559 0
M  V30 514 C 53.8777 -0.842575 2.64189 0
M  V30 515 H 56.8287 -0.0154422 1.58692 0
M  V30 516 H 56.8497 -2.34111 2.99954 0
M  V30 517 H 56.3617 -0.709053 3.81568 0
M  V30 518 H 54.4627 -2.78132 2.47938 0
M  V30 519 H 54.5757 -2.18143 4.26556 0
M  V30 520 H 52.9397 -1.24501 2.22197 0
M  V30 521 H 53.7227 -0.0917552 3.43177 0
M  V30 522 N 56.1678 -1.49265 -0.50573 0
M  V30 523 C 57.4148 -1.58513 -1.26015 0
M  V30 524 C 57.7428 -0.26972 -1.92621 0
M  V30 525 O 56.9978 0.741997 -1.81088 0
M  V30 526 C 57.2968 -2.69008 -2.35308 0
M  V30 527 C 56.9628 -4.10662 -1.86192 0
M  V30 528 C 55.6248 -4.49212 -1.72516 0
M  V30 529 C 57.9768 -4.99336 -1.49375 0
M  V30 530 C 55.3048 -5.74214 -1.20394 0
M  V30 531 C 57.6568 -6.24852 -0.987072 0
M  V30 532 C 56.3208 -6.62236 -0.836669 0
M  V30 533 H 55.5908 -0.580041 -0.461122 0
M  V30 534 H 58.2378 -1.83078 -0.561665 0
M  V30 535 H 56.5428 -2.38396 -3.10926 0
M  V30 536 H 58.2398 -2.73373 -2.93374 0
M  V30 537 H 54.8298 -3.8023 -1.97795 0
M  V30 538 H 59.0138 -4.70212 -1.5879 0
M  V30 539 H 54.2698 -6.01883 -1.07458 0
M  V30 540 H 58.4438 -6.92944 -0.692983 0
M  V30 541 H 56.0708 -7.58979 -0.430607 0
M  V30 542 N 57.6459 0.756429 -1.3826 0
M  V30 543 C 58.5559 1.9009 -1.37488 0
M  V30 544 C 59.5719 1.71855 -0.272366 0
M  V30 545 O 60.7479 1.94827 -0.510318 0
M  V30 546 C 57.8129 3.25421 -1.19592 0
M  V30 547 C 56.8739 3.56202 -2.39622 0
M  V30 548 C 56.1069 4.85075 -2.2257 0
M  V30 549 O 56.3299 5.57246 -1.21793 0
M  V30 550 O 55.2639 5.15269 -3.11098 0
M  V30 551 H 59.0899 1.93695 -2.33914 0
M  V30 552 H 56.6749 0.901313 -1.1915 0
M  V30 553 H 58.5569 4.06337 -1.11661 0
M  V30 554 H 57.2319 3.22634 -0.262486 0
M  V30 555 H 56.1389 2.75458 -2.53128 0
M  V30 556 H 57.4719 3.63747 -3.31586 0
M  V30 557 N 59.124 1.23083 0.984299 0
M  V30 558 C 60.057 0.951786 2.07404 0
M  V30 559 C 61.035 -0.10848 1.62238 0
M  V30 560 O 62.219 0.0249467 1.88483 0
M  V30 561 C 59.346 0.433142 3.35919 0
M  V30 562 C 58.392 1.47941 4.0002 0
M  V30 563 S 59.225 3.05556 4.39768 0
M  V30 564 C 60.381 2.55351 5.71442 0
M  V30 565 H 60.614 1.87456 2.30754 0
M  V30 566 H 58.147 1.06284 1.11996 0
M  V30 567 H 60.105 0.140506 4.10259 0
M  V30 568 H 58.766 -0.468656 3.10584 0
M  V30 569 H 57.959 1.06658 4.92585 0
M  V30 570 H 57.561 1.7212 3.3204 0
M  V30 571 H 59.853 1.97128 6.48187 0
M  V30 572 H 60.796 3.46441 6.17563 0
M  V30 573 H 61.204 1.96339 5.29255 0
M  V30 574 N 60.6021 -1.18246 1.0419 0
M  V30 575 C 61.5321 -2.24127 0.654914 0
M  V30 576 C 62.5131 -1.66617 -0.342451 0
M  V30 577 O 63.6981 -1.92924 -0.222277 0
M  V30 578 C 60.8281 -3.47295 0.0183757 0
M  V30 579 C 59.7821 -4.17563 0.939414 0
M  V30 580 C 59.1081 -5.34438 0.167286 0
M  V30 581 C 60.4081 -4.70917 2.25908 0
M  V30 582 H 62.1021 -2.56753 1.54007 0
M  V30 583 H 59.6481 -1.23414 0.74195 0
M  V30 584 H 61.6011 -4.20572 -0.264082 0
M  V30 585 H 60.3251 -3.13907 -0.901664 0
M  V30 586 H 58.9841 -3.46186 1.20628 0
M  V30 587 H 58.6321 -4.97298 -0.7552 0
M  V30 588 H 58.3321 -5.82388 0.780901 0
M  V30 589 H 59.8561 -6.10504 -0.108125 0
M  V30 590 H 61.2701 -5.35882 2.03724 0
M  V30 591 H 59.6671 -5.29406 2.82577 0
M  V30 592 H 60.7371 -3.88272 2.9047 0
M  V30 593 N 62.0802 -0.821533 -1.34494 0
M  V30 594 C 63.3052 -0.420873 -2.03085 0
M  V30 595 C 63.7302 0.964915 -1.61465 0
M  V30 596 O 63.0882 1.62763 -0.798607 0
M  V30 597 C 63.1362 -0.529414 -3.56693 0
M  V30 598 O 62.2402 0.451302 -4.09923 0
M  V30 599 H 61.5812 -0.173489 -0.640935 0
M  V30 600 H 64.1112 -1.11157 -1.71771 0
M  V30 601 H 64.1212 -0.404671 -4.05988 0
M  V30 602 H 62.7962 -1.54014 -3.86332 0
M  V30 603 H 61.3732 0.285558 -3.71805 0
M  V30 604 N 63.5583 1.46682 -0.576371 0
M  V30 605 C 64.9693 1.86112 -0.148091 0
M  V30 606 C 65.3203 1.48073 1.2872 0
M  V30 607 O 64.4453 0.892656 1.97131 0
M  V30 608 C 65.0403 3.37786 -0.261982 0
M  V30 609 C 63.5993 3.76235 0.111384 0
M  V30 610 C 62.7463 2.70713 -0.60083 0
M  V30 611 H 65.6973 1.37927 -0.78497 0
M  V30 612 H 65.7183 3.77007 0.514364 0
M  V30 613 H 65.2303 3.6544 -1.30671 0
M  V30 614 H 63.3313 3.54198 1.15649 0
M  V30 615 H 63.4443 4.78391 -0.26052 0
M  V30 616 H 61.8083 2.54666 -0.0417783 0
M  V30 617 H 62.5913 3.01208 -1.64708 0
M  V30 618 N 65.0364 0.313813 1.54444 0
M  V30 619 C 66.2614 -0.296681 2.05267 0
M  V30 620 C 66.6864 -1.45757 1.18897 0
M  V30 621 O 66.0444 -1.80239 0.195886 0
M  V30 622 C 66.0924 -0.71831 3.53373 0
M  V30 623 O 65.1964 -1.82175 3.69981 0
M  V30 624 H 64.5374 -0.0554061 0.661684 0
M  V30 625 H 67.0674 0.459387 1.99376 0
M  V30 626 H 67.0774 -1.00364 3.95463 0
M  V30 627 H 65.7524 0.130821 4.15694 0
M  V30 628 H 64.3294 -1.53598 3.39797 0
M  V30 629 N 66.5145 -1.57545 0.0417849 0
M  V30 630 C 67.7615 -1.92317 -0.634082 0
M  V30 631 C 68.0895 -0.919334 -1.71402 0
M  V30 632 O 67.3445 0.0698253 -1.95575 0
M  V30 633 C 67.6435 -3.33794 -1.27735 0
M  V30 634 C 67.3095 -4.49716 -0.326543 0
M  V30 635 C 65.9715 -4.81156 -0.0648814 0
M  V30 636 C 68.3235 -5.20182 0.325623 0
M  V30 637 C 65.6515 -5.80414 0.856539 0
M  V30 638 C 68.0035 -6.20424 1.23518 0
M  V30 639 C 66.6675 -6.50298 1.5056 0
M  V30 640 H 65.9375 -0.703736 -0.232027 0
M  V30 641 H 68.5845 -1.91205 0.106259 0
M  V30 642 H 66.8895 -3.31228 -2.09274 0
M  V30 643 H 68.5865 -3.57975 -1.80707 0
M  V30 644 H 65.1765 -4.25176 -0.540665 0
M  V30 645 H 69.3605 -4.96112 0.136546 0
M  V30 646 H 64.6165 -6.019 1.07363 0
M  V30 647 H 68.7905 -6.74141 1.74664 0
M  V30 648 H 66.4175 -7.27025 2.22123 0
M  V30 649 N 67.9926 0.231505 -1.5589 0
M  V30 650 C 69.4086 0.580748 -1.48659 0
M  V30 651 C 69.6086 1.87617 -0.73498 0
M  V30 652 O 68.6646 2.51046 -0.270586 0
M  V30 653 C 69.9776 0.669202 -2.93159 0
M  V30 654 C 71.5256 0.760499 -3.03621 0
M  V30 655 C 72.0006 0.880383 -4.49459 0
M  V30 656 N 73.4916 0.944861 -4.53461 0
M  V30 657 C 74.2266 1.05716 -5.63571 0
M  V30 658 N 73.7226 1.13403 -6.83456 0
M  V30 659 N 75.5156 1.09152 -5.514 0
M  V30 660 H 67.6666 -0.618695 -2.03189 0
M  V30 661 H 69.9296 -0.215728 -0.923128 0
M  V30 662 H 69.6356 -0.212904 -3.51055 0
M  V30 663 H 69.5096 1.5361 -3.44505 0
M  V30 664 H 71.8966 1.63305 -2.45796 0
M  V30 665 H 71.9776 -0.131864 -2.5546 0
M  V30 666 H 71.6216 0.0123284 -5.07899 0
M  V30 667 H 71.5516 1.78802 -4.95316 0
M  V30 668 H 74.0426 0.896176 -3.6712 0
M  V30 669 H 74.3556 1.21921 -7.63122 0
M  V30 670 H 72.7006 1.10333 -6.86186 0
M  V30 671 H 75.8916 1.02805 -4.56671 0
M  V30 672 H 76.0646 1.17558 -6.37247 0
M  V30 673 N 69.4707 1.49531 0.497807 0
M  V30 674 C 70.7187 1.58865 1.24926 0
M  V30 675 C 71.0397 0.278721 1.92998 0
M  V30 676 O 70.3097 -0.702144 1.82885 0
M  V30 677 H 68.8897 0.585343 0.464094 0
M  V30 678 H 71.5517 1.86174 0.57666 0
M  V30 679 H 70.6477 2.38633 2.01149 0
M  V30 680 N 70.9488 -0.749086 1.3866 0
M  V30 681 C 71.8788 -1.8764 1.38973 0
M  V30 682 C 72.8598 -1.68178 0.255004 0
M  V30 683 O 74.0448 -1.88704 0.458754 0
M  V30 684 C 71.1748 -3.25222 1.21851 0
M  V30 685 C 70.1288 -3.59295 2.32575 0
M  V30 686 C 69.4548 -4.95663 2.00555 0
M  V30 687 C 70.7548 -3.63709 3.7485 0
M  V30 688 H 72.4488 -1.87635 2.3331 0
M  V30 689 H 69.9948 -0.901329 1.12303 0
M  V30 690 H 71.9478 -4.03746 1.20695 0
M  V30 691 H 70.6718 -3.25719 0.239775 0
M  V30 692 H 69.3308 -2.83093 2.32925 0
M  V30 693 H 68.9788 -4.92724 1.01154 0
M  V30 694 H 68.6788 -5.19429 2.74714 0
M  V30 695 H 70.2028 -5.7656 2.01024 0
M  V30 696 H 71.6168 -4.32338 3.76506 0
M  V30 697 H 70.0138 -3.98986 4.48252 0
M  V30 698 H 71.0838 -2.63834 4.06841 0
M  V30 699 N 72.4269 -1.23603 -0.977757 0
M  V30 700 C 73.6749 -1.06759 -1.71601 0
M  V30 701 C 73.9959 0.395929 -1.90938 0
M  V30 702 O 73.2659 1.28356 -1.47992 0
M  V30 703 H 71.8459 -0.392062 -0.635843 0
M  V30 704 H 74.5079 -1.55362 -1.1768 0
M  V30 705 H 73.6039 -1.55763 -2.70452 0
M  V30 706 N 73.905 1.17692 -1.04816 0
M  V30 707 C 74.837 2.21103 -0.603822 0
M  V30 708 C 75.85 1.59411 0.33046 0
M  V30 709 O 77.039 1.7807 0.12379 0
M  V30 710 C 74.139 3.38623 0.136898 0
M  V30 711 C 73.312 4.29888 -0.807137 0
M  V30 712 C 72.371 5.26088 -0.10836 0
M  V30 713 O 71.397 5.64353 -0.741232 0
M  V30 714 N 72.599 5.68882 1.15558 0
M  V30 715 H 75.364 2.59848 -1.49329 0
M  V30 716 H 72.925 1.32553 -0.929587 0
M  V30 717 H 74.917 4.00009 0.614401 0
M  V30 718 H 73.487 2.98508 0.927993 0
M  V30 719 H 72.707 3.65993 -1.46434 0
M  V30 720 H 73.995 4.87759 -1.44807 0
M  V30 721 H 73.393 5.39861 1.69015 0
M  V30 722 H 71.95 6.32429 1.57722 0
M  V30 723 N 75.3831 0.828654 1.34056 0
M  V30 724 C 76.7941 0.477534 1.8049 0
M  V30 725 C 77.1451 -1.00258 1.6865 0
M  V30 726 O 76.2701 -1.78057 1.22982 0
M  V30 727 C 76.8651 0.860018 3.27703 0
M  V30 728 C 75.4241 0.561185 3.72193 0
M  V30 729 C 74.5711 1.07385 2.55663 0
M  V30 730 H 77.5221 1.0183 1.21722 0
M  V30 731 H 77.5431 0.166038 3.80138 0
M  V30 732 H 77.0551 1.93731 3.36288 0
M  V30 733 H 75.1561 -0.506465 3.69142 0
M  V30 734 H 75.2691 1.10926 4.66082 0
M  V30 735 H 73.6331 0.495149 2.49841 0
M  V30 736 H 74.4161 2.15771 2.67016 0
M  V30 737 N 76.8612 -1.46375 0.584142 0
M  V30 738 C 78.1382 -1.956 0.0033388 0
M  V30 739 C 78.5182 -1.52679 -1.45782 0
M  V30 740 O 77.8662 -0.77816 -2.14842 0
M  V30 741 C 78.0762 -3.48551 0.176891 0
M  V30 742 C 79.4242 -4.24576 0.0454609 0
M  V30 743 O 80.4482 -3.56043 0.105801 0
M  V30 744 O 79.3072 -5.46427 -0.0890376 0
M  V30 745 H 76.4012 -0.825547 -0.0490066 0
M  V30 746 H 78.9472 -1.56652 0.65256 0
M  V30 747 H 77.7192 -3.72683 1.1926 0
M  V30 748 H 77.3422 -3.94332 -0.508695 0
M  V30 749 N 78.3393 -0.321999 -1.54275 0
M  V30 750 C 79.2693 0.537411 -2.27231 0
M  V30 751 C 80.2503 1.12064 -1.27968 0
M  V30 752 O 81.4353 1.14606 -1.56777 0
M  V30 753 C 78.5653 1.69919 -3.02894 0
M  V30 754 C 77.5193 1.24534 -4.09482 0
M  V30 755 C 76.8453 2.49394 -4.72977 0
M  V30 756 C 78.1453 0.361335 -5.21049 0
M  V30 757 H 79.8393 -0.0711406 -2.99315 0
M  V30 758 H 77.3853 -0.0356555 -1.43956 0
M  V30 759 H 79.3383 2.30668 -3.52662 0
M  V30 760 H 78.0623 2.33431 -2.28424 0
M  V30 761 H 76.7213 0.660782 -3.60596 0
M  V30 762 H 76.3693 3.11265 -3.95124 0
M  V30 763 H 76.0693 2.19718 -5.44975 0
M  V30 764 H 77.5933 3.10908 -5.25517 0
M  V30 765 H 79.0073 0.875072 -5.66582 0
M  V30 766 H 77.4043 0.157428 -5.99893 0
M  V30 767 H 78.4743 -0.60822 -4.8107 0
M  V30 768 N 79.8174 1.5752 -0.0501392 0
M  V30 769 C 81.2284 1.80271 0.485705 0
M  V30 770 C 81.5794 0.96228 1.70981 0
M  V30 771 O 80.7044 0.178578 2.15662 0
M  V30 772 C 81.2994 3.26957 0.887938 0
M  V30 773 C 79.8584 3.5063 1.36877 0
M  V30 774 C 79.0054 2.75165 0.343468 0
M  V30 775 H 81.9564 1.56281 -0.276028 0
M  V30 776 H 81.9774 3.37821 1.75093 0
M  V30 777 H 81.4894 3.881 -0.0031809 0
M  V30 778 H 79.5904 2.94766 2.27911 0
M  V30 779 H 79.7034 4.59343 1.36164 0
M  V30 780 H 78.0674 2.4127 0.816128 0
M  V30 781 H 78.8504 3.39034 -0.539548 0
M  V30 782 N 81.2955 -0.223234 1.56011 0
M  V30 783 C 82.2425 -1.27664 1.92277 0
M  V30 784 C 83.2125 -1.46659 0.779763 0
M  V30 785 O 84.3975 -1.60256 1.03551 0
M  V30 786 C 81.5375 -2.62234 2.24338 0
M  V30 787 C 80.6505 -2.51051 3.51564 0
M  V30 788 C 79.7855 -3.78133 3.7308 0
M  V30 789 C 78.8245 -3.61665 4.93827 0
M  V30 790 N 77.9615 -4.80693 5.11741 0
M  V30 791 H 82.8015 -0.960358 2.82101 0
M  V30 792 H 80.3385 -0.462901 1.39627 0
M  V30 793 H 82.2965 -3.40596 2.40936 0
M  V30 794 H 80.9265 -2.91961 1.3769 0
M  V30 795 H 79.9785 -1.64132 3.43169 0
M  V30 796 H 81.2905 -2.34803 4.40079 0
M  V30 797 H 80.4445 -4.64938 3.89766 0
M  V30 798 H 79.1835 -3.97304 2.82844 0
M  V30 799 H 78.1885 -2.73244 4.77093 0
M  V30 800 H 79.4135 -3.43966 5.85546 0
M  V30 801 H 77.3595 -5.00181 4.24446 0
M  V30 802 H 77.2765 -4.67165 5.94384 0
M  V30 803 H 78.5445 -5.6893 5.3286 0
M  V30 804 N 82.7736 -1.49793 -0.48987 0
M  V30 805 C 83.6836 -1.70036 -1.61632 0
M  V30 806 C 84.6996 -0.583102 -1.63939 0
M  V30 807 O 85.8756 -0.859169 -1.82154 0
M  V30 808 C 82.9406 -1.77277 -2.97949 0
M  V30 809 C 82.0016 -3.00918 -3.06181 0
M  V30 810 C 81.2346 -3.07804 -4.35996 0
M  V30 811 O 81.4576 -2.21982 -5.25433 0
M  V30 812 O 80.3916 -4.00369 -4.49431 0
M  V30 813 H 84.2176 -2.65486 -1.47482 0
M  V30 814 H 81.8026 -1.33666 -0.667362 0
M  V30 815 H 83.6846 -1.84329 -3.78947 0
M  V30 816 H 82.3596 -0.850076 -3.12339 0
M  V30 817 H 81.2666 -2.99377 -2.2433 0
M  V30 818 H 82.5996 -3.92704 -2.96723 0
M  V30 819 N 84.2517 0.741722 -1.39055 0
M  V30 820 C 85.1847 1.86416 -1.31622 0
M  V30 821 C 86.1627 1.61473 -0.191076 0
M  V30 822 O 87.3467 1.84825 -0.370399 0
M  V30 823 C 84.4737 3.22266 -1.04221 0
M  V30 824 C 83.5197 3.66079 -2.18834 0
M  V30 825 S 84.3527 3.7623 -3.81066 0
M  V30 826 C 85.5087 5.14881 -3.55877 0
M  V30 827 H 85.7417 1.92437 -2.26617 0
M  V30 828 H 83.2747 0.905907 -1.25031 0
M  V30 829 H 85.2327 4.00714 -0.890964 0
M  V30 830 H 83.8937 3.1391 -0.109237 0
M  V30 831 H 83.0867 4.64648 -1.95238 0
M  V30 832 H 82.6887 2.94817 -2.30128 0
M  V30 833 H 84.9807 6.01006 -3.12726 0
M  V30 834 H 85.9237 5.43503 -4.53884 0
M  V30 835 H 86.3317 4.84239 -2.90126 0
M  V30 836 N 85.7298 1.2412 0.971189 0
M  V30 837 C 86.6928 1.03156 2.04674 0
M  V30 838 C 87.6928 -0.00990322 1.60797 0
M  V30 839 O 88.8828 0.230729 1.72665 0
M  V30 840 C 86.0148 0.562765 3.36223 0
M  V30 841 H 87.2078 1.98614 2.24705 0
M  V30 842 H 84.7608 1.06293 1.14593 0
M  V30 843 H 85.4958 -0.395176 3.21883 0
M  V30 844 H 85.2808 1.31441 3.69413 0
M  V30 845 H 86.7708 0.437015 4.15307 0
M  V30 846 N 87.2079 -1.17134 1.05439 0
M  V30 847 C 88.4329 -1.91913 0.786396 0
M  V30 848 C 88.8579 -1.7643 -0.652234 0
M  V30 849 O 88.2159 -1.08372 -1.45345 0
M  V30 850 C 88.2639 -3.40921 1.17497 0
M  V30 851 O 87.3679 -4.11244 0.308589 0
M  V30 852 H 86.7089 -0.598215 0.288158 0
M  V30 853 H 89.2389 -1.48457 1.4079 0
M  V30 854 H 89.2489 -3.91668 1.14281 0
M  V30 855 H 87.9239 -3.5151 2.22292 0
M  V30 856 H 86.5009 -3.70731 0.40157 0
M  V30 857 N 88.686 -0.835752 -1.33615 0
M  V30 858 C 89.616 -0.281739 -2.31794 0
M  V30 859 C 90.597 0.608833 -1.58831 0
M  V30 860 O 91.782 0.533035 -1.86741 0
M  V30 861 C 88.912 0.546612 -3.42971 0
M  V30 862 C 87.866 -0.247904 -4.27281 0
M  V30 863 C 87.192 0.704001 -5.30045 0
M  V30 864 C 88.492 -1.46324 -5.01385 0
M  V30 865 H 90.186 -1.10206 -2.78379 0
M  V30 866 H 87.732 -0.531388 -1.33837 0
M  V30 867 H 89.685 0.944467 -4.1068 0
M  V30 868 H 88.409 1.40011 -2.95067 0
M  V30 869 H 87.068 -0.627281 -3.61194 0
M  V30 870 H 86.716 1.55381 -4.78399 0
M  V30 871 H 86.416 0.176524 -5.87335 0
M  V30 872 H 87.94 1.09944 -6.0062 0
M  V30 873 H 89.354 -1.13871 -5.61877 0
M  V30 874 H 87.751 -1.92728 -5.6831 0
M  V30 875 H 88.821 -2.23467 -4.30338 0
M  V30 876 N 90.1641 1.46063 -0.591896 0
M  V30 877 C 91.3891 2.07226 -0.0850314 0
M  V30 878 C 91.8141 1.43625 1.21463 0
M  V30 879 O 91.1721 0.523305 1.73583 0
M  V30 880 C 91.2201 3.60554 0.0576567 0
M  V30 881 O 90.3241 3.97128 1.11188 0
M  V30 882 H 89.6651 0.660615 -0.0669568 0
M  V30 883 H 92.1951 1.8756 -0.81745 0
M  V30 884 H 92.2051 4.07165 0.2609 0
M  V30 885 H 90.8801 4.06235 -0.891416 0
M  V30 886 H 89.4571 3.62213 0.886356 0
M  V30 887 N 91.6422 0.330177 1.54103 0
M  V30 888 C 92.8882 -0.270806 2.00984 0
M  V30 889 C 93.2212 -1.51265 1.21789 0
M  V30 890 O 92.4962 -1.92142 0.301927 0
M  V30 891 C 92.7792 -0.598339 3.55094 0
M  V30 892 C 92.6322 0.654674 4.4501 0
M  V30 893 C 93.9512 -1.41334 4.16789 0
M  V30 894 H 91.0702 -0.0969531 0.730595 0
M  V30 895 H 93.7122 0.448066 1.84641 0
M  V30 896 H 91.8622 -1.21078 3.69151 0
M  V30 897 H 93.5342 1.29285 4.42813 0
M  V30 898 H 91.7772 1.28224 4.14416 0
M  V30 899 H 92.4482 0.380944 5.50684 0
M  V30 900 H 94.9242 -0.895597 4.06347 0
M  V30 901 H 93.8002 -1.61127 5.24718 0
M  V30 902 H 94.0612 -2.41146 3.70541 0
M  V30 903 N 93.1203 -1.57491 0.0584922 0
M  V30 904 C 94.0303 -2.15448 -0.928414 0
M  V30 905 C 95.0463 -1.11416 -1.3365 0
M  V30 906 O 96.2223 -1.4362 -1.41193 0
M  V30 907 C 93.2873 -2.69393 -2.18239 0
M  V30 908 C 92.3483 -3.88249 -1.83196 0
M  V30 909 C 91.5813 -4.39613 -3.02616 0
M  V30 910 O 91.8043 -3.90023 -4.16219 0
M  V30 911 O 90.7383 -5.31111 -2.83204 0
M  V30 912 H 94.5643 -3.00112 -0.465483 0
M  V30 913 H 92.1493 -1.48499 -0.163826 0
M  V30 914 H 94.0313 -3.04026 -2.91798 0
M  V30 915 H 92.7063 -1.87796 -2.63656 0
M  V30 916 H 91.6133 -3.58492 -1.06931 0
M  V30 917 H 92.9463 -4.71098 -1.42573 0
M  V30 918 N 94.5984 0.214957 -1.56127 0
M  V30 919 C 95.8264 0.955092 -1.83536 0
M  V30 920 C 96.2414 1.77677 -0.638472 0
M  V30 921 O 95.5984 1.78219 0.392968 0
M  V30 922 C 95.6494 1.86734 -3.09536 0
M  V30 923 O 95.3704 1.07887 -4.24608 0
M  V30 924 C 96.8714 2.72082 -3.4998 0
M  V30 925 H 94.0914 0.279611 -0.609966 0
M  V30 926 H 96.6354 0.228197 -2.03223 0
M  V30 927 H 94.7904 2.5481 -2.91806 0
M  V30 928 H 95.2044 1.69872 -4.9623 0
M  V30 929 H 96.6784 3.31782 -4.41163 0
M  V30 930 H 97.1554 3.44806 -2.7204 0
M  V30 931 H 97.7614 2.09409 -3.70173 0
M  V30 932 N 96.0765 1.50051 0.48192 0
M  V30 933 C 97.0085 1.64263 1.59844 0
M  V30 934 C 98.0215 0.52451 1.54119 0
M  V30 935 O 99.2105 0.797293 1.59704 0
M  V30 936 C 96.3105 1.60102 2.98698 0
M  V30 937 C 95.4835 2.87767 3.29407 0
M  V30 938 C 94.5425 2.76397 4.47762 0
M  V30 939 O 93.5685 3.50348 4.48603 0
M  V30 940 N 94.7705 1.89222 5.48794 0
M  V30 941 H 97.5355 2.60566 1.48073 0
M  V30 942 H 95.0965 1.47379 0.670149 0
M  V30 943 H 97.0885 1.50123 3.75826 0
M  V30 944 H 95.6585 0.715798 3.04294 0
M  V30 945 H 94.8785 3.11954 2.40994 0
M  V30 946 H 96.1665 3.72365 3.4673 0
M  V30 947 H 95.5645 1.28434 5.50928 0
M  V30 948 H 94.1215 1.85154 6.24949 0
M  V30 949 N 97.5546 -0.734337 1.39446 0
M  V30 950 C 98.7796 -1.52866 1.40167 0
M  V30 951 C 99.2046 -1.881 -0.00171513 0
M  V30 952 O 98.5626 -1.51957 -0.988879 0
M  V30 953 C 98.6106 -2.79235 2.28167 0
M  V30 954 O 97.7146 -3.75185 1.71201 0
M  V30 955 H 97.0556 -0.461618 0.477289 0
M  V30 956 H 99.5856 -0.905949 1.8345 0
M  V30 957 H 99.5956 -3.27963 2.42702 0
M  V30 958 H 98.2706 -2.52923 3.30156 0
M  V30 959 H 96.8476 -3.33958 1.65912 0
M  V30 960 N 99.0327 -1.24633 -0.964593 0
M  V30 961 C 100.261 -1.11501 -1.74285 0
M  V30 962 C 100.676 0.332165 -1.85855 0
M  V30 963 O 100.033 1.22903 -1.34911 0
M  V30 964 C 100.084 -1.75258 -3.16175 0
M  V30 965 O 99.8047 -3.14318 -3.05182 0
M  V30 966 C 101.306 -1.67776 -4.10324 0
M  V30 967 H 98.5257 -0.389407 -0.546446 0
M  V30 968 H 101.07 -1.64801 -1.21083 0
M  V30 969 H 99.2247 -1.25954 -3.66353 0
M  V30 970 H 99.6387 -3.4551 -3.94618 0
M  V30 971 H 101.113 -2.17064 -5.0753 0
M  V30 972 H 101.59 -0.639584 -4.34518 0
M  V30 973 H 102.196 -2.16522 -3.66058 0
M  V30 974 N 100.511 1.16574 -1.06058 0
M  V30 975 C 101.736 1.91493 -0.796562 0
M  V30 976 C 102.161 1.76773 0.642868 0
M  V30 977 O 101.519 1.09142 1.44768 0
M  V30 978 C 101.567 3.40293 -1.19303 0
M  V30 979 O 100.671 4.11074 -0.330394 0
M  V30 980 H 100.012 0.596678 -0.291326 0
M  V30 981 H 102.542 1.47708 -1.41575 0
M  V30 982 H 102.552 3.91057 -1.16356 0
M  V30 983 H 101.227 3.50326 -2.24153 0
M  V30 984 H 99.8038 3.70513 -0.421225 0
M  V30 985 N 101.989 0.842826 1.3317 0
M  V30 986 C 103.214 0.453129 2.02389 0
M  V30 987 C 103.639 -0.939105 1.6298 0
M  V30 988 O 102.997 -1.61472 0.8244 0
M  V30 989 C 103.045 0.586094 3.55805 0
M  V30 990 O 102.149 -0.386029 4.10589 0
M  V30 991 H 101.49 0.183664 0.638094 0
M  V30 992 H 104.02 1.13875 1.69981 0
M  V30 993 H 104.03 0.469209 4.05293 0
M  V30 994 H 102.705 1.6014 3.83833 0
M  V30 995 H 101.282 -0.226371 3.72212 0
M  V30 996 N 103.467 -1.45747 0.599634 0
M  V30 997 C 104.377 -2.34262 -0.125888 0
M  V30 998 C 105.393 -1.50768 -0.868625 0
M  V30 999 O 106.569 -1.83592 -0.828003 0
M  V30 1000 C 103.634 -3.28252 -1.11587 0
M  V30 1001 C 102.695 -4.27651 -0.375956 0
M  V30 1002 C 101.928 -5.1715 -1.31877 0
M  V30 1003 O 102.151 -5.09916 -2.55621 0
M  V30 1004 O 101.085 -5.96286 -0.820157 0
M  V30 1005 H 104.911 -2.97688 0.601315 0
M  V30 1006 H 102.496 -1.44999 0.359934 0
M  V30 1007 H 104.378 -3.86191 -1.68626 0
M  V30 1008 H 103.053 -2.67401 -1.82424 0
M  V30 1009 H 101.96 -3.7335 0.236698 0
M  V30 1010 H 103.293 -4.91334 0.29177 0
M  V30 1011 N 104.945 -0.338344 -1.53925 0
M  V30 1012 C 105.855 0.529421 -2.28548 0
M  V30 1013 C 106.871 1.11645 -1.3346 0
M  V30 1014 O 108.047 1.13325 -1.66492 0
M  V30 1015 C 105.112 1.66713 -3.03987 0
M  V30 1016 C 104.173 1.11041 -4.14691 0
M  V30 1017 C 103.406 2.19389 -4.86522 0
M  V30 1018 O 103.629 3.40013 -4.57982 0
M  V30 1019 O 102.563 1.83976 -5.73094 0
M  V30 1020 H 106.389 -0.0770399 -3.03602 0
M  V30 1021 H 103.974 -0.103555 -1.49041 0
M  V30 1022 H 105.856 2.32918 -3.5118 0
M  V30 1023 H 104.531 2.25949 -2.31794 0
M  V30 1024 H 103.438 0.413024 -3.71813 0
M  V30 1025 H 104.771 0.562975 -4.8897 0
M  V30 1026 N 106.423 1.57458 -0.0668435 0
M  V30 1027 C 107.356 2.08033 0.93795 0
M  V30 1028 C 108.334 0.984321 1.29421 0
M  V30 1029 O 109.518 1.25736 1.40437 0
M  V30 1030 C 106.645 2.53388 2.24749 0
M  V30 1031 C 105.691 3.74376 2.04315 0
M  V30 1032 S 106.524 5.19303 1.30706 0
M  V30 1033 C 107.68 5.67986 2.62951 0
M  V30 1034 H 107.913 2.92935 0.50759 0
M  V30 1035 H 105.446 1.5371 0.145804 0
M  V30 1036 H 107.404 2.8018 3.00016 0
M  V30 1037 H 106.065 1.68763 2.64911 0
M  V30 1038 H 105.258 4.04083 3.01218 0
M  V30 1039 H 104.86 3.47931 1.37186 0
M  V30 1040 H 107.152 5.74528 3.5906 0
M  V30 1041 H 108.095 6.66955 2.3786 0
M  V30 1042 H 108.503 4.95781 2.69929 0
M  V30 1043 N 107.901 -0.206675 1.56239 0
M  V30 1044 C 109.147 -0.930218 1.80208 0
M  V30 1045 C 109.48 -1.83387 0.638981 0
M  V30 1046 O 108.755 -1.91119 -0.361066 0
M  V30 1047 C 109.038 -1.75641 3.1436 0
M  V30 1048 C 108.891 -0.878257 4.41142 0
M  V30 1049 C 110.21 -2.73129 3.45092 0
M  V30 1050 H 107.329 -0.336742 0.655571 0
M  V30 1051 H 109.971 -0.198222 1.88963 0
M  V30 1052 H 108.121 -2.38048 3.07027 0
M  V30 1053 H 109.793 -0.269787 4.6051 0
M  V30 1054 H 108.036 -0.184385 4.33408 0
M  V30 1055 H 108.707 -1.49106 5.3148 0
M  V30 1056 H 111.183 -2.20856 3.52649 0
M  V30 1057 H 110.059 -3.28028 4.40101 0
M  V30 1058 H 110.32 -3.51606 2.68003 0
M  V30 1059 N 109.379 -1.50304 -0.473955 0
M  V30 1060 C 110.79 -1.54042 -1.0549 0
M  V30 1061 C 111.141 -0.342248 -1.93192 0
M  V30 1062 O 110.266 0.545157 -2.09421 0
M  V30 1063 C 110.861 -2.79152 -1.91989 0
M  V30 1064 C 109.42 -2.8558 -2.45196 0
M  V30 1065 C 108.567 -2.48295 -1.2347 0
M  V30 1066 H 111.518 -1.5661 -0.256693 0
M  V30 1067 H 111.539 -2.60845 -2.7702 0
M  V30 1068 H 111.051 -3.66339 -1.28131 0
M  V30 1069 H 109.152 -2.02738 -3.12615 0
M  V30 1070 H 109.265 -3.88403 -2.80499 0
M  V30 1071 H 107.629 -2.00669 -1.56856 0
M  V30 1072 H 108.412 -3.37787 -0.612789 0
M  V30 1073 N 110.857 0.726932 -1.39834 0
M  V30 1074 C 112.082 1.52121 -1.40976 0
M  V30 1075 C 112.507 1.88098 -0.00826029 0
M  V30 1076 O 111.865 1.52479 0.980807 0
M  V30 1077 C 111.913 2.78021 -2.29644 0
M  V30 1078 O 111.017 3.74272 -1.73188 0
M  V30 1079 H 110.358 0.45908 -0.479731 0
M  V30 1080 H 112.888 0.896207 -1.83927 0
M  V30 1081 H 112.898 3.26671 -2.44438 0
M  V30 1082 H 111.573 2.51169 -3.31492 0
M  V30 1083 H 110.15 3.33073 -1.6768 0
M  V30 1084 N 112.336 1.25143 0.95797 0
M  V30 1085 C 113.561 1.12521 1.74223 0
M  V30 1086 C 113.986 -0.317402 1.85403 0
M  V30 1087 O 113.344 -1.2299 1.33204 0
M  V30 1088 C 113.392 1.78062 3.1357 0
M  V30 1089 O 112.496 1.058 3.98598 0
M  V30 1090 H 111.837 0.39304 0.535178 0
M  V30 1091 H 114.367 1.65641 1.201 0
M  V30 1092 H 114.377 1.84213 3.64046 0
M  V30 1093 H 113.052 2.83021 3.04749 0
M  V30 1094 H 111.629 1.07506 3.57067 0
M  V30 1095 N 113.814 -1.1601 1.06675 0
M  V30 1096 C 115.225 -1.68235 0.809565 0
M  V30 1097 C 115.576 -1.8454 -0.666303 0
M  V30 1098 O 114.701 -1.54374 -1.5165 0
M  V30 1099 C 115.296 -3.05585 1.46299 0
M  V30 1100 C 113.855 -3.54915 1.25349 0
M  V30 1101 C 113.002 -2.30804 1.53703 0
M  V30 1102 H 115.953 -1.00318 1.22971 0
M  V30 1103 H 115.974 -3.70174 0.880431 0
M  V30 1104 H 115.486 -2.93686 2.53713 0
M  V30 1105 H 113.587 -3.72067 0.199261 0
M  V30 1106 H 113.7 -4.36774 1.9689 0
M  V30 1107 H 112.064 -2.36007 0.957739 0
M  V30 1108 H 112.847 -2.21499 2.62284 0
M  V30 1109 N 115.292 -0.849877 -1.32721 0
M  V30 1110 C 116.517 -0.463856 -2.02146 0
M  V30 1111 C 116.942 0.930449 -1.63476 0
M  V30 1112 O 116.3 1.61033 -0.832952 0
M  V30 1113 C 116.348 -0.604955 -3.55489 0
M  V30 1114 O 115.452 0.36425 -4.10788 0
M  V30 1115 H 114.793 -0.187046 -0.637111 0
M  V30 1116 H 117.323 -1.14775 -1.69375 0
M  V30 1117 H 117.333 -0.490696 -4.05038 0
M  V30 1118 H 116.008 -1.62174 -3.82978 0
M  V30 1119 H 114.585 0.206628 -3.72327 0
M  V30 1120 N 116.77 1.45427 -0.607355 0
M  V30 1121 C 118.181 1.85756 -0.187535 0
M  V30 1122 C 118.532 1.5077 1.25551 0
M  V30 1123 O 117.657 0.93427 1.95193 0
M  V30 1124 C 118.252 3.37154 -0.333572 0
M  V30 1125 C 116.811 3.76387 0.0315542 0
M  V30 1126 C 115.958 2.69377 -0.658117 0
M  V30 1127 H 118.909 1.36231 -0.81405 0
M  V30 1128 H 118.93 3.78014 0.43428 0
M  V30 1129 H 118.442 3.62586 -1.38393 0
M  V30 1130 H 116.543 3.56571 1.0811 0
M  V30 1131 H 116.656 4.77731 -0.361935 0
M  V30 1132 H 115.02 2.5452 -0.0957873 0
M  V30 1133 H 115.803 2.97646 -1.7106 0
M  V30 1134 N 118.248 0.346503 1.53744 0
M  V30 1135 C 119.659 -0.136779 1.86198 0
M  V30 1136 C 120.01 -1.49749 1.26766 0
M  V30 1137 O 119.135 -2.08417 0.582355 0
M  V30 1138 C 119.73 -0.254966 3.37839 0
M  V30 1139 C 118.289 -0.682482 3.70161 0
M  V30 1140 C 117.436 0.181981 2.76702 0
M  V30 1141 H 120.387 0.565994 1.48264 0
M  V30 1142 H 120.408 -1.08195 3.64793 0
M  V30 1143 H 119.92 0.735526 3.81066 0
M  V30 1144 H 118.021 -1.68189 3.3248 0
M  V30 1145 H 118.134 -0.470326 4.76786 0
M  V30 1146 H 116.498 -0.34615 2.52337 0
M  V30 1147 H 117.281 1.16966 3.2276 0
M  V30 1148 N 119.726 -1.57421 0.075193 0
M  V30 1149 C 121.137 -1.81021 -0.456964 0
M  V30 1150 C 121.488 -0.98936 -1.69429 0
M  V30 1151 O 120.613 -0.212865 -2.15351 0
M  V30 1152 C 121.208 -3.28329 -0.83581 0
M  V30 1153 C 119.767 -3.52764 -1.31281 0
M  V30 1154 C 118.914 -2.75676 -0.299648 0
M  V30 1155 H 121.865 -1.55822 0.300856 0
M  V30 1156 H 121.886 -3.40564 -1.69696 0
M  V30 1157 H 121.398 -3.88046 0.0649238 0
M  V30 1158 H 119.499 -2.98355 -2.23193 0
M  V30 1159 H 119.612 -4.61451 -1.28839 0
M  V30 1160 H 117.976 -2.42538 -0.777641 0
M  V30 1161 H 118.759 -3.38132 0.593417 0
M  V30 1162 N 121.204 0.198386 -1.56346 0
M  V30 1163 C 122.615 0.763358 -1.70381 0
M  V30 1164 C 122.966 1.83995 -0.681203 0
M  V30 1165 O 122.091 2.15785 0.16305 0
M  V30 1166 C 122.686 1.39143 -3.08909 0
M  V30 1167 C 121.245 1.90352 -3.2472 0
M  V30 1168 C 120.392 0.772233 -2.6633 0
M  V30 1169 H 123.343 -0.0266377 -1.58678 0
M  V30 1170 H 123.364 2.26076 -3.06055 0
M  V30 1171 H 122.876 0.607638 -3.83314 0
M  V30 1172 H 120.977 2.71461 -2.55225 0
M  V30 1173 H 121.09 2.06757 -4.3219 0
M  V30 1174 H 119.454 1.18566 -2.2542 0
M  V30 1175 H 120.237 0.00073556 -3.433 0
M  V30 1176 N 122.682 1.50554 0.465978 0
M  V30 1177 C 124.093 1.54599 1.04671 0
M  V30 1178 C 124.444 0.352488 1.93008 0
M  V30 1179 O 123.569 -0.534044 2.09707 0
M  V30 1180 C 124.164 2.80166 1.90505 0
M  V30 1181 C 122.723 2.86876 2.43678 0
M  V30 1182 C 121.87 2.48947 1.22151 0
M  V30 1183 H 124.821 1.56744 0.248384 0
M  V30 1184 H 124.842 2.62311 2.75633 0
M  V30 1185 H 124.354 3.67013 1.26186 0
M  V30 1186 H 122.455 2.04393 3.11536 0
M  V30 1187 H 122.568 3.89885 2.78436 0
M  V30 1188 H 120.932 2.01498 1.5579 0
M  V30 1189 H 121.715 3.38107 0.594866 0
M  V30 1190 N 124.16 -0.719506 1.40217 0
M  V30 1191 C 125.576 -1.02707 1.22161 0
M  V30 1192 C 125.776 -2.0128 0.0940557 0
M  V30 1193 O 124.832 -2.46452 -0.549318 0
M  V30 1194 C 126.145 -1.57454 2.56181 0
M  V30 1195 C 127.693 -1.69458 2.63159 0
M  V30 1196 C 128.168 -2.27611 3.97438 0
M  V30 1197 N 129.659 -2.35002 3.99159 0
M  V30 1198 C 130.394 -2.80972 4.99842 0
M  V30 1199 N 129.89 -3.26723 6.10921 0
M  V30 1200 N 131.683 -2.80321 4.87213 0
M  V30 1201 H 123.834 -0.0660492 2.12297 0
M  V30 1202 H 126.097 -0.0919077 0.943534 0
M  V30 1203 H 125.803 -0.924873 3.39321 0
M  V30 1204 H 125.677 -2.56036 2.76993 0
M  V30 1205 H 128.064 -2.33543 1.80393 0
M  V30 1206 H 128.145 -0.694867 2.46181 0
M  V30 1207 H 127.789 -1.6415 4.80643 0
M  V30 1208 H 127.719 -3.2829 4.11744 0
M  V30 1209 H 130.21 -2.02685 3.18947 0
M  V30 1210 H 130.523 -3.60355 6.8364 0
M  V30 1211 H 128.868 -3.24692 6.14492 0
M  V30 1212 H 132.059 -2.43912 3.9953 0
M  V30 1213 H 132.232 -3.15831 5.65822 0
M  V30 1214 N 125.638 -1.25649 -0.95132 0
M  V30 1215 C 126.884 -1.10757 -1.69884 0
M  V30 1216 C 127.217 0.350061 -1.91019 0
M  V30 1217 O 126.492 1.25783 -1.48354 0
M  V30 1218 C 126.775 -1.86606 -3.07978 0
M  V30 1219 C 126.628 -3.40217 -2.94232 0
M  V30 1220 C 127.947 -1.65182 -4.07925 0
M  V30 1221 H 125.066 -0.40374 -0.616574 0
M  V30 1222 H 127.708 -1.54521 -1.10558 0
M  V30 1223 H 125.858 -1.49409 -3.58621 0
M  V30 1224 H 127.53 -3.87108 -2.50889 0
M  V30 1225 H 125.773 -3.67759 -2.30078 0
M  V30 1226 H 126.444 -3.88505 -3.92133 0
M  V30 1227 H 128.92 -1.9757 -3.66204 0
M  V30 1228 H 127.796 -2.20683 -5.02583 0
M  V30 1229 H 128.057 -0.593933 -4.38092 0
M  V30 1230 N 127.117 1.15442 -1.07289 0
M  V30 1231 C 128.347 1.89821 -0.815576 0
M  V30 1232 C 128.755 1.7823 0.634867 0
M  V30 1233 O 128.098 1.13152 1.44715 0
M  V30 1234 C 128.16 3.40817 -1.14385 0
M  V30 1235 C 127.824 3.76193 -2.59476 0
M  V30 1236 C 128.821 3.77269 -3.57721 0
M  V30 1237 C 126.506 4.0652 -2.95037 0
M  V30 1238 C 128.5 4.08176 -4.89562 0
M  V30 1239 C 126.187 4.37092 -4.27076 0
M  V30 1240 C 127.185 4.37902 -5.24148 0
M  V30 1241 O 126.873 4.67741 -6.53815 0
M  V30 1242 H 126.605 0.608465 -0.294528 0
M  V30 1243 H 129.159 1.472 -1.43252 0
M  V30 1244 H 127.389 3.83835 -0.469865 0
M  V30 1245 H 129.078 3.96485 -0.869179 0
M  V30 1246 H 129.844 3.5394 -3.3159 0
M  V30 1247 H 125.723 4.05049 -2.20128 0
M  V30 1248 H 129.267 4.08723 -5.65324 0
M  V30 1249 H 125.164 4.59889 -4.5296 0
M  V30 1250 H 125.932 4.85509 -6.58957 0
M  V30 1251 N 128.595 0.856903 1.32268 0
M  V30 1252 C 129.542 0.301172 2.28827 0
M  V30 1253 C 130.512 -0.593104 1.5515 0
M  V30 1254 O 131.697 -0.527537 1.83362 0
M  V30 1255 C 128.837 -0.502523 3.41422 0
M  V30 1256 C 127.95 0.417797 4.29975 0
M  V30 1257 C 127.085 -0.398749 5.29701 0
M  V30 1258 C 126.124 0.518827 6.09897 0
M  V30 1259 N 125.261 -0.260674 7.01616 0
M  V30 1260 H 130.101 1.12983 2.75751 0
M  V30 1261 H 127.638 0.568582 1.35667 0
M  V30 1262 H 129.596 -0.984141 4.05426 0
M  V30 1263 H 128.226 -1.29599 2.95642 0
M  V30 1264 H 127.278 1.01781 3.66531 0
M  V30 1265 H 128.59 1.12191 4.86019 0
M  V30 1266 H 127.744 -0.943435 5.9932 0
M  V30 1267 H 126.483 -1.13622 4.7428 0
M  V30 1268 H 125.488 1.07538 5.39181 0
M  V30 1269 H 126.713 1.25495 6.67404 0
M  V30 1270 H 124.659 -0.981198 6.4862 0
M  V30 1271 H 124.576 0.384364 7.55022 0
M  V30 1272 H 125.844 -0.787014 7.75517 0
M  V30 1273 N 130.073 -1.45103 0.615059 0
M  V30 1274 C 131.484 -1.85654 0.197383 0
M  V30 1275 C 131.835 -1.51433 -1.24749 0
M  V30 1276 O 130.96 -0.944608 -1.94695 0
M  V30 1277 C 131.555 -3.36972 0.351448 0
M  V30 1278 C 130.114 -3.76398 -0.011593 0
M  V30 1279 C 129.261 -2.69024 0.672394 0
M  V30 1280 H 132.212 -1.35797 0.821263 0
M  V30 1281 H 132.233 -3.78239 -0.414227 0
M  V30 1282 H 131.745 -3.61847 1.40314 0
M  V30 1283 H 129.846 -3.5714 -1.06217 0
M  V30 1284 H 129.959 -4.77532 0.387265 0
M  V30 1285 H 128.323 -2.54465 0.109284 0
M  V30 1286 H 129.106 -2.96735 1.72636 0
M  V30 1287 N 131.551 -0.354651 -1.53558 0
M  V30 1288 C 132.791 0.238651 -2.03002 0
M  V30 1289 C 133.155 1.46878 -1.23656 0
M  V30 1290 O 134.356 2.13699 -1.63053 0
M  V30 1291 C 132.627 0.534175 -3.53386 0
M  V30 1292 S 134.186 1.10271 -4.24719 0
M  V30 1293 H 131.004 0.0702908 -0.707517 0
M  V30 1294 H 133.606 -0.494987 -1.8913 0
M  V30 1295 H 132.31 -0.368765 -4.0874 0
M  V30 1296 H 131.841 1.29718 -3.71398 0
M  V30 1297 H 133.856 2.38772 -4.34974 0
M  V30 1298 N 133.029 1.57378 -0.0835403 0
M  V30 1299 C 134.276 1.9393 0.58287 0
M  V30 1300 C 134.604 0.964455 1.68904 0
M  V30 1301 O 133.859 -0.0179474 1.95692 0
M  V30 1302 C 134.158 3.37063 1.1884 0
M  V30 1303 C 133.824 4.50424 0.207194 0
M  V30 1304 C 132.486 4.81159 -0.0627115 0
M  V30 1305 C 134.838 5.19136 -0.463426 0
M  V30 1306 C 132.166 5.77939 -1.01012 0
M  V30 1307 C 134.518 6.16931 -1.39924 0
M  V30 1308 C 133.182 6.46078 -1.67749 0
M  V30 1309 H 132.452 0.70964 0.213287 0
M  V30 1310 H 135.099 1.90856 -0.156916 0
M  V30 1311 H 133.404 3.3666 2.00418 0
M  V30 1312 H 135.101 3.6264 1.71153 0
M  V30 1313 H 131.691 4.2646 0.427747 0
M  V30 1314 H 135.875 4.95576 -0.268034 0
M  V30 1315 H 131.131 5.98842 -1.23283 0
M  V30 1316 H 135.305 6.69273 -1.92476 0
M  V30 1317 H 132.932 7.2088 -2.41321 0
M  V30 1318 N 134.507 -0.190092 1.56449 0
M  V30 1319 C 135.753 -0.911052 1.81184 0
M  V30 1320 C 136.086 -1.82699 0.658396 0
M  V30 1321 O 135.361 -1.91491 -0.340775 0
M  V30 1322 C 135.644 -1.72297 3.16205 0
M  V30 1323 C 135.497 -0.831419 4.42049 0
M  V30 1324 C 136.816 -2.69454 3.47969 0
M  V30 1325 H 133.935 -0.32977 0.659106 0
M  V30 1326 H 136.577 -0.178169 1.89163 0
M  V30 1327 H 134.727 -2.34778 3.09534 0
M  V30 1328 H 136.399 -0.220929 4.60771 0
M  V30 1329 H 134.642 -0.138406 4.33579 0
M  V30 1330 H 135.313 -1.43461 5.33032 0
M  V30 1331 H 137.789 -2.17104 3.54972 0
M  V30 1332 H 136.665 -3.23342 4.43555 0
M  V30 1333 H 136.926 -3.48744 2.71717 0
M  V30 1334 N 135.985 -1.50799 -0.457987 0
M  V30 1335 C 137.225 -1.64088 -1.21879 0
M  V30 1336 C 137.589 -0.339848 -1.88968 0
M  V30 1337 O 138.79 -0.348301 -2.66534 0
M  V30 1338 C 137.061 -2.79726 -2.2246 0
M  V30 1339 S 138.62 -3.13225 -3.07303 0
M  V30 1340 H 135.438 -0.578314 -0.41361 0
M  V30 1341 H 138.04 -1.88632 -0.513645 0
M  V30 1342 H 136.744 -3.72722 -1.71775 0
M  V30 1343 H 136.275 -2.57308 -2.97584 0
M  V30 1344 H 138.29 -2.58062 -4.23814 0
M  V30 1345 N 137.463 0.71206 -1.40597 0
M  V30 1346 C 138.411 1.84746 -1.41321 0
M  V30 1347 C 139.405 1.66842 -0.293268 0
M  V30 1348 O 140.611 1.73904 -0.464481 0
M  V30 1349 H 136.986 0.608522 -0.441819 0
M  V30 1350 H 138.957 1.81252 -2.37045 0
M  V30 1351 C 137.706 3.22638 -1.29614 0
M  V30 1352 H 137.029 3.37023 -2.15071 0
M  V30 1353 H 138.469 4.02209 -1.3418 0
M  V30 1354 C 136.928 3.36899 -0.00673121 0
M  V30 1355 O 137.458 3.90186 0.954859 0
M  V30 1356 N 135.664 2.9053 0.0639327 0
M  V30 1357 H 135.211 2.47353 -0.719311 0
M  V30 1358 H 135.169 3.0045 0.926118 0
M  V30 1359 N 138.941 1.26152 0.944643 0
M  V30 1360 C 140.218 1.02247 1.66748 0
M  V30 1361 C 140.598 -0.448202 2.06287 0
M  V30 1362 O 139.946 -1.42779 1.78399 0
M  V30 1363 C 140.156 1.96788 2.88228 0
M  V30 1364 C 141.504 2.25201 3.59958 0
M  V30 1365 O 142.528 1.94626 2.98327 0
M  V30 1366 O 141.387 2.77242 4.70956 0
M  V30 1367 H 138.481 0.388517 0.730057 0
M  V30 1368 H 141.027 1.37348 0.99668 0
M  V30 1369 H 139.799 2.96047 2.55875 0
M  V30 1370 H 139.422 1.62145 3.63035 0
M  V30 1371 N 140.419 -1.14872 1.07899 0
M  V30 1372 C 141.366 -2.19791 0.704319 0
M  V30 1373 C 142.336 -1.63238 -0.306987 0
M  V30 1374 O 143.521 -1.8983 -0.192171 0
M  V30 1375 C 140.661 -3.44911 0.114244 0
M  V30 1376 C 139.774 -4.15637 1.1777 0
M  V30 1377 C 138.909 -5.28324 0.552037 0
M  V30 1378 C 137.948 -5.90875 1.59789 0
M  V30 1379 N 137.085 -6.95022 0.994404 0
M  V30 1380 H 141.925 -2.5119 1.60336 0
M  V30 1381 H 139.462 -1.23356 0.801352 0
M  V30 1382 H 141.42 -4.16477 -0.245544 0
M  V30 1383 H 140.05 -3.14011 -0.74813 0
M  V30 1384 H 139.102 -3.42512 1.65499 0
M  V30 1385 H 140.414 -4.5823 1.97046 0
M  V30 1386 H 139.568 -6.06538 0.1402 0
M  V30 1387 H 138.307 -4.86939 -0.272431 0
M  V30 1388 H 137.312 -5.11369 2.01945 0
M  V30 1389 H 138.537 -6.34337 2.42474 0
M  V30 1390 H 136.483 -6.55722 0.190939 0
M  V30 1391 H 136.4 -7.36073 1.72432 0
M  V30 1392 H 137.668 -7.77123 0.608253 0
M  V30 1393 N 141.898 -0.863906 -1.31812 0
M  V30 1394 C 143.123 -0.48527 -2.01643 0
M  V30 1395 C 143.548 0.913058 -1.64453 0
M  V30 1396 O 142.906 1.6014 -0.849985 0
M  V30 1397 C 142.954 -0.642625 -3.54828 0
M  V30 1398 O 142.058 0.320659 -4.11151 0
M  V30 1399 H 141.399 -0.193793 -0.635091 0
M  V30 1400 H 143.929 -1.16565 -1.68148 0
M  V30 1401 H 143.939 -0.533628 -4.04495 0
M  V30 1402 H 142.614 -1.66227 -3.81237 0
M  V30 1403 H 141.191 0.167126 -3.72525 0
M  V30 1404 N 143.376 1.44774 -0.622745 0
M  V30 1405 C 144.601 2.06999 -0.128968 0
M  V30 1406 C 145.026 1.4617 1.1839 0
M  V30 1407 O 144.384 0.560007 1.72434 0
M  V30 1408 C 144.432 3.60595 -0.0188351 0
M  V30 1409 O 143.536 3.99398 1.02739 0
M  V30 1410 H 142.877 0.659047 -0.0809544 0
M  V30 1411 H 145.407 1.85784 -0.85705 0
M  V30 1412 H 145.417 4.07627 0.174476 0
M  V30 1413 H 144.092 4.04252 -0.977384 0
M  V30 1414 H 142.669 3.64011 0.809326 0
M  V30 1415 N 144.854 0.36279 1.53368 0
M  V30 1416 C 146.102 -0.227326 2.00817 0
M  V30 1417 C 146.423 -1.49511 1.25186 0
M  V30 1418 O 145.693 -1.92482 0.364348 0
M  V30 1419 H 144.273 -0.0869923 0.741917 0
M  V30 1420 H 146.935 0.488381 1.88682 0
M  V30 1421 H 146.031 -0.456273 3.08747 0
M  V30 1422 N 146.332 -1.57332 0.0918853 0
M  V30 1423 C 147.562 -1.98286 -0.580205 0
M  V30 1424 C 147.97 -0.969713 -1.6246 0
M  V30 1425 O 147.313 0.0493501 -1.83634 0
M  V30 1426 C 147.375 -3.35603 -1.28882 0
M  V30 1427 C 147.039 -4.55285 -0.395559 0
M  V30 1428 C 148.036 -5.18687 0.355002 0
M  V30 1429 C 145.721 -5.01314 -0.314556 0
M  V30 1430 C 147.715 -6.26484 1.17458 0
M  V30 1431 C 145.402 -6.08979 0.508677 0
M  V30 1432 C 146.4 -6.71429 1.2519 0
M  V30 1433 O 146.088 -7.77018 2.06151 0
M  V30 1434 H 145.82 -0.656678 -0.160466 0
M  V30 1435 H 148.374 -2.04721 0.16688 0
M  V30 1436 H 146.604 -3.25842 -2.08241 0
M  V30 1437 H 148.293 -3.61026 -1.85512 0
M  V30 1438 H 149.059 -4.84058 0.302134 0
M  V30 1439 H 144.938 -4.5247 -0.882697 0
M  V30 1440 H 148.482 -6.75159 1.75518 0
M  V30 1441 H 144.379 -6.4304 0.563037 0
M  V30 1442 H 145.147 -7.93991 1.98799 0
M  V30 1443 N 147.81 0.181792 -1.56548 0
M  V30 1444 C 148.76 1.22961 -1.92002 0
M  V30 1445 C 149.744 1.40331 -0.787146 0
M  V30 1446 O 150.936 1.42478 -1.05019 0
M  V30 1447 C 148.065 2.57144 -2.27446 0
M  V30 1448 C 147.151 2.43512 -3.47222 0
M  V30 1449 N 147.542 1.99577 -4.64761 0
M  V30 1450 C 145.84 2.74368 -3.51622 0
M  V30 1451 C 146.541 1.98156 -5.46909 0
M  V30 1452 N 145.517 2.40164 -4.8767 0
M  V30 1453 H 149.319 0.881462 -2.8037 0
M  V30 1454 H 146.833 0.390141 -1.57644 0
M  V30 1455 H 148.83 3.32847 -2.51035 0
M  V30 1456 H 147.49 2.92771 -1.40411 0
M  V30 1457 H 148.501 1.70078 -4.89177 0
M  V30 1458 H 145.178 3.14102 -2.75038 0
M  V30 1459 H 146.568 1.65975 -6.51077 0
M  V30 1460 N 149.288 1.51039 0.449983 0
M  V30 1461 C 150.518 1.66627 1.22143 0
M  V30 1462 C 150.926 0.357776 1.85786 0
M  V30 1463 O 150.269 -0.672424 1.70951 0
M  V30 1464 C 150.331 2.71562 2.35573 0
M  V30 1465 C 149.995 4.14526 1.92399 0
M  V30 1466 C 150.992 4.99717 1.43453 0
M  V30 1467 C 148.677 4.60559 2.00475 0
M  V30 1468 C 150.671 6.28998 1.03155 0
M  V30 1469 C 148.358 5.8984 1.59788 0
M  V30 1470 C 149.356 6.73886 1.11208 0
M  V30 1471 O 149.044 8.0075 0.710935 0
M  V30 1472 H 148.776 0.562635 0.374724 0
M  V30 1473 H 151.33 1.98146 0.541036 0
M  V30 1474 H 149.56 2.3533 3.06849 0
M  V30 1475 H 151.249 2.76156 2.97478 0
M  V30 1476 H 152.015 4.65361 1.36618 0
M  V30 1477 H 147.894 3.95273 2.37235 0
M  V30 1478 H 151.438 6.9455 0.651663 0
M  V30 1479 H 147.335 6.23713 1.66289 0
M  V30 1480 H 148.103 8.142 0.837913 0
M  V30 1481 N 150.766 -0.704594 1.40972 0
M  V30 1482 C 152.014 -1.46169 1.39568 0
M  V30 1483 C 152.335 -1.95 0.00253745 0
M  V30 1484 O 151.605 -1.71095 -0.954114 0
M  V30 1485 H 150.185 -0.542326 0.513704 0
M  V30 1486 H 152.847 -0.834553 1.76128 0
M  V30 1487 H 151.943 -2.32922 2.07735 0
M  V30 1488 N 152.244 -1.26651 -0.937939 0
M  V30 1489 C 153.49 -1.12553 -1.687 0
M  V30 1490 C 153.823 0.329782 -1.91379 0
M  V30 1491 O 153.098 1.24202 -1.4968 0
M  V30 1492 C 153.381 -1.89862 -3.05981 0
M  V30 1493 C 153.234 -3.43318 -2.90607 0
M  V30 1494 C 154.553 -1.69499 -4.0615 0
M  V30 1495 H 151.672 -0.410257 -0.612257 0
M  V30 1496 H 154.314 -1.55685 -1.08913 0
M  V30 1497 H 152.464 -1.53204 -3.57017 0
M  V30 1498 H 154.136 -3.89747 -2.46769 0
M  V30 1499 H 152.379 -3.70179 -2.26164 0
M  V30 1500 H 153.05 -3.92642 -3.8799 0
M  V30 1501 H 155.526 -2.01442 -3.64088 0
M  V30 1502 H 154.402 -2.26002 -5.00214 0
M  V30 1503 H 154.663 -0.640365 -4.37438 0
M  V30 1504 N 153.722 1.14298 -1.08507 0
M  V30 1505 C 154.947 1.8976 -0.837001 0
M  V30 1506 C 155.372 1.78097 0.605228 0
M  V30 1507 O 154.73 1.12188 1.4242 0
M  V30 1508 C 154.778 3.37685 -1.26495 0
M  V30 1509 O 153.882 4.10281 -0.417514 0
M  V30 1510 H 153.223 0.590365 -0.303917 0
M  V30 1511 H 155.753 1.44672 -1.44676 0
M  V30 1512 H 155.763 3.88501 -1.24625 0
M  V30 1513 H 154.438 3.45492 -2.31534 0
M  V30 1514 H 153.015 3.69536 -0.499722 0
M  V30 1515 N 155.201 0.870884 1.31352 0
M  V30 1516 C 156.426 0.495957 2.01383 0
M  V30 1517 C 156.851 -0.904324 1.64935 0
M  V30 1518 O 156.209 -1.59687 0.858466 0
M  V30 1519 C 156.257 0.661433 3.54482 0
M  V30 1520 O 155.361 -0.298851 4.11316 0
M  V30 1521 H 154.702 0.197158 0.634054 0
M  V30 1522 H 157.232 1.17455 1.67527 0
M  V30 1523 H 157.242 0.555072 4.04207 0
M  V30 1524 H 155.917 1.68246 3.8035 0
M  V30 1525 H 154.494 -0.147368 3.72609 0
M  V30 1526 N 156.679 -1.44442 0.630414 0
M  V30 1527 C 157.919 -2.03934 0.137919 0
M  V30 1528 C 158.283 -1.48509 -1.21692 0
M  V30 1529 O 159.484 -1.99499 -1.80149 0
M  V30 1530 C 157.755 -3.57187 0.123373 0
M  V30 1531 S 159.314 -4.37741 -0.304604 0
M  V30 1532 H 156.132 -0.708401 0.0607353 0
M  V30 1533 H 158.734 -1.76835 0.833643 0
M  V30 1534 H 157.438 -3.95032 1.11256 0
M  V30 1535 H 156.969 -3.88895 -0.59362 0
M  V30 1536 H 158.984 -4.71403 -1.54897 0
M  V30 1537 N 158.157 -0.370918 -1.53173 0
M  V30 1538 C 159.067 0.480823 -2.2962 0
M  V30 1539 C 160.083 1.08789 -1.35798 0
M  V30 1540 O 161.259 1.09768 -1.68858 0
M  V30 1541 C 158.324 1.60227 -3.07454 0
M  V30 1542 C 157.385 1.0222 -4.16953 0
M  V30 1543 C 156.618 2.0902 -4.91066 0
M  V30 1544 O 156.841 3.30222 -4.65091 0
M  V30 1545 O 155.775 1.71778 -5.76867 0
M  V30 1546 H 159.601 -0.141421 -3.03371 0
M  V30 1547 H 157.186 -0.135146 -1.48787 0
M  V30 1548 H 159.068 2.25417 -3.56041 0
M  V30 1549 H 157.743 2.20982 -2.36535 0
M  V30 1550 H 156.65 0.334064 -3.72605 0
M  V30 1551 H 157.983 0.459131 -4.90054 0
M  V30 1552 N 159.635 1.57281 -0.100228 0
M  V30 1553 C 160.883 1.94153 0.561157 0
M  V30 1554 C 161.204 0.983157 1.68401 0
M  V30 1555 O 160.474 0.0361132 1.95867 0
M  V30 1556 H 159.054 0.716791 0.210283 0
M  V30 1557 H 161.716 1.94202 -0.164765 0
M  V30 1558 H 160.812 2.96709 0.968008 0
M  V30 1559 N 161.113 -0.173488 1.56642 0
M  V30 1560 C 162.353 -0.896984 1.83667 0
M  V30 1561 C 162.717 -1.79523 0.680842 0
M  V30 1562 O 163.918 -2.55616 0.831488 0
M  V30 1563 C 162.189 -1.67351 3.15798 0
M  V30 1564 S 163.748 -2.44607 3.64298 0
M  V30 1565 H 160.566 -0.300464 0.644393 0
M  V30 1566 H 163.168 -0.158775 1.94854 0
M  V30 1567 H 161.872 -1.00462 3.97914 0
M  V30 1568 H 161.403 -2.45313 3.07546 0
M  V30 1569 H 163.418 -3.69261 3.31452 0
M  V30 1570 N 162.591 -1.51276 -0.441967 0
M  V30 1571 C 163.538 -1.72256 -1.53612 0
M  V30 1572 C 164.508 -0.564164 -1.56225 0
M  V30 1573 O 165.693 -0.798074 -1.73307 0
M  V30 1574 C 162.833 -1.84932 -2.91366 0
M  V30 1575 C 161.946 -3.12459 -2.98317 0
M  V30 1576 C 161.081 -3.15758 -4.27166 0
M  V30 1577 C 160.12 -4.37619 -4.27967 0
M  V30 1578 N 159.257 -4.38493 -5.48333 0
M  V30 1579 H 164.097 -2.65654 -1.35026 0
M  V30 1580 H 161.634 -1.31662 -0.656009 0
M  V30 1581 H 163.592 -1.90263 -3.7129 0
M  V30 1582 H 162.222 -0.949461 -3.08521 0
M  V30 1583 H 161.274 -3.1646 -2.11086 0
M  V30 1584 H 162.586 -4.02382 -2.94771 0
M  V30 1585 H 161.74 -3.19979 -5.15459 0
M  V30 1586 H 160.479 -2.23715 -4.33362 0
M  V30 1587 H 159.484 -4.33579 -3.38067 0
M  V30 1588 H 160.709 -5.30921 -4.23438 0
M  V30 1589 H 158.655 -3.49318 -5.55259 0
M  V30 1590 H 158.572 -5.22219 -5.46647 0
M  V30 1591 H 159.84 -4.469 -6.38671 0
M  V30 1592 N 164.069 0.697108 -1.41344 0
M  V30 1593 C 165.317 1.45426 -1.40341 0
M  V30 1594 C 165.638 1.94996 -0.0128787 0
M  V30 1595 O 164.908 1.71599 0.945027 0
M  V30 1596 H 163.488 0.539594 -0.516573 0
M  V30 1597 H 166.15 0.825201 -1.76569 0
M  V30 1598 H 165.246 2.31817 -2.08967 0
M  V30 1599 N 165.547 1.27147 0.931209 0
M  V30 1600 C 166.794 1.13278 1.67852 0
M  V30 1601 C 167.122 -0.32204 1.91815 0
M  V30 1602 O 166.377 -1.25224 1.50391 0
M  V30 1603 C 166.676 1.8579 3.05314 0
M  V30 1604 C 166.342 3.35657 3.01073 0
M  V30 1605 C 165.004 3.76536 2.99623 0
M  V30 1606 C 167.356 4.31299 2.92627 0
M  V30 1607 C 164.684 5.11426 2.87506 0
M  V30 1608 C 167.036 5.66242 2.82051 0
M  V30 1609 C 165.7 6.06418 2.7895 0
M  V30 1610 H 164.97 0.414515 0.614214 0
M  V30 1611 H 167.617 1.57712 1.08624 0
M  V30 1612 H 165.922 1.33854 3.68226 0
M  V30 1613 H 167.619 1.72491 3.62005 0
M  V30 1614 H 164.209 3.03146 3.02986 0
M  V30 1615 H 168.393 4.00692 2.92848 0
M  V30 1616 H 163.649 5.41705 2.83489 0
M  V30 1617 H 167.823 6.40026 2.74481 0
M  V30 1618 H 165.45 7.10895 2.69318 0
M  V30 1619 N 167.025 -1.13721 1.09112 0
M  V30 1620 C 168.272 -1.84924 0.825192 0
M  V30 1621 C 168.6 -1.83347 -0.649151 0
M  V30 1622 O 167.855 -1.26449 -1.49362 0
M  V30 1623 C 168.154 -3.32861 1.30146 0
M  V30 1624 C 167.82 -3.54621 2.78486 0
M  V30 1625 C 166.482 -3.60268 3.18999 0
M  V30 1626 C 168.834 -3.62855 3.74146 0
M  V30 1627 C 166.162 -3.71679 4.53951 0
M  V30 1628 C 168.514 -3.75793 5.08883 0
M  V30 1629 C 167.178 -3.79692 5.4899 0
M  V30 1630 H 166.448 -0.676684 0.301959 0
M  V30 1631 H 169.095 -1.3428 1.36533 0
M  V30 1632 H 167.4 -3.85835 0.681064 0
M  V30 1633 H 169.097 -3.86395 1.07236 0
M  V30 1634 H 165.687 -3.50879 2.46134 0
M  V30 1635 H 169.871 -3.57775 3.43963 0
M  V30 1636 H 165.127 -3.72963 4.84467 0
M  V30 1637 H 169.301 -3.81107 5.82864 0
M  V30 1638 H 166.928 -3.88287 6.53558 0
M  V30 1639 N 168.503 -0.877838 -1.30888 0
M  V30 1640 C 169.919 -0.570844 -1.49042 0
M  V30 1641 C 170.119 0.893159 -1.80624 0
M  V30 1642 O 169.175 1.67485 -1.88958 0
M  V30 1643 C 170.488 -1.47784 -2.61878 0
M  V30 1644 C 172.036 -1.48071 -2.75761 0
M  V30 1645 C 172.511 -2.37347 -3.91702 0
M  V30 1646 N 174.002 -2.35271 -3.99001 0
M  V30 1647 C 174.737 -3.01063 -4.88004 0
M  V30 1648 N 174.233 -3.76055 -5.81854 0
M  V30 1649 N 176.026 -2.90332 -4.81315 0
M  V30 1650 H 168.177 -1.82502 -1.0866 0
M  V30 1651 H 170.44 -0.780797 -0.537644 0
M  V30 1652 H 170.146 -2.51993 -2.45341 0
M  V30 1653 H 170.02 -1.18215 -3.58197 0
M  V30 1654 H 172.407 -0.446166 -2.91708 0
M  V30 1655 H 172.488 -1.81668 -1.80085 0
M  V30 1656 H 172.132 -3.40883 -3.76512 0
M  V30 1657 H 172.062 -2.01071 -4.86701 0
M  V30 1658 H 174.553 -1.80768 -3.3186 0
M  V30 1659 H 174.866 -4.23366 -6.46514 0
M  V30 1660 H 173.211 -3.80163 -5.81808 0
M  V30 1661 H 176.402 -2.31278 -4.06974 0
M  V30 1662 H 176.575 -3.41885 -5.50471 0
M  V30 1663 N 169.982 1.44106 -0.638065 0
M  V30 1664 C 171.398 1.56672 -0.304286 0
M  V30 1665 C 171.598 1.6244 1.19228 0
M  V30 1666 O 170.654 1.57121 1.9766 0
M  V30 1667 C 171.967 2.83503 -1.00231 0
M  V30 1668 C 173.515 2.97226 -0.981116 0
M  V30 1669 C 173.99 4.26868 -1.65974 0
M  V30 1670 N 175.481 4.33698 -1.62666 0
M  V30 1671 C 176.216 5.32745 -2.12063 0
M  V30 1672 N 175.712 6.38157 -2.6968 0
M  V30 1673 N 177.505 5.24299 -2.02651 0
M  V30 1674 H 169.656 1.38605 -1.60942 0
M  V30 1675 H 171.919 0.664661 -0.675965 0
M  V30 1676 H 171.625 2.85251 -2.0573 0
M  V30 1677 H 171.499 3.73251 -0.54439 0
M  V30 1678 H 173.886 2.95027 0.0654188 0
M  V30 1679 H 173.967 2.08808 -1.47759 0
M  V30 1680 H 173.611 4.29826 -2.70576 0
M  V30 1681 H 173.541 5.14156 -1.13804 0
M  V30 1682 H 176.032 3.58138 -1.20606 0
M  V30 1683 H 176.345 7.10029 -3.05087 0
M  V30 1684 H 174.69 6.38823 -2.73734 0
M  V30 1685 H 177.881 4.4086 -1.57353 0
M  V30 1686 H 178.054 6.01334 -2.41457 0
M  V30 1687 N 171.46 0.379036 1.52974 0
M  V30 1688 C 172.685 -0.209353 2.06341 0
M  V30 1689 C 173.11 -1.40583 1.24972 0
M  V30 1690 O 172.468 -1.79246 0.272155 0
M  V30 1691 C 172.516 -0.567786 3.56102 0
M  V30 1692 O 171.62 -1.66318 3.77375 0
M  V30 1693 H 170.961 -0.0272919 0.663439 0
M  V30 1694 H 173.491 0.543536 1.97248 0
M  V30 1695 H 173.501 -0.835003 3.99364 0
M  V30 1696 H 172.176 0.307013 4.14765 0
M  V30 1697 H 170.753 -1.39048 3.46006 0
M  V30 1698 N 172.938 -1.57226 0.108567 0
M  V30 1699 C 174.187 -1.94008 -0.551703 0
M  V30 1700 C 174.5 -0.993442 -1.68494 0
M  V30 1701 O 175.706 -1.25551 -2.40726 0
M  V30 1702 C 174.162 -3.44763 -1.03279 0
M  V30 1703 C 173.77 -4.47943 0.0714193 0
M  V30 1704 C 175.514 -3.90483 -1.66503 0
M  V30 1705 C 173.421 -5.89865 -0.425779 0
M  V30 1706 H 172.351 -0.724206 -0.209863 0
M  V30 1707 H 175.002 -1.82547 0.186741 0
M  V30 1708 H 173.384 -3.51422 -1.82533 0
M  V30 1709 H 174.558 -4.52942 0.847365 0
M  V30 1710 H 172.873 -4.11913 0.609669 0
M  V30 1711 H 175.47 -4.93925 -2.04798 0
M  V30 1712 H 175.813 -3.29877 -2.53942 0
M  V30 1713 H 176.346 -3.86581 -0.938074 0
M  V30 1714 H 173.085 -6.54202 0.412316 0
M  V30 1715 H 172.605 -5.88309 -1.16843 0
M  V30 1716 H 174.284 -6.40844 -0.890397 0
M  V30 1717 N 174.416 0.165178 -1.56732 0
M  V30 1718 C 175.348 1.22911 -1.93457 0
M  V30 1719 C 176.361 1.40152 -0.828333 0
M  V30 1720 O 177.55 1.40046 -1.10677 0
M  V30 1721 C 174.65 2.59686 -2.17753 0
M  V30 1722 C 173.823 2.63663 -3.48999 0
M  V30 1723 C 172.882 3.81845 -3.62051 0
M  V30 1724 O 171.908 3.67559 -4.34613 0
M  V30 1725 N 173.11 4.98557 -2.97357 0
M  V30 1726 H 175.875 0.917118 -2.85323 0
M  V30 1727 H 173.436 0.354895 -1.57962 0
M  V30 1728 H 175.428 3.37225 -2.23743 0
M  V30 1729 H 173.998 2.83251 -1.32242 0
M  V30 1730 H 173.218 1.72173 -3.54612 0
M  V30 1731 H 174.506 2.63336 -4.35352 0
M  V30 1732 H 173.904 5.13065 -2.38287 0
M  V30 1733 H 172.461 5.73936 -3.08934 0
M  V30 1734 N 175.894 1.51508 0.433938 0
M  V30 1735 C 176.841 1.73068 1.52696 0
M  V30 1736 C 177.811 0.572441 1.55924 0
M  V30 1737 O 178.996 0.807253 1.72882 0
M  V30 1738 C 176.136 1.86474 2.90381 0
M  V30 1739 C 175.249 3.14037 2.96656 0
M  V30 1740 C 174.384 3.18019 4.25485 0
M  V30 1741 C 173.423 4.39882 4.2564 0
M  V30 1742 N 172.56 4.41394 5.45999 0
M  V30 1743 H 177.4 2.66366 1.33615 0
M  V30 1744 H 174.937 1.32008 0.649018 0
M  V30 1745 H 176.895 1.92229 3.70275 0
M  V30 1746 H 175.525 0.965809 3.08013 0
M  V30 1747 H 174.577 3.17575 2.09404 0
M  V30 1748 H 175.889 4.0394 2.92633 0
M  V30 1749 H 175.043 3.22708 5.13755 0
M  V30 1750 H 173.782 2.2601 4.3217 0
M  V30 1751 H 172.787 4.35366 3.35763 0
M  V30 1752 H 174.012 5.33159 4.20617 0
M  V30 1753 H 171.958 3.52258 5.53399 0
M  V30 1754 H 171.875 5.25111 5.4387 0
M  V30 1755 H 173.143 4.50281 6.36292 0
M  V30 1756 N 177.372 -0.689602 1.41712 0
M  V30 1757 C 178.32 -1.82475 1.44242 0
M  V30 1758 C 179.314 -1.66354 0.319774 0
M  V30 1759 O 180.52 -1.73143 0.492089 0
M  V30 1760 H 176.895 -0.601416 0.451445 0
M  V30 1761 H 178.866 -1.77458 2.39899 0
M  V30 1762 C 177.615 -3.20535 1.3473 0
M  V30 1763 H 176.938 -3.33559 2.20405 0
M  V30 1764 H 178.378 -4.00023 1.40562 0
M  V30 1765 C 176.837 -3.36846 0.0603281 0
M  V30 1766 O 177.367 -3.91656 -0.892663 0
M  V30 1767 N 175.573 -2.90595 -0.0177039 0
M  V30 1768 H 175.12 -2.46178 0.758572 0
M  V30 1769 H 175.078 -3.01886 -0.878201 0
M  V30 1770 N 178.85 -1.27639 -0.924453 0
M  V30 1771 C 179.783 -1.04966 -2.02626 0
M  V30 1772 C 180.761 0.0309505 -1.62571 0
M  V30 1773 O 181.945 -0.114846 -1.8815 0
M  V30 1774 C 179.072 -0.59292 -3.3347 0
M  V30 1775 C 178.118 -1.66858 -3.92506 0
M  V30 1776 S 178.951 -3.2619 -4.24689 0
M  V30 1777 C 180.107 -2.82325 -5.58609 0
M  V30 1778 H 180.34 -1.98252 -2.21547 0
M  V30 1779 H 177.873 -1.11506 -1.06798 0
M  V30 1780 H 179.831 -0.336086 -4.09122 0
M  V30 1781 H 178.492 0.319939 -3.12466 0
M  V30 1782 H 177.685 -1.30038 -4.86935 0
M  V30 1783 H 177.287 -1.87766 -3.2345 0
M  V30 1784 H 179.579 -2.2783 -6.38044 0
M  V30 1785 H 180.522 -3.75511 -6.00331 0
M  V30 1786 H 180.93 -2.21367 -5.19285 0
M  V30 1787 N 180.328 1.1314 -1.09713 0
M  V30 1788 C 181.574 1.84757 -0.836224 0
M  V30 1789 C 181.907 1.8347 0.636598 0
M  V30 1790 O 181.182 1.27491 1.46889 0
M  V30 1791 C 181.465 3.32782 -1.37578 0
M  V30 1792 C 181.318 3.42567 -2.91493 0
M  V30 1793 C 182.637 4.28307 -1.01198 0
M  V30 1794 H 179.756 0.67082 -0.305236 0
M  V30 1795 H 182.398 1.3278 -1.35903 0
M  V30 1796 H 180.548 3.77177 -0.931097 0
M  V30 1797 H 182.22 3.06862 -3.44432 0
M  V30 1798 H 180.463 2.83349 -3.28475 0
M  V30 1799 H 181.134 4.46674 -3.24324 0
M  V30 1800 H 183.61 3.91999 -1.39556 0
M  V30 1801 H 182.486 5.30307 -1.41653 0
M  V30 1802 H 182.747 4.42029 0.0794833 0
M  V30 1803 N 181.806 0.884767 1.30421 0
M  V30 1804 C 183.036 0.517293 2.00019 0
M  V30 1805 C 183.444 -0.898632 1.66497 0
M  V30 1806 O 182.787 -1.60245 0.898181 0
M  V30 1807 C 182.849 0.612025 3.54252 0
M  V30 1808 C 182.513 1.99222 4.1129 0
M  V30 1809 C 183.51 2.9616 4.273 0
M  V30 1810 C 181.195 2.29755 4.46674 0
M  V30 1811 C 183.189 4.21764 4.77906 0
M  V30 1812 C 180.876 3.55606 4.96979 0
M  V30 1813 C 181.874 4.51425 5.12547 0
M  V30 1814 O 181.562 5.75043 5.61766 0
M  V30 1815 H 181.294 0.198529 0.64619 0
M  V30 1816 H 183.848 1.1919 1.67281 0
M  V30 1817 H 182.078 -0.119561 3.86515 0
M  V30 1818 H 183.767 0.255859 4.05093 0
M  V30 1819 H 184.533 2.73882 4.00267 0
M  V30 1820 H 180.412 1.55942 4.33824 0
M  V30 1821 H 183.956 4.96561 4.89972 0
M  V30 1822 H 179.853 3.7772 5.23448 0
M  V30 1823 H 180.621 5.77422 5.80109 0
M  V30 1824 N 183.284 -1.43765 0.645699 0
M  V30 1825 C 184.512 -2.06253 0.163556 0
M  V30 1826 C 184.927 -1.48352 -1.16778 0
M  V30 1827 O 184.284 -0.611932 -1.71935 0
M  V30 1828 C 184.335 -3.61453 0.0583186 0
M  V30 1829 O 184.056 -4.172 1.33702 0
M  V30 1830 C 185.557 -4.41002 -0.450795 0
M  V30 1831 H 182.777 -0.665413 0.0864077 0
M  V30 1832 H 185.321 -1.84396 0.884222 0
M  V30 1833 H 183.476 -3.82522 -0.612865 0
M  V30 1834 H 183.89 -5.10791 1.19131 0
M  V30 1835 H 185.364 -5.49966 -0.473403 0
M  V30 1836 H 185.841 -4.13488 -1.48068 0
M  V30 1837 H 186.447 -4.24886 0.187637 0
M  V30 1838 N 184.763 -0.387143 -1.52771 0
M  V30 1839 C 186.003 0.195537 -2.03463 0
M  V30 1840 C 186.367 1.44222 -1.26744 0
M  V30 1841 O 187.568 2.10192 -1.67549 0
M  V30 1842 C 185.839 0.459097 -3.54439 0
M  V30 1843 S 187.398 1.01237 -4.26962 0
M  V30 1844 H 184.216 0.0552675 -0.708849 0
M  V30 1845 H 186.818 -0.534992 -1.88037 0
M  V30 1846 H 185.522 -0.455382 -4.07866 0
M  V30 1847 H 185.053 1.21811 -3.74066 0
M  V30 1848 H 187.068 2.29492 -4.39941 0
M  V30 1849 N 186.241 1.57166 -0.116904 0
M  V30 1850 C 187.191 2.11756 0.845178 0
M  V30 1851 C 188.175 1.03783 1.22955 0
M  V30 1852 O 189.367 1.3002 1.20099 0
M  V30 1853 C 186.496 2.71886 2.09602 0
M  V30 1854 C 185.582 3.86937 1.7361 0
M  V30 1855 N 185.973 4.94073 1.08284 0
M  V30 1856 C 184.271 3.97082 2.03082 0
M  V30 1857 C 184.972 5.74477 0.913855 0
M  V30 1858 N 183.948 5.2423 1.43818 0
M  V30 1859 H 187.75 2.91967 0.336523 0
M  V30 1860 H 185.264 1.62174 0.0856332 0
M  V30 1861 H 187.261 3.09338 2.79492 0
M  V30 1862 H 185.921 1.93138 2.61013 0
M  V30 1863 H 186.932 5.12483 0.747067 0
M  V30 1864 H 183.609 3.29372 2.56554 0
M  V30 1865 H 184.999 6.70701 0.40125 0
M  V30 1866 N 187.719 -0.156864 1.56817 0
M  V30 1867 C 189.135 -0.50916 1.5126 0
M  V30 1868 C 189.335 -1.83897 0.823658 0
M  V30 1869 O 188.391 -2.49469 0.390055 0
M  V30 1870 C 189.704 -0.52857 2.96018 0
M  V30 1871 C 191.252 -0.614771 3.06903 0
M  V30 1872 C 191.727 -0.664938 4.53147 0
M  V30 1873 N 193.218 -0.727433 4.57452 0
M  V30 1874 C 193.953 -0.787067 5.67973 0
M  V30 1875 N 193.449 -0.806649 6.88088 0
M  V30 1876 N 195.242 -0.827195 5.5598 0
M  V30 1877 H 187.393 0.714935 2.00006 0
M  V30 1878 H 189.656 0.259526 0.911784 0
M  V30 1879 H 189.362 0.380154 3.49639 0
M  V30 1880 H 189.236 -1.36998 3.51442 0
M  V30 1881 H 191.623 -1.51392 2.53307 0
M  V30 1882 H 191.704 0.253597 2.5454 0
M  V30 1883 H 191.348 0.230011 5.07379 0
M  V30 1884 H 191.278 -1.54966 5.03282 0
M  V30 1885 H 193.769 -0.719998 3.70978 0
M  V30 1886 H 194.082 -0.853727 7.6807 0
M  V30 1887 H 192.427 -0.774687 6.90669 0
M  V30 1888 H 195.618 -0.808998 4.61056 0
M  V30 1889 H 195.791 -0.870206 6.4213 0
M  V30 1890 N 189.197 -1.51736 -0.425897 0
M  V30 1891 C 190.474 -1.55519 -1.1863 0
M  V30 1892 C 190.854 -0.326219 -2.08564 0
M  V30 1893 O 190.202 0.688012 -2.17896 0
M  V30 1894 C 190.412 -2.87521 -1.9782 0
M  V30 1895 C 191.76 -3.39899 -2.54468 0
M  V30 1896 O 192.784 -2.89148 -2.08019 0
M  V30 1897 O 191.643 -4.2848 -3.39215 0
M  V30 1898 H 188.737 -0.625739 -0.540721 0
M  V30 1899 H 191.283 -1.64055 -0.434038 0
M  V30 1900 H 190.055 -3.68422 -1.31836 0
M  V30 1901 H 189.678 -2.822 -2.80088 0
M  V30 1902 N 190.675 0.682077 -1.42076 0
M  V30 1903 C 191.622 1.79578 -1.44984 0
M  V30 1904 C 192.592 1.6332 -0.302614 0
M  V30 1905 O 193.777 1.83978 -0.505633 0
M  V30 1906 C 190.917 3.1756 -1.35091 0
M  V30 1907 C 190.03 3.45156 -2.59791 0
M  V30 1908 C 189.165 4.72826 -2.42093 0
M  V30 1909 C 188.204 4.93433 -3.62202 0
M  V30 1910 N 187.341 6.12338 -3.43491 0
M  V30 1911 H 192.181 1.76427 -2.40161 0
M  V30 1912 H 189.718 0.861376 -1.19242 0
M  V30 1913 H 191.676 3.97287 -1.27354 0
M  V30 1914 H 190.306 3.19854 -0.435133 0
M  V30 1915 H 189.358 2.59736 -2.77923 0
M  V30 1916 H 190.67 3.5628 -3.49094 0
M  V30 1917 H 189.824 5.60631 -2.319 0
M  V30 1918 H 188.563 4.63973 -1.50268 0
M  V30 1919 H 187.568 4.04073 -3.72834 0
M  V30 1920 H 188.793 5.04136 -4.54998 0
M  V30 1921 H 186.739 6.04672 -2.54377 0
M  V30 1922 H 186.656 6.2429 -4.26377 0
M  V30 1923 H 187.924 7.02841 -3.37097 0
M  V30 1924 N 192.153 1.28127 0.917671 0
M  V30 1925 C 193.101 1.11569 2.04096 0
M  V30 1926 C 194.095 0.0360242 1.69362 0
M  V30 1927 O 195.301 0.194501 1.78946 0
M  V30 1928 H 191.676 0.344097 0.668656 0
M  V30 1929 H 193.647 2.06711 2.15205 0
M  V30 1930 C 192.396 0.790197 3.38602 0
M  V30 1931 H 191.719 1.61293 3.6582 0
M  V30 1932 H 193.159 0.714271 4.1794 0
M  V30 1933 C 191.618 -0.505897 3.3308 0
M  V30 1934 O 192.148 -1.53736 3.71117 0
M  V30 1935 N 190.354 -0.505193 2.86175 0
M  V30 1936 H 189.901 0.334621 2.55417 0
M  V30 1937 H 189.859 -1.37243 2.82863 0
M  V30 1938 N 193.631 -1.12557 1.10312 0
M  V30 1939 C 194.871 -1.8568 0.854543 0
M  V30 1940 C 195.235 -1.82091 -0.608843 0
M  V30 1941 O 196.436 -2.50544 -0.973717 0
M  V30 1942 C 194.707 -3.2942 1.38626 0
M  V30 1943 S 196.266 -4.19931 1.27293 0
M  V30 1944 H 193.084 -0.640427 0.308827 0
M  V30 1945 H 195.686 -1.35599 1.40831 0
M  V30 1946 H 194.39 -3.2959 2.44537 0
M  V30 1947 H 193.921 -3.84566 0.82902 0
M  V30 1948 H 195.936 -4.95668 0.229776 0
M  V30 1949 N 195.109 -0.891671 -1.2995 0
M  V30 1950 C 196.358 -0.509521 -1.95158 0
M  V30 1951 C 196.671 0.947388 -1.71125 0
M  V30 1952 O 197.877 1.43669 -2.30372 0
M  V30 1953 C 196.333 -0.860315 -3.49466 0
M  V30 1954 C 195.941 -2.33545 -3.8231 0
M  V30 1955 C 197.685 -0.547687 -4.20952 0
M  V30 1956 C 195.592 -2.62752 -5.29826 0
M  V30 1957 H 194.522 -0.18682 -0.730489 0
M  V30 1958 H 197.173 -1.08756 -1.47798 0
M  V30 1959 H 195.555 -0.211285 -3.95436 0
M  V30 1960 H 196.729 -3.02936 -3.47227 0
M  V30 1961 H 195.044 -2.61629 -3.23944 0
M  V30 1962 H 197.641 -0.742854 -5.29515 0
M  V30 1963 H 197.984 0.51332 -4.13123 0
M  V30 1964 H 198.517 -1.1542 -3.80688 0
M  V30 1965 H 195.256 -3.6762 -5.42712 0
M  V30 1966 H 194.776 -1.97977 -5.66185 0
M  V30 1967 H 196.455 -2.48601 -5.97333 0
M  V30 1968 N 196.587 1.43421 -0.653314 0
M  V30 1969 C 197.836 2.01032 -0.164076 0
M  V30 1970 C 198.149 1.52147 1.22926 0
M  V30 1971 O 199.355 2.02031 1.81371 0
M  V30 1972 C 197.811 3.59082 -0.24252 0
M  V30 1973 C 197.419 4.1696 -1.63855 0
M  V30 1974 C 199.163 4.24079 0.18911 0
M  V30 1975 C 197.07 5.67304 -1.67092 0
M  V30 1976 H 196 0.751798 -0.0575769 0
M  V30 1977 H 198.651 1.6439 -0.815362 0
M  V30 1978 H 197.033 3.93125 0.476276 0
M  V30 1979 H 198.207 3.94416 -2.38271 0
M  V30 1980 H 196.522 3.64335 -2.01616 0
M  V30 1981 H 199.119 5.34381 0.184775 0
M  V30 1982 H 199.462 3.98005 1.22056 0
M  V30 1983 H 199.995 3.94918 -0.477938 0
M  V30 1984 H 196.734 5.98145 -2.68146 0
M  V30 1985 H 196.254 5.91904 -0.970014 0
M  V30 1986 H 197.933 6.31344 -1.4147 0
M  V30 1987 N 198.065 0.39524 1.52563 0
M  V30 1988 C 199.013 -0.451859 2.28169 0
M  V30 1989 C 200.007 -1.05792 1.32304 0
M  V30 1990 O 201.213 -0.997718 1.49818 0
M  V30 1991 H 197.588 -0.164481 0.733792 0
M  V30 1992 H 199.559 0.207199 2.9768 0
M  V30 1993 C 198.308 -1.56385 3.10546 0
M  V30 1994 H 197.631 -1.10682 3.84174 0
M  V30 1995 H 199.071 -2.13067 3.66577 0
M  V30 1996 C 197.53 -2.52328 2.23231 0
M  V30 1997 O 198.06 -3.5588 1.86312 0
M  V30 1998 N 196.266 -2.22209 1.87274 0
M  V30 1999 H 195.813 -1.38033 2.17496 0
M  V30 2000 H 195.771 -2.86652 1.29143 0
M  V30 2001 N 199.544 -1.57102 0.125237 0
M  V30 2002 C 200.491 -2.15641 -0.822655 0
M  V30 2003 C 201.461 -1.08313 -1.25927 0
M  V30 2004 O 202.646 -1.36251 -1.33567 0
M  V30 2005 C 199.786 -2.76504 -2.06494 0
M  V30 2006 C 198.899 -3.98158 -1.67612 0
M  V30 2007 C 198.034 -4.47088 -2.86854 0
M  V30 2008 C 197.073 -5.6126 -2.44242 0
M  V30 2009 N 196.21 -6.04905 -3.56419 0
M  V30 2010 H 201.05 -2.96313 -0.316625 0
M  V30 2011 H 198.587 -1.46388 -0.144588 0
M  V30 2012 H 200.545 -3.09925 -2.79289 0
M  V30 2013 H 199.175 -1.98512 -2.54545 0
M  V30 2014 H 198.227 -3.70858 -0.846661 0
M  V30 2015 H 199.539 -4.80934 -1.32301 0
M  V30 2016 H 198.693 -4.82451 -3.67867 0
M  V30 2017 H 197.432 -3.63275 -3.25396 0
M  V30 2018 H 196.437 -5.25495 -1.61663 0
M  V30 2019 H 197.662 -6.46843 -2.0681 0
M  V30 2020 H 195.608 -5.24032 -3.94623 0
M  V30 2021 H 195.525 -6.82552 -3.25051 0
M  V30 2022 H 196.793 -6.44907 -4.37853 0
M  V30 2023 N 201.022 0.148545 -1.56898 0
M  V30 2024 C 202.268 0.862694 -1.83536 0
M  V30 2025 C 202.601 1.80889 -0.706604 0
M  V30 2026 O 201.876 1.92328 0.289885 0
M  V30 2027 C 202.159 1.63853 -3.20662 0
M  V30 2028 C 202.012 0.713925 -4.44098 0
M  V30 2029 C 203.331 2.60133 -3.54991 0
M  V30 2030 H 200.45 0.312179 -0.667618 0
M  V30 2031 H 203.092 0.127953 -1.89569 0
M  V30 2032 H 201.242 2.26489 -3.1565 0
M  V30 2033 H 202.914 0.098686 -4.61194 0
M  V30 2034 H 201.157 0.0234019 -4.33794 0
M  V30 2035 H 201.828 1.29278 -5.36648 0
M  V30 2036 H 204.304 2.07616 -3.60603 0
M  V30 2037 H 203.18 3.11468 -4.51972 0
M  V30 2038 H 203.441 3.41417 -2.80868 0
M  V30 2039 N 202.5 1.5196 0.417844 0
M  V30 2040 C 203.728 1.69426 1.18753 0
M  V30 2041 C 204.143 0.399955 1.84515 0
M  V30 2042 O 203.5 -0.623288 1.71527 0
M  V30 2043 C 203.551 2.82375 2.25714 0
M  V30 2044 O 203.272 4.06793 1.62638 0
M  V30 2045 C 204.773 3.11277 3.15628 0
M  V30 2046 H 201.993 0.568031 0.357186 0
M  V30 2047 H 204.537 1.98475 0.49273 0
M  V30 2048 H 202.692 2.5587 2.90877 0
M  V30 2049 H 203.106 4.69667 2.3348 0
M  V30 2050 H 204.58 3.93843 3.86771 0
M  V30 2051 H 205.057 2.24473 3.77503 0
M  V30 2052 H 205.663 3.39515 2.56144 0
M  V30 2053 N 203.978 -0.674533 1.42435 0
M  V30 2054 C 205.394 -0.98769 1.25367 0
M  V30 2055 C 205.594 -2.00879 0.158044 0
M  V30 2056 O 204.65 -2.48075 -0.470633 0
M  V30 2057 C 205.963 -1.49224 2.6106 0
M  V30 2058 C 207.511 -1.61 2.68417 0
M  V30 2059 C 207.986 -2.14852 4.04478 0
M  V30 2060 N 209.477 -2.22185 4.06434 0
M  V30 2061 C 210.212 -2.64928 5.08528 0
M  V30 2062 N 209.708 -3.07121 6.21006 0
M  V30 2063 N 211.501 -2.64679 4.95885 0
M  V30 2064 H 203.652 0.00152503 2.124 0
M  V30 2065 H 205.915 -0.0618434 0.945981 0
M  V30 2066 H 205.621 -0.816453 3.42092 0
M  V30 2067 H 205.495 -2.47094 2.84999 0
M  V30 2068 H 207.882 -2.27686 1.87732 0
M  V30 2069 H 207.963 -0.616195 2.48267 0
M  V30 2070 H 207.607 -1.48775 4.85622 0
M  V30 2071 H 207.537 -3.15024 4.2198 0
M  V30 2072 H 210.028 -1.92435 3.25234 0
M  V30 2073 H 210.341 -3.38423 6.94759 0
M  V30 2074 H 208.686 -3.04978 6.24511 0
M  V30 2075 H 211.877 -2.31078 4.07088 0
M  V30 2076 H 212.05 -2.9767 5.75584 0
M  V30 2077 N 205.456 -1.28612 -0.910864 0
M  V30 2078 C 206.404 -1.1265 -2.03501 0
M  V30 2079 C 207.398 -0.0450054 -1.6934 0
M  V30 2080 O 208.604 -0.203988 -1.7884 0
M  V30 2081 H 204.979 -0.347639 -0.666822 0
M  V30 2082 H 206.95 -2.07849 -2.14106 0
M  V30 2083 C 205.699 -0.808143 -3.38178 0
M  V30 2084 H 205.022 -1.63231 -3.6496 0
M  V30 2085 H 206.462 -0.736426 -4.17556 0
M  V30 2086 C 204.921 0.488226 -3.33344 0
M  V30 2087 O 205.451 1.51766 -3.71927 0
M  V30 2088 N 203.657 0.490009 -2.86439 0
M  V30 2089 H 203.204 -0.348161 -2.55236 0
M  V30 2090 H 203.162 1.35741 -2.83587 0
M  V30 2091 N 206.934 1.1197 -1.10907 0
M  V30 2092 C 208.35 1.35591 -0.841852 0
M  V30 2093 C 208.55 1.94233 0.536246 0
M  V30 2094 O 207.606 2.1717 1.28816 0
M  V30 2095 C 208.919 2.29284 -1.94549 0
M  V30 2096 C 210.467 2.42862 -1.97451 0
M  V30 2097 C 210.942 3.39873 -3.07002 0
M  V30 2098 N 212.433 3.47433 -3.06341 0
M  V30 2099 C 213.168 4.22421 -3.87748 0
M  V30 2100 N 212.664 5.00432 -4.79103 0
M  V30 2101 N 214.457 4.17876 -3.75946 0
M  V30 2102 H 206.608 0.722664 -1.99728 0
M  V30 2103 H 208.871 0.380635 -0.868229 0
M  V30 2104 H 208.577 1.93378 -2.93765 0
M  V30 2105 H 208.451 3.29452 -1.83688 0
M  V30 2106 H 210.838 2.78046 -0.988645 0
M  V30 2107 H 210.919 1.42566 -2.12388 0
M  V30 2108 H 210.563 3.05417 -4.05811 0
M  V30 2109 H 210.493 4.40011 -2.89306 0
M  V30 2110 H 212.984 2.91784 -2.40147 0
M  V30 2111 H 213.297 5.55002 -5.37766 0
M  V30 2112 H 211.642 4.99612 -4.83128 0
M  V30 2113 H 214.833 3.56016 -3.03924 0
M  V30 2114 H 215.006 4.76061 -4.39624 0
M  V30 2115 N 208.412 0.89855 1.29475 0
M  V30 2116 C 209.652 0.530771 1.97388 0
M  V30 2117 C 210.016 -0.905832 1.69289 0
M  V30 2118 O 211.217 -1.38042 2.30646 0
M  V30 2119 C 209.488 0.81369 3.48014 0
M  V30 2120 S 211.047 0.550048 4.35339 0
M  V30 2121 H 207.865 0.196956 0.683176 0
M  V30 2122 H 210.467 1.16074 1.57312 0
M  V30 2123 H 209.171 1.85749 3.65958 0
M  V30 2124 H 208.702 0.171795 3.93025 0
M  V30 2125 H 210.717 -0.605423 4.92493 0
M  V30 2126 N 209.89 -1.43072 0.660911 0
M  V30 2127 C 210.822 -2.29108 -0.0647641 0
M  V30 2128 C 211.835 -1.42928 -0.779448 0
M  V30 2129 O 213.024 -1.66788 -0.635921 0
M  V30 2130 C 210.124 -3.20032 -1.11503 0
M  V30 2131 C 209.297 -4.34792 -0.476955 0
M  V30 2132 C 208.356 -5.06534 -1.42513 0
M  V30 2133 O 207.382 -5.61538 -0.930771 0
M  V30 2134 N 208.584 -5.1075 -2.75889 0
M  V30 2135 H 211.349 -2.92029 0.673731 0
M  V30 2136 H 208.91 -1.53846 0.50427 0
M  V30 2137 H 210.902 -3.64892 -1.75032 0
M  V30 2138 H 209.472 -2.58658 -1.75541 0
M  V30 2139 H 208.692 -3.92752 0.337572 0
M  V30 2140 H 209.98 -5.0879 -0.0318525 0
M  V30 2141 H 209.378 -4.67447 -3.18606 0
M  V30 2142 H 207.935 -5.59302 -3.347 0
M  V30 2143 N 211.368 -0.403325 -1.52352 0
M  V30 2144 C 212.598 0.17376 -2.05868 0
M  V30 2145 C 213.006 1.39898 -1.27378 0
M  V30 2146 O 212.349 1.80939 -0.31729 0
M  V30 2147 C 212.411 0.594756 -3.54546 0
M  V30 2148 C 212.075 -0.518926 -4.54044 0
M  V30 2149 C 213.072 -1.3807 -5.01231 0
M  V30 2150 C 210.757 -0.689961 -4.97539 0
M  V30 2151 C 212.751 -2.39852 -5.90551 0
M  V30 2152 C 210.438 -1.71109 -5.86656 0
M  V30 2153 C 211.436 -2.56378 -6.33056 0
M  V30 2154 O 211.124 -3.56743 -7.20409 0
M  V30 2155 H 210.856 0.0264951 -0.675481 0
M  V30 2156 H 213.41 -0.571179 -1.97299 0
M  V30 2157 H 211.64 1.39189 -3.60782 0
M  V30 2158 H 213.329 1.0991 -3.90736 0
M  V30 2159 H 214.095 -1.25994 -4.68349 0
M  V30 2160 H 209.974 -0.035939 -4.60986 0
M  V30 2161 H 213.518 -3.06441 -6.26689 0
M  V30 2162 H 209.415 -1.83218 -6.18952 0
M  V30 2163 H 210.183 -3.52918 -7.38506 0
M  V30 2164 N 212.846 1.57033 -0.133567 0
M  V30 2165 C 214.086 1.97575 0.523789 0
M  V30 2166 C 214.45 1.01605 1.62912 0
M  V30 2167 O 215.651 1.3114 2.3464 0
M  V30 2168 C 213.922 3.42256 1.02935 0
M  V30 2169 S 215.481 4.04817 1.69319 0
M  V30 2170 H 212.299 0.690427 0.169799 0
M  V30 2171 H 214.901 1.94234 -0.222101 0
M  V30 2172 H 213.605 4.09842 0.213917 0
M  V30 2173 H 213.136 3.4928 1.81017 0
M  V30 2174 H 215.151 3.96767 2.97977 0
M  V30 2175 N 214.325 -0.140222 1.56975 0
M  V30 2176 C 215.741 -0.493088 1.51792 0
M  V30 2177 C 215.941 -1.83013 0.843116 0
M  V30 2178 O 214.997 -2.49041 0.416493 0
M  V30 2179 C 216.31 -0.497144 2.96562 0
M  V30 2180 C 217.858 -0.582186 3.07538 0
M  V30 2181 C 218.333 -0.616838 4.53827 0
M  V30 2182 N 219.824 -0.678873 4.58198 0
M  V30 2183 C 220.559 -0.726782 5.68775 0
M  V30 2184 N 220.055 -0.733623 6.88905 0
M  V30 2185 N 221.848 -0.768179 5.56826 0
M  V30 2186 H 213.999 0.736108 1.99237 0
M  V30 2187 H 216.262 0.269182 0.90898 0
M  V30 2188 H 215.968 0.417217 3.49217 0
M  V30 2189 H 215.842 -1.33263 3.52875 0
M  V30 2190 H 218.229 -1.48697 2.54899 0
M  V30 2191 H 218.31 0.280581 2.54257 0
M  V30 2192 H 217.954 0.283812 5.07106 0
M  V30 2193 H 217.884 -1.49619 5.04898 0
M  V30 2194 H 220.375 -0.68061 3.7172 0
M  V30 2195 H 220.688 -0.772215 7.68932 0
M  V30 2196 H 219.033 -0.701389 6.91452 0
M  V30 2197 H 222.224 -0.760051 4.61888 0
M  V30 2198 H 222.397 -0.80205 6.43017 0
M  V30 2199 N 215.803 -1.52179 -0.40978 0
M  V30 2200 C 216.733 -1.78435 -1.5061 0
M  V30 2201 C 217.714 -0.635295 -1.57791 0
M  V30 2202 O 218.899 -0.880823 -1.73076 0
M  V30 2203 C 216.029 -1.93444 -2.88439 0
M  V30 2204 C 214.983 -3.09038 -2.96108 0
M  V30 2205 C 214.309 -3.09268 -4.36185 0
M  V30 2206 C 215.609 -4.48508 -2.67652 0
M  V30 2207 H 217.303 -2.70237 -1.28889 0
M  V30 2208 H 214.849 -1.30036 -0.618605 0
M  V30 2209 H 216.802 -2.10394 -3.65119 0
M  V30 2210 H 215.526 -0.983129 -3.11452 0
M  V30 2211 H 214.185 -2.91837 -2.21872 0
M  V30 2212 H 213.833 -2.11861 -4.56206 0
M  V30 2213 H 213.533 -3.86907 -4.42241 0
M  V30 2214 H 215.057 -3.28348 -5.14801 0
M  V30 2215 H 216.471 -4.65918 -3.34056 0
M  V30 2216 H 214.868 -5.28059 -2.85085 0
M  V30 2217 H 215.938 -4.56649 -1.63095 0
M  V30 2218 N 217.281 0.66697 -1.42791 0
M  V30 2219 C 218.213 1.7925 -1.42836 0
M  V30 2220 C 219.226 1.59496 -0.326333 0
M  V30 2221 O 220.415 1.6847 -0.589916 0
M  V30 2222 C 217.515 3.16476 -1.21229 0
M  V30 2223 C 216.688 3.63011 -2.44013 0
M  V30 2224 C 215.747 4.78993 -2.17834 0
M  V30 2225 O 214.773 4.89137 -2.91091 0
M  V30 2226 N 215.975 5.68248 -1.18635 0
M  V30 2227 H 218.74 1.79695 -2.39854 0
M  V30 2228 H 216.301 0.850338 -1.37771 0
M  V30 2229 H 218.293 3.91734 -1.01621 0
M  V30 2230 H 216.863 3.10884 -0.32706 0
M  V30 2231 H 216.083 2.78346 -2.79137 0
M  V30 2232 H 217.371 3.90845 -3.25757 0
M  V30 2233 H 216.769 5.62712 -0.580615 0
M  V30 2234 H 215.326 6.43285 -1.05013 0
M  V30 2235 N 218.759 1.29093 0.90403 0
M  V30 2236 C 219.706 1.13853 2.00764 0
M  V30 2237 C 220.676 0.0330084 1.66067 0
M  V30 2238 O 221.861 0.199733 1.89752 0
M  V30 2239 C 219.001 0.816537 3.35301 0
M  V30 2240 C 218.114 2.00206 3.82807 0
M  V30 2241 C 217.249 1.61983 5.059 0
M  V30 2242 C 216.288 2.77143 5.45764 0
M  V30 2243 N 215.425 2.39346 6.60044 0
M  V30 2244 H 220.265 2.08276 2.13132 0
M  V30 2245 H 217.802 1.03648 1.04381 0
M  V30 2246 H 219.76 0.610557 4.12708 0
M  V30 2247 H 218.39 -0.090779 3.22672 0
M  V30 2248 H 217.442 2.31988 3.01473 0
M  V30 2249 H 218.754 2.86512 4.08304 0
M  V30 2250 H 217.908 1.37649 5.90879 0
M  V30 2251 H 216.647 0.728202 4.82233 0
M  V30 2252 H 215.652 3.02165 4.59322 0
M  V30 2253 H 216.877 3.66964 5.71414 0
M  V30 2254 H 214.823 1.52665 6.37989 0
M  V30 2255 H 214.74 3.19185 6.85315 0
M  V30 2256 H 216.008 2.1832 7.48303 0
M  V30 2257 N 220.237 -1.11381 1.11499 0
M  V30 2258 C 221.477 -1.84763 0.874188 0
M  V30 2259 C 221.841 -1.82726 -0.589496 0
M  V30 2260 O 223.042 -2.51562 -0.947089 0
M  V30 2261 C 221.313 -3.27931 1.42112 0
M  V30 2262 S 222.872 -4.18557 1.31739 0
M  V30 2263 H 219.69 -0.637115 0.315603 0
M  V30 2264 H 222.292 -1.34097 1.42261 0
M  V30 2265 H 220.996 -3.26978 2.48019 0
M  V30 2266 H 220.527 -3.83665 0.869761 0
M  V30 2267 H 222.542 -4.95396 0.282335 0
M  V30 2268 N 221.715 -0.905404 -1.28997 0
M  V30 2269 C 222.962 -0.534248 -1.95325 0
M  V30 2270 C 223.29 0.920535 -1.71337 0
M  V30 2271 O 222.545 1.66861 -1.02254 0
M  V30 2272 C 222.844 -0.779906 -3.48787 0
M  V30 2273 C 222.51 -2.21293 -3.92861 0
M  V30 2274 C 221.172 -2.60475 -4.04606 0
M  V30 2275 C 223.524 -3.14587 -4.15553 0
M  V30 2276 C 220.852 -3.9212 -4.36416 0
M  V30 2277 C 223.204 -4.45787 -4.48839 0
M  V30 2278 C 221.868 -4.84834 -4.58794 0
M  V30 2279 H 221.138 -0.195495 -0.714747 0
M  V30 2280 H 223.785 -1.14514 -1.53488 0
M  V30 2281 H 222.09 -0.0861365 -3.91705 0
M  V30 2282 H 223.787 -0.472029 -3.98212 0
M  V30 2283 H 220.377 -1.89887 -3.84241 0
M  V30 2284 H 224.561 -2.85528 -4.0594 0
M  V30 2285 H 219.817 -4.22086 -4.42327 0
M  V30 2286 H 223.991 -5.18098 -4.65346 0
M  V30 2287 H 221.618 -5.86877 -4.83197 0
M  V30 2288 N 223.193 1.4272 -0.668489 0
M  V30 2289 C 224.103 2.34596 0.0139753 0
M  V30 2290 C 225.119 1.5474 0.795703 0
M  V30 2291 O 226.295 1.87334 0.739466 0
M  V30 2292 C 223.36 3.33202 0.957982 0
M  V30 2293 C 222.421 4.28957 0.17149 0
M  V30 2294 C 221.654 5.22853 1.07053 0
M  V30 2295 O 221.877 5.21531 2.31001 0
M  V30 2296 O 220.811 5.9952 0.534727 0
M  V30 2297 H 224.637 2.9448 -0.742661 0
M  V30 2298 H 222.222 1.43117 -0.428705 0
M  V30 2299 H 224.104 3.93796 1.50008 0
M  V30 2300 H 222.779 2.758 1.69458 0
M  V30 2301 H 221.686 3.71796 -0.414558 0
M  V30 2302 H 223.019 4.89383 -0.52586 0
M  V30 2303 N 224.671 0.411399 1.52136 0
M  V30 2304 C 225.917 -0.163888 2.02137 0
M  V30 2305 C 226.25 -1.44597 1.29636 0
M  V30 2306 O 225.525 -1.90272 0.403353 0
M  V30 2307 C 225.808 -0.40927 3.57767 0
M  V30 2308 C 225.661 0.889643 4.40914 0
M  V30 2309 C 226.98 -1.19042 4.23694 0
M  V30 2310 H 224.099 -0.0580896 0.734707 0
M  V30 2311 H 226.741 0.54531 1.82007 0
M  V30 2312 H 224.891 -1.0134 3.7505 0
M  V30 2313 H 226.563 1.52575 4.35337 0
M  V30 2314 H 224.806 1.50011 4.07037 0
M  V30 2315 H 225.477 0.672314 5.4789 0
M  V30 2316 H 227.953 -0.678942 4.10524 0
M  V30 2317 H 226.829 -1.33086 5.32522 0
M  V30 2318 H 227.09 -2.21166 3.82803 0
M  V30 2319 N 226.149 -1.5696 0.141893 0
M  V30 2320 C 227.397 -1.95573 -0.509484 0
M  V30 2321 C 227.718 -1.02746 -1.65736 0
M  V30 2322 O 226.988 -0.0880311 -1.95702 0
M  V30 2323 H 225.568 -0.722115 -0.191205 0
M  V30 2324 H 228.23 -1.93697 0.216196 0
M  V30 2325 H 227.326 -2.99171 -0.889 0
M  V30 2326 N 227.627 0.131896 -1.57047 0
M  V30 2327 C 228.56 1.19236 -1.94571 0
M  V30 2328 C 229.538 1.40782 -0.813576 0
M  V30 2329 O 230.722 1.55148 -1.07058 0
M  V30 2330 C 227.849 2.54858 -2.23081 0
M  V30 2331 C 226.895 2.49817 -3.45679 0
M  V30 2332 S 227.728 1.95036 -4.98719 0
M  V30 2333 C 228.884 3.32357 -5.30367 0
M  V30 2334 H 229.117 0.872297 -2.84215 0
M  V30 2335 H 226.65 0.338134 -1.50652 0
M  V30 2336 H 228.608 3.32898 -2.40185 0
M  V30 2337 H 227.269 2.84047 -1.34074 0
M  V30 2338 H 226.462 3.49688 -3.62952 0
M  V30 2339 H 226.064 1.79892 -3.27895 0
M  V30 2340 H 228.356 4.28525 -5.2476 0
M  V30 2341 H 229.299 3.19923 -6.31708 0
M  V30 2342 H 229.707 3.3019 -4.57859 0
M  V30 2343 N 229.106 1.52395 0.401703 0
M  V30 2344 C 230.331 1.70972 1.17403 0
M  V30 2345 C 230.756 0.421615 1.83314 0
M  V30 2346 O 230.114 -0.621564 1.70312 0
M  V30 2347 C 230.162 2.85151 2.20728 0
M  V30 2348 O 229.266 2.51238 3.27037 0
M  V30 2349 H 228.607 0.568927 0.342372 0
M  V30 2350 H 231.137 1.99131 0.469891 0
M  V30 2351 H 231.147 3.10279 2.64936 0
M  V30 2352 H 229.822 3.78603 1.7214 0
M  V30 2353 H 228.399 2.36808 2.88057 0
M  V30 2354 N 230.584 -0.659388 1.43143 0
M  V30 2355 C 231.531 -1.77249 1.47822 0
M  V30 2356 C 232.501 -1.62818 0.328558 0
M  V30 2357 O 233.686 -1.83151 0.534838 0
M  V30 2358 C 230.826 -3.15371 1.40126 0
M  V30 2359 C 229.939 -3.4098 2.65249 0
M  V30 2360 C 229.074 -4.68915 2.49584 0
M  V30 2361 C 228.113 -4.87608 3.70006 0
M  V30 2362 N 227.25 -6.06796 3.53189 0
M  V30 2363 H 232.09 -1.72584 2.42938 0
M  V30 2364 H 229.627 -0.842297 1.20598 0
M  V30 2365 H 231.585 -3.9521 1.33659 0
M  V30 2366 H 230.215 -3.19121 0.485964 0
M  V30 2367 H 229.267 -2.55282 2.8202 0
M  V30 2368 H 230.579 -3.50681 3.54717 0
M  V30 2369 H 229.733 -5.56871 2.4079 0
M  V30 2370 H 228.472 -4.61524 1.5763 0
M  V30 2371 H 227.477 -3.9809 3.79215 0
M  V30 2372 H 228.702 -4.96834 4.62961 0
M  V30 2373 H 226.648 -6.00549 2.63965 0
M  V30 2374 H 226.565 -6.17428 4.36255 0
M  V30 2375 H 227.833 -6.9739 3.48236 0
M  V30 2376 N 232.062 -1.29571 -0.897171 0
M  V30 2377 C 232.972 -1.16808 -2.03453 0
M  V30 2378 C 233.988 -0.0907471 -1.73763 0
M  V30 2379 O 235.164 -0.303312 -1.99103 0
M  V30 2380 C 232.229 -0.848264 -3.36163 0
M  V30 2381 C 231.29 -2.0097 -3.79354 0
M  V30 2382 C 230.523 -1.70505 -5.05731 0
M  V30 2383 O 230.746 -0.62718 -5.66941 0
M  V30 2384 O 229.68 -2.5538 -5.45036 0
M  V30 2385 H 233.506 -2.12325 -2.17144 0
M  V30 2386 H 231.091 -1.09047 -1.02123 0
M  V30 2387 H 232.973 -0.684581 -4.15802 0
M  V30 2388 H 231.648 0.0771071 -3.23608 0
M  V30 2389 H 230.555 -2.22863 -3.00471 0
M  V30 2390 H 231.888 -2.91636 -3.96496 0
M  V30 2391 N 233.54 1.10788 -1.12088 0
M  V30 2392 C 234.503 2.15207 -0.788577 0
M  V30 2393 C 235.503 1.59609 0.195317 0
M  V30 2394 O 236.693 1.74174 -0.0300193 0
M  V30 2395 C 233.825 3.4047 -0.171174 0
M  V30 2396 H 235.018 2.46116 -1.71368 0
M  V30 2397 H 232.571 1.26089 -0.923652 0
M  V30 2398 H 233.306 3.15176 0.763832 0
M  V30 2399 H 233.091 3.82109 -0.879514 0
M  V30 2400 H 234.581 4.17576 0.04496 0
M  V30 2401 N 235.018 0.912232 1.28515 0
M  V30 2402 C 236.264 0.545405 1.95328 0
M  V30 2403 C 236.597 -0.908313 1.71649 0
M  V30 2404 O 235.872 -1.64575 1.03659 0
M  V30 2405 C 236.155 0.853483 3.4984 0
M  V30 2406 C 236.008 2.35982 3.82926 0
M  V30 2407 C 237.327 0.348589 4.38717 0
M  V30 2408 H 234.446 0.199626 0.709449 0
M  V30 2409 H 237.088 1.1412 1.5191 0
M  V30 2410 H 235.238 0.34643 3.86952 0
M  V30 2411 H 236.91 2.93738 3.55691 0
M  V30 2412 H 235.153 2.81543 3.30024 0
M  V30 2413 H 235.824 2.52593 4.90816 0
M  V30 2414 H 238.3 0.78294 4.08668 0
M  V30 2415 H 237.176 0.593242 5.45685 0
M  V30 2416 H 237.437 -0.751049 4.35674 0
M  V30 2417 N 236.496 -1.42363 0.676048 0
M  V30 2418 C 237.912 -1.55811 0.345718 0
M  V30 2419 C 238.112 -1.65544 -1.14879 0
M  V30 2420 O 237.168 -1.62306 -1.93424 0
M  V30 2421 C 238.481 -2.80746 1.07713 0
M  V30 2422 C 240.029 -2.9452 1.05958 0
M  V30 2423 C 240.504 -4.22318 1.77233 0
M  V30 2424 N 241.995 -4.29233 1.74108 0
M  V30 2425 C 242.73 -5.26935 2.26113 0
M  V30 2426 N 242.226 -6.30783 2.86505 0
M  V30 2427 N 244.019 -5.18741 2.1648 0
M  V30 2428 H 236.17 -1.34289 1.6456 0
M  V30 2429 H 238.433 -0.646506 0.69335 0
M  V30 2430 H 238.139 -2.79696 2.13221 0
M  V30 2431 H 238.013 -3.71676 0.64316 0
M  V30 2432 H 240.4 -2.95097 0.0128255 0
M  V30 2433 H 240.481 -2.04817 1.53244 0
M  V30 2434 H 240.125 -4.22502 2.81877 0
M  V30 2435 H 240.055 -5.10958 1.27396 0
M  V30 2436 H 242.546 -3.54814 1.30059 0
M  V30 2437 H 242.859 -7.01691 3.23805 0
M  V30 2438 H 241.204 -6.31341 2.90575 0
M  V30 2439 H 244.395 -4.36533 1.68987 0
M  V30 2440 H 244.568 -5.94721 2.57316 0
M  V30 2441 N 237.974 -0.419461 -1.51915 0
M  V30 2442 C 238.922 0.415502 -2.28859 0
M  V30 2443 C 239.916 1.03674 -1.3397 0
M  V30 2444 O 241.122 0.973757 -1.51387 0
M  V30 2445 H 237.497 0.152786 -0.736315 0
M  V30 2446 H 239.468 -0.254531 -2.97312 0
M  V30 2447 C 238.217 1.51425 -3.12995 0
M  V30 2448 H 237.54 1.04556 -3.85886 0
M  V30 2449 H 238.98 2.07208 -3.6992 0
M  V30 2450 C 237.439 2.48745 -2.27217 0
M  V30 2451 O 237.969 3.52871 -1.9195 0
M  V30 2452 N 236.175 2.19202 -1.90785 0
M  V30 2453 H 235.722 1.34556 -2.19664 0
M  V30 2454 H 235.68 2.84561 -1.33687 0
M  V30 2455 N 239.452 1.56882 -0.150215 0
M  V30 2456 C 240.729 1.87844 0.545327 0
M  V30 2457 C 241.109 1.0567 1.82749 0
M  V30 2458 O 240.457 0.144442 2.28043 0
M  V30 2459 C 240.667 3.39526 0.80767 0
M  V30 2460 C 242.015 4.08814 1.14703 0
M  V30 2461 O 243.039 3.44723 0.896917 0
M  V30 2462 O 241.898 5.22004 1.61784 0
M  V30 2463 H 238.992 0.778677 0.278553 0
M  V30 2464 H 241.538 1.68666 -0.187068 0
M  V30 2465 H 240.31 3.91173 -0.0996096 0
M  V30 2466 H 239.933 3.64243 1.59413 0
M  V30 2467 N 240.93 -0.123565 1.57115 0
M  V30 2468 C 242.346 -0.476961 1.52306 0
M  V30 2469 C 242.546 -1.82109 0.86248 0
M  V30 2470 O 241.602 -2.48586 0.442884 0
M  V30 2471 C 242.915 -0.465661 2.97073 0
M  V30 2472 C 244.463 -0.549534 3.08138 0
M  V30 2473 C 244.938 -0.568669 4.54456 0
M  V30 2474 N 246.429 -0.630237 4.58892 0
M  V30 2475 C 247.164 -0.666415 5.69514 0
M  V30 2476 N 246.66 -0.660514 6.89644 0
M  V30 2477 N 248.453 -0.709077 5.5761 0
M  V30 2478 H 240.604 0.757198 1.98445 0
M  V30 2479 H 242.867 0.278808 0.906074 0
M  V30 2480 H 242.573 0.454232 3.48754 0
M  V30 2481 H 242.447 -1.29513 3.54269 0
M  V30 2482 H 244.834 -1.45985 2.56461 0
M  V30 2483 H 244.915 0.307532 2.53945 0
M  V30 2484 H 244.559 0.337581 5.06777 0
M  V30 2485 H 244.489 -1.44256 5.06456 0
M  V30 2486 H 246.98 -0.641146 3.72421 0
M  V30 2487 H 247.293 -0.690616 7.69708 0
M  V30 2488 H 245.638 -0.628012 6.92157 0
M  V30 2489 H 248.829 -0.711019 4.62668 0
M  V30 2490 H 249.002 -0.733804 6.43832 0
M  V30 2491 N 242.408 -1.52605 -0.393616 0
M  V30 2492 C 243.356 -1.77688 -1.50099 0
M  V30 2493 C 244.35 -0.644615 -1.56656 0
M  V30 2494 O 245.556 -0.826997 -1.59877 0
M  V30 2495 H 241.931 -0.562159 -0.499481 0
M  V30 2496 H 243.902 -2.7043 -1.26135 0
M  V30 2497 C 242.651 -1.95858 -2.87289 0
M  V30 2498 H 241.974 -2.8241 -2.82992 0
M  V30 2499 H 243.414 -2.174 -3.64024 0
M  V30 2500 C 241.873 -0.729848 -3.28899 0
M  V30 2501 O 242.403 0.0949217 -4.01588 0
M  V30 2502 N 240.609 -0.561283 -2.85128 0
M  V30 2503 H 240.156 -1.23357 -2.26143 0
M  V30 2504 H 240.114 0.2595 -3.13327 0
M  V30 2505 N 243.887 0.651787 -1.4349 0
M  V30 2506 C 244.834 1.76462 -1.4876 0
M  V30 2507 C 245.804 1.62641 -0.337189 0
M  V30 2508 O 246.989 1.82864 -0.544544 0
M  V30 2509 C 244.129 3.14623 -1.41796 0
M  V30 2510 C 243.242 3.39568 -2.67053 0
M  V30 2511 C 242.377 4.67585 -2.52068 0
M  V30 2512 C 241.416 4.85639 -3.72587 0
M  V30 2513 N 240.553 6.04915 -3.56402 0
M  V30 2514 H 245.393 1.71293 -2.43849 0
M  V30 2515 H 242.93 0.835889 -1.21043 0
M  V30 2516 H 244.888 3.94496 -1.35753 0
M  V30 2517 H 243.518 3.18859 -0.50288 0
M  V30 2518 H 242.57 2.53783 -2.8337 0
M  V30 2519 H 243.882 3.48795 -3.56572 0
M  V30 2520 H 243.036 5.55586 -2.4374 0
M  V30 2521 H 241.775 4.60681 -1.60075 0
M  V30 2522 H 240.78 3.96073 -3.81321 0
M  V30 2523 H 242.005 4.94372 -4.65589 0
M  V30 2524 H 239.951 5.9914 -2.67146 0
M  V30 2525 H 239.868 6.15106 -4.39524 0
M  V30 2526 H 241.136 6.95533 -3.51929 0
M  V30 2527 N 245.365 1.30045 0.890287 0
M  V30 2528 C 246.312 1.15976 1.99545 0
M  V30 2529 C 247.282 0.0506202 1.66023 0
M  V30 2530 O 248.467 0.219847 1.89529 0
M  V30 2531 C 245.607 0.852054 3.34416 0
M  V30 2532 C 244.72 2.04255 3.80662 0
M  V30 2533 C 243.855 1.6734 5.04154 0
M  V30 2534 C 242.894 2.82916 5.42794 0
M  V30 2535 N 242.031 2.46333 6.57468 0
M  V30 2536 H 246.871 2.10524 2.10911 0
M  V30 2537 H 244.408 1.04749 1.03276 0
M  V30 2538 H 246.366 0.654296 4.12037 0
M  V30 2539 H 244.996 -0.0565502 3.2275 0
M  V30 2540 H 244.048 2.35172 2.98995 0
M  V30 2541 H 245.36 2.90826 4.05242 0
M  V30 2542 H 244.514 1.43908 5.89386 0
M  V30 2543 H 243.253 0.779308 4.81433 0
M  V30 2544 H 242.258 3.0702 4.56091 0
M  V30 2545 H 243.483 3.73004 5.6749 0
M  V30 2546 H 241.429 1.59423 6.36334 0
M  V30 2547 H 241.346 3.26436 6.81891 0
M  V30 2548 H 242.614 2.26244 7.45945 0
M  V30 2549 N 246.843 -1.10192 1.12674 0
M  V30 2550 C 247.79 -2.16606 0.796906 0
M  V30 2551 C 248.76 -1.64394 -0.237476 0
M  V30 2552 O 249.945 -1.90474 -0.111484 0
M  V30 2553 C 247.085 -3.44116 0.26043 0
M  V30 2554 C 246.198 -4.10268 1.35293 0
M  V30 2555 C 245.333 -5.25507 0.775621 0
M  V30 2556 C 244.372 -5.83567 1.84706 0
M  V30 2557 N 243.509 -6.90179 1.28829 0
M  V30 2558 H 248.349 -2.44163 1.70846 0
M  V30 2559 H 245.886 -1.19846 0.85295 0
M  V30 2560 H 247.844 -4.17143 -0.0686814 0
M  V30 2561 H 246.474 -3.16901 -0.614274 0
M  V30 2562 H 245.526 -3.35184 1.79877 0
M  V30 2563 H 246.838 -4.4946 2.16303 0
M  V30 2564 H 245.992 -6.05398 0.397327 0
M  V30 2565 H 244.731 -4.87656 -0.0656581 0
M  V30 2566 H 243.736 -5.02344 2.23452 0
M  V30 2567 H 244.961 -6.23482 2.69161 0
M  V30 2568 H 242.907 -6.54322 0.468881 0
M  V30 2569 H 242.824 -7.28097 2.03497 0
M  V30 2570 H 244.092 -7.73844 0.937311 0
M  V30 2571 N 248.321 -0.919034 -1.28029 0
M  V30 2572 C 249.268 -0.410005 -2.27129 0
M  V30 2573 C 250.238 0.518405 -1.57803 0
M  V30 2574 O 251.423 0.439451 -1.8567 0
M  V30 2575 C 248.563 0.339054 -3.4343 0
M  V30 2576 C 247.676 -0.622468 -4.27492 0
M  V30 2577 C 246.811 0.145567 -5.31001 0
M  V30 2578 C 245.85 -0.809226 -6.06727 0
M  V30 2579 N 244.987 -0.0743728 -7.02061 0
M  V30 2580 H 249.827 -1.26011 -2.70047 0
M  V30 2581 H 247.364 -0.632663 -1.328 0
M  V30 2582 H 249.322 0.789586 -4.0966 0
M  V30 2583 H 247.952 1.15346 -3.01488 0
M  V30 2584 H 247.004 -1.19153 -3.61257 0
M  V30 2585 H 248.316 -1.35252 -4.80113 0
M  V30 2586 H 247.47 0.656417 -6.03139 0
M  V30 2587 H 246.209 0.908643 -4.79161 0
M  V30 2588 H 245.214 -1.3314 -5.33436 0
M  V30 2589 H 246.439 -1.57194 -6.60656 0
M  V30 2590 H 244.385 0.670616 -6.52563 0
M  V30 2591 H 244.302 -0.744157 -7.52329 0
M  V30 2592 H 245.57 0.416109 -7.78389 0
M  V30 2593 N 249.799 1.42003 -0.683588 0
M  V30 2594 C 250.709 2.34597 -0.0109075 0
M  V30 2595 C 251.725 1.55576 0.779245 0
M  V30 2596 O 252.901 1.88107 0.719555 0
M  V30 2597 C 249.966 3.34199 0.922588 0
M  V30 2598 C 249.027 4.29115 0.125984 0
M  V30 2599 C 248.26 5.23959 1.01502 0
M  V30 2600 O 248.483 5.23952 2.25456 0
M  V30 2601 O 247.417 6.00053 0.47111 0
M  V30 2602 H 251.243 2.93675 -0.773853 0
M  V30 2603 H 248.828 1.42654 -0.443861 0
M  V30 2604 H 250.71 3.95365 1.45823 0
M  V30 2605 H 249.385 2.77582 1.66523 0
M  V30 2606 H 248.292 3.71335 -0.453969 0
M  V30 2607 H 249.625 4.88798 -0.577736 0
M  V30 2608 N 251.277 0.427512 1.51691 0
M  V30 2609 C 252.523 -0.142439 2.02299 0
M  V30 2610 C 252.856 -1.43214 1.31162 0
M  V30 2611 O 252.131 -1.89833 0.423511 0
M  V30 2612 C 252.414 -0.371301 3.58181 0
M  V30 2613 C 252.267 0.936358 4.39946 0
M  V30 2614 C 253.586 -1.14542 4.24933 0
M  V30 2615 H 250.705 -0.0502937 0.735282 0
M  V30 2616 H 253.347 0.564584 1.81418 0
M  V30 2617 H 251.497 -0.973559 3.76104 0
M  V30 2618 H 253.169 1.57184 4.33694 0
M  V30 2619 H 251.412 1.5432 4.05423 0
M  V30 2620 H 252.083 0.730388 5.47147 0
M  V30 2621 H 254.559 -0.635362 4.11221 0
M  V30 2622 H 253.435 -1.27431 5.33903 0
M  V30 2623 H 253.696 -2.17093 3.85127 0
M  V30 2624 N 252.755 -1.56801 0.158532 0
M  V30 2625 C 253.702 -2.17337 -0.776729 0
M  V30 2626 C 254.672 -1.1096 -1.23601 0
M  V30 2627 O 255.857 -1.39054 -1.30647 0
M  V30 2628 C 252.997 -2.80822 -2.00582 0
M  V30 2629 C 252.11 -4.01624 -1.59129 0
M  V30 2630 C 251.245 -4.53072 -2.77306 0
M  V30 2631 C 250.284 -5.66314 -2.32282 0
M  V30 2632 N 249.421 -6.12329 -3.43508 0
M  V30 2633 H 254.261 -2.96918 -0.253701 0
M  V30 2634 H 251.798 -1.46661 -0.113504 0
M  V30 2635 H 253.756 -3.15779 -2.72652 0
M  V30 2636 H 252.386 -2.03866 -2.50277 0
M  V30 2637 H 251.438 -3.72571 -0.767806 0
M  V30 2638 H 252.75 -4.83633 -1.2207 0
M  V30 2639 H 251.904 -4.90145 -3.57551 0
M  V30 2640 H 250.643 -3.70095 -3.17617 0
M  V30 2641 H 249.648 -5.28806 -1.5048 0
M  V30 2642 H 250.873 -6.51085 -1.93043 0
M  V30 2643 H 248.819 -5.32284 -3.83418 0
M  V30 2644 H 248.736 -6.89293 -3.105 0
M  V30 2645 H 250.004 -6.5405 -4.24075 0
M  V30 2646 N 254.233 0.115231 -1.57178 0
M  V30 2647 C 255.143 1.15994 -2.03918 0
M  V30 2648 C 256.159 1.45103 -0.960268 0
M  V30 2649 O 257.335 1.56144 -1.27204 0
M  V30 2650 C 254.4 2.46568 -2.43732 0
M  V30 2651 C 253.461 2.24822 -3.65723 0
M  V30 2652 C 252.694 3.4917 -4.03629 0
M  V30 2653 O 252.917 4.56623 -3.41835 0
M  V30 2654 O 251.851 3.39949 -4.96708 0
M  V30 2655 H 255.677 0.793019 -2.93164 0
M  V30 2656 H 253.262 0.3263 -1.45793 0
M  V30 2657 H 255.144 3.23492 -2.70057 0
M  V30 2658 H 253.819 2.82726 -1.57631 0
M  V30 2659 H 252.726 1.45744 -3.44542 0
M  V30 2660 H 254.059 1.93566 -4.52541 0
M  V30 2661 N 255.711 1.52812 0.385517 0
M  V30 2662 C 256.621 1.80766 1.49535 0
M  V30 2663 C 257.637 0.694651 1.59532 0
M  V30 2664 O 258.813 0.982611 1.75803 0
M  V30 2665 C 255.878 1.97381 2.85029 0
M  V30 2666 C 254.939 3.21295 2.84724 0
M  V30 2667 C 254.172 3.37108 4.13756 0
M  V30 2668 O 254.395 2.5765 5.08893 0
M  V30 2669 O 253.329 4.30378 4.20783 0
M  V30 2670 H 257.155 2.75015 1.28842 0
M  V30 2671 H 254.74 1.37946 0.573697 0
M  V30 2672 H 256.622 2.09996 3.65349 0
M  V30 2673 H 255.297 1.06322 3.05741 0
M  V30 2674 H 254.204 3.1412 2.03174 0
M  V30 2675 H 255.537 4.12212 2.68965 0
M  V30 2676 N 257.189 -0.644168 1.43834 0
M  V30 2677 C 258.437 -1.40117 1.45642 0
M  V30 2678 C 258.758 -1.94814 0.0852413 0
M  V30 2679 O 258.028 -1.74988 -0.880688 0
M  V30 2680 H 256.608 -0.52005 0.536243 0
M  V30 2681 H 259.27 -0.7591 1.7951 0
M  V30 2682 H 258.366 -2.23902 2.17427 0
M  V30 2683 N 258.668 -1.30515 -0.883378 0
M  V30 2684 C 259.893 -1.22487 -1.67367 0
M  V30 2685 C 260.318 0.208767 -1.86938 0
M  V30 2686 O 259.676 1.15015 -1.40148 0
M  V30 2687 C 259.724 -1.96041 -3.02655 0
M  V30 2688 O 258.828 -1.28859 -3.91751 0
M  V30 2689 H 258.169 -0.423573 -0.511353 0
M  V30 2690 H 260.699 -1.72362 -1.10239 0
M  V30 2691 H 260.709 -2.05124 -3.52687 0
M  V30 2692 H 259.384 -3.00307 -2.8773 0
M  V30 2693 H 257.961 -1.28141 -3.50192 0
M  V30 2694 N 260.146 1.09593 -1.13257 0
M  V30 2695 C 261.557 1.63229 -0.906274 0
M  V30 2696 C 261.908 1.8811 0.557578 0
M  V30 2697 O 261.033 1.62953 1.42391 0
M  V30 2698 C 261.628 2.96535 -1.63867 0
M  V30 2699 C 260.187 3.47003 -1.45828 0
M  V30 2700 C 259.334 2.2145 -1.66898 0
M  V30 2701 H 262.285 0.92978 -1.28611 0
M  V30 2702 H 262.306 3.64411 -1.09476 0
M  V30 2703 H 261.818 2.78394 -2.70404 0
M  V30 2704 H 259.919 3.70272 -0.415848 0
M  V30 2705 H 260.032 4.24551 -2.2202 0
M  V30 2706 H 258.396 2.30022 -1.09371 0
M  V30 2707 H 259.179 2.0583 -2.74752 0
M  V30 2708 N 261.624 0.925811 1.2754 0
M  V30 2709 C 262.901 0.483726 1.89524 0
M  V30 2710 C 263.281 -1.03809 1.83812 0
M  V30 2711 O 262.629 -1.89143 1.28207 0
M  V30 2712 C 262.839 1.02769 3.33526 0
M  V30 2713 C 264.187 1.08703 4.10449 0
M  V30 2714 O 265.211 0.977175 3.42534 0
M  V30 2715 O 264.07 1.25599 5.31871 0
M  V30 2716 H 261.164 0.15529 0.812289 0
M  V30 2717 H 263.71 1.01738 1.35822 0
M  V30 2718 H 262.482 2.07155 3.31967 0
M  V30 2719 H 262.105 0.475567 3.94746 0
M  V30 2720 N 263.102 -1.41638 0.69111 0
M  V30 2721 C 264.327 -2.06148 0.227583 0
M  V30 2722 C 264.752 -1.51652 -1.11281 0
M  V30 2723 O 264.11 -0.64164 -1.69566 0
M  V30 2724 C 264.158 -3.60095 0.190858 0
M  V30 2725 O 263.262 -4.03845 -0.835664 0
M  V30 2726 H 262.603 -0.654434 0.112306 0
M  V30 2727 H 265.133 -1.81484 0.944714 0
M  V30 2728 H 265.143 -4.07995 0.020207 0
M  V30 2729 H 263.818 -3.99129 1.16915 0
M  V30 2730 H 262.395 -3.67458 -0.63473 0
M  V30 2731 N 264.58 -0.43555 -1.51462 0
M  V30 2732 C 265.81 0.130053 -2.0619 0
M  V30 2733 C 266.218 1.37164 -1.30317 0
M  V30 2734 O 265.561 1.80225 -0.355598 0
M  V30 2735 C 265.623 0.519418 -3.55728 0
M  V30 2736 C 265.287 -0.615119 -4.52841 0
M  V30 2737 C 266.284 -1.48671 -4.9819 0
M  V30 2738 C 263.969 -0.795341 -4.95963 0
M  V30 2739 C 265.963 -2.52324 -5.8533 0
M  V30 2740 C 263.65 -1.83514 -5.82894 0
M  V30 2741 C 264.648 -2.69748 -6.27475 0
M  V30 2742 O 264.336 -3.71944 -7.1268 0
M  V30 2743 H 264.068 0.0121612 -0.675891 0
M  V30 2744 H 266.622 -0.6129 -1.96043 0
M  V30 2745 H 264.852 1.31505 -3.63653 0
M  V30 2746 H 266.541 1.01597 -3.92979 0
M  V30 2747 H 267.307 -1.359 -4.65571 0
M  V30 2748 H 263.186 -0.133713 -4.60806 0
M  V30 2749 H 266.73 -3.19665 -6.20048 0
M  V30 2750 H 262.627 -1.96306 -6.14926 0
M  V30 2751 H 263.395 -3.68503 -7.30854 0
M  V30 2752 N 266.058 1.56714 -0.166846 0
M  V30 2753 C 266.968 2.21331 0.777791 0
M  V30 2754 C 267.984 1.20358 1.25658 0
M  V30 2755 O 269.16 1.53005 1.30964 0
M  V30 2756 C 266.225 2.83787 1.99163 0
M  V30 2757 C 265.286 3.99947 1.56016 0
M  V30 2758 C 264.519 4.59415 2.71613 0
M  V30 2759 O 264.742 4.17769 3.88362 0
M  V30 2760 O 263.676 5.49359 2.45945 0
M  V30 2761 H 267.502 3.02605 0.257636 0
M  V30 2762 H 265.087 1.49275 0.0611393 0
M  V30 2763 H 266.969 3.23405 2.70161 0
M  V30 2764 H 265.644 2.05513 2.50092 0
M  V30 2765 H 264.551 3.65007 0.819809 0
M  V30 2766 H 265.884 4.79801 1.09782 0
M  V30 2767 N 267.536 -0.106894 1.57237 0
M  V30 2768 C 268.466 -1.13148 2.04254 0
M  V30 2769 C 269.447 -1.42476 0.929224 0
M  V30 2770 O 270.632 -1.52709 1.19973 0
M  V30 2771 C 267.762 -2.4545 2.45706 0
M  V30 2772 C 266.716 -2.30558 3.60592 0
M  V30 2773 C 266.042 -3.67931 3.87983 0
M  V30 2774 C 267.342 -1.75597 4.91897 0
M  V30 2775 H 269.036 -0.740374 2.90101 0
M  V30 2776 H 266.582 -0.354696 1.39563 0
M  V30 2777 H 268.535 -3.17389 2.77205 0
M  V30 2778 H 267.259 -2.86475 1.56843 0
M  V30 2779 H 265.918 -1.61067 3.29322 0
M  V30 2780 H 265.566 -4.06462 2.96306 0
M  V30 2781 H 265.266 -3.58817 4.65322 0
M  V30 2782 H 266.79 -4.41356 4.21945 0
M  V30 2783 H 268.204 -2.37364 5.21854 0
M  V30 2784 H 266.601 -1.77272 5.73319 0
M  V30 2785 H 267.671 -0.714451 4.79608 0
M  V30 2786 N 269.014 -1.53014 -0.377408 0
M  V30 2787 C 270.239 -1.72818 -1.14668 0
M  V30 2788 C 270.664 -0.450725 -1.8262 0
M  V30 2789 O 270.022 0.59439 -1.7128 0
M  V30 2790 C 270.07 -2.88627 -2.16164 0
M  V30 2791 O 269.174 -2.56409 -3.22998 0
M  V30 2792 H 268.515 -0.574301 -0.333278 0
M  V30 2793 H 271.045 -1.99853 -0.438152 0
M  V30 2794 H 271.055 -3.14455 -2.59966 0
M  V30 2795 H 269.73 -3.81294 -1.66095 0
M  V30 2796 H 268.307 -2.4136 -2.84253 0
M  V30 2797 N 270.492 0.636531 -1.44174 0
M  V30 2798 C 271.903 1.21806 -1.41493 0
M  V30 2799 C 272.254 1.95785 -0.1275 0
M  V30 2800 O 271.379 2.02147 0.772376 0
M  V30 2801 C 271.974 2.21551 -2.56321 0
M  V30 2802 C 270.533 2.75143 -2.56853 0
M  V30 2803 C 269.68 1.50052 -2.33195 0
M  V30 2804 H 272.631 0.427531 -1.52833 0
M  V30 2805 H 272.652 3.0405 -2.28765 0
M  V30 2806 H 272.164 1.67679 -3.50008 0
M  V30 2807 H 270.265 3.33033 -1.67093 0
M  V30 2808 H 270.378 3.2155 -3.55165 0
M  V30 2809 H 268.742 1.77993 -1.82183 0
M  V30 2810 H 269.525 0.980903 -3.28988 0
M  V30 2811 N 271.97 1.30982 0.876444 0
M  V30 2812 C 272.902 1.13902 1.98894 0
M  V30 2813 C 273.915 0.0798815 1.62604 0
M  V30 2814 O 275.104 0.326743 1.75484 0
M  V30 2815 C 272.204 0.716699 3.31235 0
M  V30 2816 C 271.377 1.85945 3.95908 0
M  V30 2817 C 270.436 1.42426 5.06558 0
M  V30 2818 O 269.462 2.13287 5.27729 0
M  V30 2819 N 270.664 0.308025 5.79682 0
M  V30 2820 H 273.429 2.09724 2.14094 0
M  V30 2821 H 270.99 1.2323 1.05004 0
M  V30 2822 H 272.982 0.408403 4.02634 0
M  V30 2823 H 271.552 -0.149719 3.12241 0
M  V30 2824 H 270.772 2.33541 3.17573 0
M  V30 2825 H 272.06 2.62503 4.35855 0
M  V30 2826 H 271.458 -0.282241 5.64995 0
M  V30 2827 H 270.015 0.0592282 6.51773 0
M  V30 2828 N 273.449 -1.08991 1.13837 0
M  V30 2829 C 274.379 -2.17771 0.842507 0
M  V30 2830 C 275.36 -1.6892 -0.20001 0
M  V30 2831 O 276.545 -1.94113 -0.0579731 0
M  V30 2832 C 273.675 -3.4589 0.312644 0
M  V30 2833 C 272.629 -4.08099 1.28992 0
M  V30 2834 C 271.955 -5.31098 0.619623 0
M  V30 2835 C 273.255 -4.50077 2.65005 0
M  V30 2836 H 274.949 -2.42777 1.75213 0
M  V30 2837 H 272.495 -1.16682 0.843875 0
M  V30 2838 H 274.448 -4.21297 0.0933043 0
M  V30 2839 H 273.172 -3.20419 -0.632382 0
M  V30 2840 H 271.831 -3.34717 1.49533 0
M  V30 2841 H 271.479 -5.0191 -0.33102 0
M  V30 2842 H 271.179 -5.73674 1.27167 0
M  V30 2843 H 272.703 -6.09224 0.409669 0
M  V30 2844 H 274.117 -5.16688 2.48407 0
M  V30 2845 H 272.514 -5.03553 3.26427 0
M  V30 2846 H 273.584 -3.62257 3.22332 0
M  V30 2847 N 274.927 -0.932562 -1.27047 0
M  V30 2848 C 275.837 -0.441219 -2.30414 0
M  V30 2849 C 276.853 0.480525 -1.67233 0
M  V30 2850 O 278.029 0.362151 -1.98117 0
M  V30 2851 C 275.094 0.293651 -3.45454 0
M  V30 2852 C 274.155 -0.663601 -4.2414 0
M  V30 2853 C 273.388 0.0362932 -5.33688 0
M  V30 2854 O 273.611 1.2548 -5.56427 0
M  V30 2855 O 272.545 -0.638015 -5.98509 0
M  V30 2856 H 276.371 -1.29962 -2.74488 0
M  V30 2857 H 273.956 -0.6981 -1.32087 0
M  V30 2858 H 275.838 0.707951 -4.15411 0
M  V30 2859 H 274.513 1.12758 -3.03426 0
M  V30 2860 H 273.42 -1.12768 -3.56699 0
M  V30 2861 H 274.753 -1.46489 -4.69896 0
M  V30 2862 N 276.405 1.4127 -0.698611 0
M  V30 2863 C 277.315 2.34573 -0.0357891 0
M  V30 2864 C 278.331 1.56393 0.762701 0
M  V30 2865 O 279.507 1.8886 0.699564 0
M  V30 2866 C 276.572 3.35159 0.887089 0
M  V30 2867 C 275.633 4.29225 0.0804634 0
M  V30 2868 C 274.866 5.25006 0.959387 0
M  V30 2869 O 275.089 5.26314 2.19886 0
M  V30 2870 O 274.023 6.00519 0.407439 0
M  V30 2871 H 277.849 2.92838 -0.804957 0
M  V30 2872 H 275.434 1.42175 -0.458966 0
M  V30 2873 H 277.316 3.9689 1.41621 0
M  V30 2874 H 275.991 2.79333 1.6357 0
M  V30 2875 H 274.898 3.70833 -0.493328 0
M  V30 2876 H 276.231 4.88157 -0.629547 0
M  V30 2877 N 277.883 0.443576 1.51229 0
M  V30 2878 C 278.813 -0.355142 2.30783 0
M  V30 2879 C 279.794 -1.0154 1.36468 0
M  V30 2880 O 280.979 -1.01785 1.65389 0
M  V30 2881 C 278.109 -1.45312 3.15439 0
M  V30 2882 C 277.063 -0.916002 4.18083 0
M  V30 2883 C 276.389 -2.1102 4.91299 0
M  V30 2884 C 277.689 0.0538602 5.22272 0
M  V30 2885 H 279.383 0.308767 2.97804 0
M  V30 2886 H 276.929 0.149937 1.43217 0
M  V30 2887 H 278.882 -2.01914 3.69876 0
M  V30 2888 H 277.606 -2.14541 2.46252 0
M  V30 2889 H 276.265 -0.372145 3.64706 0
M  V30 2890 H 275.913 -2.78882 4.18609 0
M  V30 2891 H 275.613 -1.75717 5.60712 0
M  V30 2892 H 277.137 -2.68164 5.48562 0
M  V30 2893 H 278.551 -0.422069 5.71744 0
M  V30 2894 H 276.948 0.319776 5.99247 0
M  V30 2895 H 278.018 0.98858 4.74716 0
M  V30 2896 N 279.361 -1.56624 0.175154 0
M  V30 2897 C 280.61 -1.96173 -0.468921 0
M  V30 2898 C 280.923 -1.06401 -1.64128 0
M  V30 2899 O 282.129 -1.35648 -2.35185 0
M  V30 2900 C 280.585 -3.48833 -0.885633 0
M  V30 2901 C 280.193 -4.47237 0.261343 0
M  V30 2902 C 281.937 -3.97194 -1.49791 0
M  V30 2903 C 279.844 -5.9114 -0.175214 0
M  V30 2904 H 278.774 -0.732455 -0.178958 0
M  V30 2905 H 281.425 -1.81591 0.263997 0
M  V30 2906 H 279.807 -3.58848 -1.67464 0
M  V30 2907 H 280.981 -4.4894 1.03871 0
M  V30 2908 H 279.296 -4.08956 0.783827 0
M  V30 2909 H 281.893 -5.02167 -1.83665 0
M  V30 2910 H 282.236 -3.40351 -2.39722 0
M  V30 2911 H 282.769 -3.90212 -0.773267 0
M  V30 2912 H 279.508 -6.51865 0.689414 0
M  V30 2913 H 279.028 -5.92735 -0.91786 0
M  V30 2914 H 280.707 -6.44044 -0.617792 0
M  V30 2915 N 280.839 0.0985539 -1.57292 0
M  V30 2916 C 282.067 0.816318 -1.90115 0
M  V30 2917 C 282.482 1.72451 -0.768509 0
M  V30 2918 O 281.839 1.80643 0.259687 0
M  V30 2919 C 281.89 1.63259 -3.22535 0
M  V30 2920 O 281.611 0.760934 -4.31441 0
M  V30 2921 C 283.112 2.45372 -3.69199 0
M  V30 2922 H 280.332 0.233595 -0.629027 0
M  V30 2923 H 282.876 0.0768229 -2.04356 0
M  V30 2924 H 281.031 2.32463 -3.09903 0
M  V30 2925 H 281.445 1.32595 -5.07463 0
M  V30 2926 H 282.919 2.98144 -4.64558 0
M  V30 2927 H 283.396 3.23677 -2.96867 0
M  V30 2928 H 284.002 1.81373 -3.84687 0
M  V30 2929 N 282.317 1.53212 0.369288 0
M  V30 2930 C 283.264 1.79388 1.45219 0
M  V30 2931 C 284.234 0.638059 1.53356 0
M  V30 2932 O 285.419 0.879852 1.69302 0
M  V30 2933 C 282.559 1.98623 2.82211 0
M  V30 2934 C 281.672 3.26337 2.8307 0
M  V30 2935 C 280.807 3.35779 4.11614 0
M  V30 2936 C 279.846 4.5754 4.06601 0
M  V30 2937 N 278.983 4.64155 5.26787 0
M  V30 2938 H 283.823 2.71794 1.22198 0
M  V30 2939 H 281.36 1.34642 0.592444 0
M  V30 2940 H 283.318 2.07761 3.61789 0
M  V30 2941 H 281.948 1.09558 3.03639 0
M  V30 2942 H 281 3.26171 1.95747 0
M  V30 2943 H 282.312 4.15988 2.75237 0
M  V30 2944 H 281.466 3.44208 4.99606 0
M  V30 2945 H 280.205 2.44137 4.22195 0
M  V30 2946 H 279.21 4.49215 3.16996 0
M  V30 2947 H 280.435 5.50519 3.97625 0
M  V30 2948 H 278.381 3.75413 5.3796 0
M  V30 2949 H 278.298 5.47706 5.21109 0
M  V30 2950 H 279.566 4.76863 6.16621 0
M  V30 2951 N 283.795 -0.628877 1.44509 0
M  V30 2952 C 285.041 -1.39045 1.47629 0
M  V30 2953 C 285.374 -1.93892 0.109343 0
M  V30 2954 O 284.649 -1.7379 -0.87334 0
M  V30 2955 C 284.932 -2.55408 2.53848 0
M  V30 2956 C 284.785 -2.05896 3.99909 0
M  V30 2957 C 286.104 -3.5759 2.56549 0
M  V30 2958 H 283.223 -0.504232 0.537512 0
M  V30 2959 H 285.865 -0.710854 1.76201 0
M  V30 2960 H 284.015 -3.13384 2.29615 0
M  V30 2961 H 285.687 -1.52734 4.35282 0
M  V30 2962 H 283.93 -1.37061 4.11578 0
M  V30 2963 H 284.601 -2.89681 4.69882 0
M  V30 2964 H 287.077 -3.09419 2.78207 0
M  V30 2965 H 285.953 -4.36527 3.32769 0
M  V30 2966 H 286.214 -4.11808 1.60832 0
M  V30 2967 N 285.273 -1.31445 -0.869486 0
M  V30 2968 C 286.498 -1.24256 -1.66058 0
M  V30 2969 C 286.923 0.188928 -1.87149 0
M  V30 2970 O 286.281 1.13522 -1.4136 0
M  V30 2971 C 286.329 -1.9924 -3.00559 0
M  V30 2972 O 285.433 -1.33007 -3.90362 0
M  V30 2973 H 284.774 -0.428973 -0.506831 0
M  V30 2974 H 287.304 -1.73521 -1.08404 0
M  V30 2975 H 287.314 -2.08854 -3.50491 0
M  V30 2976 H 285.989 -3.03342 -2.84528 0
M  V30 2977 H 284.566 -1.31848 -3.48813 0
M  V30 2978 N 286.751 1.08385 -1.14413 0
M  V30 2979 C 287.698 2.15311 -0.831265 0
M  V30 2980 C 288.668 1.64751 0.211292 0
M  V30 2981 O 289.853 1.90627 0.0811674 0
M  V30 2982 C 286.993 3.43658 -0.315143 0
M  V30 2983 C 286.106 4.08064 -1.41802 0
M  V30 2984 C 285.241 5.24207 -0.859126 0
M  V30 2985 C 284.28 5.80554 -1.93967 0
M  V30 2986 N 283.417 6.88042 -1.39793 0
M  V30 2987 H 288.257 2.41415 -1.74708 0
M  V30 2988 H 285.794 1.18474 -0.871909 0
M  V30 2989 H 287.752 4.172 0.00230884 0
M  V30 2990 H 286.382 3.17839 0.56378 0
M  V30 2991 H 285.434 3.3228 -1.85187 0
M  V30 2992 H 286.746 4.45962 -2.23427 0
M  V30 2993 H 285.9 6.04689 -0.49359 0
M  V30 2994 H 284.639 4.87699 -0.011932 0
M  V30 2995 H 283.644 4.98725 -2.31415 0
M  V30 2996 H 284.869 6.19121 -2.79046 0
M  V30 2997 H 282.815 6.53493 -0.572919 0
M  V30 2998 H 282.732 7.24767 -2.15054 0
M  V30 2999 H 284 7.72255 -1.0603 0
M  V30 3000 N 288.23 0.939286 1.26551 0
M  V30 3001 C 289.193 0.451987 2.24699 0
M  V30 3002 C 290.193 -0.435869 1.5478 0
M  V30 3003 O 291.383 -0.235314 1.72603 0
M  V30 3004 C 288.515 -0.348801 3.39111 0
M  V30 3005 H 289.708 1.3193 2.69322 0
M  V30 3006 H 287.261 0.721072 1.38673 0
M  V30 3007 H 287.996 -1.23444 2.99887 0
M  V30 3008 H 287.781 0.287945 3.91041 0
M  V30 3009 H 289.271 -0.679726 4.12031 0
M  V30 3010 N 289.708 -1.40897 0.706093 0
M  V30 3011 C 290.658 -2.27987 0.0240746 0
M  V30 3012 C 291.642 -1.42759 -0.742204 0
M  V30 3013 O 292.834 -1.65936 -0.615966 0
M  V30 3014 C 289.963 -3.31186 -0.903907 0
M  V30 3015 C 289.049 -4.2389 -0.133318 0
M  V30 3016 N 289.44 -4.98113 0.878444 0
M  V30 3017 C 287.738 -4.44485 -0.367269 0
M  V30 3018 C 288.439 -5.6604 1.34064 0
M  V30 3019 N 287.415 -5.39522 0.664565 0
M  V30 3020 H 291.217 -2.82812 0.799658 0
M  V30 3021 H 288.731 -1.53235 0.537845 0
M  V30 3022 H 290.728 -3.92413 -1.40775 0
M  V30 3023 H 289.388 -2.77922 -1.67897 0
M  V30 3024 H 290.399 -5.02364 1.25901 0
M  V30 3025 H 287.076 -4.02213 -1.1194 0
M  V30 3026 H 288.466 -6.35524 2.1808 0
M  V30 3027 N 291.186 -0.45159 -1.50991 0
M  V30 3028 C 292.118 0.388634 -2.25881 0
M  V30 3029 C 293.131 0.974041 -1.30446 0
M  V30 3030 O 294.32 0.865758 -1.56099 0
M  V30 3031 C 291.42 1.5571 -3.01011 0
M  V30 3032 C 290.593 1.08801 -4.23652 0
M  V30 3033 C 289.652 2.12825 -4.8124 0
M  V30 3034 O 288.678 1.71678 -5.42693 0
M  V30 3035 N 289.88 3.45453 -4.66522 0
M  V30 3036 H 292.645 -0.25329 -2.98628 0
M  V30 3037 H 290.206 -0.281268 -1.59438 0
M  V30 3038 H 292.198 2.24952 -3.3642 0
M  V30 3039 H 290.768 2.10409 -2.31186 0
M  V30 3040 H 289.988 0.22215 -3.93574 0
M  V30 3041 H 291.276 0.752213 -5.03209 0
M  V30 3042 H 290.674 3.81605 -4.17605 0
M  V30 3043 H 289.231 4.10549 -5.06254 0
M  V30 3044 N 292.664 1.56529 -0.183458 0
M  V30 3045 C 293.574 2.22144 0.754272 0
M  V30 3046 C 294.59 1.21684 1.24374 0
M  V30 3047 O 295.766 1.54385 1.29333 0
M  V30 3048 C 292.831 2.85884 1.96141 0
M  V30 3049 C 291.892 4.01579 1.51765 0
M  V30 3050 C 291.125 4.6227 2.66725 0
M  V30 3051 O 291.348 4.21865 3.83909 0
M  V30 3052 O 290.282 5.51936 2.40104 0
M  V30 3053 H 294.108 3.02861 0.225527 0
M  V30 3054 H 291.693 1.49331 0.0453032 0
M  V30 3055 H 293.575 3.26253 2.66715 0
M  V30 3056 H 292.25 2.08154 2.47899 0
M  V30 3057 H 291.157 3.65856 0.781049 0
M  V30 3058 H 292.49 4.80938 1.04686 0
M  V30 3059 N 294.142 -0.090211 1.57342 0
M  V30 3060 C 295.37 -0.806224 1.90546 0
M  V30 3061 C 295.785 -1.72041 0.777644 0
M  V30 3062 O 295.142 -1.80778 -0.250103 0
M  V30 3063 C 295.193 -1.61546 3.23396 0
M  V30 3064 O 294.914 -0.738043 4.31839 0
M  V30 3065 C 296.415 -2.4341 3.70495 0
M  V30 3066 H 293.635 -0.230256 0.630257 0
M  V30 3067 H 296.179 -0.0659843 2.04394 0
M  V30 3068 H 294.334 -2.30816 3.11131 0
M  V30 3069 H 294.748 -1.29901 5.08159 0
M  V30 3070 H 296.222 -2.95676 4.66133 0
M  V30 3071 H 296.699 -3.22098 2.98579 0
M  V30 3072 H 297.305 -1.79331 3.85643 0
M  V30 3073 N 295.62 -1.53406 -0.361157 0
M  V30 3074 C 296.867 -1.69802 -1.10333 0
M  V30 3075 C 297.195 -0.452087 -1.89173 0
M  V30 3076 O 296.45 0.566017 -1.87336 0
M  V30 3077 C 296.749 -2.90211 -2.08596 0
M  V30 3078 C 296.415 -4.26539 -1.46203 0
M  V30 3079 C 295.077 -4.6361 -1.28915 0
M  V30 3080 C 297.429 -5.113 -1.01101 0
M  V30 3081 C 294.757 -5.83075 -0.651157 0
M  V30 3082 C 297.109 -6.31415 -0.387007 0
M  V30 3083 C 295.773 -6.67195 -0.201657 0
M  V30 3084 H 295.043 -0.621351 -0.403737 0
M  V30 3085 H 297.69 -1.87598 -0.384609 0
M  V30 3086 H 295.995 -2.66946 -2.86788 0
M  V30 3087 H 297.692 -3.00091 -2.65982 0
M  V30 3088 H 294.282 -3.97352 -1.60653 0
M  V30 3089 H 298.466 -4.83206 -1.13249 0
M  V30 3090 H 293.722 -6.09385 -0.496006 0
M  V30 3091 H 297.896 -6.96394 -0.0293563 0
M  V30 3092 H 295.523 -7.59628 0.294766 0
M  V30 3093 N 297.098 0.621204 -1.44841 0
M  V30 3094 C 298.509 1.20298 -1.42777 0
M  V30 3095 C 298.86 1.95639 -0.148259 0
M  V30 3096 O 297.985 2.02955 0.750892 0
M  V30 3097 C 298.58 2.1882 -2.58657 0
M  V30 3098 C 297.139 2.72403 -2.59756 0
M  V30 3099 C 296.286 1.4757 -2.34773 0
M  V30 3100 H 299.237 0.411297 -1.53278 0
M  V30 3101 H 299.258 3.01607 -2.31977 0
M  V30 3102 H 298.77 1.63957 -3.51766 0
M  V30 3103 H 296.871 3.31242 -1.70615 0
M  V30 3104 H 296.984 3.17765 -3.58556 0
M  V30 3105 H 295.348 1.76051 -1.8406 0
M  V30 3106 H 296.131 0.945954 -3.3001 0
M  V30 3107 N 298.576 1.31904 0.862503 0
M  V30 3108 C 299.801 1.25135 1.65397 0
M  V30 3109 C 300.226 -0.179 1.87246 0
M  V30 3110 O 299.584 -1.1277 1.4196 0
M  V30 3111 C 299.632 2.00832 2.99498 0
M  V30 3112 O 298.736 1.35075 3.89652 0
M  V30 3113 H 298.077 0.431655 0.504549 0
M  V30 3114 H 300.607 1.74094 1.07483 0
M  V30 3115 H 300.617 2.10709 3.49379 0
M  V30 3116 H 299.292 3.04847 2.82916 0
M  V30 3117 H 297.869 1.33696 3.48109 0
M  V30 3118 N 300.054 -1.07777 1.14986 0
M  V30 3119 C 300.984 -2.16865 0.865557 0
M  V30 3120 C 301.965 -1.69123 -0.182083 0
M  V30 3121 O 303.15 -1.94164 -0.0373815 0
M  V30 3122 C 300.28 -3.45539 0.349313 0
M  V30 3123 C 299.234 -4.06708 1.33313 0
M  V30 3124 C 298.56 -5.30411 0.675918 0
M  V30 3125 C 299.86 -4.47241 2.69764 0
M  V30 3126 H 301.554 -2.40905 1.77778 0
M  V30 3127 H 299.1 -1.15781 0.856203 0
M  V30 3128 H 301.053 -4.21174 0.137983 0
M  V30 3129 H 299.777 -3.21072 -0.598362 0
M  V30 3130 H 298.436 -3.33112 1.53075 0
M  V30 3131 H 298.084 -5.02232 -0.277767 0
M  V30 3132 H 297.784 -5.72293 1.33244 0
M  V30 3133 H 299.308 -6.08755 0.474262 0
M  V30 3134 H 300.722 -5.14025 2.53873 0
M  V30 3135 H 299.119 -5.00062 3.3175 0
M  V30 3136 H 300.189 -3.58818 3.26156 0
M  V30 3137 N 301.532 -0.945985 -1.26051 0
M  V30 3138 C 302.772 -0.603665 -1.95282 0
M  V30 3139 C 303.136 0.842377 -1.72534 0
M  V30 3140 O 304.337 1.29387 -2.35611 0
M  V30 3141 C 302.608 -0.942292 -3.44754 0
M  V30 3142 S 304.167 -0.711242 -4.32997 0
M  V30 3143 H 300.985 -0.222176 -0.675395 0
M  V30 3144 H 303.587 -1.21832 -1.52896 0
M  V30 3145 H 302.291 -1.99203 -3.58812 0
M  V30 3146 H 301.822 -0.317546 -3.92116 0
M  V30 3147 H 303.837 0.422221 -4.944 0
M  V30 3148 N 303.011 1.40521 -0.713556 0
M  V30 3149 C 303.943 2.29191 -0.0203126 0
M  V30 3150 C 304.956 1.45723 0.725864 0
M  V30 3151 O 306.145 1.69033 0.573581 0
M  V30 3152 C 303.245 3.2395 0.995486 0
M  V30 3153 C 302.418 4.36262 0.315256 0
M  V30 3154 C 301.477 5.11474 1.23616 0
M  V30 3155 O 300.503 5.64606 0.721719 0
M  V30 3156 N 301.705 5.20638 2.56743 0
M  V30 3157 H 304.47 2.89327 -0.781652 0
M  V30 3158 H 302.031 1.51869 -0.561022 0
M  V30 3159 H 304.023 3.71137 1.61368 0
M  V30 3160 H 302.593 2.64995 1.6582 0
M  V30 3161 H 301.813 3.91228 -0.483106 0
M  V30 3162 H 303.101 5.08558 -0.157004 0
M  V30 3163 H 302.499 4.7895 3.01037 0
M  V30 3164 H 301.056 5.71339 3.13712 0
M  V30 3165 N 304.489 0.459591 1.5075 0
M  V30 3166 C 305.419 -0.330644 2.31147 0
M  V30 3167 C 306.4 -1.00087 1.37538 0
M  V30 3168 O 307.585 -1.00025 1.66459 0
M  V30 3169 C 304.715 -1.41958 3.16962 0
M  V30 3170 C 303.669 -0.871608 4.19031 0
M  V30 3171 C 302.995 -2.05797 4.9351 0
M  V30 3172 C 304.295 0.109251 5.22186 0
M  V30 3173 H 305.989 0.340336 2.97459 0
M  V30 3174 H 303.535 0.165119 1.4305 0
M  V30 3175 H 305.488 -1.9798 3.71997 0
M  V30 3176 H 304.212 -2.11917 2.48513 0
M  V30 3177 H 302.871 -0.333442 3.6508 0
M  V30 3178 H 302.519 -2.74427 4.21544 0
M  V30 3179 H 302.219 -1.6976 5.62544 0
M  V30 3180 H 303.743 -2.62331 5.51375 0
M  V30 3181 H 305.157 -0.361405 5.7216 0
M  V30 3182 H 303.554 0.383316 5.98875 0
M  V30 3183 H 304.624 1.03887 4.73641 0
M  V30 3184 N 305.967 -1.56429 0.191757 0
M  V30 3185 C 307.215 -1.97095 -0.447006 0
M  V30 3186 C 307.536 -1.07967 -1.62383 0
M  V30 3187 O 306.806 -0.150248 -1.95323 0
M  V30 3188 H 305.386 -0.727832 -0.168135 0
M  V30 3189 H 308.048 -1.92911 0.27771 0
M  V30 3190 H 307.144 -3.01848 -0.793371 0
M  V30 3191 N 307.445 0.0818655 -1.57387 0
M  V30 3192 C 308.392 1.09834 -2.0299 0
M  V30 3193 C 309.362 1.39043 -0.908639 0
M  V30 3194 O 310.547 1.50282 -1.17559 0
M  V30 3195 C 307.687 2.40971 -2.47037 0
M  V30 3196 C 306.8 2.18379 -3.7274 0
M  V30 3197 C 305.935 3.43008 -4.0561 0
M  V30 3198 C 304.974 3.15736 -5.24383 0
M  V30 3199 N 304.111 4.32667 -5.52941 0
M  V30 3200 H 308.951 0.702472 -2.89602 0
M  V30 3201 H 306.488 0.33531 -1.43227 0
M  V30 3202 H 308.446 3.1752 -2.70623 0
M  V30 3203 H 307.076 2.78379 -1.63417 0
M  V30 3204 H 306.128 1.32569 -3.56552 0
M  V30 3205 H 307.44 1.94227 -4.59431 0
M  V30 3206 H 306.594 4.27958 -4.30043 0
M  V30 3207 H 305.333 3.70225 -3.17466 0
M  V30 3208 H 304.338 2.2918 -4.99757 0
M  V30 3209 H 305.563 2.8985 -6.14136 0
M  V30 3210 H 303.509 4.59935 -4.67756 0
M  V30 3211 H 303.426 4.11753 -6.34031 0
M  V30 3212 H 304.694 5.18644 -5.81918 0
M  V30 3213 N 308.923 1.53595 0.353017 0
M  V30 3214 C 310.153 1.74058 1.11299 0
M  V30 3215 C 310.561 0.475205 1.83135 0
M  V30 3216 O 309.904 -0.562344 1.74881 0
M  V30 3217 C 309.966 2.85994 2.17825 0
M  V30 3218 C 309.63 4.25923 1.65647 0
M  V30 3219 C 310.627 5.07829 1.11383 0
M  V30 3220 C 308.312 4.72377 1.7078 0
M  V30 3221 C 310.306 6.34285 0.629439 0
M  V30 3222 C 307.993 5.98808 1.21953 0
M  V30 3223 C 308.991 6.79594 0.681265 0
M  V30 3224 O 308.679 8.03651 0.200248 0
M  V30 3225 H 308.411 0.585327 0.338183 0
M  V30 3226 H 310.965 2.01186 0.413927 0
M  V30 3227 H 309.195 2.54368 2.91262 0
M  V30 3228 H 310.884 2.94515 2.79313 0
M  V30 3229 H 311.65 4.73107 1.06746 0
M  V30 3230 H 307.529 4.0956 2.11617 0
M  V30 3231 H 311.073 6.97288 0.208636 0
M  V30 3232 H 306.97 6.33026 1.26287 0
M  V30 3233 H 307.738 8.1788 0.318416 0
M  V30 3234 N 310.401 -0.613514 1.45168 0
M  V30 3235 C 311.629 -1.39946 1.5239 0
M  V30 3236 C 312.044 -1.88167 0.154531 0
M  V30 3237 O 311.401 -1.61872 -0.842843 0
M  V30 3238 C 311.452 -2.60795 2.50337 0
M  V30 3239 O 311.173 -2.1458 3.81952 0
M  V30 3240 C 312.674 -3.53723 2.67198 0
M  V30 3241 H 309.894 -0.428593 0.516284 0
M  V30 3242 H 312.438 -0.748753 1.903 0
M  V30 3243 H 310.593 -3.21919 2.15515 0
M  V30 3244 H 311.007 -2.93055 4.34993 0
M  V30 3245 H 312.481 -4.35079 3.39721 0
M  V30 3246 H 312.958 -4.0368 1.73029 0
M  V30 3247 H 313.564 -2.98456 3.02992 0
M  V30 3248 N 311.879 -1.3236 -0.855495 0
M  V30 3249 C 313.107 -1.2587 -1.64208 0
M  V30 3250 C 313.522 0.173457 -1.88002 0
M  V30 3251 O 312.879 1.11027 -1.44842 0
M  V30 3252 C 312.93 -2.01424 -3.00184 0
M  V30 3253 O 312.651 -3.39051 -2.77445 0
M  V30 3254 C 314.152 -2.01948 -3.94629 0
M  V30 3255 H 311.372 -0.434318 -0.511477 0
M  V30 3256 H 313.916 -1.74469 -1.0668 0
M  V30 3257 H 312.071 -1.56549 -3.5436 0
M  V30 3258 H 312.485 -3.77711 -3.63916 0
M  V30 3259 H 313.959 -2.59297 -4.87308 0
M  V30 3260 H 314.436 -1.00554 -4.27534 0
M  V30 3261 H 315.042 -2.46767 -3.4639 0
M  V30 3262 N 313.357 1.07166 -1.15556 0
M  V30 3263 C 314.305 2.16517 -0.8499 0
M  V30 3264 C 315.299 1.68468 0.177454 0
M  V30 3265 O 316.505 1.79971 0.0323026 0
M  V30 3266 H 312.88 0.706652 -0.25719 0
M  V30 3267 H 314.851 2.39514 -1.77976 0
M  V30 3268 C 313.6 3.45855 -0.357682 0
M  V30 3269 H 312.923 3.83214 -1.13961 0
M  V30 3270 H 314.363 4.23607 -0.182489 0
M  V30 3271 C 312.822 3.24062 0.921152 0
M  V30 3272 O 313.352 3.48813 1.9923 0
M  V30 3273 N 311.558 2.77539 0.86141 0
M  V30 3274 H 311.105 2.57598 -0.0104408 0
M  V30 3275 H 311.063 2.63337 1.71758 0
M  V30 3276 N 314.835 0.952656 1.25548 0
M  V30 3277 C 316.06 0.623025 1.97821 0
M  V30 3278 C 316.485 -0.7976 1.70352 0
M  V30 3279 O 315.843 -1.53905 0.958283 0
M  V30 3280 C 315.891 0.885532 3.49558 0
M  V30 3281 O 314.995 -0.0366641 4.12384 0
M  V30 3282 H 314.336 0.237082 0.620232 0
M  V30 3283 H 316.866 1.27871 1.59719 0
M  V30 3284 H 316.876 0.811009 3.99858 0
M  V30 3285 H 315.551 1.92094 3.6888 0
M  V30 3286 H 314.128 0.0898954 3.72792 0
M  V30 3287 N 316.313 -1.40141 0.720998 0
M  V30 3288 C 317.538 -2.05618 0.271258 0
M  V30 3289 C 317.963 -1.53978 -1.08039 0
M  V30 3290 O 317.321 -0.677463 -1.68167 0
M  V30 3291 C 317.369 -3.59609 0.267197 0
M  V30 3292 O 316.473 -4.05526 -0.749814 0
M  V30 3293 H 315.814 -0.651904 0.126162 0
M  V30 3294 H 318.344 -1.79439 0.982997 0
M  V30 3295 H 318.354 -4.0786 0.106744 0
M  V30 3296 H 317.029 -3.96559 1.25354 0
M  V30 3297 H 315.606 -3.68722 -0.556644 0
M  V30 3298 N 317.792 -0.46758 -1.50504 0
M  V30 3299 C 318.755 0.317059 -2.26996 0
M  V30 3300 C 319.755 0.923513 -1.31635 0
M  V30 3301 O 320.945 0.793239 -1.55091 0
M  V30 3302 C 318.077 1.45134 -3.08462 0
M  V30 3303 H 319.27 -0.353723 -2.97807 0
M  V30 3304 H 316.823 -0.221545 -1.54722 0
M  V30 3305 H 317.558 2.15728 -2.4214 0
M  V30 3306 H 317.343 1.02232 -3.78538 0
M  V30 3307 H 318.833 2.00493 -3.66323 0
M  V30 3308 N 319.27 1.56325 -0.20005 0
M  V30 3309 C 320.547 1.89484 0.48529 0
M  V30 3310 C 320.927 1.1143 1.79294 0
M  V30 3311 O 320.275 0.216919 2.27468 0
M  V30 3312 C 320.485 3.41923 0.699243 0
M  V30 3313 C 321.833 4.12256 1.01638 0
M  V30 3314 O 322.857 3.47402 0.786792 0
M  V30 3315 O 321.716 5.26887 1.45095 0
M  V30 3316 H 318.81 0.787144 0.253639 0
M  V30 3317 H 321.356 1.67985 -0.240633 0
M  V30 3318 H 320.128 3.90658 -0.224008 0
M  V30 3319 H 319.751 3.69131 1.47744 0
M  V30 3320 N 320.748 -0.0735177 1.57428 0
M  V30 3321 C 321.698 -1.09442 2.00016 0
M  V30 3322 C 322.682 -1.34575 0.881947 0
M  V30 3323 O 323.874 -1.34905 1.14585 0
M  V30 3324 C 321.003 -2.40865 2.4462 0
M  V30 3325 C 320.089 -2.19014 3.63172 0
M  V30 3326 N 320.48 -1.67087 4.77405 0
M  V30 3327 C 318.778 -2.49494 3.69688 0
M  V30 3328 C 319.479 -1.6001 5.5926 0
M  V30 3329 N 318.455 -2.05999 5.03056 0
M  V30 3330 H 322.257 -0.686227 2.85776 0
M  V30 3331 H 319.771 -0.280617 1.59957 0
M  V30 3332 H 321.768 -3.14763 2.73368 0
M  V30 3333 H 320.428 -2.82403 1.60246 0
M  V30 3334 H 321.439 -1.35975 4.99731 0
M  V30 3335 H 318.116 -2.94409 2.96023 0
M  V30 3336 H 319.506 -1.2073 6.60964 0
M  V30 3337 N 322.226 -1.5378 -0.344866 0
M  V30 3338 C 323.642 -1.44015 -0.687888 0
M  V30 3339 C 323.842 -0.595834 -1.92489 0
M  V30 3340 O 322.898 -0.0863064 -2.52352 0
M  V30 3341 C 324.211 -2.87481 -0.881758 0
M  V30 3342 C 325.759 -2.97247 -0.980459 0
M  V30 3343 C 326.234 -4.41819 -1.20665 0
M  V30 3344 N 327.725 -4.45339 -1.27389 0
M  V30 3345 C 328.46 -5.54333 -1.46639 0
M  V30 3346 N 327.956 -6.73335 -1.63071 0
M  V30 3347 N 329.749 -5.41944 -1.49176 0
M  V30 3348 H 321.9 -2.07169 0.468475 0
M  V30 3349 H 324.163 -0.93643 0.147655 0
M  V30 3350 H 323.869 -3.51672 -0.0443444 0
M  V30 3351 H 323.743 -3.32352 -1.78388 0
M  V30 3352 H 326.13 -2.33197 -1.8084 0
M  V30 3353 H 326.211 -2.5574 -0.0552713 0
M  V30 3354 H 325.855 -5.06449 -0.383652 0
M  V30 3355 H 325.785 -4.80917 -2.14539 0
M  V30 3356 H 328.276 -3.59585 -1.1622 0
M  V30 3357 H 328.589 -7.52165 -1.77391 0
M  V30 3358 H 326.934 -6.76282 -1.60209 0
M  V30 3359 H 330.125 -4.47932 -1.3592 0
M  V30 3360 H 330.298 -6.26946 -1.63837 0
M  V30 3361 N 323.704 0.605807 -1.45491 0
M  V30 3362 C 324.95 1.36679 -1.49823 0
M  V30 3363 C 325.283 1.93693 -0.140175 0
M  V30 3364 O 324.558 1.75158 0.845581 0
M  V30 3365 C 324.841 2.51337 -2.57879 0
M  V30 3366 C 324.694 1.99508 -4.03134 0
M  V30 3367 C 326.013 3.53463 -2.62205 0
M  V30 3368 H 323.132 0.495617 -0.545466 0
M  V30 3369 H 325.774 0.682732 -1.7731 0
M  V30 3370 H 323.924 3.09691 -2.34571 0
M  V30 3371 H 325.596 1.45789 -4.37656 0
M  V30 3372 H 323.839 1.30496 -4.13707 0
M  V30 3373 H 324.51 2.82169 -4.74431 0
M  V30 3374 H 326.986 3.04953 -2.83095 0
M  V30 3375 H 325.862 4.31178 -3.39672 0
M  V30 3376 H 326.123 4.09197 -1.67363 0
M  V30 3377 N 325.182 1.32811 0.848464 0
M  V30 3378 C 326.114 1.18095 1.96433 0
M  V30 3379 C 327.127 0.114354 1.62398 0
M  V30 3380 O 328.316 0.363892 1.74751 0
M  V30 3381 C 325.416 0.786798 3.2964 0
M  V30 3382 C 324.589 1.943 3.91875 0
M  V30 3383 C 323.648 1.53138 5.03423 0
M  V30 3384 O 322.674 2.24432 5.23086 0
M  V30 3385 N 323.876 0.430915 5.78898 0
M  V30 3386 H 326.641 2.14218 2.09597 0
M  V30 3387 H 324.202 1.2543 1.02367 0
M  V30 3388 H 326.194 0.493715 4.01677 0
M  V30 3389 H 324.764 -0.0834541 3.12489 0
M  V30 3390 H 323.984 2.40224 3.12547 0
M  V30 3391 H 325.272 2.71689 4.30189 0
M  V30 3392 H 324.67 -0.162333 5.65467 0
M  V30 3393 H 323.227 0.197466 6.51501 0
M  V30 3394 N 326.66 -1.06551 1.16123 0
M  V30 3395 C 327.59 -2.15935 0.88851 0
M  V30 3396 C 328.571 -1.69306 -0.164135 0
M  V30 3397 O 329.756 -1.94193 -0.0167857 0
M  V30 3398 C 326.886 -3.45149 0.385942 0
M  V30 3399 C 325.84 -4.05271 1.3762 0
M  V30 3400 C 325.166 -5.29664 0.732137 0
M  V30 3401 C 326.466 -4.44355 2.74493 0
M  V30 3402 H 328.16 -2.39006 1.80323 0
M  V30 3403 H 325.706 -1.14866 0.868435 0
M  V30 3404 H 327.659 -4.21004 0.182647 0
M  V30 3405 H 326.383 -3.21689 -0.564274 0
M  V30 3406 H 325.042 -3.3147 1.56599 0
M  V30 3407 H 324.69 -5.02499 -0.224483 0
M  V30 3408 H 324.39 -5.70848 1.39307 0
M  V30 3409 H 325.914 -6.08218 0.538802 0
M  V30 3410 H 327.328 -5.11303 2.59311 0
M  V30 3411 H 325.725 -4.96515 3.37035 0
M  V30 3412 H 326.795 -3.55339 3.29943 0
M  V30 3413 N 328.138 -0.959301 -1.25041 0
M  V30 3414 C 329.415 -0.533805 -1.88175 0
M  V30 3415 C 329.795 0.988994 -1.865 0
M  V30 3416 O 329.143 1.85677 -1.33177 0
M  V30 3417 C 329.353 -1.11575 -3.30684 0
M  V30 3418 C 330.701 -1.19548 -4.07423 0
M  V30 3419 O 331.725 -1.06765 -3.39823 0
M  V30 3420 O 330.584 -1.39656 -5.28354 0
M  V30 3421 H 327.678 -0.176772 -0.807887 0
M  V30 3422 H 330.224 -1.05303 -1.33076 0
M  V30 3423 H 328.996 -2.15884 -3.26358 0
M  V30 3424 H 328.619 -0.580059 -3.93346 0
M  V30 3425 N 329.616 1.39756 -0.72842 0
M  V30 3426 C 330.546 2.33289 -0.0991354 0
M  V30 3427 C 331.527 1.53568 0.731489 0
M  V30 3428 O 332.712 1.81987 0.677807 0
M  V30 3429 C 329.842 3.3763 0.813834 0
M  V30 3430 C 328.796 4.2791 0.0878663 0
M  V30 3431 C 328.122 5.22894 1.11741 0
M  V30 3432 C 329.422 5.11314 -1.06563 0
M  V30 3433 H 331.116 2.86163 -0.880408 0
M  V30 3434 H 328.662 1.37591 -0.424819 0
M  V30 3435 H 330.615 4.0201 1.26355 0
M  V30 3436 H 329.339 2.83181 1.62715 0
M  V30 3437 H 327.998 3.65 -0.342159 0
M  V30 3438 H 327.646 4.64744 1.92412 0
M  V30 3439 H 327.346 5.84143 0.636477 0
M  V30 3440 H 328.87 5.90151 1.56697 0
M  V30 3441 H 330.284 5.69076 -0.694671 0
M  V30 3442 H 328.681 5.81671 -1.47577 0
M  V30 3443 H 329.751 4.46534 -1.89038 0
M  V30 3444 N 331.094 0.475555 1.50254 0
M  V30 3445 C 332.342 -0.077738 2.0195 0
M  V30 3446 C 332.663 -1.39813 1.35931 0
M  V30 3447 O 331.933 -1.89249 0.506123 0
M  V30 3448 H 330.513 -0.031719 0.746326 0
M  V30 3449 H 333.175 0.626995 1.84539 0
M  V30 3450 H 332.271 -0.225995 3.11281 0
M  V30 3451 N 332.573 -1.56217 0.208337 0
M  V30 3452 C 333.503 -2.22694 -0.702116 0
M  V30 3453 C 334.484 -1.19432 -1.2112 0
M  V30 3454 O 335.669 -1.47978 -1.25762 0
M  V30 3455 C 332.799 -2.8966 -1.9161 0
M  V30 3456 C 331.753 -3.9928 -1.5414 0
M  V30 3457 C 331.079 -4.53476 -2.83308 0
M  V30 3458 C 332.379 -5.17012 -0.741339 0
M  V30 3459 H 334.073 -2.99034 -0.147898 0
M  V30 3460 H 331.619 -1.43831 -0.0696951 0
M  V30 3461 H 333.572 -3.34852 -2.55836 0
M  V30 3462 H 332.296 -2.10746 -2.49507 0
M  V30 3463 H 330.955 -3.54799 -0.922668 0
M  V30 3464 H 330.603 -3.71308 -3.39322 0
M  V30 3465 H 330.303 -5.27451 -2.58976 0
M  V30 3466 H 331.827 -5.01378 -3.485 0
M  V30 3467 H 333.241 -5.58667 -1.28699 0
M  V30 3468 H 331.638 -5.97137 -0.595627 0
M  V30 3469 H 332.708 -4.8423 0.254851 0
M  V30 3470 N 334.051 0.0651679 -1.57465 0
M  V30 3471 C 335.297 0.758912 -1.88712 0
M  V30 3472 C 335.652 1.7485 -0.802819 0
M  V30 3473 O 334.945 1.90632 0.192359 0
M  V30 3474 C 335.139 1.50081 -3.24362 0
M  V30 3475 C 334.968 0.584579 -4.45884 0
M  V30 3476 C 333.738 0.219039 -5.04825 0
M  V30 3477 C 335.936 -0.121559 -5.14156 0
M  V30 3478 N 333.918 -0.702222 -6.09871 0
M  V30 3479 C 335.289 -0.899767 -6.13436 0
M  V30 3480 C 337.344 -0.192331 -4.97528 0
M  V30 3481 C 336.047 -1.74218 -6.97883 0
M  V30 3482 C 338.073 -1.02174 -5.82507 0
M  V30 3483 C 337.435 -1.78798 -6.8133 0
M  V30 3484 H 333.534 0.25293 -0.739967 0
M  V30 3485 H 336.118 0.0201744 -1.9469 0
M  V30 3486 H 334.289 2.21023 -3.1938 0
M  V30 3487 H 336.021 2.14409 -3.43236 0
M  V30 3488 H 332.776 0.57336 -4.70117 0
M  V30 3489 H 333.2 -1.15629 -6.67052 0
M  V30 3490 H 337.842 0.385741 -4.21037 0
M  V30 3491 H 335.56 -2.3312 -7.73745 0
M  V30 3492 H 339.146 -1.07957 -5.71696 0
M  V30 3493 H 338.026 -2.41942 -7.45945 0
M  V30 3494 N 335.529 1.53961 0.336706 0
M  V30 3495 C 336.806 1.62171 1.09361 0
M  V30 3496 C 337.186 0.447263 2.06307 0
M  V30 3497 O 336.534 -0.559802 2.21537 0
M  V30 3498 C 336.744 2.98565 1.80721 0
M  V30 3499 C 338.092 3.54157 2.34218 0
M  V30 3500 O 339.116 3.00784 1.90807 0
M  V30 3501 O 337.975 4.47528 3.13657 0
M  V30 3502 H 335.069 0.6562 0.503319 0
M  V30 3503 H 337.615 1.66307 0.33765 0
M  V30 3504 H 336.387 3.75482 1.10132 0
M  V30 3505 H 336.01 2.9805 2.63158 0
M  V30 3506 N 337.007 -0.598083 1.45811 0
M  V30 3507 C 337.954 -1.7082 1.55207 0
M  V30 3508 C 338.924 -1.61278 0.39732 0
M  V30 3509 O 340.109 -1.80717 0.612038 0
M  V30 3510 C 337.249 -3.09144 1.53376 0
M  V30 3511 C 336.362 -3.29423 2.79472 0
M  V30 3512 C 335.497 -4.57907 2.69248 0
M  V30 3513 C 334.536 -4.71476 3.90354 0
M  V30 3514 N 333.673 -5.9127 3.78608 0
M  V30 3515 H 338.513 -1.62125 2.50039 0
M  V30 3516 H 336.05 -0.790389 1.24062 0
M  V30 3517 H 338.008 -3.89186 1.50301 0
M  V30 3518 H 336.638 -3.16773 0.620876 0
M  V30 3519 H 335.69 -2.43091 2.92594 0
M  V30 3520 H 337.002 -3.3532 3.69272 0
M  V30 3521 H 336.156 -5.46157 2.64192 0
M  V30 3522 H 334.895 -4.54423 1.77063 0
M  V30 3523 H 333.9 -3.81648 3.95759 0
M  V30 3524 H 335.125 -4.76751 4.83617 0
M  V30 3525 H 333.071 -5.88813 2.89199 0
M  V30 3526 H 332.988 -5.98369 4.6205 0
M  V30 3527 H 334.256 -6.81992 3.77501 0
M  V30 3528 N 338.485 -1.33259 -0.841409 0
M  V30 3529 C 339.732 -1.24572 -1.5965 0
M  V30 3530 C 340.06 0.189137 -1.93578 0
M  V30 3531 O 339.315 1.14566 -1.5866 0
M  V30 3532 C 339.614 -2.06381 -2.9179 0
M  V30 3533 C 339.28 -3.556 -2.77235 0
M  V30 3534 C 337.942 -3.96282 -2.72973 0
M  V30 3535 C 340.294 -4.50433 -2.62221 0
M  V30 3536 C 337.622 -5.30017 -2.51592 0
M  V30 3537 C 339.974 -5.84327 -2.42374 0
M  V30 3538 C 338.638 -6.24194 -2.36512 0
M  V30 3539 H 337.908 -0.455842 -0.5842 0
M  V30 3540 H 340.555 -1.6482 -0.975016 0
M  V30 3541 H 338.86 -1.58903 -3.5813 0
M  V30 3542 H 340.557 -1.97019 -3.49263 0
M  V30 3543 H 337.147 -3.23298 -2.81384 0
M  V30 3544 H 341.331 -4.19914 -2.64549 0
M  V30 3545 H 336.587 -5.59947 -2.45499 0
M  V30 3546 H 340.761 -6.57414 -2.29739 0
M  V30 3547 H 338.388 -7.27759 -2.19706 0
M  V30 3548 N 339.963 1.05934 -1.16686 0
M  V30 3549 C 341.188 1.83029 -0.975455 0
M  V30 3550 C 341.613 1.82096 0.471452 0
M  V30 3551 O 340.971 1.22443 1.33706 0
M  V30 3552 C 341.019 3.27372 -1.51195 0
M  V30 3553 O 340.123 4.06054 -0.720701 0
M  V30 3554 H 339.464 0.566194 -0.346872 0
M  V30 3555 H 341.994 1.33541 -1.55009 0
M  V30 3556 H 342.004 3.78186 -1.53099 0
M  V30 3557 H 340.679 3.27366 -2.56523 0
M  V30 3558 H 339.256 3.64812 -0.772458 0
M  V30 3559 N 341.441 0.965919 1.2453 0
M  V30 3560 C 342.351 0.502154 2.29163 0
M  V30 3561 C 343.367 -0.436017 1.68448 0
M  V30 3562 O 344.543 -0.309497 1.99008 0
M  V30 3563 C 341.608 -0.201956 3.46111 0
M  V30 3564 C 340.669 0.775821 4.22232 0
M  V30 3565 C 339.902 0.105217 5.33596 0
M  V30 3566 O 340.125 -1.10683 5.59558 0
M  V30 3567 O 339.059 0.796475 5.96607 0
M  V30 3568 H 342.885 1.37194 2.70946 0
M  V30 3569 H 340.47 0.732875 1.30189 0
M  V30 3570 H 342.352 -0.597564 4.17142 0
M  V30 3571 H 341.027 -1.04673 3.06309 0
M  V30 3572 H 339.934 1.22185 3.53584 0
M  V30 3573 H 341.267 1.58896 4.65846 0
M  V30 3574 N 342.919 -1.39368 0.735821 0
M  V30 3575 C 343.849 -2.33234 0.111506 0
M  V30 3576 C 344.83 -1.53954 -0.723334 0
M  V30 3577 O 346.015 -1.82344 -0.668147 0
M  V30 3578 C 343.145 -3.38057 -0.795917 0
M  V30 3579 C 342.099 -4.2795 -0.065172 0
M  V30 3580 C 341.425 -5.23479 -1.08967 0
M  V30 3581 C 342.725 -5.10741 1.09273 0
M  V30 3582 H 344.419 -2.85692 0.895571 0
M  V30 3583 H 341.965 -1.37364 0.432109 0
M  V30 3584 H 343.918 -4.02675 -1.24221 0
M  V30 3585 H 342.642 -2.8404 -1.61211 0
M  V30 3586 H 341.301 -3.64813 0.361511 0
M  V30 3587 H 340.949 -4.65758 -1.89944 0
M  V30 3588 H 340.649 -5.84472 -0.605489 0
M  V30 3589 H 342.173 -5.90974 -1.53565 0
M  V30 3590 H 343.587 -5.68699 0.724841 0
M  V30 3591 H 341.984 -5.8088 1.50659 0
M  V30 3592 H 343.054 -4.45525 1.91404 0
M  V30 3593 N 344.397 -0.483516 -1.5 0
M  V30 3594 C 345.36 0.292965 -2.2732 0
M  V30 3595 C 346.36 0.909499 -1.32608 0
M  V30 3596 O 347.55 0.776745 -1.55924 0
M  V30 3597 C 344.682 1.41854 -3.09984 0
M  V30 3598 H 345.875 -0.385289 -2.97415 0
M  V30 3599 H 343.428 -0.237942 -1.54478 0
M  V30 3600 H 344.163 2.13148 -2.44414 0
M  V30 3601 H 343.948 0.982114 -3.79601 0
M  V30 3602 H 345.438 1.96597 -3.68429 0
M  V30 3603 N 345.875 1.56104 -0.216619 0
M  V30 3604 C 347.103 2.02563 0.421413 0
M  V30 3605 C 347.518 1.0965 1.53695 0
M  V30 3606 O 346.875 0.10521 1.82196 0
M  V30 3607 C 346.926 3.48584 0.957665 0
M  V30 3608 O 346.647 4.37953 -0.113389 0
M  V30 3609 C 348.148 4.10664 1.66943 0
M  V30 3610 H 345.368 0.662944 0.103665 0
M  V30 3611 H 347.912 2.01793 -0.331629 0
M  V30 3612 H 346.067 3.49985 1.661 0
M  V30 3613 H 346.481 5.23704 0.288932 0
M  V30 3614 H 347.955 5.14622 1.99671 0
M  V30 3615 H 348.432 3.55373 2.58083 0
M  V30 3616 H 349.038 4.13098 1.01142 0
M  V30 3617 N 347.353 -0.0568162 1.57498 0
M  V30 3618 C 348.3 -1.06591 2.04712 0
M  V30 3619 C 349.27 -1.3758 0.930644 0
M  V30 3620 O 350.455 -1.48392 1.19935 0
M  V30 3621 C 347.595 -2.3701 2.50839 0
M  V30 3622 C 346.708 -2.12421 3.76167 0
M  V30 3623 C 345.843 -3.36511 4.11015 0
M  V30 3624 C 344.882 -3.07353 5.2934 0
M  V30 3625 N 344.019 -4.23816 5.59754 0
M  V30 3626 H 348.859 -0.65631 2.90683 0
M  V30 3627 H 346.396 -0.312481 1.43743 0
M  V30 3628 H 348.354 -3.13175 2.7564 0
M  V30 3629 H 346.984 -2.75744 1.67825 0
M  V30 3630 H 346.036 -1.2688 3.58616 0
M  V30 3631 H 347.348 -1.86894 4.62463 0
M  V30 3632 H 346.502 -4.21062 4.36797 0
M  V30 3633 H 345.241 -3.65128 3.23315 0
M  V30 3634 H 344.246 -2.212 5.03339 0
M  V30 3635 H 345.471 -2.80043 6.1867 0
M  V30 3636 H 343.417 -4.52436 4.75014 0
M  V30 3637 H 343.334 -4.01614 6.40501 0
M  V30 3638 H 344.602 -5.0932 5.90096 0
M  V30 3639 N 348.832 -1.54138 -0.328536 0
M  V30 3640 C 350.072 -1.73827 -1.07534 0
M  V30 3641 C 350.436 -0.498777 -1.85408 0
M  V30 3642 O 351.637 -0.572937 -2.62623 0
M  V30 3643 C 349.908 -2.97573 -1.97952 0
M  V30 3644 S 351.467 -3.38143 -2.79652 0
M  V30 3645 H 348.285 -0.611287 -0.36311 0
M  V30 3646 H 350.887 -1.92306 -0.351931 0
M  V30 3647 H 349.591 -3.85939 -1.39569 0
M  V30 3648 H 349.122 -2.81603 -2.74706 0
M  V30 3649 H 351.137 -2.93052 -4.00418 0
M  V30 3650 N 350.31 0.590341 -1.46126 0
M  V30 3651 C 351.559 1.34499 -1.50309 0
M  V30 3652 C 351.872 1.94977 -0.156021 0
M  V30 3653 O 353.078 2.71395 -0.0756037 0
M  V30 3654 C 351.534 2.43723 -2.64815 0
M  V30 3655 C 351.142 1.89582 -4.0591 0
M  V30 3656 C 352.886 3.20579 -2.78262 0
M  V30 3657 C 350.793 2.9639 -5.11769 0
M  V30 3658 H 349.723 0.505593 -0.559368 0
M  V30 3659 H 352.374 0.630848 -1.72315 0
M  V30 3660 H 350.756 3.17902 -2.36124 0
M  V30 3661 H 351.93 1.21997 -4.44357 0
M  V30 3662 H 350.245 1.25418 -3.97063 0
M  V30 3663 H 352.842 4.00276 -3.54519 0
M  V30 3664 H 353.185 3.72684 -1.85505 0
M  V30 3665 H 353.718 2.53505 -3.06562 0
M  V30 3666 H 350.457 2.49181 -6.06291 0
M  V30 3667 H 349.977 3.62487 -4.77873 0
M  V30 3668 H 351.656 3.60474 -5.37278 0
M  V30 3669 N 351.788 1.33704 0.83433 0
M  V30 3670 C 353.037 1.24763 1.58484 0
M  V30 3671 C 353.35 -0.183775 1.94735 0
M  V30 3672 O 354.556 -0.395234 2.68608 0
M  V30 3673 C 353.012 2.18638 2.85876 0
M  V30 3674 C 352.62 3.66974 2.56971 0
M  V30 3675 C 354.364 2.18581 3.63899 0
M  V30 3676 C 352.271 4.5275 3.80488 0
M  V30 3677 H 351.201 0.463425 0.594772 0
M  V30 3678 H 353.852 1.58797 0.919551 0
M  V30 3679 H 352.234 1.77542 3.5397 0
M  V30 3680 H 353.408 4.16538 1.9706 0
M  V30 3681 H 351.723 3.69366 1.92244 0
M  V30 3682 H 354.32 2.79894 4.55591 0
M  V30 3683 H 354.663 1.18207 3.99165 0
M  V30 3684 H 355.196 2.58062 3.02735 0
M  V30 3685 H 351.935 5.54017 3.5035 0
M  V30 3686 H 351.455 4.07927 4.39722 0
M  V30 3687 H 353.134 4.66784 4.4802 0
M  V30 3688 N 353.266 -1.05314 1.17247 0
M  V30 3689 C 354.213 -2.13031 0.888058 0
M  V30 3690 C 355.183 -1.65253 -0.167537 0
M  V30 3691 O 356.368 -1.90775 -0.0305974 0
M  V30 3692 C 353.508 -3.42702 0.406147 0
M  V30 3693 C 352.621 -4.04161 1.52572 0
M  V30 3694 C 351.756 -5.21744 0.997808 0
M  V30 3695 C 350.795 -5.75207 2.09291 0
M  V30 3696 N 349.932 -6.84094 1.57986 0
M  V30 3697 H 354.772 -2.36698 1.81048 0
M  V30 3698 H 352.309 -1.16121 0.903013 0
M  V30 3699 H 354.267 -4.17059 0.108305 0
M  V30 3700 H 352.897 -3.19222 -0.479313 0
M  V30 3701 H 351.949 -3.27253 1.93931 0
M  V30 3702 H 353.261 -4.39881 2.35172 0
M  V30 3703 H 352.415 -6.03168 0.653739 0
M  V30 3704 H 351.154 -4.87495 0.141232 0
M  V30 3705 H 350.159 -4.92414 2.44557 0
M  V30 3706 H 351.384 -6.11505 2.95362 0
M  V30 3707 H 349.33 -6.51745 0.74598 0
M  V30 3708 H 349.247 -7.18811 2.34195 0
M  V30 3709 H 350.515 -7.69172 1.26468 0
M  V30 3710 N 354.744 -0.972509 -1.24016 0
M  V30 3711 C 355.993 -0.632603 -1.91523 0
M  V30 3712 C 356.306 0.836641 -1.76804 0
M  V30 3713 O 357.512 1.28728 -2.39043 0
M  V30 3714 C 355.968 -1.08082 -3.43287 0
M  V30 3715 C 355.576 -2.57386 -3.66683 0
M  V30 3716 C 357.32 -0.814288 -4.16617 0
M  V30 3717 C 355.227 -2.95915 -5.12043 0
M  V30 3718 H 354.157 -0.232898 -0.717129 0
M  V30 3719 H 356.808 -1.17936 -1.40582 0
M  V30 3720 H 355.19 -0.462339 -3.93292 0
M  V30 3721 H 356.364 -3.24405 -3.27258 0
M  V30 3722 H 354.679 -2.81701 -3.06649 0
M  V30 3723 H 357.276 -1.0781 -5.23718 0
M  V30 3724 H 357.619 0.24955 -4.15551 0
M  V30 3725 H 358.152 -1.39397 -3.72577 0
M  V30 3726 H 354.891 -4.0139 -5.18234 0
M  V30 3727 H 354.411 -2.33584 -5.52448 0
M  V30 3728 H 356.09 -2.86086 -5.80314 0
M  V30 3729 N 356.222 1.38976 -0.743202 0
M  V30 3730 C 357.468 2.0064 -0.295189 0
M  V30 3731 C 357.801 1.5885 1.11716 0
M  V30 3732 O 357.076 0.821181 1.76315 0
M  V30 3733 C 357.359 3.578 -0.406318 0
M  V30 3734 C 357.212 4.09586 -1.85903 0
M  V30 3735 C 358.531 4.39616 0.206439 0
M  V30 3736 H 355.65 0.728935 -0.108733 0
M  V30 3737 H 358.292 1.65067 -0.940897 0
M  V30 3738 H 356.442 3.88235 0.143419 0
M  V30 3739 H 358.114 3.89837 -2.46627 0
M  V30 3740 H 356.357 3.6284 -2.3776 0
M  V30 3741 H 357.028 5.18708 -1.888 0
M  V30 3742 H 359.504 4.15273 -0.262283 0
M  V30 3743 H 358.38 5.48812 0.0983819 0
M  V30 3744 H 358.641 4.22754 1.2935 0
M  V30 3745 N 357.7 0.491464 1.49741 0
M  V30 3746 C 358.61 -0.296835 2.32715 0
M  V30 3747 C 359.626 -0.976536 1.44013 0
M  V30 3748 O 360.802 -0.960023 1.77047 0
M  V30 3749 C 357.867 -1.35288 3.19215 0
M  V30 3750 C 356.928 -0.687632 4.23757 0
M  V30 3751 C 356.161 -1.69336 5.06123 0
M  V30 3752 O 356.384 -2.92219 4.89861 0
M  V30 3753 O 355.318 -1.25394 5.88693 0
M  V30 3754 H 359.144 0.382048 3.01287 0
M  V30 3755 H 356.729 0.252953 1.47243 0
M  V30 3756 H 358.611 -1.96411 3.72828 0
M  V30 3757 H 357.286 -2.01487 2.53347 0
M  V30 3758 H 356.193 -0.0369159 3.74082 0
M  V30 3759 H 357.526 -0.0682566 4.92153 0
M  V30 3760 N 359.178 -1.55987 0.224894 0
M  V30 3761 C 360.425 -1.9839 -0.4059 0
M  V30 3762 C 360.753 -1.11261 -1.59535 0
M  V30 3763 O 360.008 -0.158314 -1.95059 0
M  V30 3764 C 360.307 -3.46394 -0.880106 0
M  V30 3765 C 359.973 -4.5046 0.19918 0
M  V30 3766 C 358.635 -4.7864 0.495661 0
M  V30 3767 C 360.987 -5.12855 0.928939 0
M  V30 3768 C 358.315 -5.66497 1.52636 0
M  V30 3769 C 360.667 -6.01828 1.949 0
M  V30 3770 C 359.331 -6.28351 2.25236 0
M  V30 3771 H 358.601 -0.725961 -0.148529 0
M  V30 3772 H 361.248 -1.88668 0.328113 0
M  V30 3773 H 359.553 -3.53337 -1.69294 0
M  V30 3774 H 361.25 -3.76577 -1.37808 0
M  V30 3775 H 357.84 -4.28579 -0.0420526 0
M  V30 3776 H 362.024 -4.9115 0.713129 0
M  V30 3777 H 357.28 -5.8531 1.76698 0
M  V30 3778 H 361.454 -6.49225 2.51951 0
M  V30 3779 H 359.081 -6.96226 3.05244 0
M  V30 3780 N 360.656 0.0484629 -1.57525 0
M  V30 3781 C 361.619 1.03956 -2.04269 0
M  V30 3782 C 362.619 1.30211 -0.943496 0
M  V30 3783 O 363.809 1.25539 -1.20771 0
M  V30 3784 C 360.941 2.37742 -2.44319 0
M  V30 3785 H 362.134 0.636182 -2.93075 0
M  V30 3786 H 359.687 0.294811 -1.53494 0
M  V30 3787 H 360.422 2.82866 -1.5861 0
M  V30 3788 H 360.207 2.20021 -3.24551 0
M  V30 3789 H 361.697 3.08936 -2.80978 0
M  V30 3790 N 362.134 1.5431 0.320358 0
M  V30 3791 C 363.081 1.83918 1.39438 0
M  V30 3792 C 364.051 0.686525 1.51248 0
M  V30 3793 O 365.236 0.933269 1.66417 0
M  V30 3794 C 362.376 2.075 2.75749 0
M  V30 3795 C 361.489 3.35177 2.72544 0
M  V30 3796 C 360.624 3.48704 4.00723 0
M  V30 3797 C 359.663 4.70244 3.91838 0
M  V30 3798 N 358.8 4.80679 5.11754 0
M  V30 3799 H 363.64 2.75544 1.13489 0
M  V30 3800 H 361.177 1.36459 0.549309 0
M  V30 3801 H 363.135 2.19166 3.54996 0
M  V30 3802 H 361.765 1.19163 3 0
M  V30 3803 H 360.817 3.32233 1.85271 0
M  V30 3804 H 362.129 4.24534 2.61863 0
M  V30 3805 H 361.283 3.59928 4.88402 0
M  V30 3806 H 360.022 2.57445 4.14214 0
M  V30 3807 H 359.027 4.59072 3.02544 0
M  V30 3808 H 360.252 5.6289 3.7991 0
M  V30 3809 H 358.198 3.92337 5.25745 0
M  V30 3810 H 358.115 5.64007 5.0342 0
M  V30 3811 H 359.383 4.96239 6.01138 0
M  V30 3812 N 363.613 -0.582584 1.46437 0
M  V30 3813 C 365.029 -0.905962 1.31394 0
M  V30 3814 C 365.229 -1.99468 0.285476 0
M  V30 3815 O 364.285 -2.50566 -0.311914 0
M  V30 3816 C 365.598 -1.3232 2.70022 0
M  V30 3817 C 367.146 -1.43604 2.78113 0
M  V30 3818 C 367.621 -1.88694 4.17323 0
M  V30 3819 N 369.112 -1.95887 4.19741 0
M  V30 3820 C 369.847 -2.32051 5.24347 0
M  V30 3821 N 369.343 -2.67006 6.39281 0
M  V30 3822 N 371.136 -2.32606 5.11713 0
M  V30 3823 H 363.287 0.1366 2.1196 0
M  V30 3824 H 365.55 -0.00155736 0.947999 0
M  V30 3825 H 365.256 -0.597242 3.46592 0
M  V30 3826 H 365.13 -2.28469 3.00136 0
M  V30 3827 H 367.517 -2.15286 2.01832 0
M  V30 3828 H 367.598 -0.457059 2.51684 0
M  V30 3829 H 367.242 -1.1759 4.941 0
M  V30 3830 H 367.172 -2.8755 4.4116 0
M  V30 3831 H 369.663 -1.71362 3.36814 0
M  V30 3832 H 369.976 -2.93554 7.14875 0
M  V30 3833 H 368.321 -2.64644 6.42642 0
M  V30 3834 H 371.512 -2.04721 4.2096 0
M  V30 3835 H 371.685 -2.60462 5.93349 0
M  V30 3836 N 365.091 -1.34144 -0.827227 0
M  V30 3837 C 366.021 -1.28005 -1.95287 0
M  V30 3838 C 367.002 -0.158321 -1.69362 0
M  V30 3839 O 368.187 -0.349987 -1.9102 0
M  V30 3840 C 365.317 -1.03036 -3.31664 0
M  V30 3841 C 364.271 -2.11628 -3.72019 0
M  V30 3842 C 363.597 -1.71854 -5.0633 0
M  V30 3843 C 364.897 -3.53417 -3.8457 0
M  V30 3844 H 366.591 -2.22187 -2.00682 0
M  V30 3845 H 364.137 -1.0696 -0.964135 0
M  V30 3846 H 366.09 -0.973863 -4.09993 0
M  V30 3847 H 364.814 -0.0529391 -3.26557 0
M  V30 3848 H 363.473 -2.16339 -2.95961 0
M  V30 3849 H 363.121 -0.727841 -4.97706 0
M  V30 3850 H 362.821 -2.44531 -5.34302 0
M  V30 3851 H 364.345 -1.67692 -5.87122 0
M  V30 3852 H 365.759 -3.51142 -4.5318 0
M  V30 3853 H 364.156 -4.24679 -4.2399 0
M  V30 3854 H 365.226 -3.91072 -2.86689 0
M  V30 3855 N 366.569 1.04691 -1.17803 0
M  V30 3856 C 367.98 1.59238 -0.974689 0
M  V30 3857 C 368.331 1.90306 0.477292 0
M  V30 3858 O 367.456 1.68846 1.35352 0
M  V30 3859 C 368.051 2.89318 -1.76296 0
M  V30 3860 C 366.61 3.40506 -1.60414 0
M  V30 3861 C 365.757 2.14172 -1.76141 0
M  V30 3862 H 368.708 0.874395 -1.32439 0
M  V30 3863 H 368.729 3.5944 -1.24833 0
M  V30 3864 H 368.241 2.66675 -2.81968 0
M  V30 3865 H 366.342 3.68175 -0.572519 0
M  V30 3866 H 366.455 4.14753 -2.39827 0
M  V30 3867 H 364.819 2.25176 -1.19028 0
M  V30 3868 H 365.602 1.93992 -2.83235 0
M  V30 3869 N 368.047 0.979072 1.23499 0
M  V30 3870 C 369.295 0.645941 1.91499 0
M  V30 3871 C 369.616 -0.822948 1.76784 0
M  V30 3872 O 368.886 -1.58854 1.14639 0
M  V30 3873 H 367.466 0.235919 0.708767 0
M  V30 3874 H 370.128 1.2426 1.50152 0
M  V30 3875 H 369.224 0.896411 2.9895 0
M  V30 3876 N 369.525 -1.3858 0.750561 0
M  V30 3877 C 370.772 -2.00184 0.305373 0
M  V30 3878 C 371.1 -1.59575 -1.11203 0
M  V30 3879 O 370.355 -0.823236 -1.77542 0
M  V30 3880 C 370.654 -3.55455 0.372373 0
M  V30 3881 C 370.32 -4.15765 1.745 0
M  V30 3882 C 368.982 -4.31951 2.12065 0
M  V30 3883 C 371.334 -4.49067 2.64553 0
M  V30 3884 C 368.662 -4.78734 3.39162 0
M  V30 3885 C 371.014 -4.97265 3.91038 0
M  V30 3886 C 369.678 -5.11658 4.28676 0
M  V30 3887 H 368.948 -0.732526 0.111744 0
M  V30 3888 H 371.595 -1.65673 0.960451 0
M  V30 3889 H 369.9 -3.90084 -0.366272 0
M  V30 3890 H 371.597 -4.00999 0.00953918 0
M  V30 3891 H 368.187 -4.03579 1.44297 0
M  V30 3892 H 372.371 -4.36166 2.36796 0
M  V30 3893 H 367.627 -4.88062 3.68246 0
M  V30 3894 H 371.801 -5.22003 4.60962 0
M  V30 3895 H 369.428 -5.47668 5.27222 0
M  V30 3896 N 371.003 -0.499398 -1.49478 0
M  V30 3897 C 372.231 0.0425456 -2.06856 0
M  V30 3898 C 372.646 1.30964 -1.35992 0
M  V30 3899 O 372.003 1.77172 -0.437762 0
M  V30 3900 C 372.054 0.301735 -3.60239 0
M  V30 3901 O 371.775 -0.915127 -4.28436 0
M  V30 3902 C 373.276 0.887499 -4.34325 0
M  V30 3903 H 370.496 -0.0197482 -0.670709 0
M  V30 3904 H 373.04 -0.696297 -1.92281 0
M  V30 3905 H 371.195 0.990556 -3.74522 0
M  V30 3906 H 371.609 -0.676993 -5.20113 0
M  V30 3907 H 373.083 1.01845 -5.42523 0
M  V30 3908 H 373.56 1.88488 -3.96698 0
M  V30 3909 H 374.166 0.236196 -4.24644 0
M  V30 3910 N 372.481 1.55866 -0.233164 0
M  V30 3911 C 373.729 1.9821 0.394593 0
M  V30 3912 C 374.05 1.12234 1.59463 0
M  V30 3913 O 373.32 0.201981 1.94856 0
M  V30 3914 H 371.9 0.732034 0.148778 0
M  V30 3915 H 374.562 1.92107 -0.32876 0
M  V30 3916 H 373.658 3.03845 0.713063 0
M  V30 3917 N 373.959 -0.0401083 1.57549 0
M  V30 3918 C 374.889 -1.04384 2.08869 0
M  V30 3919 C 375.87 -1.38407 0.988817 0
M  V30 3920 O 377.055 -1.47483 1.26342 0
M  V30 3921 C 374.185 -2.34808 2.55895 0
M  V30 3922 C 373.139 -2.15057 3.70047 0
M  V30 3923 C 372.465 -3.51145 4.03239 0
M  V30 3924 C 373.765 -1.54576 4.98902 0
M  V30 3925 H 375.459 -0.616666 2.92981 0
M  V30 3926 H 373.005 -0.295184 1.40942 0
M  V30 3927 H 374.958 -3.05346 2.90417 0
M  V30 3928 H 373.682 -2.79565 1.68853 0
M  V30 3929 H 372.341 -1.46954 3.35857 0
M  V30 3930 H 371.989 -3.93529 3.13279 0
M  V30 3931 H 371.689 -3.38758 4.80122 0
M  V30 3932 H 373.213 -4.23062 4.40285 0
M  V30 3933 H 374.627 -2.15017 5.31451 0
M  V30 3934 H 373.024 -1.52796 5.80322 0
M  V30 3935 H 374.094 -0.51039 4.82206 0
M  V30 3936 N 375.437 -1.54477 -0.31217 0
M  V30 3937 C 376.662 -1.77526 -1.07235 0
M  V30 3938 C 377.087 -0.527775 -1.80544 0
M  V30 3939 O 376.445 0.52121 -1.73646 0
M  V30 3940 C 376.493 -2.97535 -2.03728 0
M  V30 3941 O 375.597 -2.69878 -3.11833 0
M  V30 3942 H 374.938 -0.58792 -0.30862 0
M  V30 3943 H 377.468 -2.01532 -0.352993 0
M  V30 3944 H 377.478 -3.25198 -2.46395 0
M  V30 3945 H 376.153 -3.87996 -1.49774 0
M  V30 3946 H 374.73 -2.53199 -2.7376 0
M  V30 3947 N 376.915 0.57481 -1.46744 0
M  V30 3948 C 378.164 1.32898 -1.51727 0
M  V30 3949 C 378.477 1.948 -0.176692 0
M  V30 3950 O 379.683 2.71299 -0.104385 0
M  V30 3951 C 378.139 2.40901 -2.67385 0
M  V30 3952 C 377.747 1.85266 -4.07898 0
M  V30 3953 C 379.491 3.17609 -2.81646 0
M  V30 3954 C 377.398 2.90945 -5.14883 0
M  V30 3955 H 376.328 0.499631 -0.564699 0
M  V30 3956 H 378.979 0.612536 -1.72975 0
M  V30 3957 H 377.361 3.15379 -2.39483 0
M  V30 3958 H 378.535 1.17278 -4.45626 0
M  V30 3959 H 376.85 1.21199 -3.98371 0
M  V30 3960 H 379.447 3.96493 -3.58744 0
M  V30 3961 H 379.79 3.70696 -1.89448 0
M  V30 3962 H 380.323 2.50239 -3.09233 0
M  V30 3963 H 377.062 2.42736 -6.089 0
M  V30 3964 H 376.582 3.57398 -4.81691 0
M  V30 3965 H 378.261 3.54755 -5.41071 0
M  V30 3966 N 378.394 1.34581 0.820102 0
M  V30 3967 C 379.357 1.2628 1.91275 0
M  V30 3968 C 380.357 0.177344 1.59819 0
M  V30 3969 O 381.547 0.430156 1.68806 0
M  V30 3970 C 378.679 0.950327 3.27386 0
M  V30 3971 H 379.872 2.23421 2.00057 0
M  V30 3972 H 377.425 1.1891 1.0144 0
M  V30 3973 H 378.16 -0.0177938 3.24295 0
M  V30 3974 H 377.945 1.73549 3.51601 0
M  V30 3975 H 379.435 0.917492 4.07396 0
M  V30 3976 N 379.872 -1.04064 1.18357 0
M  V30 3977 C 381.149 -1.74252 0.888581 0
M  V30 3978 C 381.529 -2.02138 -0.60856 0
M  V30 3979 O 380.877 -1.66656 -1.56327 0
M  V30 3980 C 381.087 -3.0277 1.73584 0
M  V30 3981 C 382.435 -3.76506 1.96286 0
M  V30 3982 O 383.459 -3.12668 1.70637 0
M  V30 3983 O 382.318 -4.91243 2.39464 0
M  V30 3984 H 379.412 -0.758271 0.330082 0
M  V30 3985 H 381.958 -1.1013 1.2911 0
M  V30 3986 H 380.73 -2.78299 2.75073 0
M  V30 3987 H 380.353 -3.74631 1.33183 0
M  V30 3988 N 381.35 -0.985608 -1.22978 0
M  V30 3989 C 382.282 -0.488154 -2.23941 0
M  V30 3990 C 383.295 0.41282 -1.57479 0
M  V30 3991 O 384.484 0.216121 -1.77187 0
M  V30 3992 C 381.584 0.312611 -3.37455 0
M  V30 3993 C 380.757 -0.582741 -4.33501 0
M  V30 3994 C 379.816 0.165064 -5.25941 0
M  V30 3995 O 378.842 -0.447077 -5.67442 0
M  V30 3996 N 380.044 1.44953 -5.62111 0
M  V30 3997 H 382.809 -1.3563 -2.67254 0
M  V30 3998 H 380.37 -0.859477 -1.37203 0
M  V30 3999 H 382.362 0.821357 -3.96277 0
M  V30 4000 H 380.932 1.0818 -2.93285 0
M  V30 4001 H 380.152 -1.27225 -3.73105 0
M  V30 4002 H 381.44 -1.19275 -4.94622 0
M  V30 4003 H 380.838 1.9683 -5.30353 0
M  V30 4004 H 379.395 1.90361 -6.23383 0
M  V30 4005 N 382.828 1.3818 -0.7579 0
M  V30 4006 C 384.077 1.99261 -0.312744 0
M  V30 4007 C 384.39 1.60846 1.11301 0
M  V30 4008 O 385.596 2.14929 1.65885 0
M  V30 4009 C 384.052 3.56294 -0.50821 0
M  V30 4010 C 383.66 4.03657 -1.94333 0
M  V30 4011 C 385.404 4.24313 -0.125982 0
M  V30 4012 C 383.311 5.53347 -2.08712 0
M  V30 4013 H 382.241 0.745456 -0.113185 0
M  V30 4014 H 384.892 1.57889 -0.935056 0
M  V30 4015 H 383.274 3.95575 0.183353 0
M  V30 4016 H 384.448 3.75655 -2.66871 0
M  V30 4017 H 382.763 3.48376 -2.28086 0
M  V30 4018 H 385.36 5.34279 -0.212125 0
M  V30 4019 H 385.703 4.05962 0.921964 0
M  V30 4020 H 386.236 3.90285 -0.769563 0
M  V30 4021 H 382.975 5.76607 -3.11777 0
M  V30 4022 H 382.495 5.83078 -1.4064 0
M  V30 4023 H 384.174 6.19111 -1.87912 0
M  V30 4024 N 384.306 0.507319 1.49211 0
M  V30 4025 C 385.534 -0.0315749 2.06876 0
M  V30 4026 C 385.949 -1.30241 1.36685 0
M  V30 4027 O 385.306 -1.76937 0.447152 0
M  V30 4028 C 385.357 -0.282627 3.60393 0
M  V30 4029 O 385.078 0.937835 4.27944 0
M  V30 4030 C 386.579 -0.864453 4.3479 0
M  V30 4031 H 383.799 0.0233048 0.670595 0
M  V30 4032 H 386.343 0.706484 1.91909 0
M  V30 4033 H 384.498 -0.97068 3.75042 0
M  V30 4034 H 384.912 0.704567 5.19746 0
M  V30 4035 H 386.386 -0.989664 5.43056 0
M  V30 4036 H 386.863 -1.86382 3.97692 0
M  V30 4037 H 387.469 -0.213672 4.24763 0
M  V30 4038 N 385.784 -1.5574 0.241426 0
M  V30 4039 C 386.714 -2.24133 -0.654722 0
M  V30 4040 C 387.695 -1.21974 -1.1856 0
M  V30 4041 O 388.88 -1.50612 -1.22595 0
M  V30 4042 C 386.01 -2.93659 -1.85423 0
M  V30 4043 C 384.964 -4.0246 -1.45636 0
M  V30 4044 C 384.29 -4.59383 -2.73626 0
M  V30 4045 C 385.59 -5.18468 -0.631506 0
M  V30 4046 H 387.284 -2.99281 -0.0844353 0
M  V30 4047 H 384.83 -1.43947 -0.0391707 0
M  V30 4048 H 386.783 -3.40203 -2.48676 0
M  V30 4049 H 385.507 -2.15991 -2.44981 0
M  V30 4050 H 384.166 -3.56676 -0.847202 0
M  V30 4051 H 383.814 -3.78422 -3.3137 0
M  V30 4052 H 383.514 -5.32826 -2.4773 0
M  V30 4053 H 385.038 -5.08658 -3.37786 0
M  V30 4054 H 386.452 -5.61272 -1.1682 0
M  V30 4055 H 384.849 -5.98266 -0.468831 0
M  V30 4056 H 385.919 -4.8358 0.357506 0
M  V30 4057 N 387.262 0.0317525 -1.57568 0
M  V30 4058 C 388.192 1.03274 -2.0942 0
M  V30 4059 C 389.173 1.3788 -0.996143 0
M  V30 4060 O 390.358 1.46811 -1.27122 0
M  V30 4061 C 387.488 2.33448 -2.57137 0
M  V30 4062 C 386.442 2.13091 -3.71182 0
M  V30 4063 C 385.768 3.49001 -4.05095 0
M  V30 4064 C 387.068 1.51928 -4.99715 0
M  V30 4065 H 388.762 0.60112 -2.93303 0
M  V30 4066 H 386.308 0.287705 -1.41097 0
M  V30 4067 H 388.261 3.03802 -2.92032 0
M  V30 4068 H 386.985 2.78665 -1.70333 0
M  V30 4069 H 385.644 1.45171 -3.36632 0
M  V30 4070 H 385.292 3.91862 -3.15362 0
M  V30 4071 H 384.992 3.36207 -4.81911 0
M  V30 4072 H 386.516 4.20721 -4.42522 0
M  V30 4073 H 387.93 2.12196 -5.32584 0
M  V30 4074 H 386.327 1.49716 -5.81124 0
M  V30 4075 H 387.397 0.484811 -4.8247 0
M  V30 4076 N 388.74 1.54641 0.303973 0
M  V30 4077 C 389.687 1.85386 1.37479 0
M  V30 4078 C 390.657 0.702528 1.50512 0
M  V30 4079 O 391.842 0.950867 1.65418 0
M  V30 4080 C 388.982 2.10413 2.73533 0
M  V30 4081 C 388.095 3.38049 2.68974 0
M  V30 4082 C 387.23 3.52934 3.97002 0
M  V30 4083 C 386.269 4.74373 3.86829 0
M  V30 4084 N 385.406 4.8608 5.06627 0
M  V30 4085 H 390.246 2.76732 1.1056 0
M  V30 4086 H 387.783 1.37034 0.534805 0
M  V30 4087 H 389.741 2.22919 3.52652 0
M  V30 4088 H 388.371 1.22338 2.98719 0
M  V30 4089 H 387.423 3.3418 1.81736 0
M  V30 4090 H 388.735 4.27288 2.57346 0
M  V30 4091 H 387.889 3.65088 4.84557 0
M  V30 4092 H 386.628 2.61824 4.1146 0
M  V30 4093 H 385.633 4.62255 2.97658 0
M  V30 4094 H 386.858 5.66888 3.73918 0
M  V30 4095 H 384.804 3.97891 5.21554 0
M  V30 4096 H 384.721 5.69315 4.9741 0
M  V30 4097 H 385.989 5.02587 5.95841 0
M  V30 4098 N 390.218 -0.567019 1.47046 0
M  V30 4099 C 391.181 -1.65696 1.58359 0
M  V30 4100 C 392.181 -1.54097 0.459441 0
M  V30 4101 O 393.371 -1.58432 0.724225 0
M  V30 4102 C 390.503 -3.05197 1.51879 0
M  V30 4103 H 391.696 -1.57019 2.5551 0
M  V30 4104 H 389.249 -0.786148 1.3509 0
M  V30 4105 H 389.984 -3.19417 0.560673 0
M  V30 4106 H 389.769 -3.15025 2.33455 0
M  V30 4107 H 391.259 -3.84511 1.62913 0
M  V30 4108 N 391.696 -1.35014 -0.812953 0
M  V30 4109 C 392.659 -1.27292 -1.90602 0
M  V30 4110 C 393.659 -0.185817 -1.59723 0
M  V30 4111 O 394.849 -0.439102 -1.68575 0
M  V30 4112 C 391.981 -0.967676 -3.26877 0
M  V30 4113 H 393.174 -2.24479 -1.9887 0
M  V30 4114 H 390.727 -1.19446 -1.00808 0
M  V30 4115 H 391.462 0.0005954 -3.243 0
M  V30 4116 H 391.247 -1.75412 -3.50675 0
M  V30 4117 H 392.737 -0.939085 -4.06904 0
M  V30 4118 N 393.175 1.03435 -1.18907 0
M  V30 4119 C 394.415 1.78302 -0.999391 0
M  V30 4120 C 394.779 1.86353 0.462219 0
M  V30 4121 O 395.98 2.57489 0.771543 0
M  V30 4122 C 394.251 3.17362 -1.64365 0
M  V30 4123 S 395.81 4.08488 -1.6026 0
M  V30 4124 H 392.628 0.613861 -0.358742 0
M  V30 4125 H 395.23 1.23979 -1.51161 0
M  V30 4126 H 393.934 3.09116 -2.69955 0
M  V30 4127 H 393.465 3.76762 -1.13199 0
M  V30 4128 H 395.48 4.92274 -0.622932 0
M  V30 4129 N 394.653 0.992116 1.22453 0
M  V30 4130 C 395.583 0.561677 2.26644 0
M  V30 4131 C 396.564 -0.411055 1.65059 0
M  V30 4132 O 397.749 -0.301861 1.9184 0
M  V30 4133 C 394.879 -0.125247 3.47074 0
M  V30 4134 C 393.833 0.765948 4.21091 0
M  V30 4135 C 393.159 -0.0538484 5.34673 0
M  V30 4136 C 394.459 2.06242 4.79856 0
M  V30 4137 H 396.153 1.43259 2.62902 0
M  V30 4138 H 393.699 0.690283 1.26377 0
M  V30 4139 H 395.652 -0.437764 4.1912 0
M  V30 4140 H 394.376 -1.03069 3.0991 0
M  V30 4141 H 393.035 1.0621 3.50878 0
M  V30 4142 H 392.683 -0.960188 4.9375 0
M  V30 4143 H 392.383 0.539415 5.85119 0
M  V30 4144 H 393.907 -0.360477 6.09535 0
M  V30 4145 H 395.321 1.8139 5.43848 0
M  V30 4146 H 393.718 2.60444 5.40638 0
M  V30 4147 H 394.788 2.74167 3.99951 0
M  V30 4148 N 396.131 -1.37776 0.765217 0
M  V30 4149 C 397.408 -1.93975 0.251596 0
M  V30 4150 C 397.788 -1.69949 -1.25222 0
M  V30 4151 O 397.136 -1.04457 -2.03226 0
M  V30 4152 C 397.346 -3.43487 0.617895 0
M  V30 4153 C 398.694 -4.20564 0.584029 0
M  V30 4154 O 399.718 -3.5182 0.556888 0
M  V30 4155 O 398.577 -5.43138 0.605291 0
M  V30 4156 H 395.671 -0.82509 0.0561806 0
M  V30 4157 H 398.217 -1.47101 0.846128 0
M  V30 4158 H 396.989 -3.5453 1.65602 0
M  V30 4159 H 396.612 -3.976 -0.00403411 0
M  V30 4160 N 397.609 -0.515225 -1.4894 0
M  V30 4161 C 398.858 0.0261361 -2.01683 0
M  V30 4162 C 399.171 1.36719 -1.39883 0
M  V30 4163 O 400.377 1.99606 -1.84037 0
M  V30 4164 C 398.833 0.0970111 -3.59769 0
M  V30 4165 C 398.441 -1.23825 -4.30548 0
M  V30 4166 C 400.185 0.587981 -4.20408 0
M  V30 4167 C 398.092 -1.12877 -5.80528 0
M  V30 4168 H 397.022 0.0135398 -0.753878 0
M  V30 4169 H 399.673 -0.656787 -1.71343 0
M  V30 4170 H 398.055 0.844694 -3.86886 0
M  V30 4171 H 399.229 -2.00034 -4.15118 0
M  V30 4172 H 397.544 -1.66379 -3.81716 0
M  V30 4173 H 400.141 0.68763 -5.3026 0
M  V30 4174 H 400.484 1.59026 -3.84729 0
M  V30 4175 H 401.017 -0.103582 -3.97665 0
M  V30 4176 H 397.756 -2.10575 -6.20756 0
M  V30 4177 H 397.276 -0.407799 -5.98412 0
M  V30 4178 H 398.955 -0.813332 -6.41868 0
M  V30 4179 N 399.087 1.5561 -0.249682 0
M  V30 4180 C 400.017 2.24477 0.642826 0
M  V30 4181 C 400.998 1.22601 1.17911 0
M  V30 4182 O 402.183 1.5126 1.21795 0
M  V30 4183 C 399.313 2.94638 1.83863 0
M  V30 4184 C 398.267 4.03227 1.435 0
M  V30 4185 C 397.593 4.60828 2.71186 0
M  V30 4186 C 398.893 5.18796 0.604002 0
M  V30 4187 H 400.587 2.99321 0.0685625 0
M  V30 4188 H 398.133 1.43965 0.0315363 0
M  V30 4189 H 400.086 3.41517 2.46868 0
M  V30 4190 H 398.81 2.17287 2.43832 0
M  V30 4191 H 397.469 3.57121 0.828275 0
M  V30 4192 H 397.117 3.80174 3.29358 0
M  V30 4193 H 396.817 5.34132 2.44901 0
M  V30 4194 H 398.341 5.10442 3.35084 0
M  V30 4195 H 399.755 5.61883 1.13842 0
M  V30 4196 H 398.152 5.98506 0.437097 0
M  V30 4197 H 399.222 4.83384 -0.383147 0
M  V30 4198 N 400.565 -0.0233959 1.57583 0
M  V30 4199 C 401.498 -1.05549 2.02323 0
M  V30 4200 C 402.476 -1.34843 0.908626 0
M  V30 4201 O 403.66 -1.47404 1.17491 0
M  V30 4202 C 400.787 -2.38885 2.40108 0
M  V30 4203 C 399.833 -2.2541 3.62067 0
M  V30 4204 S 400.666 -1.60217 5.1097 0
M  V30 4205 C 401.822 -2.95032 5.52003 0
M  V30 4206 H 402.055 -0.674435 2.89549 0
M  V30 4207 H 399.588 -0.23355 1.52623 0
M  V30 4208 H 401.546 -3.15562 2.62547 0
M  V30 4209 H 400.207 -2.74137 1.53323 0
M  V30 4210 H 399.4 -3.23854 3.86179 0
M  V30 4211 H 399.002 -1.56876 3.39508 0
M  V30 4212 H 401.294 -3.91357 5.53033 0
M  V30 4213 H 402.237 -2.75646 6.52246 0
M  V30 4214 H 402.645 -2.97865 4.79517 0
M  V30 4215 N 402.043 -1.548 -0.295768 0
M  V30 4216 C 402.973 -1.89115 -1.36959 0
M  V30 4217 C 403.954 -0.75059 -1.52644 0
M  V30 4218 O 405.139 -1.00678 -1.66065 0
M  V30 4219 C 402.269 -2.14307 -2.73295 0
M  V30 4220 C 401.223 -3.30151 -2.72368 0
M  V30 4221 C 400.549 -3.40772 -4.12042 0
M  V30 4222 C 401.849 -4.67126 -2.33646 0
M  V30 4223 H 403.543 -2.79053 -1.08488 0
M  V30 4224 H 401.089 -1.34266 -0.520443 0
M  V30 4225 H 403.042 -2.36898 -3.48507 0
M  V30 4226 H 401.766 -1.21145 -3.03301 0
M  V30 4227 H 400.425 -3.0749 -1.99613 0
M  V30 4228 H 400.073 -2.45117 -4.39234 0
M  V30 4229 H 399.773 -4.18645 -4.12322 0
M  V30 4230 H 401.297 -3.6563 -4.89027 0
M  V30 4231 H 402.711 -4.89414 -2.98575 0
M  V30 4232 H 401.108 -5.47751 -2.45129 0
M  V30 4233 H 402.178 -4.67489 -1.28772 0
M  V30 4234 N 403.521 0.559213 -1.47345 0
M  V30 4235 C 404.937 0.884943 -1.32819 0
M  V30 4236 C 405.137 1.98988 -0.317173 0
M  V30 4237 O 404.193 2.51031 0.272011 0
M  V30 4238 C 405.506 1.28007 -2.72093 0
M  V30 4239 C 407.054 1.39161 -2.80363 0
M  V30 4240 C 407.529 1.82031 -4.20272 0
M  V30 4241 N 409.02 1.89185 -4.22804 0
M  V30 4242 C 409.755 2.2368 -5.27973 0
M  V30 4243 N 409.251 2.56802 -6.43447 0
M  V30 4244 N 411.044 2.24436 -5.15349 0
M  V30 4245 H 403.195 -0.170304 -2.11716 0
M  V30 4246 H 405.458 -0.0135247 -0.947904 0
M  V30 4247 H 405.164 0.542027 -3.47498 0
M  V30 4248 H 405.038 2.23665 -3.03733 0
M  V30 4249 H 407.425 2.12048 -2.05231 0
M  V30 4250 H 407.506 0.41696 -2.52379 0
M  V30 4251 H 407.15 1.09715 -4.95908 0
M  V30 4252 H 407.08 2.80495 -4.45679 0
M  V30 4253 H 409.571 1.65982 -3.39497 0
M  V30 4254 H 409.884 2.82144 -7.19454 0
M  V30 4255 H 408.229 2.54387 -6.46771 0
M  V30 4256 H 411.42 1.97998 -4.24163 0
M  V30 4257 H 411.593 2.50989 -5.97418 0
M  V30 4258 N 404.999 1.35443 0.805782 0
M  V30 4259 C 406.248 1.28097 1.55801 0
M  V30 4260 C 406.561 -0.142428 1.95081 0
M  V30 4261 O 407.767 -0.33817 2.69386 0
M  V30 4262 C 406.223 2.24653 2.81174 0
M  V30 4263 C 405.831 3.72342 2.49129 0
M  V30 4264 C 407.575 2.2625 3.59181 0
M  V30 4265 C 405.482 4.60719 3.70799 0
M  V30 4266 H 404.412 0.475937 0.584808 0
M  V30 4267 H 407.063 1.60712 0.885661 0
M  V30 4268 H 405.445 1.85011 3.50124 0
M  V30 4269 H 406.619 4.20624 1.88181 0
M  V30 4270 H 404.934 3.73361 1.84366 0
M  V30 4271 H 407.531 2.89495 4.49552 0
M  V30 4272 H 407.874 1.26647 3.96568 0
M  V30 4273 H 408.407 2.64426 2.97193 0
M  V30 4274 H 405.146 5.61324 3.3852 0
M  V30 4275 H 404.666 4.17163 4.3097 0
M  V30 4276 H 406.345 4.76182 4.38018 0
M  V30 4277 N 406.477 -1.02803 1.19454 0
M  V30 4278 C 407.717 -1.77769 1.00883 0
M  V30 4279 C 408.081 -1.86596 -0.45233 0
M  V30 4280 O 409.282 -2.57895 -0.757877 0
M  V30 4281 C 407.553 -3.16486 1.66046 0
M  V30 4282 S 409.112 -4.07632 1.62424 0
M  V30 4283 H 405.93 -0.611949 0.361993 0
M  V30 4284 H 408.532 -1.23175 1.51816 0
M  V30 4285 H 407.236 -3.0768 2.7159 0
M  V30 4286 H 406.767 -3.76156 1.15196 0
M  V30 4287 H 408.782 -4.91937 0.64903 0
M  V30 4288 N 407.956 -0.998596 -1.21925 0
M  V30 4289 C 409.184 -0.696286 -1.94832 0
M  V30 4290 C 409.599 0.740032 -1.73692 0
M  V30 4291 O 408.956 1.5 -1.03953 0
M  V30 4292 C 409.007 -0.999833 -3.47398 0
M  V30 4293 O 408.728 -2.37972 -3.67833 0
M  V30 4294 C 410.229 -0.716025 -4.37479 0
M  V30 4295 H 407.449 -0.257111 -0.619786 0
M  V30 4296 H 409.993 -1.33491 -1.54921 0
M  V30 4297 H 408.148 -0.406918 -3.85257 0
M  V30 4298 H 408.562 -2.48338 -4.61983 0
M  V30 4299 H 410.036 -0.978642 -5.43256 0
M  V30 4300 H 410.513 0.349968 -4.37803 0
M  V30 4301 H 411.119 -1.29025 -4.05256 0
M  V30 4302 N 409.434 1.37368 -0.772513 0
M  V30 4303 C 410.85 1.53059 -0.452231 0
M  V30 4304 C 411.05 1.73065 1.03203 0
M  V30 4305 O 410.106 1.75245 1.81784 0
M  V30 4306 C 411.419 2.72659 -1.26797 0
M  V30 4307 C 412.967 2.86521 -1.25995 0
M  V30 4308 C 413.442 4.09105 -2.05905 0
M  V30 4309 N 414.933 4.16219 -2.03263 0
M  V30 4310 C 415.668 5.10107 -2.61875 0
M  V30 4311 N 415.164 6.09547 -3.29278 0
M  V30 4312 N 416.957 5.02596 -2.51701 0
M  V30 4313 H 409.108 1.22634 -1.7342 0
M  V30 4314 H 411.371 0.597206 -0.736239 0
M  V30 4315 H 411.077 2.64343 -2.31982 0
M  V30 4316 H 410.951 3.66363 -0.897672 0
M  V30 4317 H 413.338 2.94308 -0.216081 0
M  V30 4318 H 413.419 1.93774 -1.66989 0
M  V30 4319 H 413.063 4.0208 -3.10313 0
M  V30 4320 H 412.993 5.00968 -1.62292 0
M  V30 4321 H 415.484 3.45012 -1.54192 0
M  V30 4322 H 415.797 6.77718 -3.71374 0
M  V30 4323 H 414.142 6.09824 -3.33377 0
M  V30 4324 H 417.333 4.23855 -1.98657 0
M  V30 4325 H 417.506 5.75582 -2.97673 0
M  V30 4326 N 410.912 0.523116 1.48665 0
M  V30 4327 C 412.142 -0.00961724 2.06598 0
M  V30 4328 C 412.55 -1.29333 1.38093 0
M  V30 4329 O 411.893 -1.77846 0.46007 0
M  V30 4330 C 411.955 -0.311135 3.58151 0
M  V30 4331 C 411.619 0.878092 4.48485 0
M  V30 4332 C 412.616 1.77464 4.88674 0
M  V30 4333 C 410.301 1.08315 4.90483 0
M  V30 4334 C 412.295 2.86021 5.69623 0
M  V30 4335 C 409.982 2.17187 5.71203 0
M  V30 4336 C 410.98 3.05873 6.10681 0
M  V30 4337 O 410.668 4.12862 6.89783 0
M  V30 4338 H 410.4 0.0272658 0.67545 0
M  V30 4339 H 412.954 0.726156 1.92136 0
M  V30 4340 H 411.184 -1.10079 3.70701 0
M  V30 4341 H 412.873 -0.785125 3.98234 0
M  V30 4342 H 413.639 1.62813 4.56855 0
M  V30 4343 H 409.518 0.402149 4.59243 0
M  V30 4344 H 413.062 3.55272 6.00356 0
M  V30 4345 H 408.959 2.31824 6.02435 0
M  V30 4346 H 409.727 4.10487 7.08126 0
M  V30 4347 N 412.39 -1.55475 0.257931 0
M  V30 4348 C 413.618 -2.03609 -0.367559 0
M  V30 4349 C 414.033 -1.13687 -1.50734 0
M  V30 4350 O 413.39 -0.153479 -1.81853 0
M  V30 4351 C 413.441 -3.51001 -0.864908 0
M  V30 4352 O 413.162 -4.37499 0.229465 0
M  V30 4353 C 414.663 -4.14946 -1.55997 0
M  V30 4354 H 411.883 -0.665459 -0.0860521 0
M  V30 4355 H 414.427 -2.00843 0.385014 0
M  V30 4356 H 412.582 -3.54266 -1.56762 0
M  V30 4357 H 412.996 -5.24286 -0.14998 0
M  V30 4358 H 414.47 -5.19735 -1.85956 0
M  V30 4359 H 414.947 -3.6209 -2.4857 0
M  V30 4360 H 415.553 -4.15635 -0.901543 0
M  V30 4361 N 413.868 0.0150385 -1.57593 0
M  V30 4362 C 415.279 0.559832 -1.78109 0
M  V30 4363 C 415.63 1.74814 -0.890756 0
M  V30 4364 O 414.755 2.16216 -0.0892482 0
M  V30 4365 C 415.35 1.02238 -3.23006 0
M  V30 4366 C 413.909 1.51258 -3.44671 0
M  V30 4367 C 413.056 0.456955 -2.73509 0
M  V30 4368 H 416.007 -0.211169 -1.57289 0
M  V30 4369 H 416.028 1.88912 -3.30292 0
M  V30 4370 H 415.54 0.157302 -3.87781 0
M  V30 4371 H 413.641 2.39905 -2.8509 0
M  V30 4372 H 413.754 1.55042 -4.5332 0
M  V30 4373 H 412.118 0.915196 -2.37689 0
M  V30 4374 H 412.901 -0.398896 -3.40975 0
M  V30 4375 N 415.346 1.54954 0.287554 0
M  V30 4376 C 416.256 1.8991 1.37736 0
M  V30 4377 C 417.272 0.794701 1.54792 0
M  V30 4378 O 418.448 1.09243 1.69198 0
M  V30 4379 C 415.513 2.15108 2.71899 0
M  V30 4380 C 414.574 3.38752 2.63715 0
M  V30 4381 C 413.807 3.62739 3.91479 0
M  V30 4382 O 414.03 2.89492 4.91478 0
M  V30 4383 O 412.964 4.56267 3.92561 0
M  V30 4384 H 416.79 2.82652 1.11092 0
M  V30 4385 H 414.375 1.41315 0.484807 0
M  V30 4386 H 416.257 2.32806 3.51254 0
M  V30 4387 H 414.932 1.25551 2.9836 0
M  V30 4388 H 413.839 3.26405 1.82786 0
M  V30 4389 H 415.172 4.28483 2.42205 0
M  V30 4390 N 416.824 -0.551391 1.4764 0
M  V30 4391 C 417.756 -1.67333 1.56628 0
M  V30 4392 C 418.769 -1.56398 0.452045 0
M  V30 4393 O 419.958 -1.6325 0.721926 0
M  V30 4394 C 417.058 -3.05841 1.45994 0
M  V30 4395 C 416.231 -3.42472 2.72088 0
M  V30 4396 C 415.29 -4.60168 2.55209 0
M  V30 4397 O 414.316 -4.64458 3.2904 0
M  V30 4398 N 415.518 -5.57024 1.63416 0
M  V30 4399 H 418.283 -1.60066 2.53375 0
M  V30 4400 H 415.844 -0.738169 1.44093 0
M  V30 4401 H 417.836 -3.8242 1.32428 0
M  V30 4402 H 416.406 -3.07302 0.573071 0
M  V30 4403 H 415.626 -2.55284 3.00373 0
M  V30 4404 H 416.914 -3.63723 3.55785 0
M  V30 4405 H 416.312 -5.56319 1.02594 0
M  V30 4406 H 414.869 -6.32906 1.558 0
M  V30 4407 N 418.302 -1.35869 -0.798587 0
M  V30 4408 C 419.579 -1.20145 -1.54352 0
M  V30 4409 C 419.959 0.216161 -2.0999 0
M  V30 4410 O 419.307 1.22068 -1.93162 0
M  V30 4411 C 419.517 -2.27602 -2.64572 0
M  V30 4412 C 420.865 -2.63811 -3.32699 0
M  V30 4413 O 421.889 -2.26576 -2.74849 0
M  V30 4414 O 420.748 -3.27866 -4.37226 0
M  V30 4415 H 417.842 -0.467248 -0.682355 0
M  V30 4416 H 420.388 -1.47574 -0.837859 0
M  V30 4417 H 419.16 -3.2265 -2.21388 0
M  V30 4418 H 418.783 -2.01488 -3.42766 0
M  V30 4419 N 419.78 1.02168 -1.19998 0
M  V30 4420 C 421.008 1.79296 -1.03249 0
M  V30 4421 C 421.423 1.84103 0.418502 0
M  V30 4422 O 420.78 1.29031 1.29063 0
M  V30 4423 C 420.831 3.24007 -1.60319 0
M  V30 4424 O 420.552 3.19512 -2.99739 0
M  V30 4425 C 422.053 4.17704 -1.48453 0
M  V30 4426 H 419.273 0.564016 -0.363493 0
M  V30 4427 H 421.817 1.28639 -1.58973 0
M  V30 4428 H 419.972 3.7183 -1.08727 0
M  V30 4429 H 420.386 4.10306 -3.26725 0
M  V30 4430 H 421.86 5.17104 -1.93153 0
M  V30 4431 H 422.337 4.37029 -0.436193 0
M  V30 4432 H 422.943 3.7576 -1.99211 0
M  V30 4433 N 421.258 1.00505 1.21394 0
M  V30 4434 C 422.191 0.51032 2.22421 0
M  V30 4435 C 423.169 -0.436 1.56645 0
M  V30 4436 O 424.353 -0.358709 1.85055 0
M  V30 4437 C 421.48 -0.258733 3.3771 0
M  V30 4438 C 420.526 0.635395 4.2174 0
M  V30 4439 S 421.359 2.09783 4.92698 0
M  V30 4440 C 422.515 1.33862 6.11418 0
M  V30 4441 H 422.748 1.36637 2.64041 0
M  V30 4442 H 420.281 0.812991 1.31262 0
M  V30 4443 H 422.239 -0.696372 4.0455 0
M  V30 4444 H 420.9 -1.0902 2.94573 0
M  V30 4445 H 420.093 0.0430189 5.03982 0
M  V30 4446 H 419.695 1.01031 3.60095 0
M  V30 4447 H 421.987 0.612541 6.74725 0
M  V30 4448 H 422.93 2.13675 6.75092 0
M  V30 4449 H 423.338 0.846568 5.58116 0
M  V30 4450 N 422.737 -1.36956 0.779787 0
M  V30 4451 C 423.965 -2.03755 0.359398 0
M  V30 4452 C 424.38 -1.58807 -1.02106 0
M  V30 4453 O 423.737 -0.773024 -1.6532 0
M  V30 4454 C 423.788 -3.59251 0.402568 0
M  V30 4455 O 423.509 -4.02557 1.72858 0
M  V30 4456 C 425.01 -4.43291 -0.0284068 0
M  V30 4457 H 422.23 -0.654148 0.149437 0
M  V30 4458 H 424.774 -1.75128 1.05595 0
M  V30 4459 H 422.929 -3.86621 -0.245478 0
M  V30 4460 H 423.343 -4.97111 1.67275 0
M  V30 4461 H 424.817 -5.51975 0.0529466 0
M  V30 4462 H 425.294 -4.25719 -1.07982 0
M  V30 4463 H 425.9 -4.21163 0.591758 0
M  V30 4464 N 424.215 -0.530993 -1.48385 0
M  V30 4465 C 425.462 0.0027373 -2.025 0
M  V30 4466 C 425.79 1.34186 -1.40799 0
M  V30 4467 O 425.045 1.88 -0.543544 0
M  V30 4468 C 425.344 0.172742 -3.56982 0
M  V30 4469 C 425.01 -1.09215 -4.37473 0
M  V30 4470 C 423.672 -1.43881 -4.59186 0
M  V30 4471 C 426.024 -1.93153 -4.84088 0
M  V30 4472 C 423.352 -2.62381 -5.2476 0
M  V30 4473 C 425.704 -3.10833 -5.50968 0
M  V30 4474 C 424.368 -3.45843 -5.70919 0
M  V30 4475 H 423.638 0.00100165 -0.740999 0
M  V30 4476 H 426.285 -0.697219 -1.78357 0
M  V30 4477 H 424.59 0.955473 -3.79971 0
M  V30 4478 H 426.287 0.600642 -3.96476 0
M  V30 4479 H 422.877 -0.812177 -4.20834 0
M  V30 4480 H 427.061 -1.67683 -4.67115 0
M  V30 4481 H 422.317 -2.89707 -5.38405 0
M  V30 4482 H 426.491 -3.7618 -5.86056 0
M  V30 4483 H 424.118 -4.37764 -6.21503 0
M  V30 4484 N 425.693 1.55336 -0.266172 0
M  V30 4485 C 426.918 2.04258 0.359661 0
M  V30 4486 C 427.343 1.14359 1.49344 0
M  V30 4487 O 426.701 0.140369 1.80756 0
M  V30 4488 C 426.749 3.50997 0.826635 0
M  V30 4489 O 425.853 3.64204 1.93466 0
M  V30 4490 H 425.194 0.659668 0.075727 0
M  V30 4491 H 427.724 2.00694 -0.39786 0
M  V30 4492 H 427.734 3.9219 1.12477 0
M  V30 4493 H 426.409 4.159 -0.00293032 0
M  V30 4494 H 424.986 3.34913 1.63974 0
M  V30 4495 N 427.171 -0.0066808 1.57599 0
M  V30 4496 C 428.448 -0.729586 1.81484 0
M  V30 4497 C 428.828 -1.92359 0.869558 0
M  V30 4498 O 428.176 -2.28348 -0.0832533 0
M  V30 4499 C 428.386 -1.1416 3.29801 0
M  V30 4500 C 429.734 -1.54823 3.95367 0
M  V30 4501 O 430.758 -1.23558 3.34084 0
M  V30 4502 O 429.617 -2.12937 5.03309 0
M  V30 4503 H 426.711 -0.354674 0.747085 0
M  V30 4504 H 429.257 0.0182609 1.6969 0
M  V30 4505 H 428.029 -0.290231 3.90222 0
M  V30 4506 H 427.652 -1.94876 3.46568 0
M  V30 4507 N 428.649 -1.55105 -0.279332 0
M  V30 4508 C 429.897 -1.75066 -1.00977 0
M  V30 4509 C 430.218 -0.551276 -1.87045 0
M  V30 4510 O 429.488 0.433984 -1.91032 0
M  V30 4511 H 428.068 -0.645578 -0.375816 0
M  V30 4512 H 430.73 -1.92497 -0.305089 0
M  V30 4513 H 429.826 -2.64894 -1.65038 0
M  V30 4514 N 430.127 0.543554 -1.4793 0
M  V30 4515 C 431.057 1.65888 -1.64327 0
M  V30 4516 C 432.038 1.62818 -0.492383 0
M  V30 4517 O 433.223 1.80226 -0.723338 0
M  V30 4518 C 430.353 3.04506 -1.67013 0
M  V30 4519 C 429.307 3.2243 -2.81466 0
M  V30 4520 C 428.633 4.61972 -2.69233 0
M  V30 4521 C 429.933 3.06496 -4.22915 0
M  V30 4522 H 431.627 1.52421 -2.57698 0
M  V30 4523 H 429.173 0.731849 -1.24016 0
M  V30 4524 H 431.126 3.82391 -1.77074 0
M  V30 4525 H 429.85 3.18964 -0.70212 0
M  V30 4526 H 428.509 2.46957 -2.70938 0
M  V30 4527 H 428.157 4.73247 -1.7043 0
M  V30 4528 H 427.857 4.74911 -3.46025 0
M  V30 4529 H 429.381 5.41974 -2.81242 0
M  V30 4530 H 430.795 3.74186 -4.34348 0
M  V30 4531 H 429.192 3.30938 -5.006 0
M  V30 4532 H 430.262 2.03077 -4.40327 0
M  V30 4533 N 431.605 1.3629 0.791371 0
M  V30 4534 C 432.833 1.33562 1.58016 0
M  V30 4535 C 433.248 -0.0835616 1.88615 0
M  V30 4536 O 432.605 -1.0399 1.49974 0
M  V30 4537 C 432.656 2.15517 2.90232 0
M  V30 4538 O 432.377 3.51902 2.60953 0
M  V30 4539 C 433.878 2.20546 3.84544 0
M  V30 4540 H 431.098 0.458226 0.490173 0
M  V30 4541 H 433.642 1.79361 0.982345 0
M  V30 4542 H 431.797 1.73278 3.46487 0
M  V30 4543 H 432.211 3.94644 3.4548 0
M  V30 4544 H 433.685 2.82252 4.74382 0
M  V30 4545 H 434.162 1.20838 4.2225 0
M  V30 4546 H 434.768 2.63013 3.34222 0
M  V30 4547 N 433.083 -1.0153 1.20538 0
M  V30 4548 C 434.013 -2.11972 0.979295 0
M  V30 4549 C 434.994 -1.6985 -0.0921787 0
M  V30 4550 O 436.179 -1.94089 0.0655932 0
M  V30 4551 C 433.309 -3.43201 0.531984 0
M  V30 4552 C 432.263 -3.9907 1.54685 0
M  V30 4553 C 431.589 -5.26082 0.956127 0
M  V30 4554 C 432.889 -4.32313 2.93092 0
M  V30 4555 H 434.583 -2.31143 1.90298 0
M  V30 4556 H 432.129 -1.11079 0.916372 0
M  V30 4557 H 434.082 -4.1985 0.361044 0
M  V30 4558 H 432.806 -3.23792 -0.427327 0
M  V30 4559 H 431.465 -3.2453 1.70517 0
M  V30 4560 H 431.113 -5.02999 -0.0111538 0
M  V30 4561 H 430.813 -5.64426 1.63393 0
M  V30 4562 H 432.337 -6.05386 0.796284 0
M  V30 4563 H 433.751 -4.99845 2.80763 0
M  V30 4564 H 432.148 -4.81774 3.57791 0
M  V30 4565 H 433.218 -3.41025 3.44717 0
M  V30 4566 N 434.561 -1.01147 -1.20859 0
M  V30 4567 C 435.509 -0.57059 -2.25493 0
M  V30 4568 C 436.503 0.388109 -1.64894 0
M  V30 4569 O 437.709 0.258592 -1.78133 0
M  V30 4570 H 434.084 -0.166191 -0.733406 0
M  V30 4571 H 436.055 -1.46411 -2.60012 0
M  V30 4572 C 434.804 0.0805241 -3.47607 0
M  V30 4573 H 434.127 -0.648156 -3.94511 0
M  V30 4574 H 435.567 0.352197 -4.22535 0
M  V30 4575 C 434.026 1.32175 -3.09889 0
M  V30 4576 O 434.556 2.41553 -3.20959 0
M  V30 4577 N 432.762 1.20392 -2.64488 0
M  V30 4578 H 432.309 0.313905 -2.5568 0
M  V30 4579 H 432.267 2.03541 -2.39621 0
M  V30 4580 N 436.039 1.36541 -0.78704 0
M  V30 4581 C 437.455 1.52571 -0.46844 0
M  V30 4582 C 437.655 1.7415 1.01361 0
M  V30 4583 O 436.711 1.77163 1.79915 0
M  V30 4584 C 438.024 2.71299 -1.29682 0
M  V30 4585 C 439.572 2.85169 -1.29027 0
M  V30 4586 C 440.047 4.06898 -2.10233 0
M  V30 4587 N 441.538 4.1404 -2.07666 0
M  V30 4588 C 442.273 5.07301 -2.67271 0
M  V30 4589 N 441.769 6.06021 -3.35724 0
M  V30 4590 N 443.562 4.99898 -2.57018 0
M  V30 4591 H 435.713 1.20788 -1.74711 0
M  V30 4592 H 437.976 0.589364 -0.742532 0
M  V30 4593 H 437.682 2.61868 -2.34773 0
M  V30 4594 H 437.556 3.6539 -0.936479 0
M  V30 4595 H 439.943 2.94062 -0.247284 0
M  V30 4596 H 440.024 1.91992 -1.69035 0
M  V30 4597 H 439.668 3.98766 -3.1456 0
M  V30 4598 H 439.598 4.99218 -1.67597 0
M  V30 4599 H 442.089 3.43357 -1.57843 0
M  V30 4600 H 442.402 6.73741 -3.78541 0
M  V30 4601 H 440.747 6.06253 -3.39826 0
M  V30 4602 H 443.938 4.21724 -2.03142 0
M  V30 4603 H 444.111 5.72392 -3.03761 0
M  V30 4604 N 437.518 0.538854 1.48102 0
M  V30 4605 C 438.746 0.0123136 2.06896 0
M  V30 4606 C 439.161 -1.27312 1.39417 0
M  V30 4607 O 438.518 -1.75949 0.484582 0
M  V30 4608 C 438.569 -0.206118 3.60912 0
M  V30 4609 O 438.29 1.0284 4.25859 0
M  V30 4610 C 439.791 -0.772033 4.36526 0
M  V30 4611 H 437.011 0.0375239 0.66995 0
M  V30 4612 H 439.555 0.747032 1.90367 0
M  V30 4613 H 437.71 -0.89091 3.77017 0
M  V30 4614 H 438.124 0.814654 5.18135 0
M  V30 4615 H 439.598 -0.874251 5.45033 0
M  V30 4616 H 440.075 -1.77904 4.01555 0
M  V30 4617 H 440.681 -0.123526 4.25121 0
M  V30 4618 N 438.996 -1.55193 0.274407 0
M  V30 4619 C 439.928 -2.1989 -0.646595 0
M  V30 4620 C 440.941 -1.1834 -1.11801 0
M  V30 4621 O 442.13 -1.4507 -1.04004 0
M  V30 4622 C 439.23 -2.8104 -1.89393 0
M  V30 4623 C 438.403 -4.08274 -1.56943 0
M  V30 4624 C 437.462 -4.53478 -2.66916 0
M  V30 4625 O 436.488 -5.19267 -2.33132 0
M  V30 4626 N 437.69 -4.2356 -3.9696 0
M  V30 4627 H 440.455 -2.99556 -0.0928686 0
M  V30 4628 H 438.016 -1.61618 0.0954783 0
M  V30 4629 H 440.008 -3.08226 -2.62257 0
M  V30 4630 H 438.578 -2.05372 -2.35672 0
M  V30 4631 H 437.798 -3.88384 -0.674655 0
M  V30 4632 H 439.086 -4.91173 -1.32764 0
M  V30 4633 H 438.484 -3.70799 -4.27229 0
M  V30 4634 H 437.041 -4.55518 -4.66205 0
M  V30 4635 N 440.474 -0.00167713 -1.576 0
M  V30 4636 C 441.407 1.02317 -2.03977 0
M  V30 4637 C 442.385 1.33381 -0.929963 0
M  V30 4638 O 443.569 1.45517 -1.19822 0
M  V30 4639 C 440.696 2.35035 -2.43878 0
M  V30 4640 C 439.742 2.19621 -3.65607 0
M  V30 4641 S 440.575 1.52068 -5.13455 0
M  V30 4642 C 441.731 2.86212 -5.56627 0
M  V30 4643 H 441.964 0.628285 -2.90585 0
M  V30 4644 H 439.497 0.209239 -1.52976 0
M  V30 4645 H 441.455 3.11345 -2.67534 0
M  V30 4646 H 440.116 2.71663 -1.57665 0
M  V30 4647 H 439.309 3.1767 -3.91282 0
M  V30 4648 H 438.911 1.51455 -3.41961 0
M  V30 4649 H 441.203 3.82509 -5.59189 0
M  V30 4650 H 442.146 2.65235 -6.56549 0
M  V30 4651 H 442.554 2.90199 -4.84195 0
M  V30 4652 N 441.952 1.55251 0.271103 0
M  V30 4653 C 442.902 1.84649 1.33749 0
M  V30 4654 C 443.886 0.705529 1.44607 0
M  V30 4655 O 445.078 0.966916 1.48256 0
M  V30 4656 C 442.207 2.12354 2.69742 0
M  V30 4657 C 441.293 3.32714 2.62988 0
M  V30 4658 N 441.684 4.52575 2.25853 0
M  V30 4659 C 439.982 3.35341 2.94045 0
M  V30 4660 C 440.683 5.34669 2.29136 0
M  V30 4661 N 439.659 4.73123 2.67685 0
M  V30 4662 H 443.461 2.74865 1.0405 0
M  V30 4663 H 440.975 1.55152 0.479738 0
M  V30 4664 H 442.972 2.31572 3.4667 0
M  V30 4665 H 441.632 1.23422 3.00328 0
M  V30 4666 H 442.643 4.78639 1.978 0
M  V30 4667 H 439.32 2.56608 3.2933 0
M  V30 4668 H 440.71 6.40509 2.02971 0
M  V30 4669 N 443.43 -0.535701 1.48216 0
M  V30 4670 C 444.378 -1.66179 1.62749 0
M  V30 4671 C 445.372 -1.62034 0.49409 0
M  V30 4672 O 446.578 -1.6696 0.672624 0
M  V30 4673 H 442.953 -0.550244 0.512578 0
M  V30 4674 H 444.924 -1.51063 2.57337 0
M  V30 4675 C 443.673 -3.04471 1.67907 0
M  V30 4676 H 442.996 -3.08351 2.54479 0
M  V30 4677 H 444.436 -3.82894 1.82121 0
M  V30 4678 C 442.895 -3.34314 0.416596 0
M  V30 4679 O 443.425 -3.98905 -0.473014 0
M  V30 4680 N 441.631 -2.89149 0.290038 0
M  V30 4681 H 441.178 -2.36764 1.01493 0
M  V30 4682 H 441.136 -3.09486 -0.55367 0
M  V30 4683 N 444.908 -1.36708 -0.784132 0
M  V30 4684 C 445.871 -1.31307 -1.87859 0
M  V30 4685 C 446.871 -0.219654 -1.59293 0
M  V30 4686 O 448.061 -0.47476 -1.67606 0
M  V30 4687 C 445.193 -1.03679 -3.24751 0
M  V30 4688 H 446.386 -2.28647 -1.94064 0
M  V30 4689 H 443.939 -1.21558 -0.98252 0
M  V30 4690 H 444.674 -0.0681936 -3.24228 0
M  V30 4691 H 444.459 -1.82811 -3.46876 0
M  V30 4692 H 445.949 -1.02518 -4.04821 0
M  V30 4693 N 446.386 1.0089 -1.21074 0
M  V30 4694 C 447.634 1.74262 -1.02358 0
M  V30 4695 C 447.955 1.89869 0.444393 0
M  V30 4696 O 447.225 1.44677 1.32081 0
M  V30 4697 H 445.805 0.645615 -0.375754 0
M  V30 4698 H 448.467 1.21596 -1.52317 0
M  V30 4699 H 447.563 2.74328 -1.4883 0
M  V30 4700 N 447.864 1.01787 1.20321 0
M  V30 4701 C 449.111 0.707936 1.89722 0
M  V30 4702 C 449.439 -0.762535 1.78929 0
M  V30 4703 O 448.694 -1.56977 1.16861 0
M  V30 4704 C 448.993 1.09076 3.40349 0
M  V30 4705 C 448.659 2.55765 3.71342 0
M  V30 4706 C 447.321 2.95845 3.79511 0
M  V30 4707 C 449.673 3.50723 3.85542 0
M  V30 4708 C 447.001 4.2982 3.99339 0
M  V30 4709 C 449.353 4.84387 4.06881 0
M  V30 4710 C 448.017 5.24172 4.1328 0
M  V30 4711 H 447.287 0.259052 0.694243 0
M  V30 4712 H 449.934 1.27868 1.42555 0
M  V30 4713 H 448.239 0.438453 3.89339 0
M  V30 4714 H 449.936 0.828636 3.92345 0
M  V30 4715 H 446.526 2.2371 3.65584 0
M  V30 4716 H 450.71 3.20916 3.78585 0
M  V30 4717 H 445.966 4.60196 4.02529 0
M  V30 4718 H 450.14 5.57891 4.1681 0
M  V30 4719 H 447.767 6.27997 4.28396 0
M  V30 4720 N 449.342 -1.36122 0.79427 0
M  V30 4721 C 450.59 -1.98718 0.368177 0
M  V30 4722 C 450.911 -1.63345 -1.06506 0
M  V30 4723 O 450.181 -0.909825 -1.73491 0
M  V30 4724 H 448.761 -0.735038 0.133146 0
M  V30 4725 H 451.423 -1.66239 1.01739 0
M  V30 4726 H 450.519 -3.08633 0.463923 0
M  V30 4727 N 450.82 -0.546701 -1.47814 0
M  V30 4728 C 452.231 -0.110564 -1.86372 0
M  V30 4729 C 452.582 1.31678 -1.45449 0
M  V30 4730 O 451.707 1.98889 -0.852758 0
M  V30 4731 C 452.302 -0.193873 -3.38245 0
M  V30 4732 C 450.861 0.187164 -3.75934 0
M  V30 4733 C 450.008 -0.546166 -2.71868 0
M  V30 4734 H 452.959 -0.757022 -1.39481 0
M  V30 4735 H 452.98 0.590218 -3.75895 0
M  V30 4736 H 452.492 -1.23282 -3.67999 0
M  V30 4737 H 450.593 1.22762 -3.51796 0
M  V30 4738 H 450.706 -0.164083 -4.78819 0
M  V30 4739 H 449.07 0.00953904 -2.54698 0
M  V30 4740 H 449.853 -1.58606 -3.04465 0
M  V30 4741 N 452.299 1.55045 -0.282633 0
M  V30 4742 C 453.229 2.2579 0.595066 0
M  V30 4743 C 454.21 1.25074 1.15284 0
M  V30 4744 O 455.395 1.5381 1.18559 0
M  V30 4745 C 452.525 2.98472 1.77572 0
M  V30 4746 C 451.479 4.0618 1.34914 0
M  V30 4747 C 450.805 4.66477 2.6135 0
M  V30 4748 C 452.105 5.1996 0.493821 0
M  V30 4749 H 453.799 2.994 0.00505653 0
M  V30 4750 H 451.345 1.44 0.000992001 0
M  V30 4751 H 453.298 3.46677 2.39568 0
M  V30 4752 H 452.022 2.2241 2.39168 0
M  V30 4753 H 450.681 3.58797 0.752338 0
M  V30 4754 H 450.329 3.87074 3.2122 0
M  V30 4755 H 450.029 5.39207 2.33516 0
M  V30 4756 H 451.553 5.17435 3.24181 0
M  V30 4757 H 452.967 5.64172 1.01898 0
M  V30 4758 H 451.364 5.99299 0.310047 0
M  V30 4759 H 452.434 4.82462 -0.485593 0
M  V30 4760 N 453.777 0.010035 1.57597 0
M  V30 4761 C 455.005 -0.683413 1.95287 0
M  V30 4762 C 455.42 -1.66747 0.885481 0
M  V30 4763 O 454.777 -1.82003 -0.134629 0
M  V30 4764 C 454.828 -1.40652 3.33015 0
M  V30 4765 O 454.549 -0.461916 4.35658 0
M  V30 4766 C 456.05 -2.19356 3.85225 0
M  V30 4767 H 453.27 -0.189708 0.643624 0
M  V30 4768 H 455.814 0.0641359 2.04399 0
M  V30 4769 H 453.969 -2.10562 3.2518 0
M  V30 4770 H 454.383 -0.973215 5.15392 0
M  V30 4771 H 455.857 -2.65433 4.83993 0
M  V30 4772 H 456.334 -3.02457 3.18459 0
M  V30 4773 H 456.94 -1.54442 3.96267 0
M  V30 4774 N 455.255 -1.55392 -0.262866 0
M  V30 4775 C 456.532 -1.67204 -1.01499 0
M  V30 4776 C 456.912 -0.545186 -2.03939 0
M  V30 4777 O 456.26 0.453467 -2.23955 0
M  V30 4778 C 456.47 -3.06847 -1.6627 0
M  V30 4779 C 457.818 -3.64928 -2.17054 0
M  V30 4780 O 458.842 -3.09545 -1.76239 0
M  V30 4781 O 457.701 -4.61984 -2.91947 0
M  V30 4782 H 454.795 -0.679467 -0.471438 0
M  V30 4783 H 457.341 -1.67729 -0.257918 0
M  V30 4784 H 456.113 -3.80309 -0.920915 0
M  V30 4785 H 455.736 -3.10266 -2.48638 0
M  V30 4786 N 456.733 0.527833 -1.48498 0
M  V30 4787 C 457.663 1.64136 -1.66077 0
M  V30 4788 C 458.644 1.62286 -0.509625 0
M  V30 4789 O 459.829 1.79449 -0.742413 0
M  V30 4790 C 456.959 3.02717 -1.70234 0
M  V30 4791 C 455.913 3.19426 -2.8487 0
M  V30 4792 C 455.239 4.5909 -2.74118 0
M  V30 4793 C 456.539 3.01993 -4.26142 0
M  V30 4794 H 458.233 1.4968 -2.593 0
M  V30 4795 H 455.779 0.718654 -1.24785 0
M  V30 4796 H 457.732 3.80491 -1.8112 0
M  V30 4797 H 456.456 3.18201 -0.735911 0
M  V30 4798 H 455.115 2.4407 -2.73542 0
M  V30 4799 H 454.763 4.71413 -1.7544 0
M  V30 4800 H 454.463 4.71214 -3.51042 0
M  V30 4801 H 455.987 5.3896 -2.86974 0
M  V30 4802 H 457.401 3.69558 -4.38292 0
M  V30 4803 H 455.798 3.2561 -5.04082 0
M  V30 4804 H 456.868 1.98396 -4.42456 0
M  V30 4805 N 458.211 1.37122 0.776871 0
M  V30 4806 C 459.457 1.32243 1.53752 0
M  V30 4807 C 459.79 -0.0944745 1.9397 0
M  V30 4808 O 459.065 -1.05068 1.6368 0
M  V30 4809 C 459.348 2.25681 2.80607 0
M  V30 4810 C 459.201 3.76127 2.46676 0
M  V30 4811 C 460.52 2.17657 3.82509 0
M  V30 4812 H 457.639 0.481704 0.557791 0
M  V30 4813 H 460.281 1.6778 0.891612 0
M  V30 4814 H 458.431 1.95505 3.35723 0
M  V30 4815 H 460.103 4.16877 1.97513 0
M  V30 4816 H 458.346 3.94946 1.79443 0
M  V30 4817 H 459.017 4.36933 3.37333 0
M  V30 4818 H 461.493 2.44245 3.36873 0
M  V30 4819 H 460.369 2.85185 4.69 0
M  V30 4820 H 460.63 1.16785 4.26396 0
M  V30 4821 N 459.689 -1.00246 1.21608 0
M  V30 4822 C 460.936 -1.74061 1.03485 0
M  V30 4823 C 461.264 -1.89658 -0.431308 0
M  V30 4824 O 460.519 -1.42976 -1.33627 0
M  V30 4825 C 460.818 -3.15448 1.68009 0
M  V30 4826 C 460.484 -3.19792 3.17874 0
M  V30 4827 C 459.146 -3.20685 3.58768 0
M  V30 4828 C 461.498 -3.16835 4.13842 0
M  V30 4829 C 458.826 -3.16309 4.94131 0
M  V30 4830 C 461.178 -3.14001 5.49169 0
M  V30 4831 C 459.842 -3.13204 5.89457 0
M  V30 4832 H 459.112 -0.636934 0.378677 0
M  V30 4833 H 461.759 -1.17473 1.51236 0
M  V30 4834 H 460.064 -3.75284 1.12557 0
M  V30 4835 H 461.761 -3.71285 1.51487 0
M  V30 4836 H 458.351 -3.19842 2.85305 0
M  V30 4837 H 462.535 -3.15303 3.83272 0
M  V30 4838 H 457.791 -3.14032 5.24589 0
M  V30 4839 H 461.965 -3.10667 6.23265 0
M  V30 4840 H 459.592 -3.09568 6.94314 0
M  V30 4841 N 461.167 -1.02423 -1.1978 0
M  V30 4842 C 462.13 -0.605703 -2.21052 0
M  V30 4843 C 463.13 0.328209 -1.57415 0
M  V30 4844 O 464.32 0.115853 -1.73814 0
M  V30 4845 C 461.452 0.114366 -3.40708 0
M  V30 4846 H 462.645 -1.5017 -2.59594 0
M  V30 4847 H 460.198 -0.814888 -1.33376 0
M  V30 4848 H 460.933 1.02492 -3.07678 0
M  V30 4849 H 460.718 -0.556641 -3.88129 0
M  V30 4850 H 462.208 0.394272 -4.15735 0
M  V30 4851 N 462.645 1.35699 -0.801477 0
M  V30 4852 C 463.892 1.98913 -0.379459 0
M  V30 4853 C 464.22 1.63592 1.05204 0
M  V30 4854 O 463.475 0.888563 1.74365 0
M  V30 4855 C 463.774 3.53828 -0.504041 0
M  V30 4856 C 463.44 4.09002 -1.8981 0
M  V30 4857 C 462.102 4.23783 -2.27951 0
M  V30 4858 C 464.454 4.38939 -2.81038 0
M  V30 4859 C 461.782 4.65816 -3.56696 0
M  V30 4860 C 464.134 4.82409 -4.09224 0
M  V30 4861 C 462.798 4.95395 -4.4737 0
M  V30 4862 H 462.068 0.727874 -0.138854 0
M  V30 4863 H 464.715 1.61994 -1.02128 0
M  V30 4864 H 463.02 3.91175 0.221242 0
M  V30 4865 H 464.717 4.00687 -0.158361 0
M  V30 4866 H 461.307 3.97946 -1.59176 0
M  V30 4867 H 465.491 4.27077 -2.52821 0
M  V30 4868 H 460.747 4.74059 -3.86106 0
M  V30 4869 H 464.921 5.04535 -4.80018 0
M  V30 4870 H 462.548 5.27724 -5.47185 0
M  V30 4871 N 464.123 0.554532 1.47522 0
M  V30 4872 C 465.086 -0.184174 2.28459 0
M  V30 4873 C 466.086 -0.845195 1.36796 0
M  V30 4874 O 467.276 -0.701467 1.59452 0
M  V30 4875 C 464.408 -1.26903 3.16399 0
M  V30 4876 H 465.601 0.526751 2.95238 0
M  V30 4877 H 463.154 0.311375 1.53167 0
M  V30 4878 H 463.889 -2.01244 2.54306 0
M  V30 4879 H 463.674 -0.799883 3.83854 0
M  V30 4880 H 465.164 -1.78794 3.77389 0
M  V30 4881 N 465.601 -1.54893 0.290851 0
M  V30 4882 C 466.849 -1.99538 -0.320756 0
M  V30 4883 C 467.17 -1.18075 -1.55188 0
M  V30 4884 O 466.44 -0.274162 -1.93972 0
M  V30 4885 H 465.02 -0.737052 -0.121507 0
M  V30 4886 H 467.682 -1.90755 0.399832 0
M  V30 4887 H 466.778 -3.06282 -0.599802 0
M  V30 4888 N 467.08 -0.0183926 -1.57589 0
M  V30 4889 C 468.012 0.995557 -2.06449 0
M  V30 4890 C 469.025 1.29556 -0.985849 0
M  V30 4891 O 470.214 1.2621 -1.26227 0
M  V30 4892 C 467.314 2.32572 -2.46502 0
M  V30 4893 C 466.487 2.21245 -3.77319 0
M  V30 4894 C 465.546 3.37104 -4.04039 0
M  V30 4895 O 464.572 3.14468 -4.74445 0
M  V30 4896 N 465.774 4.60553 -3.53372 0
M  V30 4897 H 468.539 0.578746 -2.94059 0
M  V30 4898 H 466.1 0.168603 -1.6102 0
M  V30 4899 H 468.092 3.08887 -2.61478 0
M  V30 4900 H 466.662 2.65931 -1.64315 0
M  V30 4901 H 465.882 1.29723 -3.72244 0
M  V30 4902 H 467.17 2.10868 -4.63047 0
M  V30 4903 H 466.568 4.81839 -2.96391 0
M  V30 4904 H 465.125 5.34072 -3.73644 0
M  V30 4905 N 468.558 1.5553 0.254621 0
M  V30 4906 C 469.488 1.9268 1.31897 0
M  V30 4907 C 470.469 0.790797 1.506 0
M  V30 4908 O 471.654 1.05045 1.63337 0
M  V30 4909 C 468.784 2.21477 2.67517 0
M  V30 4910 C 467.738 3.37256 2.63519 0
M  V30 4911 C 467.064 3.51576 4.02862 0
M  V30 4912 C 468.364 4.73157 2.21179 0
M  V30 4913 H 470.058 2.81832 1.01051 0
M  V30 4914 H 467.604 1.35599 0.484662 0
M  V30 4915 H 469.557 2.46055 3.42104 0
M  V30 4916 H 468.281 1.29144 2.99982 0
M  V30 4917 H 466.94 3.12675 1.9139 0
M  V30 4918 H 466.588 2.56676 4.32581 0
M  V30 4919 H 466.288 4.2943 4.01078 0
M  V30 4920 H 467.812 3.78467 4.79161 0
M  V30 4921 H 469.226 4.97158 2.85494 0
M  V30 4922 H 467.623 5.54058 2.30521 0
M  V30 4923 H 468.693 4.70739 1.16332 0
M  V30 4924 N 470.036 -0.519951 1.48776 0
M  V30 4925 C 470.966 -1.63253 1.66945 0
M  V30 4926 C 471.947 -1.62014 0.518224 0
M  V30 4927 O 473.132 -1.79053 0.751919 0
M  V30 4928 C 470.262 -3.0181 1.71836 0
M  V30 4929 C 469.216 -3.17911 2.8656 0
M  V30 4930 C 468.542 -4.5763 2.76548 0
M  V30 4931 C 469.842 -2.99729 4.27738 0
M  V30 4932 H 471.536 -1.48302 2.6009 0
M  V30 4933 H 469.082 -0.712026 1.25165 0
M  V30 4934 H 471.035 -3.79525 1.83135 0
M  V30 4935 H 469.759 -3.17806 0.752775 0
M  V30 4936 H 468.418 -2.42616 2.74833 0
M  V30 4937 H 468.066 -4.70476 1.77937 0
M  V30 4938 H 467.766 -4.69346 3.53536 0
M  V30 4939 H 469.29 -5.37431 2.89828 0
M  V30 4940 H 470.704 -3.67228 4.40246 0
M  V30 4941 H 469.101 -3.22932 5.05801 0
M  V30 4942 H 470.171 -1.96047 4.43502 0
M  V30 4943 N 471.514 -1.37532 -0.769588 0
M  V30 4944 C 472.925 -1.29382 -1.346 0
M  V30 4945 C 473.276 0.0576039 -1.96115 0
M  V30 4946 O 472.401 0.95947 -1.93967 0
M  V30 4947 C 472.996 -2.34298 -2.44724 0
M  V30 4948 C 471.555 -2.29776 -2.98128 0
M  V30 4949 C 470.702 -2.18013 -1.71364 0
M  V30 4950 H 473.653 -1.48123 -0.56968 0
M  V30 4951 H 473.674 -1.99089 -3.24259 0
M  V30 4952 H 473.186 -3.32645 -1.99922 0
M  V30 4953 H 471.287 -1.34959 -3.47299 0
M  V30 4954 H 471.4 -3.23276 -3.53595 0
M  V30 4955 H 469.764 -1.64595 -1.94372 0
M  V30 4956 H 470.547 -3.18278 -1.28662 0
M  V30 4957 N 472.992 0.995999 -1.22138 0
M  V30 4958 C 473.922 2.10387 -1.01289 0
M  V30 4959 C 474.903 1.69975 0.0651454 0
M  V30 4960 O 476.088 1.9396 -0.0964628 0
M  V30 4961 C 473.218 3.42312 -0.586517 0
M  V30 4962 C 472.172 3.96558 -1.61014 0
M  V30 4963 C 471.498 5.24494 -1.0397 0
M  V30 4964 C 472.798 4.27595 -2.99933 0
M  V30 4965 H 474.492 2.28086 -1.93951 0
M  V30 4966 H 472.038 1.09607 -0.933928 0
M  V30 4967 H 473.991 4.19223 -0.427793 0
M  V30 4968 H 472.715 3.24431 0.375761 0
M  V30 4969 H 471.374 3.21776 -1.75658 0
M  V30 4970 H 471.022 5.02953 -0.0688703 0
M  V30 4971 H 470.722 5.61755 -1.72352 0
M  V30 4972 H 472.246 6.04042 -0.892494 0
M  V30 4973 H 473.66 4.95315 -2.8868 0
M  V30 4974 H 472.057 4.76021 -3.6541 0
M  V30 4975 H 473.127 3.35498 -3.50099 0
M  V30 4976 N 474.47 1.03057 1.19235 0
M  V30 4977 C 475.38 0.622922 2.26179 0
M  V30 4978 C 476.396 -0.346113 1.70523 0
M  V30 4979 O 477.572 -0.203572 2.00369 0
M  V30 4980 C 474.637 -0.0182063 3.46695 0
M  V30 4981 C 473.698 0.998546 4.17526 0
M  V30 4982 C 472.931 0.387917 5.32288 0
M  V30 4983 O 473.154 -0.808668 5.64639 0
M  V30 4984 O 472.088 1.1116 5.91546 0
M  V30 4985 H 475.914 1.51363 2.63292 0
M  V30 4986 H 473.499 0.800856 1.26122 0
M  V30 4987 H 475.381 -0.375606 4.19723 0
M  V30 4988 H 474.056 -0.882895 3.11427 0
M  V30 4989 H 472.963 1.40756 3.4661 0
M  V30 4990 H 474.296 1.83366 4.56769 0
M  V30 4991 N 475.948 -1.35272 0.808662 0
M  V30 4992 C 476.881 -2.27595 0.165994 0
M  V30 4993 C 477.859 -1.48189 -0.669241 0
M  V30 4994 O 479.043 -1.77444 -0.636073 0
M  V30 4995 C 476.17 -3.29843 -0.769505 0
M  V30 4996 C 475.216 -4.26498 -0.0136267 0
M  V30 4997 S 476.049 -5.18878 1.32384 0
M  V30 4998 C 477.205 -6.24666 0.392838 0
M  V30 4999 H 477.438 -2.81755 0.948756 0
M  V30 5000 H 474.971 -1.42103 0.603828 0
M  V30 5001 H 476.929 -3.89247 -1.30374 0
M  V30 5002 H 475.59 -2.74558 -1.52567 0
M  V30 5003 H 474.783 -4.98769 -0.724227 0
M  V30 5004 H 474.385 -3.71274 0.450713 0
M  V30 5005 H 476.677 -6.7619 -0.4211 0
M  V30 5006 H 477.62 -6.99741 1.0848 0
M  V30 5007 H 478.028 -5.64499 -0.0123908 0
M  V30 5008 N 477.426 -0.562348 -1.47226 0
M  V30 5009 C 478.703 0.0256985 -1.95583 0
M  V30 5010 C 479.083 1.48032 -1.50498 0
M  V30 5011 O 478.431 2.15973 -0.746181 0
M  V30 5012 C 478.641 -0.125129 -3.48776 0
M  V30 5013 C 479.989 0.0175728 -4.24596 0
M  V30 5014 O 481.013 -0.0529341 -3.56161 0
M  V30 5015 O 479.872 0.170145 -5.46235 0
M  V30 5016 H 476.966 0.0612565 -0.824728 0
M  V30 5017 H 479.512 -0.629233 -1.57603 0
M  V30 5018 H 478.284 -1.13715 -3.74412 0
M  V30 5019 H 477.907 0.567178 -3.93534 0
M  V30 5020 N 478.904 1.54736 -0.299062 0
M  V30 5021 C 480.181 1.92187 0.363802 0
M  V30 5022 C 480.561 1.22607 1.71845 0
M  V30 5023 O 479.909 0.361141 2.25628 0
M  V30 5024 C 480.119 3.45678 0.480377 0
M  V30 5025 C 481.467 4.17885 0.752147 0
M  V30 5026 O 482.491 3.51702 0.564264 0
M  V30 5027 O 481.35 5.35048 1.11294 0
M  V30 5028 H 478.444 0.801681 0.203066 0
M  V30 5029 H 480.99 1.66115 -0.346978 0
M  V30 5030 H 479.762 3.88443 -0.471999 0
M  V30 5031 H 479.385 3.77779 1.2397 0
M  V30 5032 N 480.382 0.0267497 1.57577 0
M  V30 5033 C 481.61 -0.662661 1.96001 0
M  V30 5034 C 482.025 -1.65799 0.903117 0
M  V30 5035 O 481.382 -1.82135 -0.115317 0
M  V30 5036 C 481.433 -1.37112 3.34488 0
M  V30 5037 O 481.154 -0.415683 4.36123 0
M  V30 5038 C 482.655 -2.15257 3.8753 0
M  V30 5039 H 479.875 -0.18287 0.6456 0
M  V30 5040 H 482.419 0.0858116 2.0432 0
M  V30 5041 H 480.574 -2.07101 3.27395 0
M  V30 5042 H 480.988 -0.918496 5.16395 0
M  V30 5043 H 482.462 -2.60285 4.86781 0
M  V30 5044 H 482.939 -2.99063 3.21649 0
M  V30 5045 H 483.545 -1.50231 3.97883 0
M  V30 5046 N 481.861 -1.55662 -0.24637 0
M  V30 5047 C 482.771 -1.93495 -1.32653 0
M  V30 5048 C 483.787 -0.835462 -1.5263 0
M  V30 5049 O 484.963 -1.1369 -1.66242 0
M  V30 5050 C 482.028 -2.22242 -2.66101 0
M  V30 5051 C 481.089 -3.45625 -2.54641 0
M  V30 5052 C 480.322 -3.72991 -3.81724 0
M  V30 5053 O 480.545 -3.02421 -4.8363 0
M  V30 5054 O 479.479 -4.66515 -3.80325 0
M  V30 5055 H 483.305 -2.85498 -1.03559 0
M  V30 5056 H 480.89 -1.42551 -0.44717 0
M  V30 5057 H 482.772 -2.42037 -3.44958 0
M  V30 5058 H 481.447 -1.33417 -2.94926 0
M  V30 5059 H 480.354 -3.31136 -1.74067 0
M  V30 5060 H 481.687 -4.34754 -2.3076 0
M  V30 5061 N 483.339 0.512053 -1.4905 0
M  V30 5062 C 484.567 1.29116 -1.61669 0
M  V30 5063 C 484.982 1.86655 -0.283787 0
M  V30 5064 O 484.339 1.67293 0.729331 0
M  V30 5065 C 484.39 2.4293 -2.67707 0
M  V30 5066 O 484.111 1.87758 -3.95826 0
M  V30 5067 C 485.612 3.34476 -2.90931 0
M  V30 5068 H 482.832 0.392009 -0.544583 0
M  V30 5069 H 485.376 0.615881 -1.95006 0
M  V30 5070 H 483.531 3.06308 -2.37179 0
M  V30 5071 H 483.945 2.62393 -4.54148 0
M  V30 5072 H 485.419 4.10642 -3.68886 0
M  V30 5073 H 485.896 3.90801 -2.00427 0
M  V30 5074 H 486.502 2.76874 -3.22832 0
M  V30 5075 N 484.817 1.37938 0.762283 0
M  V30 5076 C 486.065 1.33404 1.51815 0
M  V30 5077 C 486.386 -0.0780975 1.94844 0
M  V30 5078 O 485.656 -1.02405 1.67003 0
M  V30 5079 H 484.236 0.490839 0.563104 0
M  V30 5080 H 486.898 1.72527 0.906669 0
M  V30 5081 H 485.994 1.97926 2.41313 0
M  V30 5082 N 486.295 -0.989507 1.22664 0
M  V30 5083 C 487.225 -2.09847 1.02404 0
M  V30 5084 C 488.206 -1.70007 -0.0561303 0
M  V30 5085 O 489.391 -1.93906 0.106748 0
M  V30 5086 C 486.521 -3.41996 0.604663 0
M  V30 5087 C 485.475 -3.95699 1.63115 0
M  V30 5088 C 484.801 -5.23936 1.0675 0
M  V30 5089 C 486.101 -4.25999 3.02196 0
M  V30 5090 H 487.795 -2.27054 1.95158 0
M  V30 5091 H 485.341 -1.09111 0.939727 0
M  V30 5092 H 487.294 -4.1899 0.45002 0
M  V30 5093 H 486.018 -3.24626 -0.35855 0
M  V30 5094 H 484.677 -3.2084 1.77362 0
M  V30 5095 H 484.325 -5.02909 0.0955422 0
M  V30 5096 H 484.025 -5.60833 1.75328 0
M  V30 5097 H 485.549 -6.0356 0.924516 0
M  V30 5098 H 486.963 -4.93777 2.91303 0
M  V30 5099 H 485.36 -4.74076 3.67929 0
M  V30 5100 H 486.43 -3.33636 3.51873 0
M  V30 5101 N 487.773 -1.03688 -1.18687 0
M  V30 5102 C 488.703 -0.645407 -2.24403 0
M  V30 5103 C 489.684 0.349511 -1.66471 0
M  V30 5104 O 490.869 0.230453 -1.92828 0
M  V30 5105 C 487.999 -0.00365337 -3.473 0
M  V30 5106 C 486.953 -0.921705 -4.17958 0
M  V30 5107 C 486.279 -0.144629 -5.34504 0
M  V30 5108 C 487.579 -2.23909 -4.71871 0
M  V30 5109 H 489.273 -1.52917 -2.57404 0
M  V30 5110 H 486.819 -0.736711 -1.23728 0
M  V30 5111 H 488.772 0.281908 -4.20456 0
M  V30 5112 H 487.496 0.914963 -3.13522 0
M  V30 5113 H 486.155 -1.19159 -3.46694 0
M  V30 5114 H 485.803 0.776274 -4.96974 0
M  V30 5115 H 485.503 -0.756206 -5.82714 0
M  V30 5116 H 487.027 0.134004 -6.10453 0
M  V30 5117 H 488.441 -2.0145 -5.36741 0
M  V30 5118 H 486.838 -2.8033 -5.30599 0
M  V30 5119 H 487.908 -2.88822 -3.895 0
M  V30 5120 N 489.251 1.34841 -0.815825 0
M  V30 5121 C 490.476 2.03261 -0.41226 0
M  V30 5122 C 490.901 1.61055 0.971751 0
M  V30 5123 O 490.259 0.7917 1.63101 0
M  V30 5124 C 490.307 3.56914 -0.514289 0
M  V30 5125 O 489.411 4.09728 0.468675 0
M  V30 5126 H 488.752 0.641664 -0.170771 0
M  V30 5127 H 491.282 1.72241 -1.10427 0
M  V30 5128 H 491.292 4.06156 -0.387457 0
M  V30 5129 H 489.967 3.86982 -1.52375 0
M  V30 5130 H 488.544 3.71681 0.301316 0
M  V30 5131 N 490.729 0.570148 1.46925 0
M  V30 5132 C 491.692 -0.159933 2.28641 0
M  V30 5133 C 492.692 -0.830638 1.37685 0
M  V30 5134 O 493.882 -0.684516 1.60187 0
M  V30 5135 C 491.014 -1.2354 3.17727 0
M  V30 5136 H 492.207 0.558035 2.94662 0
M  V30 5137 H 489.76 0.327603 1.52828 0
M  V30 5138 H 490.495 -1.98535 2.56426 0
M  V30 5139 H 490.28 -0.759125 3.84681 0
M  V30 5140 H 491.77 -1.74782 3.79264 0
M  V30 5141 N 492.207 -1.54576 0.307264 0
M  V30 5142 C 493.456 -1.99442 -0.300976 0
M  V30 5143 C 493.769 -1.19928 -1.5452 0
M  V30 5144 O 494.975 -1.55092 -2.22842 0
M  V30 5145 C 493.431 -3.55084 -0.586809 0
M  V30 5146 C 493.039 -4.43413 0.639438 0
M  V30 5147 C 494.783 -4.0846 -1.1559 0
M  V30 5148 C 492.69 -5.90499 0.326411 0
M  V30 5149 H 491.62 -0.744986 -0.116238 0
M  V30 5150 H 494.271 -1.787 0.416947 0
M  V30 5151 H 492.653 -3.71749 -1.36449 0
M  V30 5152 H 493.827 -4.38522 1.41545 0
M  V30 5153 H 492.142 -4.00842 1.1276 0
M  V30 5154 H 494.739 -5.15926 -1.40445 0
M  V30 5155 H 495.082 -3.59443 -2.10015 0
M  V30 5156 H 495.615 -3.95362 -0.439778 0
M  V30 5157 H 492.354 -6.43676 1.23939 0
M  V30 5158 H 491.874 -5.98382 -0.412212 0
M  V30 5159 H 493.553 -6.46962 -0.0697393 0
M  V30 5160 N 493.685 -0.035106 -1.57561 0
M  V30 5161 C 494.925 0.646316 -1.93913 0
M  V30 5162 C 495.289 1.68947 -0.912185 0
M  V30 5163 O 496.49 2.42381 -1.1621 0
M  V30 5164 C 494.761 1.24136 -3.35149 0
M  V30 5165 S 496.32 1.94302 -3.93436 0
M  V30 5166 H 493.138 0.212642 -0.678457 0
M  V30 5167 H 495.74 -0.100203 -1.95243 0
M  V30 5168 H 494.444 0.46979 -4.07702 0
M  V30 5169 H 493.975 2.02505 -3.37276 0
M  V30 5170 H 495.99 3.22205 -3.77357 0
M  V30 5171 N 495.163 1.55791 0.238111 0
M  V30 5172 C 496.093 1.94068 1.29846 0
M  V30 5173 C 497.074 0.806726 1.49753 0
M  V30 5174 O 498.259 1.06772 1.62214 0
M  V30 5175 C 495.389 2.24302 2.65153 0
M  V30 5176 C 494.343 3.40032 2.59927 0
M  V30 5177 C 493.669 3.55829 3.99111 0
M  V30 5178 C 494.969 4.75476 2.16148 0
M  V30 5179 H 496.663 2.82887 0.980563 0
M  V30 5180 H 494.209 1.36105 0.470253 0
M  V30 5181 H 496.162 2.4967 3.39475 0
M  V30 5182 H 494.886 1.32318 2.98596 0
M  V30 5183 H 493.545 3.14687 1.88063 0
M  V30 5184 H 493.193 2.6125 4.29834 0
M  V30 5185 H 492.893 4.3366 3.96501 0
M  V30 5186 H 494.417 3.83528 4.7512 0
M  V30 5187 H 495.831 5.00158 2.80205 0
M  V30 5188 H 494.228 5.56472 2.24631 0
M  V30 5189 H 495.298 4.71946 1.11333 0
M  V30 5190 N 496.642 -0.504142 1.49319 0
M  V30 5191 C 497.891 -1.25507 1.57895 0
M  V30 5192 C 498.204 -1.93735 0.269433 0
M  V30 5193 O 499.41 -2.70492 0.233706 0
M  V30 5194 C 497.866 -2.27869 2.78574 0
M  V30 5195 C 497.474 -1.65594 4.16272 0
M  V30 5196 C 499.218 -3.0381 2.96479 0
M  V30 5197 C 497.125 -2.66048 5.28178 0
M  V30 5198 H 496.055 -0.47212 0.587894 0
M  V30 5199 H 498.706 -0.52931 1.757 0
M  V30 5200 H 497.088 -3.03594 2.54257 0
M  V30 5201 H 498.262 -0.958826 4.50714 0
M  V30 5202 H 496.577 -1.02055 4.037 0
M  V30 5203 H 499.174 -3.78925 3.77253 0
M  V30 5204 H 499.517 -3.61235 2.06918 0
M  V30 5205 H 500.05 -2.352 3.20821 0
M  V30 5206 H 496.789 -2.13408 6.19788 0
M  V30 5207 H 496.309 -3.34009 4.98195 0
M  V30 5208 H 497.988 -3.28536 5.57381 0
M  V30 5209 N 498.12 -1.38341 -0.754957 0
M  V30 5210 C 499.36 -1.35888 -1.52689 0
M  V30 5211 C 499.724 0.0513682 -1.91931 0
M  V30 5212 O 500.925 0.200761 -2.68049 0
M  V30 5213 C 499.196 -2.28666 -2.74676 0
M  V30 5214 S 500.755 -2.4422 -3.64558 0
M  V30 5215 H 497.573 -0.482165 -0.522531 0
M  V30 5216 H 500.175 -1.74253 -0.886358 0
M  V30 5217 H 498.879 -3.30023 -2.43953 0
M  V30 5218 H 498.41 -1.91445 -3.43675 0
M  V30 5219 H 500.425 -1.66525 -4.67423 0
M  V30 5220 N 499.598 0.982988 -1.23187 0
M  V30 5221 C 500.846 1.72052 -1.06031 0
M  V30 5222 C 501.167 1.90769 0.404019 0
M  V30 5223 O 500.437 1.47446 1.28982 0
M  V30 5224 H 499.017 0.637499 -0.389363 0
M  V30 5225 H 501.679 1.18338 -1.54862 0
M  V30 5226 H 500.775 2.7111 -1.54615 0
M  V30 5227 N 501.076 1.04316 1.18135 0
M  V30 5228 C 502.353 0.662166 1.84051 0
M  V30 5229 C 502.733 -0.858169 1.9287 0
M  V30 5230 O 502.081 -1.76062 1.45652 0
M  V30 5231 C 502.291 1.3409 3.22212 0
M  V30 5232 C 503.639 1.4733 3.9822 0
M  V30 5233 O 504.663 1.29921 3.31661 0
M  V30 5234 O 503.522 1.75722 5.17479 0
M  V30 5235 H 500.616 0.232005 0.79379 0
M  V30 5236 H 503.162 1.1422 1.25506 0
M  V30 5237 H 501.934 2.37853 3.10711 0
M  V30 5238 H 501.557 0.849649 3.88416 0
M  V30 5239 N 502.554 -1.34406 0.822964 0
M  V30 5240 C 503.97 -1.51275 0.508727 0
M  V30 5241 C 504.17 -1.76776 -0.967083 0
M  V30 5242 O 503.226 -1.81871 -1.75155 0
M  V30 5243 C 504.539 -2.67765 1.36829 0
M  V30 5244 C 506.087 -2.81647 1.36542 0
M  V30 5245 C 506.562 -4.01181 2.20947 0
M  V30 5246 N 508.053 -4.08388 2.18571 0
M  V30 5247 C 508.788 -5.00036 2.80627 0
M  V30 5248 N 508.284 -5.96906 3.51674 0
M  V30 5249 N 510.077 -4.92908 2.70181 0
M  V30 5250 H 502.228 -1.16113 1.77852 0
M  V30 5251 H 504.491 -0.56947 0.757897 0
M  V30 5252 H 504.197 -2.55551 2.41633 0
M  V30 5253 H 504.071 -3.62779 1.03303 0
M  V30 5254 H 506.458 -2.93303 0.325163 0
M  V30 5255 H 506.539 -1.87443 1.74066 0
M  V30 5256 H 506.183 -3.90286 3.25022 0
M  V30 5257 H 506.113 -4.94599 1.80774 0
M  V30 5258 H 508.604 -3.39051 1.66891 0
M  V30 5259 H 508.917 -6.63468 3.96271 0
M  V30 5260 H 507.262 -5.9703 3.5578 0
M  V30 5261 H 510.453 -4.1619 2.14251 0
M  V30 5262 H 510.626 -5.64137 3.18831 0
M  V30 5263 N 504.032 -0.577932 -1.46621 0
M  V30 5264 C 504.965 0.206312 -2.27265 0
M  V30 5265 C 505.943 0.901306 -1.35334 0
M  V30 5266 O 507.127 0.916151 -1.64739 0
M  V30 5267 C 504.254 1.29563 -3.1294 0
M  V30 5268 C 503.3 0.706981 -4.206 0
M  V30 5269 S 504.133 -0.462459 -5.33499 0
M  V30 5270 C 505.289 0.628171 -6.2274 0
M  V30 5271 H 505.522 -0.477961 -2.93433 0
M  V30 5272 H 503.055 -0.364715 -1.50031 0
M  V30 5273 H 505.013 1.91935 -3.62865 0
M  V30 5274 H 503.674 1.95183 -2.46095 0
M  V30 5275 H 502.867 1.52565 -4.80354 0
M  V30 5276 H 502.469 0.159022 -3.73662 0
M  V30 5277 H 504.761 1.51506 -6.60342 0
M  V30 5278 H 505.704 0.0674961 -7.08068 0
M  V30 5279 H 506.112 0.930167 -5.56784 0
M  V30 5280 N 505.51 1.54411 -0.315457 0
M  V30 5281 C 506.787 1.92562 0.343398 0
M  V30 5282 C 507.167 1.24423 1.70535 0
M  V30 5283 O 506.515 0.385051 2.25232 0
M  V30 5284 C 506.725 3.46168 0.443687 0
M  V30 5285 C 508.073 4.18659 0.707783 0
M  V30 5286 O 509.097 3.52281 0.52693 0
M  V30 5287 O 507.956 5.36198 1.05612 0
M  V30 5288 H 505.05 0.80379 0.194552 0
M  V30 5289 H 507.596 1.65738 -0.364577 0
M  V30 5290 H 506.368 3.8792 -0.513172 0
M  V30 5291 H 505.991 3.79073 1.19956 0
M  V30 5292 N 506.988 0.0434614 1.5754 0
M  V30 5293 C 507.918 -0.931651 2.14109 0
M  V30 5294 C 508.899 -1.32971 1.06079 0
M  V30 5295 O 510.084 -1.40579 1.33982 0
M  V30 5296 C 507.214 -2.20914 2.67982 0
M  V30 5297 C 506.168 -1.95139 3.80926 0
M  V30 5298 C 505.494 -3.29276 4.21285 0
M  V30 5299 C 506.794 -1.27913 5.06395 0
M  V30 5300 H 508.488 -0.460497 2.95837 0
M  V30 5301 H 506.034 -0.220058 1.42309 0
M  V30 5302 H 507.987 -2.89522 3.06194 0
M  V30 5303 H 506.711 -2.70221 1.83434 0
M  V30 5304 H 505.37 -1.28945 3.43175 0
M  V30 5305 H 505.018 -3.76369 3.33699 0
M  V30 5306 H 504.718 -3.12831 4.97404 0
M  V30 5307 H 506.242 -3.99129 4.62091 0
M  V30 5308 H 507.656 -1.86544 5.42102 0
M  V30 5309 H 506.053 -1.2182 5.87605 0
M  V30 5310 H 507.123 -0.254066 4.84234 0
M  V30 5311 N 508.466 -1.55915 -0.229846 0
M  V30 5312 C 509.376 -1.94891 -1.30593 0
M  V30 5313 C 510.392 -0.851604 -1.51736 0
M  V30 5314 O 511.568 -1.15447 -1.65027 0
M  V30 5315 C 508.633 -2.25052 -2.63728 0
M  V30 5316 C 507.694 -3.48306 -2.5096 0
M  V30 5317 C 506.927 -3.77019 -3.77747 0
M  V30 5318 O 507.15 -3.07534 -4.80395 0
M  V30 5319 O 506.084 -4.70523 -3.75356 0
M  V30 5320 H 509.91 -2.86581 -1.00525 0
M  V30 5321 H 507.495 -1.43017 -0.432025 0
M  V30 5322 H 509.377 -2.45682 -3.42372 0
M  V30 5323 H 508.052 -1.36538 -2.93495 0
M  V30 5324 H 506.959 -3.32964 -1.70546 0
M  V30 5325 H 508.292 -4.37177 -2.26136 0
M  V30 5326 N 509.944 0.496216 -1.49584 0
M  V30 5327 C 510.854 1.62352 -1.69349 0
M  V30 5328 C 511.87 1.64184 -0.576147 0
M  V30 5329 O 513.046 1.82517 -0.85144 0
M  V30 5330 C 510.111 2.98698 -1.76013 0
M  V30 5331 C 509.172 3.07454 -2.99617 0
M  V30 5332 C 508.405 4.37296 -3.05953 0
M  V30 5333 O 508.628 5.2637 -2.19752 0
M  V30 5334 O 507.562 4.51124 -3.9846 0
M  V30 5335 H 511.388 1.48606 -2.64859 0
M  V30 5336 H 508.973 0.673022 -1.33382 0
M  V30 5337 H 510.855 3.79725 -1.82721 0
M  V30 5338 H 509.53 3.12696 -0.836828 0
M  V30 5339 H 508.437 2.25597 -2.98424 0
M  V30 5340 H 509.77 2.98385 -3.91443 0
M  V30 5341 N 511.423 1.38739 0.74761 0
M  V30 5342 C 512.834 1.31507 1.32524 0
M  V30 5343 C 513.185 -0.0263963 1.96182 0
M  V30 5344 O 512.31 -0.92849 1.95469 0
M  V30 5345 C 512.905 2.38162 2.40966 0
M  V30 5346 C 511.464 2.34489 2.94434 0
M  V30 5347 C 510.611 2.20712 1.67873 0
M  V30 5348 H 513.562 1.4901 0.546043 0
M  V30 5349 H 513.583 2.04222 3.21051 0
M  V30 5350 H 513.095 3.35783 1.94605 0
M  V30 5351 H 511.196 1.40467 3.45108 0
M  V30 5352 H 511.309 3.28861 3.48407 0
M  V30 5353 H 509.673 1.67667 1.91729 0
M  V30 5354 H 510.456 3.20285 1.23582 0
M  V30 5355 N 512.901 -0.976442 1.23707 0
M  V30 5356 C 513.811 -2.10359 1.03856 0
M  V30 5357 C 514.827 -1.73991 -0.0180919 0
M  V30 5358 O 516.003 -2.0061 0.178211 0
M  V30 5359 C 513.068 -3.40809 0.636387 0
M  V30 5360 C 512.129 -3.91179 1.76854 0
M  V30 5361 C 511.362 -5.15404 1.38546 0
M  V30 5362 O 511.585 -5.69754 0.27142 0
M  V30 5363 O 510.519 -5.5994 2.20797 0
M  V30 5364 H 514.345 -2.29997 1.98331 0
M  V30 5365 H 511.93 -1.08742 1.02448 0
M  V30 5366 H 513.812 -4.19269 0.423223 0
M  V30 5367 H 512.487 -3.22493 -0.279322 0
M  V30 5368 H 511.394 -3.13819 2.03638 0
M  V30 5369 H 512.727 -4.13958 2.6627 0
M  V30 5370 N 514.379 -1.04941 -1.1758 0
M  V30 5371 C 515.326 -0.648155 -2.21512 0
M  V30 5372 C 516.296 0.348431 -1.62404 0
M  V30 5373 O 517.481 0.240419 -1.89279 0
M  V30 5374 C 514.621 -0.0264291 -3.4509 0
M  V30 5375 C 513.734 -1.07154 -4.185 0
M  V30 5376 C 512.869 -0.417403 -5.29558 0
M  V30 5377 C 511.908 -1.447 -5.94751 0
M  V30 5378 N 511.045 -0.817203 -6.97328 0
M  V30 5379 H 515.885 -1.53891 -2.55189 0
M  V30 5380 H 513.422 -0.769699 -1.25356 0
M  V30 5381 H 515.38 0.351456 -4.15717 0
M  V30 5382 H 514.01 0.827802 -3.12005 0
M  V30 5383 H 513.062 -1.56728 -3.46613 0
M  V30 5384 H 514.374 -1.8532 -4.63096 0
M  V30 5385 H 513.528 0.0142061 -6.06698 0
M  V30 5386 H 512.267 0.396265 -4.86087 0
M  V30 5387 H 511.272 -1.88865 -5.16343 0
M  V30 5388 H 512.497 -2.26252 -6.40302 0
M  V30 5389 H 510.443 -0.0239995 -6.55996 0
M  V30 5390 H 510.36 -1.53644 -7.40223 0
M  V30 5391 H 511.628 -0.410283 -7.7842 0
M  V30 5392 N 515.857 1.33968 -0.830081 0
M  V30 5393 C 517.103 1.98357 -0.422191 0
M  V30 5394 C 517.436 1.65633 1.01387 0
M  V30 5395 O 516.711 0.931648 1.70735 0
M  V30 5396 C 516.994 3.54492 -0.633043 0
M  V30 5397 C 516.847 3.96934 -2.11574 0
M  V30 5398 C 518.166 4.40039 -0.0735584 0
M  V30 5399 H 515.285 0.720544 -0.154871 0
M  V30 5400 H 517.927 1.58749 -1.04397 0
M  V30 5401 H 516.077 3.88361 -0.103775 0
M  V30 5402 H 517.749 3.73363 -2.7092 0
M  V30 5403 H 515.992 3.46984 -2.60354 0
M  V30 5404 H 516.663 5.05651 -2.21406 0
M  V30 5405 H 519.139 4.12764 -0.52585 0
M  V30 5406 H 518.015 5.48327 -0.250841 0
M  V30 5407 H 518.276 4.30124 1.02202 0
M  V30 5408 N 517.335 0.585699 1.46312 0
M  V30 5409 C 518.612 0.00542031 1.95599 0
M  V30 5410 C 518.992 -1.45619 1.52834 0
M  V30 5411 O 518.34 -2.14759 0.780446 0
M  V30 5412 C 518.55 0.180601 3.48532 0
M  V30 5413 C 519.898 0.049979 4.24571 0
M  V30 5414 O 520.922 0.109589 3.56031 0
M  V30 5415 O 519.781 -0.0832226 5.46437 0
M  V30 5416 H 516.875 -0.0481281 0.825598 0
M  V30 5417 H 519.421 0.654227 1.56582 0
M  V30 5418 H 518.193 1.19657 3.72556 0
M  V30 5419 H 517.816 -0.504498 3.94386 0
M  V30 5420 N 518.813 -1.54241 0.323641 0
M  V30 5421 C 519.76 -2.24339 -0.542277 0
M  V30 5422 C 520.73 -1.23421 -1.11159 0
M  V30 5423 O 521.915 -1.52104 -1.15192 0
M  V30 5424 C 519.055 -3.00479 -1.69725 0
M  V30 5425 C 518.168 -4.16214 -1.15716 0
M  V30 5426 C 517.303 -4.79884 -2.27783 0
M  V30 5427 C 516.342 -5.87722 -1.71023 0
M  V30 5428 N 515.479 -6.45254 -2.76752 0
M  V30 5429 H 520.319 -2.97935 0.0620613 0
M  V30 5430 H 517.856 -1.47039 0.0423993 0
M  V30 5431 H 519.814 -3.42869 -2.3769 0
M  V30 5432 H 518.444 -2.29217 -2.27288 0
M  V30 5433 H 517.496 -3.78605 -0.369063 0
M  V30 5434 H 518.808 -4.93838 -0.701832 0
M  V30 5435 H 517.962 -5.25243 -3.03651 0
M  V30 5436 H 516.701 -4.01641 -2.76652 0
M  V30 5437 H 515.706 -5.41765 -0.936518 0
M  V30 5438 H 516.931 -6.67863 -1.2303 0
M  V30 5439 H 514.877 -5.69884 -3.24912 0
M  V30 5440 H 514.794 -7.18292 -2.35782 0
M  V30 5441 H 516.062 -6.95269 -3.5245 0
M  V30 5442 N 520.291 -0.0518155 -1.57515 0
M  V30 5443 C 521.221 0.920283 -2.146 0
M  V30 5444 C 522.202 1.32406 -1.06783 0
M  V30 5445 O 523.387 1.39866 -1.34726 0
M  V30 5446 C 520.517 2.1949 -2.6915 0
M  V30 5447 C 519.471 1.93116 -3.81956 0
M  V30 5448 C 518.797 3.27037 -4.23026 0
M  V30 5449 C 520.097 1.25225 -5.07066 0
M  V30 5450 H 521.791 0.444801 -2.96077 0
M  V30 5451 H 519.337 0.212508 -1.42423 0
M  V30 5452 H 521.29 2.87894 -3.07725 0
M  V30 5453 H 520.014 2.69244 -1.84865 0
M  V30 5454 H 518.673 1.27123 -3.43854 0
M  V30 5455 H 518.321 3.74595 -3.3569 0
M  V30 5456 H 518.021 3.10189 -4.99056 0
M  V30 5457 H 519.545 3.96673 -4.64202 0
M  V30 5458 H 520.959 1.83666 -5.43083 0
M  V30 5459 H 519.356 1.18702 -5.88243 0
M  V30 5460 H 520.426 0.228382 -4.84362 0
M  V30 5461 N 521.769 1.56035 0.221574 0
M  V30 5462 C 522.701 1.889 1.29805 0
M  V30 5463 C 523.714 0.777269 1.43047 0
M  V30 5464 O 524.903 1.05557 1.43945 0
M  V30 5465 C 522.003 2.0825 2.67367 0
M  V30 5466 C 521.176 3.39267 2.76073 0
M  V30 5467 C 520.235 3.48049 3.94649 0
M  V30 5468 O 519.261 4.2108 3.82988 0
M  V30 5469 N 520.463 2.79191 5.08953 0
M  V30 5470 H 523.228 2.81831 1.01938 0
M  V30 5471 H 520.789 1.5658 0.411612 0
M  V30 5472 H 522.781 2.11441 3.45072 0
M  V30 5473 H 521.351 1.21944 2.87834 0
M  V30 5474 H 520.571 3.48175 1.84846 0
M  V30 5475 H 521.859 4.25575 2.7886 0
M  V30 5476 H 521.257 2.19635 5.21322 0
M  V30 5477 H 519.814 2.88043 5.84701 0
M  V30 5478 N 523.247 -0.488276 1.49845 0
M  V30 5479 C 524.157 -1.61451 1.70207 0
M  V30 5480 C 525.173 -1.63877 0.584846 0
M  V30 5481 O 526.349 -1.82063 0.861107 0
M  V30 5482 C 523.414 -2.9776 1.77594 0
M  V30 5483 C 522.475 -3.05861 3.01243 0
M  V30 5484 C 521.708 -4.35668 3.08268 0
M  V30 5485 O 521.931 -5.25197 2.22541 0
M  V30 5486 O 520.865 -4.49005 4.00847 0
M  V30 5487 H 524.691 -1.47199 2.65643 0
M  V30 5488 H 522.276 -0.665939 1.33737 0
M  V30 5489 H 524.158 -3.7875 1.84732 0
M  V30 5490 H 522.833 -3.12248 0.8534 0
M  V30 5491 H 521.74 -2.24012 2.99616 0
M  V30 5492 H 523.073 -2.96304 3.9302 0
M  V30 5493 N 524.725 -1.39134 -0.740242 0
M  V30 5494 C 526.136 -1.32208 -1.31825 0
M  V30 5495 C 526.487 0.0159919 -1.96193 0
M  V30 5496 O 525.612 0.918111 -1.95958 0
M  V30 5497 C 526.207 -2.39436 -2.39699 0
M  V30 5498 C 524.766 -2.36048 -2.93187 0
M  V30 5499 C 523.913 -2.21599 -1.66701 0
M  V30 5500 H 526.864 -1.49298 -0.538133 0
M  V30 5501 H 526.885 -2.05922 -3.19963 0
M  V30 5502 H 526.397 -3.36811 -1.92821 0
M  V30 5503 H 524.498 -1.42295 -3.44359 0
M  V30 5504 H 524.611 -3.30704 -3.46658 0
M  V30 5505 H 522.975 -1.68681 -1.90837 0
M  V30 5506 H 523.758 -3.20936 -1.21882 0
M  V30 5507 N 526.204 0.969867 -1.24223 0
M  V30 5508 C 527.134 2.08191 -1.05729 0
M  V30 5509 C 528.115 1.70075 0.0290765 0
M  V30 5510 O 529.3 1.93712 -0.137583 0
M  V30 5511 C 526.43 3.40991 -0.658995 0
M  V30 5512 C 525.384 3.93054 -1.69389 0
M  V30 5513 C 524.71 5.22171 -1.15072 0
M  V30 5514 C 526.01 4.21137 -3.08935 0
M  V30 5515 H 527.704 2.23921 -1.98746 0
M  V30 5516 H 525.25 1.07602 -0.956967 0
M  V30 5517 H 527.203 4.18221 -0.51662 0
M  V30 5518 H 525.927 3.25155 0.30686 0
M  V30 5519 H 524.586 3.17977 -1.82444 0
M  V30 5520 H 524.234 5.02694 -0.175539 0
M  V30 5521 H 523.934 5.57973 -1.84229 0
M  V30 5522 H 525.458 6.02013 -1.02042 0
M  V30 5523 H 526.872 4.8908 -2.99121 0
M  V30 5524 H 525.269 4.68163 -3.75425 0
M  V30 5525 H 526.339 3.27996 -3.57137 0
M  V30 5526 N 527.682 1.05563 1.17022 0
M  V30 5527 C 528.612 0.681026 2.23348 0
M  V30 5528 C 529.593 -0.322983 1.67005 0
M  V30 5529 O 530.778 -0.199746 1.9317 0
M  V30 5530 C 527.908 0.0589053 3.4725 0
M  V30 5531 C 526.862 0.988082 4.16438 0
M  V30 5532 C 526.188 0.229646 5.34207 0
M  V30 5533 C 527.488 2.31388 4.68249 0
M  V30 5534 H 529.182 1.56993 2.54938 0
M  V30 5535 H 526.728 0.756302 1.2254 0
M  V30 5536 H 528.681 -0.214982 4.20851 0
M  V30 5537 H 527.405 -0.864968 3.14938 0
M  V30 5538 H 526.064 1.24659 3.44754 0
M  V30 5539 H 525.712 -0.697111 4.98146 0
M  V30 5540 H 525.412 0.848815 5.81437 0
M  V30 5541 H 526.936 -0.0368694 6.10589 0
M  V30 5542 H 528.35 2.09964 5.33468 0
M  V30 5543 H 526.747 2.88736 5.26072 0
M  V30 5544 H 527.817 2.94982 3.84855 0
M  V30 5545 N 529.16 -1.33526 0.837174 0
M  V30 5546 C 530.07 -2.33023 0.271568 0
M  V30 5547 C 531.086 -1.63272 -0.601514 0
M  V30 5548 O 532.262 -1.94939 -0.506038 0
M  V30 5549 C 529.327 -3.42382 -0.545448 0
M  V30 5550 C 528.388 -4.27857 0.351709 0
M  V30 5551 C 527.621 -5.31994 -0.426409 0
M  V30 5552 O 527.844 -5.45763 -1.65828 0
M  V30 5553 O 526.778 -6.01572 0.1987 0
M  V30 5554 H 530.604 -2.83256 1.09545 0
M  V30 5555 H 528.189 -1.36837 0.599655 0
M  V30 5556 H 530.071 -4.09122 -1.00979 0
M  V30 5557 H 528.746 -2.94369 -1.34641 0
M  V30 5558 H 527.653 -3.6399 0.863853 0
M  V30 5559 H 528.986 -4.79349 1.1174 0
M  V30 5560 N 530.638 -0.59345 -1.46 0
M  V30 5561 C 531.601 0.123538 -2.28867 0
M  V30 5562 C 532.601 0.808628 -1.38989 0
M  V30 5563 O 533.791 0.658945 -1.61256 0
M  V30 5564 C 530.923 1.1847 -3.19653 0
M  V30 5565 H 532.116 -0.604843 -2.93737 0
M  V30 5566 H 529.669 -0.351875 -1.52288 0
M  V30 5567 H 530.404 1.94431 -2.59552 0
M  V30 5568 H 530.189 0.69783 -3.8584 0
M  V30 5569 H 531.679 1.68726 -3.81997 0
M  V30 5570 N 532.116 1.54067 -0.331816 0
M  V30 5571 C 533.046 2.27569 0.522932 0
M  V30 5572 C 534.027 1.28679 1.11247 0
M  V30 5573 O 535.212 1.57504 1.13605 0
M  V30 5574 C 532.342 3.0397 1.67987 0
M  V30 5575 C 531.296 4.10267 1.21924 0
M  V30 5576 C 530.622 4.74555 2.46377 0
M  V30 5577 C 531.922 5.21268 0.32815 0
M  V30 5578 H 533.616 2.99264 -0.0901977 0
M  V30 5579 H 531.162 1.4393 -0.044821 0
M  V30 5580 H 533.115 3.54123 2.28418 0
M  V30 5581 H 531.839 2.29906 2.31971 0
M  V30 5582 H 530.498 3.61009 0.637809 0
M  V30 5583 H 530.146 3.97098 3.08743 0
M  V30 5584 H 529.846 5.46363 2.16243 0
M  V30 5585 H 531.37 5.27487 3.07555 0
M  V30 5586 H 532.784 5.67128 0.838978 0
M  V30 5587 H 531.181 5.99982 0.119228 0
M  V30 5588 H 532.251 4.80673 -0.638839 0
M  V30 5589 N 533.594 0.0601682 1.57485 0
M  V30 5590 C 535.01 -0.296422 1.56823 0
M  V30 5591 C 535.21 -1.70831 1.0686 0
M  V30 5592 O 534.266 -2.4174 0.729245 0
M  V30 5593 C 535.579 -0.116681 3.00474 0
M  V30 5594 C 537.127 -0.187103 3.1244 0
M  V30 5595 C 537.602 -0.035783 4.57986 0
M  V30 5596 N 539.093 -0.0917676 4.63109 0
M  V30 5597 C 539.828 0.00107251 5.734 0
M  V30 5598 N 539.324 0.146773 6.92645 0
M  V30 5599 N 541.117 -0.0551577 5.62073 0
M  V30 5600 H 533.268 0.983055 1.88281 0
M  V30 5601 H 535.531 0.382386 0.867459 0
M  V30 5602 H 535.237 0.85712 3.41096 0
M  V30 5603 H 535.111 -0.873929 3.66936 0
M  V30 5604 H 537.498 -1.15138 2.71712 0
M  V30 5605 H 537.579 0.601052 2.48638 0
M  V30 5606 H 537.223 0.925212 4.99402 0
M  V30 5607 H 537.153 -0.843196 5.19806 0
M  V30 5608 H 539.644 -0.203261 3.77353 0
M  V30 5609 H 539.957 0.210076 7.72514 0
M  V30 5610 H 538.302 0.181979 6.94762 0
M  V30 5611 H 541.493 -0.167605 4.678 0
M  V30 5612 H 541.666 0.020652 6.47997 0
M  V30 5613 N 535.072 -1.5615 -0.213296 0
M  V30 5614 C 536.002 -1.96109 -1.26742 0
M  V30 5615 C 536.983 -0.830448 -1.48451 0
M  V30 5616 O 538.168 -1.09339 -1.60495 0
M  V30 5617 C 535.298 -2.28492 -2.61551 0
M  V30 5618 C 534.252 -3.44124 -2.54485 0
M  V30 5619 C 533.578 -3.62134 -3.93399 0
M  V30 5620 C 534.878 -4.78855 -2.08556 0
M  V30 5621 H 536.572 -2.84412 -0.935434 0
M  V30 5622 H 534.118 -1.36836 -0.44854 0
M  V30 5623 H 536.071 -2.55039 -3.3546 0
M  V30 5624 H 534.795 -1.37052 -2.96453 0
M  V30 5625 H 533.454 -3.17639 -1.83033 0
M  V30 5626 H 533.102 -2.68055 -4.25623 0
M  V30 5627 H 532.802 -4.39913 -3.89551 0
M  V30 5628 H 534.326 -3.91038 -4.68958 0
M  V30 5629 H 535.74 -5.04552 -2.72213 0
M  V30 5630 H 534.137 -5.59975 -2.1575 0
M  V30 5631 H 535.207 -4.73657 -1.03811 0
M  V30 5632 N 536.55 0.480323 -1.50102 0
M  V30 5633 C 537.78 1.25475 -1.64133 0
M  V30 5634 C 538.188 1.8647 -0.320272 0
M  V30 5635 O 537.531 1.69561 0.70673 0
M  V30 5636 C 537.593 2.40996 -2.6676 0
M  V30 5637 C 537.257 2.00711 -4.10565 0
M  V30 5638 C 538.254 1.53492 -4.96725 0
M  V30 5639 C 535.939 2.09714 -4.56427 0
M  V30 5640 C 537.933 1.15806 -6.26792 0
M  V30 5641 C 535.62 1.7164 -5.86501 0
M  V30 5642 C 536.618 1.24763 -6.71508 0
M  V30 5643 O 536.306 0.872122 -7.99155 0
M  V30 5644 H 536.038 0.385983 -0.554971 0
M  V30 5645 H 538.592 0.580848 -1.97016 0
M  V30 5646 H 536.822 3.11528 -2.291 0
M  V30 5647 H 538.511 3.02981 -2.70106 0
M  V30 5648 H 539.277 1.45966 -4.62514 0
M  V30 5649 H 535.156 2.4515 -3.90413 0
M  V30 5650 H 538.7 0.791465 -6.93096 0
M  V30 5651 H 534.597 1.78822 -6.20236 0
M  V30 5652 H 535.365 1.00178 -8.12346 0
M  V30 5653 N 538.028 1.39524 0.732853 0
M  V30 5654 C 538.991 1.38189 1.82857 0
M  V30 5655 C 539.991 0.278624 1.58368 0
M  V30 5656 O 541.181 0.536639 1.65728 0
M  V30 5657 C 538.313 1.15661 3.2068 0
M  V30 5658 H 539.506 2.35692 1.85444 0
M  V30 5659 H 537.059 1.2512 0.936728 0
M  V30 5660 H 537.794 0.188482 3.23752 0
M  V30 5661 H 537.579 1.95559 3.39852 0
M  V30 5662 H 539.069 1.17472 4.00737 0
M  V30 5663 N 539.506 -0.963266 1.24736 0
M  V30 5664 C 540.922 -1.23273 1.01371 0
M  V30 5665 C 541.122 -1.99618 -0.274776 0
M  V30 5666 O 540.178 -2.32293 -0.989769 0
M  V30 5667 C 541.491 -2.01554 2.23152 0
M  V30 5668 C 543.039 -2.14629 2.27823 0
M  V30 5669 C 543.514 -2.96307 3.49237 0
M  V30 5670 N 545.005 -3.03887 3.49581 0
M  V30 5671 C 545.74 -3.67456 4.40186 0
M  V30 5672 N 545.236 -4.32706 5.41052 0
M  V30 5673 N 547.029 -3.64511 4.27888 0
M  V30 5674 H 539.18 -0.452294 2.07528 0
M  V30 5675 H 541.443 -0.262521 0.910926 0
M  V30 5676 H 541.149 -1.52847 3.1675 0
M  V30 5677 H 541.023 -3.02278 2.25628 0
M  V30 5678 H 543.41 -2.62537 1.34753 0
M  V30 5679 H 543.491 -1.13238 2.2937 0
M  V30 5680 H 543.135 -2.49091 4.42624 0
M  V30 5681 H 543.065 -3.97905 3.44933 0
M  V30 5682 H 545.556 -2.57477 2.76611 0
M  V30 5683 H 545.869 -4.79042 6.06415 0
M  V30 5684 H 544.214 -4.31361 5.44934 0
M  V30 5685 H 547.405 -3.12715 3.4832 0
M  V30 5686 H 547.578 -4.13768 4.98698 0
M  V30 5687 N 540.985 -1.06182 -1.16461 0
M  V30 5688 C 542.401 -0.785065 -1.38956 0
M  V30 5689 C 542.601 0.616103 -1.9185 0
M  V30 5690 O 541.657 1.37686 -2.11657 0
M  V30 5691 C 542.97 -1.84902 -2.37132 0
M  V30 5692 C 544.518 -1.8724 -2.50819 0
M  V30 5693 C 544.993 -2.92686 -3.52277 0
M  V30 5694 N 546.484 -2.91712 -3.59803 0
M  V30 5695 C 547.219 -3.69949 -4.38093 0
M  V30 5696 N 546.715 -4.58 -5.19815 0
M  V30 5697 N 548.508 -3.58346 -4.33064 0
M  V30 5698 H 540.659 -1.96569 -0.804634 0
M  V30 5699 H 542.922 -0.851747 -0.416211 0
M  V30 5700 H 542.628 -2.85518 -2.0536 0
M  V30 5701 H 542.502 -1.69908 -3.36766 0
M  V30 5702 H 544.889 -0.872827 -2.81897 0
M  V30 5703 H 544.97 -2.06311 -1.51226 0
M  V30 5704 H 544.614 -3.92835 -3.21937 0
M  V30 5705 H 544.544 -2.70864 -4.51598 0
M  V30 5706 H 547.035 -2.27876 -3.01464 0
M  V30 5707 H 547.348 -5.14357 -5.76764 0
M  V30 5708 H 545.693 -4.62056 -5.19162 0
M  V30 5709 H 548.884 -2.88943 -3.68279 0
M  V30 5710 H 549.057 -4.19563 -4.93833 0
M  V30 5711 N 542.463 1.3308 -0.844243 0
M  V30 5712 C 543.879 1.50447 -0.532729 0
M  V30 5713 C 544.079 1.78292 0.938837 0
M  V30 5714 O 543.135 1.84635 1.72239 0
M  V30 5715 C 544.448 2.65555 -1.41072 0
M  V30 5716 C 545.996 2.7944 -1.41005 0
M  V30 5717 C 546.471 3.97616 -2.27301 0
M  V30 5718 N 547.962 4.0486 -2.2504 0
M  V30 5719 C 548.697 4.95508 -2.88547 0
M  V30 5720 N 548.193 5.91236 -3.61126 0
M  V30 5721 N 549.986 4.88548 -2.77989 0
M  V30 5722 H 542.137 1.13269 -1.79677 0
M  V30 5723 H 544.4 0.55734 -0.766861 0
M  V30 5724 H 544.106 2.51675 -2.45668 0
M  V30 5725 H 543.98 3.61089 -1.09061 0
M  V30 5726 H 546.367 2.92749 -0.371784 0
M  V30 5727 H 546.448 1.8465 -1.77026 0
M  V30 5728 H 546.092 3.85066 -3.3119 0
M  V30 5729 H 546.022 4.91661 -1.88619 0
M  V30 5730 H 548.513 3.36353 -1.72264 0
M  V30 5731 H 548.826 6.57079 -4.06776 0
M  V30 5732 H 547.171 5.91295 -3.65234 0
M  V30 5733 H 550.362 4.12729 -2.20846 0
M  V30 5734 H 550.535 5.58994 -3.27765 0
M  V30 5735 N 543.941 0.601185 1.45683 0
M  V30 5736 C 545.357 0.264315 1.57396 0
M  V30 5737 C 545.557 -1.23324 1.59353 0
M  V30 5738 O 544.613 -2.01594 1.52039 0
M  V30 5739 C 545.926 0.929839 2.85962 0
M  V30 5740 C 547.474 0.905156 2.99626 0
M  V30 5741 C 547.949 1.55057 4.30954 0
M  V30 5742 N 549.44 1.51576 4.37697 0
M  V30 5743 C 550.175 1.98436 5.37969 0
M  V30 5744 N 549.671 2.53352 6.44813 0
M  V30 5745 N 551.464 1.89242 5.29286 0
M  V30 5746 H 543.615 1.57363 1.42656 0
M  V30 5747 H 545.878 0.658831 0.681649 0
M  V30 5748 H 545.584 1.98404 2.90394 0
M  V30 5749 H 545.458 0.449224 3.74515 0
M  V30 5750 H 547.845 -0.14048 2.94765 0
M  V30 5751 H 547.926 1.42397 2.12501 0
M  V30 5752 H 547.57 2.5955 4.36573 0
M  V30 5753 H 547.5 1.00682 5.16886 0
M  V30 5754 H 549.991 1.11452 3.61091 0
M  V30 5755 H 550.304 2.86918 7.17564 0
M  V30 5756 H 548.649 2.57388 6.45582 0
M  V30 5757 H 551.84 1.46083 4.44722 0
M  V30 5758 H 552.013 2.26075 6.07284 0
M  V30 5759 N 545.419 -1.53889 0.339982 0
M  V30 5760 C 546.83 -1.86139 -0.144671 0
M  V30 5761 C 547.181 -1.2613 -1.50285 0
M  V30 5762 O 546.306 -0.573515 -2.08662 0
M  V30 5763 C 546.901 -3.37728 -0.269285 0
M  V30 5764 C 545.46 -3.69868 -0.698168 0
M  V30 5765 C 544.607 -2.76777 0.170249 0
M  V30 5766 H 547.558 -1.48503 0.559704 0
M  V30 5767 H 547.579 -3.64331 -1.0974 0
M  V30 5768 H 547.091 -3.81375 0.719366 0
M  V30 5769 H 545.192 -3.31764 -1.69597 0
M  V30 5770 H 545.305 -4.76582 -0.490533 0
M  V30 5771 H 543.669 -2.52188 -0.356844 0
M  V30 5772 H 544.452 -3.23253 1.15597 0
M  V30 5773 N 546.897 -0.0685191 -1.57451 0
M  V30 5774 C 548.122 0.613919 -1.98106 0
M  V30 5775 C 548.547 1.62551 -0.946501 0
M  V30 5776 O 547.905 1.81085 0.0882824 0
M  V30 5777 C 547.953 1.26189 -3.378 0
M  V30 5778 O 547.057 2.37773 -3.36954 0
M  V30 5779 H 546.398 0.158163 -0.644888 0
M  V30 5780 H 548.928 -0.142063 -2.04106 0
M  V30 5781 H 548.938 1.60951 -3.74912 0
M  V30 5782 H 547.613 0.520625 -4.12629 0
M  V30 5783 H 546.19 2.04829 -3.11608 0
M  V30 5784 N 548.375 1.56261 0.205012 0
M  V30 5785 C 549.307 1.90266 1.27795 0
M  V30 5786 C 550.32 0.792397 1.42214 0
M  V30 5787 O 551.509 1.07077 1.42817 0
M  V30 5788 C 548.609 2.11074 2.65143 0
M  V30 5789 C 547.782 3.42176 2.7246 0
M  V30 5790 C 546.841 3.52216 3.90936 0
M  V30 5791 O 545.867 4.25119 3.78501 0
M  V30 5792 N 547.069 2.84573 5.05963 0
M  V30 5793 H 549.834 2.82896 0.989434 0
M  V30 5794 H 547.395 1.57008 0.394981 0
M  V30 5795 H 549.387 2.15089 3.4281 0
M  V30 5796 H 547.957 1.2499 2.86524 0
M  V30 5797 H 547.177 3.50116 1.81142 0
M  V30 5798 H 548.465 4.28509 2.74331 0
M  V30 5799 H 547.863 2.25152 5.18963 0
M  V30 5800 H 546.42 2.94228 5.81613 0
M  V30 5801 N 549.853 -0.472356 1.50355 0
M  V30 5802 C 551.264 -1.05326 1.54154 0
M  V30 5803 C 551.615 -1.93155 0.344303 0
M  V30 5804 O 550.74 -2.09479 -0.542928 0
M  V30 5805 C 551.335 -1.91691 2.79356 0
M  V30 5806 C 549.894 -2.44892 2.8584 0
M  V30 5807 C 549.041 -1.23205 2.48426 0
M  V30 5808 H 551.992 -0.255027 1.56637 0
M  V30 5809 H 552.013 -2.76742 2.6114 0
M  V30 5810 H 551.525 -1.27741 3.66475 0
M  V30 5811 H 549.626 -3.12399 2.0307 0
M  V30 5812 H 549.739 -2.80086 3.88701 0
M  V30 5813 H 548.103 -1.56643 2.00836 0
M  V30 5814 H 548.886 -0.609194 3.37852 0
M  V30 5815 N 551.331 -1.39911 -0.725443 0
M  V30 5816 C 552.561 -1.40744 -1.51244 0
M  V30 5817 C 552.969 -0.00275403 -1.892 0
M  V30 5818 O 552.312 0.981299 -1.55294 0
M  V30 5819 C 552.374 -2.22527 -2.82351 0
M  V30 5820 C 552.038 -3.71053 -2.66774 0
M  V30 5821 C 553.035 -4.63916 -2.34686 0
M  V30 5822 C 550.72 -4.14753 -2.83347 0
M  V30 5823 C 552.714 -5.98463 -2.19366 0
M  V30 5824 C 550.401 -5.49372 -2.67644 0
M  V30 5825 C 551.399 -6.41042 -2.357 0
M  V30 5826 O 551.087 -7.73181 -2.20107 0
M  V30 5827 H 550.819 -0.482314 -0.473655 0
M  V30 5828 H 553.373 -1.84472 -0.903284 0
M  V30 5829 H 551.603 -1.73563 -3.45562 0
M  V30 5830 H 553.292 -2.15421 -3.44018 0
M  V30 5831 H 554.058 -4.31453 -2.21525 0
M  V30 5832 H 549.937 -3.43728 -3.072 0
M  V30 5833 H 553.481 -6.69979 -1.94354 0
M  V30 5834 H 549.378 -5.81424 -2.80387 0
M  V30 5835 H 550.146 -7.84008 -2.35103 0
M  V30 5836 N 552.809 0.956637 -1.25245 0
M  V30 5837 C 553.742 2.05232 -0.99775 0
M  V30 5838 C 554.72 1.62439 0.0723137 0
M  V30 5839 O 555.904 1.88381 -0.066926 0
M  V30 5840 C 553.031 3.34871 -0.507861 0
M  V30 5841 C 552.077 3.96625 -1.56815 0
M  V30 5842 S 552.91 4.32853 -3.15276 0
M  V30 5843 C 554.066 5.65613 -2.68017 0
M  V30 5844 H 554.299 2.26521 -1.9255 0
M  V30 5845 H 551.832 1.09601 -1.08752 0
M  V30 5846 H 553.79 4.09845 -0.231858 0
M  V30 5847 H 552.451 3.11551 0.399356 0
M  V30 5848 H 551.644 4.90087 -1.17604 0
M  V30 5849 H 551.246 3.28124 -1.79473 0
M  V30 5850 H 553.538 6.43635 -2.11518 0
M  V30 5851 H 554.481 6.09693 -3.60112 0
M  V30 5852 H 554.889 5.24751 -2.0808 0
M  V30 5853 N 554.287 1.06798 1.15896 0
M  V30 5854 C 555.534 0.787767 1.86549 0
M  V30 5855 C 555.862 -0.685959 1.82002 0
M  V30 5856 O 555.117 -1.5188 1.23414 0
M  V30 5857 C 555.416 1.23414 3.35416 0
M  V30 5858 C 555.082 2.71285 3.6016 0
M  V30 5859 C 553.744 3.11676 3.66622 0
M  V30 5860 C 556.096 3.6676 3.7032 0
M  V30 5861 C 553.424 4.4637 3.8075 0
M  V30 5862 C 555.776 5.01209 3.8597 0
M  V30 5863 C 554.44 5.41229 3.90676 0
M  V30 5864 H 553.71 0.288264 0.682631 0
M  V30 5865 H 556.357 1.338 1.37003 0
M  V30 5866 H 554.662 0.60319 3.87129 0
M  V30 5867 H 556.359 0.994298 3.88477 0
M  V30 5868 H 552.949 2.39015 3.55767 0
M  V30 5869 H 557.133 3.36685 3.64633 0
M  V30 5870 H 552.389 4.76855 3.82648 0
M  V30 5871 H 556.563 5.75067 3.92773 0
M  V30 5872 H 554.19 6.45602 4.01375 0
M  V30 5873 N 555.766 -1.3263 0.851289 0
M  V30 5874 C 557.177 -1.79653 0.5081 0
M  V30 5875 C 557.528 -1.70327 -0.973815 0
M  V30 5876 O 556.653 -1.25986 -1.75944 0
M  V30 5877 C 557.248 -3.26196 0.915515 0
M  V30 5878 C 555.807 -3.71187 0.624277 0
M  V30 5879 C 554.954 -2.53804 1.11709 0
M  V30 5880 H 557.905 -1.19976 1.03882 0
M  V30 5881 H 557.926 -3.79801 0.230535 0
M  V30 5882 H 557.438 -3.32952 1.99411 0
M  V30 5883 H 555.539 -3.69948 -0.443737 0
M  V30 5884 H 555.652 -4.64132 1.18821 0
M  V30 5885 H 554.016 -2.48964 0.537484 0
M  V30 5886 H 554.799 -2.63315 2.20272 0
M  V30 5887 N 557.244 -0.608902 -1.45362 0
M  V30 5888 C 558.66 -0.272659 -1.57254 0
M  V30 5889 C 558.86 1.22477 -1.60005 0
M  V30 5890 O 557.916 2.00785 -1.53106 0
M  V30 5891 C 559.229 -0.944991 -2.85465 0
M  V30 5892 C 560.777 -0.921033 -2.99142 0
M  V30 5893 C 561.252 -1.5734 -4.30126 0
M  V30 5894 N 562.743 -1.53895 -4.36887 0
M  V30 5895 C 563.478 -2.01286 -5.36909 0
M  V30 5896 N 562.974 -2.56768 -6.43461 0
M  V30 5897 N 564.767 -1.92046 -5.28275 0
M  V30 5898 H 556.918 -1.58117 -1.4182 0
M  V30 5899 H 559.181 -0.662437 -0.678146 0
M  V30 5900 H 558.887 -1.99941 -2.89338 0
M  V30 5901 H 558.761 -0.469079 -3.74272 0
M  V30 5902 H 561.148 0.124846 -2.94836 0
M  V30 5903 H 561.229 -1.43522 -2.11743 0
M  V30 5904 H 560.873 -2.61862 -4.35191 0
M  V30 5905 H 560.803 -1.03422 -5.16344 0
M  V30 5906 H 563.294 -1.13366 -3.60495 0
M  V30 5907 H 563.607 -2.9072 -7.16032 0
M  V30 5908 H 561.952 -2.60808 -6.44208 0
M  V30 5909 H 565.143 -1.48439 -4.43941 0
M  V30 5910 H 565.316 -2.29293 -6.06077 0
M  V30 5911 N 558.722 1.53707 -0.348139 0
M  V30 5912 C 559.655 2.21481 0.549667 0
M  V30 5913 C 560.633 1.20046 1.09671 0
M  V30 5914 O 561.817 1.48883 1.15612 0
M  V30 5915 C 558.944 2.89585 1.75664 0
M  V30 5916 C 557.99 4.04948 1.33864 0
M  V30 5917 S 558.823 5.34325 0.354577 0
M  V30 5918 C 559.979 6.05934 1.56828 0
M  V30 5919 H 560.212 2.97289 -0.0259755 0
M  V30 5920 H 557.745 1.53833 -0.132216 0
M  V30 5921 H 559.703 3.29441 2.44906 0
M  V30 5922 H 558.364 2.13535 2.30351 0
M  V30 5923 H 557.557 4.51552 2.23868 0
M  V30 5924 H 557.159 3.66893 0.725651 0
M  V30 5925 H 559.451 6.29606 2.50205 0
M  V30 5926 H 560.394 6.98799 1.14395 0
M  V30 5927 H 560.802 5.36151 1.76642 0
M  V30 5928 N 560.2 0.0768682 1.57412 0
M  V30 5929 C 561.13 -0.886026 2.16037 0
M  V30 5930 C 562.111 -1.30691 1.08876 0
M  V30 5931 O 563.296 -1.37705 1.36934 0
M  V30 5932 C 560.426 -2.1518 2.72608 0
M  V30 5933 C 559.38 -1.87015 3.8498 0
M  V30 5934 C 558.706 -3.20266 4.28175 0
M  V30 5935 C 560.006 -1.17143 5.08994 0
M  V30 5936 H 561.7 -0.397642 2.96748 0
M  V30 5937 H 559.246 -0.189823 1.42743 0
M  V30 5938 H 561.199 -2.82962 3.12266 0
M  V30 5939 H 559.923 -2.66269 1.89125 0
M  V30 5940 H 558.582 -1.21636 3.45833 0
M  V30 5941 H 558.23 -3.69207 3.41607 0
M  V30 5942 H 557.93 -3.0221 5.03927 0
M  V30 5943 H 559.454 -3.89237 4.70454 0
M  V30 5944 H 560.868 -1.75003 5.45937 0
M  V30 5945 H 559.265 -1.09328 5.90057 0
M  V30 5946 H 560.335 -0.151295 4.84664 0
M  V30 5947 N 561.678 -1.56367 -0.196722 0
M  V30 5948 C 562.611 -1.89475 -1.2718 0
M  V30 5949 C 563.589 -0.754667 -1.44026 0
M  V30 5950 O 564.773 -1.00551 -1.59442 0
M  V30 5951 C 561.9 -2.12352 -2.63864 0
M  V30 5952 C 560.946 -3.35053 -2.63897 0
M  V30 5953 S 561.779 -4.90228 -2.15492 0
M  V30 5954 C 562.935 -5.16171 -3.54004 0
M  V30 5955 H 563.168 -2.80365 -0.989075 0
M  V30 5956 H 560.701 -1.49125 -0.40014 0
M  V30 5957 H 562.659 -2.26214 -3.42545 0
M  V30 5958 H 561.32 -1.22214 -2.89349 0
M  V30 5959 H 560.513 -3.48182 -3.64397 0
M  V30 5960 H 560.115 -3.20176 -1.93296 0
M  V30 5961 H 562.407 -5.06591 -4.49857 0
M  V30 5962 H 563.35 -6.17938 -3.45771 0
M  V30 5963 H 563.758 -4.43814 -3.48841 0
M  V30 5964 N 563.156 0.464375 -1.50603 0
M  V30 5965 C 564.103 1.56152 -1.69956 0
M  V30 5966 C 565.073 1.57046 -0.54091 0
M  V30 5967 O 566.258 1.74473 -0.772258 0
M  V30 5968 C 563.398 2.94079 -1.80586 0
M  V30 5969 C 562.511 3.02923 -3.07996 0
M  V30 5970 C 561.646 4.31806 -3.09382 0
M  V30 5971 C 560.685 4.34417 -4.31218 0
M  V30 5972 N 559.822 5.54782 -4.30304 0
M  V30 5973 H 564.662 1.38955 -2.6362 0
M  V30 5974 H 562.199 0.675482 -1.30674 0
M  V30 5975 H 564.157 3.74073 -1.8473 0
M  V30 5976 H 562.787 3.09896 -0.903556 0
M  V30 5977 H 561.839 2.1576 -3.13292 0
M  V30 5978 H 563.151 3.00712 -3.97962 0
M  V30 5979 H 562.305 5.20153 -3.12292 0
M  V30 5980 H 561.044 4.36636 -2.17257 0
M  V30 5981 H 560.049 3.44467 -4.28512 0
M  V30 5982 H 561.274 4.31273 -5.24576 0
M  V30 5983 H 559.22 5.60384 -3.41037 0
M  V30 5984 H 559.137 5.54339 -5.14047 0
M  V30 5985 H 560.405 6.45235 -4.3737 0
M  V30 5986 N 564.634 1.40294 0.718013 0
M  V30 5987 C 565.883 1.37746 1.4734 0
M  V30 5988 C 566.196 -0.0180754 1.95592 0
M  V30 5989 O 567.402 -0.166166 2.70991 0
M  V30 5990 C 565.858 2.4208 2.66318 0
M  V30 5991 C 565.466 3.87432 2.24945 0
M  V30 5992 C 567.21 2.48635 3.44065 0
M  V30 5993 C 565.117 4.83368 3.40748 0
M  V30 5994 H 564.047 0.512165 0.553356 0
M  V30 5995 H 566.698 1.66019 0.781661 0
M  V30 5996 H 565.08 2.06903 3.3765 0
M  V30 5997 H 566.254 4.3174 1.6105 0
M  V30 5998 H 564.569 3.8433 1.60249 0
M  V30 5999 H 567.166 3.17499 4.30231 0
M  V30 6000 H 567.509 1.51611 3.87711 0
M  V30 6001 H 568.042 2.82791 2.79775 0
M  V30 6002 H 564.781 5.81716 3.02136 0
M  V30 6003 H 564.301 4.43726 4.03568 0
M  V30 6004 H 565.98 5.03074 4.06848 0
M  V30 6005 N 566.112 -0.949982 1.2575 0
M  V30 6006 C 567.34 -1.72972 1.13527 0
M  V30 6007 C 567.755 -1.8623 -0.310453 0
M  V30 6008 O 567.112 -1.36336 -1.2132 0
M  V30 6009 C 567.163 -3.14108 1.78936 0
M  V30 6010 O 566.884 -3.01493 3.17858 0
M  V30 6011 C 568.385 -4.08338 1.72554 0
M  V30 6012 H 565.605 -0.541864 0.395758 0
M  V30 6013 H 568.149 -1.19151 1.66202 0
M  V30 6014 H 566.304 -3.64858 1.30221 0
M  V30 6015 H 566.718 -3.90559 3.50092 0
M  V30 6016 H 568.192 -5.04963 2.22973 0
M  V30 6017 H 568.669 -4.33742 0.690251 0
M  V30 6018 H 569.275 -3.63506 2.2078 0
M  V30 6019 N 567.59 -1.07411 -1.15328 0
M  V30 6020 C 568.867 -0.710732 -1.82231 0
M  V30 6021 C 569.247 0.806732 -1.95077 0
M  V30 6022 O 568.595 1.72139 -1.50268 0
M  V30 6023 C 568.805 -1.42586 -3.18544 0
M  V30 6024 C 570.153 -1.57836 -3.94174 0
M  V30 6025 O 571.177 -1.38669 -3.281 0
M  V30 6026 O 570.036 -1.8938 -5.12638 0
M  V30 6027 H 567.13 -0.25297 -0.78736 0
M  V30 6028 H 569.676 -1.17508 -1.22434 0
M  V30 6029 H 568.448 -2.46008 -3.04296 0
M  V30 6030 H 568.071 -0.952332 -3.86026 0
M  V30 6031 N 569.068 1.32177 -0.85831 0
M  V30 6032 C 569.998 2.31282 -0.321041 0
M  V30 6033 C 570.979 1.59841 0.581786 0
M  V30 6034 O 572.164 1.87619 0.501262 0
M  V30 6035 C 569.294 3.4385 0.48832 0
M  V30 6036 C 568.248 4.26799 -0.320391 0
M  V30 6037 C 567.574 5.31164 0.613934 0
M  V30 6038 C 568.874 4.98829 -1.54813 0
M  V30 6039 H 570.568 2.76469 -1.14915 0
M  V30 6040 H 568.114 1.32916 -0.554028 0
M  V30 6041 H 570.067 4.12224 0.874626 0
M  V30 6042 H 568.791 2.97401 1.34983 0
M  V30 6043 H 567.45 3.60077 -0.688497 0
M  V30 6044 H 567.098 4.80967 1.47239 0
M  V30 6045 H 566.798 5.8755 0.0768097 0
M  V30 6046 H 568.322 6.024 0.997336 0
M  V30 6047 H 569.736 5.59864 -1.23392 0
M  V30 6048 H 568.133 5.64957 -2.02346 0
M  V30 6049 H 569.203 4.26483 -2.30739 0
M  V30 6050 N 570.547 0.616602 1.45037 0
M  V30 6051 C 571.963 0.280994 1.57107 0
M  V30 6052 C 572.163 -1.21627 1.60653 0
M  V30 6053 O 571.219 -1.9997 1.54169 0
M  V30 6054 C 572.532 0.960116 2.8496 0
M  V30 6055 C 574.08 0.936884 2.98649 0
M  V30 6056 C 574.555 1.59619 4.29285 0
M  V30 6057 N 576.046 1.5621 4.36065 0
M  V30 6058 C 576.781 2.04131 5.35834 0
M  V30 6059 N 576.277 2.60177 6.4209 0
M  V30 6060 N 578.07 1.94845 5.27249 0
M  V30 6061 H 570.221 1.58867 1.40979 0
M  V30 6062 H 572.484 0.666024 0.674623 0
M  V30 6063 H 572.19 2.01473 2.88273 0
M  V30 6064 H 572.064 0.488921 3.74018 0
M  V30 6065 H 574.451 -0.109209 2.94898 0
M  V30 6066 H 574.532 1.44643 2.10979 0
M  V30 6067 H 574.176 2.64166 4.33796 0
M  V30 6068 H 574.106 1.06159 5.15789 0
M  V30 6069 H 576.597 1.15276 3.59889 0
M  V30 6070 H 576.91 2.94513 7.1448 0
M  V30 6071 H 575.255 2.64221 6.42816 0
M  V30 6072 H 578.446 1.50792 4.43147 0
M  V30 6073 H 578.619 2.32504 6.04852 0
M  V30 6074 N 572.025 -1.5352 0.356285 0
M  V30 6075 C 573.273 -2.00719 -0.235837 0
M  V30 6076 C 573.594 -1.24551 -1.5004 0
M  V30 6077 O 572.864 -0.356185 -1.92635 0
M  V30 6078 H 571.444 -0.741542 -0.0901366 0
M  V30 6079 H 574.106 -1.88887 0.480378 0
M  V30 6080 H 573.202 -3.08551 -0.469357 0
M  V30 6081 N 573.503 -0.0852151 -1.57369 0
M  V30 6082 C 574.752 0.580443 -1.93168 0
M  V30 6083 C 575.065 1.6995 -0.968319 0
M  V30 6084 O 576.271 2.42564 -1.21963 0
M  V30 6085 C 574.727 1.08386 -3.43192 0
M  V30 6086 C 574.335 -0.00491388 -4.48 0
M  V30 6087 C 576.079 1.72281 -3.87968 0
M  V30 6088 C 573.986 0.513299 -5.89168 0
M  V30 6089 H 572.916 0.22059 -0.72101 0
M  V30 6090 H 575.567 -0.159621 -1.82804 0
M  V30 6091 H 573.949 1.8773 -3.48674 0
M  V30 6092 H 575.123 -0.780032 -4.5415 0
M  V30 6093 H 573.438 -0.548453 -4.12772 0
M  V30 6094 H 576.035 2.12108 -4.9083 0
M  V30 6095 H 576.378 2.58811 -3.26071 0
M  V30 6096 H 576.911 0.995359 -3.85146 0
M  V30 6097 H 573.65 -0.315153 -6.54742 0
M  V30 6098 H 573.17 1.25564 -5.8651 0
M  V30 6099 H 574.849 0.985433 -6.39451 0
M  V30 6100 N 574.981 1.5647 0.188427 0
M  V30 6101 C 576.206 1.85486 0.927891 0
M  V30 6102 C 576.631 0.669575 1.75779 0
M  V30 6103 O 575.989 -0.381573 1.77239 0
M  V30 6104 C 576.037 3.12784 1.7944 0
M  V30 6105 O 575.141 2.93805 2.894 0
M  V30 6106 H 574.482 0.610585 0.260925 0
M  V30 6107 H 577.012 2.037 0.191729 0
M  V30 6108 H 577.022 3.43749 2.19774 0
M  V30 6109 H 575.697 3.98671 1.18468 0
M  V30 6110 H 574.274 2.74153 2.52774 0
M  V30 6111 N 576.459 -0.456382 1.50847 0
M  V30 6112 C 577.687 -1.23026 1.66349 0
M  V30 6113 C 578.102 -1.85473 0.352868 0
M  V30 6114 O 577.459 -1.69885 -0.666739 0
M  V30 6115 C 577.51 -2.32827 2.76539 0
M  V30 6116 O 577.231 -1.72938 4.02522 0
M  V30 6117 C 578.732 -3.23448 3.03144 0
M  V30 6118 H 575.952 -0.371527 0.558756 0
M  V30 6119 H 578.496 -0.543082 1.97157 0
M  V30 6120 H 576.651 -2.97294 2.48384 0
M  V30 6121 H 577.065 -2.45357 4.63573 0
M  V30 6122 H 578.539 -3.96669 3.83872 0
M  V30 6123 H 579.016 -3.83094 2.14793 0
M  V30 6124 H 579.622 -2.64702 3.32886 0
M  V30 6125 N 577.937 -1.40673 -0.710563 0
M  V30 6126 C 578.884 -1.41336 -1.82463 0
M  V30 6127 C 579.854 -0.269648 -1.63897 0
M  V30 6128 O 581.039 -0.468463 -1.8496 0
M  V30 6129 C 578.179 -1.28665 -3.20218 0
M  V30 6130 C 577.292 -2.52784 -3.5032 0
M  V30 6131 C 576.427 -2.32517 -4.77608 0
M  V30 6132 C 575.466 -3.52187 -5.0063 0
M  V30 6133 N 574.603 -3.31084 -6.19135 0
M  V30 6134 H 579.443 -2.36558 -1.8123 0
M  V30 6135 H 576.98 -1.17483 -0.885226 0
M  V30 6136 H 578.938 -1.19324 -3.99772 0
M  V30 6137 H 577.568 -0.370602 -3.20666 0
M  V30 6138 H 576.62 -2.72634 -2.65283 0
M  V30 6139 H 577.932 -3.41845 -3.63241 0
M  V30 6140 H 577.086 -2.20558 -5.65189 0
M  V30 6141 H 575.825 -1.40889 -4.66906 0
M  V30 6142 H 574.83 -3.64617 -4.11502 0
M  V30 6143 H 576.055 -4.44749 -5.13201 0
M  V30 6144 H 574.001 -2.42143 -6.09674 0
M  V30 6145 H 573.918 -4.13713 -6.32754 0
M  V30 6146 H 575.186 -3.22868 -7.0949 0
M  V30 6147 N 579.415 0.9433 -1.26252 0
M  V30 6148 C 580.663 1.68592 -1.11451 0
M  V30 6149 C 580.984 1.91957 0.343123 0
M  V30 6150 O 580.254 1.51475 1.24226 0
M  V30 6151 H 578.834 0.624789 -0.409448 0
M  V30 6152 H 581.496 1.13351 -1.58548 0
M  V30 6153 H 580.592 2.66054 -1.63162 0
M  V30 6154 N 580.893 1.08022 1.14757 0
M  V30 6155 C 581.856 0.71048 2.1791 0
M  V30 6156 C 582.856 -0.252731 1.58801 0
M  V30 6157 O 584.046 -0.0327915 1.74169 0
M  V30 6158 C 581.178 0.0483203 3.40866 0
M  V30 6159 H 582.371 1.62384 2.52134 0
M  V30 6160 H 579.924 0.877595 1.29337 0
M  V30 6161 H 580.659 -0.876959 3.12218 0
M  V30 6162 H 580.444 0.741189 3.85031 0
M  V30 6163 H 581.934 -0.195471 4.17142 0
M  V30 6164 N 582.371 -1.3172 0.865308 0
M  V30 6165 C 583.281 -2.32394 0.320935 0
M  V30 6166 C 584.297 -1.64511 -0.566746 0
M  V30 6167 O 585.473 -1.95969 -0.464575 0
M  V30 6168 C 582.538 -3.43462 -0.472701 0
M  V30 6169 C 581.599 -4.27015 0.442385 0
M  V30 6170 C 580.832 -5.32779 -0.313469 0
M  V30 6171 O 581.055 -5.49158 -1.54214 0
M  V30 6172 O 579.989 -6.01015 0.326257 0
M  V30 6173 H 583.815 -2.80868 1.15528 0
M  V30 6174 H 581.4 -1.35535 0.628545 0
M  V30 6175 H 583.282 -4.11172 -0.922781 0
M  V30 6176 H 581.957 -2.97159 -1.28367 0
M  V30 6177 H 580.864 -3.62075 0.940866 0
M  V30 6178 H 582.197 -4.76871 1.21882 0
M  V30 6179 N 583.85 -0.624285 -1.44708 0
M  V30 6180 C 585.266 -0.289322 -1.56956 0
M  V30 6181 C 585.466 1.20773 -1.61295 0
M  V30 6182 O 584.522 1.9915 -1.55227 0
M  V30 6183 C 585.835 -0.975215 -2.84447 0
M  V30 6184 C 587.383 -0.952709 -2.98148 0
M  V30 6185 C 587.858 -1.61893 -4.28433 0
M  V30 6186 N 589.349 -1.5852 -4.35231 0
M  V30 6187 C 590.084 -2.06969 -5.34744 0
M  V30 6188 N 589.58 -2.63579 -6.40701 0
M  V30 6189 N 591.373 -1.97638 -5.26209 0
M  V30 6190 H 583.524 -1.59612 -1.40135 0
M  V30 6191 H 585.787 -0.669592 -0.671081 0
M  V30 6192 H 585.493 -2.02999 -2.87201 0
M  V30 6193 H 585.367 -0.508749 -3.73753 0
M  V30 6194 H 587.754 0.093568 -2.94952 0
M  V30 6195 H 587.835 -1.4576 -2.10209 0
M  V30 6196 H 587.479 -2.66463 -4.32389 0
M  V30 6197 H 587.409 -1.08893 -5.15218 0
M  V30 6198 H 589.899 -1.17183 -3.59272 0
M  V30 6199 H 590.213 -2.98298 -7.12908 0
M  V30 6200 H 588.558 -2.67626 -6.41406 0
M  V30 6201 H 591.749 -1.5314 -4.42341 0
M  V30 6202 H 591.922 -2.35708 -6.03611 0
M  V30 6203 N 585.328 1.53329 -0.364422 0
M  V30 6204 C 586.291 2.24323 0.470292 0
M  V30 6205 C 587.291 1.25068 1.01067 0
M  V30 6206 O 588.481 1.49354 0.896605 0
M  V30 6207 C 585.613 2.97908 1.65722 0
M  V30 6208 H 586.806 2.9952 -0.150917 0
M  V30 6209 H 584.359 1.55868 -0.116092 0
M  V30 6210 H 585.094 2.2695 2.31655 0
M  V30 6211 H 584.879 3.70732 1.27671 0
M  V30 6212 H 586.369 3.5188 2.24878 0
M  V30 6213 N 586.806 0.0935595 1.57322 0
M  V30 6214 C 588.055 -0.570191 1.93473 0
M  V30 6215 C 588.368 -1.69434 0.977318 0
M  V30 6216 O 589.574 -2.41914 1.23248 0
M  V30 6217 C 588.03 -1.06564 3.43762 0
M  V30 6218 C 587.638 0.0286723 4.47991 0
M  V30 6219 C 589.382 -1.70221 3.88877 0
M  V30 6220 C 587.289 -0.482046 5.89432 0
M  V30 6221 H 586.219 -0.216764 0.72217 0
M  V30 6222 H 588.87 0.169313 1.82717 0
M  V30 6223 H 587.252 -1.85878 3.49664 0
M  V30 6224 H 588.426 0.804106 4.5373 0
M  V30 6225 H 586.741 0.570336 4.12476 0
M  V30 6226 H 589.338 -2.09502 4.91948 0
M  V30 6227 H 589.681 -2.57078 3.27439 0
M  V30 6228 H 590.214 -0.974919 3.85668 0
M  V30 6229 H 586.953 0.349871 6.54566 0
M  V30 6230 H 586.473 -1.22452 5.87167 0
M  V30 6231 H 588.152 -0.951508 6.39965 0
M  V30 6232 N 588.284 -1.56567 -0.180126 0
M  V30 6233 C 589.512 -1.85618 -0.913972 0
M  V30 6234 C 589.927 -0.677892 -1.7621 0
M  V30 6235 O 589.284 0.353171 -1.7905 0
M  V30 6236 C 589.335 -3.13619 -1.79793 0
M  V30 6237 O 589.056 -4.26906 -0.98402 0
M  V30 6238 C 590.557 -3.55954 -2.64219 0
M  V30 6239 H 587.777 -0.616043 -0.265954 0
M  V30 6240 H 590.321 -2.03681 -0.182872 0
M  V30 6241 H 588.476 -2.97409 -2.48247 0
M  V30 6242 H 588.89 -4.9989 -1.58776 0
M  V30 6243 H 590.364 -4.48444 -3.21873 0
M  V30 6244 H 590.841 -2.79653 -3.38661 0
M  V30 6245 H 591.447 -3.74746 -2.01111 0
M  V30 6246 N 589.762 0.448376 -1.51087 0
M  V30 6247 C 590.692 1.55102 -1.74544 0
M  V30 6248 C 591.673 1.59357 -0.594932 0
M  V30 6249 O 592.858 1.75261 -0.836491 0
M  V30 6250 C 589.988 2.93268 -1.86041 0
M  V30 6251 C 588.942 3.03877 -3.01402 0
M  V30 6252 C 588.268 4.43914 -2.98068 0
M  V30 6253 C 589.568 2.7898 -4.41551 0
M  V30 6254 H 591.262 1.35724 -2.66869 0
M  V30 6255 H 588.808 0.651498 -1.28419 0
M  V30 6256 H 590.761 3.70356 -2.01034 0
M  V30 6257 H 589.485 3.13853 -0.903548 0
M  V30 6258 H 588.144 2.29227 -2.86096 0
M  V30 6259 H 587.792 4.6145 -2.00182 0
M  V30 6260 H 587.492 4.51944 -3.75527 0
M  V30 6261 H 589.016 5.22991 -3.1514 0
M  V30 6262 H 590.43 3.45805 -4.57265 0
M  V30 6263 H 588.827 2.98431 -5.20633 0
M  V30 6264 H 589.897 1.74663 -4.5235 0
M  V30 6265 N 591.24 1.41047 0.703093 0
M  V30 6266 C 592.187 1.42302 1.81711 0
M  V30 6267 C 593.157 0.278336 1.63751 0
M  V30 6268 O 594.342 0.478266 1.84709 0
M  V30 6269 C 591.482 1.30362 3.19531 0
M  V30 6270 C 590.595 2.54638 3.48975 0
M  V30 6271 C 589.73 2.35047 4.76368 0
M  V30 6272 C 588.769 3.54837 4.98756 0
M  V30 6273 N 587.906 3.34363 6.1737 0
M  V30 6274 H 592.746 2.37516 1.79973 0
M  V30 6275 H 590.283 1.1795 0.878983 0
M  V30 6276 H 592.241 1.21443 3.99134 0
M  V30 6277 H 590.871 0.387602 3.20464 0
M  V30 6278 H 589.923 2.74037 2.63833 0
M  V30 6279 H 591.235 3.43766 3.61423 0
M  V30 6280 H 590.389 2.23552 5.64012 0
M  V30 6281 H 589.128 1.43363 4.66153 0
M  V30 6282 H 588.133 3.66795 4.09563 0
M  V30 6283 H 589.358 4.47464 5.10835 0
M  V30 6284 H 587.304 2.45373 6.08382 0
M  V30 6285 H 587.221 4.17063 6.30551 0
M  V30 6286 H 588.489 3.26626 7.07768 0
M  V30 6287 N 592.718 -0.936591 1.26751 0
M  V30 6288 C 593.651 -2.03619 1.03027 0
M  V30 6289 C 594.629 -1.62534 -0.0464619 0
M  V30 6290 O 595.813 -1.88251 0.0968873 0
M  V30 6291 C 592.94 -3.3402 0.561072 0
M  V30 6292 C 591.986 -3.9408 1.63105 0
M  V30 6293 S 592.819 -4.27782 3.22122 0
M  V30 6294 C 593.975 -5.61277 2.76982 0
M  V30 6295 H 594.208 -2.23429 1.96129 0
M  V30 6296 H 591.741 -1.07857 1.10482 0
M  V30 6297 H 593.699 -4.09424 0.297031 0
M  V30 6298 H 592.36 -3.12147 -0.349741 0
M  V30 6299 H 591.553 -4.88154 1.25386 0
M  V30 6300 H 591.155 -3.25227 1.84671 0
M  V30 6301 H 593.447 -6.40189 2.21731 0
M  V30 6302 H 594.39 -6.03887 3.69766 0
M  V30 6303 H 594.798 -5.21374 2.16402 0
M  V30 6304 N 594.196 -1.08629 -1.14182 0
M  V30 6305 C 595.106 -0.730126 -2.22949 0
M  V30 6306 C 596.122 0.26436 -1.7198 0
M  V30 6307 O 597.298 0.107742 -2.01112 0
M  V30 6308 C 594.363 -0.147227 -3.46387 0
M  V30 6309 C 593.424 -1.19662 -4.12286 0
M  V30 6310 C 592.657 -0.641437 -5.29831 0
M  V30 6311 O 592.88 0.538351 -5.67854 0
M  V30 6312 O 591.814 -1.39257 -5.85569 0
M  V30 6313 H 595.64 -1.63753 -2.55771 0
M  V30 6314 H 593.225 -0.860118 -1.22157 0
M  V30 6315 H 595.107 0.174923 -4.21037 0
M  V30 6316 H 593.782 0.733304 -3.15285 0
M  V30 6317 H 592.689 -1.57133 -3.395 0
M  V30 6318 H 594.022 -2.0495 -4.475 0
M  V30 6319 N 595.674 1.31259 -0.872281 0
M  V30 6320 C 596.923 1.95893 -0.480493 0
M  V30 6321 C 597.236 1.697 0.972688 0
M  V30 6322 O 598.442 2.28214 1.47073 0
M  V30 6323 C 596.898 3.50705 -0.808342 0
M  V30 6324 C 596.506 3.85735 -2.27844 0
M  V30 6325 C 598.25 4.21719 -0.485136 0
M  V30 6326 C 596.157 5.33668 -2.54858 0
M  V30 6327 H 595.087 0.733182 -0.175955 0
M  V30 6328 H 597.738 1.49396 -1.0655 0
M  V30 6329 H 596.12 3.95706 -0.152558 0
M  V30 6330 H 597.294 3.51686 -2.97748 0
M  V30 6331 H 595.609 3.27792 -2.56791 0
M  V30 6332 H 598.206 5.30559 -0.664166 0
M  V30 6333 H 598.549 4.12316 0.574592 0
M  V30 6334 H 599.082 3.82359 -1.09756 0
M  V30 6335 H 595.821 5.48109 -3.59523 0
M  V30 6336 H 595.341 5.69061 -1.8955 0
M  V30 6337 H 597.02 6.00958 -2.39706 0
M  V30 6338 N 597.152 0.631951 1.44375 0
M  V30 6339 C 598.563 0.219036 1.85411 0
M  V30 6340 C 598.914 -1.22974 1.52879 0
M  V30 6341 O 598.039 -1.93579 0.967266 0
M  V30 6342 C 598.634 0.39075 3.36539 0
M  V30 6343 C 597.193 0.0323351 3.76386 0
M  V30 6344 C 596.34 0.703744 2.68221 0
M  V30 6345 H 599.291 0.837056 1.3483 0
M  V30 6346 H 599.312 -0.370056 3.78696 0
M  V30 6347 H 598.824 1.44527 3.60185 0
M  V30 6348 H 596.925 -1.02042 3.58355 0
M  V30 6349 H 597.038 0.442969 4.77048 0
M  V30 6350 H 595.402 0.138974 2.54321 0
M  V30 6351 H 596.185 1.76088 2.947 0
M  V30 6352 N 598.631 -1.53133 0.372548 0
M  V30 6353 C 599.879 -2.00958 -0.214534 0
M  V30 6354 C 600.2 -1.26135 -1.48711 0
M  V30 6355 O 599.47 -0.376597 -1.92246 0
M  V30 6356 H 598.05 -0.742456 -0.0822664 0
M  V30 6357 H 600.712 -1.88367 0.500385 0
M  V30 6358 H 599.808 -3.09031 -0.436605 0
M  V30 6359 N 600.109 -0.101901 -1.5727 0
M  V30 6360 C 601.52 0.426173 -1.81771 0
M  V30 6361 C 601.871 1.67725 -1.01797 0
M  V30 6362 O 600.996 2.14958 -0.249386 0
M  V30 6363 C 601.591 0.779962 -3.297 0
M  V30 6364 C 600.15 1.25275 -3.54941 0
M  V30 6365 C 599.297 0.252814 -2.76145 0
M  V30 6366 H 602.248 -0.32726 -1.55289 0
M  V30 6367 H 602.269 1.63891 -3.43395 0
M  V30 6368 H 601.781 -0.130778 -3.8788 0
M  V30 6369 H 599.882 2.18097 -3.021 0
M  V30 6370 H 599.995 1.20988 -4.63572 0
M  V30 6371 H 598.359 0.736362 -2.43823 0
M  V30 6372 H 599.142 -0.650724 -3.37076 0
M  V30 6373 N 601.587 1.56661 0.17182 0
M  V30 6374 C 602.52 1.91474 1.24149 0
M  V30 6375 C 603.498 0.777485 1.42807 0
M  V30 6376 O 604.682 1.03075 1.57822 0
M  V30 6377 C 601.809 2.16523 2.60453 0
M  V30 6378 C 600.855 3.39209 2.58533 0
M  V30 6379 S 601.688 4.93594 2.07665 0
M  V30 6380 C 602.844 5.21737 3.45747 0
M  V30 6381 H 603.077 2.81903 0.944346 0
M  V30 6382 H 600.61 1.49743 0.376364 0
M  V30 6383 H 602.568 2.31635 3.38903 0
M  V30 6384 H 601.229 1.26802 2.87368 0
M  V30 6385 H 600.422 3.53935 3.58812 0
M  V30 6386 H 600.024 3.2321 1.88178 0
M  V30 6387 H 602.316 5.13684 4.41741 0
M  V30 6388 H 603.259 6.23361 3.35896 0
M  V30 6389 H 603.667 4.49307 3.41736 0
M  V30 6390 N 603.065 -0.440357 1.51323 0
M  V30 6391 C 604.476 -1.02032 1.56353 0
M  V30 6392 C 604.827 -1.92382 0.385197 0
M  V30 6393 O 603.952 -2.10583 -0.498373 0
M  V30 6394 C 604.547 -1.85723 2.83359 0
M  V30 6395 C 603.106 -2.38774 2.90971 0
M  V30 6396 C 602.253 -1.17908 2.50984 0
M  V30 6397 H 605.204 -0.221744 1.57143 0
M  V30 6398 H 605.225 -2.71141 2.66951 0
M  V30 6399 H 604.737 -1.19939 3.69102 0
M  V30 6400 H 602.838 -3.08021 2.09651 0
M  V30 6401 H 602.951 -2.71778 3.94555 0
M  V30 6402 H 601.315 -1.52347 2.04114 0
M  V30 6403 H 602.098 -0.537393 3.39068 0
M  V30 6404 N 604.543 -1.41418 -0.695603 0
M  V30 6405 C 605.954 -1.36335 -1.27552 0
M  V30 6406 C 606.305 -0.0464336 -1.96145 0
M  V30 6407 O 605.43 0.855304 -1.9878 0
M  V30 6408 C 606.025 -2.46941 -2.3196 0
M  V30 6409 C 604.584 -2.45256 -2.85529 0
M  V30 6410 C 603.731 -2.2679 -1.59566 0
M  V30 6411 H 606.682 -1.50934 -0.490362 0
M  V30 6412 H 606.703 -2.15997 -3.1325 0
M  V30 6413 H 606.215 -3.42775 -1.82008 0
M  V30 6414 H 604.316 -1.53179 -3.39657 0
M  V30 6415 H 604.429 -3.41565 -3.35961 0
M  V30 6416 H 602.793 -1.74667 -1.85374 0
M  V30 6417 H 603.576 -3.24651 -1.1161 0
M  V30 6418 N 606.021 0.929856 -1.27246 0
M  V30 6419 C 606.951 2.04722 -1.12299 0
M  V30 6420 C 607.932 1.70082 -0.0250464 0
M  V30 6421 O 609.117 1.93176 -0.199141 0
M  V30 6422 C 606.247 3.38721 -0.767145 0
M  V30 6423 C 605.201 3.87466 -1.81808 0
M  V30 6424 C 604.527 5.18246 -1.31626 0
M  V30 6425 C 605.827 4.11095 -3.22177 0
M  V30 6426 H 607.521 2.17485 -2.05769 0
M  V30 6427 H 605.067 1.04503 -0.990715 0
M  V30 6428 H 607.02 4.16366 -0.649413 0
M  V30 6429 H 605.744 3.25967 0.203259 0
M  V30 6430 H 604.403 3.12012 -1.92468 0
M  V30 6431 H 604.051 5.01881 -0.335378 0
M  V30 6432 H 603.751 5.51829 -2.01887 0
M  V30 6433 H 605.275 5.98462 -1.21143 0
M  V30 6434 H 606.689 4.79316 -3.1453 0
M  V30 6435 H 605.086 4.55982 -3.90129 0
M  V30 6436 H 606.156 3.16468 -3.67391 0
M  V30 6437 N 607.499 1.09233 1.13605 0
M  V30 6438 C 608.748 0.82205 1.84188 0
M  V30 6439 C 609.061 -0.654548 1.84323 0
M  V30 6440 O 610.267 -1.04029 2.50779 0
M  V30 6441 C 608.723 1.42066 3.30674 0
M  V30 6442 C 608.331 2.92965 3.38933 0
M  V30 6443 C 610.075 1.22924 4.06313 0
M  V30 6444 C 607.982 3.45922 4.79679 0
M  V30 6445 H 606.912 0.303854 0.690064 0
M  V30 6446 H 609.563 1.31479 1.28006 0
M  V30 6447 H 607.945 0.855613 3.86646 0
M  V30 6448 H 609.119 3.55679 2.92966 0
M  V30 6449 H 607.434 3.11118 2.76757 0
M  V30 6450 H 610.031 1.59945 5.10217 0
M  V30 6451 H 610.374 0.169726 4.15954 0
M  V30 6452 H 610.907 1.76168 3.56665 0
M  V30 6453 H 607.646 4.51484 4.75229 0
M  V30 6454 H 607.166 2.87971 5.26149 0
M  V30 6455 H 608.845 3.43009 5.48592 0
M  V30 6456 N 608.977 -1.30795 0.87923 0
M  V30 6457 C 610.393 -1.48981 0.57243 0
M  V30 6458 C 610.593 -1.80719 -0.891236 0
M  V30 6459 O 609.649 -1.89136 -1.67283 0
M  V30 6460 C 610.962 -2.61721 1.48063 0
M  V30 6461 C 612.51 -2.75603 1.48365 0
M  V30 6462 C 612.985 -3.91449 2.37763 0
M  V30 6463 N 614.476 -3.98751 2.35695 0
M  V30 6464 C 615.211 -4.87684 3.01583 0
M  V30 6465 N 614.707 -5.81454 3.76674 0
M  V30 6466 N 616.5 -4.81005 2.90844 0
M  V30 6467 H 608.651 -1.08465 1.82617 0
M  V30 6468 H 610.914 -0.536813 0.781368 0
M  V30 6469 H 610.62 -2.45073 2.52254 0
M  V30 6470 H 610.494 -3.58071 1.18596 0
M  V30 6471 H 612.881 -2.9166 0.44927 0
M  V30 6472 H 612.962 -1.79891 1.81859 0
M  V30 6473 H 612.606 -3.76149 3.41283 0
M  V30 6474 H 612.536 -4.86487 2.01589 0
M  V30 6475 H 615.027 -3.31668 1.81121 0
M  V30 6476 H 615.34 -6.46063 4.24054 0
M  V30 6477 H 613.685 -5.81403 3.80782 0
M  V30 6478 H 616.876 -4.06728 2.31711 0
M  V30 6479 H 617.049 -5.50107 3.42471 0
M  V30 6480 N 610.455 -0.639598 -1.44038 0
M  V30 6481 C 611.365 0.0612377 -2.3452 0
M  V30 6482 C 612.381 0.826717 -1.53106 0
M  V30 6483 O 613.557 0.777059 -1.85806 0
M  V30 6484 C 610.622 1.02492 -3.31204 0
M  V30 6485 C 609.683 0.25788 -4.28525 0
M  V30 6486 C 608.916 1.17566 -5.2059 0
M  V30 6487 O 609.139 2.41461 -5.16771 0
M  V30 6488 O 608.073 0.655407 -5.98321 0
M  V30 6489 H 611.899 -0.68318 -2.95916 0
M  V30 6490 H 609.484 -0.399784 -1.43952 0
M  V30 6491 H 611.366 1.57911 -3.90694 0
M  V30 6492 H 610.041 1.7498 -2.7233 0
M  V30 6493 H 608.948 -0.339566 -3.72556 0
M  V30 6494 H 610.281 -0.427154 -4.90343 0
M  V30 6495 N 611.933 1.52934 -0.380664 0
M  V30 6496 C 612.866 2.22597 0.502564 0
M  V30 6497 C 613.844 1.22345 1.071 0
M  V30 6498 O 615.028 1.51302 1.12428 0
M  V30 6499 C 612.155 2.93246 1.69482 0
M  V30 6500 C 611.201 4.07696 1.25244 0
M  V30 6501 S 612.034 5.34957 0.241159 0
M  V30 6502 C 613.19 6.09124 1.4394 0
M  V30 6503 H 613.423 2.97167 -0.089029 0
M  V30 6504 H 610.956 1.53518 -0.164817 0
M  V30 6505 H 612.914 3.34562 2.37863 0
M  V30 6506 H 611.575 2.18373 2.2577 0
M  V30 6507 H 610.768 4.56199 2.1424 0
M  V30 6508 H 610.37 3.68349 0.647664 0
M  V30 6509 H 612.662 6.34771 2.36794 0
M  V30 6510 H 613.605 7.01068 0.995464 0
M  V30 6511 H 614.013 5.39777 1.65229 0
M  V30 6512 N 613.412 0.11024 1.57214 0
M  V30 6513 C 614.342 -0.840002 2.17867 0
M  V30 6514 C 615.323 -1.28352 1.11624 0
M  V30 6515 O 616.508 -1.3477 1.39824 0
M  V30 6516 C 613.638 -2.09349 2.77111 0
M  V30 6517 C 612.592 -1.78807 3.8886 0
M  V30 6518 C 611.918 -3.11112 4.34872 0
M  V30 6519 C 613.218 -1.0632 5.11364 0
M  V30 6520 H 614.912 -0.334608 2.97524 0
M  V30 6521 H 612.458 -0.159502 1.43114 0
M  V30 6522 H 614.411 -2.76275 3.18198 0
M  V30 6523 H 613.135 -2.62198 1.9473 0
M  V30 6524 H 611.794 -1.14273 3.48335 0
M  V30 6525 H 611.442 -3.61877 3.49362 0
M  V30 6526 H 611.142 -2.91453 5.10224 0
M  V30 6527 H 612.666 -3.79171 4.78604 0
M  V30 6528 H 614.08 -1.63383 5.49526 0
M  V30 6529 H 612.477 -0.967876 5.92243 0
M  V30 6530 H 613.547 -0.0484569 4.84876 0
M  V30 6531 N 614.89 -1.56749 -0.16351 0
M  V30 6532 C 615.8 -2.00255 -1.2221 0
M  V30 6533 C 616.816 -0.915194 -1.47987 0
M  V30 6534 O 617.992 -1.22342 -1.59982 0
M  V30 6535 C 615.057 -2.36035 -2.53946 0
M  V30 6536 C 614.118 -3.58637 -2.35962 0
M  V30 6537 C 613.351 -3.92701 -3.61416 0
M  V30 6538 O 613.574 -3.27632 -4.66919 0
M  V30 6539 O 612.508 -4.86019 -3.55062 0
M  V30 6540 H 616.334 -2.90586 -0.882794 0
M  V30 6541 H 613.919 -1.44721 -0.370978 0
M  V30 6542 H 615.801 -2.59982 -3.31643 0
M  V30 6543 H 614.476 -1.48863 -2.8744 0
M  V30 6544 H 613.383 -3.39898 -1.5627 0
M  V30 6545 H 614.716 -4.46374 -2.0739 0
M  V30 6546 N 616.368 0.432326 -1.51554 0
M  V30 6547 C 617.316 1.54572 -1.73811 0
M  V30 6548 C 618.31 1.58246 -0.604539 0
M  V30 6549 O 619.516 1.6193 -0.786041 0
M  V30 6550 H 615.891 0.513626 -0.549265 0
M  V30 6551 H 617.862 1.32977 -2.67132 0
M  V30 6552 C 616.611 2.92181 -1.88483 0
M  V30 6553 H 615.934 2.90088 -2.75116 0
M  V30 6554 H 617.374 3.69439 -2.08065 0
M  V30 6555 C 615.833 3.3065 -0.645909 0
M  V30 6556 O 616.363 4.01216 0.197093 0
M  V30 6557 N 614.569 2.86464 -0.488538 0
M  V30 6558 H 614.116 2.29209 -1.17562 0
M  V30 6559 H 614.074 3.12565 0.339156 0
M  V30 6560 N 617.846 1.41785 0.688094 0
M  V30 6561 C 619.257 1.3701 1.26828 0
M  V30 6562 C 619.608 0.056835 1.96118 0
M  V30 6563 O 618.733 -0.84475 1.99231 0
M  V30 6564 C 619.328 2.48168 2.30648 0
M  V30 6565 C 617.887 2.46766 2.84224 0
M  V30 6566 C 617.034 2.27633 1.58361 0
M  V30 6567 H 619.985 1.51192 0.482351 0
M  V30 6568 H 620.006 2.17655 3.121 0
M  V30 6569 H 619.518 3.43735 1.80188 0
M  V30 6570 H 617.619 1.54978 3.3884 0
M  V30 6571 H 617.732 3.43342 3.34145 0
M  V30 6572 H 616.096 1.75648 1.84445 0
M  V30 6573 H 616.879 3.25238 1.09887 0
M  V30 6574 N 619.324 -0.923095 1.27737 0
M  V30 6575 C 620.234 -2.05765 1.12685 0
M  V30 6576 C 621.25 -1.73911 0.0557197 0
M  V30 6577 O 622.426 -1.99674 0.263137 0
M  V30 6578 C 619.491 -3.37804 0.780363 0
M  V30 6579 C 618.552 -3.83326 1.93286 0
M  V30 6580 C 617.785 -5.09064 1.60281 0
M  V30 6581 O 618.008 -5.6809 0.512828 0
M  V30 6582 O 616.942 -5.50071 2.44347 0
M  V30 6583 H 620.768 -2.21378 2.07907 0
M  V30 6584 H 618.353 -1.04299 1.06968 0
M  V30 6585 H 620.235 -4.17097 0.600668 0
M  V30 6586 H 618.91 -3.23387 -0.142291 0
M  V30 6587 H 617.817 -3.049 2.16764 0
M  V30 6588 H 619.15 -4.02292 2.83588 0
M  V30 6589 N 620.802 -1.09834 -1.13024 0
M  V30 6590 C 621.735 -0.685453 -2.17662 0
M  V30 6591 C 622.713 0.310142 -1.59615 0
M  V30 6592 O 623.897 0.21052 -1.87321 0
M  V30 6593 C 621.024 -0.0104476 -3.38698 0
M  V30 6594 C 620.07 -0.968522 -4.15358 0
M  V30 6595 S 620.903 -2.48272 -4.74469 0
M  V30 6596 C 622.059 -1.82025 -5.98847 0
M  V30 6597 H 622.292 -1.57187 -2.52348 0
M  V30 6598 H 619.825 -0.914728 -1.24387 0
M  V30 6599 H 621.783 0.372694 -4.08805 0
M  V30 6600 H 620.444 0.852673 -3.02305 0
M  V30 6601 H 619.637 -0.443373 -5.02046 0
M  V30 6602 H 619.239 -1.29327 -3.50928 0
M  V30 6603 H 621.531 -1.14678 -6.67724 0
M  V30 6604 H 622.474 -2.66645 -6.55977 0
M  V30 6605 H 622.882 -1.2874 -5.49624 0
M  V30 6606 N 622.28 1.30327 -0.886154 0
M  V30 6607 C 623.527 1.96097 -0.505192 0
M  V30 6608 C 623.855 1.69952 0.945868 0
M  V30 6609 O 623.11 0.997653 1.68361 0
M  V30 6610 C 623.409 3.49906 -0.728042 0
M  V30 6611 C 623.075 3.96103 -2.15437 0
M  V30 6612 C 621.737 4.08428 -2.5444 0
M  V30 6613 C 624.089 4.20177 -3.08384 0
M  V30 6614 C 621.417 4.42189 -3.85598 0
M  V30 6615 C 623.769 4.55407 -4.39075 0
M  V30 6616 C 622.433 4.65941 -4.7797 0
M  V30 6617 H 621.703 0.71757 -0.184863 0
M  V30 6618 H 624.35 1.55171 -1.12223 0
M  V30 6619 H 622.655 3.9179 -0.027978 0
M  V30 6620 H 624.352 3.98869 -0.412862 0
M  V30 6621 H 620.942 3.87017 -1.84162 0
M  V30 6622 H 625.126 4.10134 -2.7947 0
M  V30 6623 H 620.382 4.48544 -4.15473 0
M  V30 6624 H 624.556 4.72986 -5.11133 0
M  V30 6625 H 622.183 4.91856 -5.79639 0
M  V30 6626 N 623.758 0.647228 1.43697 0
M  V30 6627 C 624.668 -0.0487997 2.34549 0
M  V30 6628 C 625.684 -0.818586 1.53542 0
M  V30 6629 O 626.86 -0.767195 1.86215 0
M  V30 6630 C 623.925 -1.00734 3.31743 0
M  V30 6631 C 622.986 -0.23515 4.28655 0
M  V30 6632 C 622.219 -1.14803 5.21206 0
M  V30 6633 O 622.442 -2.38717 5.18045 0
M  V30 6634 O 621.376 -0.623667 5.9866 0
M  V30 6635 H 625.202 0.698863 2.9555 0
M  V30 6636 H 622.787 0.407412 1.43738 0
M  V30 6637 H 624.669 -1.55837 3.91526 0
M  V30 6638 H 623.344 -1.73534 2.73254 0
M  V30 6639 H 622.251 0.359319 3.7237 0
M  V30 6640 H 623.584 0.453152 4.9011 0
M  V30 6641 N 625.236 -1.5273 0.388769 0
M  V30 6642 C 626.513 -1.93981 -0.251133 0
M  V30 6643 C 626.893 -1.32418 -1.64404 0
M  V30 6644 O 626.241 -0.492074 -2.23139 0
M  V30 6645 C 626.451 -3.47891 -0.27802 0
M  V30 6646 C 627.799 -4.21559 -0.507229 0
M  V30 6647 O 628.823 -3.54394 -0.358252 0
M  V30 6648 O 627.682 -5.40626 -0.799094 0
M  V30 6649 H 624.776 -0.812157 -0.15598 0
M  V30 6650 H 627.322 -1.63809 0.443237 0
M  V30 6651 H 626.094 -3.8503 0.697669 0
M  V30 6652 H 625.717 -3.84364 -1.01733 0
M  V30 6653 N 626.714 -0.118576 -1.57153 0
M  V30 6654 C 627.991 0.583062 -1.86708 0
M  V30 6655 C 628.371 1.84841 -1.01967 0
M  V30 6656 O 627.719 2.28288 -0.0984673 0
M  V30 6657 C 627.929 0.875912 -3.3783 0
M  V30 6658 C 629.277 1.22916 -4.0642 0
M  V30 6659 O 630.301 0.966188 -3.42846 0
M  V30 6660 O 629.16 1.72269 -5.18638 0
M  V30 6661 H 626.254 0.294185 -0.772906 0
M  V30 6662 H 628.8 -0.153048 -1.69008 0
M  V30 6663 H 627.572 -0.0207776 -3.91294 0
M  V30 6664 H 627.195 1.66719 -3.60958 0
M  V30 6665 N 628.193 1.56834 0.155195 0
M  V30 6666 C 629.418 1.87412 0.888337 0
M  V30 6667 C 629.843 0.70671 1.74319 0
M  V30 6668 O 629.201 -0.343892 1.78009 0
M  V30 6669 C 629.249 3.1652 1.72765 0
M  V30 6670 O 628.353 2.99877 2.83103 0
M  V30 6671 H 627.694 0.615983 0.247914 0
M  V30 6672 H 630.224 2.04061 0.148478 0
M  V30 6673 H 630.234 3.48334 2.12433 0
M  V30 6674 H 628.909 4.01094 1.09985 0
M  V30 6675 H 627.486 2.79453 2.46902 0
M  V30 6676 N 629.671 -0.424282 1.51781 0
M  V30 6677 C 630.896 -1.19928 1.6921 0
M  V30 6678 C 631.321 -1.8392 0.394355 0
M  V30 6679 O 630.679 -1.69371 -0.646778 0
M  V30 6680 C 630.727 -2.24937 2.81843 0
M  V30 6681 O 629.831 -3.3073 2.46356 0
M  V30 6682 H 629.172 -0.35078 0.563781 0
M  V30 6683 H 631.702 -0.499401 1.98412 0
M  V30 6684 H 631.712 -2.69512 3.06312 0
M  V30 6685 H 630.387 -1.77742 3.76006 0
M  V30 6686 H 628.964 -2.9154 2.32505 0
M  V30 6687 N 631.149 -1.42148 -0.680565 0
M  V30 6688 C 632.081 -1.41119 -1.80605 0
M  V30 6689 C 633.094 -0.311099 -1.598 0
M  V30 6690 O 634.283 -0.573813 -1.69026 0
M  V30 6691 C 631.383 -1.18204 -3.17618 0
M  V30 6692 C 630.556 -2.40537 -3.65322 0
M  V30 6693 C 629.615 -2.13254 -4.8105 0
M  V30 6694 O 628.641 -2.8641 -4.91892 0
M  V30 6695 N 629.843 -1.13208 -5.69354 0
M  V30 6696 H 632.608 -2.38128 -1.81975 0
M  V30 6697 H 630.169 -1.36953 -0.863446 0
M  V30 6698 H 632.161 -0.97878 -3.92686 0
M  V30 6699 H 630.731 -0.29738 -3.11182 0
M  V30 6700 H 629.951 -2.76468 -2.80996 0
M  V30 6701 H 631.239 -3.22012 -3.93936 0
M  V30 6702 H 630.637 -0.526893 -5.63241 0
M  V30 6703 H 629.194 -0.988699 -6.44258 0
M  V30 6704 N 632.627 0.916307 -1.28225 0
M  V30 6705 C 634.038 1.48024 -1.13779 0
M  V30 6706 C 634.389 1.94289 0.273139 0
M  V30 6707 O 633.514 1.82226 1.16716 0
M  V30 6708 C 634.109 2.69029 -2.05935 0
M  V30 6709 C 632.668 3.2161 -1.95561 0
M  V30 6710 C 631.815 1.94321 -1.97825 0
M  V30 6711 H 634.766 0.729272 -1.40951 0
M  V30 6712 H 634.787 3.44204 -1.62184 0
M  V30 6713 H 634.299 2.35325 -3.08616 0
M  V30 6714 H 632.4 3.60045 -0.959076 0
M  V30 6715 H 632.513 3.87032 -2.82388 0
M  V30 6716 H 630.877 2.1131 -1.42198 0
M  V30 6717 H 631.66 1.62917 -3.0218 0
M  V30 6718 N 634.105 1.10431 1.1244 0
M  V30 6719 C 635.353 0.845045 1.83585 0
M  V30 6720 C 635.674 -0.631168 1.84503 0
M  V30 6721 O 634.944 -1.45825 1.30813 0
M  V30 6722 H 633.524 0.309628 0.679809 0
M  V30 6723 H 636.186 1.39458 1.36153 0
M  V30 6724 H 635.282 1.20786 2.8778 0
M  V30 6725 N 635.583 -1.29855 0.893053 0
M  V30 6726 C 636.994 -1.77946 0.564998 0
M  V30 6727 C 637.345 -1.73339 -0.919134 0
M  V30 6728 O 636.47 -1.3152 -1.71847 0
M  V30 6729 C 637.065 -3.23118 1.01883 0
M  V30 6730 C 635.624 -3.69013 0.742051 0
M  V30 6731 C 634.771 -2.50121 1.19727 0
M  V30 6732 H 637.722 -1.16611 1.07646 0
M  V30 6733 H 637.743 -3.78875 0.351249 0
M  V30 6734 H 637.255 -3.26439 2.09903 0
M  V30 6735 H 635.356 -3.71173 -0.325816 0
M  V30 6736 H 635.469 -4.60117 1.33527 0
M  V30 6737 H 633.833 -2.47128 0.616418 0
M  V30 6738 H 634.616 -2.56174 2.28538 0
M  V30 6739 N 637.061 -0.65484 -1.43351 0
M  V30 6740 C 638.011 0.0581325 -2.27926 0
M  V30 6741 C 638.995 0.793188 -1.3999 0
M  V30 6742 O 640.187 0.675387 -1.63608 0
M  V30 6743 C 637.316 1.02272 -3.27712 0
M  V30 6744 C 636.402 0.286048 -4.23134 0
M  V30 6745 N 636.793 -0.698298 -5.00957 0
M  V30 6746 C 635.091 0.527272 -4.42872 0
M  V30 6747 C 635.792 -1.1357 -5.70506 0
M  V30 6748 N 634.768 -0.469631 -5.41568 0
M  V30 6749 H 638.57 -0.697182 -2.85511 0
M  V30 6750 H 636.084 -0.482252 -1.55074 0
M  V30 6751 H 638.081 1.5483 -3.87083 0
M  V30 6752 H 636.741 1.77807 -2.71688 0
M  V30 6753 H 637.752 -1.07708 -5.06576 0
M  V30 6754 H 634.429 1.26367 -3.97916 0
M  V30 6755 H 635.819 -1.95027 -6.42973 0
M  V30 6756 N 638.539 1.52521 -0.396863 0
M  V30 6757 C 639.95 1.86547 0.0754868 0
M  V30 6758 C 640.301 1.31621 1.45501 0
M  V30 6759 O 639.426 0.650563 2.0639 0
M  V30 6760 C 640.021 3.38495 0.143754 0
M  V30 6761 C 638.58 3.72205 0.560413 0
M  V30 6762 C 637.727 2.75954 -0.272856 0
M  V30 6763 H 640.678 1.46323 -0.614434 0
M  V30 6764 H 640.699 3.68153 0.961425 0
M  V30 6765 H 640.211 3.78442 -0.860415 0
M  V30 6766 H 638.312 3.3783 1.57167 0
M  V30 6767 H 638.425 4.78074 0.313314 0
M  V30 6768 H 636.789 2.53339 0.263 0
M  V30 6769 H 637.572 3.1874 -1.27515 0
M  V30 6770 N 640.017 0.126909 1.57088 0
M  V30 6771 C 640.965 -0.837618 2.16995 0
M  V30 6772 C 641.959 -1.26974 1.12133 0
M  V30 6773 O 643.165 -1.24056 1.30423 0
M  V30 6774 H 639.54 -0.288256 0.694559 0
M  V30 6775 H 641.511 -0.307957 2.96807 0
M  V30 6776 C 640.26 -2.07474 2.79016 0
M  V30 6777 H 639.583 -1.75117 3.59408 0
M  V30 6778 H 641.023 -2.72949 3.24461 0
M  V30 6779 C 639.482 -2.86967 1.76498 0
M  V30 6780 O 640.012 -3.82625 1.22316 0
M  V30 6781 N 638.218 -2.51111 1.46258 0
M  V30 6782 H 637.765 -1.73389 1.90509 0
M  V30 6783 H 637.723 -3.04594 0.779085 0
M  V30 6784 N 641.495 -1.56914 -0.146875 0
M  V30 6785 C 642.458 -1.97368 -1.16526 0
M  V30 6786 C 643.458 -0.860223 -1.35856 0
M  V30 6787 O 644.648 -1.12684 -1.32846 0
M  V30 6788 C 641.78 -2.28974 -2.52555 0
M  V30 6789 H 642.973 -2.88523 -0.818209 0
M  V30 6790 H 640.526 -1.5135 -0.390221 0
M  V30 6791 H 641.261 -1.40611 -2.92231 0
M  V30 6792 H 641.046 -3.10157 -2.39886 0
M  V30 6793 H 642.536 -2.61109 -3.25902 0
M  V30 6794 N 642.974 0.416227 -1.52004 0
M  V30 6795 C 644.199 1.19029 -1.69843 0
M  V30 6796 C 644.624 1.83708 -0.404103 0
M  V30 6797 O 643.982 1.69711 0.637787 0
M  V30 6798 C 644.03 2.23439 -2.83032 0
M  V30 6799 O 643.134 3.29419 -2.48106 0
M  V30 6800 H 642.475 0.347785 -0.565634 0
M  V30 6801 H 645.005 0.488871 -1.98674 0
M  V30 6802 H 645.015 2.67884 -3.07737 0
M  V30 6803 H 643.69 1.75745 -3.76944 0
M  V30 6804 H 642.267 2.90303 -2.34048 0
M  V30 6805 N 644.452 1.42507 0.673017 0
M  V30 6806 C 645.677 1.4668 1.46627 0
M  V30 6807 C 646.102 0.080066 1.8793 0
M  V30 6808 O 645.46 -0.921879 1.56112 0
M  V30 6809 C 645.508 2.40091 2.69051 0
M  V30 6810 O 644.612 1.8735 3.67387 0
M  V30 6811 H 643.953 0.496908 0.44043 0
M  V30 6812 H 646.483 1.87215 0.825334 0
M  V30 6813 H 646.493 2.56731 3.17101 0
M  V30 6814 H 645.168 3.4084 2.3833 0
M  V30 6815 H 643.745 1.80274 3.26429 0
M  V30 6816 N 645.93 -0.909495 1.28709 0
M  V30 6817 C 646.84 -2.04558 1.14861 0
M  V30 6818 C 647.856 -1.73842 0.0741621 0
M  V30 6819 O 649.032 -1.99383 0.2843 0
M  V30 6820 C 646.097 -3.36957 0.816148 0
M  V30 6821 C 645.158 -3.81255 1.97341 0
M  V30 6822 C 644.391 -5.07335 1.65671 0
M  V30 6823 O 644.614 -5.67514 0.573053 0
M  V30 6824 O 643.548 -5.47449 2.50167 0
M  V30 6825 H 647.374 -2.19161 2.10243 0
M  V30 6826 H 644.959 -1.03159 1.08068 0
M  V30 6827 H 646.841 -4.16436 0.644873 0
M  V30 6828 H 645.516 -3.2352 -0.107983 0
M  V30 6829 H 644.423 -3.02584 2.19986 0
M  V30 6830 H 645.756 -3.99261 2.87839 0
M  V30 6831 N 647.408 -1.11026 -1.11852 0
M  V30 6832 C 648.685 -0.768347 -1.79877 0
M  V30 6833 C 649.065 0.744261 -1.97545 0
M  V30 6834 O 648.413 1.67271 -1.55669 0
M  V30 6835 C 648.623 -1.52648 -3.13846 0
M  V30 6836 C 649.971 -1.70297 -3.88953 0
M  V30 6837 O 650.995 -1.49037 -3.23522 0
M  V30 6838 O 649.854 -2.05593 -5.06353 0
M  V30 6839 H 646.948 -0.277891 -0.778913 0
M  V30 6840 H 649.494 -1.21343 -1.18633 0
M  V30 6841 H 648.266 -2.55564 -2.96315 0
M  V30 6842 H 647.889 -1.07466 -3.82801 0
M  V30 6843 N 648.886 1.2938 -0.899927 0
M  V30 6844 C 649.796 2.31462 -0.382437 0
M  V30 6845 C 650.812 1.65956 0.522929 0
M  V30 6846 O 651.988 1.97131 0.412454 0
M  V30 6847 C 649.053 3.44595 0.381472 0
M  V30 6848 C 648.114 4.25692 -0.555444 0
M  V30 6849 C 647.347 5.33422 0.172102 0
M  V30 6850 O 647.57 5.53053 1.396 0
M  V30 6851 O 646.504 5.99939 -0.485491 0
M  V30 6852 H 650.33 2.77706 -1.22934 0
M  V30 6853 H 647.915 1.33821 -0.664259 0
M  V30 6854 H 649.797 4.13474 0.813442 0
M  V30 6855 H 648.472 3.00458 1.20443 0
M  V30 6856 H 647.379 3.59453 -1.03653 0
M  V30 6857 H 648.712 4.73471 -1.34483 0
M  V30 6858 N 650.364 0.662433 1.43002 0
M  V30 6859 C 651.61 0.179857 2.02001 0
M  V30 6860 C 651.943 -1.20625 1.52195 0
M  V30 6861 O 651.218 -1.80726 0.718911 0
M  V30 6862 C 651.501 0.200845 3.59539 0
M  V30 6863 C 651.354 1.62153 4.19555 0
M  V30 6864 C 652.673 -0.457738 4.37713 0
M  V30 6865 H 649.792 0.0668305 0.733964 0
M  V30 6866 H 652.434 0.84487 1.70182 0
M  V30 6867 H 650.584 -0.365411 3.86778 0
M  V30 6868 H 652.256 2.23908 4.03315 0
M  V30 6869 H 650.499 2.16601 3.75854 0
M  V30 6870 H 651.17 1.58799 5.28665 0
M  V30 6871 H 653.646 0.0241495 4.16093 0
M  V30 6872 H 652.522 -0.412363 5.47349 0
M  V30 6873 H 652.783 -1.53336 4.14657 0
M  V30 6874 N 651.842 -1.52309 0.404946 0
M  V30 6875 C 653.253 -1.86585 -0.0655926 0
M  V30 6876 C 653.604 -1.3239 -1.44801 0
M  V30 6877 O 652.729 -0.6615 -2.06042 0
M  V30 6878 C 653.324 -3.38566 -0.125801 0
M  V30 6879 C 651.883 -3.72497 -0.540666 0
M  V30 6880 C 651.03 -2.75806 0.287487 0
M  V30 6881 H 653.981 -1.45995 0.622185 0
M  V30 6882 H 654.002 -3.68658 -0.941888 0
M  V30 6883 H 653.514 -3.77981 0.880473 0
M  V30 6884 H 651.615 -3.38659 -1.55373 0
M  V30 6885 H 651.728 -4.78234 -0.287956 0
M  V30 6886 H 650.092 -2.53474 -0.249561 0
M  V30 6887 H 650.875 -3.18059 1.29203 0
M  V30 6888 N 653.32 -0.135238 -1.57019 0
M  V30 6889 C 654.568 0.51777 -1.95355 0
M  V30 6890 C 654.889 1.6617 -1.02042 0
M  V30 6891 O 654.159 1.95738 -0.0797343 0
M  V30 6892 H 652.739 0.194264 -0.721298 0
M  V30 6893 H 655.401 -0.207983 -1.93787 0
M  V30 6894 H 654.497 0.901675 -2.98791 0
M  V30 6895 N 654.798 1.5699 0.138552 0
M  V30 6896 C 656.046 1.83446 0.848053 0
M  V30 6897 C 656.367 0.71744 1.81322 0
M  V30 6898 O 655.637 -0.260228 1.94164 0
M  V30 6899 H 654.217 0.676792 0.316166 0
M  V30 6900 H 656.879 1.94462 0.130538 0
M  V30 6901 H 655.975 2.78677 1.40518 0
M  V30 6902 N 656.276 -0.40816 1.52223 0
M  V30 6903 C 657.208 -1.51642 1.71864 0
M  V30 6904 C 658.221 -1.51378 0.599056 0
M  V30 6905 O 659.41 -1.55626 0.874239 0
M  V30 6906 C 656.51 -2.90534 1.74481 0
M  V30 6907 C 655.683 -3.14979 3.03491 0
M  V30 6908 C 654.742 -4.33749 2.97907 0
M  V30 6909 O 653.768 -4.30982 3.71811 0
M  V30 6910 N 654.97 -5.38912 2.15764 0
M  V30 6911 H 657.735 -1.35188 2.67478 0
M  V30 6912 H 655.296 -0.597468 1.50472 0
M  V30 6913 H 657.288 -3.68056 1.68275 0
M  V30 6914 H 655.858 -3.00441 0.863363 0
M  V30 6915 H 655.078 -2.25492 3.23337 0
M  V30 6916 H 656.366 -3.28156 3.88833 0
M  V30 6917 H 655.764 -5.44008 1.55152 0
M  V30 6918 H 654.321 -6.15174 2.15415 0
M  V30 6919 N 657.755 -1.42862 -0.66545 0
M  V30 6920 C 659.003 -1.43546 -1.42264 0
M  V30 6921 C 659.324 -0.0563116 -1.94919 0
M  V30 6922 O 658.594 0.906568 -1.73661 0
M  V30 6923 H 657.174 -0.528464 -0.527953 0
M  V30 6924 H 659.836 -1.78363 -0.785665 0
M  V30 6925 H 658.932 -2.14079 -2.27105 0
M  V30 6926 N 659.233 0.902656 -1.29189 0
M  V30 6927 C 660.18 2.00643 -1.14066 0
M  V30 6928 C 661.15 1.66064 -0.0347756 0
M  V30 6929 O 662.335 1.8973 -0.201752 0
M  V30 6930 C 659.475 3.35214 -0.820104 0
M  V30 6931 C 658.588 3.82594 -2.00614 0
M  V30 6932 C 657.723 5.05727 -1.62522 0
M  V30 6933 C 656.762 5.45469 -2.77724 0
M  V30 6934 N 655.899 6.59789 -2.40048 0
M  V30 6935 H 660.739 2.1291 -2.08502 0
M  V30 6936 H 658.276 1.04271 -1.03759 0
M  V30 6937 H 660.234 4.12643 -0.614949 0
M  V30 6938 H 658.864 3.22682 0.0873452 0
M  V30 6939 H 657.916 3.01226 -2.32308 0
M  V30 6940 H 659.228 4.07999 -2.86946 0
M  V30 6941 H 658.382 5.90732 -1.38277 0
M  V30 6942 H 657.121 4.82155 -0.733333 0
M  V30 6943 H 656.126 4.59 -3.02653 0
M  V30 6944 H 657.351 5.71024 -3.67572 0
M  V30 6945 H 655.297 6.37826 -1.53343 0
M  V30 6946 H 655.214 6.84975 -3.19914 0
M  V30 6947 H 656.482 7.4807 -2.19116 0
M  V30 6948 N 660.711 1.11618 1.11262 0
M  V30 6949 C 661.959 0.864469 1.82678 0
M  V30 6950 C 662.28 -0.611564 1.85162 0
M  V30 6951 O 661.55 -1.44429 1.32352 0
M  V30 6952 H 660.13 0.316821 0.676486 0
M  V30 6953 H 662.792 1.40894 1.34666 0
M  V30 6954 H 661.888 1.23832 2.86482 0
M  V30 6955 N 662.189 -1.289 0.906776 0
M  V30 6956 C 663.437 -1.94883 0.535266 0
M  V30 6957 C 663.758 -1.71784 -0.922791 0
M  V30 6958 O 663.028 -1.05359 -1.65156 0
M  V30 6959 H 661.608 -0.721109 0.194962 0
M  V30 6960 H 664.27 -1.57018 1.15461 0
M  V30 6961 H 663.366 -3.03591 0.723821 0
M  V30 6962 N 663.667 -0.670007 -1.42649 0
M  V30 6963 C 664.597 -0.00258501 -2.335 0
M  V30 6964 C 665.578 0.794364 -1.50412 0
M  V30 6965 O 666.763 0.75248 -1.79029 0
M  V30 6966 C 663.893 0.952748 -3.33976 0
M  V30 6967 C 662.847 0.264733 -4.2718 0
M  V30 6968 C 662.173 1.33267 -5.17826 0
M  V30 6969 C 663.473 -0.853289 -5.15283 0
M  V30 6970 H 665.167 -0.761326 -2.89559 0
M  V30 6971 H 662.713 -0.367561 -1.3923 0
M  V30 6972 H 664.666 1.4287 -3.96442 0
M  V30 6973 H 663.39 1.74285 -2.7621 0
M  V30 6974 H 662.049 -0.190938 -3.66102 0
M  V30 6975 H 661.697 2.11464 -4.5639 0
M  V30 6976 H 661.397 0.877476 -5.81011 0
M  V30 6977 H 662.921 1.80965 -5.83167 0
M  V30 6978 H 664.335 -0.458763 -5.71462 0
M  V30 6979 H 662.732 -1.23398 -5.87276 0
M  V30 6980 H 663.802 -1.70412 -4.53969 0
M  V30 6981 N 665.145 1.52092 -0.413018 0
M  V30 6982 C 666.092 2.27119 0.410558 0
M  V30 6983 C 667.062 1.29692 1.03774 0
M  V30 6984 O 668.247 1.58561 1.06128 0
M  V30 6985 C 665.387 3.09863 1.51918 0
M  V30 6986 C 664.5 4.22252 0.912528 0
M  V30 6987 C 663.635 4.92348 1.99417 0
M  V30 6988 C 662.674 5.96694 1.36466 0
M  V30 6989 N 661.811 6.60292 2.38661 0
M  V30 6990 H 666.651 2.97067 -0.235661 0
M  V30 6991 H 664.188 1.46542 -0.128055 0
M  V30 6992 H 666.146 3.56144 2.17295 0
M  V30 6993 H 664.776 2.42078 2.13537 0
M  V30 6994 H 663.828 3.80113 0.147697 0
M  V30 6995 H 665.14 4.9709 0.412717 0
M  V30 6996 H 664.294 5.42054 2.72512 0
M  V30 6997 H 663.033 4.17087 2.52764 0
M  V30 6998 H 662.038 5.46304 0.61906 0
M  V30 6999 H 663.263 6.73899 0.838827 0
M  V30 7000 H 661.209 5.87858 2.91134 0
M  V30 7001 H 661.126 7.30816 1.93503 0
M  V30 7002 H 662.394 7.14635 3.11314 0
M  V30 7003 N 666.623 0.143563 1.56945 0
M  V30 7004 C 667.848 -0.518701 2.00809 0
M  V30 7005 C 668.273 -1.5785 1.02298 0
M  V30 7006 O 667.631 -1.813 -0.0017839 0
M  V30 7007 C 667.679 -1.09929 3.43436 0
M  V30 7008 O 666.783 -2.21425 3.47915 0
M  V30 7009 H 666.124 -0.127215 0.6517 0
M  V30 7010 H 668.654 0.239283 2.03196 0
M  V30 7011 H 668.664 -1.4288 3.82164 0
M  V30 7012 H 667.339 -0.323162 4.14643 0
M  V30 7013 H 665.916 -1.89728 3.21026 0
M  V30 7014 N 668.101 -1.57061 -0.130224 0
M  V30 7015 C 669.512 -1.73539 -0.68856 0
M  V30 7016 C 669.863 -0.760554 -1.80859 0
M  V30 7017 O 668.988 0.0690796 -2.1629 0
M  V30 7018 C 669.583 -3.14666 -1.25581 0
M  V30 7019 C 668.142 -3.32689 -1.76055 0
M  V30 7020 C 667.289 -2.69436 -0.655712 0
M  V30 7021 H 670.24 -1.58412 0.0956002 0
M  V30 7022 H 670.261 -3.15595 -2.12556 0
M  V30 7023 H 669.773 -3.85593 -0.440412 0
M  V30 7024 H 667.874 -2.66786 -2.60108 0
M  V30 7025 H 667.987 -4.4077 -1.87772 0
M  V30 7026 H 666.351 -2.30362 -1.08654 0
M  V30 7027 H 667.134 -3.42979 0.14852 0
M  V30 7028 N 669.579 0.400081 -1.52437 0
M  V30 7029 C 670.542 1.4707 -1.75793 0
M  V30 7030 C 671.542 1.48036 -0.627856 0
M  V30 7031 O 672.732 1.49401 -0.895817 0
M  V30 7032 C 669.864 2.86427 -1.84858 0
M  V30 7033 H 671.057 1.27649 -2.71377 0
M  V30 7034 H 668.61 0.631141 -1.42991 0
M  V30 7035 H 669.345 3.11207 -0.912194 0
M  V30 7036 H 669.13 2.87128 -2.6702 0
M  V30 7037 H 670.62 3.64023 -2.04638 0
M  V30 7038 O 671.096 1.51991 0.545992 0
M  V30 7039 H 671.787 1.51962 1.20114 0
M  V30 END ATOM
M  V30 BEGIN BOND
M  V30 END BOND
M  V30 END CTAB
M  END
$$$$
