drugbank_target|Q15111 Inactive phospholipase C-like protein 1 (DB01103)
 OpenBabel12092119473D

  0  0  0     0  0            999 V3000
M  V30 BEGIN CTAB
M  V30 COUNTS 17150 17304 0 0 0
M  V30 BEGIN ATOM
M  V30 1 H -0.908 1.98254 -0.117106 0
M  V30 2 N 0 1.576 0 0
M  V30 3 C 0.933 2.03868 1.02534 0
M  V30 4 C 1.911 0.928543 1.3348 0
M  V30 5 O 3.095 1.19667 1.45644 0
M  V30 6 C 0.222 2.43627 2.35294 0
M  V30 7 C -0.732 3.65373 2.2001 0
M  V30 8 S 0.101 5.13292 1.52614 0
M  V30 9 C 1.257 5.56322 2.86805 0
M  V30 10 H 1.49 2.90518 0.631377 0
M  V30 11 H -0.977 1.52953 0.210867 0
M  V30 12 H 0.981 2.67203 3.11629 0
M  V30 13 H -0.358 1.57376 2.7183 0
M  V30 14 H -1.165 3.90944 3.18086 0
M  V30 15 H -1.563 3.418 1.51819 0
M  V30 16 H 0.729 5.58782 3.83104 0
M  V30 17 H 1.672 6.56266 2.65933 0
M  V30 18 H 2.08 4.83886 2.90714 0
M  V30 19 N 1.4781 -0.272755 1.55222 0
M  V30 20 C 2.4411 -1.32041 1.87344 0
M  V30 21 C 3.4411 -1.42342 0.74803 0
M  V30 22 O 4.6311 -1.41488 1.0162 0
M  V30 23 C 1.7631 -2.70173 2.07893 0
M  V30 24 H 2.9561 -1.04789 2.80997 0
M  V30 25 H 0.5091 -0.51083 1.47717 0
M  V30 26 H 1.2441 -3.02605 1.16622 0
M  V30 27 H 1.0291 -2.64082 2.89833 0
M  V30 28 H 2.5191 -3.45869 2.34017 0
M  V30 29 N 2.9562 -1.48159 -0.537278 0
M  V30 30 C 3.8662 -1.64807 -1.6696 0
M  V30 31 C 4.8822 -0.530651 -1.65711 0
M  V30 32 O 6.0582 -0.800784 -1.84796 0
M  V30 33 C 3.1232 -1.67708 -3.03438 0
M  V30 34 C 2.1842 -2.91025 -3.156 0
M  V30 35 C 1.4172 -2.93778 -4.45567 0
M  V30 36 O 1.6402 -2.05153 -5.3223 0
M  V30 37 O 0.5742 -3.85868 -4.61941 0
M  V30 38 H 4.4002 -2.6066 -1.55853 0
M  V30 39 H 1.9852 -1.31475 -0.709549 0
M  V30 40 H 3.8672 -1.7218 -3.84619 0
M  V30 41 H 2.5422 -0.750278 -3.14885 0
M  V30 42 H 1.4492 -2.92089 -2.33741 0
M  V30 43 H 2.7822 -3.83065 -3.09066 0
M  V30 44 N 4.4343 0.785586 -1.36625 0
M  V30 45 C 5.6823 1.54057 -1.30808 0
M  V30 46 C 6.0033 1.94683 0.111157 0
M  V30 47 O 5.2733 1.65241 1.05224 0
M  V30 48 H 3.8533 0.571354 -0.481211 0
M  V30 49 H 6.5153 0.935821 -1.70963 0
M  V30 50 H 5.6113 2.44637 -1.93801 0
M  V30 51 N 5.9124 1.20967 1.01018 0
M  V30 52 C 6.8754 0.965918 2.07853 0
M  V30 53 C 7.8754 -0.0610545 1.60684 0
M  V30 54 O 9.0654 0.175681 1.73312 0
M  V30 55 C 6.1974 0.455513 3.37843 0
M  V30 56 H 7.3904 1.91365 2.3091 0
M  V30 57 H 4.9434 1.02594 1.17916 0
M  V30 58 H 5.6784 -0.497381 3.20463 0
M  V30 59 H 5.4634 1.19622 3.73407 0
M  V30 60 H 6.9534 0.304667 4.16487 0
M  V30 61 N 7.3905 -1.2043 1.01659 0
M  V30 62 C 8.3535 -2.21433 0.591616 0
M  V30 63 C 9.3535 -1.57203 -0.338226 0
M  V30 64 O 10.5435 -1.73737 -0.126918 0
M  V30 65 C 7.6755 -3.40628 -0.136058 0
M  V30 66 H 8.8685 -2.60545 1.48514 0
M  V30 67 H 6.4215 -1.33893 0.806379 0
M  V30 68 H 7.1565 -3.07019 -1.04449 0
M  V30 69 H 6.9415 -3.88475 0.531917 0
M  V30 70 H 8.4315 -4.15475 -0.420735 0
M  V30 71 N 8.8686 -0.792821 -1.36206 0
M  V30 72 C 10.1166 -0.366062 -1.98757 0
M  V30 73 C 10.4376 1.0668 -1.63231 0
M  V30 74 O 9.7076 1.73587 -0.907978 0
M  V30 75 H 8.2876 -0.132364 -0.735179 0
M  V30 76 H 10.9496 -1.01562 -1.66347 0
M  V30 77 H 10.0456 -0.460638 -3.08682 0
M  V30 78 N 10.3467 1.47872 -0.545128 0
M  V30 79 C 11.7627 1.5829 -0.204032 0
M  V30 80 C 11.9627 1.54529 1.29317 0
M  V30 81 O 11.0187 1.44232 2.07252 0
M  V30 82 C 12.3317 2.89304 -0.819987 0
M  V30 83 C 13.8797 3.02864 -0.790105 0
M  V30 84 C 14.3547 4.3656 -1.38491 0
M  V30 85 N 15.8457 4.43165 -1.34755 0
M  V30 86 C 16.5807 5.45153 -1.77753 0
M  V30 87 N 16.0767 6.54016 -2.2855 0
M  V30 88 N 17.8697 5.36125 -1.68897 0
M  V30 89 H 10.0207 1.4856 -1.51802 0
M  V30 90 H 12.2837 0.706305 -0.632327 0
M  V30 91 H 11.9897 2.97757 -1.87173 0
M  V30 92 H 11.8637 3.75957 -0.305915 0
M  V30 93 H 14.2507 2.94014 0.252913 0
M  V30 94 H 14.3317 2.17782 -1.34181 0
M  V30 95 H 13.9757 4.46164 -2.42693 0
M  V30 96 H 13.9057 5.20353 -0.808754 0
M  V30 97 H 16.3967 3.65083 -0.975855 0
M  V30 98 H 16.7097 7.27994 -2.59314 0
M  V30 99 H 15.0547 6.54938 -2.32553 0
M  V30 100 H 18.2457 4.49975 -1.28998 0
M  V30 101 H 18.4187 6.15472 -2.02726 0
M  V30 102 N 11.8248 0.280983 1.55075 0
M  V30 103 C 12.7348 -0.61388 2.26426 0
M  V30 104 C 13.7508 -1.16521 1.29224 0
M  V30 105 O 14.9268 -1.19426 1.62171 0
M  V30 106 C 11.9918 -1.7788 2.9759 0
M  V30 107 C 11.0528 -1.26355 4.10284 0
M  V30 108 C 10.2858 -2.37295 4.78045 0
M  V30 109 O 10.5088 -3.56777 4.45047 0
M  V30 110 O 9.4428 -2.05119 5.65871 0
M  V30 111 H 13.2688 -0.0356932 3.03679 0
M  V30 112 H 10.8538 0.0481686 1.49322 0
M  V30 113 H 12.7358 -2.45791 3.42293 0
M  V30 114 H 11.4108 -2.34397 2.23249 0
M  V30 115 H 10.3178 -0.550735 3.70024 0
M  V30 116 H 11.6508 -0.744065 4.86543 0
M  V30 117 N 13.3029 -1.57598 0.00835791 0
M  V30 118 C 14.5799 -1.82172 -0.712235 0
M  V30 119 C 14.9599 -0.887873 -1.9152 0
M  V30 120 O 14.3079 0.06146 -2.28417 0
M  V30 121 C 14.5179 -3.30875 -1.11008 0
M  V30 122 C 15.8659 -3.96826 -1.51044 0
M  V30 123 O 16.8899 -3.35248 -1.20364 0
M  V30 124 O 15.7489 -5.05318 -2.08125 0
M  V30 125 H 12.8429 -0.750435 -0.347529 0
M  V30 126 H 15.3889 -1.69665 0.0344523 0
M  V30 127 H 14.1609 -3.90481 -0.252982 0
M  V30 128 H 13.7839 -3.48412 -1.9156 0
M  V30 129 N 14.781 0.264519 -1.55364 0
M  V30 130 C 16.192 0.834936 -1.6699 0
M  V30 131 C 16.543 1.86718 -0.602552 0
M  V30 132 O 15.668 2.14899 0.254425 0
M  V30 133 C 16.263 1.5212 -3.02729 0
M  V30 134 C 14.822 2.03954 -3.16354 0
M  V30 135 C 13.969 0.884498 -2.62815 0
M  V30 136 H 16.92 0.0406869 -1.58648 0
M  V30 137 H 16.941 2.38853 -2.96191 0
M  V30 138 H 16.453 0.769668 -3.80392 0
M  V30 139 H 14.554 2.82041 -2.43482 0
M  V30 140 H 14.667 2.24902 -4.23032 0
M  V30 141 H 13.031 1.2802 -2.20188 0
M  V30 142 H 13.814 0.14634 -3.42988 0
M  V30 143 N 16.2591 1.48442 0.529413 0
M  V30 144 C 17.2221 1.62524 1.61612 0
M  V30 145 C 18.2221 0.498509 1.52877 0
M  V30 146 O 19.4121 0.76431 1.56537 0
M  V30 147 C 16.5441 1.59597 3.01233 0
M  V30 148 H 17.7371 2.59423 1.50465 0
M  V30 149 H 15.2901 1.37047 0.751514 0
M  V30 150 H 16.0251 0.641781 3.17886 0
M  V30 151 H 15.8101 2.41397 3.08982 0
M  V30 152 H 17.3001 1.72646 3.80241 0
M  V30 153 N 17.7372 -0.778329 1.37039 0
M  V30 154 C 19.1482 -1.35421 1.28523 0
M  V30 155 C 19.4992 -1.96075 -0.0700901 0
M  V30 156 O 18.6242 -1.93352 -0.971801 0
M  V30 157 C 19.2192 -2.46211 2.32735 0
M  V30 158 C 17.7782 -2.99585 2.27873 0
M  V30 159 C 16.9252 -1.72748 2.16918 0
M  V30 160 H 19.8762 -0.5791 1.47757 0
M  V30 161 H 19.8972 -3.2552 1.9702 0
M  V30 162 H 19.4092 -2.02036 3.31365 0
M  V30 163 H 17.5102 -3.48152 1.32745 0
M  V30 164 H 17.6232 -3.55646 3.21018 0
M  V30 165 H 15.9872 -1.95416 1.63354 0
M  V30 166 H 16.7702 -1.30686 3.17452 0
M  V30 167 N 19.2153 -1.21501 -1.00376 0
M  V30 168 C 20.6263 -1.03146 -1.55621 0
M  V30 169 C 20.9773 0.408375 -1.91903 0
M  V30 170 O 20.1023 1.29177 -1.73616 0
M  V30 171 C 20.6973 -1.86612 -2.82775 0
M  V30 172 C 19.2563 -1.72586 -3.34501 0
M  V30 173 C 18.4033 -1.83747 -2.07683 0
M  V30 174 H 21.3543 -1.35505 -0.826081 0
M  V30 175 H 21.3753 -1.3771 -3.54706 0
M  V30 176 H 20.8873 -2.91399 -2.56336 0
M  V30 177 H 18.9883 -0.704877 -3.65872 0
M  V30 178 H 19.1013 -2.54623 -4.05837 0
M  V30 179 H 17.4653 -1.27069 -2.20739 0
M  V30 180 H 18.2483 -2.90044 -1.83655 0
M  V30 181 N 20.6934 1.19889 -1.02296 0
M  V30 182 C 21.9704 1.85148 -0.630832 0
M  V30 183 C 22.3504 1.91385 0.890782 0
M  V30 184 O 21.6984 1.42642 1.78509 0
M  V30 185 C 21.9084 3.24442 -1.28602 0
M  V30 186 C 23.2564 4.00663 -1.4055 0
M  V30 187 O 24.2804 3.33818 -1.24273 0
M  V30 188 O 23.1394 5.20387 -1.66913 0
M  V30 189 H 20.2334 0.797613 -0.218499 0
M  V30 190 H 22.7794 1.27427 -1.12074 0
M  V30 191 H 21.5514 3.14704 -2.32545 0
M  V30 192 H 21.1744 3.89802 -0.7836 0
M  V30 193 N 22.1715 0.800033 1.35784 0
M  V30 194 C 23.1345 0.211565 2.28221 0
M  V30 195 C 24.1345 -0.59728 1.49296 0
M  V30 196 O 25.3245 -0.416721 1.69142 0
M  V30 197 C 22.4565 -0.705846 3.33513 0
M  V30 198 H 23.6495 1.02677 2.81776 0
M  V30 199 H 21.2025 0.570211 1.45528 0
M  V30 200 H 21.9375 -1.54498 2.85133 0
M  V30 201 H 21.7225 -0.127655 3.91892 0
M  V30 202 H 23.2125 -1.11211 4.02519 0
M  V30 203 N 23.6496 -1.47581 0.552962 0
M  V30 204 C 24.6126 -2.28439 -0.186605 0
M  V30 205 C 25.6126 -1.36706 -0.84665 0
M  V30 206 O 26.8026 -1.59378 -0.703164 0
M  V30 207 C 23.9346 -3.16264 -1.2724 0
M  V30 208 H 25.1276 -2.95294 0.523609 0
M  V30 209 H 22.6806 -1.532 0.309745 0
M  V30 210 H 23.4156 -2.54091 -2.01514 0
M  V30 211 H 23.2006 -3.83769 -0.803968 0
M  V30 212 H 24.6906 -3.77198 -1.79196 0
M  V30 213 N 25.1277 -0.289203 -1.54924 0
M  V30 214 C 26.3757 0.322879 -1.99504 0
M  V30 215 C 26.6967 1.55313 -1.1791 0
M  V30 216 O 25.9667 1.94001 -0.272097 0
M  V30 217 H 24.5467 0.122291 -0.736922 0
M  V30 218 H 27.2087 -0.397802 -1.90797 0
M  V30 219 H 26.3047 0.603061 -3.06218 0
M  V30 220 N 26.6058 1.57591 -0.0167156 0
M  V30 221 C 27.8538 1.90906 0.663285 0
M  V30 222 C 28.1748 0.892509 1.73376 0
M  V30 223 O 27.4448 -0.0677623 1.95783 0
M  V30 224 H 26.0248 0.704637 0.247983 0
M  V30 225 H 28.6868 1.94803 -0.0615909 0
M  V30 226 H 27.7828 2.9116 1.12393 0
M  V30 227 N 28.0839 -0.256276 1.55502 0
M  V30 228 C 28.9939 -1.33882 1.92647 0
M  V30 229 C 30.0099 -1.53159 0.825727 0
M  V30 230 O 31.1859 -1.66963 1.12629 0
M  V30 231 C 28.2509 -2.6751 2.20543 0
M  V30 232 C 27.3119 -2.56836 3.43997 0
M  V30 233 C 26.5449 -3.84092 3.70553 0
M  V30 234 O 26.7679 -4.85545 2.99336 0
M  V30 235 O 25.7019 -3.83288 4.64084 0
M  V30 236 H 29.5279 -1.05374 2.84833 0
M  V30 237 H 27.1129 -0.456237 1.42263 0
M  V30 238 H 28.9949 -3.46492 2.39835 0
M  V30 239 H 27.6699 -2.9577 1.31536 0
M  V30 240 H 26.5769 -1.76172 3.30021 0
M  V30 241 H 27.9099 -2.33523 4.33275 0
M  V30 242 N 29.562 -1.4872 -0.521534 0
M  V30 243 C 30.839 -1.4766 -1.2828 0
M  V30 244 C 31.219 -0.19292 -2.10217 0
M  V30 245 O 30.567 0.825193 -2.13079 0
M  V30 246 C 30.777 -2.74358 -2.15705 0
M  V30 247 C 32.125 -3.23028 -2.75569 0
M  V30 248 O 33.149 -2.75333 -2.25987 0
M  V30 249 O 32.008 -4.0604 -3.65778 0
M  V30 250 H 29.102 -0.590085 -0.579421 0
M  V30 251 H 31.648 -1.60963 -0.537492 0
M  V30 252 H 30.42 -3.59292 -1.54999 0
M  V30 253 H 30.043 -2.63816 -2.97467 0
M  V30 254 N 31.0401 0.771051 -1.3745 0
M  V30 255 C 32.3171 1.519 -1.23231 0
M  V30 256 C 32.6971 2.10383 0.173809 0
M  V30 257 O 32.0451 1.95583 1.18151 0
M  V30 258 C 32.2551 2.59933 -2.32886 0
M  V30 259 C 33.6031 3.27316 -2.70461 0
M  V30 260 O 34.6271 2.70228 -2.32068 0
M  V30 261 O 33.4861 4.30531 -3.36608 0
M  V30 262 H 30.5801 0.672803 -0.480901 0
M  V30 263 H 33.1261 0.807957 -1.49232 0
M  V30 264 H 31.8981 2.14842 -3.27045 0
M  V30 265 H 31.5211 3.38637 -2.08353 0
M  V30 266 N 32.5182 1.22032 0.997298 0
M  V30 267 C 33.9292 1.0397 1.55071 0
M  V30 268 C 34.2802 -0.398192 1.92117 0
M  V30 269 O 33.4052 -1.28254 1.74298 0
M  V30 270 C 34.0002 1.88109 2.81781 0
M  V30 271 C 32.5592 1.74357 3.33581 0
M  V30 272 C 31.7062 1.84846 2.06706 0
M  V30 273 H 34.6572 1.35941 0.818883 0
M  V30 274 H 34.6782 1.39589 3.53971 0
M  V30 275 H 34.1902 2.92754 2.54787 0
M  V30 276 H 32.2912 0.72427 3.65493 0
M  V30 277 H 32.4042 2.56772 4.04481 0
M  V30 278 H 30.7682 1.28238 2.20062 0
M  V30 279 H 31.5512 2.91014 1.82114 0
M  V30 280 N 33.9963 -1.19345 1.0293 0
M  V30 281 C 35.4123 -1.41069 0.746446 0
M  V30 282 C 35.6123 -1.90078 -0.668776 0
M  V30 283 O 34.6683 -2.0778 -1.4347 0
M  V30 284 C 35.9813 -2.42141 1.78292 0
M  V30 285 C 37.5293 -2.55887 1.80252 0
M  V30 286 C 38.0043 -3.60214 2.8286 0
M  V30 287 N 39.4953 -3.67711 2.81679 0
M  V30 288 C 40.2303 -4.48128 3.57727 0
M  V30 289 N 39.7263 -5.32248 4.43491 0
M  V30 290 N 41.5193 -4.42782 3.46267 0
M  V30 291 H 33.6703 -0.858536 1.94275 0
M  V30 292 H 35.9333 -0.439541 0.839945 0
M  V30 293 H 35.6393 -2.13155 2.79746 0
M  V30 294 H 35.5133 -3.41323 1.60557 0
M  V30 295 H 37.9003 -2.84196 0.794757 0
M  V30 296 H 37.9813 -1.56858 2.02062 0
M  V30 297 H 37.6253 -3.32647 3.83807 0
M  V30 298 H 37.5553 -4.58895 2.58307 0
M  V30 299 H 40.0463 -3.07634 2.19476 0
M  V30 300 H 40.3593 -5.90729 4.98256 0
M  V30 301 H 38.7043 -5.31707 4.47564 0
M  V30 302 H 41.8953 -3.76107 2.78677 0
M  V30 303 H 42.0683 -5.05215 4.05785 0
M  V30 304 N 35.4744 -0.807222 -1.35358 0
M  V30 305 C 36.7204 -0.388463 -1.99045 0
M  V30 306 C 37.0534 1.04184 -1.63888 0
M  V30 307 O 36.3284 1.72292 -0.902535 0
M  V30 308 C 36.6114 -0.572783 -3.55515 0
M  V30 309 C 36.4644 -2.04807 -4.00468 0
M  V30 310 C 37.7834 0.00114064 -4.401 0
M  V30 311 H 34.9024 -0.142619 -0.723069 0
M  V30 312 H 37.5444 -1.01687 -1.60498 0
M  V30 313 H 35.6944 -0.0378425 -3.88482 0
M  V30 314 H 37.3664 -2.64544 -3.77908 0
M  V30 315 H 35.6094 -2.54427 -3.51353 0
M  V30 316 H 36.2804 -2.12792 -5.09337 0
M  V30 317 H 38.7564 -0.455716 -4.13597 0
M  V30 318 H 37.6324 -0.157737 -5.48673 0
M  V30 319 H 37.8934 1.09488 -4.28328 0
M  V30 320 N 36.9525 1.47285 -0.560781 0
M  V30 321 C 38.2005 2.02064 -0.0379868 0
M  V30 322 C 38.5215 1.43711 1.31803 0
M  V30 323 O 37.7915 0.61362 1.86042 0
M  V30 324 H 36.3715 0.746918 -0.0110531 0
M  V30 325 H 39.0335 1.80648 -0.731598 0
M  V30 326 H 38.1295 3.12064 0.0474463 0
M  V30 327 N 38.4306 0.297415 1.54768 0
M  V30 328 C 39.8416 -0.195947 1.85669 0
M  V30 329 C 40.1926 -1.53707 1.21937 0
M  V30 330 O 39.3176 -2.10164 0.515754 0
M  V30 331 C 39.9126 -0.362318 3.36857 0
M  V30 332 C 38.4716 -0.799901 3.67802 0
M  V30 333 C 37.6186 0.0938578 2.77141 0
M  V30 334 H 40.5696 0.518538 1.4999 0
M  V30 335 H 40.5906 -1.19745 3.61167 0
M  V30 336 H 40.1026 0.613921 3.83214 0
M  V30 337 H 38.2036 -1.78682 3.26961 0
M  V30 338 H 38.3166 -0.621773 4.75048 0
M  V30 339 H 36.6806 -0.426254 2.51108 0
M  V30 340 H 37.4636 1.06639 3.26318 0
M  V30 341 N 39.9087 -1.5758 0.0250728 0
M  V30 342 C 41.1857 -1.82917 -0.692873 0
M  V30 343 C 41.5657 -0.908137 -1.90568 0
M  V30 344 O 40.9137 0.0372298 -2.2847 0
M  V30 345 C 41.1237 -3.32034 -1.07492 0
M  V30 346 C 42.4717 -3.98406 -1.46826 0
M  V30 347 O 43.4957 -3.36505 -1.16801 0
M  V30 348 O 42.3547 -5.07497 -2.02754 0
M  V30 349 H 39.4487 -0.754079 -0.33955 0
M  V30 350 H 41.9947 -1.69619 0.0524456 0
M  V30 351 H 40.7667 -3.90728 -0.211552 0
M  V30 352 H 40.3897 -3.50424 -1.87854 0
M  V30 353 N 41.3868 0.248026 -1.55636 0
M  V30 354 C 42.3498 1.29044 -1.89421 0
M  V30 355 C 43.3498 1.41134 -0.770581 0
M  V30 356 O 44.5398 1.39854 -1.03858 0
M  V30 357 C 41.6718 2.66831 -2.12165 0
M  V30 358 H 42.8648 1.00305 -2.82629 0
M  V30 359 H 40.4178 0.487265 -1.48511 0
M  V30 360 H 41.1528 3.00711 -1.21422 0
M  V30 361 H 40.9378 2.59438 -2.93997 0
M  V30 362 H 42.4278 3.42103 -2.3949 0
M  V30 363 N 42.8649 1.48995 0.513639 0
M  V30 364 C 43.8279 1.64229 1.59879 0
M  V30 365 C 44.8279 0.514696 1.5234 0
M  V30 366 O 46.0179 0.78087 1.55718 0
M  V30 367 C 43.1499 1.62783 2.99524 0
M  V30 368 H 44.3429 2.61004 1.47705 0
M  V30 369 H 41.8959 1.37837 0.736936 0
M  V30 370 H 42.6309 0.675461 3.17188 0
M  V30 371 H 42.4159 2.4466 3.06404 0
M  V30 372 H 43.9059 1.76669 3.78388 0
M  V30 373 N 44.343 -0.763751 1.37857 0
M  V30 374 C 45.591 -1.51957 1.33243 0
M  V30 375 C 45.912 -1.94835 -0.0801709 0
M  V30 376 O 45.182 -1.66894 -1.02582 0
M  V30 377 H 43.762 -0.563626 0.49024 0
M  V30 378 H 46.424 -0.908504 1.7243 0
M  V30 379 H 45.52 -2.41523 1.97669 0
M  V30 380 N 45.8211 -1.22559 -0.990812 0
M  V30 381 C 47.0981 -0.959875 -1.70428 0
M  V30 382 C 47.4781 0.524455 -2.04481 0
M  V30 383 O 46.8261 1.49302 -1.72977 0
M  V30 384 C 47.0361 -1.85955 -2.95333 0
M  V30 385 C 48.3841 -2.11687 -3.68068 0
M  V30 386 O 49.4081 -1.8342 -3.05345 0
M  V30 387 O 48.2671 -2.59572 -4.80921 0
M  V30 388 H 45.3611 -0.361154 -0.743974 0
M  V30 389 H 47.9071 -1.33554 -1.04697 0
M  V30 390 H 46.6791 -2.86346 -2.66687 0
M  V30 391 H 46.3021 -1.4856 -3.68803 0
M  V30 392 N 47.2992 1.18797 -1.03562 0
M  V30 393 C 48.5392 1.90346 -0.744832 0
M  V30 394 C 48.9032 1.78231 0.713972 0
M  V30 395 O 50.1042 2.44441 1.11813 0
M  V30 396 C 48.3752 3.36942 -1.19184 0
M  V30 397 S 49.9342 4.26638 -1.02593 0
M  V30 398 H 46.7522 0.657343 -0.270963 0
M  V30 399 H 49.3542 1.43579 -1.32685 0
M  V30 400 H 48.0582 3.43287 -2.24905 0
M  V30 401 H 47.5892 3.88745 -0.603397 0
M  V30 402 H 49.6042 4.96164 0.0596033 0
M  V30 403 N 48.7773 0.814389 1.34928 0
M  V30 404 C 50.0233 0.399013 1.98836 0
M  V30 405 C 50.3563 -1.03314 1.64438 0
M  V30 406 O 49.6313 -1.71811 0.911659 0
M  V30 407 C 49.9143 0.591629 3.55207 0
M  V30 408 C 49.7673 2.06928 3.99376 0
M  V30 409 C 51.0863 0.022199 4.40094 0
M  V30 410 H 48.2053 0.146451 0.722303 0
M  V30 411 H 50.8473 1.02537 1.59957 0
M  V30 412 H 48.9973 0.0584441 3.88456 0
M  V30 413 H 50.6693 2.66544 3.76499 0
M  V30 414 H 48.9123 2.56287 3.49999 0
M  V30 415 H 49.5833 2.1549 5.08201 0
M  V30 416 H 52.0593 0.477643 4.13349 0
M  V30 417 H 50.9353 0.186832 5.48582 0
M  V30 418 H 51.1963 -1.07215 4.28902 0
M  V30 419 N 50.2554 -1.46986 0.568584 0
M  V30 420 C 51.4834 -2.0683 0.0539956 0
M  V30 421 C 51.8984 -1.41953 -1.24478 0
M  V30 422 O 51.2554 -0.519933 -1.74937 0
M  V30 423 C 51.3064 -3.61254 -0.133362 0
M  V30 424 O 51.0274 -4.237 1.11399 0
M  V30 425 C 52.5284 -4.37992 -0.683927 0
M  V30 426 H 49.7484 -0.669058 0.0510141 0
M  V30 427 H 52.2924 -1.88824 0.785234 0
M  V30 428 H 50.4474 -3.78735 -0.81477 0
M  V30 429 H 50.8614 -5.16388 0.91888 0
M  V30 430 H 52.3354 -5.46684 -0.764263 0
M  V30 431 H 52.8124 -4.05058 -1.69778 0
M  V30 432 H 53.4184 -4.25283 -0.0378494 0
M  V30 433 N 51.7335 -0.305618 -1.54608 0
M  V30 434 C 52.6965 0.555591 -2.22364 0
M  V30 435 C 53.6965 1.05768 -1.21119 0
M  V30 436 O 54.8865 0.952972 -1.45822 0
M  V30 437 C 52.0185 1.76974 -2.91364 0
M  V30 438 H 53.2115 -0.0364572 -2.99878 0
M  V30 439 H 50.7645 -0.0565007 -1.56198 0
M  V30 440 H 51.4995 2.40151 -2.17941 0
M  V30 441 H 51.2845 1.41732 -3.65588 0
M  V30 442 H 52.7745 2.38148 -3.43038 0
M  V30 443 N 53.2116 1.57565 -0.0334293 0
M  V30 444 C 54.1746 2.09393 0.932048 0
M  V30 445 C 55.1746 1.00986 1.25134 0
M  V30 446 O 56.3646 1.27129 1.19096 0
M  V30 447 C 53.4966 2.56338 2.2473 0
M  V30 448 H 54.6896 2.95984 0.483085 0
M  V30 449 H 52.2426 1.54819 0.21468 0
M  V30 450 H 52.9776 1.7309 2.74245 0
M  V30 451 H 52.7626 3.35542 2.02865 0
M  V30 452 H 54.2526 2.96646 2.93923 0
M  V30 453 N 54.6897 -0.239769 1.55765 0
M  V30 454 C 55.9147 -0.988373 1.82335 0
M  V30 455 C 56.3397 -1.77886 0.611421 0
M  V30 456 O 55.6977 -1.75889 -0.439639 0
M  V30 457 C 55.7457 -1.89627 3.06715 0
M  V30 458 O 54.8497 -2.98904 2.84131 0
M  V30 459 H 54.1907 -0.280858 0.601677 0
M  V30 460 H 56.7207 -0.258597 2.02959 0
M  V30 461 H 56.7307 -2.30957 3.36338 0
M  V30 462 H 55.4057 -1.31511 3.9456 0
M  V30 463 H 53.9827 -2.61651 2.65694 0
M  V30 464 N 56.1678 -1.49265 -0.50573 0
M  V30 465 C 57.4158 -1.582 -1.25766 0
M  V30 466 C 57.7368 -0.268482 -1.93143 0
M  V30 467 O 57.0068 0.711833 -1.8251 0
M  V30 468 H 55.5868 -0.582873 -0.467191 0
M  V30 469 H 58.2488 -1.85865 -0.586525 0
M  V30 470 H 57.3448 -2.37563 -2.02412 0
M  V30 471 N 57.6459 0.756429 -1.3826 0
M  V30 472 C 58.8939 1.51248 -1.34047 0
M  V30 473 C 59.2149 1.94875 0.0698372 0
M  V30 474 O 58.4849 1.67436 1.01696 0
M  V30 475 H 57.0649 0.561018 -0.493222 0
M  V30 476 H 59.7269 0.899347 -1.7291 0
M  V30 477 H 58.8229 2.40472 -1.98947 0
M  V30 478 N 59.124 1.23083 0.984299 0
M  V30 479 C 60.54 0.992637 1.24975 0
M  V30 480 C 60.74 -0.308618 1.99123 0
M  V30 481 O 59.796 -1.02905 2.30579 0
M  V30 482 C 61.109 2.19698 2.05312 0
M  V30 483 C 62.657 2.24147 2.18465 0
M  V30 484 C 63.132 3.44157 3.02192 0
M  V30 485 N 64.623 3.44372 3.09777 0
M  V30 486 C 65.358 4.33886 3.74874 0
M  V30 487 N 64.854 5.3363 4.41827 0
M  V30 488 N 66.647 4.21639 3.71721 0
M  V30 489 H 58.798 2.06731 0.487453 0
M  V30 490 H 61.061 0.906339 0.277944 0
M  V30 491 H 60.767 3.1411 1.58201 0
M  V30 492 H 60.641 2.20465 3.06064 0
M  V30 493 H 63.028 1.30277 2.64786 0
M  V30 494 H 63.109 2.27415 1.17115 0
M  V30 495 H 62.753 4.38332 2.56568 0
M  V30 496 H 62.683 3.3813 4.03702 0
M  V30 497 H 65.174 2.72201 2.62135 0
M  V30 498 H 65.487 5.98196 4.89266 0
M  V30 499 H 63.832 5.37534 4.40548 0
M  V30 500 H 67.023 3.42962 3.18582 0
M  V30 501 H 67.196 4.91604 4.22173 0
M  V30 502 N 60.6021 -1.18246 1.0419 0
M  V30 503 C 61.5351 -2.20746 0.578474 0
M  V30 504 C 62.5131 -1.57912 -0.387624 0
M  V30 505 O 63.6971 -1.86071 -0.301634 0
M  V30 506 C 60.8241 -3.38346 -0.154762 0
M  V30 507 C 59.8701 -4.19587 0.764782 0
M  V30 508 S 60.7031 -4.86014 2.24835 0
M  V30 509 C 61.8591 -6.07012 1.526 0
M  V30 510 H 62.0921 -2.59715 1.44691 0
M  V30 511 H 59.6251 -1.287 0.85297 0
M  V30 512 H 61.5831 -4.065 -0.571641 0
M  V30 513 H 60.2441 -2.97786 -0.999105 0
M  V30 514 H 59.4371 -5.03611 0.197976 0
M  V30 515 H 59.0391 -3.56818 1.12057 0
M  V30 516 H 61.3311 -6.72523 0.819733 0
M  V30 517 H 62.2741 -6.68202 2.34333 0
M  V30 518 H 62.6821 -5.55249 1.01779 0
M  V30 519 N 62.0802 -0.821533 -1.34494 0
M  V30 520 C 63.4962 -0.507117 -1.51329 0
M  V30 521 C 63.6962 0.968964 -1.76673 0
M  V30 522 O 62.7522 1.75348 -1.81685 0
M  V30 523 C 64.0652 -1.36544 -2.67911 0
M  V30 524 C 65.6132 -1.36242 -2.81793 0
M  V30 525 C 66.0882 -2.2052 -4.01416 0
M  V30 526 N 67.5792 -2.18136 -4.08621 0
M  V30 527 C 68.3142 -2.80095 -5.00334 0
M  V30 528 N 67.8102 -3.51039 -5.9728 0
M  V30 529 N 69.6032 -2.69656 -4.93196 0
M  V30 530 H 61.7542 -1.77729 -1.16302 0
M  V30 531 H 64.0172 -0.757291 -0.570276 0
M  V30 532 H 63.7232 -2.41361 -2.55808 0
M  V30 533 H 63.5972 -1.02917 -3.62888 0
M  V30 534 H 65.9842 -0.322041 -2.93338 0
M  V30 535 H 66.0652 -1.73866 -1.87628 0
M  V30 536 H 65.7092 -3.24607 -3.90631 0
M  V30 537 H 65.6392 -1.80247 -4.94791 0
M  V30 538 H 68.1302 -1.6653 -3.39229 0
M  V30 539 H 68.4432 -3.95565 -6.63889 0
M  V30 540 H 66.7882 -3.55145 -5.97409 0
M  V30 541 H 69.9792 -2.13808 -4.16418 0
M  V30 542 H 70.1522 -3.1823 -5.64476 0
M  V30 543 N 63.5583 1.46682 -0.576371 0
M  V30 544 C 64.8353 1.95599 0.00703437 0
M  V30 545 C 65.2153 1.51904 1.46589 0
M  V30 546 O 64.5633 0.766755 2.15251 0
M  V30 547 C 64.7733 3.4864 -0.158404 0
M  V30 548 C 66.1213 4.24594 -0.0229439 0
M  V30 549 O 67.1453 3.56094 -0.0869173 0
M  V30 550 O 66.0043 5.46373 0.118015 0
M  V30 551 H 63.0983 0.825275 0.053384 0
M  V30 552 H 65.6443 1.56996 -0.644244 0
M  V30 553 H 64.4163 3.7331 -1.17282 0
M  V30 554 H 64.0393 3.94057 0.5296 0
M  V30 555 N 65.0364 0.313813 1.54444 0
M  V30 556 C 66.4524 -0.0391619 1.59552 0
M  V30 557 C 66.6524 -1.51322 1.33056 0
M  V30 558 O 65.7084 -2.26782 1.11022 0
M  V30 559 C 67.0214 0.370302 2.98411 0
M  V30 560 C 68.5694 0.320139 3.11358 0
M  V30 561 C 69.0444 0.704617 4.52547 0
M  V30 562 N 70.5354 0.657645 4.58508 0
M  V30 563 C 71.2704 0.927453 5.6585 0
M  V30 564 N 70.7664 1.26389 6.81174 0
M  V30 565 N 72.5594 0.853662 5.5558 0
M  V30 566 H 64.7104 1.27433 1.69925 0
M  V30 567 H 66.9734 0.517511 0.794284 0
M  V30 568 H 66.6794 1.39694 3.22767 0
M  V30 569 H 66.5534 -0.269619 3.76235 0
M  V30 570 H 68.9404 -0.697275 2.86744 0
M  V30 571 H 69.0214 0.99486 2.35661 0
M  V30 572 H 68.6654 1.7199 4.77893 0
M  V30 573 H 68.5954 0.00768843 5.26599 0
M  V30 574 H 71.0864 0.409067 3.75679 0
M  V30 575 H 71.3994 1.4554 7.58972 0
M  V30 576 H 69.7444 1.30206 6.82694 0
M  V30 577 H 72.9354 0.590383 4.64362 0
M  V30 578 H 73.1084 1.0673 6.3915 0
M  V30 579 N 66.5145 -1.57545 0.0417849 0
M  V30 580 C 67.9305 -1.56467 -0.314704 0
M  V30 581 C 68.1305 -1.04859 -1.72066 0
M  V30 582 O 67.1865 -0.700983 -2.42575 0
M  V30 583 C 68.4995 -3.00317 -0.15174 0
M  V30 584 C 70.0475 -3.12201 -0.223553 0
M  V30 585 C 70.5225 -4.57913 -0.0892295 0
M  V30 586 N 72.0135 -4.6297 -0.145808 0
M  V30 587 C 72.7485 -5.73362 -0.0658459 0
M  V30 588 N 72.2445 -6.92769 0.0659282 0
M  V30 589 N 74.0375 -5.6197 -0.12075 0
M  V30 590 H 66.1885 -1.89416 0.961014 0
M  V30 591 H 68.4515 -0.871862 0.372237 0
M  V30 592 H 68.1575 -3.42073 0.817254 0
M  V30 593 H 68.0315 -3.65892 -0.916692 0
M  V30 594 H 70.4185 -2.70349 -1.18301 0
M  V30 595 H 70.4995 -2.49323 0.571994 0
M  V30 596 H 70.1435 -5.00448 0.866867 0
M  V30 597 H 70.0735 -5.18786 -0.903802 0
M  V30 598 H 72.5645 -3.7709 -0.247286 0
M  V30 599 H 72.8775 -7.72707 0.119905 0
M  V30 600 H 71.2225 -6.94927 0.100885 0
M  V30 601 H 74.4135 -4.67572 -0.222187 0
M  V30 602 H 74.5865 -6.47977 -0.0549735 0
M  V30 603 N 67.9926 0.231505 -1.5589 0
M  V30 604 C 69.2176 0.978689 -1.82856 0
M  V30 605 C 69.6426 1.77559 -0.620846 0
M  V30 606 O 69.0006 1.76119 0.430305 0
M  V30 607 C 69.0486 1.87997 -3.07716 0
M  V30 608 O 68.1526 2.97393 -2.85712 0
M  V30 609 H 67.4936 0.277663 -0.603158 0
M  V30 610 H 70.0236 0.24783 -2.03093 0
M  V30 611 H 70.0336 2.2917 -3.37558 0
M  V30 612 H 68.7086 1.29417 -3.95252 0
M  V30 613 H 67.2856 2.60238 -2.67078 0
M  V30 614 N 69.4707 1.49531 0.497807 0
M  V30 615 C 70.7187 1.58865 1.24926 0
M  V30 616 C 71.0397 0.278721 1.92998 0
M  V30 617 O 70.3097 -0.702144 1.82885 0
M  V30 618 H 68.8897 0.585343 0.464094 0
M  V30 619 H 71.5517 1.86174 0.57666 0
M  V30 620 H 70.6477 2.38633 2.01149 0
M  V30 621 N 70.9488 -0.749086 1.3866 0
M  V30 622 C 72.1948 -1.51056 1.35314 0
M  V30 623 C 72.5278 -1.94121 -0.0553751 0
M  V30 624 O 71.8028 -1.65763 -1.01749 0
M  V30 625 C 72.0858 -2.76003 2.31288 0
M  V30 626 C 71.9388 -2.39047 3.8102 0
M  V30 627 C 73.2578 -3.78046 2.2532 0
M  V30 628 H 70.3768 -0.547972 0.492844 0
M  V30 629 H 73.0188 -0.857628 1.69543 0
M  V30 630 H 71.1688 -3.31716 2.02229 0
M  V30 631 H 72.8408 -1.89074 4.20771 0
M  V30 632 H 71.0838 -1.71449 3.98482 0
M  V30 633 H 71.7548 -3.28462 4.4364 0
M  V30 634 H 74.2308 -3.31884 2.50983 0
M  V30 635 H 73.1068 -4.63159 2.94576 0
M  V30 636 H 73.3678 -4.23957 1.25352 0
M  V30 637 N 72.4269 -1.23603 -0.977757 0
M  V30 638 C 73.3899 -1.02069 -2.05218 0
M  V30 639 C 74.3899 0.0184305 -1.60789 0
M  V30 640 O 75.5799 -0.221569 -1.72785 0
M  V30 641 C 72.7119 -0.544926 -3.36517 0
M  V30 642 H 73.9049 -1.9742 -2.25755 0
M  V30 643 H 71.4579 -1.05684 -1.15155 0
M  V30 644 H 72.1929 0.412241 -3.21669 0
M  V30 645 H 71.9779 -1.2948 -3.70105 0
M  V30 646 H 73.4679 -0.414985 -4.15533 0
M  V30 647 N 73.905 1.17692 -1.04816 0
M  V30 648 C 74.835 2.23777 -0.666791 0
M  V30 649 C 75.816 1.66796 0.33361 0
M  V30 650 O 77.001 1.93039 0.212042 0
M  V30 651 C 74.131 3.47281 -0.0367933 0
M  V30 652 C 73.085 4.17059 -0.961546 0
M  V30 653 C 72.411 5.34342 -0.195626 0
M  V30 654 C 73.711 4.69713 -2.28402 0
M  V30 655 H 75.405 2.55933 -1.55367 0
M  V30 656 H 72.951 1.23019 -0.748484 0
M  V30 657 H 74.904 4.20706 0.241775 0
M  V30 658 H 73.628 3.14381 0.885004 0
M  V30 659 H 72.287 3.45541 -1.22462 0
M  V30 660 H 71.935 4.97692 0.728816 0
M  V30 661 H 71.635 5.81966 -0.811775 0
M  V30 662 H 73.159 6.10553 0.0757473 0
M  V30 663 H 74.573 5.34794 -2.06563 0
M  V30 664 H 72.97 5.279 -2.8538 0
M  V30 665 H 74.04 3.86726 -2.92525 0
M  V30 666 N 75.3831 0.828654 1.34056 0
M  V30 667 C 76.7941 0.477534 1.8049 0
M  V30 668 C 77.1451 -1.00258 1.6865 0
M  V30 669 O 76.2701 -1.78057 1.22982 0
M  V30 670 C 76.8651 0.860018 3.27703 0
M  V30 671 C 75.4241 0.561185 3.72193 0
M  V30 672 C 74.5711 1.07385 2.55663 0
M  V30 673 H 77.5221 1.0183 1.21722 0
M  V30 674 H 77.5431 0.166038 3.80138 0
M  V30 675 H 77.0551 1.93731 3.36288 0
M  V30 676 H 75.1561 -0.506465 3.69142 0
M  V30 677 H 75.2691 1.10926 4.66082 0
M  V30 678 H 73.6331 0.495149 2.49841 0
M  V30 679 H 74.4161 2.15771 2.67016 0
M  V30 680 N 76.8612 -1.46375 0.584142 0
M  V30 681 C 78.1092 -2.01978 0.0701287 0
M  V30 682 C 78.4302 -1.4579 -1.295 0
M  V30 683 O 77.7002 -0.64314 -1.85042 0
M  V30 684 H 76.2802 -0.746648 0.0229345 0
M  V30 685 H 78.9422 -1.79461 0.760245 0
M  V30 686 H 78.0382 -3.121 0.0022064 0
M  V30 687 N 78.3393 -0.321999 -1.54275 0
M  V30 688 C 79.3023 0.531975 -2.22941 0
M  V30 689 C 80.3023 1.04478 -1.22234 0
M  V30 690 O 81.4923 0.937452 -1.46825 0
M  V30 691 C 78.6243 1.73874 -2.93224 0
M  V30 692 H 79.8173 -0.0682612 -2.99822 0
M  V30 693 H 77.3703 -0.0730644 -1.56129 0
M  V30 694 H 78.1053 2.37825 -2.20476 0
M  V30 695 H 77.8903 1.37847 -3.6707 0
M  V30 696 H 79.3803 2.34496 -3.45545 0
M  V30 697 N 79.8174 1.5752 -0.0501392 0
M  V30 698 C 80.7804 2.1037 0.909786 0
M  V30 699 C 81.7804 1.02308 1.24056 0
M  V30 700 O 82.9704 1.28385 1.17741 0
M  V30 701 C 80.1024 2.58708 2.21998 0
M  V30 702 H 81.2954 2.96479 0.451665 0
M  V30 703 H 78.8484 1.55038 0.198248 0
M  V30 704 H 79.5834 1.75989 2.72394 0
M  V30 705 H 79.3684 3.37675 1.99295 0
M  V30 706 H 80.8584 2.99747 2.9076 0
M  V30 707 N 81.2955 -0.223234 1.56011 0
M  V30 708 C 82.5435 -0.946003 1.78592 0
M  V30 709 C 82.8645 -1.84936 0.618349 0
M  V30 710 O 82.1345 -1.92473 -0.364833 0
M  V30 711 H 80.7145 -0.352298 0.658707 0
M  V30 712 H 83.3765 -0.235494 1.93472 0
M  V30 713 H 82.4725 -1.55381 2.70672 0
M  V30 714 N 82.7736 -1.49793 -0.48987 0
M  V30 715 C 84.0016 -1.63568 -1.26701 0
M  V30 716 C 84.4166 -0.311465 -1.86213 0
M  V30 717 O 83.7736 0.704416 -1.68357 0
M  V30 718 C 83.8246 -2.71284 -2.38929 0
M  V30 719 O 83.5456 -3.9857 -1.81861 0
M  V30 720 C 85.0466 -2.95864 -3.3012 0
M  V30 721 H 82.2666 -0.550342 -0.383881 0
M  V30 722 H 84.8106 -1.95898 -0.586864 0
M  V30 723 H 82.9656 -2.417 -3.02753 0
M  V30 724 H 83.3796 -4.57993 -2.55622 0
M  V30 725 H 84.8536 -3.74941 -4.05121 0
M  V30 726 H 85.3306 -2.06206 -3.87783 0
M  V30 727 H 85.9366 -3.26907 -2.72051 0
M  V30 728 N 84.2517 0.741722 -1.39055 0
M  V30 729 C 85.6627 1.31966 -1.32068 0
M  V30 730 C 86.0137 1.96192 0.0180797 0
M  V30 731 O 85.1387 1.95861 0.920196 0
M  V30 732 C 85.7337 2.39954 -2.39181 0
M  V30 733 C 84.2927 2.93438 -2.35735 0
M  V30 734 C 83.4397 1.66936 -2.21422 0
M  V30 735 H 86.3907 0.539721 -1.4924 0
M  V30 736 H 86.4117 3.20182 -2.05581 0
M  V30 737 H 85.9237 1.9318 -3.36605 0
M  V30 738 H 84.0247 3.4451 -1.41929 0
M  V30 739 H 84.1377 3.4701 -3.30335 0
M  V30 740 H 82.5017 1.91016 -1.68478 0
M  V30 741 H 83.2847 1.22224 -3.20806 0
M  V30 742 N 85.7298 1.2412 0.971189 0
M  V30 743 C 86.6928 1.03156 2.04674 0
M  V30 744 C 87.6928 -0.00990322 1.60797 0
M  V30 745 O 88.8828 0.230729 1.72665 0
M  V30 746 C 86.0148 0.562765 3.36223 0
M  V30 747 H 87.2078 1.98614 2.24705 0
M  V30 748 H 84.7608 1.06293 1.14593 0
M  V30 749 H 85.4958 -0.395176 3.21883 0
M  V30 750 H 85.2808 1.31441 3.69413 0
M  V30 751 H 86.7708 0.437015 4.15307 0
M  V30 752 N 87.2079 -1.17134 1.05439 0
M  V30 753 C 88.4849 -1.83411 0.679699 0
M  V30 754 C 88.8649 -1.9368 -0.839726 0
M  V30 755 O 88.2129 -1.47325 -1.74664 0
M  V30 756 C 88.4229 -3.20918 1.37159 0
M  V30 757 C 89.7709 -3.96796 1.51123 0
M  V30 758 O 90.7949 -3.30406 1.3308 0
M  V30 759 O 89.6539 -5.15778 1.80651 0
M  V30 760 H 86.7479 -0.79154 0.239569 0
M  V30 761 H 89.2939 -1.24411 1.15413 0
M  V30 762 H 88.0659 -3.08428 2.40807 0
M  V30 763 H 87.6889 -3.87587 0.886674 0
M  V30 764 N 88.686 -0.835752 -1.33615 0
M  V30 765 C 89.911 -0.442389 -2.02627 0
M  V30 766 C 90.336 0.947735 -1.62479 0
M  V30 767 O 89.694 1.61907 -0.815826 0
M  V30 768 C 89.742 -0.567216 -3.56111 0
M  V30 769 O 88.846 0.407799 -4.10379 0
M  V30 770 H 88.187 -0.180278 -0.639059 0
M  V30 771 H 90.717 -1.12972 -1.70583 0
M  V30 772 H 90.727 -0.447708 -4.05536 0
M  V30 773 H 89.402 -1.58103 -3.84677 0
M  V30 774 H 87.979 0.246107 -3.72087 0
M  V30 775 N 90.1641 1.46063 -0.591896 0
M  V30 776 C 91.0741 2.34192 0.13831 0
M  V30 777 C 92.0901 1.50305 0.876608 0
M  V30 778 O 93.2661 1.8315 0.837728 0
M  V30 779 C 90.3311 3.27656 1.13326 0
M  V30 780 C 89.3921 4.27445 0.39863 0
M  V30 781 C 88.6251 5.16443 1.34618 0
M  V30 782 O 88.8481 5.08553 2.58321 0
M  V30 783 O 87.7821 5.95843 0.851768 0
M  V30 784 H 91.6081 2.98002 -0.58552 0
M  V30 785 H 89.1931 1.45188 -0.352239 0
M  V30 786 H 91.0751 3.85291 1.70671 0
M  V30 787 H 89.7501 2.6643 1.83839 0
M  V30 788 H 88.6571 3.73471 -0.216895 0
M  V30 789 H 89.9901 4.91482 -0.265709 0
M  V30 790 N 91.6422 0.330177 1.54103 0
M  V30 791 C 92.6052 -0.520144 2.2322 0
M  V30 792 C 93.6052 -1.03828 1.22786 0
M  V30 793 O 94.7952 -0.929652 1.4732 0
M  V30 794 C 91.9272 -1.72317 2.94142 0
M  V30 795 H 93.1202 0.0841605 2.99782 0
M  V30 796 H 90.6732 0.0813433 1.56088 0
M  V30 797 H 91.4082 -2.36653 2.21734 0
M  V30 798 H 91.1932 -1.35898 3.67796 0
M  V30 799 H 92.6832 -2.3266 3.46784 0
M  V30 800 N 93.1203 -1.57491 0.0584922 0
M  V30 801 C 94.3683 -1.92597 -0.612436 0
M  V30 802 C 94.6893 -0.938162 -1.70949 0
M  V30 803 O 93.9593 0.0158301 -1.95894 0
M  V30 804 H 92.5393 -0.710964 -0.229214 0
M  V30 805 H 95.2013 -1.94571 0.113218 0
M  V30 806 H 94.2973 -2.94038 -1.04633 0
M  V30 807 N 94.5984 0.214957 -1.56127 0
M  V30 808 C 95.5284 1.2695 -1.95974 0
M  V30 809 C 96.5094 1.48539 -0.828868 0
M  V30 810 O 97.6944 1.60611 -1.09168 0
M  V30 811 C 94.8244 2.61794 -2.28214 0
M  V30 812 C 93.7784 2.54851 -3.43853 0
M  V30 813 C 93.1044 3.93785 -3.61715 0
M  V30 814 C 94.4044 2.09065 -4.78632 0
M  V30 815 H 96.0984 0.93846 -2.84312 0
M  V30 816 H 93.6444 0.449996 -1.36788 0
M  V30 817 H 95.5974 3.35731 -2.54682 0
M  V30 818 H 94.3214 2.96599 -1.36736 0
M  V30 819 H 92.9804 1.8337 -3.17444 0
M  V30 820 H 92.6284 4.25908 -2.67602 0
M  V30 821 H 92.3284 3.90019 -4.39498 0
M  V30 822 H 93.8524 4.69374 -3.90539 0
M  V30 823 H 95.2664 2.7275 -5.04262 0
M  V30 824 H 93.6634 2.16346 -5.59745 0
M  V30 825 H 94.7334 1.04315 -4.73547 0
M  V30 826 N 96.0765 1.50051 0.48192 0
M  V30 827 C 97.0065 1.71046 1.58951 0
M  V30 828 C 97.9875 0.559288 1.60642 0
M  V30 829 O 99.1725 0.797243 1.77081 0
M  V30 830 C 96.3025 1.79462 2.97339 0
M  V30 831 C 95.2565 2.94558 3.10515 0
M  V30 832 C 94.5825 2.88105 4.50444 0
M  V30 833 C 95.8825 4.35227 2.88747 0
M  V30 834 H 97.5765 2.6378 1.41635 0
M  V30 835 H 95.1225 1.26936 0.679942 0
M  V30 836 H 97.0755 1.92734 3.74742 0
M  V30 837 H 95.7995 0.833412 3.15788 0
M  V30 838 H 94.4585 2.80918 2.35543 0
M  V30 839 H 94.1065 1.89853 4.65795 0
M  V30 840 H 93.8065 3.65366 4.60197 0
M  V30 841 H 95.3305 3.03412 5.29881 0
M  V30 842 H 96.7445 4.49449 3.55905 0
M  V30 843 H 95.1415 5.13856 3.09955 0
M  V30 844 H 96.2115 4.48347 1.84696 0
M  V30 845 N 97.5546 -0.734337 1.39446 0
M  V30 846 C 98.4646 -1.87879 1.40495 0
M  V30 847 C 99.4806 -1.714 0.299672 0
M  V30 848 O 100.657 -1.93991 0.541249 0
M  V30 849 C 97.7216 -3.23477 1.24754 0
M  V30 850 C 96.7826 -3.52344 2.45259 0
M  V30 851 C 96.0156 -4.81473 2.30259 0
M  V30 852 O 96.2386 -5.55237 1.30643 0
M  V30 853 O 95.1726 -5.10254 3.19256 0
M  V30 854 H 98.9986 -1.89949 2.36966 0
M  V30 855 H 96.5836 -0.882243 1.20569 0
M  V30 856 H 98.4656 -4.04509 1.18111 0
M  V30 857 H 97.1406 -3.22176 0.313781 0
M  V30 858 H 96.0476 -2.71396 2.57478 0
M  V30 859 H 97.3806 -3.58426 3.37331 0
M  V30 860 N 99.0327 -1.24633 -0.964593 0
M  V30 861 C 99.9957 -1.0424 -2.04124 0
M  V30 862 C 100.996 0.00137563 -1.608 0
M  V30 863 O 102.186 -0.239883 -1.7254 0
M  V30 864 C 99.3177 -0.580588 -3.3592 0
M  V30 865 H 100.511 -1.99803 -2.23649 0
M  V30 866 H 98.0637 -1.06899 -1.14027 0
M  V30 867 H 98.7987 0.3781 -3.22088 0
M  V30 868 H 98.5837 -1.33398 -3.6871 0
M  V30 869 H 100.074 -0.459034 -4.15069 0
M  V30 870 N 100.511 1.16574 -1.06058 0
M  V30 871 C 101.474 2.19085 -0.673392 0
M  V30 872 C 102.474 1.5835 0.279648 0
M  V30 873 O 103.664 1.74088 0.0623488 0
M  V30 874 C 100.796 3.40899 0.00954234 0
M  V30 875 H 101.989 2.54853 -1.58081 0
M  V30 876 H 99.5418 1.30808 -0.855516 0
M  V30 877 H 100.277 3.10684 0.929826 0
M  V30 878 H 100.062 3.86233 -0.67573 0
M  V30 879 H 101.552 4.1675 0.266245 0
M  V30 880 N 101.989 0.842826 1.3317 0
M  V30 881 C 103.405 0.531128 1.50503 0
M  V30 882 C 103.605 -0.940734 1.78192 0
M  V30 883 O 102.661 -1.72436 1.84451 0
M  V30 884 C 103.974 1.40789 2.65705 0
M  V30 885 C 105.522 1.40708 2.79589 0
M  V30 886 C 105.997 2.26878 3.97857 0
M  V30 887 N 107.488 2.24609 4.05099 0
M  V30 888 C 108.223 2.88019 4.95815 0
M  V30 889 N 107.719 3.60496 5.9162 0
M  V30 890 N 109.512 2.77469 4.88843 0
M  V30 891 H 101.663 1.79557 1.1346 0
M  V30 892 H 103.926 0.766267 0.558156 0
M  V30 893 H 103.632 2.454 2.51936 0
M  V30 894 H 103.506 1.08677 3.61205 0
M  V30 895 H 105.893 0.368668 2.92788 0
M  V30 896 H 105.974 1.76829 1.84838 0
M  V30 897 H 105.618 3.3078 3.85418 0
M  V30 898 H 105.548 1.88096 4.91861 0
M  V30 899 H 108.039 1.71906 3.36536 0
M  V30 900 H 108.352 4.06076 6.57512 0
M  V30 901 H 106.697 3.64604 5.91683 0
M  V30 902 H 109.888 2.20406 4.12963 0
M  V30 903 H 110.061 3.2717 5.59342 0
M  V30 904 N 103.467 -1.45747 0.599634 0
M  V30 905 C 104.43 -2.28917 -0.113835 0
M  V30 906 C 105.43 -1.3933 -0.802729 0
M  V30 907 O 106.62 -1.61534 -0.652103 0
M  V30 908 C 103.752 -3.20152 -1.17114 0
M  V30 909 H 104.945 -2.93478 0.617289 0
M  V30 910 H 102.498 -1.52137 0.358327 0
M  V30 911 H 103.233 -2.60374 -1.93329 0
M  V30 912 H 103.018 -3.86133 -0.681468 0
M  V30 913 H 104.508 -3.82708 -1.67105 0
M  V30 914 N 104.945 -0.338344 -1.53925 0
M  V30 915 C 106.173 0.261298 -2.05243 0
M  V30 916 C 106.588 1.44625 -1.21363 0
M  V30 917 O 105.945 1.80811 -0.247736 0
M  V30 918 C 105.996 0.681412 -3.5502 0
M  V30 919 O 105.717 -0.456414 -4.35716 0
M  V30 920 C 107.218 1.34232 -4.22489 0
M  V30 921 H 104.438 0.0513685 -0.669031 0
M  V30 922 H 106.982 -0.488822 -1.98572 0
M  V30 923 H 105.137 1.38148 -3.61931 0
M  V30 924 H 105.551 -0.122564 -5.24357 0
M  V30 925 H 107.025 1.58708 -5.28693 0
M  V30 926 H 107.502 2.29426 -3.74514 0
M  V30 927 H 108.108 0.684424 -4.19757 0
M  V30 928 N 106.423 1.57458 -0.0668435 0
M  V30 929 C 107.834 1.80776 0.466558 0
M  V30 930 C 108.185 0.980361 1.69951 0
M  V30 931 O 107.31 0.201441 2.1546 0
M  V30 932 C 107.905 3.27881 0.85321 0
M  V30 933 C 106.464 3.52062 1.3315 0
M  V30 934 C 105.611 2.75513 0.314264 0
M  V30 935 H 108.562 1.5598 -0.292588 0
M  V30 936 H 108.583 3.39659 1.715 0
M  V30 937 H 108.095 3.88075 -0.0443439 0
M  V30 938 H 106.196 2.97167 2.24772 0
M  V30 939 H 106.309 4.60762 1.31285 0
M  V30 940 H 104.673 2.42123 0.790492 0
M  V30 941 H 105.456 3.38442 -0.575477 0
M  V30 942 N 107.901 -0.206675 1.56239 0
M  V30 943 C 109.317 -0.557025 1.49564 0
M  V30 944 C 109.517 -1.86424 0.764735 0
M  V30 945 O 108.573 -2.50584 0.310491 0
M  V30 946 C 109.886 -0.622478 2.94186 0
M  V30 947 C 111.434 -0.712099 3.04792 0
M  V30 948 C 111.909 -0.808767 4.50803 0
M  V30 949 N 113.4 -0.8726 4.54907 0
M  V30 950 C 114.135 -0.967365 5.65181 0
M  V30 951 N 113.631 -1.02515 6.85173 0
M  V30 952 N 115.424 -1.00366 5.53067 0
M  V30 953 H 107.575 0.650943 2.02179 0
M  V30 954 H 109.838 0.230387 0.919579 0
M  V30 955 H 109.544 0.268727 3.50672 0
M  V30 956 H 109.418 -1.4811 3.46905 0
M  V30 957 H 111.805 -1.59374 2.48363 0
M  V30 958 H 111.886 0.172489 2.55218 0
M  V30 959 H 111.53 0.0684754 5.07854 0
M  V30 960 H 111.46 -1.70899 4.98098 0
M  V30 961 H 113.951 -0.837657 3.68499 0
M  V30 962 H 114.264 -1.09765 7.64965 0
M  V30 963 H 112.609 -0.994026 6.87855 0
M  V30 964 H 115.8 -0.95527 4.58249 0
M  V30 965 H 115.973 -1.07405 6.39037 0
M  V30 966 N 109.379 -1.50304 -0.473955 0
M  V30 967 C 110.795 -1.37667 -0.807466 0
M  V30 968 C 110.995 -0.430555 -1.96846 0
M  V30 969 O 110.051 0.127874 -2.52176 0
M  V30 970 C 111.364 -2.78974 -1.12223 0
M  V30 971 C 112.912 -2.87868 -1.22885 0
M  V30 972 C 113.387 -4.30003 -1.57676 0
M  V30 973 N 114.878 -4.3294 -1.64673 0
M  V30 974 C 115.613 -5.3991 -1.93091 0
M  V30 975 N 115.109 -6.57092 -2.1955 0
M  V30 976 N 116.902 -5.27351 -1.94569 0
M  V30 977 H 109.053 -2.10394 0.291212 0
M  V30 978 H 111.316 -0.945575 0.0677609 0
M  V30 979 H 111.022 -3.50031 -0.342229 0
M  V30 980 H 110.896 -3.16038 -2.05913 0
M  V30 981 H 113.283 -2.17032 -1.99953 0
M  V30 982 H 113.364 -2.54352 -0.271814 0
M  V30 983 H 113.008 -5.01375 -0.81149 0
M  V30 984 H 112.938 -4.61004 -2.54525 0
M  V30 985 H 115.429 -3.48441 -1.46277 0
M  V30 986 H 115.742 -7.34425 -2.405 0
M  V30 987 H 114.087 -6.60272 -2.16948 0
M  V30 988 H 117.278 -4.34801 -1.73394 0
M  V30 989 H 117.451 -6.10805 -2.16381 0
M  V30 990 N 110.857 0.726932 -1.39834 0
M  V30 991 C 112.082 1.52121 -1.40976 0
M  V30 992 C 112.507 1.88098 -0.00826029 0
M  V30 993 O 111.865 1.52479 0.980807 0
M  V30 994 C 111.913 2.78021 -2.29644 0
M  V30 995 O 111.017 3.74272 -1.73188 0
M  V30 996 H 110.358 0.45908 -0.479731 0
M  V30 997 H 112.888 0.896207 -1.83927 0
M  V30 998 H 112.898 3.26671 -2.44438 0
M  V30 999 H 111.573 2.51169 -3.31492 0
M  V30 1000 H 110.15 3.33073 -1.6768 0
M  V30 1001 N 112.336 1.25143 0.95797 0
M  V30 1002 C 113.561 1.12521 1.74223 0
M  V30 1003 C 113.986 -0.317402 1.85403 0
M  V30 1004 O 113.344 -1.2299 1.33204 0
M  V30 1005 C 113.392 1.78062 3.1357 0
M  V30 1006 O 112.496 1.058 3.98598 0
M  V30 1007 H 111.837 0.39304 0.535178 0
M  V30 1008 H 114.367 1.65641 1.201 0
M  V30 1009 H 114.377 1.84213 3.64046 0
M  V30 1010 H 113.052 2.83021 3.04749 0
M  V30 1011 H 111.629 1.07506 3.57067 0
M  V30 1012 N 113.814 -1.1601 1.06675 0
M  V30 1013 C 115.063 -1.85973 0.780818 0
M  V30 1014 C 115.376 -1.82819 -0.695444 0
M  V30 1015 O 116.582 -2.484 -1.09589 0
M  V30 1016 C 115.038 -3.33757 1.34665 0
M  V30 1017 C 114.646 -3.45374 2.85343 0
M  V30 1018 C 116.39 -4.0895 1.13843 0
M  V30 1019 C 114.297 -4.87266 3.35151 0
M  V30 1020 H 113.227 -0.696661 0.288407 0
M  V30 1021 H 115.878 -1.30903 1.28595 0
M  V30 1022 H 114.26 -3.88456 0.769274 0
M  V30 1023 H 115.434 -3.00816 3.49065 0
M  V30 1024 H 113.749 -2.83619 3.04876 0
M  V30 1025 H 116.346 -5.13654 1.4854 0
M  V30 1026 H 116.689 -4.16229 0.0770282 0
M  V30 1027 H 117.222 -3.605 1.68179 0
M  V30 1028 H 113.961 -4.85168 4.40786 0
M  V30 1029 H 113.481 -5.32433 2.76179 0
M  V30 1030 H 115.16 -5.56097 3.30704 0
M  V30 1031 N 115.292 -0.849877 -1.32721 0
M  V30 1032 C 116.541 -0.447175 -1.96681 0
M  V30 1033 C 116.854 1.00135 -1.68025 0
M  V30 1034 O 118.06 1.50926 -2.25685 0
M  V30 1035 C 116.516 -0.7487 -3.52026 0
M  V30 1036 C 116.124 -2.21264 -3.89546 0
M  V30 1037 C 117.868 -0.413487 -4.22481 0
M  V30 1038 C 115.775 -2.45763 -5.37917 0
M  V30 1039 H 114.705 -0.163486 -0.736063 0
M  V30 1040 H 117.356 -1.03999 -1.51183 0
M  V30 1041 H 115.738 -0.0853727 -3.95908 0
M  V30 1042 H 116.912 -2.91736 -3.56689 0
M  V30 1043 H 115.227 -2.5119 -3.32103 0
M  V30 1044 H 117.824 -0.574017 -5.3161 0
M  V30 1045 H 118.167 0.644492 -4.11281 0
M  V30 1046 H 118.7 -1.03251 -3.84167 0
M  V30 1047 H 115.439 -3.50168 -5.54132 0
M  V30 1048 H 114.959 -1.79864 -5.72197 0
M  V30 1049 H 116.638 -2.29471 -6.0494 0
M  V30 1050 N 116.77 1.45427 -0.607355 0
M  V30 1051 C 117.717 2.3053 0.111625 0
M  V30 1052 C 118.687 1.4209 0.860216 0
M  V30 1053 O 119.872 1.71019 0.845998 0
M  V30 1054 C 117.012 3.26992 1.10319 0
M  V30 1055 C 116.125 4.30535 0.355493 0
M  V30 1056 C 115.26 5.14105 1.33676 0
M  V30 1057 C 114.299 6.09376 0.576862 0
M  V30 1058 N 113.436 6.85727 1.5074 0
M  V30 1059 H 118.276 2.91477 -0.620093 0
M  V30 1060 H 115.813 1.43631 -0.317594 0
M  V30 1061 H 117.771 3.81385 1.6912 0
M  V30 1062 H 116.401 2.67799 1.80232 0
M  V30 1063 H 115.453 3.78805 -0.348023 0
M  V30 1064 H 116.765 4.98235 -0.237423 0
M  V30 1065 H 115.919 5.72897 1.99684 0
M  V30 1066 H 114.658 4.46423 1.9636 0
M  V30 1067 H 113.663 5.49715 -0.0968519 0
M  V30 1068 H 114.888 6.79085 -0.0449341 0
M  V30 1069 H 112.834 6.20735 2.12189 0
M  V30 1070 H 112.751 7.49778 0.967913 0
M  V30 1071 H 114.019 7.4906 2.15706 0
M  V30 1072 N 118.248 0.346503 1.53744 0
M  V30 1073 C 119.525 -0.304532 1.93215 0
M  V30 1074 C 119.905 -1.67993 1.27834 0
M  V30 1075 O 119.253 -2.24411 0.430352 0
M  V30 1076 C 119.463 -0.373852 3.46992 0
M  V30 1077 C 120.811 -0.62329 4.2 0
M  V30 1078 O 121.835 -0.455847 3.53271 0
M  V30 1079 O 120.694 -0.947879 5.38217 0
M  V30 1080 H 117.788 -0.178318 0.807547 0
M  V30 1081 H 120.334 0.397895 1.64969 0
M  V30 1082 H 119.106 0.591224 3.86808 0
M  V30 1083 H 118.729 -1.12294 3.81413 0
M  V30 1084 N 119.726 -1.57421 0.075193 0
M  V30 1085 C 121.137 -1.81021 -0.456964 0
M  V30 1086 C 121.488 -0.98936 -1.69429 0
M  V30 1087 O 120.613 -0.212865 -2.15351 0
M  V30 1088 C 121.208 -3.28329 -0.83581 0
M  V30 1089 C 119.767 -3.52764 -1.31281 0
M  V30 1090 C 118.914 -2.75676 -0.299648 0
M  V30 1091 H 121.865 -1.55822 0.300856 0
M  V30 1092 H 121.886 -3.40564 -1.69696 0
M  V30 1093 H 121.398 -3.88046 0.0649238 0
M  V30 1094 H 119.499 -2.98355 -2.23193 0
M  V30 1095 H 119.612 -4.61451 -1.28839 0
M  V30 1096 H 117.976 -2.42538 -0.777641 0
M  V30 1097 H 118.759 -3.38132 0.593417 0
M  V30 1098 N 121.204 0.198386 -1.56346 0
M  V30 1099 C 122.429 0.939682 -1.84891 0
M  V30 1100 C 122.854 1.76202 -0.658369 0
M  V30 1101 O 122.212 1.76993 0.392851 0
M  V30 1102 C 122.26 1.81428 -3.11635 0
M  V30 1103 O 121.364 2.91265 -2.91956 0
M  V30 1104 H 120.705 0.264807 -0.608912 0
M  V30 1105 H 123.235 0.204695 -2.03573 0
M  V30 1106 H 123.245 2.21958 -3.42343 0
M  V30 1107 H 121.92 1.21004 -3.97908 0
M  V30 1108 H 120.497 2.54514 -2.72538 0
M  V30 1109 N 122.682 1.50554 0.465978 0
M  V30 1110 C 123.63 1.70324 1.58406 0
M  V30 1111 C 124.624 0.569139 1.59553 0
M  V30 1112 O 125.83 0.749776 1.63641 0
M  V30 1113 H 122.205 0.537688 0.525734 0
M  V30 1114 H 124.176 2.64104 1.38894 0
M  V30 1115 C 122.925 1.81928 2.96307 0
M  V30 1116 H 122.248 2.68586 2.96144 0
M  V30 1117 H 123.688 1.99784 3.73982 0
M  V30 1118 C 122.147 0.572095 3.32007 0
M  V30 1119 O 122.677 -0.286416 4.00678 0
M  V30 1120 N 120.883 0.424606 2.87481 0
M  V30 1121 H 120.43 1.12427 2.31771 0
M  V30 1122 H 120.388 -0.408697 3.11732 0
M  V30 1123 N 124.16 -0.719506 1.40217 0
M  V30 1124 C 125.092 -1.84428 1.36084 0
M  V30 1125 C 126.105 -1.60597 0.266913 0
M  V30 1126 O 127.294 -1.70544 0.526983 0
M  V30 1127 C 124.394 -3.20757 1.094 0
M  V30 1128 C 123.567 -3.71817 2.30372 0
M  V30 1129 C 122.626 -4.86748 1.99907 0
M  V30 1130 O 121.652 -4.99603 2.72737 0
M  V30 1131 N 122.854 -5.7226 0.974635 0
M  V30 1132 H 125.619 -1.88473 2.33019 0
M  V30 1133 H 123.18 -0.900885 1.3452 0
M  V30 1134 H 125.172 -3.95235 0.870116 0
M  V30 1135 H 123.742 -3.11884 0.211452 0
M  V30 1136 H 122.962 -2.88514 2.68614 0
M  V30 1137 H 124.25 -4.02666 3.11026 0
M  V30 1138 H 123.648 -5.6448 0.371368 0
M  V30 1139 H 122.205 -6.46739 0.810656 0
M  V30 1140 N 125.638 -1.25649 -0.95132 0
M  V30 1141 C 126.585 -1.06323 -2.04851 0
M  V30 1142 C 127.555 0.0286491 -1.66075 0
M  V30 1143 O 128.74 -0.12917 -1.90362 0
M  V30 1144 C 125.88 -0.691529 -3.381 0
M  V30 1145 C 124.993 -1.85861 -3.89974 0
M  V30 1146 C 124.128 -1.43096 -5.11563 0
M  V30 1147 C 123.167 -2.56696 -5.55674 0
M  V30 1148 N 122.304 -2.14684 -6.68472 0
M  V30 1149 H 127.144 -2.00222 -2.20715 0
M  V30 1150 H 124.681 -0.997027 -1.08156 0
M  V30 1151 H 126.639 -0.456963 -4.1469 0
M  V30 1152 H 125.269 0.210474 -3.22113 0
M  V30 1153 H 124.321 -2.20639 -3.09875 0
M  V30 1154 H 125.633 -2.71161 -4.18657 0
M  V30 1155 H 124.787 -1.15624 -5.9558 0
M  V30 1156 H 123.526 -0.548722 -4.84603 0
M  V30 1157 H 122.531 -2.84909 -4.7022 0
M  V30 1158 H 123.756 -3.45503 -5.8464 0
M  V30 1159 H 121.702 -1.28881 -6.43215 0
M  V30 1160 H 121.619 -2.9353 -6.96689 0
M  V30 1161 H 122.887 -1.90397 -7.5589 0
M  V30 1162 N 127.117 1.15442 -1.07289 0
M  V30 1163 C 128.357 1.8788 -0.805012 0
M  V30 1164 C 128.721 1.80413 0.656907 0
M  V30 1165 O 129.922 2.47874 1.0398 0
M  V30 1166 C 128.193 3.3298 -1.29843 0
M  V30 1167 S 129.752 4.23158 -1.16114 0
M  V30 1168 H 126.57 0.64839 -0.291739 0
M  V30 1169 H 129.172 1.39285 -1.37186 0
M  V30 1170 H 127.876 3.35958 -2.35712 0
M  V30 1171 H 127.407 3.86629 -0.726767 0
M  V30 1172 H 129.422 4.96103 -0.0982778 0
M  V30 1173 N 128.595 0.856903 1.32268 0
M  V30 1174 C 129.843 0.460474 1.96784 0
M  V30 1175 C 130.164 -0.987701 1.68135 0
M  V30 1176 O 129.434 -1.69058 0.989765 0
M  V30 1177 H 128.014 0.167289 0.728027 0
M  V30 1178 H 130.676 1.09383 1.61312 0
M  V30 1179 H 129.772 0.60739 3.06133 0
M  V30 1180 N 130.073 -1.45103 0.615059 0
M  V30 1181 C 131.321 -2.01784 0.112955 0
M  V30 1182 C 131.642 -1.48504 -1.26378 0
M  V30 1183 O 130.912 -0.682245 -1.83636 0
M  V30 1184 H 129.492 -0.745993 0.0387668 0
M  V30 1185 H 132.154 -1.77808 0.798141 0
M  V30 1186 H 131.25 -3.12025 0.0684069 0
M  V30 1187 N 131.551 -0.354651 -1.53558 0
M  V30 1188 C 132.967 -0.00315426 -1.596 0
M  V30 1189 C 133.167 1.47741 -1.37021 0
M  V30 1190 O 132.223 2.23759 -1.16996 0
M  V30 1191 C 133.536 -0.44929 -2.97325 0
M  V30 1192 C 135.084 -0.402578 -3.104 0
M  V30 1193 C 135.559 -0.824355 -4.5052 0
M  V30 1194 N 137.05 -0.778979 -4.56603 0
M  V30 1195 C 137.785 -1.07715 -5.63192 0
M  V30 1196 N 137.281 -1.44405 -6.77583 0
M  V30 1197 N 139.074 -1.00066 -5.53121 0
M  V30 1198 H 131.225 -1.31893 -1.66487 0
M  V30 1199 H 133.488 -0.538388 -0.780284 0
M  V30 1200 H 133.194 -1.48202 -3.1895 0
M  V30 1201 H 133.068 0.169772 -3.76818 0
M  V30 1202 H 135.455 0.621004 -2.88492 0
M  V30 1203 H 135.536 -1.05699 -2.32941 0
M  V30 1204 H 135.18 -1.846 -4.73165 0
M  V30 1205 H 135.11 -0.147304 -5.26394 0
M  V30 1206 H 137.601 -0.508528 -3.74463 0
M  V30 1207 H 137.914 -1.65612 -7.54846 0
M  V30 1208 H 136.259 -1.4826 -6.79002 0
M  V30 1209 H 139.45 -0.713293 -4.62633 0
M  V30 1210 H 139.623 -1.23638 -6.36096 0
M  V30 1211 N 133.029 1.57378 -0.0835403 0
M  V30 1212 C 133.976 2.13384 0.879539 0
M  V30 1213 C 134.946 1.04936 1.28754 0
M  V30 1214 O 136.131 1.32662 1.37133 0
M  V30 1215 C 133.271 2.70932 2.13752 0
M  V30 1216 C 132.384 3.93575 1.7811 0
M  V30 1217 C 131.519 4.39326 2.98607 0
M  V30 1218 C 130.558 5.54587 2.59037 0
M  V30 1219 N 129.695 5.95243 3.72331 0
M  V30 1220 H 134.535 2.9537 0.395076 0
M  V30 1221 H 132.072 1.45953 0.183349 0
M  V30 1222 H 134.03 3.02411 2.87408 0
M  V30 1223 H 132.66 1.91693 2.59718 0
M  V30 1224 H 131.712 3.68483 0.94469 0
M  V30 1225 H 133.024 4.77258 1.45005 0
M  V30 1226 H 132.178 4.72528 3.80529 0
M  V30 1227 H 130.917 3.5452 3.34913 0
M  V30 1228 H 129.922 5.21024 1.75539 0
M  V30 1229 H 131.147 6.41133 2.23887 0
M  V30 1230 H 129.093 5.13385 4.08378 0
M  V30 1231 H 129.01 6.73694 3.43034 0
M  V30 1232 H 130.278 6.33072 4.54797 0
M  V30 1233 N 134.507 -0.190092 1.56449 0
M  V30 1234 C 135.454 -1.23557 1.94942 0
M  V30 1235 C 136.424 -1.44972 0.810696 0
M  V30 1236 O 137.609 -1.58023 1.06927 0
M  V30 1237 C 134.749 -2.57416 2.2985 0
M  V30 1238 C 133.862 -2.43537 3.5681 0
M  V30 1239 C 132.997 -3.70134 3.81017 0
M  V30 1240 C 132.036 -3.51109 5.01387 0
M  V30 1241 N 131.173 -4.6973 5.21822 0
M  V30 1242 H 136.013 -0.900304 2.84075 0
M  V30 1243 H 133.55 -0.43318 1.40577 0
M  V30 1244 H 135.508 -3.35409 2.48106 0
M  V30 1245 H 134.138 -2.88975 1.43852 0
M  V30 1246 H 133.19 -1.56816 3.46573 0
M  V30 1247 H 134.502 -2.25415 4.4496 0
M  V30 1248 H 133.656 -4.56566 3.9954 0
M  V30 1249 H 132.395 -3.91215 2.91207 0
M  V30 1250 H 131.4 -2.63063 4.82782 0
M  V30 1251 H 132.625 -3.31468 5.9271 0
M  V30 1252 H 130.571 -4.91065 4.34961 0
M  V30 1253 H 130.488 -4.54452 6.0416 0
M  V30 1254 H 131.756 -5.57499 5.44808 0
M  V30 1255 N 135.985 -1.50799 -0.457987 0
M  V30 1256 C 137.213 -1.66218 -1.23203 0
M  V30 1257 C 137.628 -0.350894 -1.85511 0
M  V30 1258 O 136.985 0.668546 -1.69814 0
M  V30 1259 C 137.036 -2.76291 -2.33121 0
M  V30 1260 O 136.757 -4.02338 -1.73366 0
M  V30 1261 C 138.258 -3.028 -3.2377 0
M  V30 1262 H 135.478 -0.558361 -0.372121 0
M  V30 1263 H 138.022 -1.97099 -0.545179 0
M  V30 1264 H 136.177 -2.48068 -2.97558 0
M  V30 1265 H 136.591 -4.63312 -2.4585 0
M  V30 1266 H 138.065 -3.8345 -3.97077 0
M  V30 1267 H 138.542 -2.14385 -3.83322 0
M  V30 1268 H 139.148 -3.32604 -2.65056 0
M  V30 1269 N 137.463 0.71206 -1.40597 0
M  V30 1270 C 138.709 1.47416 -1.39271 0
M  V30 1271 C 139.042 1.942 0.00388791 0
M  V30 1272 O 138.317 1.68403 0.973179 0
M  V30 1273 C 138.6 2.69774 -2.38525 0
M  V30 1274 C 138.453 2.28861 -3.87224 0
M  V30 1275 C 139.772 3.71939 -2.35264 0
M  V30 1276 H 136.891 0.534713 -0.5072 0
M  V30 1277 H 139.533 0.812375 -1.71757 0
M  V30 1278 H 137.683 3.26238 -2.10953 0
M  V30 1279 H 139.355 1.77852 -4.25636 0
M  V30 1280 H 137.598 1.60824 -4.02887 0
M  V30 1281 H 138.269 3.16584 -4.52193 0
M  V30 1282 H 140.745 3.25113 -2.59694 0
M  V30 1283 H 139.621 4.55186 -3.06753 0
M  V30 1284 H 139.882 4.20484 -1.36549 0
M  V30 1285 N 138.941 1.26152 0.944643 0
M  V30 1286 C 140.166 1.14363 1.7302 0
M  V30 1287 C 140.591 -0.29772 1.85729 0
M  V30 1288 O 139.949 -1.2157 1.34501 0
M  V30 1289 C 139.997 1.81378 3.11664 0
M  V30 1290 O 139.101 1.10022 3.97453 0
M  V30 1291 H 138.442 0.398694 0.53098 0
M  V30 1292 H 140.972 1.66906 1.18337 0
M  V30 1293 H 140.982 1.88064 3.62072 0
M  V30 1294 H 139.657 2.86237 3.0173 0
M  V30 1295 H 138.234 1.11287 3.55907 0
M  V30 1296 N 140.419 -1.14872 1.07899 0
M  V30 1297 C 141.666 -1.85789 0.805532 0
M  V30 1298 C 141.994 -1.82649 -0.668561 0
M  V30 1299 O 141.249 -1.24858 -1.50695 0
M  V30 1300 C 141.548 -3.34223 1.26609 0
M  V30 1301 C 141.214 -3.57555 2.74709 0
M  V30 1302 C 139.876 -3.63631 3.1516 0
M  V30 1303 C 142.228 -3.66803 3.70277 0
M  V30 1304 C 139.556 -3.76473 4.49983 0
M  V30 1305 C 141.908 -3.8117 5.04869 0
M  V30 1306 C 140.572 -3.85494 5.44932 0
M  V30 1307 H 139.842 -0.679849 0.294765 0
M  V30 1308 H 142.489 -1.3572 1.35101 0
M  V30 1309 H 140.794 -3.86536 0.640103 0
M  V30 1310 H 142.491 -3.87511 1.03132 0
M  V30 1311 H 139.081 -3.5347 2.42398 0
M  V30 1312 H 143.265 -3.61404 3.40149 0
M  V30 1313 H 138.521 -3.7808 4.80484 0
M  V30 1314 H 142.695 -3.87268 5.78789 0
M  V30 1315 H 140.322 -3.95197 6.49403 0
M  V30 1316 N 141.898 -0.863906 -1.31812 0
M  V30 1317 C 143.123 -0.48527 -2.01643 0
M  V30 1318 C 143.548 0.913058 -1.64453 0
M  V30 1319 O 142.906 1.6014 -0.849985 0
M  V30 1320 C 142.954 -0.642625 -3.54828 0
M  V30 1321 O 142.058 0.320659 -4.11151 0
M  V30 1322 H 141.399 -0.193793 -0.635091 0
M  V30 1323 H 143.929 -1.16565 -1.68148 0
M  V30 1324 H 143.939 -0.533628 -4.04495 0
M  V30 1325 H 142.614 -1.66227 -3.81237 0
M  V30 1326 H 141.191 0.167126 -3.72525 0
M  V30 1327 N 143.376 1.44774 -0.622745 0
M  V30 1328 C 144.601 2.06999 -0.128968 0
M  V30 1329 C 145.026 1.4617 1.1839 0
M  V30 1330 O 144.384 0.560007 1.72434 0
M  V30 1331 C 144.432 3.60595 -0.0188351 0
M  V30 1332 O 143.536 3.99398 1.02739 0
M  V30 1333 H 142.877 0.659047 -0.0809544 0
M  V30 1334 H 145.407 1.85784 -0.85705 0
M  V30 1335 H 145.417 4.07627 0.174476 0
M  V30 1336 H 144.092 4.04252 -0.977384 0
M  V30 1337 H 142.669 3.64011 0.809326 0
M  V30 1338 N 144.854 0.36279 1.53368 0
M  V30 1339 C 145.787 -0.528507 2.21996 0
M  V30 1340 C 146.765 -1.0852 1.21087 0
M  V30 1341 O 147.949 -1.14186 1.4998 0
M  V30 1342 C 145.076 -1.72893 2.91249 0
M  V30 1343 C 144.122 -1.29994 4.06207 0
M  V30 1344 S 144.955 -0.303575 5.34639 0
M  V30 1345 C 146.111 -1.51039 6.07403 0
M  V30 1346 H 146.344 0.0543423 2.9725 0
M  V30 1347 H 143.877 0.146889 1.537 0
M  V30 1348 H 145.835 -2.41751 3.31763 0
M  V30 1349 H 144.496 -2.28303 2.15724 0
M  V30 1350 H 143.689 -2.19549 4.53667 0
M  V30 1351 H 143.291 -0.690608 3.67569 0
M  V30 1352 H 145.583 -2.44186 6.31965 0
M  V30 1353 H 146.526 -1.07721 6.99858 0
M  V30 1354 H 146.934 -1.71518 5.37812 0
M  V30 1355 N 146.332 -1.57332 0.0918853 0
M  V30 1356 C 147.743 -1.81496 -0.437739 0
M  V30 1357 C 148.094 -1.00727 -1.6837 0
M  V30 1358 O 147.219 -0.235694 -2.15113 0
M  V30 1359 C 147.814 -3.29197 -0.800939 0
M  V30 1360 C 146.373 -3.54136 -1.27532 0
M  V30 1361 C 145.52 -2.75979 -0.270392 0
M  V30 1362 H 148.471 -1.55494 0.317366 0
M  V30 1363 H 148.492 -3.42344 -1.66074 0
M  V30 1364 H 148.004 -3.87955 0.106078 0
M  V30 1365 H 146.105 -3.00705 -2.20016 0
M  V30 1366 H 146.218 -4.62792 -1.23938 0
M  V30 1367 H 144.582 -2.43349 -0.751872 0
M  V30 1368 H 145.365 -3.37484 0.629248 0
M  V30 1369 N 147.81 0.181792 -1.56548 0
M  V30 1370 C 149.035 0.920019 -1.85877 0
M  V30 1371 C 149.46 1.75494 -0.677021 0
M  V30 1372 O 148.818 1.77399 0.374056 0
M  V30 1373 C 148.866 1.78112 -3.13542 0
M  V30 1374 O 147.97 2.88152 -2.95029 0
M  V30 1375 H 147.311 0.258334 -0.611686 0
M  V30 1376 H 149.841 0.183092 -2.03779 0
M  V30 1377 H 149.851 2.18314 -3.44678 0
M  V30 1378 H 148.526 1.16777 -3.99169 0
M  V30 1379 H 147.103 2.51609 -2.75222 0
M  V30 1380 N 149.288 1.51039 0.449983 0
M  V30 1381 C 150.198 1.74261 1.57067 0
M  V30 1382 C 151.214 0.626363 1.62335 0
M  V30 1383 O 152.39 0.907162 1.79812 0
M  V30 1384 C 149.455 1.85114 2.93144 0
M  V30 1385 C 148.516 3.0893 2.98095 0
M  V30 1386 C 147.749 3.19256 4.27681 0
M  V30 1387 O 147.972 2.35835 5.19363 0
M  V30 1388 O 146.906 4.12144 4.38658 0
M  V30 1389 H 150.732 2.69303 1.40391 0
M  V30 1390 H 148.317 1.35389 0.631688 0
M  V30 1391 H 150.199 1.94311 3.73926 0
M  V30 1392 H 148.874 0.932588 3.09975 0
M  V30 1393 H 147.781 3.0522 2.16314 0
M  V30 1394 H 149.114 4.00433 2.86206 0
M  V30 1395 N 150.766 -0.704594 1.40972 0
M  V30 1396 C 151.713 -1.81862 1.42109 0
M  V30 1397 C 152.683 -1.63781 0.276593 0
M  V30 1398 O 153.868 -1.84759 0.4763 0
M  V30 1399 C 151.008 -3.19669 1.30022 0
M  V30 1400 C 150.121 -3.49246 2.54267 0
M  V30 1401 C 149.256 -4.76618 2.3454 0
M  V30 1402 C 148.295 -4.99133 3.54306 0
M  V30 1403 N 147.432 -6.17726 3.33706 0
M  V30 1404 H 152.272 -1.80226 2.37324 0
M  V30 1405 H 149.809 -0.880238 1.17857 0
M  V30 1406 H 151.767 -3.99263 1.21018 0
M  V30 1407 H 150.397 -3.20506 0.384192 0
M  V30 1408 H 149.449 -2.64125 2.73756 0
M  V30 1409 H 150.761 -3.61788 3.43381 0
M  V30 1410 H 149.915 -5.64249 2.22952 0
M  V30 1411 H 148.654 -4.66305 1.42867 0
M  V30 1412 H 147.659 -4.09953 3.66359 0
M  V30 1413 H 148.884 -5.11311 4.4692 0
M  V30 1414 H 146.83 -6.08642 2.44725 0
M  V30 1415 H 146.747 -6.30995 4.16391 0
M  V30 1416 H 148.015 -7.08115 3.25873 0
M  V30 1417 N 152.244 -1.26651 -0.937939 0
M  V30 1418 C 153.191 -1.0849 -2.03712 0
M  V30 1419 C 154.161 0.011033 -1.66096 0
M  V30 1420 O 155.346 -0.149353 -1.90215 0
M  V30 1421 C 152.486 -0.72735 -3.37348 0
M  V30 1422 C 151.599 -1.89986 -3.87981 0
M  V30 1423 C 150.734 -1.48513 -5.10017 0
M  V30 1424 C 149.773 -2.62575 -5.5292 0
M  V30 1425 N 148.91 -2.21762 -6.66158 0
M  V30 1426 H 153.75 -2.02551 -2.18579 0
M  V30 1427 H 151.287 -1.00844 -1.07093 0
M  V30 1428 H 153.245 -0.50092 -4.14182 0
M  V30 1429 H 151.875 0.176298 -3.22318 0
M  V30 1430 H 150.927 -2.23913 -3.07518 0
M  V30 1431 H 152.239 -2.75586 -4.15757 0
M  V30 1432 H 151.393 -1.21934 -5.94321 0
M  V30 1433 H 150.132 -0.60009 -4.83994 0
M  V30 1434 H 149.137 -2.8988 -4.67172 0
M  V30 1435 H 150.362 -3.51685 -5.80943 0
M  V30 1436 H 148.308 -1.35696 -6.41812 0
M  V30 1437 H 148.225 -3.00903 -6.93537 0
M  V30 1438 H 149.493 -1.98403 -7.53828 0
M  V30 1439 N 153.722 1.14298 -1.08507 0
M  V30 1440 C 154.971 1.84708 -0.810305 0
M  V30 1441 C 155.284 1.83903 0.666271 0
M  V30 1442 O 156.49 2.50112 1.05624 0
M  V30 1443 C 154.946 3.31572 -1.39957 0
M  V30 1444 C 154.554 3.40791 -2.90801 0
M  V30 1445 C 156.298 4.07087 -1.20334 0
M  V30 1446 C 154.205 4.81872 -3.4286 0
M  V30 1447 H 153.135 0.691985 -0.299454 0
M  V30 1448 H 155.786 1.28841 -1.30661 0
M  V30 1449 H 154.168 3.87183 -0.830976 0
M  V30 1450 H 155.342 2.95225 -3.53806 0
M  V30 1451 H 153.657 2.78732 -3.0935 0
M  V30 1452 H 156.254 5.11225 -1.56693 0
M  V30 1453 H 156.597 4.16054 -0.143237 0
M  V30 1454 H 157.13 3.57779 -1.73893 0
M  V30 1455 H 153.869 4.78094 -4.48449 0
M  V30 1456 H 153.389 5.27972 -2.84615 0
M  V30 1457 H 155.068 5.50765 -3.39509 0
M  V30 1458 N 155.201 0.870884 1.31352 0
M  V30 1459 C 156.426 0.495957 2.01383 0
M  V30 1460 C 156.851 -0.904324 1.64935 0
M  V30 1461 O 156.209 -1.59687 0.858466 0
M  V30 1462 C 156.257 0.661433 3.54482 0
M  V30 1463 O 155.361 -0.298851 4.11316 0
M  V30 1464 H 154.702 0.197158 0.634054 0
M  V30 1465 H 157.232 1.17455 1.67527 0
M  V30 1466 H 157.242 0.555072 4.04207 0
M  V30 1467 H 155.917 1.68246 3.8035 0
M  V30 1468 H 154.494 -0.147368 3.72609 0
M  V30 1469 N 156.679 -1.44442 0.630414 0
M  V30 1470 C 157.904 -2.06927 0.139944 0
M  V30 1471 C 158.329 -1.46795 -1.17613 0
M  V30 1472 O 157.687 -0.569144 -1.72135 0
M  V30 1473 C 157.735 -3.6058 0.0379581 0
M  V30 1474 O 156.839 -3.99937 -1.0062 0
M  V30 1475 H 156.18 -0.658608 0.0844483 0
M  V30 1476 H 158.71 -1.85327 0.866891 0
M  V30 1477 H 158.72 -4.07714 -0.152856 0
M  V30 1478 H 157.395 -4.03728 0.998809 0
M  V30 1479 H 155.972 -3.64436 -0.79001 0
M  V30 1480 N 158.157 -0.370918 -1.53173 0
M  V30 1481 C 159.12 0.460778 -2.24521 0
M  V30 1482 C 160.12 1.00536 -1.25496 0
M  V30 1483 O 161.31 0.890266 -1.49733 0
M  V30 1484 C 158.442 1.64457 -2.98608 0
M  V30 1485 H 159.635 -0.163613 -2.99453 0
M  V30 1486 H 157.188 -0.122699 -1.55818 0
M  V30 1487 H 157.923 2.30691 -2.2793 0
M  V30 1488 H 157.708 1.26099 -3.7127 0
M  V30 1489 H 159.198 2.23384 -3.5283 0
M  V30 1490 N 159.635 1.57281 -0.100228 0
M  V30 1491 C 160.583 2.15542 0.874328 0
M  V30 1492 C 161.577 1.09962 1.28859 0
M  V30 1493 O 162.783 1.28298 1.26252 0
M  V30 1494 H 159.158 0.689567 0.300003 0
M  V30 1495 H 161.129 2.96241 0.35829 0
M  V30 1496 C 159.878 2.75454 2.1218 0
M  V30 1497 H 159.201 3.56384 1.81193 0
M  V30 1498 H 160.641 3.19781 2.78417 0
M  V30 1499 C 159.1 1.71602 2.89921 0
M  V30 1500 O 159.63 1.15804 3.84646 0
M  V30 1501 N 157.836 1.41975 2.53558 0
M  V30 1502 H 157.383 1.87539 1.76598 0
M  V30 1503 H 157.341 0.727274 3.05873 0
M  V30 1504 N 161.113 -0.173488 1.56642 0
M  V30 1505 C 162.39 -0.917617 1.7274 0
M  V30 1506 C 162.77 -2.00484 0.661027 0
M  V30 1507 O 162.118 -2.26184 -0.32453 0
M  V30 1508 C 162.328 -1.48433 3.15862 0
M  V30 1509 C 163.676 -1.95809 3.76754 0
M  V30 1510 O 164.7 -1.58231 3.19126 0
M  V30 1511 O 163.559 -2.65024 4.77938 0
M  V30 1512 H 160.653 -0.431772 0.705338 0
M  V30 1513 H 163.199 -0.161487 1.6893 0
M  V30 1514 H 161.971 -0.701715 3.84957 0
M  V30 1515 H 161.594 -2.30471 3.23989 0
M  V30 1516 N 162.591 -1.51276 -0.441967 0
M  V30 1517 C 163.831 -1.65372 -1.20132 0
M  V30 1518 C 164.195 -0.359871 -1.88597 0
M  V30 1519 O 165.396 -0.376551 -2.66149 0
M  V30 1520 C 163.667 -2.8207 -2.1948 0
M  V30 1521 S 165.226 -3.16467 -3.03964 0
M  V30 1522 H 162.044 -0.582669 -0.407453 0
M  V30 1523 H 164.646 -1.89166 -0.493609 0
M  V30 1524 H 163.35 -3.74523 -1.67812 0
M  V30 1525 H 162.881 -2.6045 -2.94838 0
M  V30 1526 H 164.896 -2.62543 -4.21053 0
M  V30 1527 N 164.069 0.697108 -1.41344 0
M  V30 1528 C 165.318 1.45279 -1.39918 0
M  V30 1529 C 165.631 1.95597 -0.0109624 0
M  V30 1530 O 166.837 2.71208 0.125919 0
M  V30 1531 C 165.293 2.62695 -2.46007 0
M  V30 1532 C 164.901 2.19169 -3.90729 0
M  V30 1533 C 166.645 3.40336 -2.53715 0
M  V30 1534 C 164.552 3.33535 -4.88373 0
M  V30 1535 H 163.482 0.545692 -0.520323 0
M  V30 1536 H 166.133 0.756929 -1.67161 0
M  V30 1537 H 164.515 3.34541 -2.11892 0
M  V30 1538 H 165.689 1.54623 -4.34083 0
M  V30 1539 H 164.004 1.54525 -3.86666 0
M  V30 1540 H 166.601 4.2547 -3.2385 0
M  V30 1541 H 166.944 3.85418 -1.5735 0
M  V30 1542 H 167.477 2.75546 -2.86913 0
M  V30 1543 H 164.216 2.93468 -5.86137 0
M  V30 1544 H 163.736 3.96936 -4.49668 0
M  V30 1545 H 165.415 3.99335 -5.09059 0
M  V30 1546 N 165.547 1.27147 0.931209 0
M  V30 1547 C 166.772 1.16191 1.71797 0
M  V30 1548 C 167.197 -0.278004 1.86034 0
M  V30 1549 O 166.555 -1.20137 1.35782 0
M  V30 1550 C 166.603 1.84673 3.09723 0
M  V30 1551 O 165.707 1.14231 3.96264 0
M  V30 1552 H 165.048 0.404303 0.526721 0
M  V30 1553 H 167.578 1.68152 1.1656 0
M  V30 1554 H 167.588 1.91893 3.60057 0
M  V30 1555 H 166.263 2.89421 2.98677 0
M  V30 1556 H 164.84 1.15056 3.54706 0
M  V30 1557 N 167.025 -1.13721 1.09112 0
M  V30 1558 C 168.272 -1.84924 0.825192 0
M  V30 1559 C 168.6 -1.83347 -0.649151 0
M  V30 1560 O 167.855 -1.26449 -1.49362 0
M  V30 1561 C 168.154 -3.32861 1.30146 0
M  V30 1562 C 167.82 -3.54621 2.78486 0
M  V30 1563 C 166.482 -3.60268 3.18999 0
M  V30 1564 C 168.834 -3.62855 3.74146 0
M  V30 1565 C 166.162 -3.71679 4.53951 0
M  V30 1566 C 168.514 -3.75793 5.08883 0
M  V30 1567 C 167.178 -3.79692 5.4899 0
M  V30 1568 H 166.448 -0.676684 0.301959 0
M  V30 1569 H 169.095 -1.3428 1.36533 0
M  V30 1570 H 167.4 -3.85835 0.681064 0
M  V30 1571 H 169.097 -3.86395 1.07236 0
M  V30 1572 H 165.687 -3.50879 2.46134 0
M  V30 1573 H 169.871 -3.57775 3.43963 0
M  V30 1574 H 165.127 -3.72963 4.84467 0
M  V30 1575 H 169.301 -3.81107 5.82864 0
M  V30 1576 H 166.928 -3.88287 6.53558 0
M  V30 1577 N 168.503 -0.877838 -1.30888 0
M  V30 1578 C 169.436 -0.283995 -2.26426 0
M  V30 1579 C 170.414 0.591361 -1.51465 0
M  V30 1580 O 171.598 0.54304 -1.80509 0
M  V30 1581 C 168.725 0.597129 -3.33395 0
M  V30 1582 C 167.771 -0.207937 -4.25993 0
M  V30 1583 S 168.604 -1.59158 -5.11301 0
M  V30 1584 C 169.76 -0.716791 -6.21782 0
M  V30 1585 H 169.993 -1.09383 -2.76446 0
M  V30 1586 H 167.526 -0.676828 -1.38775 0
M  V30 1587 H 169.484 1.09978 -3.95493 0
M  V30 1588 H 168.145 1.38099 -2.82113 0
M  V30 1589 H 167.338 0.464163 -5.01858 0
M  V30 1590 H 166.94 -0.642963 -3.68432 0
M  V30 1591 H 169.232 0.0692833 -6.77465 0
M  V30 1592 H 170.175 -1.44682 -6.93161 0
M  V30 1593 H 170.583 -0.280855 -5.63801 0
M  V30 1594 N 169.982 1.44106 -0.638065 0
M  V30 1595 C 170.914 2.28976 0.101205 0
M  V30 1596 C 171.927 1.4167 0.802088 0
M  V30 1597 O 173.116 1.65755 0.662375 0
M  V30 1598 C 170.216 3.18217 1.16581 0
M  V30 1599 C 169.389 4.33978 0.546066 0
M  V30 1600 C 168.448 5.04202 1.50554 0
M  V30 1601 O 167.474 5.59986 1.01999 0
M  V30 1602 N 168.676 5.06296 2.8398 0
M  V30 1603 H 171.441 2.93064 -0.627186 0
M  V30 1604 H 169.002 1.54629 -0.479731 0
M  V30 1605 H 170.994 3.62061 1.80815 0
M  V30 1606 H 169.564 2.55833 1.79634 0
M  V30 1607 H 168.784 3.93239 -0.275046 0
M  V30 1608 H 170.072 5.08675 0.112793 0
M  V30 1609 H 169.47 4.62319 3.26002 0
M  V30 1610 H 168.027 5.53907 3.43556 0
M  V30 1611 N 171.46 0.379036 1.52974 0
M  V30 1612 C 172.423 -0.448865 2.24762 0
M  V30 1613 C 173.423 -0.998689 1.26027 0
M  V30 1614 O 174.613 -0.882313 1.50203 0
M  V30 1615 C 171.745 -1.62872 2.99476 0
M  V30 1616 H 172.938 0.179491 2.99362 0
M  V30 1617 H 170.491 0.13096 1.5575 0
M  V30 1618 H 171.226 -2.29479 2.29151 0
M  V30 1619 H 171.011 -1.24128 3.71934 0
M  V30 1620 H 172.501 -2.2151 3.5401 0
M  V30 1621 N 172.938 -1.57226 0.108567 0
M  V30 1622 C 174.186 -1.94448 -0.550853 0
M  V30 1623 C 174.507 -0.992074 -1.67878 0
M  V30 1624 O 173.777 -0.0465 -1.95845 0
M  V30 1625 H 172.357 -0.717897 -0.206479 0
M  V30 1626 H 175.019 -1.94112 0.175062 0
M  V30 1627 H 174.115 -2.97218 -0.952259 0
M  V30 1628 N 174.416 0.165178 -1.56732 0
M  V30 1629 C 175.656 0.887231 -1.8414 0
M  V30 1630 C 176.02 1.79159 -0.690353 0
M  V30 1631 O 177.221 2.55172 -0.845032 0
M  V30 1632 C 175.492 1.65674 -3.16681 0
M  V30 1633 S 177.051 2.42671 -3.6559 0
M  V30 1634 H 173.869 0.297042 -0.645978 0
M  V30 1635 H 176.471 0.148439 -1.94936 0
M  V30 1636 H 175.175 0.983507 -3.98441 0
M  V30 1637 H 174.706 2.43679 -3.08843 0
M  V30 1638 H 176.721 3.67499 -3.33406 0
M  V30 1639 N 175.894 1.51508 0.433938 0
M  V30 1640 C 176.804 1.75917 1.5521 0
M  V30 1641 C 177.82 0.643545 1.61662 0
M  V30 1642 O 178.996 0.926183 1.7884 0
M  V30 1643 C 176.061 1.88213 2.91164 0
M  V30 1644 C 175.122 3.12074 2.94802 0
M  V30 1645 C 174.355 3.23774 4.24271 0
M  V30 1646 O 174.578 2.4133 5.16833 0
M  V30 1647 O 173.512 4.16774 4.34262 0
M  V30 1648 H 177.338 2.70777 1.37527 0
M  V30 1649 H 174.923 1.36051 0.617293 0
M  V30 1650 H 176.805 1.98267 3.71845 0
M  V30 1651 H 175.48 0.965413 3.08968 0
M  V30 1652 H 174.387 3.07497 2.13065 0
M  V30 1653 H 175.72 4.03446 2.81943 0
M  V30 1654 N 177.372 -0.689602 1.41712 0
M  V30 1655 C 178.302 -1.81577 1.46806 0
M  V30 1656 C 179.283 -1.66945 0.326105 0
M  V30 1657 O 180.468 -1.86588 0.538377 0
M  V30 1658 C 177.598 -3.19762 1.35535 0
M  V30 1659 C 176.552 -3.49107 2.47605 0
M  V30 1660 C 175.878 -4.86711 2.21397 0
M  V30 1661 C 177.178 -3.47483 3.89939 0
M  V30 1662 H 178.872 -1.7757 2.41058 0
M  V30 1663 H 176.418 -0.852887 1.16025 0
M  V30 1664 H 178.371 -3.98263 1.3771 0
M  V30 1665 H 177.095 -3.24409 0.377708 0
M  V30 1666 H 175.754 -2.72959 2.44722 0
M  V30 1667 H 175.402 -4.8799 1.21961 0
M  V30 1668 H 175.102 -5.0731 2.96497 0
M  V30 1669 H 176.626 -5.67515 2.25297 0
M  V30 1670 H 178.04 -4.1598 3.94505 0
M  V30 1671 H 176.437 -3.79615 4.64771 0
M  V30 1672 H 177.507 -2.46341 4.17665 0
M  V30 1673 N 178.85 -1.27639 -0.924453 0
M  V30 1674 C 179.797 -1.10644 -2.0255 0
M  V30 1675 C 180.767 -0.00658438 -1.66099 0
M  V30 1676 O 181.952 -0.16952 -1.90045 0
M  V30 1677 C 179.092 -0.76309 -3.36557 0
M  V30 1678 C 178.205 -1.94091 -3.85944 0
M  V30 1679 C 177.34 -1.53914 -5.08413 0
M  V30 1680 C 176.379 -2.68425 -5.50104 0
M  V30 1681 N 175.516 -2.28815 -6.63768 0
M  V30 1682 H 180.356 -2.04858 -2.16419 0
M  V30 1683 H 177.893 -1.01974 -1.06017 0
M  V30 1684 H 179.851 -0.544822 -4.13627 0
M  V30 1685 H 178.481 0.142102 -3.22487 0
M  V30 1686 H 177.533 -2.27162 -3.05125 0
M  V30 1687 H 178.845 -2.7998 -4.12811 0
M  V30 1688 H 177.999 -1.28231 -5.92994 0
M  V30 1689 H 176.738 -0.651391 -4.8333 0
M  V30 1690 H 175.743 -2.94819 -4.64071 0
M  V30 1691 H 176.968 -3.57826 -5.7718 0
M  V30 1692 H 174.914 -1.42495 -6.40337 0
M  V30 1693 H 174.831 -3.08242 -6.90306 0
M  V30 1694 H 176.099 -2.06387 -7.51681 0
M  V30 1695 N 180.328 1.1314 -1.09713 0
M  V30 1696 C 181.275 2.18642 -0.739196 0
M  V30 1697 C 182.245 1.63706 0.280978 0
M  V30 1698 O 183.43 1.90111 0.161946 0
M  V30 1699 C 180.57 3.44685 -0.169102 0
M  V30 1700 C 179.683 4.13711 -1.24367 0
M  V30 1701 C 178.818 5.27379 -0.636019 0
M  V30 1702 C 177.857 5.88259 -1.69169 0
M  V30 1703 N 176.994 6.93352 -1.10485 0
M  V30 1704 H 181.834 2.48607 -1.64312 0
M  V30 1705 H 179.371 1.22066 -0.820875 0
M  V30 1706 H 181.329 4.16815 0.179256 0
M  V30 1707 H 179.959 3.15161 0.698079 0
M  V30 1708 H 179.011 3.39835 -1.70927 0
M  V30 1709 H 180.323 4.55037 -2.04311 0
M  V30 1710 H 179.477 6.06238 -0.236677 0
M  V30 1711 H 178.216 4.8731 0.194928 0
M  V30 1712 H 177.221 5.08092 -2.10055 0
M  V30 1713 H 178.446 6.30399 -2.52536 0
M  V30 1714 H 176.392 6.55335 -0.295234 0
M  V30 1715 H 176.309 7.33236 -1.84121 0
M  V30 1716 H 177.577 7.76057 -0.73181 0
M  V30 1717 N 181.806 0.884767 1.30421 0
M  V30 1718 C 183.052 0.503851 1.96441 0
M  V30 1719 C 183.385 -0.944518 1.69684 0
M  V30 1720 O 182.66 -1.66737 1.00145 0
M  V30 1721 C 182.943 0.779085 3.51571 0
M  V30 1722 C 182.796 2.27807 3.87846 0
M  V30 1723 C 184.115 0.255452 4.39358 0
M  V30 1724 H 181.234 0.184533 0.713524 0
M  V30 1725 H 183.876 1.10872 1.54297 0
M  V30 1726 H 182.026 0.264274 3.876 0
M  V30 1727 H 183.698 2.86127 3.61841 0
M  V30 1728 H 181.941 2.74479 3.35922 0
M  V30 1729 H 182.612 2.42125 4.96064 0
M  V30 1730 H 185.088 0.696079 4.10236 0
M  V30 1731 H 183.964 0.477361 5.4682 0
M  V30 1732 H 184.225 -0.843293 4.33983 0
M  V30 1733 N 183.284 -1.43765 0.645699 0
M  V30 1734 C 184.7 -1.56509 0.312591 0
M  V30 1735 C 184.9 -1.6307 -1.18365 0
M  V30 1736 O 183.956 -1.58167 -1.96824 0
M  V30 1737 C 185.269 -2.82968 1.01733 0
M  V30 1738 C 186.817 -2.96701 0.996865 0
M  V30 1739 C 187.292 -4.25982 1.68236 0
M  V30 1740 N 188.783 -4.32829 1.64964 0
M  V30 1741 C 189.518 -5.31613 2.14885 0
M  V30 1742 N 189.014 -6.36718 2.73061 0
M  V30 1743 N 190.807 -5.23217 2.05428 0
M  V30 1744 H 182.958 -1.3775 1.61675 0
M  V30 1745 H 185.221 -0.661067 0.679481 0
M  V30 1746 H 184.927 -2.84156 2.0724 0
M  V30 1747 H 184.801 -3.72957 0.564177 0
M  V30 1748 H 187.188 -2.95058 -0.0497719 0
M  V30 1749 H 187.269 -2.08022 1.48865 0
M  V30 1750 H 186.913 -4.28386 2.72852 0
M  V30 1751 H 186.843 -5.13545 1.16529 0
M  V30 1752 H 189.334 -3.57493 1.22503 0
M  V30 1753 H 189.647 -7.08401 3.08848 0
M  V30 1754 H 187.992 -6.37362 2.77118 0
M  V30 1755 H 191.183 -4.40019 1.59689 0
M  V30 1756 H 191.356 -6.00045 2.44643 0
M  V30 1757 N 184.763 -0.387143 -1.52771 0
M  V30 1758 C 186.174 0.0873634 -1.86495 0
M  V30 1759 C 186.525 1.46336 -1.30691 0
M  V30 1760 O 185.65 2.068 -0.637409 0
M  V30 1761 C 186.245 0.165305 -3.38396 0
M  V30 1762 C 184.804 0.584101 -3.7184 0
M  V30 1763 C 183.951 -0.255279 -2.76122 0
M  V30 1764 H 186.902 -0.605104 -1.46711 0
M  V30 1765 H 186.923 0.984848 -3.67534 0
M  V30 1766 H 186.435 -0.836301 -3.78982 0
M  V30 1767 H 184.536 1.59315 -3.36823 0
M  V30 1768 H 184.649 0.343749 -4.77865 0
M  V30 1769 H 183.013 0.279126 -2.53166 0
M  V30 1770 H 183.796 -1.25482 -3.19545 0
M  V30 1771 N 186.241 1.57166 -0.116904 0
M  V30 1772 C 187.189 2.16457 0.851418 0
M  V30 1773 C 188.183 1.11323 1.27686 0
M  V30 1774 O 189.389 1.2963 1.24884 0
M  V30 1775 H 185.764 0.69271 0.292672 0
M  V30 1776 H 187.735 2.96605 0.32685 0
M  V30 1777 C 186.484 2.77689 2.09246 0
M  V30 1778 H 185.807 3.58285 1.77402 0
M  V30 1779 H 187.247 3.22716 2.7501 0
M  V30 1780 C 185.706 1.74667 2.88085 0
M  V30 1781 O 186.236 1.19877 3.83396 0
M  V30 1782 N 184.442 1.44656 2.52038 0
M  V30 1783 H 183.989 1.89402 1.74599 0
M  V30 1784 H 183.947 0.759675 3.05084 0
M  V30 1785 N 187.719 -0.156864 1.56817 0
M  V30 1786 C 188.944 -0.890331 1.87318 0
M  V30 1787 C 189.369 -1.74394 0.704855 0
M  V30 1788 O 188.727 -1.77972 -0.345786 0
M  V30 1789 C 188.775 -1.73102 3.16336 0
M  V30 1790 O 187.879 -2.83422 2.99576 0
M  V30 1791 H 187.22 -0.24857 0.615718 0
M  V30 1792 H 189.75 -0.150649 2.04045 0
M  V30 1793 H 189.76 -2.12803 3.48107 0
M  V30 1794 H 188.435 -1.10412 4.00976 0
M  V30 1795 H 187.012 -2.47199 2.7919 0
M  V30 1796 N 189.197 -1.51736 -0.425897 0
M  V30 1797 C 190.613 -1.40166 -0.76326 0
M  V30 1798 C 190.813 -0.492962 -1.95377 0
M  V30 1799 O 189.869 0.0475815 -2.52455 0
M  V30 1800 C 191.182 -2.82403 -1.03291 0
M  V30 1801 C 192.73 -2.91632 -1.13665 0
M  V30 1802 C 193.205 -4.34801 -1.43916 0
M  V30 1803 N 194.696 -4.3796 -1.50816 0
M  V30 1804 C 195.431 -5.4578 -1.75817 0
M  V30 1805 N 194.927 -6.63744 -1.98534 0
M  V30 1806 N 196.72 -5.33274 -1.77694 0
M  V30 1807 H 188.871 -2.09361 0.358 0
M  V30 1808 H 191.134 -0.942941 0.0978094 0
M  V30 1809 H 190.84 -3.50943 -0.230696 0
M  V30 1810 H 190.714 -3.22428 -1.95754 0
M  V30 1811 H 193.101 -2.23284 -1.92947 0
M  V30 1812 H 193.182 -2.55088 -0.190756 0
M  V30 1813 H 192.826 -5.03703 -0.65157 0
M  V30 1814 H 192.756 -4.68868 -2.39729 0
M  V30 1815 H 195.247 -3.52919 -1.35118 0
M  V30 1816 H 195.56 -7.41704 -2.17013 0
M  V30 1817 H 193.905 -6.66839 -1.95832 0
M  V30 1818 H 197.096 -4.40098 -1.59473 0
M  V30 1819 H 197.269 -6.1738 -1.9684 0
M  V30 1820 N 190.675 0.682077 -1.42076 0
M  V30 1821 C 191.924 1.43786 -1.41451 0
M  V30 1822 C 192.237 1.95574 -0.0317074 0
M  V30 1823 O 193.443 2.71326 0.0971462 0
M  V30 1824 C 191.899 2.60071 -2.48779 0
M  V30 1825 C 191.507 2.15013 -3.93031 0
M  V30 1826 C 193.251 3.37626 -2.57311 0
M  V30 1827 C 191.158 3.28336 -4.91883 0
M  V30 1828 H 190.088 0.540143 -0.526082 0
M  V30 1829 H 192.739 0.739157 -1.67955 0
M  V30 1830 H 191.121 3.32275 -2.15429 0
M  V30 1831 H 192.295 1.5001 -4.35699 0
M  V30 1832 H 190.61 1.50416 -3.88284 0
M  V30 1833 H 193.207 4.22012 -3.28345 0
M  V30 1834 H 193.55 3.83727 -1.61429 0
M  V30 1835 H 194.083 2.72488 -2.89819 0
M  V30 1836 H 190.822 2.87234 -5.89217 0
M  V30 1837 H 190.342 3.92145 -4.53853 0
M  V30 1838 H 192.021 3.93913 -5.13265 0
M  V30 1839 N 192.153 1.28127 0.917671 0
M  V30 1840 C 193.383 1.17722 1.6978 0
M  V30 1841 C 193.791 -0.267261 1.87303 0
M  V30 1842 O 193.134 -1.19286 1.39702 0
M  V30 1843 C 193.196 1.79958 3.11216 0
M  V30 1844 C 192.86 3.29187 3.16993 0
M  V30 1845 C 193.857 4.25679 2.98485 0
M  V30 1846 C 191.542 3.70075 3.39632 0
M  V30 1847 C 193.536 5.61035 3.02521 0
M  V30 1848 C 191.223 5.05557 3.433 0
M  V30 1849 C 192.221 6.00847 3.24764 0
M  V30 1850 O 191.909 7.33859 3.28187 0
M  V30 1851 H 191.641 0.409788 0.537634 0
M  V30 1852 H 194.195 1.69694 1.15728 0
M  V30 1853 H 192.425 1.22475 3.66793 0
M  V30 1854 H 194.114 1.64125 3.71238 0
M  V30 1855 H 194.88 3.95426 2.80826 0
M  V30 1856 H 190.759 2.96373 3.53106 0
M  V30 1857 H 194.303 6.35388 2.87971 0
M  V30 1858 H 190.2 5.35462 3.60486 0
M  V30 1859 H 190.968 7.42436 3.44575 0
M  V30 1860 N 193.631 -1.12557 1.10312 0
M  V30 1861 C 194.579 -2.20325 0.745629 0
M  V30 1862 C 195.573 -1.67429 -0.25763 0
M  V30 1863 O 196.779 -1.79612 -0.118132 0
M  V30 1864 H 193.154 -0.718118 0.223182 0
M  V30 1865 H 195.125 -2.47733 1.66346 0
M  V30 1866 C 193.874 -3.47168 0.192262 0
M  V30 1867 H 193.197 -3.88215 0.955475 0
M  V30 1868 H 194.637 -4.23995 -0.0198274 0
M  V30 1869 C 193.096 -3.19298 -1.07472 0
M  V30 1870 O 193.626 -3.3891 -2.15645 0
M  V30 1871 N 191.832 -2.73113 -0.992847 0
M  V30 1872 H 191.379 -2.57354 -0.112474 0
M  V30 1873 H 191.337 -2.54842 -1.84127 0
M  V30 1874 N 195.109 -0.891671 -1.2995 0
M  V30 1875 C 196.525 -0.58662 -1.48428 0
M  V30 1876 C 196.725 0.873951 -1.81561 0
M  V30 1877 O 195.781 1.65471 -1.90724 0
M  V30 1878 C 197.094 -1.50553 -2.60296 0
M  V30 1879 C 198.642 -1.50988 -2.74175 0
M  V30 1880 C 199.117 -2.41488 -3.89163 0
M  V30 1881 N 200.608 -2.39489 -3.96483 0
M  V30 1882 C 201.343 -3.06223 -4.84784 0
M  V30 1883 N 200.839 -3.82206 -5.77833 0
M  V30 1884 N 202.632 -2.95421 -4.78208 0
M  V30 1885 H 194.783 -1.83644 -1.06718 0
M  V30 1886 H 197.046 -0.786455 -0.529332 0
M  V30 1887 H 196.752 -2.54581 -2.42654 0
M  V30 1888 H 196.626 -1.22008 -3.56923 0
M  V30 1889 H 199.013 -0.47708 -2.91218 0
M  V30 1890 H 199.094 -1.83567 -1.78148 0
M  V30 1891 H 198.738 -3.44857 -3.72876 0
M  V30 1892 H 198.668 -2.06222 -4.84541 0
M  V30 1893 H 201.159 -1.84278 -3.29924 0
M  V30 1894 H 201.472 -4.302 -6.41988 0
M  V30 1895 H 199.817 -3.86313 -5.77743 0
M  V30 1896 H 203.008 -2.35581 -4.04499 0
M  V30 1897 H 203.181 -3.47704 -5.46814 0
M  V30 1898 N 196.587 1.43421 -0.653314 0
M  V30 1899 C 197.834 2.01812 -0.166745 0
M  V30 1900 C 198.162 1.51535 1.21931 0
M  V30 1901 O 197.417 0.698975 1.82792 0
M  V30 1902 C 197.716 3.57176 -0.126623 0
M  V30 1903 C 197.382 4.26798 -1.45444 0
M  V30 1904 C 196.044 4.45534 -1.81805 0
M  V30 1905 C 198.396 4.66225 -2.32989 0
M  V30 1906 C 195.724 5.00961 -3.05377 0
M  V30 1907 C 198.076 5.23021 -3.55853 0
M  V30 1908 C 196.74 5.39973 -3.9241 0
M  V30 1909 H 196.01 0.738484 -0.0610162 0
M  V30 1910 H 198.657 1.71896 -0.84404 0
M  V30 1911 H 196.962 3.86634 0.634123 0
M  V30 1912 H 198.659 4.00112 0.266723 0
M  V30 1913 H 195.249 4.12561 -1.16153 0
M  V30 1914 H 199.433 4.51443 -2.06187 0
M  V30 1915 H 194.689 5.12271 -3.3375 0
M  V30 1916 H 198.863 5.52518 -4.23907 0
M  V30 1917 H 196.49 5.82687 -4.88242 0
M  V30 1918 N 198.065 0.39524 1.52563 0
M  V30 1919 C 199.312 -0.185044 2.01653 0
M  V30 1920 C 199.64 -1.46317 1.28146 0
M  V30 1921 O 198.895 -1.9213 0.372074 0
M  V30 1922 C 199.194 -0.493444 3.53977 0
M  V30 1923 C 198.86 0.69384 4.4553 0
M  V30 1924 C 197.522 1.01954 4.70275 0
M  V30 1925 C 199.874 1.48785 4.99512 0
M  V30 1926 C 197.202 2.14069 5.46252 0
M  V30 1927 C 199.554 2.59965 5.76716 0
M  V30 1928 C 198.218 2.93037 5.99738 0
M  V30 1929 H 197.488 -0.0677123 0.7379 0
M  V30 1930 H 200.135 0.533807 1.8391 0
M  V30 1931 H 198.44 -1.29369 3.69825 0
M  V30 1932 H 200.137 -0.955163 3.89458 0
M  V30 1933 H 196.727 0.429987 4.26438 0
M  V30 1934 H 200.911 1.24946 4.80315 0
M  V30 1935 H 196.167 2.40056 5.62302 0
M  V30 1936 H 200.341 3.21887 6.17545 0
M  V30 1937 H 197.968 3.8003 6.58393 0
M  V30 1938 N 199.544 -1.57102 0.125237 0
M  V30 1939 C 200.772 -1.99761 -0.538797 0
M  V30 1940 C 201.187 -1.00503 -1.59827 0
M  V30 1941 O 200.544 0.00119474 -1.825 0
M  V30 1942 C 200.595 -3.42408 -1.15927 0
M  V30 1943 O 200.316 -4.37869 -0.142143 0
M  V30 1944 C 201.817 -4.00232 -1.90602 0
M  V30 1945 H 199.037 -0.655772 -0.14214 0
M  V30 1946 H 201.581 -2.03383 0.213413 0
M  V30 1947 H 199.736 -3.39706 -1.86223 0
M  V30 1948 H 200.15 -5.21128 -0.593775 0
M  V30 1949 H 201.624 -5.02105 -2.29335 0
M  V30 1950 H 202.101 -3.39721 -2.78363 0
M  V30 1951 H 202.707 -4.06499 -1.25055 0
M  V30 1952 N 201.022 0.148545 -1.56898 0
M  V30 1953 C 201.952 1.18524 -2.01182 0
M  V30 1954 C 202.933 1.4489 -0.891123 0
M  V30 1955 O 204.118 1.55836 -1.15882 0
M  V30 1956 C 201.248 2.51879 -2.39112 0
M  V30 1957 C 200.202 2.40038 -3.54353 0
M  V30 1958 C 199.528 3.78089 -3.78091 0
M  V30 1959 C 200.828 1.88577 -4.87069 0
M  V30 1960 H 202.522 0.817029 -2.88036 0
M  V30 1961 H 200.068 0.391575 -1.38574 0
M  V30 1962 H 202.021 3.24627 -2.68692 0
M  V30 1963 H 200.745 2.90532 -1.49193 0
M  V30 1964 H 199.404 1.69742 -3.24936 0
M  V30 1965 H 199.052 4.14175 -2.85426 0
M  V30 1966 H 198.752 3.71028 -4.55645 0
M  V30 1967 H 200.276 4.52387 -4.10095 0
M  V30 1968 H 201.69 2.51117 -5.15377 0
M  V30 1969 H 200.087 1.9241 -5.68417 0
M  V30 1970 H 201.157 0.84136 -4.77545 0
M  V30 1971 N 202.5 1.5196 0.417844 0
M  V30 1972 C 203.777 1.56146 1.17803 0
M  V30 1973 C 204.157 0.337275 2.08388 0
M  V30 1974 O 203.505 -0.676447 2.18258 0
M  V30 1975 C 203.715 2.88566 1.96293 0
M  V30 1976 C 205.063 3.41244 2.52662 0
M  V30 1977 O 206.087 2.90247 2.06483 0
M  V30 1978 O 204.946 4.30273 3.36938 0
M  V30 1979 H 202.04 0.628598 0.537395 0
M  V30 1980 H 204.586 1.64283 0.425331 0
M  V30 1981 H 203.358 3.69116 1.2988 0
M  V30 1982 H 202.981 2.83681 2.78587 0
M  V30 1983 N 203.978 -0.674533 1.42435 0
M  V30 1984 C 205.206 -1.46283 1.46317 0
M  V30 1985 C 205.621 -1.88653 0.0745836 0
M  V30 1986 O 204.978 -1.58151 -0.91074 0
M  V30 1987 C 205.029 -2.71178 2.3905 0
M  V30 1988 O 204.75 -2.30586 3.72507 0
M  V30 1989 C 206.251 -3.64738 2.51955 0
M  V30 1990 H 203.471 -0.450104 0.497642 0
M  V30 1991 H 206.015 -0.828792 1.86953 0
M  V30 1992 H 204.17 -3.3077 2.01667 0
M  V30 1993 H 204.584 -3.11241 4.22172 0
M  V30 1994 H 206.058 -4.49096 3.20962 0
M  V30 1995 H 206.535 -4.10656 1.55752 0
M  V30 1996 H 207.141 -3.11038 2.90061 0
M  V30 1997 N 205.456 -1.28612 -0.910864 0
M  V30 1998 C 206.733 -1.06632 -1.63979 0
M  V30 1999 C 207.113 0.393351 -2.07403 0
M  V30 2000 O 206.461 1.37999 -1.82122 0
M  V30 2001 C 206.671 -2.0436 -2.8291 0
M  V30 2002 C 208.019 -2.34666 -3.5386 0
M  V30 2003 O 209.043 -2.02467 -2.93062 0
M  V30 2004 O 207.902 -2.89631 -4.63439 0
M  V30 2005 H 204.996 -0.407737 -0.7195 0
M  V30 2006 H 207.542 -1.39942 -0.959914 0
M  V30 2007 H 206.314 -3.02727 -2.47936 0
M  V30 2008 H 205.937 -1.71714 -3.58609 0
M  V30 2009 N 206.934 1.1197 -1.10907 0
M  V30 2010 C 207.864 2.19928 -0.784473 0
M  V30 2011 C 208.845 1.6833 0.244726 0
M  V30 2012 O 210.03 1.93892 0.109418 0
M  V30 2013 C 207.16 3.46597 -0.220827 0
M  V30 2014 C 206.114 4.11376 -1.18127 0
M  V30 2015 C 205.44 5.32554 -0.478594 0
M  V30 2016 C 206.74 4.56945 -2.52979 0
M  V30 2017 H 208.434 2.47337 -1.68715 0
M  V30 2018 H 205.98 1.18879 -0.812642 0
M  V30 2019 H 207.933 4.21396 0.0184278 0
M  V30 2020 H 206.657 3.1863 0.717113 0
M  V30 2021 H 205.316 3.38564 -1.40606 0
M  V30 2022 H 204.964 5.00856 0.463976 0
M  V30 2023 H 204.664 5.76844 -1.11912 0
M  V30 2024 H 206.188 6.10096 -0.248 0
M  V30 2025 H 207.602 5.23093 -2.3462 0
M  V30 2026 H 205.999 5.1203 -3.12962 0
M  V30 2027 H 207.069 3.70676 -3.12614 0
M  V30 2028 N 208.412 0.89855 1.29475 0
M  V30 2029 C 209.344 0.332726 2.26772 0
M  V30 2030 C 210.357 -0.520323 1.54261 0
M  V30 2031 O 211.546 -0.337668 1.75277 0
M  V30 2032 C 208.646 -0.544334 3.345 0
M  V30 2033 C 207.819 0.282728 4.36485 0
M  V30 2034 C 206.878 -0.526982 5.23555 0
M  V30 2035 O 205.904 0.0551165 5.69173 0
M  V30 2036 N 207.106 -1.83331 5.5079 0
M  V30 2037 H 209.871 1.16897 2.75962 0
M  V30 2038 H 207.432 0.762919 1.42798 0
M  V30 2039 H 209.424 -1.09239 3.89678 0
M  V30 2040 H 207.994 -1.28127 2.85136 0
M  V30 2041 H 207.214 1.01221 3.80983 0
M  V30 2042 H 208.502 0.84918 5.01664 0
M  V30 2043 H 207.9 -2.32898 5.15534 0
M  V30 2044 H 206.457 -2.32852 6.08788 0
M  V30 2045 N 209.89 -1.43072 0.660911 0
M  V30 2046 C 210.853 -2.29194 -0.0166406 0
M  V30 2047 C 211.853 -1.42609 -0.742912 0
M  V30 2048 O 213.043 -1.64155 -0.583004 0
M  V30 2049 C 210.175 -3.24831 -1.0343 0
M  V30 2050 H 211.368 -2.90596 0.741208 0
M  V30 2051 H 208.921 -1.5048 0.422532 0
M  V30 2052 H 209.656 -2.68339 -1.82111 0
M  V30 2053 H 209.441 -3.88676 -0.517082 0
M  V30 2054 H 210.931 -3.89451 -1.50723 0
M  V30 2055 N 211.368 -0.403325 -1.52352 0
M  V30 2056 C 212.298 0.416205 -2.29761 0
M  V30 2057 C 213.279 1.05123 -1.33728 0
M  V30 2058 O 214.464 1.06134 -1.62632 0
M  V30 2059 C 211.594 1.53624 -3.11475 0
M  V30 2060 C 210.548 1.02653 -4.15507 0
M  V30 2061 C 209.874 2.23971 -4.85532 0
M  V30 2062 C 211.174 0.08463 -5.22231 0
M  V30 2063 H 212.868 -0.229701 -2.98518 0
M  V30 2064 H 210.414 -0.111913 -1.43564 0
M  V30 2065 H 212.367 2.1165 -3.64393 0
M  V30 2066 H 211.091 2.20994 -2.40477 0
M  V30 2067 H 209.75 0.46871 -3.63591 0
M  V30 2068 H 209.398 2.89883 -4.11068 0
M  V30 2069 H 209.098 1.90521 -5.55856 0
M  V30 2070 H 210.622 2.82614 -5.41259 0
M  V30 2071 H 212.036 0.573509 -5.70424 0
M  V30 2072 H 210.433 -0.160783 -5.99885 0
M  V30 2073 H 211.503 -0.86237 -4.7717 0
M  V30 2074 N 212.846 1.57033 -0.133567 0
M  V30 2075 C 214.262 1.58035 0.222944 0
M  V30 2076 C 214.462 1.14713 1.6566 0
M  V30 2077 O 213.518 0.841218 2.38075 0
M  V30 2078 C 214.831 3.00691 -0.0236116 0
M  V30 2079 C 216.379 3.12973 0.0411512 0
M  V30 2080 C 216.854 4.57654 -0.177899 0
M  V30 2081 N 218.345 4.63033 -0.124365 0
M  V30 2082 C 219.08 5.72771 -0.268553 0
M  V30 2083 N 218.576 6.91206 -0.46972 0
M  V30 2084 N 220.369 5.61718 -0.2071 0
M  V30 2085 H 212.52 1.8349 -1.06981 0
M  V30 2086 H 214.783 0.848677 -0.422436 0
M  V30 2087 H 214.489 3.36726 -1.0153 0
M  V30 2088 H 214.363 3.70614 0.701808 0
M  V30 2089 H 216.75 2.76787 1.02338 0
M  V30 2090 H 216.831 2.45564 -0.716383 0
M  V30 2091 H 216.475 4.94542 -1.15717 0
M  V30 2092 H 216.405 5.23173 0.599797 0
M  V30 2093 H 218.896 3.7789 0.027011 0
M  V30 2094 H 219.209 7.70693 -0.570212 0
M  V30 2095 H 217.554 6.93156 -0.505876 0
M  V30 2096 H 220.745 4.68072 -0.0507986 0
M  V30 2097 H 220.918 6.47195 -0.322909 0
M  V30 2098 N 214.325 -0.140222 1.56975 0
M  V30 2099 C 215.571 -0.848084 1.84876 0
M  V30 2100 C 215.926 -1.78481 0.718481 0
M  V30 2101 O 215.219 -1.89497 -0.283093 0
M  V30 2102 C 215.413 -1.65386 3.16832 0
M  V30 2103 C 215.242 -0.79665 4.42587 0
M  V30 2104 C 214.012 -0.459648 5.03205 0
M  V30 2105 C 216.21 -0.12389 5.14151 0
M  V30 2106 N 214.192 0.410446 6.12526 0
M  V30 2107 C 215.563 0.606064 6.17031 0
M  V30 2108 C 217.618 -0.0452654 4.97879 0
M  V30 2109 C 216.321 1.40723 7.054 0
M  V30 2110 C 218.347 0.742658 5.86718 0
M  V30 2111 C 217.709 1.46087 6.89085 0
M  V30 2112 H 213.808 -0.287946 0.727056 0
M  V30 2113 H 216.392 -0.11304 1.94372 0
M  V30 2114 H 214.563 -2.36009 3.08471 0
M  V30 2115 H 216.295 -2.30541 3.32615 0
M  V30 2116 H 213.05 -0.797006 4.66846 0
M  V30 2117 H 213.474 0.836716 6.7181 0
M  V30 2118 H 218.116 -0.586184 4.18717 0
M  V30 2119 H 215.834 1.95938 7.83986 0
M  V30 2120 H 219.42 0.805574 5.76196 0
M  V30 2121 H 218.3 2.06077 7.56639 0
M  V30 2122 N 215.803 -1.52179 -0.40978 0
M  V30 2123 C 216.713 -1.78364 -1.52392 0
M  V30 2124 C 217.729 -0.669183 -1.60617 0
M  V30 2125 O 218.905 -0.954518 -1.77344 0
M  V30 2126 C 215.97 -1.92822 -2.88133 0
M  V30 2127 C 215.031 -3.16725 -2.898 0
M  V30 2128 C 214.264 -3.30483 -4.19067 0
M  V30 2129 O 214.487 -2.49522 -5.12928 0
M  V30 2130 O 213.421 -4.2363 -4.27576 0
M  V30 2131 H 217.247 -2.72931 -1.33201 0
M  V30 2132 H 214.832 -1.37016 -0.59557 0
M  V30 2133 H 216.714 -2.04157 -3.68643 0
M  V30 2134 H 215.389 -1.01444 -3.07393 0
M  V30 2135 H 214.296 -3.10848 -2.08146 0
M  V30 2136 H 215.629 -4.07881 -2.75489 0
M  V30 2137 N 217.281 0.66697 -1.42791 0
M  V30 2138 C 218.692 1.2478 -1.38877 0
M  V30 2139 C 219.043 1.96012 -0.0859426 0
M  V30 2140 O 218.168 2.00463 0.815081 0
M  V30 2141 C 218.763 2.26938 -2.51564 0
M  V30 2142 C 217.322 2.80529 -2.50959 0
M  V30 2143 C 216.469 1.54965 -2.29959 0
M  V30 2144 H 219.42 0.459853 -1.51892 0
M  V30 2145 H 219.441 3.08834 -2.22265 0
M  V30 2146 H 218.953 1.75065 -3.46372 0
M  V30 2147 H 217.054 3.36502 -1.59991 0
M  V30 2148 H 217.167 3.29012 -3.48265 0
M  V30 2149 H 215.531 1.81817 -1.78366 0
M  V30 2150 H 216.314 1.05047 -3.26833 0
M  V30 2151 N 218.759 1.29093 0.90403 0
M  V30 2152 C 219.984 1.19809 1.69294 0
M  V30 2153 C 220.409 -0.238481 1.86582 0
M  V30 2154 O 219.767 -1.1723 1.383 0
M  V30 2155 C 219.815 1.91202 3.05736 0
M  V30 2156 O 218.919 1.22611 3.93752 0
M  V30 2157 H 218.26 0.415385 0.518027 0
M  V30 2158 H 220.79 1.70586 1.12967 0
M  V30 2159 H 220.8 1.99487 3.55906 0
M  V30 2160 H 219.475 2.95692 2.92471 0
M  V30 2161 H 218.052 1.22554 3.52186 0
M  V30 2162 N 220.237 -1.11381 1.11499 0
M  V30 2163 C 221.184 -2.17439 0.773887 0
M  V30 2164 C 222.154 -1.64132 -0.254899 0
M  V30 2165 O 223.339 -1.90345 -0.13168 0
M  V30 2166 C 220.479 -3.44373 0.223917 0
M  V30 2167 C 219.592 -4.1168 1.30934 0
M  V30 2168 C 218.727 -5.263 0.71984 0
M  V30 2169 C 217.766 -5.85493 1.78507 0
M  V30 2170 N 216.903 -6.91507 1.21502 0
M  V30 2171 H 221.743 -2.45962 1.68246 0
M  V30 2172 H 219.28 -1.20744 0.840191 0
M  V30 2173 H 221.238 -4.17047 -0.112921 0
M  V30 2174 H 219.868 -3.16232 -0.647851 0
M  V30 2175 H 218.92 -3.37073 1.76312 0
M  V30 2176 H 220.232 -4.51729 2.11524 0
M  V30 2177 H 219.386 -6.05785 0.333094 0
M  V30 2178 H 218.125 -4.87559 -0.117377 0
M  V30 2179 H 217.13 -5.04686 2.18111 0
M  V30 2180 H 218.355 -6.26301 2.62533 0
M  V30 2181 H 216.301 -6.54783 0.399455 0
M  V30 2182 H 216.218 -7.30214 1.95763 0
M  V30 2183 H 217.486 -7.74795 0.855181 0
M  V30 2184 N 221.715 -0.905404 -1.28997 0
M  V30 2185 C 222.662 -0.385892 -2.27551 0
M  V30 2186 C 223.632 0.535113 -1.57244 0
M  V30 2187 O 224.817 0.459119 -1.85194 0
M  V30 2188 C 221.957 0.375461 -3.43051 0
M  V30 2189 C 221.07 -0.577092 -4.28128 0
M  V30 2190 C 220.205 0.201879 -5.30816 0
M  V30 2191 C 219.244 -0.744829 -6.07551 0
M  V30 2192 N 218.381 9.42587e-05 -7.021 0
M  V30 2193 H 223.221 -1.23139 -2.71368 0
M  V30 2194 H 220.758 -0.618542 -1.33463 0
M  V30 2195 H 222.716 0.832992 -4.088 0
M  V30 2196 H 221.346 1.18537 -3.00248 0
M  V30 2197 H 220.398 -1.15315 -3.62501 0
M  V30 2198 H 221.71 -1.30152 -4.8152 0
M  V30 2199 H 220.864 0.720351 -6.02408 0
M  V30 2200 H 219.603 0.959413 -4.7817 0
M  V30 2201 H 218.608 -1.27475 -5.34818 0
M  V30 2202 H 219.833 -1.50178 -6.62286 0
M  V30 2203 H 217.779 0.739791 -6.51815 0
M  V30 2204 H 217.696 -0.664321 -7.53076 0
M  V30 2205 H 218.964 0.498644 -7.77903 0
M  V30 2206 N 223.193 1.4272 -0.668489 0
M  V30 2207 C 224.47 1.95248 -0.117373 0
M  V30 2208 C 224.85 1.60919 1.36632 0
M  V30 2209 O 224.198 0.902095 2.09939 0
M  V30 2210 C 224.408 3.46927 -0.379806 0
M  V30 2211 C 225.756 4.23588 -0.292923 0
M  V30 2212 O 226.78 3.5482 -0.313204 0
M  V30 2213 O 225.639 5.46017 -0.229697 0
M  V30 2214 H 222.733 0.827 0.00079152 0
M  V30 2215 H 225.279 1.52581 -0.742783 0
M  V30 2216 H 224.051 3.65096 -1.40786 0
M  V30 2217 H 223.674 3.96627 0.277923 0
M  V30 2218 N 224.671 0.411399 1.52136 0
M  V30 2219 C 225.601 -0.404015 2.29978 0
M  V30 2220 C 226.582 -1.04412 1.34284 0
M  V30 2221 O 227.767 -1.0527 1.63192 0
M  V30 2222 C 224.897 -1.5197 3.12286 0
M  V30 2223 C 223.851 -1.00448 4.16046 0
M  V30 2224 C 223.177 -2.21393 4.86712 0
M  V30 2225 C 224.477 -0.0569336 5.22269 0
M  V30 2226 H 226.171 0.245529 2.98392 0
M  V30 2227 H 223.717 0.119525 1.43503 0
M  V30 2228 H 225.67 -2.09715 3.6551 0
M  V30 2229 H 224.394 -2.19716 2.41646 0
M  V30 2230 H 223.053 -0.449421 3.63835 0
M  V30 2231 H 222.701 -2.87699 4.12599 0
M  V30 2232 H 222.401 -1.87571 5.56858 0
M  V30 2233 H 223.925 -2.7974 5.4275 0
M  V30 2234 H 225.339 -0.54325 5.7072 0
M  V30 2235 H 223.736 0.192594 5.99791 0
M  V30 2236 H 224.806 0.887663 4.76706 0
M  V30 2237 N 226.149 -1.5696 0.141893 0
M  V30 2238 C 227.059 -2.20066 -0.812905 0
M  V30 2239 C 228.075 -1.18344 -1.27557 0
M  V30 2240 O 229.251 -1.50902 -1.33381 0
M  V30 2241 C 226.316 -2.80583 -2.03652 0
M  V30 2242 C 225.377 -3.97414 -1.62359 0
M  V30 2243 C 224.61 -4.55036 -2.78887 0
M  V30 2244 O 224.833 -4.11538 -3.94959 0
M  V30 2245 O 223.767 -5.45376 -2.54653 0
M  V30 2246 H 227.593 -3.02157 -0.305746 0
M  V30 2247 H 225.178 -1.49159 -0.0848799 0
M  V30 2248 H 227.06 -3.19067 -2.75272 0
M  V30 2249 H 225.735 -2.01508 -2.5333 0
M  V30 2250 H 224.642 -3.63656 -0.877775 0
M  V30 2251 H 225.975 -4.77994 -1.17401 0
M  V30 2252 N 227.627 0.131896 -1.57047 0
M  V30 2253 C 228.574 1.16236 -1.99393 0
M  V30 2254 C 229.544 1.41863 -0.863943 0
M  V30 2255 O 230.729 1.53946 -1.12718 0
M  V30 2256 C 227.869 2.48708 -2.39245 0
M  V30 2257 C 226.982 2.30127 -3.65603 0
M  V30 2258 C 226.117 3.55738 -3.94492 0
M  V30 2259 C 225.156 3.32259 -5.14073 0
M  V30 2260 N 224.293 4.50039 -5.38896 0
M  V30 2261 H 229.133 0.794251 -2.87221 0
M  V30 2262 H 226.67 0.380707 -1.42088 0
M  V30 2263 H 228.628 3.25969 -2.60384 0
M  V30 2264 H 227.258 2.83437 -1.54478 0
M  V30 2265 H 226.31 1.43845 -3.52154 0
M  V30 2266 H 227.622 2.08746 -4.5302 0
M  V30 2267 H 226.776 4.41423 -4.1621 0
M  V30 2268 H 225.515 3.80138 -3.05526 0
M  V30 2269 H 224.52 2.44963 -4.92212 0
M  V30 2270 H 225.745 3.09242 -6.04604 0
M  V30 2271 H 223.691 4.74584 -4.52886 0
M  V30 2272 H 223.608 4.31716 -6.2061 0
M  V30 2273 H 224.876 5.36895 -5.65123 0
M  V30 2274 N 229.106 1.52395 0.401703 0
M  V30 2275 C 230.069 1.75636 1.47257 0
M  V30 2276 C 231.069 0.62628 1.48103 0
M  V30 2277 O 232.259 0.894227 1.49497 0
M  V30 2278 C 229.391 1.84553 2.86624 0
M  V30 2279 H 230.584 2.71241 1.27938 0
M  V30 2280 H 228.137 1.42923 0.632662 0
M  V30 2281 H 228.872 0.908882 3.11303 0
M  V30 2282 H 228.657 2.66715 2.87412 0
M  V30 2283 H 230.147 2.04251 3.64241 0
M  V30 2284 N 230.584 -0.659388 1.43143 0
M  V30 2285 C 231.531 -1.77249 1.47822 0
M  V30 2286 C 232.501 -1.62818 0.328558 0
M  V30 2287 O 233.686 -1.83151 0.534838 0
M  V30 2288 C 230.826 -3.15371 1.40126 0
M  V30 2289 C 229.939 -3.4098 2.65249 0
M  V30 2290 C 229.074 -4.68915 2.49584 0
M  V30 2291 C 228.113 -4.87608 3.70006 0
M  V30 2292 N 227.25 -6.06796 3.53189 0
M  V30 2293 H 232.09 -1.72584 2.42938 0
M  V30 2294 H 229.627 -0.842297 1.20598 0
M  V30 2295 H 231.585 -3.9521 1.33659 0
M  V30 2296 H 230.215 -3.19121 0.485964 0
M  V30 2297 H 229.267 -2.55282 2.8202 0
M  V30 2298 H 230.579 -3.50681 3.54717 0
M  V30 2299 H 229.733 -5.56871 2.4079 0
M  V30 2300 H 228.472 -4.61524 1.5763 0
M  V30 2301 H 227.477 -3.9809 3.79215 0
M  V30 2302 H 228.702 -4.96834 4.62961 0
M  V30 2303 H 226.648 -6.00549 2.63965 0
M  V30 2304 H 226.565 -6.17428 4.36255 0
M  V30 2305 H 227.833 -6.9739 3.48236 0
M  V30 2306 N 232.062 -1.29571 -0.897171 0
M  V30 2307 C 232.992 -1.17473 -2.01798 0
M  V30 2308 C 233.973 -0.068323 -1.69963 0
M  V30 2309 O 235.158 -0.248239 -1.92607 0
M  V30 2310 C 232.288 -0.853099 -3.36659 0
M  V30 2311 C 231.242 -1.9161 -3.82713 0
M  V30 2312 C 230.568 -1.44773 -5.14728 0
M  V30 2313 C 231.868 -3.32535 -4.02763 0
M  V30 2314 H 233.562 -2.11237 -2.12177 0
M  V30 2315 H 231.108 -1.01699 -1.01948 0
M  V30 2316 H 233.061 -0.755165 -4.14578 0
M  V30 2317 H 231.785 0.120236 -3.26379 0
M  V30 2318 H 230.444 -2.00346 -3.07013 0
M  V30 2319 H 230.092 -0.462995 -5.00865 0
M  V30 2320 H 229.792 -2.15865 -5.46513 0
M  V30 2321 H 231.316 -1.36334 -5.95185 0
M  V30 2322 H 232.73 -3.26626 -4.71156 0
M  V30 2323 H 231.127 -4.01607 -4.45905 0
M  V30 2324 H 232.197 -3.75326 -3.07016 0
M  V30 2325 N 233.54 1.10788 -1.12088 0
M  V30 2326 C 234.817 1.79136 -0.785476 0
M  V30 2327 C 235.197 1.98246 0.725377 0
M  V30 2328 O 234.545 1.57258 1.65778 0
M  V30 2329 C 234.755 3.12375 -1.55636 0
M  V30 2330 C 236.103 3.8731 -1.74001 0
M  V30 2331 O 237.127 3.22085 -1.52117 0
M  V30 2332 O 235.986 5.04369 -2.10415 0
M  V30 2333 H 233.08 0.776226 -0.285311 0
M  V30 2334 H 235.626 1.1747 -1.2247 0
M  V30 2335 H 234.398 2.93863 -2.5838 0
M  V30 2336 H 234.021 3.81758 -1.11114 0
M  V30 2337 N 235.018 0.912232 1.28515 0
M  V30 2338 C 236.267 0.540504 1.94323 0
M  V30 2339 C 236.58 -0.920044 1.72611 0
M  V30 2340 O 237.786 -1.39986 2.32629 0
M  V30 2341 C 236.242 0.915803 3.48053 0
M  V30 2342 C 235.85 2.39598 3.78546 0
M  V30 2343 C 237.594 0.614588 4.20027 0
M  V30 2344 C 235.501 2.71148 5.25578 0
M  V30 2345 H 234.431 0.198418 0.727424 0
M  V30 2346 H 237.082 1.11094 1.46049 0
M  V30 2347 H 235.464 0.274168 3.9505 0
M  V30 2348 H 236.638 3.08422 3.42364 0
M  V30 2349 H 234.953 2.66749 3.1974 0
M  V30 2350 H 237.55 0.827002 5.28266 0
M  V30 2351 H 237.893 -0.447531 4.13887 0
M  V30 2352 H 238.426 1.21462 3.78803 0
M  V30 2353 H 235.165 3.76207 5.36794 0
M  V30 2354 H 234.685 2.0696 5.62963 0
M  V30 2355 H 236.364 2.58072 5.93302 0
M  V30 2356 N 236.496 -1.42363 0.676048 0
M  V30 2357 C 237.721 -2.06377 0.205705 0
M  V30 2358 C 238.146 -1.50463 -1.12883 0
M  V30 2359 O 237.504 -0.623619 -1.70237 0
M  V30 2360 C 237.552 -3.60277 0.152655 0
M  V30 2361 O 236.656 -4.02935 -0.87845 0
M  V30 2362 H 235.997 -0.655588 0.105359 0
M  V30 2363 H 238.527 -1.82475 0.925412 0
M  V30 2364 H 238.537 -4.07993 -0.0230675 0
M  V30 2365 H 237.212 -4.00346 1.12675 0
M  V30 2366 H 235.789 -3.66764 -0.673668 0
M  V30 2367 N 237.974 -0.419461 -1.51915 0
M  V30 2368 C 238.937 0.389116 -2.25873 0
M  V30 2369 C 239.937 0.964924 -1.28631 0
M  V30 2370 O 241.127 0.842179 -1.52489 0
M  V30 2371 C 238.259 1.54874 -3.03689 0
M  V30 2372 H 239.452 -0.258799 -2.98781 0
M  V30 2373 H 237.005 -0.172209 -1.55348 0
M  V30 2374 H 237.74 2.23323 -2.35154 0
M  V30 2375 H 237.525 1.14223 -3.75094 0
M  V30 2376 H 239.015 2.12046 -3.59759 0
M  V30 2377 N 239.452 1.56882 -0.150215 0
M  V30 2378 C 240.701 1.95403 0.500071 0
M  V30 2379 C 241.014 1.03777 1.658 0
M  V30 2380 O 242.22 1.31889 2.37313 0
M  V30 2381 C 240.676 3.4738 0.941018 0
M  V30 2382 C 240.284 4.47596 -0.190158 0
M  V30 2383 C 242.028 3.9476 1.56091 0
M  V30 2384 C 239.935 5.90787 0.269237 0
M  V30 2385 H 238.865 0.729515 0.190588 0
M  V30 2386 H 241.516 1.81988 -0.235074 0
M  V30 2387 H 239.898 3.56138 1.73152 0
M  V30 2388 H 241.072 4.50536 -0.967157 0
M  V30 2389 H 239.387 4.10151 -0.718666 0
M  V30 2390 H 241.984 4.99181 1.9163 0
M  V30 2391 H 242.327 3.36494 2.45107 0
M  V30 2392 H 242.86 3.88932 0.835249 0
M  V30 2393 H 239.599 6.52879 -0.585621 0
M  V30 2394 H 239.119 5.912 1.01204 0
M  V30 2395 H 240.798 6.42979 0.720176 0
M  V30 2396 N 240.93 -0.123565 1.57115 0
M  V30 2397 C 241.877 -1.15177 2.00007 0
M  V30 2398 C 242.847 -1.41403 0.871454 0
M  V30 2399 O 244.032 -1.53346 1.13533 0
M  V30 2400 C 241.172 -2.47436 2.40561 0
M  V30 2401 C 240.285 -2.28184 3.66819 0
M  V30 2402 C 239.42 -3.53641 3.96373 0
M  V30 2403 C 238.459 -3.29528 5.15827 0
M  V30 2404 N 237.596 -4.47175 5.41275 0
M  V30 2405 H 242.436 -0.779008 2.87638 0
M  V30 2406 H 239.973 -0.373166 1.42288 0
M  V30 2407 H 241.931 -3.24584 2.62109 0
M  V30 2408 H 240.561 -2.82614 1.55978 0
M  V30 2409 H 239.613 -1.41976 3.52912 0
M  V30 2410 H 240.925 -2.0634 4.5412 0
M  V30 2411 H 240.079 -4.39209 4.18545 0
M  V30 2412 H 238.818 -3.78512 3.07538 0
M  V30 2413 H 237.823 -2.42349 4.93505 0
M  V30 2414 H 239.048 -3.06031 6.06236 0
M  V30 2415 H 236.994 -4.72175 4.55397 0
M  V30 2416 H 236.911 -4.28419 6.22891 0
M  V30 2417 H 238.179 -5.3389 5.67963 0
M  V30 2418 N 242.408 -1.52605 -0.393616 0
M  V30 2419 C 243.318 -1.79971 -1.50492 0
M  V30 2420 C 244.334 -0.686181 -1.59899 0
M  V30 2421 O 245.51 -0.973274 -1.76322 0
M  V30 2422 C 242.575 -1.95867 -2.86072 0
M  V30 2423 C 241.636 -3.19781 -2.86424 0
M  V30 2424 C 240.869 -3.34909 -4.15538 0
M  V30 2425 O 241.092 -2.54948 -5.10253 0
M  V30 2426 O 240.026 -4.28141 -4.23059 0
M  V30 2427 H 243.852 -2.74328 -1.30299 0
M  V30 2428 H 241.437 -1.3764 -0.581005 0
M  V30 2429 H 243.319 -2.08056 -3.66457 0
M  V30 2430 H 241.994 -1.04699 -3.063 0
M  V30 2431 H 240.901 -3.13038 -2.04837 0
M  V30 2432 H 242.234 -4.1078 -2.71147 0
M  V30 2433 N 243.887 0.651787 -1.4349 0
M  V30 2434 C 245.136 1.40754 -1.44469 0
M  V30 2435 C 245.449 1.95463 -0.0731845 0
M  V30 2436 O 246.655 2.71471 0.0395721 0
M  V30 2437 C 245.111 2.54735 -2.5424 0
M  V30 2438 C 244.719 2.06628 -3.97504 0
M  V30 2439 C 246.463 3.32092 -2.64414 0
M  V30 2440 C 244.37 3.17829 -4.98737 0
M  V30 2441 H 243.3 0.528862 -0.53742 0
M  V30 2442 H 245.951 0.703365 -1.69485 0
M  V30 2443 H 244.333 3.2763 -2.22428 0
M  V30 2444 H 245.507 1.40734 -4.38783 0
M  V30 2445 H 243.822 1.42146 -3.91387 0
M  V30 2446 H 246.419 4.14952 -3.37223 0
M  V30 2447 H 246.762 3.80217 -1.69532 0
M  V30 2448 H 247.295 2.66279 -2.95534 0
M  V30 2449 H 244.034 2.74671 -5.95177 0
M  V30 2450 H 243.554 3.82429 -4.62069 0
M  V30 2451 H 245.233 3.82937 -5.21505 0
M  V30 2452 N 245.365 1.30045 0.890287 0
M  V30 2453 C 246.781 1.08261 1.17268 0
M  V30 2454 C 246.981 -0.160063 2.00863 0
M  V30 2455 O 246.037 -0.855181 2.37577 0
M  V30 2456 C 247.35 2.34323 1.8845 0
M  V30 2457 C 248.898 2.39735 2.01237 0
M  V30 2458 C 249.373 3.65625 2.7583 0
M  V30 2459 N 250.864 3.66402 2.83379 0
M  V30 2460 C 251.599 4.60498 3.41657 0
M  V30 2461 N 251.095 5.64933 4.01026 0
M  V30 2462 N 252.888 4.48051 3.39421 0
M  V30 2463 H 245.039 2.09777 0.332762 0
M  V30 2464 H 247.302 0.92446 0.209948 0
M  V30 2465 H 247.008 3.2498 1.34465 0
M  V30 2466 H 246.882 2.4256 2.88867 0
M  V30 2467 H 249.269 1.4956 2.54393 0
M  V30 2468 H 249.35 2.35476 0.999232 0
M  V30 2469 H 248.994 4.56156 2.23347 0
M  V30 2470 H 248.924 3.67144 3.77509 0
M  V30 2471 H 251.415 2.90896 2.41222 0
M  V30 2472 H 251.728 6.32841 4.43545 0
M  V30 2473 H 250.073 5.68732 3.99461 0
M  V30 2474 H 253.264 3.65649 2.92264 0
M  V30 2475 H 253.437 5.21565 3.84544 0
M  V30 2476 N 246.843 -1.10192 1.12674 0
M  V30 2477 C 247.773 -2.18652 0.819362 0
M  V30 2478 C 248.754 -1.68698 -0.217915 0
M  V30 2479 O 249.939 -1.94041 -0.0785581 0
M  V30 2480 C 247.069 -3.46202 0.27594 0
M  V30 2481 C 246.023 -4.09444 1.24656 0
M  V30 2482 C 245.349 -5.31725 0.563258 0
M  V30 2483 C 246.649 -4.52863 2.60217 0
M  V30 2484 H 248.343 -2.44622 1.72628 0
M  V30 2485 H 245.889 -1.17571 0.831451 0
M  V30 2486 H 247.842 -4.21372 0.0486149 0
M  V30 2487 H 246.566 -3.1973 -0.666331 0
M  V30 2488 H 245.225 -3.36284 1.45974 0
M  V30 2489 H 244.873 -5.0153 -0.384235 0
M  V30 2490 H 244.573 -5.74991 1.21075 0
M  V30 2491 H 246.097 -6.09624 0.34503 0
M  V30 2492 H 247.511 -5.19294 2.42913 0
M  V30 2493 H 245.908 -5.06986 3.21068 0
M  V30 2494 H 246.978 -3.65656 3.18471 0
M  V30 2495 N 248.321 -0.919034 -1.28029 0
M  V30 2496 C 249.569 -0.553838 -1.94363 0
M  V30 2497 C 249.89 0.906357 -1.72656 0
M  V30 2498 O 249.16 1.64143 -1.0693 0
M  V30 2499 H 247.74 -0.201834 -0.719216 0
M  V30 2500 H 250.402 -1.16954 -1.55909 0
M  V30 2501 H 249.498 -0.752758 -3.02886 0
M  V30 2502 N 249.799 1.42003 -0.683588 0
M  V30 2503 C 250.746 2.30798 -0.0107309 0
M  V30 2504 C 251.716 1.4645 0.783688 0
M  V30 2505 O 252.901 1.75263 0.754156 0
M  V30 2506 C 250.041 3.3238 0.928306 0
M  V30 2507 C 249.154 4.31814 0.126776 0
M  V30 2508 C 248.289 5.20468 1.06236 0
M  V30 2509 C 247.328 6.11577 0.253035 0
M  V30 2510 N 246.465 6.92754 1.14179 0
M  V30 2511 H 251.305 2.8778 -0.773727 0
M  V30 2512 H 248.842 1.41745 -0.393283 0
M  V30 2513 H 250.8 3.89813 1.48666 0
M  V30 2514 H 249.43 2.76976 1.65783 0
M  V30 2515 H 248.482 3.76427 -0.54833 0
M  V30 2516 H 249.794 4.96276 -0.501192 0
M  V30 2517 H 248.948 5.82677 1.69035 0
M  V30 2518 H 247.687 4.56204 1.7242 0
M  V30 2519 H 246.692 5.48428 -0.388108 0
M  V30 2520 H 247.917 6.77892 -0.404839 0
M  V30 2521 H 245.863 6.3111 1.78987 0
M  V30 2522 H 245.78 7.53855 0.569111 0
M  V30 2523 H 247.048 7.59441 1.75697 0
M  V30 2524 N 251.277 0.427512 1.51691 0
M  V30 2525 C 252.225 -0.403359 2.29076 0
M  V30 2526 C 253.219 -1.02962 1.34518 0
M  V30 2527 O 254.425 -0.965715 1.51901 0
M  V30 2528 H 250.8 -0.148879 0.737115 0
M  V30 2529 H 252.771 0.270295 2.97173 0
M  V30 2530 C 251.52 -1.49763 3.13794 0
M  V30 2531 H 250.843 -1.02508 3.86435 0
M  V30 2532 H 252.283 -2.05244 3.71014 0
M  V30 2533 C 250.742 -2.47536 2.28533 0
M  V30 2534 O 251.272 -3.51848 1.93819 0
M  V30 2535 N 249.478 -2.18187 1.91945 0
M  V30 2536 H 249.025 -1.33389 2.20375 0
M  V30 2537 H 248.983 -2.83848 1.35195 0
M  V30 2538 N 252.755 -1.56801 0.158532 0
M  V30 2539 C 253.983 -2.00859 -0.496303 0
M  V30 2540 C 254.398 -1.03871 -1.57659 0
M  V30 2541 O 253.755 -0.0375165 -1.82461 0
M  V30 2542 C 253.806 -3.4479 -1.08638 0
M  V30 2543 O 253.527 -4.38072 -0.0492322 0
M  V30 2544 C 255.028 -4.04185 -1.8207 0
M  V30 2545 H 252.248 -0.65864 -0.128199 0
M  V30 2546 H 254.792 -2.02885 0.256506 0
M  V30 2547 H 252.947 -3.43579 -1.78975 0
M  V30 2548 H 253.361 -5.2227 -0.483102 0
M  V30 2549 H 254.835 -5.06857 -2.18633 0
M  V30 2550 H 255.312 -3.45549 -2.71095 0
M  V30 2551 H 255.918 -4.0906 -1.16405 0
M  V30 2552 N 254.233 0.115231 -1.57178 0
M  V30 2553 C 255.143 1.15994 -2.03918 0
M  V30 2554 C 256.159 1.45103 -0.960268 0
M  V30 2555 O 257.335 1.56144 -1.27204 0
M  V30 2556 C 254.4 2.46568 -2.43732 0
M  V30 2557 C 253.461 2.24822 -3.65723 0
M  V30 2558 C 252.694 3.4917 -4.03629 0
M  V30 2559 O 252.917 4.56623 -3.41835 0
M  V30 2560 O 251.851 3.39949 -4.96708 0
M  V30 2561 H 255.677 0.793019 -2.93164 0
M  V30 2562 H 253.262 0.3263 -1.45793 0
M  V30 2563 H 255.144 3.23492 -2.70057 0
M  V30 2564 H 253.819 2.82726 -1.57631 0
M  V30 2565 H 252.726 1.45744 -3.44542 0
M  V30 2566 H 254.059 1.93566 -4.52541 0
M  V30 2567 N 255.711 1.52812 0.385517 0
M  V30 2568 C 256.939 1.71907 1.15133 0
M  V30 2569 C 257.354 0.439004 1.83625 0
M  V30 2570 O 256.711 -0.586765 1.7281 0
M  V30 2571 C 256.762 2.87099 2.19673 0
M  V30 2572 O 256.483 4.10151 1.53973 0
M  V30 2573 C 257.984 3.17902 3.08955 0
M  V30 2574 H 255.204 0.575479 0.345057 0
M  V30 2575 H 257.748 1.99476 0.45052 0
M  V30 2576 H 255.903 2.61982 2.85384 0
M  V30 2577 H 256.317 4.74514 2.23465 0
M  V30 2578 H 257.791 4.01959 3.7833 0
M  V30 2579 H 258.268 2.3243 3.72657 0
M  V30 2580 H 258.874 3.44871 2.48885 0
M  V30 2581 N 257.189 -0.644168 1.43834 0
M  V30 2582 C 258.436 -1.40395 1.4593 0
M  V30 2583 C 258.764 -1.94305 0.0869658 0
M  V30 2584 O 258.019 -1.73288 -0.909378 0
M  V30 2585 C 258.318 -2.59615 2.45631 0
M  V30 2586 C 257.984 -2.2407 3.91284 0
M  V30 2587 C 256.646 -2.14089 4.30952 0
M  V30 2588 C 258.998 -1.95775 4.83034 0
M  V30 2589 C 256.326 -1.73981 5.6031 0
M  V30 2590 C 258.678 -1.57163 6.12766 0
M  V30 2591 C 257.342 -1.45713 6.51402 0
M  V30 2592 H 256.612 -0.513741 0.533995 0
M  V30 2593 H 259.259 -0.731724 1.76969 0
M  V30 2594 H 257.564 -3.32011 2.08028 0
M  V30 2595 H 259.261 -3.17834 2.44504 0
M  V30 2596 H 255.851 -2.32753 3.59895 0
M  V30 2597 H 260.035 -2.02403 4.53152 0
M  V30 2598 H 255.291 -1.63709 5.89075 0
M  V30 2599 H 259.465 -1.34303 6.83327 0
M  V30 2600 H 257.092 -1.14406 7.51542 0
M  V30 2601 N 258.668 -1.30515 -0.883378 0
M  V30 2602 C 260.084 -1.08881 -1.16692 0
M  V30 2603 C 260.284 0.149409 -2.00945 0
M  V30 2604 O 259.34 0.84257 -2.38027 0
M  V30 2605 C 260.653 -2.35319 -1.87204 0
M  V30 2606 C 262.201 -2.40799 -1.99962 0
M  V30 2607 C 262.676 -3.67083 -2.73887 0
M  V30 2608 N 264.167 -3.679 -2.81432 0
M  V30 2609 C 264.902 -4.62303 -3.3921 0
M  V30 2610 N 264.398 -5.67052 -3.98025 0
M  V30 2611 N 266.191 -4.49845 -3.3704 0
M  V30 2612 H 258.342 -2.09951 -0.321633 0
M  V30 2613 H 260.605 -0.92556 -0.205043 0
M  V30 2614 H 260.311 -3.25689 -1.3274 0
M  V30 2615 H 260.185 -2.44089 -2.87577 0
M  V30 2616 H 262.572 -1.50907 -2.53597 0
M  V30 2617 H 262.653 -2.36003 -0.98673 0
M  V30 2618 H 262.297 -4.57334 -2.20925 0
M  V30 2619 H 262.227 -3.69141 -3.75556 0
M  V30 2620 H 264.718 -2.92171 -2.39676 0
M  V30 2621 H 265.031 -6.35184 -4.40183 0
M  V30 2622 H 263.376 -5.70842 -3.96439 0
M  V30 2623 H 266.567 -3.67194 -2.90321 0
M  V30 2624 H 266.74 -5.23597 -3.81772 0
M  V30 2625 N 260.146 1.09593 -1.13257 0
M  V30 2626 C 261.094 2.18271 -0.803783 0
M  V30 2627 C 262.088 1.68054 0.213148 0
M  V30 2628 O 263.294 1.79862 0.0704699 0
M  V30 2629 H 259.669 0.711949 -0.242143 0
M  V30 2630 H 261.64 2.43235 -1.72856 0
M  V30 2631 C 260.389 3.46536 -0.28424 0
M  V30 2632 H 259.712 3.85545 -1.05807 0
M  V30 2633 H 261.152 4.23899 -0.0925945 0
M  V30 2634 C 259.611 3.22036 0.989684 0
M  V30 2635 O 260.141 3.44509 2.06584 0
M  V30 2636 N 258.347 2.7565 0.920086 0
M  V30 2637 H 257.894 2.57562 0.0442019 0
M  V30 2638 H 257.852 2.59635 1.77306 0
M  V30 2639 N 261.624 0.925811 1.2754 0
M  V30 2640 C 262.572 0.413897 2.28888 0
M  V30 2641 C 263.566 -0.500779 1.61829 0
M  V30 2642 O 264.772 -0.38069 1.75928 0
M  V30 2643 H 261.147 0.115274 0.743112 0
M  V30 2644 H 263.118 1.28151 2.69481 0
M  V30 2645 C 261.867 -0.319792 3.46226 0
M  V30 2646 H 261.19 0.374846 3.98039 0
M  V30 2647 H 262.63 -0.642435 4.19105 0
M  V30 2648 C 261.089 -1.53209 3.00048 0
M  V30 2649 O 261.619 -2.6309 3.03557 0
M  V30 2650 N 259.825 -1.38326 2.55566 0
M  V30 2651 H 259.372 -0.489292 2.5291 0
M  V30 2652 H 259.33 -2.19564 2.25031 0
M  V30 2653 N 263.102 -1.41638 0.69111 0
M  V30 2654 C 264.35 -2.00902 0.219758 0
M  V30 2655 C 264.671 -1.54994 -1.18329 0
M  V30 2656 O 263.941 -0.778628 -1.79762 0
M  V30 2657 H 262.521 -0.74289 0.0782558 0
M  V30 2658 H 265.183 -1.73327 0.891271 0
M  V30 2659 H 264.279 -3.11224 0.233708 0
M  V30 2660 N 264.58 -0.43555 -1.51462 0
M  V30 2661 C 265.51 0.367376 -2.30592 0
M  V30 2662 C 266.491 1.02263 -1.35928 0
M  V30 2663 O 267.676 1.02661 -1.64847 0
M  V30 2664 C 264.806 1.46983 -3.14664 0
M  V30 2665 C 263.76 0.938161 -4.17591 0
M  V30 2666 C 263.086 2.13622 -4.90173 0
M  V30 2667 C 264.386 -0.0261621 -5.22293 0
M  V30 2668 H 266.08 -0.292969 -2.97963 0
M  V30 2669 H 263.626 -0.14234 -1.43295 0
M  V30 2670 H 265.579 2.03873 -3.688 0
M  V30 2671 H 264.303 2.15843 -2.4511 0
M  V30 2672 H 262.962 0.391481 -3.64504 0
M  V30 2673 H 262.61 2.81098 -4.17124 0
M  V30 2674 H 262.31 1.78688 -5.59772 0
M  V30 2675 H 263.834 2.7107 -5.47132 0
M  V30 2676 H 265.248 0.452384 -5.71512 0
M  V30 2677 H 263.645 -0.287992 -5.99409 0
M  V30 2678 H 264.715 -0.963391 -4.75233 0
M  V30 2679 N 266.058 1.56714 -0.166846 0
M  V30 2680 C 267.021 2.16539 0.751232 0
M  V30 2681 C 268.021 1.11228 1.16125 0
M  V30 2682 O 269.211 1.36765 1.07894 0
M  V30 2683 C 266.343 2.74462 2.02196 0
M  V30 2684 H 267.536 2.99013 0.230499 0
M  V30 2685 H 265.089 1.56081 0.0826982 0
M  V30 2686 H 265.824 1.95709 2.58589 0
M  V30 2687 H 265.609 3.51527 1.73698 0
M  V30 2688 H 267.099 3.20489 2.67725 0
M  V30 2689 N 267.536 -0.106894 1.57237 0
M  V30 2690 C 268.813 -0.843526 1.76477 0
M  V30 2691 C 269.193 -1.97499 0.745464 0
M  V30 2692 O 268.541 -2.27357 -0.228306 0
M  V30 2693 C 268.751 -1.34903 3.21873 0
M  V30 2694 C 270.099 -1.79654 3.8472 0
M  V30 2695 O 271.123 -1.44554 3.2555 0
M  V30 2696 O 269.982 -2.44515 4.88748 0
M  V30 2697 H 267.076 -0.401468 0.723016 0
M  V30 2698 H 269.622 -0.0896927 1.69463 0
M  V30 2699 H 268.394 -0.53781 3.87586 0
M  V30 2700 H 268.017 -2.16522 3.33473 0
M  V30 2701 N 269.014 -1.53014 -0.377408 0
M  V30 2702 C 269.946 -1.74884 -1.48149 0
M  V30 2703 C 270.959 -0.629433 -1.5014 0
M  V30 2704 O 272.148 -0.905416 -1.53833 0
M  V30 2705 C 269.248 -1.80299 -2.86959 0
M  V30 2706 C 268.421 -3.09776 -3.08801 0
M  V30 2707 C 267.48 -3.06586 -4.27658 0
M  V30 2708 O 266.506 -3.80419 -4.23403 0
M  V30 2709 N 267.708 -2.26578 -5.34455 0
M  V30 2710 H 270.473 -2.70147 -1.29771 0
M  V30 2711 H 268.034 -1.51646 -0.56703 0
M  V30 2712 H 270.026 -1.75657 -3.64591 0
M  V30 2713 H 268.596 -0.92372 -2.98641 0
M  V30 2714 H 267.816 -3.27815 -2.18931 0
M  V30 2715 H 269.104 -3.95366 -3.20255 0
M  V30 2716 H 268.502 -1.66081 -5.40771 0
M  V30 2717 H 267.059 -2.27766 -6.10709 0
M  V30 2718 N 270.492 0.636531 -1.44174 0
M  V30 2719 C 271.741 1.39213 -1.45954 0
M  V30 2720 C 272.054 1.95374 -0.0939119 0
M  V30 2721 O 273.26 2.71498 0.0107767 0
M  V30 2722 C 271.716 2.52025 -2.56927 0
M  V30 2723 C 271.324 2.024 -3.99673 0
M  V30 2724 C 273.068 3.29269 -2.67922 0
M  V30 2725 C 270.975 3.12521 -5.0208 0
M  V30 2726 H 269.905 0.523132 -0.542999 0
M  V30 2727 H 272.556 0.685349 -1.70221 0
M  V30 2728 H 270.938 3.25253 -2.25891 0
M  V30 2729 H 272.112 1.36073 -4.40251 0
M  V30 2730 H 270.427 1.37987 -3.92872 0
M  V30 2731 H 273.024 4.11352 -3.41605 0
M  V30 2732 H 273.367 3.78397 -1.73555 0
M  V30 2733 H 273.9 2.63129 -2.98342 0
M  V30 2734 H 270.639 2.68343 -5.98057 0
M  V30 2735 H 270.159 3.77507 -4.66099 0
M  V30 2736 H 271.838 3.77385 -5.25538 0
M  V30 2737 N 271.97 1.30982 0.876444 0
M  V30 2738 C 273.21 1.21589 1.64303 0
M  V30 2739 C 273.574 -0.223962 1.90689 0
M  V30 2740 O 274.775 -0.44128 2.65153 0
M  V30 2741 C 273.046 2.03007 2.94148 0
M  V30 2742 S 274.605 2.10405 3.85065 0
M  V30 2743 H 271.423 0.433161 0.563819 0
M  V30 2744 H 274.025 1.65565 1.03964 0
M  V30 2745 H 272.729 3.06719 2.72675 0
M  V30 2746 H 272.26 1.59725 3.59515 0
M  V30 2747 H 274.275 1.23765 4.80517 0
M  V30 2748 N 273.449 -1.08991 1.13837 0
M  V30 2749 C 274.359 -2.19301 0.833333 0
M  V30 2750 C 275.375 -1.73026 -0.183847 0
M  V30 2751 O 276.551 -2.01395 -0.0138092 0
M  V30 2752 C 273.616 -3.45323 0.308651 0
M  V30 2753 C 272.677 -4.06255 1.38764 0
M  V30 2754 C 271.91 -5.26262 0.887896 0
M  V30 2755 O 272.133 -5.69747 -0.27287 0
M  V30 2756 O 271.067 -5.78435 1.66421 0
M  V30 2757 H 274.893 -2.47854 1.75506 0
M  V30 2758 H 272.478 -1.18012 0.916166 0
M  V30 2759 H 274.36 -4.21394 0.0216739 0
M  V30 2760 H 273.035 -3.18362 -0.585431 0
M  V30 2761 H 271.942 -3.318 1.72799 0
M  V30 2762 H 273.275 -4.37452 2.25602 0
M  V30 2763 N 274.927 -0.932562 -1.27047 0
M  V30 2764 C 276.204 -0.49377 -1.89265 0
M  V30 2765 C 276.584 1.02833 -1.8436 0
M  V30 2766 O 275.932 1.88461 -1.29209 0
M  V30 2767 C 276.142 -1.04536 -3.32976 0
M  V30 2768 C 277.49 -1.10879 -4.09867 0
M  V30 2769 O 278.514 -0.995327 -3.42011 0
M  V30 2770 O 277.373 -1.28417 -5.31198 0
M  V30 2771 H 274.467 -0.159596 -0.811454 0
M  V30 2772 H 277.013 -1.02457 -1.3528 0
M  V30 2773 H 275.785 -2.08913 -3.30864 0
M  V30 2774 H 275.408 -0.496494 -3.94488 0
M  V30 2775 N 276.405 1.4127 -0.698611 0
M  V30 2776 C 277.645 2.03044 -0.235062 0
M  V30 2777 C 278.009 1.54146 1.14468 0
M  V30 2778 O 279.21 2.07867 1.70425 0
M  V30 2779 C 277.481 3.56192 -0.293651 0
M  V30 2780 S 279.04 4.38696 0.0954053 0
M  V30 2781 H 275.858 0.704697 -0.0944648 0
M  V30 2782 H 278.46 1.72656 -0.917064 0
M  V30 2783 H 277.164 3.89274 -1.29977 0
M  V30 2784 H 276.695 3.91285 0.407397 0
M  V30 2785 H 278.71 4.78257 1.3223 0
M  V30 2786 N 277.883 0.443576 1.51229 0
M  V30 2787 C 278.846 -0.353132 2.26463 0
M  V30 2788 C 279.846 -0.944338 1.3015 0
M  V30 2789 O 281.036 -0.817813 1.5381 0
M  V30 2790 C 278.168 -1.50023 3.06114 0
M  V30 2791 H 279.361 0.3063 2.98332 0
M  V30 2792 H 276.914 0.196902 1.55055 0
M  V30 2793 H 277.649 -2.19553 2.38677 0
M  V30 2794 H 277.434 -1.08241 3.76864 0
M  V30 2795 H 278.924 -2.06296 3.63087 0
M  V30 2796 N 279.361 -1.56624 0.175154 0
M  V30 2797 C 280.608 -1.96999 -0.468811 0
M  V30 2798 C 280.936 -1.06129 -1.62994 0
M  V30 2799 O 280.191 -0.0961771 -1.95464 0
M  V30 2800 C 280.49 -3.43419 -0.989864 0
M  V30 2801 C 280.156 -4.50866 0.0557687 0
M  V30 2802 C 278.818 -4.79975 0.343134 0
M  V30 2803 C 281.17 -5.15551 0.765308 0
M  V30 2804 C 278.498 -5.71066 1.34536 0
M  V30 2805 C 280.85 -6.07724 1.75654 0
M  V30 2806 C 279.514 -6.35199 2.05132 0
M  V30 2807 H 278.784 -0.720869 -0.17155 0
M  V30 2808 H 281.431 -1.89616 0.267924 0
M  V30 2809 H 279.736 -3.47772 -1.80449 0
M  V30 2810 H 281.433 -3.72002 -1.49719 0
M  V30 2811 H 278.023 -4.28229 -0.178381 0
M  V30 2812 H 282.207 -4.9317 0.556513 0
M  V30 2813 H 277.463 -5.90635 1.57988 0
M  V30 2814 H 281.637 -6.56912 2.31169 0
M  V30 2815 H 279.264 -7.05584 2.8294 0
M  V30 2816 N 280.839 0.0985539 -1.57292 0
M  V30 2817 C 282.064 0.820196 -1.90493 0
M  V30 2818 C 282.489 1.71658 -0.769094 0
M  V30 2819 O 281.847 1.79133 0.279495 0
M  V30 2820 C 281.895 1.61242 -3.22542 0
M  V30 2821 O 280.999 2.72108 -3.09888 0
M  V30 2822 H 280.34 0.225547 -0.62452 0
M  V30 2823 H 282.87 0.0748159 -2.04463 0
M  V30 2824 H 282.88 1.99737 -3.55766 0
M  V30 2825 H 281.555 0.954535 -4.04798 0
M  V30 2826 H 280.132 2.36667 -2.88172 0
M  V30 2827 N 282.317 1.53212 0.369288 0
M  V30 2828 C 283.566 1.68436 1.10961 0
M  V30 2829 C 283.879 0.440738 1.9057 0
M  V30 2830 O 285.085 0.473446 2.6734 0
M  V30 2831 C 283.541 2.97744 2.0218 0
M  V30 2832 C 283.149 4.29355 1.279 0
M  V30 2833 C 284.893 3.22334 2.76226 0
M  V30 2834 C 282.8 5.49755 2.17999 0
M  V30 2835 H 281.73 0.627568 0.41794 0
M  V30 2836 H 284.381 1.79713 0.370884 0
M  V30 2837 H 282.763 2.8026 2.79768 0
M  V30 2838 H 283.937 4.57458 0.554007 0
M  V30 2839 H 282.252 4.11179 0.657311 0
M  V30 2840 H 284.849 4.09471 3.43857 0
M  V30 2841 H 285.192 2.38238 3.41392 0
M  V30 2842 H 285.725 3.40475 2.05723 0
M  V30 2843 H 282.464 6.36318 1.57417 0
M  V30 2844 H 281.984 5.25937 2.88359 0
M  V30 2845 H 283.663 5.84401 2.77641 0
M  V30 2846 N 283.795 -0.628877 1.44509 0
M  V30 2847 C 284.725 -1.75187 1.54376 0
M  V30 2848 C 285.706 -1.65411 0.396618 0
M  V30 2849 O 286.891 -1.84137 0.617031 0
M  V30 2850 C 284.021 -3.13725 1.48976 0
M  V30 2851 C 282.975 -3.38291 2.62189 0
M  V30 2852 C 282.301 -4.76883 2.41841 0
M  V30 2853 C 283.601 -3.30632 4.04326 0
M  V30 2854 H 285.295 -1.67187 2.48373 0
M  V30 2855 H 282.841 -0.802909 1.19538 0
M  V30 2856 H 284.794 -3.92064 1.54478 0
M  V30 2857 H 283.518 -3.22515 0.514961 0
M  V30 2858 H 282.177 -2.62334 2.56079 0
M  V30 2859 H 281.825 -4.82378 1.42548 0
M  V30 2860 H 281.525 -4.94278 3.17747 0
M  V30 2861 H 283.049 -5.57449 2.49165 0
M  V30 2862 H 284.463 -3.98873 4.11793 0
M  V30 2863 H 282.86 -3.59561 4.80454 0
M  V30 2864 H 283.93 -2.28404 4.27738 0
M  V30 2865 N 285.273 -1.31445 -0.869486 0
M  V30 2866 C 286.223 -1.15731 -1.96444 0
M  V30 2867 C 287.207 -0.0681855 -1.60755 0
M  V30 2868 O 288.399 -0.293154 -1.74555 0
M  V30 2869 C 285.528 -0.867255 -3.32165 0
M  V30 2870 C 284.614 -1.99738 -3.74119 0
M  V30 2871 N 285.005 -3.24447 -3.88031 0
M  V30 2872 C 283.303 -1.89723 -4.03635 0
M  V30 2873 C 284.004 -3.98374 -4.23879 0
M  V30 2874 N 282.98 -3.26547 -4.3459 0
M  V30 2875 H 286.782 -2.10296 -2.05312 0
M  V30 2876 H 284.296 -1.23009 -1.06031 0
M  V30 2877 H 286.293 -0.735668 -4.10358 0
M  V30 2878 H 284.953 0.0701614 -3.24624 0
M  V30 2879 H 285.964 -3.59557 -3.72746 0
M  V30 2880 H 282.641 -1.03449 -4.04481 0
M  V30 2881 H 284.031 -5.05844 -4.42235 0
M  V30 2882 N 286.751 1.08385 -1.14413 0
M  V30 2883 C 287.999 1.80419 -0.910679 0
M  V30 2884 C 288.32 1.86658 0.564243 0
M  V30 2885 O 287.59 1.35985 1.41014 0
M  V30 2886 H 286.17 0.668204 -0.333934 0
M  V30 2887 H 288.832 1.31037 -1.44275 0
M  V30 2888 H 287.928 2.83238 -1.31082 0
M  V30 2889 N 288.23 0.939286 1.26551 0
M  V30 2890 C 289.14 0.453432 2.30176 0
M  V30 2891 C 290.156 -0.471649 1.67486 0
M  V30 2892 O 291.332 -0.35164 1.98306 0
M  V30 2893 C 288.397 -0.275326 3.45605 0
M  V30 2894 C 287.458 0.686084 4.23782 0
M  V30 2895 C 286.691 -0.00798994 5.33699 0
M  V30 2896 O 286.914 -1.22528 5.57085 0
M  V30 2897 O 285.848 0.669746 5.98162 0
M  V30 2898 H 289.674 1.31416 2.73795 0
M  V30 2899 H 287.259 0.705095 1.31715 0
M  V30 2900 H 289.141 -0.685911 4.1578 0
M  V30 2901 H 287.816 -1.11147 3.0402 0
M  V30 2902 H 286.723 1.14658 3.56096 0
M  V30 2903 H 288.056 1.48979 4.69112 0
M  V30 2904 N 289.708 -1.40897 0.706093 0
M  V30 2905 C 290.656 -2.32572 0.0361893 0
M  V30 2906 C 291.65 -1.51532 -0.757266 0
M  V30 2907 O 292.856 -1.67396 -0.661703 0
M  V30 2908 H 289.231 -0.751966 -0.00709935 0
M  V30 2909 H 291.202 -2.86733 0.826249 0
M  V30 2910 C 289.951 -3.36418 -0.87854 0
M  V30 2911 H 289.274 -3.98836 -0.277401 0
M  V30 2912 H 290.714 -4.0308 -1.3154 0
M  V30 2913 C 289.173 -2.71141 -1.99961 0
M  V30 2914 O 289.703 -2.56735 -3.0895 0
M  V30 2915 N 287.909 -2.29671 -1.78043 0
M  V30 2916 H 287.456 -2.41588 -0.894042 0
M  V30 2917 H 287.414 -1.86332 -2.53235 0
M  V30 2918 N 291.186 -0.45159 -1.50991 0
M  V30 2919 C 292.416 0.108177 -2.06317 0
M  V30 2920 C 292.824 1.35774 -1.31765 0
M  V30 2921 O 292.167 1.79838 -0.374694 0
M  V30 2922 C 292.229 0.481659 -3.56259 0
M  V30 2923 C 291.893 -0.663114 -4.52163 0
M  V30 2924 C 292.89 -1.53947 -4.96585 0
M  V30 2925 C 290.575 -0.8479 -4.95092 0
M  V30 2926 C 292.569 -2.58518 -5.82621 0
M  V30 2927 C 290.256 -1.89686 -5.80915 0
M  V30 2928 C 291.254 -2.76388 -6.24579 0
M  V30 2929 O 290.942 -3.79482 -7.08695 0
M  V30 2930 H 290.674 0.00499183 -0.675982 0
M  V30 2931 H 293.228 -0.633659 -1.95381 0
M  V30 2932 H 291.458 1.27641 -3.65027 0
M  V30 2933 H 293.147 0.974233 -3.94035 0
M  V30 2934 H 293.913 -1.4083 -4.64103 0
M  V30 2935 H 289.792 -0.18258 -4.60638 0
M  V30 2936 H 293.336 -3.26224 -6.16623 0
M  V30 2937 H 289.233 -2.02817 -6.12809 0
M  V30 2938 H 290.001 -3.76234 -7.26905 0
M  V30 2939 N 292.664 1.56529 -0.183458 0
M  V30 2940 C 293.574 2.22144 0.754272 0
M  V30 2941 C 294.59 1.21684 1.24374 0
M  V30 2942 O 295.766 1.54385 1.29333 0
M  V30 2943 C 292.831 2.85884 1.96141 0
M  V30 2944 C 291.892 4.01579 1.51765 0
M  V30 2945 C 291.125 4.6227 2.66725 0
M  V30 2946 O 291.348 4.21865 3.83909 0
M  V30 2947 O 290.282 5.51936 2.40104 0
M  V30 2948 H 294.108 3.02861 0.225527 0
M  V30 2949 H 291.693 1.49331 0.0453032 0
M  V30 2950 H 293.575 3.26253 2.66715 0
M  V30 2951 H 292.25 2.08154 2.47899 0
M  V30 2952 H 291.157 3.65856 0.781049 0
M  V30 2953 H 292.49 4.80938 1.04686 0
M  V30 2954 N 294.142 -0.090211 1.57342 0
M  V30 2955 C 295.367 -0.810082 1.90925 0
M  V30 2956 C 295.792 -1.71248 0.778187 0
M  V30 2957 O 295.15 -1.79278 -0.269991 0
M  V30 2958 C 295.198 -1.59529 3.23393 0
M  V30 2959 O 294.302 -2.70461 3.11327 0
M  V30 2960 H 293.643 -0.222231 0.625707 0
M  V30 2961 H 296.173 -0.0639716 2.045 0
M  V30 2962 H 296.183 -1.97847 3.5682 0
M  V30 2963 H 294.858 -0.933055 4.05299 0
M  V30 2964 H 293.435 -2.35135 2.89423 0
M  V30 2965 N 295.62 -1.53406 -0.361157 0
M  V30 2966 C 296.55 -1.83136 -1.44857 0
M  V30 2967 C 297.531 -0.685174 -1.5569 0
M  V30 2968 O 298.716 -0.93544 -1.70186 0
M  V30 2969 C 295.846 -2.02522 -2.82138 0
M  V30 2970 C 294.8 -3.18302 -2.86126 0
M  V30 2971 C 294.126 -3.22989 -4.26125 0
M  V30 2972 C 295.426 -4.56796 -2.53248 0
M  V30 2973 H 297.12 -2.74201 -1.20226 0
M  V30 2974 H 294.666 -1.31938 -0.576922 0
M  V30 2975 H 296.619 -2.21904 -3.58241 0
M  V30 2976 H 295.343 -1.08172 -3.08166 0
M  V30 2977 H 294.002 -2.98747 -2.12475 0
M  V30 2978 H 293.65 -2.26267 -4.49235 0
M  V30 2979 H 293.35 -4.00781 -4.29708 0
M  V30 2980 H 294.874 -3.44559 -5.04094 0
M  V30 2981 H 296.288 -4.7631 -3.19064 0
M  V30 2982 H 294.685 -5.36862 -2.68141 0
M  V30 2983 H 295.755 -4.61606 -1.48484 0
M  V30 2984 N 297.098 0.621204 -1.44841 0
M  V30 2985 C 298.375 1.38 -1.38619 0
M  V30 2986 C 298.755 2.11041 -0.0498935 0
M  V30 2987 O 298.103 2.06992 0.967816 0
M  V30 2988 C 298.313 2.33817 -2.59096 0
M  V30 2989 C 299.661 2.96844 -3.03593 0
M  V30 2990 O 300.685 2.44141 -2.59371 0
M  V30 2991 O 299.544 3.92476 -3.80296 0
M  V30 2992 H 296.638 0.61811 -0.549426 0
M  V30 2993 H 299.184 0.645429 -1.56947 0
M  V30 2994 H 297.956 1.79012 -3.47952 0
M  V30 2995 H 297.579 3.14676 -2.43032 0
M  V30 2996 N 298.576 1.31904 0.862503 0
M  V30 2997 C 299.506 1.22782 1.98612 0
M  V30 2998 C 300.487 0.113362 1.69722 0
M  V30 2999 O 301.672 0.299218 1.91881 0
M  V30 3000 C 298.802 0.942058 3.34279 0
M  V30 3001 C 297.756 2.0169 3.77499 0
M  V30 3002 C 297.082 1.58369 5.10709 0
M  V30 3003 C 298.382 3.43096 3.93805 0
M  V30 3004 H 300.076 2.16788 2.06502 0
M  V30 3005 H 297.622 1.04366 0.992154 0
M  V30 3006 H 299.575 0.864818 4.1243 0
M  V30 3007 H 298.299 -0.0336603 3.26583 0
M  V30 3008 H 296.958 2.08416 3.01593 0
M  V30 3009 H 296.606 0.595628 4.99461 0
M  V30 3010 H 296.306 2.30279 5.40597 0
M  V30 3011 H 297.83 1.52067 5.91361 0
M  V30 3012 H 299.244 3.39003 4.62331 0
M  V30 3013 H 297.641 4.13288 4.35101 0
M  V30 3014 H 298.711 3.83334 2.96957 0
M  V30 3015 N 300.054 -1.07777 1.14986 0
M  V30 3016 C 301.3 -1.80557 0.923422 0
M  V30 3017 C 301.633 -1.86298 -0.548337 0
M  V30 3018 O 300.908 -1.34354 -1.40639 0
M  V30 3019 C 301.191 -3.25839 1.53299 0
M  V30 3020 C 301.044 -3.28269 3.07505 0
M  V30 3021 C 302.363 -4.22991 1.21518 0
M  V30 3022 H 299.482 -0.655493 0.336894 0
M  V30 3023 H 302.124 -1.26144 1.42083 0
M  V30 3024 H 300.274 -3.72306 1.10999 0
M  V30 3025 H 301.946 -2.90079 3.58681 0
M  V30 3026 H 300.189 -2.67355 3.4162 0
M  V30 3027 H 300.86 -4.30691 3.45266 0
M  V30 3028 H 303.336 -3.84894 1.581 0
M  V30 3029 H 302.212 -5.22945 1.66793 0
M  V30 3030 H 302.473 -4.41904 0.131505 0
M  V30 3031 N 301.532 -0.945985 -1.26051 0
M  V30 3032 C 302.495 -0.463897 -2.24456 0
M  V30 3033 C 303.495 0.427655 -1.55009 0
M  V30 3034 O 304.685 0.226157 -1.72726 0
M  V30 3035 C 301.817 0.330812 -3.39291 0
M  V30 3036 H 303.01 -1.33357 -2.68619 0
M  V30 3037 H 300.563 -0.728416 -1.38289 0
M  V30 3038 H 301.298 1.21852 -3.00537 0
M  V30 3039 H 301.083 -0.308679 -3.90883 0
M  V30 3040 H 302.573 0.657865 -4.12386 0
M  V30 3041 N 303.011 1.40521 -0.713556 0
M  V30 3042 C 303.959 2.32549 -0.0485227 0
M  V30 3043 C 304.953 1.51931 0.74922 0
M  V30 3044 O 306.159 1.67745 0.652816 0
M  V30 3045 H 302.534 0.751994 0.00311138 0
M  V30 3046 H 304.505 2.86291 -0.841443 0
M  V30 3047 C 303.254 3.36879 0.860687 0
M  V30 3048 H 302.577 3.98978 0.256246 0
M  V30 3049 H 304.017 4.03772 1.294 0
M  V30 3050 C 302.476 2.72197 1.9852 0
M  V30 3051 O 303.006 2.5837 3.07584 0
M  V30 3052 N 301.212 2.30612 1.76823 0
M  V30 3053 H 300.759 2.42059 0.881217 0
M  V30 3054 H 300.717 1.87672 2.52243 0
M  V30 3055 N 304.489 0.459591 1.5075 0
M  V30 3056 C 305.714 -0.0996819 2.0716 0
M  V30 3057 C 306.139 -1.33761 1.32249 0
M  V30 3058 O 305.497 -1.77551 0.366786 0
M  V30 3059 C 305.545 -0.378226 3.58611 0
M  V30 3060 O 304.649 -1.46081 3.85661 0
M  V30 3061 H 303.99 0.00791392 0.663953 0
M  V30 3062 H 306.52 0.647329 1.9409 0
M  V30 3063 H 306.53 -0.622135 4.03229 0
M  V30 3064 H 305.205 0.526439 4.12555 0
M  V30 3065 H 303.782 -1.20511 3.5289 0
M  V30 3066 N 305.967 -1.56429 0.191757 0
M  V30 3067 C 306.93 -2.17707 -0.716688 0
M  V30 3068 C 307.93 -1.13061 -1.14341 0
M  V30 3069 O 309.12 -1.38464 -1.05704 0
M  V30 3070 C 306.252 -2.77644 -1.97804 0
M  V30 3071 H 307.445 -2.99342 -0.1829 0
M  V30 3072 H 304.998 -1.56193 -0.0578566 0
M  V30 3073 H 305.733 -1.99799 -2.55443 0
M  V30 3074 H 305.518 -3.54246 -1.68083 0
M  V30 3075 H 307.008 -3.24708 -2.62592 0
M  V30 3076 N 307.445 0.0818655 -1.57387 0
M  V30 3077 C 308.722 0.815343 -1.77796 0
M  V30 3078 C 309.102 1.96289 -0.77679 0
M  V30 3079 O 308.45 2.27691 0.192106 0
M  V30 3080 C 308.66 1.29765 -3.23978 0
M  V30 3081 C 310.008 1.7351 -3.8753 0
M  V30 3082 O 311.032 1.39356 -3.27808 0
M  V30 3083 O 309.891 2.36708 -4.92576 0
M  V30 3084 H 306.985 0.389914 -0.729312 0
M  V30 3085 H 309.531 0.0627213 -1.69584 0
M  V30 3086 H 308.303 0.47608 -3.88393 0
M  V30 3087 H 307.926 2.11189 -3.36875 0
M  V30 3088 N 308.923 1.53595 0.353017 0
M  V30 3089 C 310.169 1.70638 1.09593 0
M  V30 3090 C 310.502 0.463286 1.88593 0
M  V30 3091 O 309.777 -0.539597 1.86865 0
M  V30 3092 C 310.06 2.96406 2.04489 0
M  V30 3093 C 309.913 4.30901 1.29014 0
M  V30 3094 C 311.232 3.17812 3.0444 0
M  V30 3095 H 308.351 0.620913 0.397034 0
M  V30 3096 H 310.993 1.86254 0.375446 0
M  V30 3097 H 309.143 2.83223 2.65927 0
M  V30 3098 H 310.815 4.55917 0.702638 0
M  V30 3099 H 309.058 4.29741 0.592071 0
M  V30 3100 H 309.729 5.1506 1.98537 0
M  V30 3101 H 312.205 3.30263 2.53112 0
M  V30 3102 H 311.081 4.07223 3.6805 0
M  V30 3103 H 311.342 2.33669 3.75301 0
M  V30 3104 N 310.401 -0.613514 1.45168 0
M  V30 3105 C 311.364 -1.7065 1.53007 0
M  V30 3106 C 312.364 -1.5548 0.410184 0
M  V30 3107 O 313.554 -1.60656 0.673455 0
M  V30 3108 C 310.686 -3.09875 1.42093 0
M  V30 3109 H 311.879 -1.65068 2.50385 0
M  V30 3110 H 309.432 -0.828728 1.32521 0
M  V30 3111 H 310.167 -3.21039 0.458769 0
M  V30 3112 H 309.952 -3.22293 2.23315 0
M  V30 3113 H 311.442 -3.895 1.50598 0
M  V30 3114 N 311.879 -1.3236 -0.855495 0
M  V30 3115 C 312.827 -1.2118 -1.9854 0
M  V30 3116 C 313.821 -0.116788 -1.68997 0
M  V30 3117 O 315.027 -0.279657 -1.77814 0
M  V30 3118 H 311.402 -0.375608 -0.651477 0
M  V30 3119 H 313.373 -2.16743 -2.05098 0
M  V30 3120 C 312.122 -0.950849 -3.34446 0
M  V30 3121 H 311.445 -1.78563 -3.57708 0
M  V30 3122 H 312.885 -0.912863 -4.14057 0
M  V30 3123 C 311.344 0.346404 -3.35114 0
M  V30 3124 O 311.874 1.35855 -3.7803 0
M  V30 3125 N 310.08 0.36808 -2.88259 0
M  V30 3126 H 309.627 -0.456102 -2.5353 0
M  V30 3127 H 309.585 1.23591 -2.89089 0
M  V30 3128 N 313.357 1.07166 -1.15556 0
M  V30 3129 C 314.606 1.79181 -0.926132 0
M  V30 3130 C 314.919 1.87768 0.547967 0
M  V30 3131 O 316.125 2.56323 0.895036 0
M  V30 3132 C 314.581 3.22 -1.60761 0
M  V30 3133 C 314.189 3.21607 -3.11886 0
M  V30 3134 C 315.933 3.9861 -1.4598 0
M  V30 3135 C 313.84 4.59092 -3.72812 0
M  V30 3136 H 312.77 0.67154 -0.342856 0
M  V30 3137 H 315.421 1.2027 -1.3859 0
M  V30 3138 H 313.803 3.81115 -1.07553 0
M  V30 3139 H 314.977 2.72127 -3.71865 0
M  V30 3140 H 313.292 2.58495 -3.2645 0
M  V30 3141 H 315.889 5.00225 -1.88888 0
M  V30 3142 H 316.232 4.143 -0.407541 0
M  V30 3143 H 316.765 3.45996 -1.96295 0
M  V30 3144 H 313.504 4.48606 -4.77946 0
M  V30 3145 H 313.024 5.08803 -3.17616 0
M  V30 3146 H 314.703 5.28059 -3.73848 0
M  V30 3147 N 314.835 0.952656 1.25548 0
M  V30 3148 C 316.081 0.616826 1.93822 0
M  V30 3149 C 316.436 -0.836684 1.73255 0
M  V30 3150 O 315.729 -1.59218 1.06584 0
M  V30 3151 C 315.923 0.908818 3.45652 0
M  V30 3152 C 315.752 2.38916 3.80984 0
M  V30 3153 C 314.522 3.04637 4.03143 0
M  V30 3154 C 316.72 3.36838 3.88645 0
M  V30 3155 N 314.702 4.42565 4.25453 0
M  V30 3156 C 316.073 4.60065 4.1562 0
M  V30 3157 C 318.128 3.31704 3.71318 0
M  V30 3158 C 316.831 5.78795 4.2707 0
M  V30 3159 C 318.857 4.4977 3.84006 0
M  V30 3160 C 318.219 5.71783 4.11392 0
M  V30 3161 H 314.318 0.27629 0.731565 0
M  V30 3162 H 316.902 1.22443 1.5138 0
M  V30 3163 H 315.073 0.330166 3.86994 0
M  V30 3164 H 316.805 0.533093 4.01174 0
M  V30 3165 H 313.56 2.55215 3.98952 0
M  V30 3166 H 313.984 5.1399 4.40617 0
M  V30 3167 H 318.626 2.3842 3.49164 0
M  V30 3168 H 316.344 6.72521 4.48041 0
M  V30 3169 H 319.93 4.47342 3.71989 0
M  V30 3170 H 318.81 6.61617 4.2099 0
M  V30 3171 N 316.313 -1.40141 0.720998 0
M  V30 3172 C 317.559 -2.01084 0.263231 0
M  V30 3173 C 317.892 -1.57052 -1.14229 0
M  V30 3174 O 317.167 -0.793027 -1.77599 0
M  V30 3175 C 317.45 -3.58401 0.349344 0
M  V30 3176 C 317.303 -4.12491 1.79363 0
M  V30 3177 C 318.622 -4.39231 -0.276351 0
M  V30 3178 H 315.741 -0.730572 0.0971228 0
M  V30 3179 H 318.383 -1.66543 0.914518 0
M  V30 3180 H 316.533 -3.87958 -0.205165 0
M  V30 3181 H 318.205 -3.93711 2.40394 0
M  V30 3182 H 316.448 -3.66576 2.31958 0
M  V30 3183 H 317.119 -5.21646 1.80524 0
M  V30 3184 H 319.595 -4.15637 0.196184 0
M  V30 3185 H 318.471 -5.48586 -0.185681 0
M  V30 3186 H 318.732 -4.20643 -1.36059 0
M  V30 3187 N 317.792 -0.46758 -1.50504 0
M  V30 3188 C 319.017 0.0886943 -2.0721 0
M  V30 3189 C 319.442 1.33057 -1.32956 0
M  V30 3190 O 318.8 1.77354 -0.376197 0
M  V30 3191 C 318.848 0.359202 -3.58806 0
M  V30 3192 O 317.952 1.44034 -3.8643 0
M  V30 3193 H 317.293 -0.0114349 -0.663902 0
M  V30 3194 H 319.823 -0.657613 -1.93744 0
M  V30 3195 H 319.833 0.600742 -4.03553 0
M  V30 3196 H 318.508 -0.548311 -4.1227 0
M  V30 3197 H 317.085 1.18638 -3.53524 0
M  V30 3198 N 319.27 1.56325 -0.20005 0
M  V30 3199 C 320.518 1.97329 0.436547 0
M  V30 3200 C 320.839 1.08826 1.61808 0
M  V30 3201 O 320.109 0.160604 1.95241 0
M  V30 3202 H 318.689 0.728714 0.164272 0
M  V30 3203 H 321.351 1.92761 -0.287937 0
M  V30 3204 H 320.447 3.02264 0.777353 0
M  V30 3205 N 320.748 -0.0735177 1.57428 0
M  V30 3206 C 321.678 -1.0879 2.06608 0
M  V30 3207 C 322.659 -1.40473 0.959237 0
M  V30 3208 O 323.844 -1.5013 1.23185 0
M  V30 3209 C 320.974 -2.40183 2.50857 0
M  V30 3210 C 319.928 -2.22858 3.65402 0
M  V30 3211 C 319.254 -3.59619 3.957 0
M  V30 3212 C 320.554 -1.65123 4.95511 0
M  V30 3213 H 322.248 -0.678673 2.91607 0
M  V30 3214 H 319.794 -0.325013 1.40284 0
M  V30 3215 H 321.747 -3.11437 2.83874 0
M  V30 3216 H 320.471 -2.83083 1.62885 0
M  V30 3217 H 319.13 -1.54045 3.32664 0
M  V30 3218 H 318.778 -4.00086 3.04861 0
M  V30 3219 H 318.478 -3.48866 4.72828 0
M  V30 3220 H 320.002 -4.32306 4.31212 0
M  V30 3221 H 321.416 -2.26241 5.26771 0
M  V30 3222 H 319.813 -1.65071 5.7695 0
M  V30 3223 H 320.883 -0.612559 4.81015 0
M  V30 3224 N 322.226 -1.5378 -0.344866 0
M  V30 3225 C 323.642 -1.44015 -0.687888 0
M  V30 3226 C 323.842 -0.595834 -1.92489 0
M  V30 3227 O 322.898 -0.0863064 -2.52352 0
M  V30 3228 C 324.211 -2.87481 -0.881758 0
M  V30 3229 C 325.759 -2.97247 -0.980459 0
M  V30 3230 C 326.234 -4.41819 -1.20665 0
M  V30 3231 N 327.725 -4.45339 -1.27389 0
M  V30 3232 C 328.46 -5.54333 -1.46639 0
M  V30 3233 N 327.956 -6.73335 -1.63071 0
M  V30 3234 N 329.749 -5.41944 -1.49176 0
M  V30 3235 H 321.9 -2.07169 0.468475 0
M  V30 3236 H 324.163 -0.93643 0.147655 0
M  V30 3237 H 323.869 -3.51672 -0.0443444 0
M  V30 3238 H 323.743 -3.32352 -1.78388 0
M  V30 3239 H 326.13 -2.33197 -1.8084 0
M  V30 3240 H 326.211 -2.5574 -0.0552713 0
M  V30 3241 H 325.855 -5.06449 -0.383652 0
M  V30 3242 H 325.785 -4.80917 -2.14539 0
M  V30 3243 H 328.276 -3.59585 -1.1622 0
M  V30 3244 H 328.589 -7.52165 -1.77391 0
M  V30 3245 H 326.934 -6.76282 -1.60209 0
M  V30 3246 H 330.125 -4.47932 -1.3592 0
M  V30 3247 H 330.298 -6.26946 -1.63837 0
M  V30 3248 N 323.704 0.605807 -1.45491 0
M  V30 3249 C 324.934 1.38934 -1.52908 0
M  V30 3250 C 325.342 1.88513 -0.161086 0
M  V30 3251 O 324.685 1.62962 0.847891 0
M  V30 3252 C 324.747 2.62737 -2.45376 0
M  V30 3253 C 324.411 2.34785 -3.92078 0
M  V30 3254 C 325.408 1.95038 -4.8193 0
M  V30 3255 C 323.093 2.47642 -4.37011 0
M  V30 3256 C 325.087 1.68511 -6.14722 0
M  V30 3257 C 322.774 2.20728 -5.69844 0
M  V30 3258 C 323.772 1.81225 -6.58519 0
M  V30 3259 O 323.46 1.54627 -7.88889 0
M  V30 3260 H 323.192 0.431629 -0.520262 0
M  V30 3261 H 325.746 0.74573 -1.91384 0
M  V30 3262 H 323.976 3.29824 -2.01874 0
M  V30 3263 H 325.665 3.24783 -2.43456 0
M  V30 3264 H 326.431 1.84639 -4.48479 0
M  V30 3265 H 322.31 2.77356 -3.68232 0
M  V30 3266 H 325.854 1.37602 -6.83894 0
M  V30 3267 H 321.751 2.30744 -6.02849 0
M  V30 3268 H 322.519 1.68665 -8.00933 0
M  V30 3269 N 325.182 1.32811 0.848464 0
M  V30 3270 C 326.112 1.24882 1.97299 0
M  V30 3271 C 327.093 0.131357 1.69592 0
M  V30 3272 O 328.278 0.319553 1.91553 0
M  V30 3273 C 325.408 0.97746 3.33261 0
M  V30 3274 C 324.362 2.05682 3.75338 0
M  V30 3275 C 323.688 1.63777 5.09 0
M  V30 3276 C 324.988 3.47254 3.90144 0
M  V30 3277 H 326.682 2.18966 2.04191 0
M  V30 3278 H 324.228 1.05413 0.981029 0
M  V30 3279 H 326.181 0.908513 4.1149 0
M  V30 3280 H 324.905 0.000980011 3.266 0
M  V30 3281 H 323.564 2.11603 2.99366 0
M  V30 3282 H 323.212 0.648569 4.98801 0
M  V30 3283 H 322.912 2.36 5.38124 0
M  V30 3284 H 324.436 1.5833 5.89715 0
M  V30 3285 H 325.85 3.43888 4.58709 0
M  V30 3286 H 324.247 4.1788 4.30693 0
M  V30 3287 H 325.317 3.86462 2.92874 0
M  V30 3288 N 326.66 -1.06551 1.16123 0
M  V30 3289 C 327.906 -1.79567 0.94252 0
M  V30 3290 C 328.239 -1.86869 -0.528547 0
M  V30 3291 O 327.514 -1.35838 -1.39206 0
M  V30 3292 C 327.797 -3.24195 1.56747 0
M  V30 3293 C 327.65 -3.24989 3.10969 0
M  V30 3294 C 328.969 -4.21678 1.25998 0
M  V30 3295 H 326.088 -0.651883 0.343828 0
M  V30 3296 H 328.73 -1.2463 1.43413 0
M  V30 3297 H 326.88 -3.71107 1.14942 0
M  V30 3298 H 328.552 -2.86258 3.61737 0
M  V30 3299 H 326.795 -2.63716 3.44436 0
M  V30 3300 H 327.466 -4.27005 3.49815 0
M  V30 3301 H 329.942 -3.83196 1.62174 0
M  V30 3302 H 328.818 -5.21146 1.7233 0
M  V30 3303 H 329.079 -4.4174 0.178367 0
M  V30 3304 N 328.138 -0.959301 -1.25041 0
M  V30 3305 C 329.363 -0.633507 -1.97488 0
M  V30 3306 C 329.788 0.788555 -1.70773 0
M  V30 3307 O 329.146 1.53394 -0.966431 0
M  V30 3308 C 329.194 -0.904057 -3.49083 0
M  V30 3309 O 328.298 0.0147939 -4.12397 0
M  V30 3310 H 327.639 -0.240368 -0.618966 0
M  V30 3311 H 330.169 -1.28717 -1.59038 0
M  V30 3312 H 330.179 -0.832203 -3.99423 0
M  V30 3313 H 328.854 -1.94048 -3.67856 0
M  V30 3314 H 327.431 -0.109664 -3.72739 0
M  V30 3315 N 329.616 1.39756 -0.72842 0
M  V30 3316 C 331.032 1.5442 -0.403308 0
M  V30 3317 C 331.232 1.69694 1.08656 0
M  V30 3318 O 330.288 1.69373 1.87267 0
M  V30 3319 C 331.601 2.76555 -1.18058 0
M  V30 3320 C 333.149 2.90384 -1.16815 0
M  V30 3321 C 333.624 4.15449 -1.92785 0
M  V30 3322 N 335.115 4.22475 -1.89918 0
M  V30 3323 C 335.85 5.1818 -2.45514 0
M  V30 3324 N 335.346 6.19714 -3.09719 0
M  V30 3325 N 337.139 5.1035 -2.35584 0
M  V30 3326 H 329.29 1.28089 -1.69431 0
M  V30 3327 H 331.553 0.620327 -0.716867 0
M  V30 3328 H 331.259 2.7159 -2.23455 0
M  V30 3329 H 331.133 3.69033 -0.780662 0
M  V30 3330 H 333.52 2.94846 -0.12234 0
M  V30 3331 H 333.601 1.98988 -1.6074 0
M  V30 3332 H 333.245 4.11749 -2.97364 0
M  V30 3333 H 333.175 5.05877 -1.46272 0
M  V30 3334 H 335.666 3.49743 -1.43138 0
M  V30 3335 H 335.979 6.8919 -3.49625 0
M  V30 3336 H 334.324 6.20121 -3.13807 0
M  V30 3337 H 337.515 4.2996 -1.85072 0
M  V30 3338 H 337.688 5.84761 -2.79211 0
M  V30 3339 N 331.094 0.475555 1.50254 0
M  V30 3340 C 332.319 -0.0777042 2.07254 0
M  V30 3341 C 332.744 -1.3235 1.3366 0
M  V30 3342 O 332.102 -1.77152 0.385597 0
M  V30 3343 C 332.15 -0.340169 3.58992 0
M  V30 3344 O 331.254 -1.41982 3.87188 0
M  V30 3345 H 330.595 0.0149556 0.663832 0
M  V30 3346 H 333.125 0.667878 1.93392 0
M  V30 3347 H 333.135 -0.579332 4.03866 0
M  V30 3348 H 331.81 0.570167 4.11973 0
M  V30 3349 H 330.387 -1.16762 3.54148 0
M  V30 3350 N 332.573 -1.56217 0.208337 0
M  V30 3351 C 333.52 -2.19699 -0.707192 0
M  V30 3352 C 334.49 -1.14836 -1.20008 0
M  V30 3353 O 335.675 -1.4314 -1.26157 0
M  V30 3354 C 332.815 -2.87061 -1.91546 0
M  V30 3355 C 331.928 -4.06483 -1.46271 0
M  V30 3356 C 331.063 -4.61665 -2.62752 0
M  V30 3357 C 330.102 -5.73417 -2.14147 0
M  V30 3358 N 329.239 -6.22948 -3.23853 0
M  V30 3359 H 334.079 -2.97575 -0.159111 0
M  V30 3360 H 331.616 -1.46948 -0.0667874 0
M  V30 3361 H 333.574 -3.24294 -2.62468 0
M  V30 3362 H 332.204 -2.11725 -2.43664 0
M  V30 3363 H 331.256 -3.74825 -0.648886 0
M  V30 3364 H 332.568 -4.87271 -1.06622 0
M  V30 3365 H 331.722 -5.01272 -3.41776 0
M  V30 3366 H 330.461 -3.80013 -3.05682 0
M  V30 3367 H 329.466 -5.33326 -1.33581 0
M  V30 3368 H 330.691 -6.56897 -1.72232 0
M  V30 3369 H 328.637 -5.44213 -3.6629 0
M  V30 3370 H 328.554 -6.98823 -2.88414 0
M  V30 3371 H 329.822 -6.6721 -4.03052 0
M  V30 3372 N 334.051 0.0651679 -1.57465 0
M  V30 3373 C 334.983 1.10359 -2.00882 0
M  V30 3374 C 335.996 1.346 -0.915788 0
M  V30 3375 O 337.185 1.32723 -1.1936 0
M  V30 3376 C 334.285 2.45312 -2.33828 0
M  V30 3377 C 333.458 2.40934 -3.65061 0
M  V30 3378 C 332.517 3.58047 -3.85602 0
M  V30 3379 O 331.543 3.39175 -4.57109 0
M  V30 3380 N 332.745 4.78637 -3.28462 0
M  V30 3381 H 335.51 0.733807 -2.90578 0
M  V30 3382 H 333.071 0.253719 -1.599 0
M  V30 3383 H 335.063 3.22314 -2.44737 0
M  V30 3384 H 333.633 2.74267 -1.49988 0
M  V30 3385 H 332.853 1.49273 -3.64844 0
M  V30 3386 H 334.141 2.35117 -4.51218 0
M  V30 3387 H 333.539 4.96872 -2.70433 0
M  V30 3388 H 332.096 5.53127 -3.44809 0
M  V30 3389 N 335.529 1.53961 0.336706 0
M  V30 3390 C 336.94 1.62914 0.911925 0
M  V30 3391 C 337.291 0.514795 1.89326 0
M  V30 3392 O 336.416 -0.354395 2.13478 0
M  V30 3393 C 337.011 2.95304 1.66076 0
M  V30 3394 C 335.57 3.06496 2.18489 0
M  V30 3395 C 334.717 2.58403 1.00613 0
M  V30 3396 H 337.668 1.58285 0.114649 0
M  V30 3397 H 337.689 2.84727 2.5241 0
M  V30 3398 H 337.201 3.76387 0.946276 0
M  V30 3399 H 335.302 2.3006 2.93092 0
M  V30 3400 H 335.415 4.1208 2.44391 0
M  V30 3401 H 333.779 2.13977 1.38152 0
M  V30 3402 H 334.562 3.41932 0.306179 0
M  V30 3403 N 337.007 -0.598083 1.45811 0
M  V30 3404 C 337.937 -1.71873 1.58057 0
M  V30 3405 C 338.918 -1.64533 0.431615 0
M  V30 3406 O 340.103 -1.82787 0.65595 0
M  V30 3407 C 337.233 -3.10495 1.55597 0
M  V30 3408 C 336.187 -3.32654 2.69305 0
M  V30 3409 C 335.513 -4.71646 2.51902 0
M  V30 3410 C 336.813 -3.21981 4.11248 0
M  V30 3411 H 338.507 -1.61881 2.51863 0
M  V30 3412 H 336.053 -0.777372 1.21214 0
M  V30 3413 H 338.006 -3.88699 1.6276 0
M  V30 3414 H 336.73 -3.2135 0.583255 0
M  V30 3415 H 335.389 -2.56843 2.61586 0
M  V30 3416 H 335.037 -4.79246 1.52748 0
M  V30 3417 H 334.737 -4.87426 3.2816 0
M  V30 3418 H 336.261 -5.52038 2.60933 0
M  V30 3419 H 337.675 -3.90049 4.20161 0
M  V30 3420 H 336.072 -3.49289 4.87972 0
M  V30 3421 H 337.142 -2.1928 4.32486 0
M  V30 3422 N 338.485 -1.33259 -0.841409 0
M  V30 3423 C 339.762 -1.15174 -1.58096 0
M  V30 3424 C 340.142 0.282858 -2.09196 0
M  V30 3425 O 339.49 1.28151 -1.89181 0
M  V30 3426 C 339.7 -2.1907 -2.71679 0
M  V30 3427 C 341.048 -2.53093 -3.40924 0
M  V30 3428 O 342.072 -2.17717 -2.81918 0
M  V30 3429 O 340.931 -3.1379 -4.47435 0
M  V30 3430 H 338.025 -0.445303 -0.696875 0
M  V30 3431 H 340.571 -1.44833 -0.884385 0
M  V30 3432 H 339.343 -3.15443 -2.31541 0
M  V30 3433 H 338.966 -1.90481 -3.49002 0
M  V30 3434 N 339.963 1.05934 -1.16686 0
M  V30 3435 C 341.21 1.788 -0.950622 0
M  V30 3436 C 341.538 1.87384 0.521305 0
M  V30 3437 O 340.793 1.36438 1.40297 0
M  V30 3438 C 341.092 3.23105 -1.52767 0
M  V30 3439 C 340.758 3.34594 -3.02254 0
M  V30 3440 C 339.42 3.37437 -3.43059 0
M  V30 3441 C 341.772 3.36219 -3.98254 0
M  V30 3442 C 339.1 3.39525 -4.78477 0
M  V30 3443 C 341.452 3.39845 -5.33562 0
M  V30 3444 C 340.116 3.40971 -5.73842 0
M  V30 3445 H 339.386 0.654275 -0.347857 0
M  V30 3446 H 342.033 1.24555 -1.45459 0
M  V30 3447 H 340.338 3.80227 -0.94524 0
M  V30 3448 H 342.035 3.7809 -1.336 0
M  V30 3449 H 338.625 3.3309 -2.6972 0
M  V30 3450 H 342.809 3.33231 -3.67792 0
M  V30 3451 H 338.065 3.38703 -5.09009 0
M  V30 3452 H 342.239 3.4005 -6.07733 0
M  V30 3453 H 339.866 3.42342 -6.78753 0
M  V30 3454 N 341.441 0.965919 1.2453 0
M  V30 3455 C 342.374 0.4393 2.23932 0
M  V30 3456 C 343.352 -0.485615 1.55179 0
M  V30 3457 O 344.536 -0.417402 1.83821 0
M  V30 3458 C 341.663 -0.366042 3.36716 0
M  V30 3459 C 340.709 0.5009 4.23548 0
M  V30 3460 S 341.542 1.94002 4.99123 0
M  V30 3461 C 342.698 1.14342 6.15367 0
M  V30 3462 H 342.931 1.28167 2.68254 0
M  V30 3463 H 340.464 0.770819 1.33782 0
M  V30 3464 H 342.422 -0.824724 4.0213 0
M  V30 3465 H 341.083 -1.18337 2.90956 0
M  V30 3466 H 340.276 -0.117341 5.03863 0
M  V30 3467 H 339.878 0.89524 3.63127 0
M  V30 3468 H 342.17 0.397572 6.76332 0
M  V30 3469 H 343.113 1.92089 6.81548 0
M  V30 3470 H 343.521 0.668579 5.60527 0
M  V30 3471 N 342.919 -1.39368 0.735821 0
M  V30 3472 C 343.829 -2.34395 0.0979693 0
M  V30 3473 C 344.845 -1.58361 -0.720968 0
M  V30 3474 O 346.021 -1.90648 -0.649245 0
M  V30 3475 C 343.086 -3.37393 -0.797916 0
M  V30 3476 C 342.147 -4.29287 0.0333662 0
M  V30 3477 C 341.38 -5.27365 -0.819854 0
M  V30 3478 O 341.603 -5.31959 -2.05855 0
M  V30 3479 O 340.537 -6.01389 -0.248079 0
M  V30 3480 H 344.363 -2.90601 0.882315 0
M  V30 3481 H 341.948 -1.40909 0.4965 0
M  V30 3482 H 343.83 -4.00505 -1.31048 0
M  V30 3483 H 342.505 -2.83571 -1.56106 0
M  V30 3484 H 341.412 -3.69395 0.591475 0
M  V30 3485 H 342.745 -4.86317 0.758752 0
M  V30 3486 N 344.397 -0.483516 -1.5 0
M  V30 3487 C 345.645 0.067027 -2.01989 0
M  V30 3488 C 345.966 1.3909 -1.36671 0
M  V30 3489 O 345.236 1.88978 -0.516152 0
M  V30 3490 H 343.816 0.0277606 -0.746484 0
M  V30 3491 H 346.478 -0.636773 -1.84204 0
M  V30 3492 H 345.574 0.209484 -3.11396 0
M  V30 3493 N 345.875 1.56104 -0.216619 0
M  V30 3494 C 346.823 2.21434 0.712036 0
M  V30 3495 C 347.817 1.19218 1.20348 0
M  V30 3496 O 349.023 1.3731 1.16387 0
M  V30 3497 H 345.398 0.70992 0.248026 0
M  V30 3498 H 347.369 2.98083 0.137558 0
M  V30 3499 C 346.118 2.90434 1.91163 0
M  V30 3500 H 345.441 3.68842 1.54258 0
M  V30 3501 H 346.881 3.39552 2.5393 0
M  V30 3502 C 345.34 1.92635 2.76394 0
M  V30 3503 O 345.87 1.44017 3.74996 0
M  V30 3504 N 344.076 1.60392 2.42328 0
M  V30 3505 H 343.623 2.00122 1.622 0
M  V30 3506 H 343.581 0.952159 2.99635 0
M  V30 3507 N 347.353 -0.0568162 1.57498 0
M  V30 3508 C 348.285 -1.09292 2.01464 0
M  V30 3509 C 349.298 -1.34112 0.922913 0
M  V30 3510 O 350.487 -1.32089 1.20062 0
M  V30 3511 C 347.587 -2.44068 2.35125 0
M  V30 3512 C 346.76 -2.38995 3.66333 0
M  V30 3513 C 345.819 -3.55997 3.87495 0
M  V30 3514 O 344.845 -3.36746 4.58901 0
M  V30 3515 N 346.047 -4.76888 3.30996 0
M  V30 3516 H 348.812 -0.718386 2.90963 0
M  V30 3517 H 346.373 -0.245235 1.60032 0
M  V30 3518 H 348.365 -3.21011 2.46443 0
M  V30 3519 H 346.935 -2.73468 1.5144 0
M  V30 3520 H 346.155 -1.47336 3.65631 0
M  V30 3521 H 347.443 -2.3272 4.52458 0
M  V30 3522 H 346.841 -4.95431 2.73065 0
M  V30 3523 H 345.398 -5.51291 3.47738 0
M  V30 3524 N 348.832 -1.54138 -0.328536 0
M  V30 3525 C 349.78 -1.83894 -1.42428 0
M  V30 3526 C 350.774 -0.710478 -1.53781 0
M  V30 3527 O 351.98 -0.894062 -1.56226 0
M  V30 3528 H 348.355 -0.582837 -0.475189 0
M  V30 3529 H 350.326 -2.75537 -1.14552 0
M  V30 3530 C 349.075 -2.07866 -2.78724 0
M  V30 3531 H 348.398 -2.94158 -2.7076 0
M  V30 3532 H 349.838 -2.32644 -3.54476 0
M  V30 3533 C 348.297 -0.868689 -3.25508 0
M  V30 3534 O 348.827 -0.0754908 -4.01629 0
M  V30 3535 N 347.033 -0.681711 -2.82491 0
M  V30 3536 H 346.58 -1.32838 -2.20708 0
M  V30 3537 H 346.538 0.126374 -3.14146 0
M  V30 3538 N 350.31 0.590341 -1.46126 0
M  V30 3539 C 351.538 1.37504 -1.54597 0
M  V30 3540 C 351.953 1.87897 -0.184447 0
M  V30 3541 O 351.31 1.63192 0.816984 0
M  V30 3542 C 351.361 2.56779 -2.54454 0
M  V30 3543 O 351.082 2.08476 -3.85317 0
M  V30 3544 C 352.583 3.49427 -2.72792 0
M  V30 3545 H 349.803 0.420325 -0.523037 0
M  V30 3546 H 352.347 0.718383 -1.91467 0
M  V30 3547 H 350.502 3.1845 -2.20609 0
M  V30 3548 H 350.916 2.86097 -4.396 0
M  V30 3549 H 352.39 4.29619 -3.466 0
M  V30 3550 H 352.867 4.00876 -1.79429 0
M  V30 3551 H 353.473 2.93598 -3.07702 0
M  V30 3552 N 351.788 1.33704 0.83433 0
M  V30 3553 C 353.199 1.22813 1.4062 0
M  V30 3554 C 353.55 -0.151107 1.95617 0
M  V30 3555 O 352.675 -1.05092 1.89168 0
M  V30 3556 C 353.27 2.22355 2.55624 0
M  V30 3557 C 351.829 2.1529 3.08751 0
M  V30 3558 C 350.976 2.09589 1.8157 0
M  V30 3559 H 353.927 1.45236 0.639702 0
M  V30 3560 H 353.948 1.83391 3.33389 0
M  V30 3561 H 353.46 3.22728 2.15566 0
M  V30 3562 H 351.561 1.18235 3.53343 0
M  V30 3563 H 351.674 3.06038 3.68616 0
M  V30 3564 H 350.038 1.55134 2.02004 0
M  V30 3565 H 350.821 3.11777 1.43701 0
M  V30 3566 N 353.266 -1.05314 1.17247 0
M  V30 3567 C 354.682 -1.30452 0.919473 0
M  V30 3568 C 354.882 -1.9703 -0.42209 0
M  V30 3569 O 353.938 -2.24311 -1.15935 0
M  V30 3570 C 355.251 -2.17551 2.07586 0
M  V30 3571 C 356.799 -2.30937 2.11275 0
M  V30 3572 C 357.274 -3.21396 3.26296 0
M  V30 3573 N 358.765 -3.28981 3.26076 0
M  V30 3574 C 359.5 -3.99095 4.11716 0
M  V30 3575 N 358.996 -4.71648 5.07465 0
M  V30 3576 N 360.789 -3.95247 3.9967 0
M  V30 3577 H 352.94 -0.604988 2.03602 0
M  V30 3578 H 355.203 -0.329368 0.888944 0
M  V30 3579 H 354.909 -1.75921 3.0454 0
M  V30 3580 H 354.783 -3.18182 2.02584 0
M  V30 3581 H 357.17 -2.71809 1.14907 0
M  V30 3582 H 357.251 -1.2994 2.20339 0
M  V30 3583 H 356.895 -2.81238 4.22927 0
M  V30 3584 H 356.825 -4.22395 3.14467 0
M  V30 3585 H 359.316 -2.77286 2.5675 0
M  V30 3586 H 359.629 -5.22705 5.6921 0
M  V30 3587 H 357.974 -4.70594 5.11435 0
M  V30 3588 H 361.165 -3.37691 3.24164 0
M  V30 3589 H 361.338 -4.4962 4.66632 0
M  V30 3590 N 354.744 -0.972509 -1.24016 0
M  V30 3591 C 355.991 -0.637034 -1.92219 0
M  V30 3592 C 356.319 0.828418 -1.75976 0
M  V30 3593 O 355.574 1.61206 -1.10955 0
M  V30 3594 C 355.873 -0.963694 -3.44162 0
M  V30 3595 C 355.539 -2.41807 -3.80579 0
M  V30 3596 C 354.201 -2.81556 -3.9023 0
M  V30 3597 C 356.553 -3.36172 -3.98293 0
M  V30 3598 C 353.881 -4.14702 -4.15017 0
M  V30 3599 C 356.233 -4.68952 -4.24578 0
M  V30 3600 C 354.897 -5.08472 -4.32449 0
M  V30 3601 H 354.167 -0.233107 -0.703379 0
M  V30 3602 H 356.814 -1.2249 -1.47202 0
M  V30 3603 H 355.119 -0.29365 -3.90698 0
M  V30 3604 H 356.816 -0.682449 -3.9515 0
M  V30 3605 H 353.406 -2.09988 -3.73635 0
M  V30 3606 H 357.59 -3.06644 -3.90234 0
M  V30 3607 H 352.846 -4.4494 -4.19331 0
M  V30 3608 H 357.02 -5.42037 -4.37229 0
M  V30 3609 H 354.647 -6.11665 -4.51409 0
M  V30 3610 N 356.222 1.38976 -0.743202 0
M  V30 3611 C 357.155 2.28128 -0.0572165 0
M  V30 3612 C 358.133 1.44827 0.739182 0
M  V30 3613 O 359.317 1.74207 0.720009 0
M  V30 3614 C 356.444 3.25796 0.926001 0
M  V30 3615 C 355.49 4.25947 0.217099 0
M  V30 3616 S 356.323 5.24604 -1.07477 0
M  V30 3617 C 357.479 6.25829 -0.0943545 0
M  V30 3618 H 357.712 2.85961 -0.813246 0
M  V30 3619 H 355.245 1.44822 -0.535341 0
M  V30 3620 H 357.203 3.82583 1.48797 0
M  V30 3621 H 355.864 2.66966 1.65493 0
M  V30 3622 H 355.057 4.94746 0.961372 0
M  V30 3623 H 354.659 3.73002 -0.273059 0
M  V30 3624 H 356.951 6.73411 0.743239 0
M  V30 3625 H 357.894 7.0412 -0.749713 0
M  V30 3626 H 358.302 5.63797 0.281706 0
M  V30 3627 N 357.7 0.491464 1.49741 0
M  V30 3628 C 358.946 -0.0485431 2.03342 0
M  V30 3629 C 359.301 -1.35566 1.36527 0
M  V30 3630 O 358.594 -1.85262 0.488729 0
M  V30 3631 C 358.788 -0.267329 3.56399 0
M  V30 3632 C 358.617 1.01703 4.38049 0
M  V30 3633 C 357.387 1.56614 4.80417 0
M  V30 3634 C 359.585 1.91782 4.77204 0
M  V30 3635 N 357.567 2.7974 5.4646 0
M  V30 3636 C 358.938 2.99489 5.42868 0
M  V30 3637 C 360.993 1.92575 4.5915 0
M  V30 3638 C 359.696 4.08005 5.92389 0
M  V30 3639 C 361.722 3.0006 5.09626 0
M  V30 3640 C 361.084 4.06485 5.75282 0
M  V30 3641 H 357.183 0.0227779 0.781668 0
M  V30 3642 H 359.767 0.664204 1.8302 0
M  V30 3643 H 357.938 -0.949126 3.76625 0
M  V30 3644 H 359.67 -0.803492 3.96644 0
M  V30 3645 H 356.425 1.11256 4.60347 0
M  V30 3646 H 356.849 3.42323 5.84075 0
M  V30 3647 H 361.491 1.11605 4.07804 0
M  V30 3648 H 359.209 4.89779 6.42761 0
M  V30 3649 H 362.795 3.01681 4.97473 0
M  V30 3650 H 361.675 4.88287 6.13633 0
M  V30 3651 N 359.178 -1.55987 0.224894 0
M  V30 3652 C 360.108 -2.23426 -0.678457 0
M  V30 3653 C 361.089 -1.20709 -1.19847 0
M  V30 3654 O 362.274 -1.49304 -1.24186 0
M  V30 3655 C 359.404 -2.91676 -1.88527 0
M  V30 3656 C 358.358 -4.00893 -1.49896 0
M  V30 3657 C 357.684 -4.56455 -2.78483 0
M  V30 3658 C 358.984 -5.17769 -0.686461 0
M  V30 3659 H 360.678 -2.99175 -0.116173 0
M  V30 3660 H 358.224 -1.43897 -0.054436 0
M  V30 3661 H 360.177 -3.37547 -2.5227 0
M  V30 3662 H 358.901 -2.1338 -2.47258 0
M  V30 3663 H 357.56 -3.55758 -0.884985 0
M  V30 3664 H 357.208 -3.74886 -3.35365 0
M  V30 3665 H 356.908 -5.30169 -2.53368 0
M  V30 3666 H 358.432 -5.05047 -3.43162 0
M  V30 3667 H 359.846 -5.60001 -1.22767 0
M  V30 3668 H 358.243 -5.97735 -0.532259 0
M  V30 3669 H 359.313 -4.83932 0.306196 0
M  V30 3670 N 360.656 0.0484629 -1.57525 0
M  V30 3671 C 361.603 1.05504 -2.05275 0
M  V30 3672 C 362.573 1.37084 -0.937927 0
M  V30 3673 O 363.758 1.47754 -1.2072 0
M  V30 3674 C 360.898 2.35676 -2.52093 0
M  V30 3675 C 360.011 2.10423 -3.77288 0
M  V30 3676 C 359.146 3.34327 -4.12794 0
M  V30 3677 C 358.185 3.04542 -5.30962 0
M  V30 3678 N 357.322 4.20841 -5.61994 0
M  V30 3679 H 362.162 0.640885 -2.91027 0
M  V30 3680 H 359.699 0.304854 -1.43906 0
M  V30 3681 H 361.657 3.11709 -2.77297 0
M  V30 3682 H 360.287 2.7485 -1.69285 0
M  V30 3683 H 359.339 1.24976 -3.59284 0
M  V30 3684 H 360.651 1.84438 -4.63448 0
M  V30 3685 H 359.805 4.1874 -4.39024 0
M  V30 3686 H 358.544 3.63408 -3.25247 0
M  V30 3687 H 357.549 2.18528 -5.04505 0
M  V30 3688 H 358.774 2.76758 -6.20146 0
M  V30 3689 H 356.72 4.4991 -4.77406 0
M  V30 3690 H 356.637 3.98212 -6.42622 0
M  V30 3691 H 357.905 5.06184 -5.92789 0
M  V30 3692 N 362.134 1.5431 0.320358 0
M  V30 3693 C 363.362 1.76636 1.07738 0
M  V30 3694 C 363.777 0.51649 1.81598 0
M  V30 3695 O 363.134 -0.512942 1.75143 0
M  V30 3696 C 363.185 2.96158 2.07299 0
M  V30 3697 O 362.906 4.16313 1.36438 0
M  V30 3698 C 364.407 3.3072 2.95193 0
M  V30 3699 H 361.627 0.589597 0.320339 0
M  V30 3700 H 364.171 2.01207 0.36551 0
M  V30 3701 H 362.326 2.73851 2.74016 0
M  V30 3702 H 362.74 4.83565 2.03138 0
M  V30 3703 H 364.214 4.17643 3.60941 0
M  V30 3704 H 364.691 2.48026 3.62463 0
M  V30 3705 H 365.297 3.55117 2.34034 0
M  V30 3706 N 363.613 -0.582584 1.46437 0
M  V30 3707 C 364.859 -1.34278 1.51978 0
M  V30 3708 C 365.192 -1.93446 0.170973 0
M  V30 3709 O 364.467 -1.76481 -0.817608 0
M  V30 3710 C 364.75 -2.47203 2.61845 0
M  V30 3711 C 364.603 -1.93069 4.06257 0
M  V30 3712 C 365.922 -3.49247 2.67795 0
M  V30 3713 H 363.041 -0.486876 0.553282 0
M  V30 3714 H 365.683 -0.654437 1.78374 0
M  V30 3715 H 363.833 -3.0592 2.39469 0
M  V30 3716 H 365.505 -1.38808 4.3992 0
M  V30 3717 H 363.748 -1.23898 4.1573 0
M  V30 3718 H 364.419 -2.74586 4.7886 0
M  V30 3719 H 366.895 -3.00411 2.8791 0
M  V30 3720 H 365.771 -4.25719 3.46489 0
M  V30 3721 H 366.032 -4.06482 1.73852 0
M  V30 3722 N 365.091 -1.34144 -0.827227 0
M  V30 3723 C 366.338 -1.26258 -1.58319 0
M  V30 3724 C 366.666 0.168595 -1.93768 0
M  V30 3725 O 365.921 1.12877 -1.59866 0
M  V30 3726 C 366.22 -2.09464 -2.89585 0
M  V30 3727 C 365.886 -3.58521 -2.73448 0
M  V30 3728 C 364.548 -3.99155 -2.68754 0
M  V30 3729 C 366.9 -4.53189 -2.57428 0
M  V30 3730 C 364.228 -5.32656 -2.45957 0
M  V30 3731 C 366.58 -5.86864 -2.36163 0
M  V30 3732 C 365.244 -6.26667 -2.29879 0
M  V30 3733 H 364.514 -0.462013 -0.579332 0
M  V30 3734 H 367.161 -1.65845 -0.95748 0
M  V30 3735 H 365.466 -1.62692 -3.56425 0
M  V30 3736 H 367.163 -2.00712 -3.47154 0
M  V30 3737 H 363.753 -3.26264 -2.77939 0
M  V30 3738 H 367.937 -4.22696 -2.60081 0
M  V30 3739 H 363.193 -5.62519 -2.39546 0
M  V30 3740 H 367.367 -6.59813 -2.22754 0
M  V30 3741 H 364.994 -7.30049 -2.11975 0
M  V30 3742 N 366.569 1.04691 -1.17803 0
M  V30 3743 C 367.479 2.16057 -0.914151 0
M  V30 3744 C 368.495 1.73589 0.119503 0
M  V30 3745 O 369.671 2.01308 -0.0609468 0
M  V30 3746 C 366.736 3.4394 -0.436603 0
M  V30 3747 C 365.797 4.00825 -1.53746 0
M  V30 3748 C 365.03 5.22604 -1.0826 0
M  V30 3749 O 365.253 5.70367 0.0612244 0
M  V30 3750 O 364.187 5.7186 -1.87775 0
M  V30 3751 H 368.013 2.41169 -1.84584 0
M  V30 3752 H 365.598 1.1453 -0.959334 0
M  V30 3753 H 367.48 4.21024 -0.178057 0
M  V30 3754 H 366.155 3.20316 0.466869 0
M  V30 3755 H 365.062 3.25158 -1.84995 0
M  V30 3756 H 366.395 4.28778 -2.41683 0
M  V30 3757 N 368.047 0.979072 1.23499 0
M  V30 3758 C 369.01 0.523244 2.23147 0
M  V30 3759 C 370.01 -0.386406 1.56088 0
M  V30 3760 O 371.2 -0.180283 1.73265 0
M  V30 3761 C 368.332 -0.240739 3.40049 0
M  V30 3762 H 369.525 1.40432 2.64989 0
M  V30 3763 H 367.078 0.764824 1.36309 0
M  V30 3764 H 367.813 -1.13841 3.03662 0
M  V30 3765 H 367.598 0.412207 3.89927 0
M  V30 3766 H 369.088 -0.548297 4.13985 0
M  V30 3767 N 369.525 -1.3858 0.750561 0
M  V30 3768 C 370.488 -2.28836 0.129152 0
M  V30 3769 C 371.488 -1.47045 -0.650714 0
M  V30 3770 O 372.678 -1.6753 -0.477428 0
M  V30 3771 C 369.81 -3.30751 -0.825622 0
M  V30 3772 H 371.003 -2.85294 0.924516 0
M  V30 3773 H 368.556 -1.47489 0.517376 0
M  V30 3774 H 369.291 -2.79378 -1.64677 0
M  V30 3775 H 369.076 -3.91177 -0.268852 0
M  V30 3776 H 370.566 -3.98249 -1.2565 0
M  V30 3777 N 371.003 -0.499398 -1.49478 0
M  V30 3778 C 372.28 0.108629 -1.95298 0
M  V30 3779 C 372.66 1.54282 -1.44084 0
M  V30 3780 O 372.008 2.18944 -0.653908 0
M  V30 3781 C 372.218 0.0229111 -3.48992 0
M  V30 3782 C 373.566 0.197643 -4.2414 0
M  V30 3783 O 374.59 0.0981735 -3.56065 0
M  V30 3784 O 373.449 0.401669 -5.45022 0
M  V30 3785 H 370.543 0.096181 -0.821388 0
M  V30 3786 H 373.089 -0.561822 -1.6013 0
M  V30 3787 H 371.861 -0.977321 -3.78899 0
M  V30 3788 H 371.484 0.733579 -3.90774 0
M  V30 3789 N 372.481 1.55866 -0.233164 0
M  V30 3790 C 373.727 1.98897 0.395959 0
M  V30 3791 C 374.06 1.12091 1.58585 0
M  V30 3792 O 373.335 0.181182 1.93654 0
M  V30 3793 C 373.618 3.50658 0.819224 0
M  V30 3794 C 373.471 4.48233 -0.375109 0
M  V30 3795 C 374.79 4.07135 1.67121 0
M  V30 3796 H 371.909 0.723102 0.142451 0
M  V30 3797 H 374.551 1.87082 -0.331725 0
M  V30 3798 H 372.701 3.60857 1.43925 0
M  V30 3799 H 374.373 4.50031 -1.01341 0
M  V30 3800 H 372.616 4.21624 -1.02058 0
M  V30 3801 H 373.287 5.51988 -0.0358328 0
M  V30 3802 H 375.763 3.99952 1.14795 0
M  V30 3803 H 374.639 5.13615 1.93625 0
M  V30 3804 H 374.9 3.54736 2.63846 0
M  V30 3805 N 373.959 -0.0401083 1.57549 0
M  V30 3806 C 375.236 -0.767917 1.79896 0
M  V30 3807 C 375.616 -1.9416 0.82856 0
M  V30 3808 O 374.964 -2.2812 -0.131671 0
M  V30 3809 C 375.174 -1.2113 3.27305 0
M  V30 3810 C 376.522 -1.63175 3.91994 0
M  V30 3811 O 377.546 -1.30616 3.31388 0
M  V30 3812 O 376.405 -2.23565 4.98679 0
M  V30 3813 H 373.499 -0.370441 0.739393 0
M  V30 3814 H 376.045 -0.017737 1.69691 0
M  V30 3815 H 374.817 -0.372937 3.89519 0
M  V30 3816 H 374.44 -2.02183 3.42356 0
M  V30 3817 N 375.437 -1.54477 -0.31217 0
M  V30 3818 C 376.685 -1.72884 -1.04668 0
M  V30 3819 C 377.006 -0.511477 -1.88173 0
M  V30 3820 O 376.276 0.474407 -1.90069 0
M  V30 3821 H 374.856 -0.637461 -0.389425 0
M  V30 3822 H 377.518 -1.91807 -0.345852 0
M  V30 3823 H 376.614 -2.61334 -1.70619 0
M  V30 3824 N 376.915 0.57481 -1.46744 0
M  V30 3825 C 377.863 1.70435 -1.58286 0
M  V30 3826 C 378.857 1.63287 -0.450956 0
M  V30 3827 O 380.063 1.68685 -0.628121 0
M  V30 3828 H 376.438 0.56364 -0.497809 0
M  V30 3829 H 378.409 1.57833 -2.53242 0
M  V30 3830 C 377.158 3.08815 -1.59776 0
M  V30 3831 H 376.481 3.1499 -2.46214 0
M  V30 3832 H 377.921 3.87588 -1.71905 0
M  V30 3833 C 376.38 3.35301 -0.327812 0
M  V30 3834 O 376.91 3.97511 0.57861 0
M  V30 3835 N 375.116 2.89816 -0.213274 0
M  V30 3836 H 374.663 2.39371 -0.951798 0
M  V30 3837 H 374.621 3.0791 0.63553 0
M  V30 3838 N 378.394 1.34581 0.820102 0
M  V30 3839 C 379.642 1.26845 1.57336 0
M  V30 3840 C 379.963 -0.160667 1.94337 0
M  V30 3841 O 379.233 -1.09396 1.6251 0
M  V30 3842 H 377.813 0.466514 0.583415 0
M  V30 3843 H 380.475 1.68526 0.979027 0
M  V30 3844 H 379.571 1.87513 2.4949 0
M  V30 3845 N 379.872 -1.04064 1.18357 0
M  V30 3846 C 381.121 -1.76662 0.973313 0
M  V30 3847 C 381.434 -1.89154 -0.497991 0
M  V30 3848 O 382.64 -2.58606 -0.826762 0
M  V30 3849 C 381.096 -3.17624 1.69242 0
M  V30 3850 C 380.704 -3.13225 3.20303 0
M  V30 3851 C 382.448 -3.946 1.56497 0
M  V30 3852 C 380.355 -4.49046 3.84853 0
M  V30 3853 H 379.285 -0.662214 0.36054 0
M  V30 3854 H 381.936 -1.16553 1.41731 0
M  V30 3855 H 380.318 -3.78129 1.1762 0
M  V30 3856 H 381.492 -2.62172 3.78949 0
M  V30 3857 H 379.807 -2.49749 3.33189 0
M  V30 3858 H 382.404 -4.95042 2.02084 0
M  V30 3859 H 382.747 -4.13074 0.517243 0
M  V30 3860 H 383.28 -3.4067 2.05399 0
M  V30 3861 H 380.019 -4.35777 4.89672 0
M  V30 3862 H 379.539 -5.00203 3.30994 0
M  V30 3863 H 381.218 -5.17961 3.87718 0
M  V30 3864 N 381.35 -0.985608 -1.22978 0
M  V30 3865 C 382.283 -0.47487 -2.23204 0
M  V30 3866 C 383.261 0.460865 -1.55932 0
M  V30 3867 O 384.445 0.388105 -1.84461 0
M  V30 3868 C 381.572 0.312427 -3.37256 0
M  V30 3869 C 380.618 -0.568219 -4.22698 0
M  V30 3870 S 381.451 -2.01919 -4.95973 0
M  V30 3871 C 382.607 -1.24118 -6.1347 0
M  V30 3872 H 382.84 -1.32419 -2.66181 0
M  V30 3873 H 380.373 -0.792005 -1.32539 0
M  V30 3874 H 382.331 0.760645 -4.03391 0
M  V30 3875 H 380.992 1.13693 -2.92801 0
M  V30 3876 H 380.185 0.0371657 -5.03986 0
M  V30 3877 H 379.787 -0.952897 -3.61657 0
M  V30 3878 H 382.079 -0.505121 -6.75614 0
M  V30 3879 H 383.022 -2.02907 -6.78406 0
M  V30 3880 H 383.43 -0.757669 -5.59392 0
M  V30 3881 N 382.828 1.3818 -0.7579 0
M  V30 3882 C 383.758 2.33027 -0.148597 0
M  V30 3883 C 384.739 1.55085 0.69875 0
M  V30 3884 O 385.924 1.83384 0.639053 0
M  V30 3885 C 383.054 3.3928 0.742034 0
M  V30 3886 C 382.008 4.28 -0.00291946 0
M  V30 3887 C 381.334 5.25146 1.00625 0
M  V30 3888 C 382.634 5.08938 -1.17385 0
M  V30 3889 H 384.328 2.84231 -0.940909 0
M  V30 3890 H 381.874 1.36659 -0.453908 0
M  V30 3891 H 383.827 4.046 1.17799 0
M  V30 3892 H 382.551 2.86569 1.56671 0
M  V30 3893 H 381.21 3.64192 -0.419504 0
M  V30 3894 H 380.858 4.68721 1.8251 0
M  V30 3895 H 380.558 5.85361 0.512428 0
M  V30 3896 H 382.082 5.93342 1.44143 0
M  V30 3897 H 383.496 5.67474 -0.815224 0
M  V30 3898 H 381.893 5.7841 -1.59882 0
M  V30 3899 H 382.963 4.42424 -1.98468 0
M  V30 3900 N 384.306 0.507319 1.49211 0
M  V30 3901 C 385.216 -0.272136 2.33016 0
M  V30 3902 C 386.232 -0.961206 1.45041 0
M  V30 3903 O 387.408 -0.941191 1.78055 0
M  V30 3904 C 384.473 -1.31895 3.20631 0
M  V30 3905 C 383.534 -0.642648 4.24463 0
M  V30 3906 C 382.767 -1.63959 5.07891 0
M  V30 3907 O 382.99 -2.87007 4.92933 0
M  V30 3908 O 381.924 -1.19143 5.8999 0
M  V30 3909 H 385.75 0.413982 3.00865 0
M  V30 3910 H 383.335 0.268556 1.46966 0
M  V30 3911 H 385.217 -1.92446 3.7489 0
M  V30 3912 H 383.892 -1.98788 2.5547 0
M  V30 3913 H 382.799 0.00276252 3.741 0
M  V30 3914 H 384.132 -0.0160534 4.92197 0
M  V30 3915 N 385.784 -1.5574 0.241426 0
M  V30 3916 C 387.061 -1.90704 -0.434881 0
M  V30 3917 C 387.441 -1.16145 -1.76277 0
M  V30 3918 O 386.789 -0.277152 -2.26813 0
M  V30 3919 C 386.999 -3.43657 -0.608343 0
M  V30 3920 C 388.347 -4.14806 -0.906725 0
M  V30 3921 O 389.371 -3.49366 -0.694408 0
M  V30 3922 O 388.23 -5.30548 -1.31075 0
M  V30 3923 H 385.324 -0.793592 -0.23268 0
M  V30 3924 H 387.87 -1.67288 0.285086 0
M  V30 3925 H 386.642 -3.89927 0.327505 0
M  V30 3926 H 386.265 -3.72918 -1.37906 0
M  V30 3927 N 387.262 0.0317525 -1.57568 0
M  V30 3928 C 388.49 0.734949 -1.93407 0
M  V30 3929 C 388.905 1.69036 -0.84096 0
M  V30 3930 O 388.262 1.81582 0.182836 0
M  V30 3931 C 388.313 1.49432 -3.29169 0
M  V30 3932 O 388.034 0.577261 -4.3428 0
M  V30 3933 C 389.535 2.29492 -3.79273 0
M  V30 3934 H 386.755 0.206706 -0.638368 0
M  V30 3935 H 389.299 -0.00992046 -2.04498 0
M  V30 3936 H 387.454 2.1911 -3.19483 0
M  V30 3937 H 387.868 1.10952 -5.1263 0
M  V30 3938 H 389.342 2.78172 -4.76785 0
M  V30 3939 H 389.819 3.10794 -3.10328 0
M  V30 3940 H 390.425 1.64894 -3.92033 0
M  V30 3941 N 388.74 1.54641 0.303973 0
M  V30 3942 C 389.965 1.78092 1.06292 0
M  V30 3943 C 390.39 0.537342 1.80262 0
M  V30 3944 O 389.748 -0.511993 1.7392 0
M  V30 3945 C 389.796 2.98612 2.02147 0
M  V30 3946 O 388.9 2.71528 3.10397 0
M  V30 3947 H 388.241 0.589548 0.305497 0
M  V30 3948 H 390.771 2.01716 0.3423 0
M  V30 3949 H 390.781 3.265 2.44667 0
M  V30 3950 H 389.456 3.88785 1.47714 0
M  V30 3951 H 388.033 2.54648 2.72413 0
M  V30 3952 N 390.218 -0.567019 1.47046 0
M  V30 3953 C 391.464 -1.32658 1.53394 0
M  V30 3954 C 391.797 -1.93254 0.19148 0
M  V30 3955 O 391.072 -1.77338 -0.798844 0
M  V30 3956 C 391.355 -2.44412 2.64452 0
M  V30 3957 C 391.208 -1.88749 4.08282 0
M  V30 3958 C 392.527 -3.46387 2.71485 0
M  V30 3959 H 389.646 -0.48098 0.558415 0
M  V30 3960 H 392.288 -0.635481 1.79058 0
M  V30 3961 H 390.438 -3.03363 2.427 0
M  V30 3962 H 392.11 -1.34134 4.41368 0
M  V30 3963 H 390.353 -1.19481 4.17021 0
M  V30 3964 H 391.024 -2.69491 4.81745 0
M  V30 3965 H 393.5 -2.9734 2.91081 0
M  V30 3966 H 392.376 -4.2202 3.50985 0
M  V30 3967 H 392.637 -4.04616 1.78153 0
M  V30 3968 N 391.696 -1.35014 -0.812953 0
M  V30 3969 C 392.606 -1.2951 -1.95613 0
M  V30 3970 C 393.622 -0.20107 -1.72834 0
M  V30 3971 O 394.798 -0.42932 -1.96771 0
M  V30 3972 C 391.863 -1.06033 -3.30088 0
M  V30 3973 C 390.924 -2.24688 -3.65805 0
M  V30 3974 C 390.157 -2.02322 -4.93864 0
M  V30 3975 O 390.38 -0.986464 -5.61805 0
M  V30 3976 O 389.314 -2.89525 -5.27692 0
M  V30 3977 H 393.14 -2.25705 -2.03202 0
M  V30 3978 H 390.725 -1.15321 -0.949811 0
M  V30 3979 H 392.607 -0.94763 -4.10607 0
M  V30 3980 H 391.282 -0.128852 -3.23443 0
M  V30 3981 H 390.189 -2.41521 -2.85689 0
M  V30 3982 H 391.522 -3.16261 -3.77147 0
M  V30 3983 N 393.175 1.03435 -1.18907 0
M  V30 3984 C 394.105 2.13503 -0.945448 0
M  V30 3985 C 395.086 1.69682 0.119189 0
M  V30 3986 O 396.271 1.94169 -0.034707 0
M  V30 3987 C 393.401 3.44004 -0.477316 0
M  V30 3988 C 392.355 4.0148 -1.48316 0
M  V30 3989 C 391.681 5.27537 -0.872311 0
M  V30 3990 C 392.981 4.36921 -2.86177 0
M  V30 3991 H 394.675 2.34141 -1.86597 0
M  V30 3992 H 392.221 1.12523 -0.898584 0
M  V30 3993 H 394.174 4.20372 -0.294204 0
M  V30 3994 H 392.898 3.23072 0.478786 0
M  V30 3995 H 391.557 3.27201 -1.65332 0
M  V30 3996 H 391.205 5.02917 0.0911752 0
M  V30 3997 H 390.905 5.66954 -1.54393 0
M  V30 3998 H 392.429 6.06576 -0.699871 0
M  V30 3999 H 393.843 5.04248 -2.72776 0
M  V30 4000 H 392.24 4.87405 -3.50081 0
M  V30 4001 H 393.31 3.46466 -3.39248 0
M  V30 4002 N 394.653 0.992116 1.22453 0
M  V30 4003 C 395.902 0.662992 1.90492 0
M  V30 4004 C 396.215 -0.808407 1.78113 0
M  V30 4005 O 397.421 -1.24908 2.41061 0
M  V30 4006 C 395.877 1.1353 3.41524 0
M  V30 4007 C 395.485 2.63187 3.62542 0
M  V30 4008 C 397.229 0.880465 4.15269 0
M  V30 4009 C 395.136 3.04024 5.0727 0
M  V30 4010 H 394.066 0.244278 0.713333 0
M  V30 4011 H 396.717 1.20157 1.38688 0
M  V30 4012 H 395.099 0.52485 3.92506 0
M  V30 4013 H 396.273 3.2957 3.22056 0
M  V30 4014 H 394.588 2.86543 3.02129 0
M  V30 4015 H 397.185 1.16128 5.21937 0
M  V30 4016 H 397.528 -0.183408 4.15896 0
M  V30 4017 H 398.061 1.45307 3.70312 0
M  V30 4018 H 394.8 4.09584 5.11782 0
M  V30 4019 H 394.32 2.42343 5.48662 0
M  V30 4020 H 395.999 2.95282 5.75689 0
M  V30 4021 N 396.131 -1.37776 0.765217 0
M  V30 4022 C 397.078 -2.30342 0.145274 0
M  V30 4023 C 398.048 -1.5077 -0.696971 0
M  V30 4024 O 399.233 -1.79362 -0.650689 0
M  V30 4025 C 396.373 -3.37227 -0.732939 0
M  V30 4026 C 395.486 -4.31819 0.125199 0
M  V30 4027 C 394.621 -5.25777 -0.757107 0
M  V30 4028 C 393.66 -6.12012 0.103963 0
M  V30 4029 N 392.797 -6.98232 -0.735953 0
M  V30 4030 H 397.637 -2.8278 0.940195 0
M  V30 4031 H 395.174 -1.39211 0.475255 0
M  V30 4032 H 397.132 -3.97818 -1.25686 0
M  V30 4033 H 395.762 -2.86171 -1.49353 0
M  V30 4034 H 394.814 -3.7259 0.766865 0
M  V30 4035 H 396.126 -4.92509 0.789683 0
M  V30 4036 H 395.28 -5.91541 -1.34776 0
M  V30 4037 H 394.019 -4.65481 -1.45529 0
M  V30 4038 H 393.024 -5.45233 0.707197 0
M  V30 4039 H 394.249 -6.74379 0.799381 0
M  V30 4040 H 392.195 -6.40472 -1.41887 0
M  V30 4041 H 392.112 -7.55891 -0.128624 0
M  V30 4042 H 393.38 -7.68393 -1.31121 0
M  V30 4043 N 397.609 -0.515225 -1.4894 0
M  V30 4044 C 398.541 0.292481 -2.27326 0
M  V30 4045 C 399.554 0.917838 -1.3446 0
M  V30 4046 O 400.743 0.798772 -1.5963 0
M  V30 4047 C 397.843 1.42803 -3.07344 0
M  V30 4048 C 397.016 0.907347 -4.27885 0
M  V30 4049 C 396.075 1.92222 -4.89834 0
M  V30 4050 O 395.101 1.48506 -5.49486 0
M  V30 4051 N 396.303 3.25355 -4.80754 0
M  V30 4052 H 399.068 -0.379721 -2.97285 0
M  V30 4053 H 396.629 -0.348638 -1.58102 0
M  V30 4054 H 398.621 2.10481 -3.45658 0
M  V30 4055 H 397.191 2.00414 -2.39902 0
M  V30 4056 H 396.411 0.0550218 -3.94162 0
M  V30 4057 H 397.699 0.538108 -5.05946 0
M  V30 4058 H 397.097 3.6355 -4.33414 0
M  V30 4059 H 395.654 3.88707 -5.23211 0
M  V30 4060 N 399.087 1.5561 -0.249682 0
M  V30 4061 C 400.017 2.24477 0.642826 0
M  V30 4062 C 400.998 1.22601 1.17911 0
M  V30 4063 O 402.183 1.5126 1.21795 0
M  V30 4064 C 399.313 2.94638 1.83863 0
M  V30 4065 C 398.267 4.03227 1.435 0
M  V30 4066 C 397.593 4.60828 2.71186 0
M  V30 4067 C 398.893 5.18796 0.604002 0
M  V30 4068 H 400.587 2.99321 0.0685625 0
M  V30 4069 H 398.133 1.43965 0.0315363 0
M  V30 4070 H 400.086 3.41517 2.46868 0
M  V30 4071 H 398.81 2.17287 2.43832 0
M  V30 4072 H 397.469 3.57121 0.828275 0
M  V30 4073 H 397.117 3.80174 3.29358 0
M  V30 4074 H 396.817 5.34132 2.44901 0
M  V30 4075 H 398.341 5.10442 3.35084 0
M  V30 4076 H 399.755 5.61883 1.13842 0
M  V30 4077 H 398.152 5.98506 0.437097 0
M  V30 4078 H 399.222 4.83384 -0.383147 0
M  V30 4079 N 400.565 -0.0233959 1.57583 0
M  V30 4080 C 401.513 -1.04063 2.08023 0
M  V30 4081 C 402.507 -1.37084 0.995204 0
M  V30 4082 O 403.713 -1.35923 1.18004 0
M  V30 4083 H 400.088 -0.353144 0.663922 0
M  V30 4084 H 402.059 -0.589453 2.9252 0
M  V30 4085 C 400.808 -2.33123 2.57971 0
M  V30 4086 H 400.131 -2.08577 3.4108 0
M  V30 4087 H 401.571 -3.02632 2.96967 0
M  V30 4088 C 400.03 -3.02483 1.48342 0
M  V30 4089 O 400.56 -3.92541 0.852898 0
M  V30 4090 N 398.766 -2.63909 1.21658 0
M  V30 4091 H 398.313 -1.90758 1.73116 0
M  V30 4092 H 398.271 -3.10633 0.485218 0
M  V30 4093 N 402.043 -1.548 -0.295768 0
M  V30 4094 C 403.454 -1.65274 -0.868411 0
M  V30 4095 C 403.805 -0.56481 -1.87894 0
M  V30 4096 O 402.93 0.29767 -2.14343 0
M  V30 4097 C 403.525 -2.99603 -1.58188 0
M  V30 4098 C 402.084 -3.12181 -2.10286 0
M  V30 4099 C 401.231 -2.6098 -0.93727 0
M  V30 4100 H 404.182 -1.58534 -0.0726422 0
M  V30 4101 H 404.203 -2.91319 -2.44772 0
M  V30 4102 H 403.715 -3.78764 -0.846151 0
M  V30 4103 H 401.816 -2.3775 -2.8689 0
M  V30 4104 H 401.929 -4.18415 -2.33379 0
M  V30 4105 H 400.293 -2.17564 -1.32431 0
M  V30 4106 H 401.076 -3.42623 -0.215414 0
M  V30 4107 N 403.521 0.559213 -1.47345 0
M  V30 4108 C 404.749 1.34194 -1.57479 0
M  V30 4109 C 405.164 1.87463 -0.224261 0
M  V30 4110 O 404.521 1.64888 0.782185 0
M  V30 4111 C 404.572 2.51324 -2.59843 0
M  V30 4112 O 404.293 2.00256 -3.89653 0
M  V30 4113 C 405.794 3.43563 -2.80142 0
M  V30 4114 H 403.014 0.409136 -0.531835 0
M  V30 4115 H 405.558 0.677609 -1.92947 0
M  V30 4116 H 403.713 3.13699 -2.27314 0
M  V30 4117 H 404.127 2.76708 -4.4557 0
M  V30 4118 H 405.601 4.2217 -3.55635 0
M  V30 4119 H 406.078 3.9698 -1.87892 0
M  V30 4120 H 406.684 2.87005 -3.1386 0
M  V30 4121 N 404.999 1.35443 0.805782 0
M  V30 4122 C 405.929 1.31095 1.93226 0
M  V30 4123 C 406.91 0.185244 1.69088 0
M  V30 4124 O 408.095 0.380332 1.90439 0
M  V30 4125 C 405.225 1.08299 3.29983 0
M  V30 4126 C 404.179 2.17519 3.68605 0
M  V30 4127 C 403.505 1.79887 5.03532 0
M  V30 4128 C 404.805 3.5949 3.78898 0
M  V30 4129 H 406.499 2.25352 1.97122 0
M  V30 4130 H 404.045 1.0848 0.946996 0
M  V30 4131 H 405.998 1.03897 4.08391 0
M  V30 4132 H 404.722 0.104885 3.26432 0
M  V30 4133 H 403.381 2.2102 2.92482 0
M  V30 4134 H 403.029 0.80693 4.96485 0
M  V30 4135 H 402.729 2.53001 5.30344 0
M  V30 4136 H 404.253 1.77011 5.84379 0
M  V30 4137 H 405.667 3.58307 4.47536 0
M  V30 4138 H 404.064 4.31371 4.1718 0
M  V30 4139 H 405.134 3.95584 2.80431 0
M  V30 4140 N 406.477 -1.02803 1.19454 0
M  V30 4141 C 407.424 -2.11099 0.933046 0
M  V30 4142 C 408.394 -1.65571 -0.132447 0
M  V30 4143 O 409.579 -1.90797 0.00987576 0
M  V30 4144 C 406.719 -3.41763 0.478747 0
M  V30 4145 C 405.832 -4.00833 1.6111 0
M  V30 4146 C 404.967 -5.19511 1.10825 0
M  V30 4147 C 404.006 -5.70639 2.21445 0
M  V30 4148 N 403.143 -6.80589 1.72461 0
M  V30 4149 H 407.983 -2.32804 1.86028 0
M  V30 4150 H 405.52 -1.14179 0.927441 0
M  V30 4151 H 407.478 -4.16736 0.196745 0
M  V30 4152 H 406.108 -3.20166 -0.411493 0
M  V30 4153 H 405.16 -3.23066 2.00829 0
M  V30 4154 H 406.472 -4.34794 2.4445 0
M  V30 4155 H 405.626 -6.01645 0.781533 0
M  V30 4156 H 404.365 -4.87086 0.244606 0
M  V30 4157 H 403.37 -4.87116 2.54947 0
M  V30 4158 H 404.595 -6.05102 3.08267 0
M  V30 4159 H 402.541 -6.50016 0.884056 0
M  V30 4160 H 402.458 -7.13681 2.49389 0
M  V30 4161 H 403.726 -7.66317 1.42755 0
M  V30 4162 N 407.956 -0.998596 -1.21925 0
M  V30 4163 C 408.866 -0.562736 -2.27751 0
M  V30 4164 C 409.882 0.391203 -1.69545 0
M  V30 4165 O 411.058 0.256625 -1.99758 0
M  V30 4166 C 408.123 0.11012 -3.46525 0
M  V30 4167 C 407.184 -0.887495 -4.20026 0
M  V30 4168 C 406.417 -0.246654 -5.3313 0
M  V30 4169 O 406.64 0.958088 -5.62296 0
M  V30 4170 O 405.574 -0.954374 -5.94286 0
M  V30 4171 H 409.4 -1.44329 -2.67213 0
M  V30 4172 H 406.985 -0.767135 -1.28201 0
M  V30 4173 H 408.867 0.486756 -4.18579 0
M  V30 4174 H 407.542 0.965154 -3.08976 0
M  V30 4175 H 406.449 -1.31517 -3.5022 0
M  V30 4176 H 407.782 -1.71191 -4.6147 0
M  V30 4177 N 409.434 1.37368 -0.772513 0
M  V30 4178 C 410.397 2.28601 -0.165541 0
M  V30 4179 C 411.397 1.48062 0.627238 0
M  V30 4180 O 412.587 1.68268 0.450715 0
M  V30 4181 C 409.719 3.32023 0.772897 0
M  V30 4182 H 410.912 2.83787 -0.969787 0
M  V30 4183 H 408.465 1.46647 -0.540775 0
M  V30 4184 H 409.2 2.81962 1.60212 0
M  V30 4185 H 408.985 3.91555 0.206585 0
M  V30 4186 H 410.475 4.00197 1.19298 0
M  V30 4187 N 410.912 0.523116 1.48665 0
M  V30 4188 C 411.859 -0.243398 2.29513 0
M  V30 4189 C 412.829 -0.940139 1.36933 0
M  V30 4190 O 414.014 -0.942503 1.65896 0
M  V30 4191 C 411.154 -1.28855 3.20141 0
M  V30 4192 C 410.267 -0.60135 4.27794 0
M  V30 4193 C 409.402 -1.62884 5.05611 0
M  V30 4194 C 408.441 -0.924726 6.05075 0
M  V30 4195 N 407.578 -1.89744 6.75975 0
M  V30 4196 H 412.418 0.452234 2.94549 0
M  V30 4197 H 409.955 0.234858 1.45213 0
M  V30 4198 H 411.913 -1.90674 3.71079 0
M  V30 4199 H 410.543 -1.95266 2.57043 0
M  V30 4200 H 409.595 0.130623 3.80176 0
M  V30 4201 H 410.907 -0.0481585 4.98777 0
M  V30 4202 H 410.061 -2.32149 5.60528 0
M  V30 4203 H 408.8 -2.21592 4.34452 0
M  V30 4204 H 407.805 -0.217966 5.49368 0
M  V30 4205 H 409.03 -0.343851 6.78229 0
M  V30 4206 H 406.976 -2.47373 6.07571 0
M  V30 4207 H 406.893 -1.3955 7.43009 0
M  V30 4208 H 408.161 -2.58229 7.35485 0
M  V30 4209 N 412.39 -1.55475 0.257931 0
M  V30 4210 C 413.639 -1.98383 -0.364275 0
M  V30 4211 C 413.952 -1.14952 -1.58258 0
M  V30 4212 O 415.158 -1.47924 -2.27664 0
M  V30 4213 C 413.614 -3.53037 -0.699479 0
M  V30 4214 C 413.222 -4.45223 0.498046 0
M  V30 4215 C 414.966 -4.04575 -1.28526 0
M  V30 4216 C 412.873 -5.91238 0.138383 0
M  V30 4217 H 411.803 -0.740911 -0.13988 0
M  V30 4218 H 414.454 -1.79936 0.359883 0
M  V30 4219 H 412.836 -3.6722 -1.48207 0
M  V30 4220 H 414.01 -4.42803 1.27522 0
M  V30 4221 H 412.325 -4.04226 0.999503 0
M  V30 4222 H 414.922 -5.11196 -1.56788 0
M  V30 4223 H 415.265 -3.5258 -2.21344 0
M  V30 4224 H 415.798 -3.93762 -0.565337 0
M  V30 4225 H 412.537 -6.47294 1.03398 0
M  V30 4226 H 412.057 -5.96768 -0.602374 0
M  V30 4227 H 413.736 -6.46413 -0.27553 0
M  V30 4228 N 413.868 0.0150385 -1.57593 0
M  V30 4229 C 415.284 0.370907 -1.5523 0
M  V30 4230 C 415.484 1.75735 -0.985882 0
M  V30 4231 O 414.54 2.44944 -0.613077 0
M  V30 4232 C 415.853 0.259908 -2.99575 0
M  V30 4233 C 417.401 0.335959 -3.11192 0
M  V30 4234 C 417.876 0.254253 -4.57294 0
M  V30 4235 N 419.367 0.312618 -4.62144 0
M  V30 4236 C 420.102 0.272505 -5.72752 0
M  V30 4237 N 419.598 0.183864 -6.92556 0
M  V30 4238 N 421.391 0.323267 -5.6117 0
M  V30 4239 H 413.542 -0.892104 -1.92757 0
M  V30 4240 H 415.805 -0.340563 -0.884715 0
M  V30 4241 H 415.511 -0.693403 -3.44797 0
M  V30 4242 H 415.385 1.048 -3.62349 0
M  V30 4243 H 417.772 1.27971 -2.65909 0
M  V30 4244 H 417.853 -0.481739 -2.51223 0
M  V30 4245 H 417.497 -0.685887 -5.03247 0
M  V30 4246 H 417.427 1.09024 -5.15191 0
M  V30 4247 H 419.918 0.38307 -3.75953 0
M  V30 4248 H 420.231 0.15874 -7.72637 0
M  V30 4249 H 418.576 0.149708 -6.94839 0
M  V30 4250 H 421.767 0.390607 -4.66467 0
M  V30 4251 H 421.94 0.288539 -6.47357 0
M  V30 4252 N 415.346 1.54954 0.287554 0
M  V30 4253 C 416.276 1.89839 1.35954 0
M  V30 4254 C 417.257 0.758675 1.52244 0
M  V30 4255 O 418.442 1.01557 1.65529 0
M  V30 4256 C 415.572 2.15753 2.72154 0
M  V30 4257 C 414.526 3.3159 2.70614 0
M  V30 4258 C 413.852 3.42952 4.10229 0
M  V30 4259 C 415.152 4.68359 2.31165 0
M  V30 4260 H 416.846 2.79625 1.07007 0
M  V30 4261 H 414.392 1.3454 0.513316 0
M  V30 4262 H 416.345 2.38743 3.47246 0
M  V30 4263 H 415.069 1.22752 3.02654 0
M  V30 4264 H 413.728 3.08545 1.97979 0
M  V30 4265 H 413.376 2.47443 4.37928 0
M  V30 4266 H 413.076 4.20826 4.10097 0
M  V30 4267 H 414.6 3.68218 4.87081 0
M  V30 4268 H 416.014 4.9099 2.95976 0
M  V30 4269 H 414.411 5.49044 2.42221 0
M  V30 4270 H 415.481 4.68165 1.26291 0
M  V30 4271 N 416.824 -0.551391 1.4764 0
M  V30 4272 C 417.771 -1.65796 1.60563 0
M  V30 4273 C 418.741 -1.59932 0.448428 0
M  V30 4274 O 419.926 -1.78679 0.669222 0
M  V30 4275 C 417.066 -3.04108 1.63133 0
M  V30 4276 C 416.179 -3.20365 2.89811 0
M  V30 4277 C 415.314 -4.49109 2.8368 0
M  V30 4278 C 414.353 -4.58819 4.05156 0
M  V30 4279 N 413.49 -5.78926 3.97227 0
M  V30 4280 H 418.33 -1.54088 2.5507 0
M  V30 4281 H 415.867 -0.75052 1.26513 0
M  V30 4282 H 417.825 -3.84207 1.62606 0
M  V30 4283 H 416.455 -3.14637 0.721341 0
M  V30 4284 H 415.507 -2.33659 3.00179 0
M  V30 4285 H 416.819 -3.23402 3.79753 0
M  V30 4286 H 415.973 -5.37475 2.81434 0
M  V30 4287 H 414.712 -4.4856 1.91431 0
M  V30 4288 H 413.717 -3.68864 4.077 0
M  V30 4289 H 414.942 -4.61124 4.98539 0
M  V30 4290 H 412.888 -5.79314 3.07785 0
M  V30 4291 H 412.805 -5.83367 4.80853 0
M  V30 4292 H 414.073 -6.69637 3.99007 0
M  V30 4293 N 418.302 -1.35869 -0.798587 0
M  V30 4294 C 419.549 -1.29588 -1.55606 0
M  V30 4295 C 419.877 0.127456 -1.94082 0
M  V30 4296 O 419.132 1.09461 -1.62225 0
M  V30 4297 C 419.431 -2.1556 -2.85077 0
M  V30 4298 C 419.097 -3.6424 -2.65781 0
M  V30 4299 C 417.759 -4.04766 -2.60227 0
M  V30 4300 C 420.111 -4.58547 -2.47758 0
M  V30 4301 C 417.439 -5.37753 -2.34603 0
M  V30 4302 C 419.791 -5.91742 -2.23662 0
M  V30 4303 C 418.455 -6.31402 -2.16534 0
M  V30 4304 H 417.725 -0.474197 -0.569402 0
M  V30 4305 H 420.372 -1.67839 -0.922086 0
M  V30 4306 H 418.677 -1.70216 -3.52893 0
M  V30 4307 H 420.374 -2.08031 -3.42818 0
M  V30 4308 H 416.964 -3.32086 -2.70956 0
M  V30 4309 H 421.148 -4.28117 -2.51056 0
M  V30 4310 H 416.404 -5.67474 -2.2756 0
M  V30 4311 H 420.578 -6.6439 -2.08708 0
M  V30 4312 H 418.205 -7.34381 -1.96441 0
M  V30 4313 N 419.78 1.02168 -1.19998 0
M  V30 4314 C 420.727 2.10601 -0.944228 0
M  V30 4315 C 421.697 1.65639 0.123664 0
M  V30 4316 O 422.882 1.9079 -0.0199941 0
M  V30 4317 C 420.022 3.41504 -0.496865 0
M  V30 4318 C 419.135 3.99973 -1.63234 0
M  V30 4319 C 418.27 5.18915 -1.13579 0
M  V30 4320 C 417.309 5.69456 -2.24468 0
M  V30 4321 N 416.446 6.79665 -1.76068 0
M  V30 4322 H 421.286 2.31814 -1.8726 0
M  V30 4323 H 418.823 1.13686 -0.933483 0
M  V30 4324 H 420.781 4.16626 -0.218843 0
M  V30 4325 H 419.411 3.2038 0.394508 0
M  V30 4326 H 418.463 3.21997 -2.0254 0
M  V30 4327 H 419.775 4.33492 -2.46752 0
M  V30 4328 H 418.929 6.01222 -0.813429 0
M  V30 4329 H 417.668 4.8695 -0.270434 0
M  V30 4330 H 416.673 4.85757 -2.57526 0
M  V30 4331 H 417.898 6.03459 -3.11472 0
M  V30 4332 H 415.844 6.49538 -0.918516 0
M  V30 4333 H 415.761 7.12349 -2.5317 0
M  V30 4334 H 417.029 7.65549 -1.46817 0
M  V30 4335 N 421.258 1.00505 1.21394 0
M  V30 4336 C 422.168 0.574806 2.27449 0
M  V30 4337 C 423.184 -0.382206 1.6975 0
M  V30 4338 O 424.36 -0.246027 1.99892 0
M  V30 4339 C 421.425 -0.0917414 3.46579 0
M  V30 4340 C 420.486 0.909758 4.1955 0
M  V30 4341 C 419.719 0.274924 5.32991 0
M  V30 4342 O 419.942 -0.928254 5.62796 0
M  V30 4343 O 418.876 0.985877 5.93771 0
M  V30 4344 H 422.702 1.45744 2.66444 0
M  V30 4345 H 420.287 0.773923 1.27792 0
M  V30 4346 H 422.169 -0.464551 4.18832 0
M  V30 4347 H 420.844 -0.948755 3.09484 0
M  V30 4348 H 419.751 1.33372 3.49518 0
M  V30 4349 H 421.084 1.73636 4.60555 0
M  V30 4350 N 422.737 -1.36956 0.779787 0
M  V30 4351 C 423.986 -1.98738 0.344405 0
M  V30 4352 C 424.299 -1.62596 -1.08728 0
M  V30 4353 O 425.505 -2.1754 -1.62445 0
M  V30 4354 C 423.961 -3.5544 0.564829 0
M  V30 4355 C 423.569 -4.00514 2.0073 0
M  V30 4356 C 425.313 -4.24059 0.193471 0
M  V30 4357 C 423.22 -5.49957 2.17489 0
M  V30 4358 H 422.15 -0.743561 0.12503 0
M  V30 4359 H 424.801 -1.56381 0.960057 0
M  V30 4360 H 423.183 -3.95817 -0.120397 0
M  V30 4361 H 424.357 -3.71362 2.72814 0
M  V30 4362 H 422.672 -3.44703 2.336 0
M  V30 4363 H 425.269 -5.33874 0.297097 0
M  V30 4364 H 425.612 -4.07378 -0.857263 0
M  V30 4365 H 426.145 -3.89012 0.831556 0
M  V30 4366 H 422.884 -5.71574 3.2091 0
M  V30 4367 H 422.404 -5.80767 1.49899 0
M  V30 4368 H 424.083 -6.16043 1.97738 0
M  V30 4369 N 424.215 -0.530993 -1.48385 0
M  V30 4370 C 425.147 0.268353 -2.27624 0
M  V30 4371 C 426.16 0.903525 -1.35426 0
M  V30 4372 O 427.349 0.781796 -1.60469 0
M  V30 4373 C 424.449 1.39535 -3.08842 0
M  V30 4374 C 423.622 0.861913 -4.28824 0
M  V30 4375 C 422.681 1.87016 -4.91845 0
M  V30 4376 O 421.707 1.4267 -5.5103 0
M  V30 4377 N 422.909 3.20238 -4.84178 0
M  V30 4378 H 425.674 -0.41123 -2.96865 0
M  V30 4379 H 423.235 -0.365387 -1.57723 0
M  V30 4380 H 425.227 2.06803 -3.47871 0
M  V30 4381 H 423.797 1.97859 -2.42014 0
M  V30 4382 H 423.017 0.0132126 -3.94198 0
M  V30 4383 H 424.305 0.484415 -5.06489 0
M  V30 4384 H 423.703 3.58932 -4.37246 0
M  V30 4385 H 422.26 3.83136 -5.27305 0
M  V30 4386 N 425.693 1.55336 -0.266172 0
M  V30 4387 C 426.64 2.22172 0.625165 0
M  V30 4388 C 427.61 1.19211 1.15663 0
M  V30 4389 O 428.795 1.47723 1.20758 0
M  V30 4390 C 425.935 2.93972 1.8076 0
M  V30 4391 C 425.048 4.11632 1.31084 0
M  V30 4392 C 424.183 4.71099 2.45436 0
M  V30 4393 C 423.222 5.8097 1.92718 0
M  V30 4394 N 422.359 6.34538 3.00509 0
M  V30 4395 H 427.199 2.9796 0.0485582 0
M  V30 4396 H 424.736 1.47095 0.0122024 0
M  V30 4397 H 426.694 3.33811 2.50251 0
M  V30 4398 H 425.324 2.20623 2.35638 0
M  V30 4399 H 424.376 3.76975 0.509326 0
M  V30 4400 H 425.688 4.90893 0.884633 0
M  V30 4401 H 424.842 5.13612 3.22936 0
M  V30 4402 H 423.581 3.91096 2.91368 0
M  V30 4403 H 422.586 5.37916 1.13695 0
M  V30 4404 H 423.811 6.62836 1.47733 0
M  V30 4405 H 421.757 5.57433 3.45839 0
M  V30 4406 H 421.674 7.09046 2.62279 0
M  V30 4407 H 422.942 6.81709 3.78011 0
M  V30 4408 N 427.171 -0.0066808 1.57599 0
M  V30 4409 C 428.396 -0.707738 1.94951 0
M  V30 4410 C 428.821 -1.66882 0.867868 0
M  V30 4411 O 428.179 -1.80457 -0.17458 0
M  V30 4412 C 428.227 -1.42162 3.31394 0
M  V30 4413 O 427.331 -2.53578 3.25226 0
M  V30 4414 H 426.672 -0.188752 0.636607 0
M  V30 4415 H 429.202 0.0445193 2.04552 0
M  V30 4416 H 429.212 -1.78655 3.66806 0
M  V30 4417 H 427.887 -0.716903 4.09675 0
M  V30 4418 H 426.464 -2.19463 3.01481 0
M  V30 4419 N 428.649 -1.55105 -0.279332 0
M  V30 4420 C 429.596 -1.8755 -1.34513 0
M  V30 4421 C 430.566 -0.726384 -1.49375 0
M  V30 4422 O 431.751 -0.977063 -1.63884 0
M  V30 4423 C 428.891 -2.14738 -2.70151 0
M  V30 4424 C 428.004 -3.42285 -2.63562 0
M  V30 4425 C 427.139 -3.59206 -3.91337 0
M  V30 4426 C 426.178 -4.80467 -3.79233 0
M  V30 4427 N 425.315 -4.94079 -4.98829 0
M  V30 4428 H 430.155 -2.78456 -1.06143 0
M  V30 4429 H 427.692 -1.37867 -0.512936 0
M  V30 4430 H 429.65 -2.28501 -3.49061 0
M  V30 4431 H 428.28 -1.27075 -2.96735 0
M  V30 4432 H 427.332 -3.37029 -1.76397 0
M  V30 4433 H 428.644 -4.31328 -2.50515 0
M  V30 4434 H 427.798 -3.72751 -4.78687 0
M  V30 4435 H 426.537 -2.68337 -4.07243 0
M  V30 4436 H 425.542 -4.66932 -2.90266 0
M  V30 4437 H 426.767 -5.72765 -3.64852 0
M  V30 4438 H 424.713 -4.06139 -5.15158 0
M  V30 4439 H 424.63 -5.77156 -4.8829 0
M  V30 4440 H 425.898 -5.12003 -5.8777 0
M  V30 4441 N 430.127 0.543554 -1.4793 0
M  V30 4442 C 431.037 1.67657 -1.64098 0
M  V30 4443 C 432.053 1.65934 -0.523622 0
M  V30 4444 O 433.229 1.85133 -0.792943 0
M  V30 4445 C 430.294 3.04146 -1.66421 0
M  V30 4446 C 429.355 3.16831 -2.89684 0
M  V30 4447 C 428.588 4.46809 -2.91886 0
M  V30 4448 O 428.811 5.33095 -2.02895 0
M  V30 4449 O 427.745 4.63573 -3.83906 0
M  V30 4450 H 431.571 1.56957 -2.59997 0
M  V30 4451 H 429.156 0.715116 -1.31173 0
M  V30 4452 H 431.038 3.85346 -1.70548 0
M  V30 4453 H 429.713 3.152 -0.736923 0
M  V30 4454 H 428.62 2.34977 -2.91095 0
M  V30 4455 H 429.953 3.10687 -3.81752 0
M  V30 4456 N 431.605 1.3629 0.791371 0
M  V30 4457 C 432.552 1.30458 1.90393 0
M  V30 4458 C 433.522 0.173632 1.6519 0
M  V30 4459 O 434.707 0.35983 1.87376 0
M  V30 4460 C 431.847 1.09777 3.27174 0
M  V30 4461 C 430.96 2.31929 3.64462 0
M  V30 4462 C 430.095 2.04276 4.90352 0
M  V30 4463 C 429.134 3.224 5.20312 0
M  V30 4464 N 428.271 2.94424 6.37385 0
M  V30 4465 H 433.111 2.25589 1.94714 0
M  V30 4466 H 430.648 1.12122 0.952216 0
M  V30 4467 H 432.606 0.958133 4.06049 0
M  V30 4468 H 431.236 0.183014 3.22281 0
M  V30 4469 H 430.288 2.56703 2.80727 0
M  V30 4470 H 431.6 3.20085 3.82553 0
M  V30 4471 H 430.754 1.87231 5.77087 0
M  V30 4472 H 429.493 1.13428 4.74326 0
M  V30 4473 H 428.498 3.40005 4.32061 0
M  V30 4474 H 429.723 4.14071 5.38258 0
M  V30 4475 H 427.669 2.06185 6.22755 0
M  V30 4476 H 427.586 3.76118 6.55798 0
M  V30 4477 H 428.854 2.80953 7.27108 0
M  V30 4478 N 433.083 -1.0153 1.20538 0
M  V30 4479 C 434.013 -2.11972 0.979295 0
M  V30 4480 C 434.994 -1.6985 -0.0921787 0
M  V30 4481 O 436.179 -1.94089 0.0655932 0
M  V30 4482 C 433.309 -3.43201 0.531984 0
M  V30 4483 C 432.263 -3.9907 1.54685 0
M  V30 4484 C 431.589 -5.26082 0.956127 0
M  V30 4485 C 432.889 -4.32313 2.93092 0
M  V30 4486 H 434.583 -2.31143 1.90298 0
M  V30 4487 H 432.129 -1.11079 0.916372 0
M  V30 4488 H 434.082 -4.1985 0.361044 0
M  V30 4489 H 432.806 -3.23792 -0.427327 0
M  V30 4490 H 431.465 -3.2453 1.70517 0
M  V30 4491 H 431.113 -5.02999 -0.0111538 0
M  V30 4492 H 430.813 -5.64426 1.63393 0
M  V30 4493 H 432.337 -6.05386 0.796284 0
M  V30 4494 H 433.751 -4.99845 2.80763 0
M  V30 4495 H 432.148 -4.81774 3.57791 0
M  V30 4496 H 433.218 -3.41025 3.44717 0
M  V30 4497 N 434.561 -1.01147 -1.20859 0
M  V30 4498 C 435.789 -0.716911 -1.94082 0
M  V30 4499 C 436.204 0.721568 -1.74467 0
M  V30 4500 O 435.561 1.48889 -1.05539 0
M  V30 4501 C 435.612 -1.03662 -3.46318 0
M  V30 4502 O 435.333 -2.4186 -3.65288 0
M  V30 4503 C 436.834 -0.762386 -4.36695 0
M  V30 4504 H 434.054 -0.26367 -0.617024 0
M  V30 4505 H 436.598 -1.35127 -1.53496 0
M  V30 4506 H 434.753 -0.447757 -3.84804 0
M  V30 4507 H 435.167 -2.53224 -4.59323 0
M  V30 4508 H 436.641 -1.03621 -5.42187 0
M  V30 4509 H 437.118 0.303514 -4.3815 0
M  V30 4510 H 437.724 -1.33316 -4.03865 0
M  V30 4511 N 436.039 1.36541 -0.78704 0
M  V30 4512 C 437.267 2.03561 -0.370199 0
M  V30 4513 C 437.682 1.59347 1.01263 0
M  V30 4514 O 437.039 0.781781 1.64907 0
M  V30 4515 C 437.09 3.59033 -0.421614 0
M  V30 4516 O 436.811 4.01634 -1.7499 0
M  V30 4517 C 438.312 4.433 0.00489763 0
M  V30 4518 H 435.532 0.653346 -0.152904 0
M  V30 4519 H 438.076 1.74566 -1.06522 0
M  V30 4520 H 436.231 3.86746 0.224971 0
M  V30 4521 H 436.645 4.96217 -1.69909 0
M  V30 4522 H 438.119 5.51939 -0.0822184 0
M  V30 4523 H 438.596 4.26285 1.05723 0
M  V30 4524 H 439.202 4.20843 -0.614085 0
M  V30 4525 N 437.518 0.538854 1.48102 0
M  V30 4526 C 438.934 0.19732 1.58376 0
M  V30 4527 C 439.134 -1.29971 1.5398 0
M  V30 4528 O 438.19 -2.07861 1.43352 0
M  V30 4529 C 439.503 0.807716 2.89649 0
M  V30 4530 C 441.051 0.77726 3.03196 0
M  V30 4531 C 441.526 1.36639 4.37143 0
M  V30 4532 N 443.017 1.32875 4.43732 0
M  V30 4533 C 443.752 1.7544 5.45901 0
M  V30 4534 N 443.248 2.25776 6.54979 0
M  V30 4535 N 445.041 1.66623 5.36836 0
M  V30 4536 H 437.192 1.5117 1.49202 0
M  V30 4537 H 439.455 0.629327 0.708979 0
M  V30 4538 H 439.161 1.85909 2.98548 0
M  V30 4539 H 439.035 0.289975 3.76084 0
M  V30 4540 H 441.422 -0.265374 2.93904 0
M  V30 4541 H 441.503 1.33256 2.18349 0
M  V30 4542 H 441.147 2.408 4.47189 0
M  V30 4543 H 441.077 0.786689 5.20691 0
M  V30 4544 H 443.568 0.96037 3.65493 0
M  V30 4545 H 443.881 2.56226 7.29087 0
M  V30 4546 H 442.226 2.29775 6.55918 0
M  V30 4547 H 445.417 1.27089 4.50517 0
M  V30 4548 H 445.59 2.00115 6.16326 0
M  V30 4549 N 438.996 -1.55193 0.274407 0
M  V30 4550 C 440.242 -1.99877 -0.343086 0
M  V30 4551 C 440.575 -1.16256 -1.55558 0
M  V30 4552 O 439.85 -0.232462 -1.93106 0
M  V30 4553 C 440.133 -3.52706 -0.725965 0
M  V30 4554 C 439.986 -4.47081 0.493818 0
M  V30 4555 C 441.305 -4.11422 -1.56268 0
M  V30 4556 H 438.424 -0.726625 -0.123229 0
M  V30 4557 H 441.066 -1.86136 0.38121 0
M  V30 4558 H 439.216 -3.64546 -1.34307 0
M  V30 4559 H 440.888 -4.47186 1.13237 0
M  V30 4560 H 439.131 -4.1877 1.13201 0
M  V30 4561 H 439.802 -5.51699 0.18217 0
M  V30 4562 H 442.278 -4.02855 -1.04151 0
M  V30 4563 H 441.154 -5.18568 -1.79939 0
M  V30 4564 H 441.415 -3.61607 -2.54348 0
M  V30 4565 N 440.474 -0.00167713 -1.576 0
M  V30 4566 C 441.702 0.693759 -1.94922 0
M  V30 4567 C 442.117 1.67215 -0.876626 0
M  V30 4568 O 441.474 1.81929 0.144279 0
M  V30 4569 C 441.525 1.42416 -3.32265 0
M  V30 4570 O 441.246 0.485014 -4.35407 0
M  V30 4571 C 442.747 2.21395 -3.84056 0
M  V30 4572 H 439.967 0.193118 -0.642609 0
M  V30 4573 H 442.511 -0.0532952 -2.04431 0
M  V30 4574 H 440.666 2.12284 -3.24059 0
M  V30 4575 H 441.08 1.00053 -5.14868 0
M  V30 4576 H 442.554 2.67996 -4.82578 0
M  V30 4577 H 443.031 3.04142 -3.16851 0
M  V30 4578 H 443.637 1.56542 -3.95443 0
M  V30 4579 N 441.952 1.55251 0.271103 0
M  V30 4580 C 442.862 1.9136 1.35714 0
M  V30 4581 C 443.878 0.811075 1.5394 0
M  V30 4582 O 445.054 1.11031 1.6803 0
M  V30 4583 C 442.119 2.1798 2.69603 0
M  V30 4584 C 441.18 3.4153 2.60107 0
M  V30 4585 C 440.413 3.66871 3.8761 0
M  V30 4586 O 440.636 2.94689 4.8838 0
M  V30 4587 O 439.57 4.60405 3.87699 0
M  V30 4588 H 443.396 2.83815 1.08088 0
M  V30 4589 H 440.981 1.41821 0.469792 0
M  V30 4590 H 442.863 2.36518 3.48765 0
M  V30 4591 H 441.538 1.28708 2.97012 0
M  V30 4592 H 440.445 3.28325 1.79314 0
M  V30 4593 H 441.778 4.31027 2.37647 0
M  V30 4594 N 443.43 -0.535701 1.48216 0
M  V30 4595 C 444.34 -1.66785 1.64985 0
M  V30 4596 C 445.356 -1.65654 0.532414 0
M  V30 4597 O 446.532 -1.8471 0.80275 0
M  V30 4598 C 443.597 -3.0326 1.68031 0
M  V30 4599 C 442.658 -3.1529 2.9136 0
M  V30 4600 C 441.891 -4.45255 2.94252 0
M  V30 4601 O 442.114 -5.32011 2.05719 0
M  V30 4602 O 441.048 -4.6153 3.86359 0
M  V30 4603 H 444.874 -1.55576 2.60825 0
M  V30 4604 H 442.459 -0.70815 1.31551 0
M  V30 4605 H 444.341 -3.84436 1.72589 0
M  V30 4606 H 443.016 -3.14805 0.753628 0
M  V30 4607 H 441.923 -2.3343 2.92337 0
M  V30 4608 H 443.256 -3.08658 3.83394 0
M  V30 4609 N 444.908 -1.36708 -0.784132 0
M  V30 4610 C 445.818 -1.3363 -1.92822 0
M  V30 4611 C 446.834 -0.237686 -1.72369 0
M  V30 4612 O 448.01 -0.470962 -1.95816 0
M  V30 4613 C 445.075 -1.13011 -3.27764 0
M  V30 4614 C 444.136 -2.32397 -3.60957 0
M  V30 4615 C 443.369 -2.12752 -4.89461 0
M  V30 4616 O 443.592 -1.10541 -5.59586 0
M  V30 4617 O 442.526 -3.00653 -5.21432 0
M  V30 4618 H 446.352 -2.29964 -1.98369 0
M  V30 4619 H 443.937 -1.1731 -0.925136 0
M  V30 4620 H 445.819 -1.03451 -4.08504 0
M  V30 4621 H 444.494 -0.19743 -3.23097 0
M  V30 4622 H 443.401 -2.47527 -2.80502 0
M  V30 4623 H 444.734 -3.2419 -3.70354 0
M  V30 4624 N 446.386 1.0089 -1.21074 0
M  V30 4625 C 447.633 1.74607 -1.0256 0
M  V30 4626 C 447.961 1.89426 0.44136 0
M  V30 4627 O 447.216 1.42266 1.34384 0
M  V30 4628 C 447.515 3.16335 -1.66334 0
M  V30 4629 C 447.181 3.21474 -3.16173 0
M  V30 4630 C 445.843 3.22583 -3.57062 0
M  V30 4631 C 448.195 3.19025 -4.12156 0
M  V30 4632 C 445.523 3.18925 -4.92446 0
M  V30 4633 C 447.875 3.16909 -5.47496 0
M  V30 4634 C 446.539 3.16326 -5.87787 0
M  V30 4635 H 445.809 0.638933 -0.375294 0
M  V30 4636 H 448.456 1.18274 -1.50611 0
M  V30 4637 H 446.761 3.75876 -1.10566 0
M  V30 4638 H 448.458 3.72083 -1.49516 0
M  V30 4639 H 445.048 3.2135 -2.83605 0
M  V30 4640 H 449.232 3.17332 -3.81595 0
M  V30 4641 H 444.488 3.16809 -5.22917 0
M  V30 4642 H 448.662 3.13968 -6.21609 0
M  V30 4643 H 446.289 3.13246 -6.92662 0
M  V30 4644 N 447.864 1.01787 1.20321 0
M  V30 4645 C 449.104 0.716493 1.91431 0
M  V30 4646 C 449.468 -0.740352 1.77152 0
M  V30 4647 O 450.669 -1.1543 2.42754 0
M  V30 4648 C 448.94 1.14169 3.38674 0
M  V30 4649 S 450.499 0.962482 4.28114 0
M  V30 4650 H 447.317 0.261175 0.661293 0
M  V30 4651 H 449.919 1.30539 1.45533 0
M  V30 4652 H 448.623 2.19784 3.46588 0
M  V30 4653 H 448.154 0.545621 3.89598 0
M  V30 4654 H 450.169 -0.133253 4.96021 0
M  V30 4655 N 449.342 -1.36122 0.79427 0
M  V30 4656 C 450.252 -2.33769 0.197296 0
M  V30 4657 C 451.268 -1.61276 -0.653153 0
M  V30 4658 O 452.444 -1.9323 -0.5678 0
M  V30 4659 C 449.509 -3.40474 -0.654098 0
M  V30 4660 C 448.57 -4.28759 0.215411 0
M  V30 4661 C 447.803 -5.30368 -0.595443 0
M  V30 4662 O 448.026 -5.40211 -1.83107 0
M  V30 4663 O 446.96 -6.019 0.00721351 0
M  V30 4664 H 450.786 -2.86597 1.00478 0
M  V30 4665 H 448.371 -1.38676 0.555818 0
M  V30 4666 H 450.253 -4.05703 -1.13944 0
M  V30 4667 H 448.928 -2.89937 -1.43938 0
M  V30 4668 H 447.835 -3.66554 0.747615 0
M  V30 4669 H 449.168 -4.82661 0.964332 0
M  V30 4670 N 450.82 -0.546701 -1.47814 0
M  V30 4671 C 451.783 0.196287 -2.28358 0
M  V30 4672 C 452.783 0.852437 -1.36346 0
M  V30 4673 O 453.973 0.709913 -1.59078 0
M  V30 4674 C 451.105 1.28579 -3.15722 0
M  V30 4675 H 452.298 -0.511086 -2.95513 0
M  V30 4676 H 449.851 -0.303248 -1.5333 0
M  V30 4677 H 450.586 2.0259 -2.53235 0
M  V30 4678 H 450.371 0.820229 -3.83425 0
M  V30 4679 H 451.861 1.80793 -3.76435 0
M  V30 4680 N 452.299 1.55045 -0.282633 0
M  V30 4681 C 453.546 1.9976 0.33199 0
M  V30 4682 C 453.874 1.17105 1.55295 0
M  V30 4683 O 453.129 0.230599 1.94337 0
M  V30 4684 C 453.428 3.49422 0.750938 0
M  V30 4685 C 453.094 4.4941 -0.366228 0
M  V30 4686 C 451.756 4.76471 -0.672964 0
M  V30 4687 C 454.108 5.09054 -1.11864 0
M  V30 4688 C 451.436 5.60442 -1.73556 0
M  V30 4689 C 453.788 5.9418 -2.17102 0
M  V30 4690 C 452.452 6.19558 -2.48402 0
M  V30 4691 H 451.722 0.730974 0.121484 0
M  V30 4692 H 454.369 1.8732 -0.39791 0
M  V30 4693 H 452.674 3.59377 1.56063 0
M  V30 4694 H 454.371 3.81432 1.23736 0
M  V30 4695 H 450.961 4.2844 -0.117041 0
M  V30 4696 H 455.145 4.88165 -0.894925 0
M  V30 4697 H 450.401 5.78349 -1.983 0
M  V30 4698 H 454.575 6.39427 -2.75873 0
M  V30 4699 H 452.202 6.84417 -3.30874 0
M  V30 4700 N 453.777 0.010035 1.57597 0
M  V30 4701 C 455.017 -0.677084 1.9286 0
M  V30 4702 C 455.381 -1.70377 0.885192 0
M  V30 4703 O 456.582 -2.44199 1.12339 0
M  V30 4704 C 454.853 -1.29452 3.33132 0
M  V30 4705 S 456.412 -2.00537 3.90295 0
M  V30 4706 H 453.23 -0.223409 0.674989 0
M  V30 4707 H 455.832 0.0691289 1.95378 0
M  V30 4708 H 454.536 -0.534593 4.06903 0
M  V30 4709 H 454.067 -2.07845 3.34012 0
M  V30 4710 H 456.082 -3.28168 3.72183 0
M  V30 4711 N 455.255 -1.55392 -0.262866 0
M  V30 4712 C 456.165 -1.92077 -1.34698 0
M  V30 4713 C 457.181 -0.819227 -1.53508 0
M  V30 4714 O 458.357 -1.11921 -1.67439 0
M  V30 4715 C 455.422 -2.19407 -2.68443 0
M  V30 4716 C 454.483 -3.42905 -2.58292 0
M  V30 4717 C 453.716 -3.68921 -3.85659 0
M  V30 4718 O 453.939 -2.97275 -4.8681 0
M  V30 4719 O 452.873 -4.62455 -3.85252 0
M  V30 4720 H 456.699 -2.84384 -1.06581 0
M  V30 4721 H 454.284 -1.42069 -0.462264 0
M  V30 4722 H 456.166 -2.38365 -3.47506 0
M  V30 4723 H 454.841 -1.30282 -2.96325 0
M  V30 4724 H 453.748 -3.29272 -1.7757 0
M  V30 4725 H 455.081 -4.32282 -2.35358 0
M  V30 4726 N 456.733 0.527833 -1.48498 0
M  V30 4727 C 457.663 1.64136 -1.66077 0
M  V30 4728 C 458.644 1.62286 -0.509625 0
M  V30 4729 O 459.829 1.79449 -0.742413 0
M  V30 4730 C 456.959 3.02717 -1.70234 0
M  V30 4731 C 455.913 3.19426 -2.8487 0
M  V30 4732 C 455.239 4.5909 -2.74118 0
M  V30 4733 C 456.539 3.01993 -4.26142 0
M  V30 4734 H 458.233 1.4968 -2.593 0
M  V30 4735 H 455.779 0.718654 -1.24785 0
M  V30 4736 H 457.732 3.80491 -1.8112 0
M  V30 4737 H 456.456 3.18201 -0.735911 0
M  V30 4738 H 455.115 2.4407 -2.73542 0
M  V30 4739 H 454.763 4.71413 -1.7544 0
M  V30 4740 H 454.463 4.71214 -3.51042 0
M  V30 4741 H 455.987 5.3896 -2.86974 0
M  V30 4742 H 457.401 3.69558 -4.38292 0
M  V30 4743 H 455.798 3.2561 -5.04082 0
M  V30 4744 H 456.868 1.98396 -4.42456 0
M  V30 4745 N 458.211 1.37122 0.776871 0
M  V30 4746 C 459.451 1.33441 1.54831 0
M  V30 4747 C 459.815 -0.0818963 1.91825 0
M  V30 4748 O 461.016 -0.24338 2.67696 0
M  V30 4749 C 459.287 2.24267 2.78279 0
M  V30 4750 S 460.846 2.38389 3.68397 0
M  V30 4751 H 457.664 0.473791 0.530135 0
M  V30 4752 H 460.266 1.7282 0.913968 0
M  V30 4753 H 458.97 3.261 2.49173 0
M  V30 4754 H 458.501 1.85953 3.46677 0
M  V30 4755 H 460.516 1.59068 4.70013 0
M  V30 4756 N 459.689 -1.00246 1.21608 0
M  V30 4757 C 460.917 -1.77631 1.06089 0
M  V30 4758 C 461.332 -1.84746 -0.38916 0
M  V30 4759 O 460.689 -1.31068 -1.26994 0
M  V30 4760 C 460.74 -3.21415 1.65453 0
M  V30 4761 O 460.461 -3.14703 3.04785 0
M  V30 4762 C 461.962 -4.15289 1.55079 0
M  V30 4763 H 459.182 -0.558162 0.37242 0
M  V30 4764 H 461.726 -1.26093 1.60999 0
M  V30 4765 H 459.881 -3.70053 1.14629 0
M  V30 4766 H 460.295 -4.05056 3.33212 0
M  V30 4767 H 461.769 -5.13965 2.01355 0
M  V30 4768 H 462.246 -4.36279 0.505665 0
M  V30 4769 H 462.852 -3.72543 2.05163 0
M  V30 4770 N 461.167 -1.02423 -1.1978 0
M  V30 4771 C 462.583 -0.740459 -1.41384 0
M  V30 4772 C 462.783 0.676827 -1.89793 0
M  V30 4773 O 461.839 1.4435 -2.0717 0
M  V30 4774 C 463.152 -1.77264 -2.42895 0
M  V30 4775 C 464.7 -1.79165 -2.56649 0
M  V30 4776 C 465.175 -2.8133 -3.6141 0
M  V30 4777 N 466.666 -2.80118 -3.68901 0
M  V30 4778 C 467.401 -3.55824 -4.49641 0
M  V30 4779 N 466.897 -4.41231 -5.34123 0
M  V30 4780 N 468.69 -3.44387 -4.44246 0
M  V30 4781 H 460.841 -1.9391 -0.866764 0
M  V30 4782 H 463.104 -0.838074 -0.443098 0
M  V30 4783 H 462.81 -2.7884 -2.14339 0
M  V30 4784 H 462.684 -1.59108 -3.42001 0
M  V30 4785 H 465.071 -0.782702 -2.84531 0
M  V30 4786 H 465.152 -2.01396 -1.57713 0
M  V30 4787 H 464.796 -3.82394 -3.34271 0
M  V30 4788 H 464.726 -2.56359 -4.59986 0
M  V30 4789 H 467.217 -2.1817 -3.08562 0
M  V30 4790 H 467.53 -4.95747 -5.92836 0
M  V30 4791 H 465.875 -4.45306 -5.33599 0
M  V30 4792 H 469.066 -2.7708 -3.77285 0
M  V30 4793 H 469.239 -4.0364 -5.06931 0
M  V30 4794 N 462.645 1.35699 -0.801477 0
M  V30 4795 C 464.056 1.81415 -0.441073 0
M  V30 4796 C 464.407 1.66595 1.03636 0
M  V30 4797 O 463.532 1.19369 1.80499 0
M  V30 4798 C 464.127 3.29369 -0.793819 0
M  V30 4799 C 462.686 3.73248 -0.486083 0
M  V30 4800 C 461.833 2.57775 -1.02213 0
M  V30 4801 H 464.784 1.23749 -0.993572 0
M  V30 4802 H 464.805 3.80395 -0.0894158 0
M  V30 4803 H 464.317 3.40123 -1.86917 0
M  V30 4804 H 462.418 3.68046 0.580735 0
M  V30 4805 H 462.531 4.68222 -1.01513 0
M  V30 4806 H 460.895 2.50788 -0.444712 0
M  V30 4807 H 461.678 2.71309 -2.10348 0
M  V30 4808 N 464.123 0.554532 1.47522 0
M  V30 4809 C 465.033 -0.197865 2.33764 0
M  V30 4810 C 466.049 -0.914576 1.48025 0
M  V30 4811 O 467.225 -0.884067 1.80959 0
M  V30 4812 C 464.29 -1.21628 3.24665 0
M  V30 4813 C 463.351 -0.507283 4.26292 0
M  V30 4814 C 462.584 -1.47718 5.1285 0
M  V30 4815 O 462.807 -2.7118 5.01814 0
M  V30 4816 O 461.741 -1.00313 5.93482 0
M  V30 4817 H 465.567 0.50949 2.99396 0
M  V30 4818 H 463.152 0.315176 1.46038 0
M  V30 4819 H 465.034 -1.80421 3.80823 0
M  V30 4820 H 463.709 -1.9056 2.61665 0
M  V30 4821 H 462.616 0.121778 3.73902 0
M  V30 4822 H 463.949 0.140544 4.91999 0
M  V30 4823 N 465.601 -1.54893 0.290851 0
M  V30 4824 C 466.847 -2.0023 -0.321867 0
M  V30 4825 C 467.18 -1.179 -1.54316 0
M  V30 4826 O 466.455 -0.25293 -1.92848 0
M  V30 4827 C 466.738 -3.53456 -0.688515 0
M  V30 4828 C 466.591 -4.46532 0.541209 0
M  V30 4829 C 467.91 -4.13057 -1.51895 0
M  V30 4830 H 465.029 -0.727891 -0.115515 0
M  V30 4831 H 467.671 -1.85722 0.400931 0
M  V30 4832 H 465.821 -3.6595 -1.30433 0
M  V30 4833 H 467.493 -4.4596 1.17973 0
M  V30 4834 H 465.736 -4.17545 1.17636 0
M  V30 4835 H 466.407 -5.51475 0.240675 0
M  V30 4836 H 468.883 -4.03937 -0.99872 0
M  V30 4837 H 467.759 -5.20448 -1.74429 0
M  V30 4838 H 468.02 -3.64284 -2.50498 0
M  V30 4839 N 467.08 -0.0183926 -1.57589 0
M  V30 4840 C 468.31 0.67207 -1.95363 0
M  V30 4841 C 468.718 1.66807 -0.892872 0
M  V30 4842 O 468.061 1.83204 0.134958 0
M  V30 4843 C 468.123 1.44397 -3.29226 0
M  V30 4844 C 467.787 0.607511 -4.52944 0
M  V30 4845 C 468.784 -0.112657 -5.19778 0
M  V30 4846 C 466.469 0.548068 -4.99301 0
M  V30 4847 C 468.463 -0.881057 -6.31281 0
M  V30 4848 C 466.15 -0.224044 -6.10689 0
M  V30 4849 C 467.148 -0.937323 -6.76538 0
M  V30 4850 O 466.836 -1.6968 -7.85789 0
M  V30 4851 H 466.568 0.190925 -0.648478 0
M  V30 4852 H 469.122 -0.0711994 -2.05277 0
M  V30 4853 H 467.352 2.23214 -3.15773 0
M  V30 4854 H 469.041 2.02152 -3.51979 0
M  V30 4855 H 469.807 -0.0759998 -4.8494 0
M  V30 4856 H 465.686 1.09281 -4.4786 0
M  V30 4857 H 469.23 -1.43832 -6.82611 0
M  V30 4858 H 465.127 -0.262457 -6.44966 0
M  V30 4859 H 465.895 -1.61544 -8.024 0
M  V30 4860 N 468.558 1.5553 0.254621 0
M  V30 4861 C 469.805 1.77 0.983736 0
M  V30 4862 C 470.133 0.58133 1.85609 0
M  V30 4863 O 469.388 -0.435621 1.9079 0
M  V30 4864 C 469.687 3.03891 1.88109 0
M  V30 4865 C 469.353 4.35597 1.16472 0
M  V30 4866 C 468.015 4.7139 0.966714 0
M  V30 4867 C 470.367 5.1705 0.656387 0
M  V30 4868 C 467.695 5.86176 0.247942 0
M  V30 4869 C 470.047 6.32581 -0.0488807 0
M  V30 4870 C 468.711 6.67 -0.258438 0
M  V30 4871 H 467.981 0.647688 0.359974 0
M  V30 4872 H 470.628 1.89802 0.254463 0
M  V30 4873 H 468.933 2.86068 2.67717 0
M  V30 4874 H 470.63 3.17701 2.44677 0
M  V30 4875 H 467.22 4.07475 1.32899 0
M  V30 4876 H 471.404 4.8986 0.796933 0
M  V30 4877 H 466.66 6.11354 0.075035 0
M  V30 4878 H 470.834 6.94942 -0.450444 0
M  V30 4879 H 468.461 7.55793 -0.817358 0
M  V30 4880 N 470.036 -0.519951 1.48776 0
M  V30 4881 C 470.966 -1.63253 1.66945 0
M  V30 4882 C 471.947 -1.62014 0.518224 0
M  V30 4883 O 473.132 -1.79053 0.751919 0
M  V30 4884 C 470.262 -3.0181 1.71836 0
M  V30 4885 C 469.216 -3.17911 2.8656 0
M  V30 4886 C 468.542 -4.5763 2.76548 0
M  V30 4887 C 469.842 -2.99729 4.27738 0
M  V30 4888 H 471.536 -1.48302 2.6009 0
M  V30 4889 H 469.082 -0.712026 1.25165 0
M  V30 4890 H 471.035 -3.79525 1.83135 0
M  V30 4891 H 469.759 -3.17806 0.752775 0
M  V30 4892 H 468.418 -2.42616 2.74833 0
M  V30 4893 H 468.066 -4.70476 1.77937 0
M  V30 4894 H 467.766 -4.69346 3.53536 0
M  V30 4895 H 469.29 -5.37431 2.89828 0
M  V30 4896 H 470.704 -3.67228 4.40246 0
M  V30 4897 H 469.101 -3.22932 5.05801 0
M  V30 4898 H 470.171 -1.96047 4.43502 0
M  V30 4899 N 471.514 -1.37532 -0.769588 0
M  V30 4900 C 472.444 -1.36172 -1.89682 0
M  V30 4901 C 473.425 -0.23001 -1.68538 0
M  V30 4902 O 474.61 -0.43069 -1.89364 0
M  V30 4903 C 471.74 -1.1701 -3.26995 0
M  V30 4904 C 470.694 -2.27216 -3.62708 0
M  V30 4905 C 470.02 -1.93174 -4.98586 0
M  V30 4906 C 471.32 -3.6941 -3.69234 0
M  V30 4907 H 473.014 -2.30499 -1.91078 0
M  V30 4908 H 470.56 -1.10953 -0.917902 0
M  V30 4909 H 472.513 -1.14688 -4.05493 0
M  V30 4910 H 471.237 -0.191395 -3.26039 0
M  V30 4911 H 469.896 -2.28697 -2.86519 0
M  V30 4912 H 469.544 -0.938281 -4.94171 0
M  V30 4913 H 469.244 -2.66973 -5.23449 0
M  V30 4914 H 470.768 -1.92443 -5.79481 0
M  V30 4915 H 472.182 -3.70047 -4.37879 0
M  V30 4916 H 470.579 -4.4228 -4.05597 0
M  V30 4917 H 471.649 -4.0288 -2.69844 0
M  V30 4918 N 472.992 0.995999 -1.22138 0
M  V30 4919 C 474.238 1.73767 -1.04561 0
M  V30 4920 C 474.571 1.89633 0.418698 0
M  V30 4921 O 473.846 1.43723 1.3105 0
M  V30 4922 C 474.129 3.14505 -1.75382 0
M  V30 4923 C 473.982 3.06306 -3.29388 0
M  V30 4924 C 475.301 4.13615 -1.50369 0
M  V30 4925 H 472.42 0.630728 -0.38125 0
M  V30 4926 H 475.062 1.16057 -1.50435 0
M  V30 4927 H 473.212 3.63775 -1.36383 0
M  V30 4928 H 474.884 2.64681 -3.77812 0
M  V30 4929 H 473.127 2.43186 -3.59226 0
M  V30 4930 H 473.798 4.05884 -3.74116 0
M  V30 4931 H 476.274 3.73089 -1.84239 0
M  V30 4932 H 475.15 5.10212 -2.02421 0
M  V30 4933 H 475.411 4.39949 -0.435611 0
M  V30 4934 N 474.47 1.03057 1.19235 0
M  V30 4935 C 475.402 0.570932 2.21975 0
M  V30 4936 C 476.415 -0.354088 1.58903 0
M  V30 4937 O 477.604 -0.150211 1.77867 0
M  V30 4938 C 474.704 -0.187152 3.38383 0
M  V30 4939 C 473.877 0.743231 4.31039 0
M  V30 4940 C 472.936 0.0302493 5.26191 0
M  V30 4941 O 471.962 0.657371 5.65391 0
M  V30 4942 N 473.164 -1.23991 5.67104 0
M  V30 4943 H 475.929 1.45456 2.62036 0
M  V30 4944 H 473.49 0.909807 1.33918 0
M  V30 4945 H 475.482 -0.673715 3.99053 0
M  V30 4946 H 474.052 -0.972205 2.97098 0
M  V30 4947 H 473.272 1.40985 3.68126 0
M  V30 4948 H 474.56 1.3755 4.89854 0
M  V30 4949 H 473.958 -1.77011 5.37293 0
M  V30 4950 H 472.515 -1.67093 6.30018 0
M  V30 4951 N 475.948 -1.35272 0.808662 0
M  V30 4952 C 477.197 -1.97963 0.386483 0
M  V30 4953 C 477.51 -1.64866 -1.05255 0
M  V30 4954 O 478.716 -2.20937 -1.57794 0
M  V30 4955 C 477.172 -3.54162 0.640096 0
M  V30 4956 C 476.78 -3.96166 2.0918 0
M  V30 4957 C 478.524 -4.23553 0.283376 0
M  V30 4958 C 476.431 -5.4522 2.29106 0
M  V30 4959 H 475.361 -0.740742 0.140774 0
M  V30 4960 H 478.012 -1.5431 0.993012 0
M  V30 4961 H 476.394 -3.95983 -0.0364117 0
M  V30 4962 H 477.568 -3.65491 2.80629 0
M  V30 4963 H 475.883 -3.3967 2.40859 0
M  V30 4964 H 478.48 -5.33124 0.410273 0
M  V30 4965 H 478.823 -4.09105 -0.770659 0
M  V30 4966 H 479.356 -3.8716 0.913884 0
M  V30 4967 H 476.095 -5.64638 3.32962 0
M  V30 4968 H 475.615 -5.77457 1.62184 0
M  V30 4969 H 477.294 -6.1171 2.1076 0
M  V30 4970 N 477.426 -0.562348 -1.47226 0
M  V30 4971 C 478.651 -0.0432632 -2.07355 0
M  V30 4972 C 479.076 1.24332 -1.41149 0
M  V30 4973 O 478.434 1.74603 -0.488226 0
M  V30 4974 C 478.482 0.130288 -3.60365 0
M  V30 4975 O 477.586 1.19166 -3.94808 0
M  V30 4976 H 476.927 -0.0536334 -0.66183 0
M  V30 4977 H 479.457 -0.779495 -1.89169 0
M  V30 4978 H 479.467 0.342881 -4.06557 0
M  V30 4979 H 478.142 -0.809389 -4.07948 0
M  V30 4980 H 476.719 0.959153 -3.60354 0
M  V30 4981 N 478.904 1.54736 -0.299062 0
M  V30 4982 C 479.851 2.23448 0.577899 0
M  V30 4983 C 480.821 1.21637 1.13109 0
M  V30 4984 O 482.006 1.50252 1.17597 0
M  V30 4985 C 479.146 2.9774 1.74484 0
M  V30 4986 C 478.259 4.1432 1.22323 0
M  V30 4987 C 477.394 4.76199 2.35388 0
M  V30 4988 C 476.433 5.84927 1.80351 0
M  V30 4989 N 475.57 6.4077 2.86982 0
M  V30 4990 H 480.41 2.97996 -0.0146545 0
M  V30 4991 H 477.947 1.47088 -0.0190013 0
M  V30 4992 H 479.905 3.39045 2.43114 0
M  V30 4993 H 478.535 2.25572 2.30905 0
M  V30 4994 H 477.587 3.7797 0.429249 0
M  V30 4995 H 478.899 4.92659 0.780309 0
M  V30 4996 H 478.053 5.20346 3.11969 0
M  V30 4997 H 476.792 3.97188 2.83006 0
M  V30 4998 H 475.797 5.40207 1.02259 0
M  V30 4999 H 477.022 6.65821 1.3364 0
M  V30 5000 H 474.968 5.64643 3.33938 0
M  V30 5001 H 474.885 7.1445 2.4718 0
M  V30 5002 H 476.153 6.89574 3.63466 0
M  V30 5003 N 480.382 0.0267497 1.57577 0
M  V30 5004 C 481.33 -0.973923 2.11229 0
M  V30 5005 C 482.324 -1.33849 1.03831 0
M  V30 5006 O 483.53 -1.321 1.22269 0
M  V30 5007 H 479.905 -0.331844 0.674821 0
M  V30 5008 H 481.876 -0.496092 2.94247 0
M  V30 5009 C 480.625 -2.24798 2.65257 0
M  V30 5010 H 479.948 -1.9762 3.47543 0
M  V30 5011 H 481.388 -2.93031 3.06445 0
M  V30 5012 C 479.847 -2.97611 1.57891 0
M  V30 5013 O 480.377 -3.89629 0.97735 0
M  V30 5014 N 478.583 -2.59905 1.29992 0
M  V30 5015 H 478.13 -1.85154 1.79097 0
M  V30 5016 H 478.088 -3.08932 0.583798 0
M  V30 5017 N 481.861 -1.55662 -0.24637 0
M  V30 5018 C 482.808 -1.90361 -1.30504 0
M  V30 5019 C 483.778 -0.757905 -1.47801 0
M  V30 5020 O 484.963 -1.01161 -1.61775 0
M  V30 5021 C 482.103 -2.2042 -2.65535 0
M  V30 5022 C 481.216 -3.47799 -2.56242 0
M  V30 5023 C 480.351 -3.67426 -3.8363 0
M  V30 5024 C 479.39 -4.88403 -3.68956 0
M  V30 5025 N 478.527 -5.04548 -4.88237 0
M  V30 5026 H 483.367 -2.80645 -1.00213 0
M  V30 5027 H 480.904 -1.38924 -0.483577 0
M  V30 5028 H 482.862 -2.35853 -3.44135 0
M  V30 5029 H 481.492 -1.3334 -2.93973 0
M  V30 5030 H 480.544 -3.40694 -1.69208 0
M  V30 5031 H 481.856 -4.36544 -2.4131 0
M  V30 5032 H 481.01 -3.82821 -4.70673 0
M  V30 5033 H 479.749 -2.76914 -4.01459 0
M  V30 5034 H 478.754 -4.72984 -2.80296 0
M  V30 5035 H 479.979 -5.80375 -3.52621 0
M  V30 5036 H 477.925 -4.16974 -5.06427 0
M  V30 5037 H 477.842 -5.87384 -4.75937 0
M  V30 5038 H 479.11 -5.24355 -5.76777 0
M  V30 5039 N 483.339 0.512053 -1.4905 0
M  V30 5040 C 484.249 1.64139 -1.67617 0
M  V30 5041 C 485.265 1.64786 -0.558701 0
M  V30 5042 O 486.441 1.8341 -0.832034 0
M  V30 5043 C 483.506 3.00548 -1.72835 0
M  V30 5044 C 482.567 3.10615 -2.96339 0
M  V30 5045 C 481.8 4.40517 -3.01298 0
M  V30 5046 O 482.023 5.28671 -2.14157 0
M  V30 5047 O 480.957 4.55325 -3.93653 0
M  V30 5048 H 484.783 1.51407 -2.63267 0
M  V30 5049 H 482.368 0.687131 -1.32661 0
M  V30 5050 H 484.25 3.81641 -1.78683 0
M  V30 5051 H 482.925 3.13566 -0.803616 0
M  V30 5052 H 481.832 2.2875 -2.96014 0
M  V30 5053 H 483.165 3.0252 -3.88256 0
M  V30 5054 N 484.817 1.37938 0.762283 0
M  V30 5055 C 486.047 1.36685 1.54922 0
M  V30 5056 C 486.455 -0.0474099 1.89141 0
M  V30 5057 O 485.798 -1.02213 1.52638 0
M  V30 5058 C 485.86 2.14963 2.88152 0
M  V30 5059 C 485.524 3.6385 2.76518 0
M  V30 5060 C 486.521 4.57531 2.46904 0
M  V30 5061 C 484.206 4.07095 2.94243 0
M  V30 5062 C 486.2 5.92436 2.35156 0
M  V30 5063 C 483.887 5.42083 2.82116 0
M  V30 5064 C 484.885 6.34567 2.52614 0
M  V30 5065 O 484.573 7.67073 2.40529 0
M  V30 5066 H 484.305 0.469586 0.486276 0
M  V30 5067 H 486.859 1.82012 0.951876 0
M  V30 5068 H 485.089 1.6434 3.50042 0
M  V30 5069 H 486.778 2.06224 3.49609 0
M  V30 5070 H 487.544 4.25428 2.32886 0
M  V30 5071 H 483.423 3.35462 3.16206 0
M  V30 5072 H 486.967 6.64591 2.12049 0
M  V30 5073 H 482.864 5.73785 2.95704 0
M  V30 5074 H 483.632 7.77499 2.55807 0
M  V30 5075 N 486.295 -0.989507 1.22664 0
M  V30 5076 C 487.225 -2.09847 1.02404 0
M  V30 5077 C 488.206 -1.70007 -0.0561303 0
M  V30 5078 O 489.391 -1.93906 0.106748 0
M  V30 5079 C 486.521 -3.41996 0.604663 0
M  V30 5080 C 485.475 -3.95699 1.63115 0
M  V30 5081 C 484.801 -5.23936 1.0675 0
M  V30 5082 C 486.101 -4.25999 3.02196 0
M  V30 5083 H 487.795 -2.27054 1.95158 0
M  V30 5084 H 485.341 -1.09111 0.939727 0
M  V30 5085 H 487.294 -4.1899 0.45002 0
M  V30 5086 H 486.018 -3.24626 -0.35855 0
M  V30 5087 H 484.677 -3.2084 1.77362 0
M  V30 5088 H 484.325 -5.02909 0.0955422 0
M  V30 5089 H 484.025 -5.60833 1.75328 0
M  V30 5090 H 485.549 -6.0356 0.924516 0
M  V30 5091 H 486.963 -4.93777 2.91303 0
M  V30 5092 H 485.36 -4.74076 3.67929 0
M  V30 5093 H 486.43 -3.33636 3.51873 0
M  V30 5094 N 487.773 -1.03688 -1.18687 0
M  V30 5095 C 489.05 -0.652397 -1.84399 0
M  V30 5096 C 489.43 0.868386 -1.92412 0
M  V30 5097 O 488.778 1.76832 -1.44716 0
M  V30 5098 C 488.988 -1.3238 -3.22919 0
M  V30 5099 C 490.336 -1.45216 -3.98996 0
M  V30 5100 O 491.36 -1.2816 -3.32345 0
M  V30 5101 O 490.219 -1.72975 -5.18403 0
M  V30 5102 H 487.313 -0.227793 -0.795009 0
M  V30 5103 H 489.859 -1.13553 -1.2611 0
M  V30 5104 H 488.631 -2.36202 -3.11968 0
M  V30 5105 H 488.254 -0.829039 -3.88861 0
M  V30 5106 N 489.251 1.34841 -0.815825 0
M  V30 5107 C 490.214 2.27959 -0.238185 0
M  V30 5108 C 491.214 1.49983 0.579816 0
M  V30 5109 O 492.404 1.69617 0.396953 0
M  V30 5110 C 489.536 3.34314 0.666876 0
M  V30 5111 H 490.729 2.80558 -1.05958 0
M  V30 5112 H 488.282 1.44852 -0.587156 0
M  V30 5113 H 489.017 2.86916 1.5116 0
M  V30 5114 H 488.802 3.92014 0.0819106 0
M  V30 5115 H 490.292 4.0379 1.06506 0
M  V30 5116 N 490.729 0.570148 1.46925 0
M  V30 5117 C 491.677 -0.183181 2.31878 0
M  V30 5118 C 492.671 -0.896721 1.43719 0
M  V30 5119 O 493.877 -0.816536 1.60414 0
M  V30 5120 H 490.252 -0.077944 0.74795 0
M  V30 5121 H 492.223 0.552312 2.93244 0
M  V30 5122 C 490.972 -1.19172 3.2664 0
M  V30 5123 H 490.295 -0.652088 3.94446 0
M  V30 5124 H 491.735 -1.68946 3.88887 0
M  V30 5125 C 490.194 -2.24627 2.51086 0
M  V30 5126 O 490.724 -3.31773 2.26472 0
M  V30 5127 N 488.93 -1.98898 2.11867 0
M  V30 5128 H 488.477 -1.11777 2.32086 0
M  V30 5129 H 488.435 -2.6967 1.61634 0
M  V30 5130 N 492.207 -1.54576 0.307264 0
M  V30 5131 C 493.484 -1.92377 -0.353605 0
M  V30 5132 C 493.864 -1.23517 -1.71192 0
M  V30 5133 O 493.212 -0.373101 -2.25433 0
M  V30 5134 C 493.422 -3.45928 -0.462039 0
M  V30 5135 C 494.77 -4.18278 -0.729975 0
M  V30 5136 O 495.794 -3.51997 -0.545605 0
M  V30 5137 O 494.653 -5.3563 -1.08454 0
M  V30 5138 H 491.747 -0.802747 -0.198812 0
M  V30 5139 H 494.293 -1.65929 0.355783 0
M  V30 5140 H 493.065 -3.88187 0.492592 0
M  V30 5141 H 492.688 -3.78431 -1.21965 0
M  V30 5142 N 493.685 -0.035106 -1.57561 0
M  V30 5143 C 494.615 0.942993 -2.13612 0
M  V30 5144 C 495.596 1.33531 -1.05373 0
M  V30 5145 O 496.781 1.41287 -1.33235 0
M  V30 5146 C 493.911 2.22332 -2.66807 0
M  V30 5147 C 492.865 1.97156 -3.79886 0
M  V30 5148 C 492.191 3.31506 -4.19533 0
M  V30 5149 C 493.491 1.30596 -5.05709 0
M  V30 5150 H 495.185 0.476179 -2.95589 0
M  V30 5151 H 492.731 0.227602 -1.4219 0
M  V30 5152 H 494.684 2.91142 -3.04654 0
M  V30 5153 H 493.408 2.7119 -1.81999 0
M  V30 5154 H 492.067 1.30763 -3.42486 0
M  V30 5155 H 491.715 3.78134 -3.31698 0
M  V30 5156 H 491.415 3.15465 -4.95738 0
M  V30 5157 H 492.939 4.01574 -4.59968 0
M  V30 5158 H 494.353 1.89416 -5.41105 0
M  V30 5159 H 492.75 1.24934 -5.86951 0
M  V30 5160 H 493.82 0.279742 -4.84092 0
M  V30 5161 N 495.163 1.55791 0.238111 0
M  V30 5162 C 496.096 1.86036 1.32158 0
M  V30 5163 C 497.074 0.716216 1.45976 0
M  V30 5164 O 498.258 0.962882 1.62052 0
M  V30 5165 C 495.385 2.05281 2.69402 0
M  V30 5166 C 494.431 3.27939 2.72687 0
M  V30 5167 S 495.264 4.84342 2.28413 0
M  V30 5168 C 496.42 5.06604 3.67565 0
M  V30 5169 H 496.653 2.77644 1.06306 0
M  V30 5170 H 494.186 1.48012 0.439537 0
M  V30 5171 H 496.144 2.17053 3.48423 0
M  V30 5172 H 494.805 1.14499 2.92487 0
M  V30 5173 H 493.998 3.38398 3.73501 0
M  V30 5174 H 493.6 3.14938 2.01717 0
M  V30 5175 H 495.892 4.94486 4.6313 0
M  V30 5176 H 496.835 6.08554 3.62033 0
M  V30 5177 H 497.243 4.34409 3.60485 0
M  V30 5178 N 496.642 -0.504142 1.49319 0
M  V30 5179 C 497.572 -1.61473 1.68667 0
M  V30 5180 C 498.553 -1.61455 0.535378 0
M  V30 5181 O 499.738 -1.78245 0.770868 0
M  V30 5182 C 496.868 -2.99971 1.75028 0
M  V30 5183 C 495.822 -3.14854 2.89916 0
M  V30 5184 C 495.148 -4.54671 2.81387 0
M  V30 5185 C 496.448 -2.95176 4.30893 0
M  V30 5186 H 498.142 -1.45535 2.61648 0
M  V30 5187 H 495.688 -0.698711 1.25913 0
M  V30 5188 H 497.641 -3.77562 1.8715 0
M  V30 5189 H 496.365 -3.1699 0.786441 0
M  V30 5190 H 495.024 -2.39687 2.77391 0
M  V30 5191 H 494.672 -4.68562 1.82917 0
M  V30 5192 H 494.372 -4.6557 3.58494 0
M  V30 5193 H 495.896 -5.34327 2.95512 0
M  V30 5194 H 497.31 -3.62538 4.44116 0
M  V30 5195 H 495.707 -3.17549 5.09198 0
M  V30 5196 H 496.777 -1.91332 4.45556 0
M  V30 5197 N 498.12 -1.38341 -0.754957 0
M  V30 5198 C 499.367 -1.34473 -1.51404 0
M  V30 5199 C 499.695 0.0656458 -1.94389 0
M  V30 5200 O 498.95 1.04244 -1.65625 0
M  V30 5201 C 499.249 -2.2452 -2.78075 0
M  V30 5202 C 498.915 -3.72512 -2.54059 0
M  V30 5203 C 497.577 -4.1284 -2.47218 0
M  V30 5204 C 499.929 -4.66197 -2.33044 0
M  V30 5205 C 497.257 -5.44945 -2.17376 0
M  V30 5206 C 499.609 -5.98558 -2.04723 0
M  V30 5207 C 498.273 -6.37972 -1.96337 0
M  V30 5208 H 497.543 -0.492072 -0.554027 0
M  V30 5209 H 500.19 -1.70687 -0.868223 0
M  V30 5210 H 498.495 -1.81357 -3.473 0
M  V30 5211 H 500.192 -2.18832 -3.36026 0
M  V30 5212 H 496.782 -3.40538 -2.60253 0
M  V30 5213 H 500.966 -4.35888 -2.37309 0
M  V30 5214 H 496.222 -5.74426 -2.09391 0
M  V30 5215 H 500.396 -6.70693 -1.87465 0
M  V30 5216 H 498.023 -7.40258 -1.72978 0
M  V30 5217 N 499.598 0.982988 -1.23187 0
M  V30 5218 C 500.528 2.09301 -1.03515 0
M  V30 5219 C 501.509 1.70035 0.0471136 0
M  V30 5220 O 502.694 1.93847 -0.117029 0
M  V30 5221 C 499.824 3.4167 -0.622791 0
M  V30 5222 C 498.778 3.94828 -1.65211 0
M  V30 5223 C 498.104 5.23362 -1.09527 0
M  V30 5224 C 499.404 4.2439 -3.04451 0
M  V30 5225 H 501.098 2.26016 -1.96359 0
M  V30 5226 H 498.644 1.08611 -0.945501 0
M  V30 5227 H 500.597 4.18746 -0.472233 0
M  V30 5228 H 499.321 3.24811 0.341329 0
M  V30 5229 H 497.98 3.19895 -1.79061 0
M  V30 5230 H 497.628 5.02852 -0.122211 0
M  V30 5231 H 497.328 5.59895 -1.783 0
M  V30 5232 H 498.852 6.03062 -0.956511 0
M  V30 5233 H 500.266 4.92225 -2.93917 0
M  V30 5234 H 498.663 4.72118 -3.70438 0
M  V30 5235 H 499.733 3.31765 -3.53638 0
M  V30 5236 N 501.076 1.04316 1.18135 0
M  V30 5237 C 501.986 0.646876 2.25505 0
M  V30 5238 C 503.002 -0.328008 1.7088 0
M  V30 5239 O 504.178 -0.182309 2.00573 0
M  V30 5240 C 501.243 0.0185664 3.46695 0
M  V30 5241 C 500.304 1.04277 4.16443 0
M  V30 5242 C 499.537 0.444352 5.31847 0
M  V30 5243 O 499.76 -0.748735 5.65465 0
M  V30 5244 O 498.694 1.17428 5.90334 0
M  V30 5245 H 502.52 1.54147 2.61672 0
M  V30 5246 H 500.105 0.814188 1.25265 0
M  V30 5247 H 501.987 -0.331068 4.20097 0
M  V30 5248 H 500.662 -0.849814 3.12346 0
M  V30 5249 H 499.569 1.44425 3.45098 0
M  V30 5250 H 500.902 1.882 4.54798 0
M  V30 5251 N 502.554 -1.34406 0.822964 0
M  V30 5252 C 503.517 -2.2783 0.250271 0
M  V30 5253 C 504.517 -1.50288 -0.571854 0
M  V30 5254 O 505.707 -1.69825 -0.387952 0
M  V30 5255 C 502.839 -3.34663 -0.649137 0
M  V30 5256 H 504.032 -2.79992 1.07444 0
M  V30 5257 H 501.585 -1.44539 0.594829 0
M  V30 5258 H 502.32 -2.87714 -1.49637 0
M  V30 5259 H 502.105 -3.92052 -0.0611199 0
M  V30 5260 H 503.595 -4.04349 -1.04363 0
M  V30 5261 N 504.032 -0.577932 -1.46621 0
M  V30 5262 C 504.942 0.160651 -2.34049 0
M  V30 5263 C 505.958 0.890911 -1.49462 0
M  V30 5264 O 507.134 0.855166 -1.82343 0
M  V30 5265 C 504.199 1.16447 -3.26559 0
M  V30 5266 C 503.26 0.4394 -4.27045 0
M  V30 5267 C 502.493 1.3954 -5.15135 0
M  V30 5268 O 502.716 2.63162 -5.06065 0
M  V30 5269 O 501.65 0.908585 -5.95003 0
M  V30 5270 H 505.476 -0.557057 -2.98547 0
M  V30 5271 H 503.061 -0.338369 -1.45518 0
M  V30 5272 H 504.943 1.7434 -3.83645 0
M  V30 5273 H 503.618 1.86373 -2.64663 0
M  V30 5274 H 502.525 -0.181247 -3.73661 0
M  V30 5275 H 503.858 -0.218799 -4.91713 0
M  V30 5276 N 505.51 1.54411 -0.315457 0
M  V30 5277 C 506.442 2.21527 0.588067 0
M  V30 5278 C 507.455 1.21263 1.08624 0
M  V30 5279 O 508.644 1.47777 1.00121 0
M  V30 5280 C 505.744 2.85963 1.81875 0
M  V30 5281 C 504.917 4.12291 1.46063 0
M  V30 5282 C 503.976 4.60396 2.54799 0
M  V30 5283 O 503.002 5.25265 2.19283 0
M  V30 5284 N 504.204 4.33935 3.85591 0
M  V30 5285 H 506.969 2.99697 0.013414 0
M  V30 5286 H 504.53 1.61308 -0.138295 0
M  V30 5287 H 506.522 3.15071 2.53993 0
M  V30 5288 H 505.092 2.11548 2.30144 0
M  V30 5289 H 504.312 3.90036 0.571445 0
M  V30 5290 H 505.6 4.9452 1.19695 0
M  V30 5291 H 504.998 3.81996 4.17248 0
M  V30 5292 H 503.555 4.67718 4.53964 0
M  V30 5293 N 506.988 0.0434614 1.5754 0
M  V30 5294 C 508.236 -0.630786 1.92004 0
M  V30 5295 C 508.557 -1.71836 0.921807 0
M  V30 5296 O 507.827 -1.9587 -0.034522 0
M  V30 5297 H 506.407 -0.235988 0.708745 0
M  V30 5298 H 509.069 0.0946462 1.9467 0
M  V30 5299 H 508.165 -1.07434 2.93026 0
M  V30 5300 N 508.466 -1.55915 -0.229846 0
M  V30 5301 C 509.712 -1.78807 -0.956868 0
M  V30 5302 C 510.045 -0.611687 -1.84315 0
M  V30 5303 O 509.32 0.389398 -1.90562 0
M  V30 5304 C 509.603 -3.11718 -1.80288 0
M  V30 5305 C 509.456 -4.3979 -0.943649 0
M  V30 5306 C 510.775 -3.40999 -2.78222 0
M  V30 5307 H 507.894 -0.6505 -0.346437 0
M  V30 5308 H 510.536 -1.88648 -0.226252 0
M  V30 5309 H 508.686 -3.03459 -2.42579 0
M  V30 5310 H 510.358 -4.60059 -0.338121 0
M  V30 5311 H 508.601 -4.33086 -0.248705 0
M  V30 5312 H 509.272 -5.29208 -1.5698 0
M  V30 5313 H 511.748 -3.49332 -2.26067 0
M  V30 5314 H 510.624 -4.35183 -3.34526 0
M  V30 5315 H 510.885 -2.62754 -3.55546 0
M  V30 5316 N 509.944 0.496216 -1.49584 0
M  V30 5317 C 511.172 1.27394 -1.63029 0
M  V30 5318 C 511.587 1.86344 -0.303569 0
M  V30 5319 O 510.944 1.68057 0.711547 0
M  V30 5320 C 510.995 2.40077 -2.70269 0
M  V30 5321 O 510.716 1.83549 -3.97796 0
M  V30 5322 C 512.217 3.31372 -2.94462 0
M  V30 5323 H 509.437 0.386211 -0.54871 0
M  V30 5324 H 511.981 0.595163 -1.95648 0
M  V30 5325 H 510.136 3.03775 -2.40415 0
M  V30 5326 H 510.55 2.57561 -4.56905 0
M  V30 5327 H 512.024 4.06707 -3.73221 0
M  V30 5328 H 512.501 3.88654 -2.0456 0
M  V30 5329 H 513.107 2.73435 -3.25751 0
M  V30 5330 N 511.423 1.38739 0.74761 0
M  V30 5331 C 512.373 1.32948 1.85226 0
M  V30 5332 C 513.357 0.212642 1.59489 0
M  V30 5333 O 514.549 0.449121 1.71207 0
M  V30 5334 C 511.678 1.16279 3.23008 0
M  V30 5335 C 510.764 2.32611 3.54617 0
M  V30 5336 N 511.155 3.58065 3.57244 0
M  V30 5337 C 509.453 2.25293 3.84914 0
M  V30 5338 C 510.154 4.34919 3.8629 0
M  V30 5339 N 509.13 3.64348 4.03425 0
M  V30 5340 H 512.932 2.27927 1.85544 0
M  V30 5341 H 510.446 1.32056 0.945253 0
M  V30 5342 H 512.443 1.10214 4.02068 0
M  V30 5343 H 511.103 0.222394 3.23937 0
M  V30 5344 H 512.114 3.91656 3.3886 0
M  V30 5345 H 508.791 1.39446 3.93524 0
M  V30 5346 H 510.181 5.43605 3.94896 0
M  V30 5347 N 512.901 -0.976442 1.23707 0
M  V30 5348 C 514.15 -1.71254 1.06559 0
M  V30 5349 C 514.463 -1.91528 -0.397024 0
M  V30 5350 O 515.669 -2.62625 -0.688518 0
M  V30 5351 C 514.125 -3.08207 1.8584 0
M  V30 5352 C 513.733 -2.95806 3.36456 0
M  V30 5353 C 515.477 -3.85749 1.77194 0
M  V30 5354 C 513.384 -4.28015 4.08114 0
M  V30 5355 H 512.314 -0.642171 0.395136 0
M  V30 5356 H 514.965 -1.08877 1.4771 0
M  V30 5357 H 513.347 -3.71363 1.37498 0
M  V30 5358 H 514.521 -2.41716 3.92314 0
M  V30 5359 H 512.836 -2.31736 3.45959 0
M  V30 5360 H 515.433 -4.83633 2.28041 0
M  V30 5361 H 515.776 -4.09752 0.735477 0
M  V30 5362 H 516.309 -3.29303 2.23169 0
M  V30 5363 H 513.048 -4.09208 5.12083 0
M  V30 5364 H 512.568 -4.81955 3.57043 0
M  V30 5365 H 514.247 -4.96681 4.14629 0
M  V30 5366 N 514.379 -1.04941 -1.1758 0
M  V30 5367 C 515.607 -0.778294 -1.91703 0
M  V30 5368 C 516.022 0.665697 -1.76675 0
M  V30 5369 O 515.379 1.45456 -1.10222 0
M  V30 5370 C 515.43 -1.14628 -3.42845 0
M  V30 5371 O 515.151 -2.53359 -3.57409 0
M  V30 5372 C 516.652 -0.900931 -4.34049 0
M  V30 5373 H 513.872 -0.283167 -0.608323 0
M  V30 5374 H 516.416 -1.39942 -1.49119 0
M  V30 5375 H 514.571 -0.569953 -3.83184 0
M  V30 5376 H 514.985 -2.67709 -4.51035 0
M  V30 5377 H 516.459 -1.20817 -5.38616 0
M  V30 5378 H 516.936 0.163966 -4.38894 0
M  V30 5379 H 517.542 -1.46097 -3.99419 0
M  V30 5380 N 515.857 1.33968 -0.830081 0
M  V30 5381 C 516.767 2.33164 -0.259207 0
M  V30 5382 C 517.783 1.62951 0.610164 0
M  V30 5383 O 518.959 1.94668 0.516369 0
M  V30 5384 C 516.024 3.42088 0.563598 0
M  V30 5385 C 515.085 4.28037 -0.329014 0
M  V30 5386 C 514.318 5.3176 0.454616 0
M  V30 5387 O 514.541 5.44876 1.6872 0
M  V30 5388 O 513.475 6.01669 -0.166794 0
M  V30 5389 H 517.301 2.83832 -1.08041 0
M  V30 5390 H 514.886 1.37154 -0.59239 0
M  V30 5391 H 516.768 4.08581 1.03147 0
M  V30 5392 H 515.443 2.93651 1.36201 0
M  V30 5393 H 514.35 3.64443 -0.844538 0
M  V30 5394 H 515.683 4.79934 -1.09196 0
M  V30 5395 N 517.335 0.585699 1.46312 0
M  V30 5396 C 518.612 0.00542031 1.95599 0
M  V30 5397 C 518.992 -1.45619 1.52834 0
M  V30 5398 O 518.34 -2.14759 0.780446 0
M  V30 5399 C 518.55 0.180601 3.48532 0
M  V30 5400 C 519.898 0.049979 4.24571 0
M  V30 5401 O 520.922 0.109589 3.56031 0
M  V30 5402 O 519.781 -0.0832226 5.46437 0
M  V30 5403 H 516.875 -0.0481281 0.825598 0
M  V30 5404 H 519.421 0.654227 1.56582 0
M  V30 5405 H 518.193 1.19657 3.72556 0
M  V30 5406 H 517.816 -0.504498 3.94386 0
M  V30 5407 N 518.813 -1.54241 0.323641 0
M  V30 5408 C 520.062 -1.9975 -0.279806 0
M  V30 5409 C 520.375 -1.2156 -1.5324 0
M  V30 5410 O 521.581 -1.57447 -2.21185 0
M  V30 5411 C 520.037 -3.55686 -0.549115 0
M  V30 5412 C 519.645 -4.4271 0.686432 0
M  V30 5413 C 521.389 -4.09663 -1.11251 0
M  V30 5414 C 519.296 -5.90119 0.389022 0
M  V30 5415 H 518.226 -0.746177 -0.10833 0
M  V30 5416 H 520.877 -1.78248 0.435877 0
M  V30 5417 H 519.259 -3.73176 -1.32499 0
M  V30 5418 H 520.433 -4.36996 1.46188 0
M  V30 5419 H 518.748 -3.99623 1.17005 0
M  V30 5420 H 521.345 -5.17386 -1.34965 0
M  V30 5421 H 521.688 -3.61651 -2.06191 0
M  V30 5422 H 522.221 -3.95806 -0.39782 0
M  V30 5423 H 518.96 -6.42326 1.30759 0
M  V30 5424 H 518.48 -5.98785 -0.348722 0
M  V30 5425 H 520.159 -6.47 -0.0011164 0
M  V30 5426 N 520.291 -0.0518155 -1.57515 0
M  V30 5427 C 521.531 0.625712 -1.94587 0
M  V30 5428 C 521.895 1.6797 -0.930053 0
M  V30 5429 O 523.096 2.41135 -1.18774 0
M  V30 5430 C 521.367 1.20574 -3.36447 0
M  V30 5431 S 522.926 1.90118 -3.95475 0
M  V30 5432 H 519.744 0.205434 -0.680675 0
M  V30 5433 H 522.346 -0.120906 -1.95126 0
M  V30 5434 H 521.05 0.426521 -4.08178 0
M  V30 5435 H 520.581 1.98916 -3.39405 0
M  V30 5436 H 522.596 3.18184 -3.80753 0
M  V30 5437 N 521.769 1.56035 0.221574 0
M  V30 5438 C 522.699 1.95434 1.2778 0
M  V30 5439 C 523.68 0.822564 1.48889 0
M  V30 5440 O 524.865 1.08486 1.61072 0
M  V30 5441 C 521.995 2.27102 2.62759 0
M  V30 5442 C 520.949 3.4277 2.56306 0
M  V30 5443 C 520.275 3.60043 3.95314 0
M  V30 5444 C 521.575 4.77742 2.11093 0
M  V30 5445 H 523.269 2.83912 0.950504 0
M  V30 5446 H 520.815 1.36596 0.455791 0
M  V30 5447 H 522.768 2.53256 3.36807 0
M  V30 5448 H 521.492 1.35478 2.97176 0
M  V30 5449 H 520.151 3.16664 1.84715 0
M  V30 5450 H 519.799 2.65794 4.27039 0
M  V30 5451 H 519.499 4.37841 3.91879 0
M  V30 5452 H 521.023 3.88545 4.71025 0
M  V30 5453 H 522.437 5.03102 2.74885 0
M  V30 5454 H 520.834 5.58823 2.18716 0
M  V30 5455 H 521.904 4.731 1.06321 0
M  V30 5456 N 523.247 -0.488276 1.49845 0
M  V30 5457 C 524.524 -1.24959 1.50481 0
M  V30 5458 C 524.904 -2.09735 0.239698 0
M  V30 5459 O 524.252 -2.14865 -0.777524 0
M  V30 5460 C 524.462 -2.0954 2.79095 0
M  V30 5461 C 525.81 -2.68305 3.29086 0
M  V30 5462 O 526.834 -2.19797 2.80299 0
M  V30 5463 O 525.693 -3.56643 4.14087 0
M  V30 5464 H 522.787 -0.566133 0.602845 0
M  V30 5465 H 525.333 -0.501504 1.6212 0
M  V30 5466 H 524.105 -1.46958 3.62656 0
M  V30 5467 H 523.728 -2.91517 2.70377 0
M  V30 5468 N 524.725 -1.39134 -0.740242 0
M  V30 5469 C 525.974 -1.35384 -1.49512 0
M  V30 5470 C 526.287 0.04919 -1.95538 0
M  V30 5471 O 527.493 0.209257 -2.70692 0
M  V30 5472 C 525.949 -2.37812 -2.70136 0
M  V30 5473 C 525.557 -3.83804 -2.31081 0
M  V30 5474 C 527.301 -2.4313 -3.47977 0
M  V30 5475 C 525.208 -4.77886 -3.48395 0
M  V30 5476 H 524.138 -0.503297 -0.561434 0
M  V30 5477 H 526.789 -1.64754 -0.807974 0
M  V30 5478 H 525.171 -2.01505 -3.40899 0
M  V30 5479 H 526.345 -4.29123 -1.67898 0
M  V30 5480 H 524.66 -3.81732 -1.66343 0
M  V30 5481 H 527.257 -3.10614 -4.35228 0
M  V30 5482 H 527.6 -1.45423 -3.90074 0
M  V30 5483 H 528.133 -2.78304 -2.84239 0
M  V30 5484 H 524.872 -5.76836 -3.11353 0
M  V30 5485 H 524.392 -4.3725 -4.10576 0
M  V30 5486 H 526.071 -4.96538 -4.148 0
M  V30 5487 N 526.204 0.969867 -1.24223 0
M  V30 5488 C 527.453 1.70687 -1.07466 0
M  V30 5489 C 527.766 1.91736 0.386861 0
M  V30 5490 O 528.972 2.62986 0.674581 0
M  V30 5491 C 527.428 3.07217 -1.87472 0
M  V30 5492 C 527.036 2.94018 -3.3802 0
M  V30 5493 C 528.78 3.84804 -1.79237 0
M  V30 5494 C 526.687 4.25844 -4.10379 0
M  V30 5495 H 525.617 0.640067 -0.398536 0
M  V30 5496 H 528.268 1.08092 -1.48285 0
M  V30 5497 H 526.65 3.70628 -1.39466 0
M  V30 5498 H 527.824 2.39632 -3.9359 0
M  V30 5499 H 526.139 2.29898 -3.47183 0
M  V30 5500 H 528.736 4.82417 -2.30603 0
M  V30 5501 H 529.079 4.09356 -0.757197 0
M  V30 5502 H 529.612 3.28115 -2.24912 0
M  V30 5503 H 526.351 4.06486 -5.14246 0
M  V30 5504 H 525.871 4.80054 -3.59594 0
M  V30 5505 H 527.55 4.94475 -4.17257 0
M  V30 5506 N 527.682 1.05563 1.17022 0
M  V30 5507 C 529.098 0.777684 1.39371 0
M  V30 5508 C 529.298 -0.626269 1.91521 0
M  V30 5509 O 528.354 -1.38806 2.10924 0
M  V30 5510 C 529.667 1.83642 2.3811 0
M  V30 5511 C 531.215 1.85907 2.51809 0
M  V30 5512 C 531.69 2.90813 3.53824 0
M  V30 5513 N 533.181 2.898 3.61345 0
M  V30 5514 C 533.916 3.6762 4.40049 0
M  V30 5515 N 533.412 4.55237 5.22237 0
M  V30 5516 N 535.205 3.56044 4.34959 0
M  V30 5517 H 527.356 1.9614 0.815047 0
M  V30 5518 H 529.619 0.849527 0.420722 0
M  V30 5519 H 529.325 2.84425 2.06871 0
M  V30 5520 H 529.199 1.6812 3.37662 0
M  V30 5521 H 531.586 0.857865 2.82356 0
M  V30 5522 H 531.667 2.05506 1.52318 0
M  V30 5523 H 531.311 3.91122 3.24015 0
M  V30 5524 H 531.241 2.68465 4.53028 0
M  V30 5525 H 533.732 2.26274 3.02669 0
M  V30 5526 H 534.045 5.11291 5.79484 0
M  V30 5527 H 532.39 4.59296 5.21605 0
M  V30 5528 H 535.581 2.86986 3.69806 0
M  V30 5529 H 535.754 4.16938 4.96051 0
M  V30 5530 N 529.16 -1.33526 0.837174 0
M  V30 5531 C 530.576 -1.50727 0.524743 0
M  V30 5532 C 530.776 -1.77792 -0.948279 0
M  V30 5533 O 529.832 -1.83719 -1.73216 0
M  V30 5534 C 531.145 -2.66299 1.39661 0
M  V30 5535 C 532.693 -2.80183 1.39521 0
M  V30 5536 C 533.168 -3.98815 2.25189 0
M  V30 5537 N 534.659 -4.06047 2.2289 0
M  V30 5538 C 535.394 -4.97032 2.85915 0
M  V30 5539 N 534.89 -5.93143 3.57985 0
M  V30 5540 N 536.683 -4.90015 2.75394 0
M  V30 5541 H 528.834 -1.1422 1.79074 0
M  V30 5542 H 531.097 -0.561399 0.763894 0
M  V30 5543 H 530.803 -2.52974 2.4433 0
M  V30 5544 H 530.677 -3.61663 1.07145 0
M  V30 5545 H 533.064 -2.92942 0.356253 0
M  V30 5546 H 533.145 -1.85586 1.76044 0
M  V30 5547 H 532.789 -3.86817 3.29143 0
M  V30 5548 H 532.719 -4.92654 1.86009 0
M  V30 5549 H 535.21 -3.37262 1.70478 0
M  V30 5550 H 535.523 -6.59227 4.03286 0
M  V30 5551 H 533.868 -5.93223 3.62093 0
M  V30 5552 H 537.059 -4.13894 2.18654 0
M  V30 5553 H 537.232 -5.60724 3.24796 0
M  V30 5554 N 530.638 -0.59345 -1.46 0
M  V30 5555 C 531.868 -0.0889642 -2.06408 0
M  V30 5556 C 532.276 1.22597 -1.44106 0
M  V30 5557 O 531.619 1.75448 -0.544398 0
M  V30 5558 C 531.681 0.139902 -3.59228 0
M  V30 5559 C 531.345 -1.09107 -4.43784 0
M  V30 5560 C 532.342 -2.00577 -4.79651 0
M  V30 5561 C 530.027 -1.31593 -4.84756 0
M  V30 5562 C 532.021 -3.12873 -5.55328 0
M  V30 5563 C 529.708 -2.44192 -5.60191 0
M  V30 5564 C 530.706 -3.34661 -5.95392 0
M  V30 5565 O 530.394 -4.45302 -6.69299 0
M  V30 5566 H 530.126 -0.0594613 -0.67338 0
M  V30 5567 H 532.68 -0.817 -1.88452 0
M  V30 5568 H 530.91 0.922672 -3.75531 0
M  V30 5569 H 532.599 0.594228 -4.01527 0
M  V30 5570 H 533.365 -1.84425 -4.48567 0
M  V30 5571 H 529.244 -0.620801 -4.56801 0
M  V30 5572 H 532.788 -3.83511 -5.82722 0
M  V30 5573 H 528.685 -2.60303 -5.90688 0
M  V30 5574 H 529.453 -4.43805 -6.87735 0
M  V30 5575 N 532.116 1.54067 -0.331816 0
M  V30 5576 C 533.026 2.28322 0.539104 0
M  V30 5577 C 534.042 1.32985 1.1221 0
M  V30 5578 O 535.218 1.6601 1.1403 0
M  V30 5579 C 532.283 3.03277 1.68 0
M  V30 5580 C 531.344 4.14216 1.12798 0
M  V30 5581 C 530.577 4.85588 2.2145 0
M  V30 5582 O 530.8 4.56536 3.41952 0
M  V30 5583 O 529.734 5.72309 1.86404 0
M  V30 5584 H 533.56 3.03632 -0.0641692 0
M  V30 5585 H 531.145 1.49083 -0.0972365 0
M  V30 5586 H 533.027 3.50189 2.34405 0
M  V30 5587 H 531.702 2.30834 2.2693 0
M  V30 5588 H 530.609 3.71635 0.428782 0
M  V30 5589 H 531.942 4.88727 0.583698 0
M  V30 5590 N 533.594 0.0601682 1.57485 0
M  V30 5591 C 534.524 -0.90889 2.15085 0
M  V30 5592 C 535.505 -1.31838 1.07484 0
M  V30 5593 O 536.69 -1.3915 1.35466 0
M  V30 5594 C 533.82 -2.18059 2.7031 0
M  V30 5595 C 532.774 -1.91088 3.82974 0
M  V30 5596 C 532.1 -3.24789 4.24754 0
M  V30 5597 C 533.4 -1.22535 5.07723 0
M  V30 5598 H 535.094 -0.429093 2.96309 0
M  V30 5599 H 532.64 -0.204952 1.42534 0
M  V30 5600 H 534.593 -2.86258 3.09248 0
M  V30 5601 H 533.317 -2.6826 1.8629 0
M  V30 5602 H 531.976 -1.25297 3.44523 0
M  V30 5603 H 531.624 -3.72809 3.37672 0
M  V30 5604 H 531.324 -3.07538 5.00694 0
M  V30 5605 H 532.848 -3.94205 4.66299 0
M  V30 5606 H 534.262 -1.80783 5.4405 0
M  V30 5607 H 532.659 -1.1558 5.88864 0
M  V30 5608 H 533.729 -0.202692 4.84476 0
M  V30 5609 N 535.072 -1.5615 -0.213296 0
M  V30 5610 C 536.297 -1.83986 -0.957282 0
M  V30 5611 C 536.722 -0.641526 -1.76822 0
M  V30 5612 O 536.08 0.409722 -1.7661 0
M  V30 5613 C 536.128 -3.09889 -1.84393 0
M  V30 5614 O 535.232 -2.89163 -2.94038 0
M  V30 5615 H 534.573 -0.606357 -0.270605 0
M  V30 5616 H 537.103 -2.03369 -0.224111 0
M  V30 5617 H 537.113 -3.40209 -2.25215 0
M  V30 5618 H 535.788 -3.96735 -1.24795 0
M  V30 5619 H 534.365 -2.70097 -2.57103 0
M  V30 5620 N 536.55 0.480323 -1.50102 0
M  V30 5621 C 537.46 1.60547 -1.71061 0
M  V30 5622 C 538.476 1.63564 -0.593529 0
M  V30 5623 O 539.652 1.81604 -0.870751 0
M  V30 5624 C 536.717 2.96814 -1.79171 0
M  V30 5625 C 535.778 3.04259 -3.02861 0
M  V30 5626 C 535.011 4.34027 -3.10574 0
M  V30 5627 O 535.234 5.24009 -2.25323 0
M  V30 5628 O 534.168 4.46873 -4.03223 0
M  V30 5629 H 537.994 1.45788 -2.6642 0
M  V30 5630 H 535.579 0.658838 -1.34088 0
M  V30 5631 H 537.461 3.77765 -1.86738 0
M  V30 5632 H 536.136 3.11791 -0.869947 0
M  V30 5633 H 535.043 2.22419 -3.008 0
M  V30 5634 H 536.376 2.94216 -3.94586 0
M  V30 5635 N 538.028 1.39524 0.732853 0
M  V30 5636 C 538.938 1.40695 1.87729 0
M  V30 5637 C 539.954 0.301496 1.71368 0
M  V30 5638 O 541.13 0.543313 1.93933 0
M  V30 5639 C 538.195 1.25098 3.23344 0
M  V30 5640 C 537.256 2.45634 3.52083 0
M  V30 5641 C 536.489 2.30772 4.81228 0
M  V30 5642 O 536.712 1.31233 5.55098 0
M  V30 5643 O 535.646 3.19799 5.09914 0
M  V30 5644 H 539.472 2.37168 1.89697 0
M  V30 5645 H 537.057 1.20663 0.880959 0
M  V30 5646 H 538.939 1.18541 4.04383 0
M  V30 5647 H 537.614 0.317209 3.22142 0
M  V30 5648 H 536.521 2.57767 2.71122 0
M  V30 5649 H 537.854 3.37712 3.58066 0
M  V30 5650 N 539.506 -0.963266 1.24736 0
M  V30 5651 C 540.754 -1.70343 1.08755 0
M  V30 5652 C 541.075 -1.91387 -0.373619 0
M  V30 5653 O 540.345 -1.4948 -1.2662 0
M  V30 5654 H 538.925 -0.631224 0.399456 0
M  V30 5655 H 541.587 -1.15859 1.56725 0
M  V30 5656 H 540.683 -2.68616 1.58909 0
M  V30 5657 N 540.985 -1.06182 -1.16461 0
M  V30 5658 C 542.401 -0.785065 -1.38956 0
M  V30 5659 C 542.601 0.616103 -1.9185 0
M  V30 5660 O 541.657 1.37686 -2.11657 0
M  V30 5661 C 542.97 -1.84902 -2.37132 0
M  V30 5662 C 544.518 -1.8724 -2.50819 0
M  V30 5663 C 544.993 -2.92686 -3.52277 0
M  V30 5664 N 546.484 -2.91712 -3.59803 0
M  V30 5665 C 547.219 -3.69949 -4.38093 0
M  V30 5666 N 546.715 -4.58 -5.19815 0
M  V30 5667 N 548.508 -3.58346 -4.33064 0
M  V30 5668 H 540.659 -1.96569 -0.804634 0
M  V30 5669 H 542.922 -0.851747 -0.416211 0
M  V30 5670 H 542.628 -2.85518 -2.0536 0
M  V30 5671 H 542.502 -1.69908 -3.36766 0
M  V30 5672 H 544.889 -0.872827 -2.81897 0
M  V30 5673 H 544.97 -2.06311 -1.51226 0
M  V30 5674 H 544.614 -3.92835 -3.21937 0
M  V30 5675 H 544.544 -2.70864 -4.51598 0
M  V30 5676 H 547.035 -2.27876 -3.01464 0
M  V30 5677 H 547.348 -5.14357 -5.76764 0
M  V30 5678 H 545.693 -4.62056 -5.19162 0
M  V30 5679 H 548.884 -2.88943 -3.68279 0
M  V30 5680 H 549.057 -4.19563 -4.93833 0
M  V30 5681 N 542.463 1.3308 -0.844243 0
M  V30 5682 C 543.395 2.27954 -0.238671 0
M  V30 5683 C 544.408 1.51978 0.583665 0
M  V30 5684 O 545.597 1.73731 0.409857 0
M  V30 5685 C 542.697 3.31963 0.682185 0
M  V30 5686 C 541.87 4.37281 -0.101998 0
M  V30 5687 C 540.929 5.20928 0.743022 0
M  V30 5688 O 539.955 5.68914 0.180285 0
M  V30 5689 N 541.157 5.42738 2.0595 0
M  V30 5690 H 543.922 2.8056 -1.05386 0
M  V30 5691 H 541.483 1.4583 -0.70322 0
M  V30 5692 H 543.475 3.84828 1.25259 0
M  V30 5693 H 542.045 2.79594 1.39808 0
M  V30 5694 H 541.265 3.84843 -0.853802 0
M  V30 5695 H 542.553 5.04746 -0.641015 0
M  V30 5696 H 541.951 5.05463 2.54016 0
M  V30 5697 H 540.508 5.98639 2.57827 0
M  V30 5698 N 543.941 0.601185 1.45683 0
M  V30 5699 C 544.888 -0.121396 2.30481 0
M  V30 5700 C 545.858 -0.866232 1.41724 0
M  V30 5701 O 547.043 -0.85324 1.70659 0
M  V30 5702 C 544.183 -1.11704 3.26521 0
M  V30 5703 C 543.296 -0.373741 4.3038 0
M  V30 5704 C 542.431 -1.35854 5.13534 0
M  V30 5705 C 541.47 -0.602689 6.09126 0
M  V30 5706 N 540.607 -1.53645 6.85082 0
M  V30 5707 H 545.447 0.607732 2.91737 0
M  V30 5708 H 542.984 0.311502 1.43764 0
M  V30 5709 H 544.942 -1.70735 3.80664 0
M  V30 5710 H 543.572 -1.81366 2.67032 0
M  V30 5711 H 542.624 0.331962 3.78949 0
M  V30 5712 H 543.936 0.2163 4.98331 0
M  V30 5713 H 543.09 -2.02111 5.72046 0
M  V30 5714 H 541.829 -1.98251 4.45587 0
M  V30 5715 H 540.834 0.0735482 5.49751 0
M  V30 5716 H 542.059 0.0161467 6.79098 0
M  V30 5717 H 540.005 -2.14819 6.1983 0
M  V30 5718 H 539.922 -0.999688 7.49361 0
M  V30 5719 H 541.19 -2.1888 7.48139 0
M  V30 5720 N 545.419 -1.53889 0.339982 0
M  V30 5721 C 546.667 -2.00458 -0.257112 0
M  V30 5722 C 546.988 -1.22953 -1.51353 0
M  V30 5723 O 546.258 -0.335734 -1.93002 0
M  V30 5724 H 544.838 -0.740544 -0.0979965 0
M  V30 5725 H 547.5 -1.89386 0.460317 0
M  V30 5726 H 546.596 -3.08035 -0.502057 0
M  V30 5727 N 546.897 -0.0685191 -1.57451 0
M  V30 5728 C 548.144 0.601348 -1.93365 0
M  V30 5729 C 548.472 1.69816 -0.948294 0
M  V30 5730 O 547.727 1.95666 0.0366199 0
M  V30 5731 C 548.026 1.22051 -3.35914 0
M  V30 5732 C 547.692 0.250165 -4.50205 0
M  V30 5733 C 546.354 -0.0167954 -4.81197 0
M  V30 5734 C 548.706 -0.413867 -5.19554 0
M  V30 5735 C 546.034 -0.95493 -5.78876 0
M  V30 5736 C 548.386 -1.3403 -6.18238 0
M  V30 5737 C 547.05 -1.61576 -6.47649 0
M  V30 5738 H 546.32 0.220049 -0.707573 0
M  V30 5739 H 548.967 -0.138697 -1.90997 0
M  V30 5740 H 547.272 2.03622 -3.34732 0
M  V30 5741 H 548.969 1.74605 -3.6099 0
M  V30 5742 H 545.559 0.468421 -4.26033 0
M  V30 5743 H 549.743 -0.220733 -4.95809 0
M  V30 5744 H 544.999 -1.17563 -5.99991 0
M  V30 5745 H 549.173 -1.86081 -6.71079 0
M  V30 5746 H 546.8 -2.34431 -7.2315 0
M  V30 5747 N 548.375 1.56261 0.205012 0
M  V30 5748 C 549.305 1.96779 1.257 0
M  V30 5749 C 550.286 0.838309 1.48008 0
M  V30 5750 O 551.471 1.10189 1.59913 0
M  V30 5751 C 548.601 2.29876 2.60335 0
M  V30 5752 C 547.555 3.45469 2.52656 0
M  V30 5753 C 546.881 3.64215 3.91473 0
M  V30 5754 C 548.181 4.79954 2.06014 0
M  V30 5755 H 549.875 2.84904 0.920338 0
M  V30 5756 H 547.421 1.37072 0.441277 0
M  V30 5757 H 549.374 2.56814 3.34102 0
M  V30 5758 H 548.098 1.38622 2.95722 0
M  V30 5759 H 546.757 3.18605 1.81345 0
M  V30 5760 H 546.405 2.70309 4.24196 0
M  V30 5761 H 546.105 4.41973 3.87213 0
M  V30 5762 H 547.629 3.93519 4.66878 0
M  V30 5763 H 549.043 5.05989 2.69533 0
M  V30 5764 H 547.44 5.61111 2.12777 0
M  V30 5765 H 548.51 4.74201 1.01297 0
M  V30 5766 N 549.853 -0.472356 1.50355 0
M  V30 5767 C 550.816 -1.5529 1.68576 0
M  V30 5768 C 551.816 -1.50863 0.556511 0
M  V30 5769 O 553.006 -1.53505 0.823516 0
M  V30 5770 C 550.138 -2.94921 1.70981 0
M  V30 5771 H 551.331 -1.40451 2.64978 0
M  V30 5772 H 548.884 -0.698645 1.39816 0
M  V30 5773 H 549.619 -3.15204 0.762675 0
M  V30 5774 H 549.404 -2.99541 2.53017 0
M  V30 5775 H 550.894 -3.73372 1.87037 0
M  V30 5776 N 551.331 -1.39911 -0.725443 0
M  V30 5777 C 552.58 -1.36963 -1.48068 0
M  V30 5778 C 552.893 0.0284478 -1.95579 0
M  V30 5779 O 554.099 0.180535 -2.70899 0
M  V30 5780 C 552.555 -2.40664 -2.67598 0
M  V30 5781 C 552.163 -3.86234 -2.26997 0
M  V30 5782 C 553.907 -2.46807 -3.45379 0
M  V30 5783 C 551.814 -4.81554 -3.43307 0
M  V30 5784 H 550.744 -0.509223 -0.556065 0
M  V30 5785 H 553.395 -1.65602 -0.790454 0
M  V30 5786 H 551.777 -2.05109 -3.38742 0
M  V30 5787 H 552.951 -4.3088 -1.63337 0
M  V30 5788 H 551.266 -3.83475 -1.62284 0
M  V30 5789 H 553.863 -3.15213 -4.31909 0
M  V30 5790 H 554.206 -1.49552 -3.8851 0
M  V30 5791 H 554.739 -2.81303 -2.81271 0
M  V30 5792 H 551.478 -5.80106 -3.05217 0
M  V30 5793 H 550.998 -4.4158 -4.05915 0
M  V30 5794 H 552.677 -5.0091 -4.0951 0
M  V30 5795 N 552.809 0.956637 -1.25245 0
M  V30 5796 C 554.086 1.67716 -1.00651 0
M  V30 5797 C 554.466 2.0585 0.467866 0
M  V30 5798 O 553.814 1.77029 1.44475 0
M  V30 5799 C 554.024 2.90093 -1.94028 0
M  V30 5800 C 555.372 3.6209 -2.21756 0
M  V30 5801 O 556.396 3.00171 -1.9177 0
M  V30 5802 O 555.255 4.7358 -2.72735 0
M  V30 5803 H 552.349 0.733731 -0.381533 0
M  V30 5804 H 554.895 1.00974 -1.3639 0
M  V30 5805 H 553.667 2.58689 -2.93591 0
M  V30 5806 H 553.29 3.64566 -1.58674 0
M  V30 5807 N 554.287 1.06798 1.15896 0
M  V30 5808 C 555.535 0.786211 1.8618 0
M  V30 5809 C 555.856 -0.689547 1.82401 0
M  V30 5810 O 555.126 -1.49913 1.26107 0
M  V30 5811 H 553.706 0.287843 0.689315 0
M  V30 5812 H 556.368 1.35055 1.40521 0
M  V30 5813 H 555.464 1.1157 2.91477 0
M  V30 5814 N 555.766 -1.3263 0.851289 0
M  V30 5815 C 557.013 -1.97368 0.453023 0
M  V30 5816 C 557.341 -1.67384 -0.990596 0
M  V30 5817 O 556.596 -0.952665 -1.70947 0
M  V30 5818 C 556.895 -3.51713 0.635015 0
M  V30 5819 C 556.561 -4.01676 2.04859 0
M  V30 5820 C 555.223 -4.15031 2.43522 0
M  V30 5821 C 557.575 -4.28206 2.97135 0
M  V30 5822 C 554.903 -4.52257 3.73739 0
M  V30 5823 C 557.255 -4.66889 4.26846 0
M  V30 5824 C 555.919 -4.7845 4.65448 0
M  V30 5825 H 555.189 -0.722219 0.165773 0
M  V30 5826 H 557.836 -1.58092 1.0807 0
M  V30 5827 H 556.141 -3.91726 -0.0759081 0
M  V30 5828 H 557.838 -3.99823 0.306964 0
M  V30 5829 H 554.428 -3.91764 1.73836 0
M  V30 5830 H 558.612 -4.174 2.68498 0
M  V30 5831 H 553.868 -4.59402 4.03435 0
M  V30 5832 H 558.042 -4.86372 4.98413 0
M  V30 5833 H 555.669 -5.07052 5.66395 0
M  V30 5834 N 557.244 -0.608902 -1.45362 0
M  V30 5835 C 558.472 -0.111013 -2.06602 0
M  V30 5836 C 558.887 1.20516 -1.45332 0
M  V30 5837 O 558.244 1.73437 -0.567978 0
M  V30 5838 C 558.295 0.033688 -3.61484 0
M  V30 5839 O 558.016 -1.23041 -4.20467 0
M  V30 5840 C 559.517 0.562882 -4.39712 0
M  V30 5841 H 556.737 -0.0694453 -0.667397 0
M  V30 5842 H 559.281 -0.837008 -1.86586 0
M  V30 5843 H 557.436 0.710016 -3.80838 0
M  V30 5844 H 557.85 -1.06094 -5.13658 0
M  V30 5845 H 559.324 0.613213 -5.48583 0
M  V30 5846 H 559.801 1.58543 -4.09586 0
M  V30 5847 H 560.407 -0.0794454 -4.25226 0
M  V30 5848 N 558.722 1.53707 -0.348139 0
M  V30 5849 C 559.654 2.22725 0.540946 0
M  V30 5850 C 560.667 1.2354 1.06027 0
M  V30 5851 O 561.856 1.49867 0.96964 0
M  V30 5852 C 558.956 2.89756 1.75768 0
M  V30 5853 C 558.129 4.15297 1.37285 0
M  V30 5854 C 557.188 4.65697 2.44976 0
M  V30 5855 O 556.214 5.29798 2.08092 0
M  V30 5856 N 557.416 4.42017 3.763 0
M  V30 5857 H 560.181 2.99658 -0.0501592 0
M  V30 5858 H 557.742 1.60979 -0.17248 0
M  V30 5859 H 559.734 3.20388 2.47252 0
M  V30 5860 H 558.304 2.16382 2.25605 0
M  V30 5861 H 557.524 3.9116 0.488584 0
M  V30 5862 H 558.812 4.96948 1.09179 0
M  V30 5863 H 558.21 3.9076 4.09051 0
M  V30 5864 H 556.767 4.77242 4.4394 0
M  V30 5865 N 560.2 0.0768682 1.57412 0
M  V30 5866 C 561.43 -0.5991 1.97723 0
M  V30 5867 C 561.838 -1.63378 0.954166 0
M  V30 5868 O 561.181 -1.83578 -0.0668706 0
M  V30 5869 C 561.243 -1.32078 3.34358 0
M  V30 5870 C 560.907 -0.438985 4.54887 0
M  V30 5871 C 561.904 0.305492 5.19002 0
M  V30 5872 C 559.589 -0.362378 5.00991 0
M  V30 5873 C 561.583 1.11475 6.27576 0
M  V30 5874 C 559.27 0.450543 6.09437 0
M  V30 5875 C 560.268 1.18777 6.72593 0
M  V30 5876 O 559.956 1.98727 7.7895 0
M  V30 5877 H 559.688 -0.166725 0.655117 0
M  V30 5878 H 562.242 0.147337 2.04871 0
M  V30 5879 H 560.472 -2.1134 3.2384 0
M  V30 5880 H 562.161 -1.88949 3.5924 0
M  V30 5881 H 562.927 0.25593 4.84324 0
M  V30 5882 H 558.806 -0.925832 4.51608 0
M  V30 5883 H 562.35 1.69068 6.76803 0
M  V30 5884 H 558.247 0.501651 6.43548 0
M  V30 5885 H 559.015 1.91214 7.95851 0
M  V30 5886 N 561.678 -1.56367 -0.196722 0
M  V30 5887 C 562.608 -1.97442 -1.24655 0
M  V30 5888 C 563.589 -0.846147 -1.47561 0
M  V30 5889 O 564.774 -1.11035 -1.59326 0
M  V30 5890 C 561.904 -2.31253 -2.59112 0
M  V30 5891 C 560.858 -3.46804 -2.50821 0
M  V30 5892 C 560.184 -3.66286 -3.89536 0
M  V30 5893 C 561.484 -4.8104 -2.03465 0
M  V30 5894 H 563.178 -2.85388 -0.905216 0
M  V30 5895 H 560.724 -1.37304 -0.434002 0
M  V30 5896 H 562.677 -2.58583 -3.32736 0
M  V30 5897 H 561.401 -1.40188 -2.94983 0
M  V30 5898 H 560.06 -3.19563 -1.79653 0
M  V30 5899 H 559.708 -2.72555 -4.22756 0
M  V30 5900 H 559.408 -4.4402 -3.84864 0
M  V30 5901 H 560.932 -3.9599 -4.64784 0
M  V30 5902 H 562.346 -5.07411 -2.66846 0
M  V30 5903 H 560.743 -5.62232 -2.09798 0
M  V30 5904 H 561.813 -4.74732 -0.98781 0
M  V30 5905 N 563.156 0.464375 -1.50603 0
M  V30 5906 C 564.086 1.56944 -1.72889 0
M  V30 5907 C 565.067 1.59979 -0.577997 0
M  V30 5908 O 566.252 1.76138 -0.817855 0
M  V30 5909 C 563.382 2.95225 -1.8292 0
M  V30 5910 C 562.336 3.07056 -2.98162 0
M  V30 5911 C 561.662 4.47051 -2.93343 0
M  V30 5912 C 562.962 2.83648 -4.38567 0
M  V30 5913 H 564.656 1.38547 -2.65415 0
M  V30 5914 H 562.202 0.665082 -1.27721 0
M  V30 5915 H 564.155 3.72467 -1.97095 0
M  V30 5916 H 562.879 3.14793 -0.870209 0
M  V30 5917 H 561.538 2.32248 -2.83648 0
M  V30 5918 H 561.186 4.63547 -1.95276 0
M  V30 5919 H 560.886 4.55902 -3.70712 0
M  V30 5920 H 562.41 5.26304 -3.09575 0
M  V30 5921 H 563.824 3.50636 -4.53572 0
M  V30 5922 H 562.221 3.03937 -5.17438 0
M  V30 5923 H 563.291 1.79451 -4.50472 0
M  V30 5924 N 564.634 1.40294 0.718013 0
M  V30 5925 C 565.859 1.41941 1.5122 0
M  V30 5926 C 566.284 0.0202371 1.88089 0
M  V30 5927 O 565.642 -0.971078 1.53101 0
M  V30 5928 C 565.69 2.3141 2.76554 0
M  V30 5929 O 564.794 1.75567 3.73162 0
M  V30 5930 H 564.135 0.482644 0.456016 0
M  V30 5931 H 566.665 1.84494 0.884478 0
M  V30 5932 H 566.675 2.46513 3.25108 0
M  V30 5933 H 565.35 3.33085 2.49053 0
M  V30 5934 H 563.927 1.69798 3.31999 0
M  V30 5935 N 566.112 -0.949982 1.2575 0
M  V30 5936 C 567.337 -1.73503 1.13628 0
M  V30 5937 C 567.762 -1.85601 -0.30559 0
M  V30 5938 O 567.12 -1.33984 -1.22139 0
M  V30 5939 C 567.168 -3.1243 1.80055 0
M  V30 5940 O 566.272 -3.97916 1.08336 0
M  V30 5941 H 565.613 -0.532665 0.396439 0
M  V30 5942 H 568.143 -1.19043 1.66403 0
M  V30 5943 H 568.153 -3.62866 1.86527 0
M  V30 5944 H 566.828 -3.02941 2.84956 0
M  V30 5945 H 565.405 -3.56375 1.09777 0
M  V30 5946 N 567.59 -1.07411 -1.15328 0
M  V30 5947 C 568.5 -0.706438 -2.23711 0
M  V30 5948 C 569.516 0.282586 -1.7169 0
M  V30 5949 O 570.692 0.129066 -2.00986 0
M  V30 5950 C 567.757 -0.11048 -3.46524 0
M  V30 5951 C 566.818 -1.15282 -4.13532 0
M  V30 5952 C 566.051 -0.585205 -5.30482 0
M  V30 5953 O 566.274 0.598549 -5.67251 0
M  V30 5954 O 565.208 -1.33039 -5.87013 0
M  V30 5955 H 569.034 -1.61031 -2.57493 0
M  V30 5956 H 566.619 -0.847113 -1.23062 0
M  V30 5957 H 568.501 0.21957 -4.20828 0
M  V30 5958 H 567.176 0.766703 -3.14489 0
M  V30 5959 H 566.083 -1.53523 -3.41147 0
M  V30 5960 H 567.416 -2.00192 -4.49649 0
M  V30 5961 N 569.068 1.32177 -0.85831 0
M  V30 5962 C 570.308 1.98927 -0.469822 0
M  V30 5963 C 570.672 1.66423 0.95746 0
M  V30 5964 O 571.873 2.26293 1.45069 0
M  V30 5965 C 570.144 3.50352 -0.706288 0
M  V30 5966 S 571.703 4.36824 -0.415918 0
M  V30 5967 H 568.521 0.688909 -0.175855 0
M  V30 5968 H 571.123 1.60807 -1.11181 0
M  V30 5969 H 569.827 3.71497 -1.74407 0
M  V30 5970 H 569.358 3.93367 -0.0508568 0
M  V30 5971 H 571.373 4.90398 0.756581 0
M  V30 5972 N 570.547 0.616602 1.45037 0
M  V30 5973 C 571.824 0.0469086 1.95544 0
M  V30 5974 C 572.204 -1.42345 1.55888 0
M  V30 5975 O 571.552 -2.13055 0.825824 0
M  V30 5976 C 571.762 0.254489 3.48071 0
M  V30 5977 C 573.11 0.140025 4.24369 0
M  V30 5978 O 574.134 0.185084 3.55719 0
M  V30 5979 O 572.993 0.0327034 5.4649 0
M  V30 5980 H 570.087 -0.0306051 0.826433 0
M  V30 5981 H 572.633 0.687293 1.55159 0
M  V30 5982 H 571.405 1.27532 3.69934 0
M  V30 5983 H 571.028 -0.42073 3.95368 0
M  V30 5984 N 572.025 -1.5352 0.356285 0
M  V30 5985 C 573.274 -2.00298 -0.237373 0
M  V30 5986 C 573.587 -1.24784 -1.50627 0
M  V30 5987 O 574.793 -1.62103 -2.17795 0
M  V30 5988 C 573.249 -3.56771 -0.473545 0
M  V30 5989 C 572.857 -4.41154 0.780183 0
M  V30 5990 C 574.601 -4.1193 -1.02537 0
M  V30 5991 C 572.508 -5.89161 0.514108 0
M  V30 5992 H 571.438 -0.748307 -0.092478 0
M  V30 5993 H 574.089 -1.77283 0.473588 0
M  V30 5994 H 572.471 -3.75902 -1.24553 0
M  V30 5995 H 573.645 -4.33797 1.55425 0
M  V30 5996 H 571.96 -3.97052 1.25455 0
M  V30 5997 H 574.557 -5.20133 -1.2396 0
M  V30 5998 H 574.9 -3.65943 -1.98473 0
M  V30 5999 H 575.433 -3.96561 -0.313775 0
M  V30 6000 H 572.172 -6.39408 1.44355 0
M  V30 6001 H 571.692 -5.9939 -0.221632 0
M  V30 6002 H 573.371 -6.46857 0.136122 0
M  V30 6003 N 573.503 -0.0852151 -1.57369 0
M  V30 6004 C 574.75 0.580806 -1.93992 0
M  V30 6005 C 575.078 1.68801 -0.966252 0
M  V30 6006 O 574.333 1.95694 0.0158649 0
M  V30 6007 C 574.632 1.18482 -3.3719 0
M  V30 6008 C 574.298 0.2024 -4.50446 0
M  V30 6009 C 572.96 -0.0678318 -4.81152 0
M  V30 6010 C 575.312 -0.46895 -5.19086 0
M  V30 6011 C 572.64 -1.01627 -5.77831 0
M  V30 6012 C 574.992 -1.4058 -6.16782 0
M  V30 6013 C 573.656 -1.68436 -6.45899 0
M  V30 6014 H 572.926 0.212532 -0.709867 0
M  V30 6015 H 575.573 -0.158947 -1.90839 0
M  V30 6016 H 573.878 2.0006 -3.36873 0
M  V30 6017 H 575.575 1.70767 -3.62822 0
M  V30 6018 H 572.165 0.423208 -4.26505 0
M  V30 6019 H 576.349 -0.273307 -4.95547 0
M  V30 6020 H 571.605 -1.2392 -5.9871 0
M  V30 6021 H 575.779 -1.93188 -6.69068 0
M  V30 6022 H 573.406 -2.42088 -7.20623 0
M  V30 6023 N 574.981 1.5647 0.188427 0
M  V30 6024 C 576.258 1.71857 0.934058 0
M  V30 6025 C 576.638 0.641867 2.01105 0
M  V30 6026 O 575.986 -0.346098 2.25864 0
M  V30 6027 C 576.196 3.14431 1.5144 0
M  V30 6028 C 577.544 3.74869 1.99396 0
M  V30 6029 O 578.568 3.17601 1.61269 0
M  V30 6030 O 577.427 4.75387 2.69573 0
M  V30 6031 H 574.521 0.701186 0.438483 0
M  V30 6032 H 577.067 1.68768 0.177599 0
M  V30 6033 H 575.839 3.8427 0.738416 0
M  V30 6034 H 575.462 3.21775 2.33552 0
M  V30 6035 N 576.459 -0.456382 1.50847 0
M  V30 6036 C 577.87 -1.03685 1.55262 0
M  V30 6037 C 578.221 -1.92779 0.364771 0
M  V30 6038 O 577.346 -2.10043 -0.52068 0
M  V30 6039 C 577.941 -1.88718 2.81374 0
M  V30 6040 C 576.5 -2.41847 2.88422 0
M  V30 6041 C 575.647 -1.20564 2.49719 0
M  V30 6042 H 578.598 -0.238399 1.56899 0
M  V30 6043 H 578.619 -2.73957 2.6406 0
M  V30 6044 H 578.131 -1.23847 3.67809 0
M  V30 6045 H 576.232 -3.10228 2.06372 0
M  V30 6046 H 576.345 -2.75947 3.9165 0
M  V30 6047 H 574.709 -1.54504 2.02486 0
M  V30 6048 H 575.492 -0.573326 3.38479 0
M  V30 6049 N 577.937 -1.40673 -0.710563 0
M  V30 6050 C 578.847 -1.43663 -1.85467 0
M  V30 6051 C 579.863 -0.328721 -1.70867 0
M  V30 6052 O 581.039 -0.574098 -1.93044 0
M  V30 6053 C 578.104 -1.30226 -3.21313 0
M  V30 6054 C 577.165 -2.51204 -3.48131 0
M  V30 6055 C 576.398 -2.38398 -4.77495 0
M  V30 6056 O 576.621 -1.40048 -5.5294 0
M  V30 6057 O 575.555 -3.2787 -5.04762 0
M  V30 6058 H 579.381 -2.40156 -1.859 0
M  V30 6059 H 576.966 -1.22049 -0.861652 0
M  V30 6060 H 578.848 -1.2496 -4.02446 0
M  V30 6061 H 577.523 -0.368419 -3.21597 0
M  V30 6062 H 576.43 -2.62048 -2.66987 0
M  V30 6063 H 577.763 -3.43366 -3.52648 0
M  V30 6064 N 579.415 0.9433 -1.26252 0
M  V30 6065 C 580.347 2.04542 -1.03417 0
M  V30 6066 C 581.36 1.62799 0.0046911 0
M  V30 6067 O 582.549 1.76944 -0.235146 0
M  V30 6068 C 579.649 3.34511 -0.543671 0
M  V30 6069 C 578.822 4.05033 -1.65128 0
M  V30 6070 C 577.881 5.13273 -1.1592 0
M  V30 6071 O 576.907 5.38095 -1.85586 0
M  V30 6072 N 578.109 5.805 -0.00649279 0
M  V30 6073 H 580.874 2.24699 -1.98319 0
M  V30 6074 H 578.435 1.11264 -1.1761 0
M  V30 6075 H 580.427 4.04212 -0.198703 0
M  V30 6076 H 578.997 3.11042 0.311711 0
M  V30 6077 H 578.217 3.29275 -2.16729 0
M  V30 6078 H 579.505 4.48903 -2.39508 0
M  V30 6079 H 578.903 5.62767 0.575347 0
M  V30 6080 H 577.46 6.51201 0.279416 0
M  V30 6081 N 580.893 1.08022 1.14757 0
M  V30 6082 C 581.84 0.706657 2.19716 0
M  V30 6083 C 582.81 -0.30525 1.63271 0
M  V30 6084 O 583.995 -0.19015 1.8985 0
M  V30 6085 C 581.135 0.117914 3.44898 0
M  V30 6086 C 580.248 1.18212 4.15512 0
M  V30 6087 C 579.383 0.557659 5.28265 0
M  V30 6088 C 578.422 1.60418 5.90705 0
M  V30 6089 N 577.559 1.0018 6.94916 0
M  V30 6090 H 582.399 1.60603 2.51019 0
M  V30 6091 H 579.936 0.802664 1.23271 0
M  V30 6092 H 581.894 -0.241112 4.16503 0
M  V30 6093 H 580.524 -0.744788 3.1409 0
M  V30 6094 H 579.576 1.65863 3.42335 0
M  V30 6095 H 580.888 1.97533 4.5802 0
M  V30 6096 H 580.042 0.146654 6.06523 0
M  V30 6097 H 578.781 -0.267249 4.86967 0
M  V30 6098 H 577.786 2.02489 5.11154 0
M  V30 6099 H 579.011 2.43149 6.34078 0
M  V30 6100 H 576.957 0.197917 6.55701 0
M  V30 6101 H 576.874 1.73216 7.35889 0
M  V30 6102 H 578.142 0.616523 7.77058 0
M  V30 6103 N 582.371 -1.3172 0.865308 0
M  V30 6104 C 583.318 -2.2863 0.315736 0
M  V30 6105 C 584.288 -1.55524 -0.583213 0
M  V30 6106 O 585.473 -1.83694 -0.51585 0
M  V30 6107 C 582.613 -3.41735 -0.480773 0
M  V30 6108 C 581.726 -4.297 0.445167 0
M  V30 6109 C 580.861 -5.29944 -0.365012 0
M  V30 6110 C 579.9 -6.09554 0.557651 0
M  V30 6111 N 579.037 -7.01768 -0.215994 0
M  V30 6112 H 583.877 -2.75026 1.14736 0
M  V30 6113 H 581.414 -1.35302 0.577209 0
M  V30 6114 H 583.372 -4.06045 -0.958306 0
M  V30 6115 H 582.002 -2.96461 -1.27714 0
M  V30 6116 H 581.054 -3.65875 1.04113 0
M  V30 6117 H 582.366 -4.85295 1.15284 0
M  V30 6118 H 581.52 -5.99908 -0.905255 0
M  V30 6119 H 580.259 -4.74994 -1.106 0
M  V30 6120 H 579.264 -5.38485 1.10969 0
M  V30 6121 H 580.489 -6.66591 1.29742 0
M  V30 6122 H 578.435 -6.49232 -0.939878 0
M  V30 6123 H 578.352 -7.54762 0.432431 0
M  V30 6124 H 579.62 -7.76002 -0.737618 0
M  V30 6125 N 583.85 -0.624285 -1.44708 0
M  V30 6126 C 585.096 -0.126237 -2.02407 0
M  V30 6127 C 585.428 1.24618 -1.48943 0
M  V30 6128 O 584.704 1.82569 -0.670742 0
M  V30 6129 C 584.986 -0.105449 -3.59946 0
M  V30 6130 C 584.84 -1.50972 -4.23707 0
M  V30 6131 C 586.159 0.573629 -4.36346 0
M  V30 6132 H 583.278 -0.0473472 -0.735478 0
M  V30 6133 H 585.92 -0.799452 -1.72362 0
M  V30 6134 H 584.07 0.46783 -3.85673 0
M  V30 6135 H 585.742 -2.13136 -4.0911 0
M  V30 6136 H 583.985 -2.0656 -3.81465 0
M  V30 6137 H 584.656 -1.44727 -5.32689 0
M  V30 6138 H 587.132 0.0861787 -4.16011 0
M  V30 6139 H 586.008 0.557338 -5.46063 0
M  V30 6140 H 586.269 1.64276 -4.10446 0
M  V30 6141 N 585.328 1.53329 -0.364422 0
M  V30 6142 C 586.291 2.24323 0.470292 0
M  V30 6143 C 587.291 1.25068 1.01067 0
M  V30 6144 O 588.481 1.49354 0.896605 0
M  V30 6145 C 585.613 2.97908 1.65722 0
M  V30 6146 H 586.806 2.9952 -0.150917 0
M  V30 6147 H 584.359 1.55868 -0.116092 0
M  V30 6148 H 585.094 2.2695 2.31655 0
M  V30 6149 H 584.879 3.70732 1.27671 0
M  V30 6150 H 586.369 3.5188 2.24878 0
M  V30 6151 N 586.806 0.0935595 1.57322 0
M  V30 6152 C 587.738 -0.895923 2.10964 0
M  V30 6153 C 588.751 -1.24705 1.04654 0
M  V30 6154 O 589.94 -1.20044 1.32105 0
M  V30 6155 C 587.04 -2.20546 2.57318 0
M  V30 6156 C 586.213 -2.0299 3.87445 0
M  V30 6157 C 585.272 -3.17443 4.19662 0
M  V30 6158 O 584.298 -2.91474 4.88909 0
M  V30 6159 N 585.5 -4.43168 3.74943 0
M  V30 6160 H 588.265 -0.437788 2.96485 0
M  V30 6161 H 585.826 -0.0915863 1.61641 0
M  V30 6162 H 587.818 -2.9606 2.75917 0
M  V30 6163 H 586.388 -2.57789 1.76816 0
M  V30 6164 H 585.608 -1.11815 3.78009 0
M  V30 6165 H 586.896 -1.88535 4.7258 0
M  V30 6166 H 586.294 -4.67149 3.19043 0
M  V30 6167 H 584.851 -5.15637 3.987 0
M  V30 6168 N 588.284 -1.56567 -0.180126 0
M  V30 6169 C 589.561 -1.7235 -0.924931 0
M  V30 6170 C 589.941 -0.652523 -2.00762 0
M  V30 6171 O 589.289 0.334115 -2.26044 0
M  V30 6172 C 589.499 -3.1523 -1.49771 0
M  V30 6173 C 590.847 -3.75921 -1.97405 0
M  V30 6174 O 591.871 -3.18452 -1.59583 0
M  V30 6175 O 590.73 -4.7681 -2.67048 0
M  V30 6176 H 587.824 -0.703502 -0.434758 0
M  V30 6177 H 590.37 -1.6886 -0.168647 0
M  V30 6178 H 589.142 -3.84656 -0.718027 0
M  V30 6179 H 588.765 -3.23009 -2.31842 0
M  V30 6180 N 589.762 0.448376 -1.51087 0
M  V30 6181 C 590.695 1.56298 -1.66272 0
M  V30 6182 C 591.673 1.54381 -0.510419 0
M  V30 6183 O 592.857 1.73671 -0.732854 0
M  V30 6184 C 589.984 2.94883 -1.66618 0
M  V30 6185 C 589.03 3.14868 -2.87681 0
M  V30 6186 S 589.863 2.9234 -4.48662 0
M  V30 6187 C 591.019 4.33227 -4.51735 0
M  V30 6188 H 591.252 1.43182 -2.6055 0
M  V30 6189 H 588.785 0.637309 -1.40633 0
M  V30 6190 H 590.743 3.74771 -1.67502 0
M  V30 6191 H 589.404 3.05371 -0.735358 0
M  V30 6192 H 588.597 4.16166 -2.84292 0
M  V30 6193 H 588.199 2.42788 -2.84482 0
M  V30 6194 H 590.491 5.26247 -4.26697 0
M  V30 6195 H 591.434 4.41653 -5.53487 0
M  V30 6196 H 591.842 4.16367 -3.81181 0
M  V30 6197 N 591.24 1.41047 0.703093 0
M  V30 6198 C 592.468 1.4334 1.49202 0
M  V30 6199 C 592.883 0.0365596 1.88765 0
M  V30 6200 O 592.24 -0.942419 1.56284 0
M  V30 6201 C 592.291 2.33538 2.75939 0
M  V30 6202 O 592.012 3.67786 2.38045 0
M  V30 6203 C 593.513 2.44555 3.6974 0
M  V30 6204 H 590.733 0.488472 0.460039 0
M  V30 6205 H 593.277 1.85245 0.86629 0
M  V30 6206 H 591.432 1.94962 3.34766 0
M  V30 6207 H 591.846 4.15816 3.19683 0
M  V30 6208 H 593.32 3.11849 4.55471 0
M  V30 6209 H 593.797 1.47447 4.1371 0
M  V30 6210 H 594.403 2.83735 3.16819 0
M  V30 6211 N 592.718 -0.936591 1.26751 0
M  V30 6212 C 593.65 -2.03991 1.045 0
M  V30 6213 C 594.663 -1.628 0.00394261 0
M  V30 6214 O 595.852 -1.76817 0.244526 0
M  V30 6215 C 592.952 -3.34218 0.561403 0
M  V30 6216 C 592.125 -4.04151 1.67274 0
M  V30 6217 C 591.184 -5.12651 1.1864 0
M  V30 6218 O 590.21 -5.37104 1.88437 0
M  V30 6219 N 591.412 -5.80488 0.037278 0
M  V30 6220 H 594.177 -2.23644 1.99508 0
M  V30 6221 H 591.738 -1.10638 1.18198 0
M  V30 6222 H 593.73 -4.04101 0.220136 0
M  V30 6223 H 592.3 -3.11203 -0.295211 0
M  V30 6224 H 591.52 -3.28121 2.18472 0
M  V30 6225 H 592.808 -4.47626 2.41885 0
M  V30 6226 H 592.206 -5.63064 -0.545494 0
M  V30 6227 H 590.763 -6.5134 -0.244877 0
M  V30 6228 N 594.196 -1.08629 -1.14182 0
M  V30 6229 C 595.607 -0.838003 -1.66836 0
M  V30 6230 C 595.958 0.634885 -1.85644 0
M  V30 6231 O 595.083 1.49008 -1.56926 0
M  V30 6232 C 595.678 -1.51465 -3.03058 0
M  V30 6233 C 594.237 -1.31355 -3.52736 0
M  V30 6234 C 593.384 -1.57599 -2.28162 0
M  V30 6235 H 596.335 -1.24656 -0.982165 0
M  V30 6236 H 596.356 -0.943134 -3.68626 0
M  V30 6237 H 595.868 -2.58661 -2.89337 0
M  V30 6238 H 593.969 -0.262384 -3.71675 0
M  V30 6239 H 594.082 -2.04275 -4.33369 0
M  V30 6240 H 592.446 -0.997659 -2.34348 0
M  V30 6241 H 593.229 -2.66006 -2.17015 0
M  V30 6242 N 595.674 1.31259 -0.872281 0
M  V30 6243 C 596.604 2.30929 -0.345554 0
M  V30 6244 C 597.585 1.60449 0.5648 0
M  V30 6245 O 598.77 1.8814 0.481335 0
M  V30 6246 C 595.9 3.44348 0.451823 0
M  V30 6247 C 594.854 4.26435 -0.365641 0
M  V30 6248 C 594.18 5.31785 0.557562 0
M  V30 6249 C 595.48 4.97159 -1.60095 0
M  V30 6250 H 597.174 2.75234 -1.17841 0
M  V30 6251 H 594.72 1.3232 -0.568094 0
M  V30 6252 H 596.673 4.13128 0.830854 0
M  V30 6253 H 595.397 2.98816 1.31821 0
M  V30 6254 H 594.056 3.59326 -0.726649 0
M  V30 6255 H 593.704 4.82502 1.4213 0
M  V30 6256 H 593.404 5.87598 0.0144878 0
M  V30 6257 H 594.928 6.03424 0.933387 0
M  V30 6258 H 596.342 5.58523 -1.29323 0
M  V30 6259 H 594.739 5.62779 -2.08327 0
M  V30 6260 H 595.809 4.24012 -2.35249 0
M  V30 6261 N 597.152 0.631951 1.44375 0
M  V30 6262 C 598.377 0.142146 2.06912 0
M  V30 6263 C 598.802 -1.17456 1.4692 0
M  V30 6264 O 598.16 -1.72074 0.570975 0
M  V30 6265 C 598.208 0.0417952 3.60576 0
M  V30 6266 O 597.312 -1.00194 4.00044 0
M  V30 6267 H 596.653 0.0851491 0.658518 0
M  V30 6268 H 599.183 0.868863 1.85235 0
M  V30 6269 H 599.193 -0.148517 4.0773 0
M  V30 6270 H 597.868 1.0031 4.03622 0
M  V30 6271 H 596.445 -0.786131 3.64519 0
M  V30 6272 N 598.631 -1.53133 0.372548 0
M  V30 6273 C 599.581 -2.22733 -0.487218 0
M  V30 6274 C 600.565 -1.22506 -1.04312 0
M  V30 6275 O 601.757 -1.47923 -0.972005 0
M  V30 6276 C 598.886 -3.02524 -1.62278 0
M  V30 6277 C 597.972 -4.10133 -1.07943 0
M  V30 6278 N 598.363 -5.05133 -0.259629 0
M  V30 6279 C 596.661 -4.24964 -1.35356 0
M  V30 6280 C 597.362 -5.81687 0.0386656 0
M  V30 6281 N 596.338 -5.40699 -0.560827 0
M  V30 6282 H 600.14 -2.93538 0.145853 0
M  V30 6283 H 597.654 -1.61389 0.180938 0
M  V30 6284 H 599.651 -3.50909 -2.25096 0
M  V30 6285 H 598.311 -2.33252 -2.25884 0
M  V30 6286 H 599.322 -5.178 0.101746 0
M  V30 6287 H 595.999 -3.66919 -1.9919 0
M  V30 6288 H 597.389 -6.68224 0.701841 0
M  V30 6289 N 600.109 -0.101901 -1.5727 0
M  V30 6290 C 601.339 0.567568 -1.98651 0
M  V30 6291 C 601.747 1.61839 -0.980037 0
M  V30 6292 O 601.09 1.83661 0.0376564 0
M  V30 6293 C 601.152 1.26742 -3.36417 0
M  V30 6294 C 600.816 0.366561 -4.55528 0
M  V30 6295 C 601.813 -0.388022 -5.1845 0
M  V30 6296 C 599.498 0.282629 -5.01504 0
M  V30 6297 C 601.492 -1.21445 -6.25724 0
M  V30 6298 C 599.179 -0.547443 -6.08643 0
M  V30 6299 C 600.177 -1.29462 -6.70618 0
M  V30 6300 O 599.865 -2.11095 -7.7569 0
M  V30 6301 H 599.597 0.156282 -0.657687 0
M  V30 6302 H 602.151 -0.179912 -2.04611 0
M  V30 6303 H 600.381 2.06162 -3.27161 0
M  V30 6304 H 602.07 1.8321 -3.622 0
M  V30 6305 H 602.836 -0.332949 -4.83856 0
M  V30 6306 H 598.715 0.853868 -4.53023 0
M  V30 6307 H 602.259 -1.79814 -6.74027 0
M  V30 6308 H 598.156 -0.603971 -6.42668 0
M  V30 6309 H 598.924 -2.03851 -7.92709 0
M  V30 6310 N 601.587 1.56661 0.17182 0
M  V30 6311 C 602.817 1.85831 0.902804 0
M  V30 6312 C 603.225 0.685157 1.76358 0
M  V30 6313 O 602.568 -0.354947 1.80238 0
M  V30 6314 C 602.63 3.09406 1.83053 0
M  V30 6315 C 602.294 4.4231 1.1494 0
M  V30 6316 C 603.291 5.17342 0.515104 0
M  V30 6317 C 600.976 4.89045 1.14631 0
M  V30 6318 C 602.97 6.37299 -0.113194 0
M  V30 6319 C 600.657 6.08933 0.514184 0
M  V30 6320 C 601.655 6.82904 -0.114463 0
M  V30 6321 O 601.343 8.00518 -0.736622 0
M  V30 6322 H 601.075 0.620715 0.267748 0
M  V30 6323 H 603.629 2.04637 0.176918 0
M  V30 6324 H 601.859 2.86544 2.59672 0
M  V30 6325 H 603.548 3.25027 2.4313 0
M  V30 6326 H 604.314 4.82317 0.509474 0
M  V30 6327 H 600.193 4.31409 1.62502 0
M  V30 6328 H 603.737 6.94976 -0.604477 0
M  V30 6329 H 599.634 6.43423 0.517395 0
M  V30 6330 H 600.402 8.16027 -0.635822 0
M  V30 6331 N 603.065 -0.440357 1.51323 0
M  V30 6332 C 604.314 -1.18697 1.63076 0
M  V30 6333 C 604.627 -1.92418 0.35136 0
M  V30 6334 O 605.833 -2.69258 0.348221 0
M  V30 6335 C 604.289 -2.15849 2.87988 0
M  V30 6336 C 603.897 -1.47789 4.22921 0
M  V30 6337 C 605.641 -2.90962 3.09098 0
M  V30 6338 C 603.548 -2.43407 5.38987 0
M  V30 6339 H 602.478 -0.44676 0.607389 0
M  V30 6340 H 605.129 -0.454313 1.77787 0
M  V30 6341 H 603.511 -2.92537 2.66905 0
M  V30 6342 H 604.685 -0.7668 4.54375 0
M  V30 6343 H 603 -0.848404 4.07665 0
M  V30 6344 H 605.597 -3.62584 3.92985 0
M  V30 6345 H 605.94 -3.52133 2.22053 0
M  V30 6346 H 606.473 -2.21381 3.30507 0
M  V30 6347 H 603.212 -1.86929 6.28282 0
M  V30 6348 H 602.732 -3.12579 5.11913 0
M  V30 6349 H 604.411 -3.046 5.70813 0
M  V30 6350 N 604.543 -1.41418 -0.695603 0
M  V30 6351 C 605.491 -1.43467 -1.83084 0
M  V30 6352 C 606.485 -0.312719 -1.66489 0
M  V30 6353 O 607.691 -0.484744 -1.7335 0
M  V30 6354 H 604.066 -0.448891 -0.603325 0
M  V30 6355 H 606.037 -2.39144 -1.78473 0
M  V30 6356 C 604.786 -1.3337 -3.21104 0
M  V30 6357 H 604.109 -2.18989 -3.3449 0
M  V30 6358 H 605.549 -1.38865 -4.00615 0
M  V30 6359 C 604.008 -0.0460484 -3.36869 0
M  V30 6360 O 604.538 0.909258 -3.91274 0
M  V30 6361 N 602.744 0.0300222 -2.90584 0
M  V30 6362 H 602.291 -0.748129 -2.46497 0
M  V30 6363 H 602.249 0.890991 -3.01511 0
M  V30 6364 N 606.021 0.929856 -1.27246 0
M  V30 6365 C 606.984 2.01172 -1.09829 0
M  V30 6366 C 607.984 1.60743 -0.0429687 0
M  V30 6367 O 609.174 1.71813 -0.287373 0
M  V30 6368 C 606.306 3.34191 -0.673003 0
M  V30 6369 H 607.499 2.18054 -2.05895 0
M  V30 6370 H 605.052 1.11036 -1.10003 0
M  V30 6371 H 605.787 3.23009 0.289134 0
M  V30 6372 H 605.572 3.64892 -1.43515 0
M  V30 6373 H 607.062 4.13646 -0.573323 0
M  V30 6374 N 607.499 1.09233 1.13605 0
M  V30 6375 C 608.724 0.849067 1.89224 0
M  V30 6376 C 609.149 -0.593875 1.78479 0
M  V30 6377 O 608.507 -1.41703 1.13092 0
M  V30 6378 C 608.555 1.28642 3.36873 0
M  V30 6379 O 607.659 0.44363 4.10007 0
M  V30 6380 H 607 0.30767 0.588417 0
M  V30 6381 H 609.53 1.45595 1.43748 0
M  V30 6382 H 609.54 1.27096 3.87699 0
M  V30 6383 H 608.215 2.33729 3.44011 0
M  V30 6384 H 606.792 0.523241 3.69211 0
M  V30 6385 N 608.977 -1.30795 0.87923 0
M  V30 6386 C 609.927 -2.25838 0.313276 0
M  V30 6387 C 610.911 -1.51025 -0.55499 0
M  V30 6388 O 612.103 -1.72413 -0.400353 0
M  V30 6389 C 609.232 -3.39981 -0.476204 0
M  V30 6390 C 608.318 -4.22154 0.405826 0
M  V30 6391 N 608.709 -4.82934 1.50362 0
M  V30 6392 C 607.007 -4.45552 0.199909 0
M  V30 6393 C 607.708 -5.44444 2.0483 0
M  V30 6394 N 606.684 -5.26723 1.34403 0
M  V30 6395 H 610.486 -2.70374 1.15218 0
M  V30 6396 H 608 -1.45168 0.728003 0
M  V30 6397 H 609.997 -4.07108 -0.898251 0
M  V30 6398 H 608.657 -2.96986 -1.31261 0
M  V30 6399 H 609.668 -4.82319 1.8865 0
M  V30 6400 H 606.345 -4.13169 -0.599795 0
M  V30 6401 H 607.735 -6.02701 2.96986 0
M  V30 6402 N 610.455 -0.639598 -1.44038 0
M  V30 6403 C 611.403 0.0723409 -2.32487 0
M  V30 6404 C 612.397 0.827129 -1.47834 0
M  V30 6405 O 613.603 0.73907 -1.64127 0
M  V30 6406 H 609.978 0.0421696 -0.750817 0
M  V30 6407 H 611.949 -0.691593 -2.90275 0
M  V30 6408 C 610.698 1.03452 -3.31953 0
M  V30 6409 H 610.021 0.46315 -3.97108 0
M  V30 6410 H 611.461 1.502 -3.96505 0
M  V30 6411 C 609.92 2.12392 -2.61518 0
M  V30 6412 O 610.45 3.2059 -2.42044 0
M  V30 6413 N 608.656 1.88563 -2.21116 0
M  V30 6414 H 608.203 1.00577 -2.37154 0
M  V30 6415 H 608.161 2.61651 -1.74316 0
M  V30 6416 N 611.933 1.52934 -0.380664 0
M  V30 6417 C 613.161 2.05886 0.204599 0
M  V30 6418 C 613.576 1.25305 1.41223 0
M  V30 6419 O 612.933 0.297504 1.80059 0
M  V30 6420 C 612.984 3.56764 0.583249 0
M  V30 6421 O 612.705 4.34292 -0.576398 0
M  V30 6422 C 614.206 4.2603 1.2253 0
M  V30 6423 H 611.426 0.670193 0.0328991 0
M  V30 6424 H 613.97 1.97148 -0.543397 0
M  V30 6425 H 612.125 3.65603 1.28115 0
M  V30 6426 H 612.539 5.23819 -0.267119 0
M  V30 6427 H 614.013 5.32868 1.44068 0
M  V30 6428 H 614.49 3.80698 2.19011 0
M  V30 6429 H 615.096 4.21485 0.568407 0
M  V30 6430 N 613.412 0.11024 1.57214 0
M  V30 6431 C 614.642 -0.557025 1.98949 0
M  V30 6432 C 615.05 -1.61317 0.988606 0
M  V30 6433 O 614.393 -1.83679 -0.0279159 0
M  V30 6434 C 614.455 -1.24956 3.37085 0
M  V30 6435 C 614.119 -0.342398 4.55716 0
M  V30 6436 C 615.116 0.415511 5.18237 0
M  V30 6437 C 612.801 -0.256029 5.01647 0
M  V30 6438 C 614.795 1.24761 6.25071 0
M  V30 6439 C 612.482 0.579713 6.08344 0
M  V30 6440 C 613.48 1.33017 6.69922 0
M  V30 6441 O 613.168 2.15205 7.74559 0
M  V30 6442 H 612.9 -0.152792 0.658506 0
M  V30 6443 H 615.454 0.19076 2.04512 0
M  V30 6444 H 613.684 -2.04424 3.2825 0
M  V30 6445 H 615.373 -1.81286 3.63167 0
M  V30 6446 H 616.139 0.358605 4.83672 0
M  V30 6447 H 612.018 -0.829831 4.5347 0
M  V30 6448 H 615.562 1.83386 6.73064 0
M  V30 6449 H 611.459 0.638044 6.42339 0
M  V30 6450 H 612.227 2.08052 7.91617 0
M  V30 6451 N 614.89 -1.56749 -0.16351 0
M  V30 6452 C 615.82 -2.00042 -1.20438 0
M  V30 6453 C 616.801 -0.877256 -1.45733 0
M  V30 6454 O 617.986 -1.1439 -1.56935 0
M  V30 6455 C 615.116 -2.36697 -2.54149 0
M  V30 6456 C 614.07 -3.52046 -2.43408 0
M  V30 6457 C 613.396 -3.74466 -3.81679 0
M  V30 6458 C 614.696 -4.85247 -1.93216 0
M  V30 6459 H 616.39 -2.87244 -0.844477 0
M  V30 6460 H 613.936 -1.38194 -0.40478 0
M  V30 6461 H 615.889 -2.65582 -3.27176 0
M  V30 6462 H 614.613 -1.46414 -2.91943 0
M  V30 6463 H 613.272 -3.23301 -1.72834 0
M  V30 6464 H 612.92 -2.81461 -4.1688 0
M  V30 6465 H 612.62 -4.52084 -3.75359 0
M  V30 6466 H 614.144 -4.0576 -4.5628 0
M  V30 6467 H 615.558 -5.12957 -2.56023 0
M  V30 6468 H 613.955 -5.66556 -1.97825 0
M  V30 6469 H 615.025 -4.7672 -0.88689 0
M  V30 6470 N 616.368 0.432326 -1.51554 0
M  V30 6471 C 617.617 1.17831 -1.63703 0
M  V30 6472 C 617.93 1.92229 -0.36156 0
M  V30 6473 O 619.136 2.69069 -0.362495 0
M  V30 6474 C 617.592 2.14318 -2.89129 0
M  V30 6475 C 617.2 1.45544 -4.23699 0
M  V30 6476 C 618.944 2.89319 -3.10636 0
M  V30 6477 C 616.851 2.40545 -5.4027 0
M  V30 6478 H 615.781 0.443533 -0.60975 0
M  V30 6479 H 618.432 0.444878 -1.78026 0
M  V30 6480 H 616.814 2.91117 -2.68452 0
M  V30 6481 H 617.988 0.742693 -4.54775 0
M  V30 6482 H 616.303 0.826772 -4.0811 0
M  V30 6483 H 618.9 3.60495 -3.94902 0
M  V30 6484 H 619.243 3.50951 -2.23918 0
M  V30 6485 H 619.776 2.19625 -3.31677 0
M  V30 6486 H 616.515 1.83594 -6.29264 0
M  V30 6487 H 616.035 3.09859 -5.13563 0
M  V30 6488 H 617.714 3.01569 -5.72421 0
M  V30 6489 N 617.846 1.41785 0.688094 0
M  V30 6490 C 618.756 1.46596 1.83158 0
M  V30 6491 C 619.772 0.355862 1.70322 0
M  V30 6492 O 620.948 0.604737 1.92106 0
M  V30 6493 C 618.013 1.35322 3.192 0
M  V30 6494 C 617.074 2.56711 3.4409 0
M  V30 6495 C 616.307 2.45965 4.73642 0
M  V30 6496 O 616.53 1.48827 5.50642 0
M  V30 6497 O 615.464 3.35859 4.99482 0
M  V30 6498 H 619.29 2.43083 1.82056 0
M  V30 6499 H 616.875 1.23404 0.842126 0
M  V30 6500 H 618.757 1.31347 4.00407 0
M  V30 6501 H 617.432 0.419536 3.2097 0
M  V30 6502 H 616.339 2.66262 2.62784 0
M  V30 6503 H 617.672 3.48933 3.47141 0
M  V30 6504 N 619.324 -0.923095 1.27737 0
M  V30 6505 C 620.601 -1.64989 1.05062 0
M  V30 6506 C 620.981 -2.07018 -0.413124 0
M  V30 6507 O 620.329 -1.80797 -1.39731 0
M  V30 6508 C 620.539 -2.84847 2.01652 0
M  V30 6509 C 621.887 -3.56083 2.31279 0
M  V30 6510 O 622.911 -2.94981 1.99662 0
M  V30 6511 O 621.77 -4.66182 2.85196 0
M  V30 6512 H 618.864 -0.723357 0.400853 0
M  V30 6513 H 621.41 -0.973224 1.3902 0
M  V30 6514 H 620.182 -2.50814 3.00347 0
M  V30 6515 H 619.805 -3.60231 1.68284 0
M  V30 6516 N 620.802 -1.09834 -1.13024 0
M  V30 6517 C 621.734 -0.699379 -2.18269 0
M  V30 6518 C 622.747 0.260841 -1.60697 0
M  V30 6519 O 623.936 0.0462538 -1.7844 0
M  V30 6520 C 621.036 -0.0104537 -3.38898 0
M  V30 6521 C 620.209 -0.993275 -4.25973 0
M  V30 6522 C 619.268 -0.336982 -5.2512 0
M  V30 6523 O 618.294 -0.985892 -5.60597 0
M  V30 6524 N 619.496 0.90716 -5.73368 0
M  V30 6525 H 622.261 -1.60486 -2.5311 0
M  V30 6526 H 619.822 -0.986337 -1.28386 0
M  V30 6527 H 621.814 0.43991 -4.02302 0
M  V30 6528 H 620.384 0.797335 -3.0226 0
M  V30 6529 H 619.604 -1.62208 -3.5928 0
M  V30 6530 H 620.892 -1.65876 -4.81002 0
M  V30 6531 H 620.29 1.45384 -5.46699 0
M  V30 6532 H 618.847 1.30077 -6.38689 0
M  V30 6533 N 622.28 1.30327 -0.886154 0
M  V30 6534 C 623.527 1.96097 -0.505192 0
M  V30 6535 C 623.855 1.69952 0.945868 0
M  V30 6536 O 623.11 0.997653 1.68361 0
M  V30 6537 C 623.409 3.49906 -0.728042 0
M  V30 6538 C 623.075 3.96103 -2.15437 0
M  V30 6539 C 621.737 4.08428 -2.5444 0
M  V30 6540 C 624.089 4.20177 -3.08384 0
M  V30 6541 C 621.417 4.42189 -3.85598 0
M  V30 6542 C 623.769 4.55407 -4.39075 0
M  V30 6543 C 622.433 4.65941 -4.7797 0
M  V30 6544 H 621.703 0.71757 -0.184863 0
M  V30 6545 H 624.35 1.55171 -1.12223 0
M  V30 6546 H 622.655 3.9179 -0.027978 0
M  V30 6547 H 624.352 3.98869 -0.412862 0
M  V30 6548 H 620.942 3.87017 -1.84162 0
M  V30 6549 H 625.126 4.10134 -2.7947 0
M  V30 6550 H 620.382 4.48544 -4.15473 0
M  V30 6551 H 624.556 4.72986 -5.11133 0
M  V30 6552 H 622.183 4.91856 -5.79639 0
M  V30 6553 N 623.758 0.647228 1.43697 0
M  V30 6554 C 625.174 0.314256 1.56476 0
M  V30 6555 C 625.374 -1.18191 1.63196 0
M  V30 6556 O 624.43 -1.96655 1.58376 0
M  V30 6557 C 625.743 1.02034 2.82859 0
M  V30 6558 C 627.291 1.00002 2.96595 0
M  V30 6559 C 627.766 1.68689 4.25803 0
M  V30 6560 N 629.257 1.65424 4.32654 0
M  V30 6561 C 629.992 2.1545 5.31384 0
M  V30 6562 N 629.488 2.73738 6.36427 0
M  V30 6563 N 631.281 2.05985 5.22998 0
M  V30 6564 H 623.432 1.61821 1.37578 0
M  V30 6565 H 625.695 0.680184 0.660344 0
M  V30 6566 H 625.401 2.07542 2.83935 0
M  V30 6567 H 625.275 0.568146 3.72897 0
M  V30 6568 H 627.662 -0.0466319 2.95063 0
M  V30 6569 H 627.743 1.49086 2.07863 0
M  V30 6570 H 627.387 2.73308 4.28095 0
M  V30 6571 H 627.317 1.17076 5.13421 0
M  V30 6572 H 629.808 1.22884 3.57363 0
M  V30 6573 H 630.121 3.09602 7.08072 0
M  V30 6574 H 628.466 2.77796 6.37067 0
M  V30 6575 H 631.657 1.60157 4.39849 0
M  V30 6576 H 631.83 2.45281 5.99784 0
M  V30 6577 N 625.236 -1.5273 0.388769 0
M  V30 6578 C 626.484 -2.01174 -0.193208 0
M  V30 6579 C 626.805 -1.27705 -1.47365 0
M  V30 6580 O 626.075 -0.396966 -1.91836 0
M  V30 6581 H 624.655 -0.743287 -0.0743871 0
M  V30 6582 H 627.317 -1.87826 0.520336 0
M  V30 6583 H 626.413 -3.09477 -0.403803 0
M  V30 6584 N 626.714 -0.118576 -1.57153 0
M  V30 6585 C 628.125 0.40687 -1.82213 0
M  V30 6586 C 628.476 1.66636 -1.03571 0
M  V30 6587 O 627.601 2.14682 -0.272171 0
M  V30 6588 C 628.196 0.744949 -3.30509 0
M  V30 6589 C 626.755 1.21503 -3.5625 0
M  V30 6590 C 625.902 0.223511 -2.76398 0
M  V30 6591 H 628.853 -0.343712 -1.54933 0
M  V30 6592 H 628.874 1.6024 -3.45114 0
M  V30 6593 H 628.386 -0.171911 -3.87719 0
M  V30 6594 H 626.487 2.1488 -3.04396 0
M  V30 6595 H 626.6 1.16065 -4.64829 0
M  V30 6596 H 624.964 0.71046 -2.44591 0
M  V30 6597 H 625.747 -0.686439 -3.36367 0
M  V30 6598 N 628.193 1.56834 0.155195 0
M  V30 6599 C 629.156 1.96748 1.17571 0
M  V30 6600 C 630.156 0.853006 1.3631 0
M  V30 6601 O 631.346 1.11978 1.33441 0
M  V30 6602 C 628.478 2.27631 2.53765 0
M  V30 6603 H 629.671 2.88085 0.833498 0
M  V30 6604 H 627.224 1.51141 0.398242 0
M  V30 6605 H 627.959 1.39059 2.92973 0
M  V30 6606 H 627.744 3.0888 2.41527 0
M  V30 6607 H 629.234 2.59377 3.27282 0
M  V30 6608 N 629.671 -0.424282 1.51781 0
M  V30 6609 C 630.948 -1.18464 1.55646 0
M  V30 6610 C 631.328 -2.08529 0.328438 0
M  V30 6611 O 630.676 -2.17969 -0.685693 0
M  V30 6612 C 630.886 -1.97514 2.87731 0
M  V30 6613 C 632.234 -2.54106 3.40169 0
M  V30 6614 O 633.258 -2.07711 2.89369 0
M  V30 6615 O 632.117 -3.38759 4.28841 0
M  V30 6616 H 629.211 -0.540055 0.626314 0
M  V30 6617 H 631.757 -0.432291 1.64102 0
M  V30 6618 H 630.529 -1.31444 3.68562 0
M  V30 6619 H 630.152 -2.79787 2.82498 0
M  V30 6620 N 631.149 -1.42148 -0.680565 0
M  V30 6621 C 632.398 -1.41604 -1.43636 0
M  V30 6622 C 632.711 -0.0337887 -1.95571 0
M  V30 6623 O 633.917 0.0942588 -2.71336 0
M  V30 6624 C 632.373 -2.49056 -2.59806 0
M  V30 6625 C 631.981 -3.9326 -2.14594 0
M  V30 6626 C 633.725 -2.5767 -3.37352 0
M  V30 6627 C 631.632 -4.92232 -3.27813 0
M  V30 6628 H 630.562 -0.526656 -0.539583 0
M  V30 6629 H 633.213 -1.68033 -0.737369 0
M  V30 6630 H 631.595 -2.15782 -3.32045 0
M  V30 6631 H 632.769 -4.35858 -1.49546 0
M  V30 6632 H 631.084 -3.88443 -1.50002 0
M  V30 6633 H 633.681 -3.28794 -4.21662 0
M  V30 6634 H 634.024 -1.61837 -3.83555 0
M  V30 6635 H 634.557 -2.90109 -2.72179 0
M  V30 6636 H 631.296 -5.89522 -2.86607 0
M  V30 6637 H 630.816 -4.5427 -3.91661 0
M  V30 6638 H 632.495 -5.13684 -3.93367 0
M  V30 6639 N 632.627 0.916307 -1.28225 0
M  V30 6640 C 633.575 2.03977 -1.11786 0
M  V30 6641 C 634.569 1.69358 -0.0378265 0
M  V30 6642 O 635.775 1.78925 -0.196405 0
M  V30 6643 H 632.15 0.66829 -0.344809 0
M  V30 6644 H 634.121 2.14985 -2.06939 0
M  V30 6645 C 632.87 3.38518 -0.7938 0
M  V30 6646 H 632.193 3.65649 -1.61682 0
M  V30 6647 H 633.633 4.17864 -0.718719 0
M  V30 6648 C 632.092 3.33134 0.502353 0
M  V30 6649 O 632.622 3.71281 1.53341 0
M  V30 6650 N 630.828 2.86229 0.502147 0
M  V30 6651 H 630.375 2.55382 -0.337338 0
M  V30 6652 H 630.333 2.83009 1.36942 0
M  V30 6653 N 634.105 1.10431 1.1244 0
M  V30 6654 C 635.353 0.845045 1.83585 0
M  V30 6655 C 635.674 -0.631168 1.84503 0
M  V30 6656 O 634.944 -1.45825 1.30813 0
M  V30 6657 H 633.524 0.309628 0.679809 0
M  V30 6658 H 636.186 1.39458 1.36153 0
M  V30 6659 H 635.282 1.20786 2.8778 0
M  V30 6660 N 635.583 -1.29855 0.893053 0
M  V30 6661 C 636.813 -1.99686 0.530019 0
M  V30 6662 C 637.221 -1.67066 -0.888012 0
M  V30 6663 O 636.564 -0.908366 -1.5967 0
M  V30 6664 C 636.626 -3.53855 0.63457 0
M  V30 6665 C 636.29 -4.10013 2.01837 0
M  V30 6666 C 637.287 -4.25406 2.98874 0
M  V30 6667 C 634.972 -4.45202 2.32595 0
M  V30 6668 C 636.966 -4.7521 4.24799 0
M  V30 6669 C 634.653 -4.94704 3.58763 0
M  V30 6670 C 635.651 -5.09662 4.5468 0
M  V30 6671 O 635.339 -5.58093 5.78608 0
M  V30 6672 H 635.071 -0.644913 0.20264 0
M  V30 6673 H 637.625 -1.66518 1.20253 0
M  V30 6674 H 635.855 -3.86583 -0.0949477 0
M  V30 6675 H 637.544 -4.04922 0.281648 0
M  V30 6676 H 638.31 -3.98515 2.76425 0
M  V30 6677 H 634.189 -4.32822 1.58701 0
M  V30 6678 H 637.733 -4.86801 4.99671 0
M  V30 6679 H 633.63 -5.21032 3.81046 0
M  V30 6680 H 634.398 -5.7642 5.81104 0
M  V30 6681 N 637.061 -0.65484 -1.43351 0
M  V30 6682 C 638.31 -0.166215 -2.01014 0
M  V30 6683 C 638.623 1.22764 -1.52278 0
M  V30 6684 O 639.829 1.81156 -2.02224 0
M  V30 6685 C 638.285 -0.246341 -3.59056 0
M  V30 6686 C 637.893 -1.64299 -4.16785 0
M  V30 6687 C 639.637 0.184597 -4.24098 0
M  V30 6688 C 637.544 -1.67695 -5.67126 0
M  V30 6689 H 636.474 -0.0583769 -0.751737 0
M  V30 6690 H 639.125 -0.817111 -1.64303 0
M  V30 6691 H 637.507 0.472092 -3.93176 0
M  V30 6692 H 638.681 -2.3869 -3.94162 0
M  V30 6693 H 636.996 -2.02004 -3.6412 0
M  V30 6694 H 639.593 0.179088 -5.344 0
M  V30 6695 H 639.936 1.21632 -3.98135 0
M  V30 6696 H 640.469 -0.482141 -3.94867 0
M  V30 6697 H 637.208 -2.68783 -5.9786 0
M  V30 6698 H 636.728 -0.976313 -5.91801 0
M  V30 6699 H 638.407 -1.42142 -6.31193 0
M  V30 6700 N 638.539 1.52521 -0.396863 0
M  V30 6701 C 639.955 1.5953 -0.0471659 0
M  V30 6702 C 640.155 1.41044 1.43906 0
M  V30 6703 O 639.211 1.23122 2.20448 0
M  V30 6704 C 640.524 2.95972 -0.531113 0
M  V30 6705 C 642.072 3.09172 -0.488024 0
M  V30 6706 C 642.547 4.48075 -0.948281 0
M  V30 6707 N 644.038 4.54281 -0.9046 0
M  V30 6708 C 644.773 5.60007 -1.23205 0
M  V30 6709 N 644.269 6.73343 -1.63036 0
M  V30 6710 N 646.062 5.50151 -1.15282 0
M  V30 6711 H 638.213 1.62786 -1.36435 0
M  V30 6712 H 640.476 0.76514 -0.559701 0
M  V30 6713 H 640.182 3.14741 -1.56942 0
M  V30 6714 H 640.056 3.77143 0.0657922 0
M  V30 6715 H 642.443 2.90095 0.541211 0
M  V30 6716 H 642.524 2.29937 -1.12083 0
M  V30 6717 H 642.168 4.67894 -1.97578 0
M  V30 6718 H 642.098 5.25788 -0.292412 0
M  V30 6719 H 644.589 3.72918 -0.6116 0
M  V30 6720 H 644.902 7.49992 -1.86365 0
M  V30 6721 H 643.247 6.74655 -1.66929 0
M  V30 6722 H 646.438 4.6049 -0.840602 0
M  V30 6723 H 646.611 6.32444 -1.41133 0
M  V30 6724 N 640.017 0.126909 1.57088 0
M  V30 6725 C 640.98 -0.806097 2.14557 0
M  V30 6726 C 641.98 -1.18918 1.08236 0
M  V30 6727 O 643.17 -1.11339 1.33975 0
M  V30 6728 C 640.302 -2.09116 2.69227 0
M  V30 6729 H 641.495 -0.306522 2.98329 0
M  V30 6730 H 639.048 -0.122393 1.5582 0
M  V30 6731 H 639.783 -2.63486 1.89065 0
M  V30 6732 H 639.568 -1.82588 3.46993 0
M  V30 6733 H 641.058 -2.75794 3.13572 0
M  V30 6734 N 641.495 -1.56914 -0.146875 0
M  V30 6735 C 642.425 -2.01308 -1.1831 0
M  V30 6736 C 643.406 -0.892664 -1.44795 0
M  V30 6737 O 644.591 -1.16048 -1.55713 0
M  V30 6738 C 641.721 -2.3938 -2.51624 0
M  V30 6739 C 640.675 -3.54608 -2.3966 0
M  V30 6740 C 640.001 -3.78493 -3.77686 0
M  V30 6741 C 641.301 -4.87269 -1.88058 0
M  V30 6742 H 642.995 -2.88123 -0.813964 0
M  V30 6743 H 640.541 -1.38615 -0.3901 0
M  V30 6744 H 642.494 -2.69037 -3.24341 0
M  V30 6745 H 641.218 -1.49502 -2.90373 0
M  V30 6746 H 639.877 -3.25116 -1.69396 0
M  V30 6747 H 639.525 -2.85866 -4.13871 0
M  V30 6748 H 639.225 -4.56039 -3.70543 0
M  V30 6749 H 640.749 -4.10576 -4.51951 0
M  V30 6750 H 642.163 -5.15644 -2.50568 0
M  V30 6751 H 640.56 -5.68622 -1.91805 0
M  V30 6752 H 641.63 -4.77634 -0.836277 0
M  V30 6753 N 642.974 0.416227 -1.52004 0
M  V30 6754 C 643.921 1.50666 -1.74838 0
M  V30 6755 C 644.891 1.55245 -0.590599 0
M  V30 6756 O 646.076 1.71928 -0.827374 0
M  V30 6757 C 643.216 2.88185 -1.89851 0
M  V30 6758 C 642.329 2.92971 -3.17478 0
M  V30 6759 C 641.464 4.21745 -3.22962 0
M  V30 6760 C 640.503 4.20478 -4.4482 0
M  V30 6761 N 639.64 5.40811 -4.47736 0
M  V30 6762 H 644.48 1.30498 -2.67907 0
M  V30 6763 H 642.017 0.633568 -1.32757 0
M  V30 6764 H 643.975 3.68007 -1.96537 0
M  V30 6765 H 642.605 3.06865 -1.00169 0
M  V30 6766 H 641.657 2.05684 -3.19997 0
M  V30 6767 H 642.969 2.87899 -4.07328 0
M  V30 6768 H 642.123 5.09954 -3.28682 0
M  V30 6769 H 640.862 4.29503 -2.31038 0
M  V30 6770 H 639.867 3.30659 -4.39254 0
M  V30 6771 H 641.092 4.14366 -5.38031 0
M  V30 6772 H 639.038 5.4925 -3.58692 0
M  V30 6773 H 638.955 5.37705 -5.31422 0
M  V30 6774 H 640.223 6.30993 -4.57676 0
M  V30 6775 N 644.452 1.42507 0.673017 0
M  V30 6776 C 645.385 1.40557 1.79774 0
M  V30 6777 C 646.363 0.269606 1.60349 0
M  V30 6778 O 647.547 0.460105 1.82798 0
M  V30 6779 C 644.674 1.19815 3.168 0
M  V30 6780 C 643.72 2.36429 3.5497 0
M  V30 6781 S 644.553 3.98963 3.57196 0
M  V30 6782 C 645.709 3.80567 4.9691 0
M  V30 6783 H 645.942 2.35734 1.81154 0
M  V30 6784 H 643.475 1.293 0.843846 0
M  V30 6785 H 645.433 1.08535 3.95892 0
M  V30 6786 H 644.094 0.262215 3.13004 0
M  V30 6787 H 643.287 2.17669 4.54573 0
M  V30 6788 H 642.889 2.44233 2.83242 0
M  V30 6789 H 645.181 3.41668 5.85038 0
M  V30 6790 H 646.124 4.79852 5.20718 0
M  V30 6791 H 646.532 3.13399 4.69512 0
M  V30 6792 N 645.93 -0.909495 1.28709 0
M  V30 6793 C 647.178 -1.65577 1.15882 0
M  V30 6794 C 647.499 -1.928 -0.292108 0
M  V30 6795 O 646.769 -1.54716 -1.20166 0
M  V30 6796 H 645.349 -0.613714 0.425869 0
M  V30 6797 H 648.011 -1.09108 1.61498 0
M  V30 6798 H 647.107 -2.61634 1.70159 0
M  V30 6799 N 647.408 -1.11026 -1.11852 0
M  V30 6800 C 648.648 -0.866348 -1.85132 0
M  V30 6801 C 649.012 0.597236 -1.82475 0
M  V30 6802 O 650.213 0.957744 -2.51159 0
M  V30 6803 C 648.484 -1.40721 -3.28531 0
M  V30 6804 S 650.043 -1.29964 -4.19112 0
M  V30 6805 H 646.861 -0.312899 -0.638447 0
M  V30 6806 H 649.463 -1.41691 -1.34699 0
M  V30 6807 H 648.167 -2.46631 -3.28027 0
M  V30 6808 H 647.698 -0.85349 -3.8403 0
M  V30 6809 H 649.713 -0.261333 -4.95511 0
M  V30 6810 N 648.886 1.2938 -0.899927 0
M  V30 6811 C 650.302 1.48052 -0.596059 0
M  V30 6812 C 650.502 1.82114 0.862372 0
M  V30 6813 O 649.558 1.91774 1.64253 0
M  V30 6814 C 650.871 2.59332 -1.52208 0
M  V30 6815 C 652.419 2.73208 -1.5273 0
M  V30 6816 C 652.894 3.87617 -2.43961 0
M  V30 6817 N 654.385 3.9495 -2.42009 0
M  V30 6818 C 655.12 4.82824 -3.09303 0
M  V30 6819 N 654.616 5.75387 -3.85877 0
M  V30 6820 N 656.409 4.76317 -2.98459 0
M  V30 6821 H 648.56 1.05546 -1.8432 0
M  V30 6822 H 650.823 0.524314 -0.78981 0
M  V30 6823 H 650.529 2.41029 -2.56121 0
M  V30 6824 H 650.403 3.56139 -1.24278 0
M  V30 6825 H 652.79 2.90908 -0.495614 0
M  V30 6826 H 652.871 1.76975 -1.84698 0
M  V30 6827 H 652.515 3.70672 -3.47224 0
M  V30 6828 H 652.445 4.83218 -2.09303 0
M  V30 6829 H 654.936 3.28744 -1.86375 0
M  V30 6830 H 655.249 6.39235 -4.34279 0
M  V30 6831 H 653.594 5.75272 -3.89984 0
M  V30 6832 H 656.785 4.0299 -2.38152 0
M  V30 6833 H 656.958 5.44589 -3.51179 0
M  V30 6834 N 650.364 0.662433 1.43002 0
M  V30 6835 C 651.589 0.186003 2.06564 0
M  V30 6836 C 652.014 -1.14314 1.49379 0
M  V30 6837 O 651.372 -1.70824 0.607346 0
M  V30 6838 C 651.42 0.118269 3.60406 0
M  V30 6839 O 650.524 -0.916859 4.02079 0
M  V30 6840 H 649.865 0.0990981 0.656563 0
M  V30 6841 H 652.395 0.907958 1.8335 0
M  V30 6842 H 652.405 -0.0619981 4.07953 0
M  V30 6843 H 651.08 1.08849 4.01403 0
M  V30 6844 H 649.657 -0.708635 3.66105 0
M  V30 6845 N 651.842 -1.52309 0.404946 0
M  V30 6846 C 653.088 -2.02065 -0.172455 0
M  V30 6847 C 653.421 -1.29022 -1.45145 0
M  V30 6848 O 652.696 -0.395284 -1.90441 0
M  V30 6849 C 652.979 -3.5759 -0.424433 0
M  V30 6850 C 652.832 -4.41287 0.870945 0
M  V30 6851 C 654.151 -4.23186 -1.20837 0
M  V30 6852 H 651.27 -0.734454 -0.0612035 0
M  V30 6853 H 653.912 -1.82236 0.53759 0
M  V30 6854 H 652.062 -3.74617 -1.02929 0
M  V30 6855 H 653.734 -4.3598 1.50729 0
M  V30 6856 H 651.977 -4.07669 1.48284 0
M  V30 6857 H 652.648 -5.48171 0.649083 0
M  V30 6858 H 655.124 -4.10232 -0.696338 0
M  V30 6859 H 654 -5.31953 -1.35343 0
M  V30 6860 H 654.261 -3.81862 -2.22786 0
M  V30 6861 N 653.32 -0.135238 -1.57019 0
M  V30 6862 C 654.23 0.822226 -2.19719 0
M  V30 6863 C 655.246 1.28057 -1.17802 0
M  V30 6864 O 656.422 1.3402 -1.50335 0
M  V30 6865 C 653.487 2.0484 -2.79717 0
M  V30 6866 C 652.548 1.64042 -3.96723 0
M  V30 6867 C 651.781 2.80814 -4.53849 0
M  V30 6868 O 652.004 3.967 -4.0986 0
M  V30 6869 O 650.938 2.56963 -5.44292 0
M  V30 6870 H 654.764 0.318552 -3.02025 0
M  V30 6871 H 652.349 0.0912021 -1.49121 0
M  V30 6872 H 654.231 2.76622 -3.17897 0
M  V30 6873 H 652.906 2.54182 -2.00432 0
M  V30 6874 H 651.813 0.893182 -3.63281 0
M  V30 6875 H 653.146 1.19426 -4.77492 0
M  V30 6876 N 654.798 1.5699 0.138552 0
M  V30 6877 C 655.728 2.01933 1.17241 0
M  V30 6878 C 656.709 0.90033 1.44319 0
M  V30 6879 O 657.894 1.16872 1.55095 0
M  V30 6880 C 655.024 2.40711 2.50351 0
M  V30 6881 C 653.978 3.55874 2.37776 0
M  V30 6882 C 653.304 3.80491 3.75674 0
M  V30 6883 C 654.604 4.8826 1.85472 0
M  V30 6884 H 656.298 2.88551 0.798672 0
M  V30 6885 H 653.844 1.3882 0.382743 0
M  V30 6886 H 655.797 2.70754 3.22909 0
M  V30 6887 H 654.521 1.5104 2.89576 0
M  V30 6888 H 653.18 3.2601 1.67669 0
M  V30 6889 H 652.828 2.88057 4.12349 0
M  V30 6890 H 652.528 4.57998 3.68119 0
M  V30 6891 H 654.052 4.12967 4.49767 0
M  V30 6892 H 655.466 5.16965 2.4783 0
M  V30 6893 H 653.863 5.69631 1.88787 0
M  V30 6894 H 654.933 4.78071 0.810935 0
M  V30 6895 N 656.276 -0.40816 1.52223 0
M  V30 6896 C 657.553 -1.16807 1.56893 0
M  V30 6897 C 657.933 -2.08169 0.350537 0
M  V30 6898 O 657.281 -2.18684 -0.662536 0
M  V30 6899 C 657.491 -1.94451 2.8981 0
M  V30 6900 C 658.839 -2.50484 3.42845 0
M  V30 6901 O 659.863 -2.0463 2.91556 0
M  V30 6902 O 658.722 -3.34192 4.3241 0
M  V30 6903 H 655.816 -0.533382 0.632007 0
M  V30 6904 H 658.362 -0.414862 1.64551 0
M  V30 6905 H 657.134 -1.27527 3.69936 0
M  V30 6906 H 656.757 -2.76775 2.85449 0
M  V30 6907 N 657.755 -1.42862 -0.66545 0
M  V30 6908 C 659.001 -1.44043 -1.42757 0
M  V30 6909 C 659.334 -0.0599629 -1.94107 0
M  V30 6910 O 658.609 0.917286 -1.71511 0
M  V30 6911 C 658.892 -2.47266 -2.61786 0
M  V30 6912 C 658.745 -3.94539 -2.16007 0
M  V30 6913 C 660.064 -2.47365 -3.64003 0
M  V30 6914 H 657.183 -0.524506 -0.517748 0
M  V30 6915 H 659.825 -1.74335 -0.755466 0
M  V30 6916 H 657.975 -2.21565 -3.19126 0
M  V30 6917 H 659.647 -4.31254 -1.63762 0
M  V30 6918 H 657.89 -4.07957 -1.47491 0
M  V30 6919 H 658.561 -4.62357 -3.01546 0
M  V30 6920 H 661.037 -2.70243 -3.16399 0
M  V30 6921 H 659.913 -3.21552 -4.44854 0
M  V30 6922 H 660.174 -1.50299 -4.15767 0
M  V30 6923 N 659.233 0.902656 -1.29189 0
M  V30 6924 C 660.458 1.69167 -1.19989 0
M  V30 6925 C 660.883 1.86607 0.236495 0
M  V30 6926 O 660.241 1.38425 1.17082 0
M  V30 6927 C 660.289 3.05532 -1.91527 0
M  V30 6928 O 659.393 3.93621 -1.2303 0
M  V30 6929 H 658.734 0.517584 -0.415936 0
M  V30 6930 H 661.264 1.12785 -1.70706 0
M  V30 6931 H 661.274 3.55693 -1.99866 0
M  V30 6932 H 659.949 2.92156 -2.96003 0
M  V30 6933 H 658.526 3.52055 -1.22928 0
M  V30 6934 N 660.711 1.11618 1.11262 0
M  V30 6935 C 661.988 0.777876 1.79467 0
M  V30 6936 C 662.368 -0.733774 1.97937 0
M  V30 6937 O 661.716 -1.66443 1.56554 0
M  V30 6938 C 661.926 1.5431 3.13032 0
M  V30 6939 C 663.274 1.72357 3.88044 0
M  V30 6940 O 664.298 1.5075 3.22727 0
M  V30 6941 O 663.157 2.08276 5.05256 0
M  V30 6942 H 660.251 0.282018 0.777428 0
M  V30 6943 H 662.797 1.21971 1.17988 0
M  V30 6944 H 661.569 2.57132 2.94956 0
M  V30 6945 H 661.192 1.09495 3.82226 0
M  V30 6946 N 662.189 -1.289 0.906776 0
M  V30 6947 C 663.437 -1.94883 0.535266 0
M  V30 6948 C 663.758 -1.71784 -0.922791 0
M  V30 6949 O 663.028 -1.05359 -1.65156 0
M  V30 6950 H 661.608 -0.721109 0.194962 0
M  V30 6951 H 664.27 -1.57018 1.15461 0
M  V30 6952 H 663.366 -3.03591 0.723821 0
M  V30 6953 N 663.667 -0.670007 -1.42649 0
M  V30 6954 C 664.892 -0.196955 -2.06463 0
M  V30 6955 C 665.317 1.1352 -1.49983 0
M  V30 6956 O 664.675 1.705 -0.616397 0
M  V30 6957 C 664.723 -0.137381 -3.60338 0
M  V30 6958 O 663.827 0.895523 -4.02559 0
M  V30 6959 H 663.168 -0.102579 -0.656029 0
M  V30 6960 H 665.698 -0.917669 -1.82866 0
M  V30 6961 H 665.708 0.0403625 -4.0798 0
M  V30 6962 H 664.383 -1.10977 -4.0082 0
M  V30 6963 H 662.96 0.689209 -3.66476 0
M  V30 6964 N 665.145 1.52092 -0.413018 0
M  V30 6965 C 666.422 1.94356 0.22024 0
M  V30 6966 C 666.802 1.35017 1.62277 0
M  V30 6967 O 666.15 0.527511 2.22328 0
M  V30 6968 C 666.36 3.48289 0.222638 0
M  V30 6969 C 667.708 4.22313 0.440098 0
M  V30 6970 O 668.732 3.54919 0.301826 0
M  V30 6971 O 667.591 5.41829 0.712984 0
M  V30 6972 H 664.685 0.814536 0.14304 0
M  V30 6973 H 667.231 1.63083 -0.469242 0
M  V30 6974 H 666.003 3.83872 -0.758836 0
M  V30 6975 H 665.626 3.85934 0.956057 0
M  V30 6976 N 666.623 0.143563 1.56945 0
M  V30 6977 C 667.571 -0.814556 2.17871 0
M  V30 6978 C 668.565 -1.25778 1.13474 0
M  V30 6979 O 669.771 -1.22666 1.31731 0
M  V30 6980 H 666.146 -0.280873 0.697578 0
M  V30 6981 H 668.117 -0.276459 2.97117 0
M  V30 6982 C 666.866 -2.04503 2.81201 0
M  V30 6983 H 666.189 -1.71296 3.61245 0
M  V30 6984 H 667.629 -2.69493 3.27337 0
M  V30 6985 C 666.088 -2.85079 1.79532 0
M  V30 6986 O 666.618 -3.81306 1.26368 0
M  V30 6987 N 664.824 -2.49546 1.48913 0
M  V30 6988 H 664.371 -1.71359 1.92338 0
M  V30 6989 H 664.329 -3.03751 0.811348 0
M  V30 6990 N 668.101 -1.57061 -0.130224 0
M  V30 6991 C 669.011 -2.02802 -1.17934 0
M  V30 6992 C 670.027 -0.946378 -1.46013 0
M  V30 6993 O 671.203 -1.25708 -1.57351 0
M  V30 6994 C 668.268 -2.41368 -2.48882 0
M  V30 6995 C 667.329 -3.63561 -2.28301 0
M  V30 6996 C 666.562 -4.00279 -3.53005 0
M  V30 6997 O 666.785 -3.37463 -4.59864 0
M  V30 6998 O 665.719 -4.93441 -3.44673 0
M  V30 6999 H 669.545 -2.92394 -0.820958 0
M  V30 7000 H 667.13 -1.45475 -0.340197 0
M  V30 7001 H 669.012 -2.66958 -3.26054 0
M  V30 7002 H 667.687 -1.54926 -2.84217 0
M  V30 7003 H 666.594 -3.43136 -1.49025 0
M  V30 7004 H 667.927 -4.50673 -1.97875 0
M  V30 7005 N 669.579 0.400081 -1.52437 0
M  V30 7006 C 670.99 0.97851 -1.59003 0
M  V30 7007 C 671.341 1.91293 -0.436068 0
M  V30 7008 O 670.466 2.1183 0.442365 0
M  V30 7009 C 671.061 1.78145 -2.88184 0
M  V30 7010 C 669.62 2.30976 -2.97199 0
M  V30 7011 C 668.767 1.11212 -2.54022 0
M  V30 7012 H 671.718 0.180002 -1.57676 0
M  V30 7013 H 671.739 2.63968 -2.74046 0
M  V30 7014 H 671.251 1.1011 -3.72152 0
M  V30 7015 H 669.352 3.02355 -2.17744 0
M  V30 7016 H 669.465 2.61221 -4.01622 0
M  V30 7017 H 667.829 1.46882 -2.08081 0
M  V30 7018 H 668.612 0.447307 -3.40373 0
M  V30 7019 N 671.057 1.43213 0.657864 0
M  V30 7020 C 672.306 1.43871 1.41365 0
M  V30 7021 C 672.619 0.064898 1.95492 0
M  V30 7022 O 673.825 -0.0510796 2.71452 0
M  V30 7023 C 672.281 2.53158 2.55811 0
M  V30 7024 C 671.889 3.96624 2.08311 0
M  V30 7025 C 673.633 2.63004 3.3321 0
M  V30 7026 C 671.54 4.97385 3.1994 0
M  V30 7027 H 670.47 0.535174 0.531136 0
M  V30 7028 H 673.121 1.69185 0.710543 0
M  V30 7029 H 671.503 2.21037 3.2857 0
M  V30 7030 H 672.677 4.38182 1.42593 0
M  V30 7031 H 670.992 3.90781 1.43804 0
M  V30 7032 H 673.589 3.3546 4.16378 0
M  V30 7033 H 673.932 1.67918 3.80932 0
M  V30 7034 H 674.465 2.94403 2.67529 0
M  V30 7035 H 671.204 5.94007 2.77192 0
M  V30 7036 H 670.724 4.60444 3.84385 0
M  V30 7037 H 672.403 5.19877 3.85145 0
M  V30 7038 N 672.536 -0.895792 1.29666 0
M  V30 7039 C 673.466 -2.01673 1.17688 0
M  V30 7040 C 674.447 -1.69955 0.0701317 0
M  V30 7041 O 675.632 -1.9258 0.250289 0
M  V30 7042 C 672.762 -3.36568 0.856681 0
M  V30 7043 C 671.716 -3.82509 1.92017 0
M  V30 7044 C 671.042 -5.14574 1.4532 0
M  V30 7045 C 672.342 -4.02409 3.32963 0
M  V30 7046 H 674.036 -2.11953 2.11463 0
M  V30 7047 H 671.582 -1.01839 1.01807 0
M  V30 7048 H 673.535 -4.14498 0.759577 0
M  V30 7049 H 672.259 -3.26391 -0.116763 0
M  V30 7050 H 670.918 -3.068 2.00673 0
M  V30 7051 H 670.566 -5.00815 0.468325 0
M  V30 7052 H 670.266 -5.46283 2.16447 0
M  V30 7053 H 671.79 -5.9504 1.36968 0
M  V30 7054 H 673.204 -4.70808 3.27127 0
M  V30 7055 H 671.601 -4.45478 4.02082 0
M  V30 7056 H 672.671 -3.06616 3.75652 0
M  V30 7057 N 674.014 -1.12206 -1.10668 0
M  V30 7058 C 675.254 -0.885935 -1.84202 0
M  V30 7059 C 675.618 0.577849 -1.83098 0
M  V30 7060 O 676.819 0.931051 -2.5216 0
M  V30 7061 C 675.09 -1.44197 -3.2702 0
M  V30 7062 S 676.649 -1.34402 -4.1771 0
M  V30 7063 H 673.467 -0.319653 -0.635093 0
M  V30 7064 H 676.069 -1.43112 -1.33189 0
M  V30 7065 H 674.773 -2.50096 -3.25392 0
M  V30 7066 H 674.304 -0.894173 -3.83103 0
M  V30 7067 H 676.319 -0.313873 -4.95206 0
M  V30 7068 N 675.492 1.28418 -0.913599 0
M  V30 7069 C 676.44 2.29272 -0.392037 0
M  V30 7070 C 677.434 1.61344 0.516198 0
M  V30 7071 O 678.64 1.75557 0.39746 0
M  V30 7072 H 675.015 0.744178 -0.108178 0
M  V30 7073 H 676.986 2.70691 -1.25574 0
M  V30 7074 C 675.735 3.45905 0.352815 0
M  V30 7075 H 675.058 3.98378 -0.336848 0
M  V30 7076 H 676.498 4.18473 0.682398 0
M  V30 7077 C 674.957 2.98572 1.56065 0
M  V30 7078 O 675.487 3.01033 2.65974 0
M  V30 7079 N 673.693 2.54235 1.40759 0
M  V30 7080 H 673.24 2.52432 0.513403 0
M  V30 7081 H 673.198 2.22925 2.21702 0
M  V30 7082 N 676.97 0.677563 1.42291 0
M  V30 7083 C 678.386 0.347376 1.55774 0
M  V30 7084 C 678.586 -1.14703 1.65667 0
M  V30 7085 O 677.642 -1.93252 1.62512 0
M  V30 7086 C 678.955 1.08011 2.80631 0
M  V30 7087 C 680.503 1.06271 2.94407 0
M  V30 7088 C 680.978 1.77683 4.22129 0
M  V30 7089 N 682.469 1.74564 4.29047 0
M  V30 7090 C 683.204 2.26673 5.26694 0
M  V30 7091 N 682.7 2.87176 6.30477 0
M  V30 7092 N 684.493 2.17032 5.18511 0
M  V30 7093 H 676.644 1.64703 1.34114 0
M  V30 7094 H 678.907 0.694038 0.645768 0
M  V30 7095 H 678.613 2.13518 2.79469 0
M  V30 7096 H 678.487 0.647115 3.71608 0
M  V30 7097 H 680.874 0.0159658 2.95096 0
M  V30 7098 H 680.955 1.53461 2.04654 0
M  V30 7099 H 680.599 2.82327 4.22201 0
M  V30 7100 H 680.529 1.2794 5.10822 0
M  V30 7101 H 683.02 1.30436 3.54676 0
M  V30 7102 H 683.333 3.24551 7.01346 0
M  V30 7103 H 681.678 2.91247 6.31031 0
M  V30 7104 H 684.869 1.69451 4.36353 0
M  V30 7105 H 685.042 2.57948 5.94446 0
M  V30 7106 N 678.448 -1.51871 0.421078 0
M  V30 7107 C 679.396 -2.28903 -0.413066 0
M  V30 7108 C 680.39 -1.3408 -1.03532 0
M  V30 7109 O 681.596 -1.5149 -0.972146 0
M  V30 7110 H 677.971 -0.736478 -0.152003 0
M  V30 7111 H 679.942 -2.97285 0.257695 0
M  V30 7112 C 678.691 -3.13156 -1.51091 0
M  V30 7113 H 678.014 -3.85997 -1.04145 0
M  V30 7114 H 679.454 -3.7014 -2.06814 0
M  V30 7115 C 677.913 -2.27482 -2.48503 0
M  V30 7116 O 678.443 -1.92325 -3.52667 0
M  V30 7117 N 676.649 -1.91019 -2.18998 0
M  V30 7118 H 676.196 -2.19808 -1.34322 0
M  V30 7119 H 676.154 -1.3399 -2.84419 0
M  V30 7120 N 679.926 -0.151884 -1.56866 0
M  V30 7121 C 680.874 0.80299 -2.183 0
M  V30 7122 C 681.868 1.25174 -1.14139 0
M  V30 7123 O 683.074 1.21966 -1.3238 0
M  V30 7124 H 679.449 0.277169 -0.699057 0
M  V30 7125 H 681.42 0.260699 -2.97259 0
M  V30 7126 C 680.169 2.03009 -2.82281 0
M  V30 7127 H 679.492 1.69377 -3.62148 0
M  V30 7128 H 680.932 2.67753 -3.28762 0
M  V30 7129 C 679.391 2.84123 -1.81041 0
M  V30 7130 O 679.921 3.8063 -1.28388 0
M  V30 7131 N 678.127 2.48753 -1.50234 0
M  V30 7132 H 677.674 1.70337 -1.93244 0
M  V30 7133 H 677.632 3.03316 -0.827445 0
M  V30 7134 N 681.404 1.57128 0.121893 0
M  V30 7135 C 682.337 1.95327 1.17995 0
M  V30 7136 C 683.315 0.822524 1.40262 0
M  V30 7137 O 684.499 1.08044 1.54463 0
M  V30 7138 C 681.626 2.24699 2.53432 0
M  V30 7139 C 680.672 3.47263 2.4761 0
M  V30 7140 S 681.505 4.99951 1.91857 0
M  V30 7141 C 682.661 5.32473 3.28973 0
M  V30 7142 H 682.894 2.84765 0.854182 0
M  V30 7143 H 680.427 1.50864 0.328534 0
M  V30 7144 H 682.385 2.423 3.31362 0
M  V30 7145 H 681.046 1.3588 2.83188 0
M  V30 7146 H 680.239 3.65171 3.4737 0
M  V30 7147 H 679.841 3.29034 1.778 0
M  V30 7148 H 682.133 5.27478 4.25175 0
M  V30 7149 H 683.076 6.33732 3.15895 0
M  V30 7150 H 683.484 4.59952 3.27268 0
M  V30 7151 N 682.882 -0.391992 1.52647 0
M  V30 7152 C 684.11 -1.1586 1.71418 0
M  V30 7153 C 684.525 -1.8381 0.431216 0
M  V30 7154 O 683.882 -1.7256 -0.594085 0
M  V30 7155 C 683.933 -2.20888 2.86165 0
M  V30 7156 O 683.654 -1.5571 4.09495 0
M  V30 7157 C 685.155 -3.103 3.1659 0
M  V30 7158 H 682.375 -0.347494 0.574011 0
M  V30 7159 H 684.919 -0.458972 1.99283 0
M  V30 7160 H 683.074 -2.86492 2.6077 0
M  V30 7161 H 683.488 -2.25474 4.73563 0
M  V30 7162 H 684.962 -3.8003 4.00351 0
M  V30 7163 H 685.439 -3.73639 2.30848 0
M  V30 7164 H 686.045 -2.50345 3.43813 0
M  V30 7165 N 684.36 -1.4356 -0.65026 0
M  V30 7166 C 685.588 -1.48779 -1.43779 0
M  V30 7167 C 686.003 -0.106593 -1.88499 0
M  V30 7168 O 685.36 0.883766 -1.59674 0
M  V30 7169 C 685.411 -2.43618 -2.67081 0
M  V30 7170 O 685.132 -3.76367 -2.24231 0
M  V30 7171 C 686.633 -2.5811 -3.60409 0
M  V30 7172 H 683.853 -0.50521 -0.441593 0
M  V30 7173 H 686.397 -1.88332 -0.796941 0
M  V30 7174 H 684.552 -2.07253 -3.273 0
M  V30 7175 H 684.966 -4.27394 -3.0403 0
M  V30 7176 H 686.44 -3.28539 -4.43583 0
M  V30 7177 H 686.917 -1.627 -4.07953 0
M  V30 7178 H 687.523 -2.95298 -3.0607 0
M  V30 7179 N 685.838 0.888903 -1.30139 0
M  V30 7180 C 686.788 1.9814 -1.12803 0
M  V30 7181 C 687.772 1.60839 -0.0443137 0
M  V30 7182 O 688.964 1.74971 -0.267208 0
M  V30 7183 C 686.093 3.33416 -0.817849 0
M  V30 7184 C 685.179 3.77043 -1.94163 0
M  V30 7185 N 685.57 3.92805 -3.18651 0
M  V30 7186 C 683.868 4.06407 -1.8371 0
M  V30 7187 C 684.569 4.29746 -3.92038 0
M  V30 7188 N 683.545 4.3939 -3.20059 0
M  V30 7189 H 687.347 2.08411 -2.07225 0
M  V30 7190 H 684.861 1.07845 -1.21421 0
M  V30 7191 H 686.858 4.11405 -0.674668 0
M  V30 7192 H 685.518 3.24484 0.118344 0
M  V30 7193 H 686.529 3.78042 -3.53984 0
M  V30 7194 H 683.206 4.05972 -0.974331 0
M  V30 7195 H 684.596 4.49695 -4.99223 0
M  V30 7196 N 687.317 1.12792 1.10072 0
M  V30 7197 C 688.563 0.886857 1.82381 0
M  V30 7198 C 688.896 -0.58576 1.85155 0
M  V30 7199 O 688.171 -1.43317 1.31493 0
M  V30 7200 C 688.454 1.46703 3.28862 0
M  V30 7201 C 688.307 3.00829 3.34398 0
M  V30 7202 C 689.626 1.12971 4.25353 0
M  V30 7203 H 686.745 0.32362 0.662148 0
M  V30 7204 H 689.387 1.39513 1.28982 0
M  V30 7205 H 687.537 1.03476 3.74466 0
M  V30 7206 H 689.209 3.52764 2.97247 0
M  V30 7207 H 687.452 3.36164 2.74183 0
M  V30 7208 H 688.123 3.36519 4.3756 0
M  V30 7209 H 690.599 1.50313 3.88001 0
M  V30 7210 H 689.475 1.56223 5.26199 0
M  V30 7211 H 689.736 0.0424452 4.4208 0
M  V30 7212 N 688.795 -1.27931 0.920396 0
M  V30 7213 C 690.02 -1.99343 0.572478 0
M  V30 7214 C 690.445 -1.68267 -0.840696 0
M  V30 7215 O 689.803 -0.918805 -1.56294 0
M  V30 7216 C 689.851 -3.51698 0.796284 0
M  V30 7217 O 688.955 -4.12157 -0.141602 0
M  V30 7218 H 688.296 -0.626065 0.221221 0
M  V30 7219 H 690.826 -1.62921 1.23765 0
M  V30 7220 H 690.836 -4.01793 0.708984 0
M  V30 7221 H 689.511 -3.73649 1.82644 0
M  V30 7222 H 688.088 -3.729 -0.005007 0
M  V30 7223 N 690.273 -0.685099 -1.4193 0
M  V30 7224 C 691.52 -0.211658 -2.01391 0
M  V30 7225 C 691.848 1.18526 -1.54214 0
M  V30 7226 O 691.103 1.81189 -0.739519 0
M  V30 7227 C 691.402 -0.206154 -3.56805 0
M  V30 7228 C 691.068 -1.54915 -4.23453 0
M  V30 7229 C 689.73 -1.91684 -4.41373 0
M  V30 7230 C 692.082 -2.43317 -4.60919 0
M  V30 7231 C 689.41 -3.16461 -4.94034 0
M  V30 7232 C 691.762 -3.67415 -5.14965 0
M  V30 7233 C 690.426 -4.04341 -5.31098 0
M  V30 7234 H 689.696 -0.0774511 -0.736941 0
M  V30 7235 H 692.343 -0.882121 -1.69973 0
M  V30 7236 H 690.648 0.547841 -3.87951 0
M  V30 7237 H 692.345 0.17753 -4.00607 0
M  V30 7238 H 688.935 -1.25314 -4.09871 0
M  V30 7239 H 693.119 -2.16192 -4.46738 0
M  V30 7240 H 688.375 -3.45078 -5.04709 0
M  V30 7241 H 692.549 -4.3611 -5.42938 0
M  V30 7242 H 690.176 -5.01101 -5.71666 0
M  V30 7243 N 691.751 1.51645 -0.429126 0
M  V30 7244 C 693.167 1.59394 -0.080994 0
M  V30 7245 C 693.367 1.44064 1.40882 0
M  V30 7246 O 692.423 1.27771 2.17786 0
M  V30 7247 C 693.736 2.94779 -0.593773 0
M  V30 7248 C 695.284 3.08067 -0.553494 0
M  V30 7249 C 695.759 4.45963 -1.04311 0
M  V30 7250 N 697.25 4.5226 -1.00076 0
M  V30 7251 C 697.985 5.57268 -1.35056 0
M  V30 7252 N 697.481 6.69734 -1.77282 0
M  V30 7253 N 699.274 5.47582 -1.26925 0
M  V30 7254 H 691.425 1.59856 -1.39857 0
M  V30 7255 H 693.688 0.753095 -0.575805 0
M  V30 7256 H 693.394 3.11342 -1.63583 0
M  V30 7257 H 693.268 3.77197 -0.0142202 0
M  V30 7258 H 695.655 2.91177 0.479556 0
M  V30 7259 H 695.736 2.27508 -1.16935 0
M  V30 7260 H 695.38 4.63598 -2.07459 0
M  V30 7261 H 695.31 5.25049 -0.403873 0
M  V30 7262 H 697.801 3.71537 -0.690564 0
M  V30 7263 H 698.114 7.4587 -2.02232 0
M  V30 7264 H 696.459 6.70963 -1.81202 0
M  V30 7265 H 699.65 4.58604 -0.93809 0
M  V30 7266 H 699.823 6.29308 -1.54516 0
M  V30 7267 N 693.229 0.160201 1.56784 0
M  V30 7268 C 694.454 -0.497373 2.01348 0
M  V30 7269 C 694.879 -1.56757 1.03966 0
M  V30 7270 O 694.237 -1.81292 0.0174455 0
M  V30 7271 C 694.285 -1.0628 3.44582 0
M  V30 7272 O 693.389 -2.17723 3.50244 0
M  V30 7273 H 692.73 -0.120295 0.653012 0
M  V30 7274 H 695.26 0.260821 2.02931 0
M  V30 7275 H 695.27 -1.38819 3.83658 0
M  V30 7276 H 693.945 -0.279166 4.14962 0
M  V30 7277 H 692.522 -1.86313 3.2302 0
M  V30 7278 N 694.707 -1.5719 -0.113559 0
M  V30 7279 C 695.953 -1.85412 -0.821597 0
M  V30 7280 C 696.286 -0.746722 -1.7927 0
M  V30 7281 O 695.561 0.246971 -1.92926 0
M  V30 7282 C 695.844 -3.24233 -1.56669 0
M  V30 7283 C 695.697 -4.45578 -0.614823 0
M  V30 7284 C 697.016 -3.60697 -2.52161 0
M  V30 7285 H 694.135 -0.674406 -0.29723 0
M  V30 7286 H 696.777 -1.89807 -0.085694 0
M  V30 7287 H 694.927 -3.20617 -2.19401 0
M  V30 7288 H 696.599 -4.613 0.00407137 0
M  V30 7289 H 694.842 -4.33738 0.0732332 0
M  V30 7290 H 695.513 -5.39395 -1.17292 0
M  V30 7291 H 697.989 -3.65139 -1.99532 0
M  V30 7292 H 696.865 -4.58798 -3.01323 0
M  V30 7293 H 697.126 -2.88403 -3.35076 0
M  V30 7294 N 696.185 0.383891 -1.52853 0
M  V30 7295 C 697.434 1.12563 -1.67369 0
M  V30 7296 C 697.747 1.90982 -0.422533 0
M  V30 7297 O 698.953 2.6778 -0.447914 0
M  V30 7298 C 697.409 2.05011 -2.95801 0
M  V30 7299 C 697.017 1.31991 -4.28115 0
M  V30 7300 C 698.761 2.79289 -3.19684 0
M  V30 7301 C 696.668 2.23235 -5.4765 0
M  V30 7302 H 695.598 0.42391 -0.623552 0
M  V30 7303 H 698.249 0.388016 -1.79351 0
M  V30 7304 H 696.631 2.82429 -2.77578 0
M  V30 7305 H 697.805 0.597633 -4.56908 0
M  V30 7306 H 696.12 0.696517 -4.10533 0
M  V30 7307 H 698.717 3.47749 -4.06171 0
M  V30 7308 H 699.06 3.43649 -2.3497 0
M  V30 7309 H 699.593 2.08962 -3.38496 0
M  V30 7310 H 696.332 1.63482 -6.34786 0
M  V30 7311 H 695.852 2.93364 -5.23161 0
M  V30 7312 H 697.531 2.83205 -5.81725 0
M  V30 7313 N 697.663 1.43903 0.642637 0
M  V30 7314 C 698.573 1.52349 1.78401 0
M  V30 7315 C 699.589 0.409869 1.69104 0
M  V30 7316 O 700.765 0.665548 1.90085 0
M  V30 7317 C 697.83 1.45408 3.14734 0
M  V30 7318 C 696.891 2.67528 3.35749 0
M  V30 7319 C 696.124 2.60909 4.65577 0
M  V30 7320 O 696.347 1.6627 5.45628 0
M  V30 7321 O 695.281 3.5158 4.88544 0
M  V30 7322 H 699.107 2.48752 1.7423 0
M  V30 7323 H 696.692 1.26021 0.802439 0
M  V30 7324 H 698.574 1.44019 3.96026 0
M  V30 7325 H 697.249 0.521437 3.19473 0
M  V30 7326 H 696.156 2.74487 2.5418 0
M  V30 7327 H 697.489 3.598 3.35864 0
M  V30 7328 N 699.141 -0.881989 1.30609 0
M  V30 7329 C 700.387 -1.63647 1.19781 0
M  V30 7330 C 700.72 -1.92632 -0.246265 0
M  V30 7331 O 699.995 -1.54938 -1.17577 0
M  V30 7332 C 700.278 -2.97437 2.02985 0
M  V30 7333 C 700.131 -2.75406 3.55628 0
M  V30 7334 C 701.45 -3.98397 1.86997 0
M  V30 7335 H 698.569 -0.593841 0.436488 0
M  V30 7336 H 701.211 -1.02041 1.60273 0
M  V30 7337 H 699.361 -3.50018 1.68581 0
M  V30 7338 H 701.033 -2.2959 4.00107 0
M  V30 7339 H 699.276 -2.09856 3.79662 0
M  V30 7340 H 699.947 -3.70552 4.09139 0
M  V30 7341 H 702.423 -3.54986 2.17081 0
M  V30 7342 H 701.299 -4.89916 2.47536 0
M  V30 7343 H 701.56 -4.3424 0.829943 0
M  V30 7344 N 700.619 -1.13374 -1.09472 0
M  V30 7345 C 701.868 -0.889844 -1.8101 0
M  V30 7346 C 702.181 0.585686 -1.86625 0
M  V30 7347 O 703.387 0.946497 -2.54467 0
M  V30 7348 C 701.843 -1.54241 -3.25174 0
M  V30 7349 C 701.451 -3.05343 -3.27826 0
M  V30 7350 C 703.195 -1.37919 -4.0147 0
M  V30 7351 C 701.102 -3.63486 -4.6651 0
M  V30 7352 H 700.032 -0.329256 -0.678311 0
M  V30 7353 H 702.683 -1.36139 -1.23038 0
M  V30 7354 H 701.065 -0.998525 -3.83204 0
M  V30 7355 H 702.239 -3.66307 -2.79563 0
M  V30 7356 H 700.554 -3.21175 -2.65019 0
M  V30 7357 H 703.151 -1.78771 -5.03929 0
M  V30 7358 H 703.494 -0.323987 -4.15037 0
M  V30 7359 H 704.027 -1.89284 -3.49881 0
M  V30 7360 H 700.766 -4.68811 -4.58145 0
M  V30 7361 H 700.286 -3.073 -5.15099 0
M  V30 7362 H 701.965 -3.63134 -5.35484 0
M  V30 7363 N 702.098 1.27442 -0.927168 0
M  V30 7364 C 703.046 2.28844 -0.416333 0
M  V30 7365 C 704.04 1.61882 0.499057 0
M  V30 7366 O 705.246 1.75969 0.378817 0
M  V30 7367 H 701.621 0.742989 -0.116065 0
M  V30 7368 H 703.592 2.69344 -1.28438 0
M  V30 7369 C 702.341 3.4626 0.316107 0
M  V30 7370 H 701.664 3.97999 -0.379082 0
M  V30 7371 H 703.104 4.19173 0.637975 0
M  V30 7372 C 701.563 3.00211 1.5289 0
M  V30 7373 O 702.093 3.03837 2.62766 0
M  V30 7374 N 700.299 2.55713 1.38054 0
M  V30 7375 H 699.846 2.52962 0.4866 0
M  V30 7376 H 699.804 2.25264 2.19325 0
M  V30 7377 N 703.576 0.692616 1.41565 0
M  V30 7378 C 704.523 0.0254264 2.30786 0
M  V30 7379 C 705.493 -0.774347 1.46946 0
M  V30 7380 O 706.678 -0.742981 1.7574 0
M  V30 7381 C 703.818 -0.907123 3.32964 0
M  V30 7382 C 702.931 -0.0992784 4.31886 0
M  V30 7383 C 702.066 -1.0292 5.21134 0
M  V30 7384 C 701.105 -0.214088 6.11725 0
M  V30 7385 N 700.242 -1.09766 6.93467 0
M  V30 7386 H 705.082 0.792036 2.87282 0
M  V30 7387 H 702.619 0.4023 1.41492 0
M  V30 7388 H 704.577 -1.46181 3.90752 0
M  V30 7389 H 703.207 -1.64016 2.78026 0
M  V30 7390 H 702.259 0.572287 3.76071 0
M  V30 7391 H 703.571 0.532782 4.95946 0
M  V30 7392 H 702.725 -1.65321 5.83741 0
M  V30 7393 H 701.464 -1.69512 4.57293 0
M  V30 7394 H 700.469 0.42302 5.4817 0
M  V30 7395 H 701.694 0.447995 6.77621 0
M  V30 7396 H 699.64 -1.74965 6.32237 0
M  V30 7397 H 699.557 -0.521099 7.54202 0
M  V30 7398 H 700.825 -1.70858 7.60544 0
M  V30 7399 N 705.054 -1.51416 0.437162 0
M  V30 7400 C 706.301 -2.02086 -0.129364 0
M  V30 7401 C 706.629 -1.32133 -1.42728 0
M  V30 7402 O 705.884 -0.424916 -1.91031 0
M  V30 7403 C 706.183 -3.55203 -0.39564 0
M  V30 7404 C 705.849 -4.43447 0.81644 0
M  V30 7405 C 704.511 -4.67285 1.14884 0
M  V30 7406 C 706.863 -4.95219 1.62503 0
M  V30 7407 C 704.191 -5.40141 2.29052 0
M  V30 7408 C 706.543 -5.69327 2.7577 0
M  V30 7409 C 705.207 -5.91429 3.09464 0
M  V30 7410 H 704.477 -0.739486 -0.0473375 0
M  V30 7411 H 707.124 -1.82368 0.584321 0
M  V30 7412 H 705.429 -3.73252 -1.19121 0
M  V30 7413 H 707.126 -3.91944 -0.847399 0
M  V30 7414 H 703.716 -4.2509 0.547422 0
M  V30 7415 H 707.9 -4.76686 1.38144 0
M  V30 7416 H 703.156 -5.55468 2.55471 0
M  V30 7417 H 707.33 -6.08433 3.38795 0
M  V30 7418 H 704.957 -6.47662 3.98042 0
M  V30 7419 N 706.532 -0.168513 -1.56696 0
M  V30 7420 C 707.495 0.748928 -2.16619 0
M  V30 7421 C 708.495 1.16007 -1.11351 0
M  V30 7422 O 709.685 1.07748 -1.3688 0
M  V30 7423 C 706.817 2.01904 -2.74677 0
M  V30 7424 H 708.01 0.227317 -2.99037 0
M  V30 7425 H 705.563 0.0810372 -1.5609 0
M  V30 7426 H 706.298 2.58381 -1.95985 0
M  V30 7427 H 706.083 1.73323 -3.51712 0
M  V30 7428 H 707.573 2.67383 -3.20774 0
M  V30 7429 N 708.01 1.57248 0.105221 0
M  V30 7430 C 709.257 1.8557 0.810552 0
M  V30 7431 C 709.585 0.755595 1.79223 0
M  V30 7432 O 708.84 -0.251788 1.94073 0
M  V30 7433 C 709.139 3.20437 1.58287 0
M  V30 7434 C 708.805 4.44716 0.744235 0
M  V30 7435 C 707.467 4.78458 0.513013 0
M  V30 7436 C 709.819 5.20953 0.160578 0
M  V30 7437 C 707.147 5.8587 -0.311894 0
M  V30 7438 C 709.499 6.29235 -0.651596 0
M  V30 7439 C 708.163 6.615 -0.893005 0
M  V30 7440 H 707.433 0.67905 0.296602 0
M  V30 7441 H 710.08 1.91363 0.0723968 0
M  V30 7442 H 708.385 3.10283 2.39232 0
M  V30 7443 H 710.082 3.39576 2.13282 0
M  V30 7444 H 706.672 4.18287 0.934555 0
M  V30 7445 H 710.856 4.95226 0.3264 0
M  V30 7446 H 706.112 6.09286 -0.508012 0
M  V30 7447 H 710.286 6.87484 -1.11077 0
M  V30 7448 H 707.913 7.44562 -1.53401 0
M  V30 7449 N 709.488 -0.375779 1.53054 0
M  V30 7450 C 710.734 -1.12114 1.68992 0
M  V30 7451 C 711.067 -1.8926 0.435238 0
M  V30 7452 O 710.342 -1.86044 -0.567278 0
M  V30 7453 C 710.625 -2.08867 2.93337 0
M  V30 7454 C 710.478 -1.35397 4.28938 0
M  V30 7455 C 711.797 -3.09124 3.13257 0
M  V30 7456 H 708.916 -0.406207 0.614951 0
M  V30 7457 H 711.558 -0.403054 1.85676 0
M  V30 7458 H 709.708 -2.70102 2.79244 0
M  V30 7459 H 711.38 -0.770242 4.54824 0
M  V30 7460 H 709.623 -0.655801 4.28814 0
M  V30 7461 H 710.294 -2.06161 5.12056 0
M  V30 7462 H 712.77 -2.57987 3.26469 0
M  V30 7463 H 711.646 -3.74054 4.01715 0
M  V30 7464 H 711.907 -3.78729 2.28072 0
M  V30 7465 N 710.966 -1.44241 -0.634997 0
M  V30 7466 C 711.929 -1.50457 -1.72903 0
M  V30 7467 C 712.929 -0.387058 -1.56072 0
M  V30 7468 O 714.119 -0.649531 -1.61638 0
M  V30 7469 C 711.251 -1.37477 -3.1195 0
M  V30 7470 H 712.444 -2.47907 -1.68767 0
M  V30 7471 H 709.997 -1.31276 -0.84831 0
M  V30 7472 H 710.732 -0.41106 -3.21684 0
M  V30 7473 H 710.517 -2.18506 -3.25573 0
M  V30 7474 H 712.007 -1.44799 -3.91692 0
M  V30 7475 N 712.444 0.87505 -1.31075 0
M  V30 7476 C 713.669 1.66583 -1.23551 0
M  V30 7477 C 714.094 1.87067 0.19686 0
M  V30 7478 O 713.452 1.40877 1.1412 0
M  V30 7479 C 713.5 3.01401 -1.97965 0
M  V30 7480 O 712.604 3.90923 -1.31351 0
M  V30 7481 H 711.945 0.508645 -0.426821 0
M  V30 7482 H 714.475 1.09139 -1.7306 0
M  V30 7483 H 714.485 3.51374 -2.07366 0
M  V30 7484 H 713.16 2.85812 -3.02133 0
M  V30 7485 H 711.737 3.49369 -1.30368 0
M  V30 7486 N 713.922 1.13953 1.08869 0
M  V30 7487 C 714.832 0.835666 2.19212 0
M  V30 7488 C 715.848 -0.182005 1.73045 0
M  V30 7489 O 717.024 -0.0116661 2.01397 0
M  V30 7490 C 714.089 0.312325 3.4529 0
M  V30 7491 C 713.15 1.39196 4.06107 0
M  V30 7492 C 712.383 0.893496 5.26168 0
M  V30 7493 O 712.606 -0.266807 5.69776 0
M  V30 7494 O 711.54 1.67037 5.78258 0
M  V30 7495 H 715.366 1.75769 2.47667 0
M  V30 7496 H 712.951 0.917421 1.17914 0
M  V30 7497 H 714.833 0.0261582 4.21392 0
M  V30 7498 H 713.508 -0.582042 3.18424 0
M  V30 7499 H 712.415 1.73152 3.31616 0
M  V30 7500 H 713.748 2.26068 4.37212 0
M  V30 7501 N 715.4 -1.26948 0.933913 0
M  V30 7502 C 716.63 -1.97898 0.593279 0
M  V30 7503 C 717.038 -1.69806 -0.834412 0
M  V30 7504 O 716.381 -0.958704 -1.56699 0
M  V30 7505 C 716.443 -3.51657 0.746825 0
M  V30 7506 C 716.107 -4.03384 2.14779 0
M  V30 7507 C 717.104 -4.15682 3.12257 0
M  V30 7508 C 714.789 -4.37577 2.46641 0
M  V30 7509 C 716.783 -4.61455 4.39702 0
M  V30 7510 C 714.47 -4.8304 3.7432 0
M  V30 7511 C 715.468 -4.94939 4.70664 0
M  V30 7512 O 715.156 -5.39403 5.96071 0
M  V30 7513 H 714.888 -0.63814 0.223055 0
M  V30 7514 H 717.442 -1.62608 1.2549 0
M  V30 7515 H 715.672 -3.8669 0.0280889 0
M  V30 7516 H 717.361 -4.03821 0.410328 0
M  V30 7517 H 718.127 -3.89519 2.88964 0
M  V30 7518 H 714.006 -4.27554 1.72391 0
M  V30 7519 H 717.55 -4.70658 5.14905 0
M  V30 7520 H 713.447 -5.08646 3.97429 0
M  V30 7521 H 714.215 -5.57641 5.99148 0
M  V30 7522 N 716.879 -0.700114 -1.41195 0
M  V30 7523 C 718.29 -0.307249 -1.84154 0
M  V30 7524 C 718.641 1.15539 -1.58572 0
M  V30 7525 O 717.766 1.88744 -1.05852 0
M  V30 7526 C 718.361 -0.550872 -3.34292 0
M  V30 7527 C 716.92 -0.211877 -3.75803 0
M  V30 7528 C 716.067 -0.830915 -2.64558 0
M  V30 7529 H 719.018 -0.900431 -1.30683 0
M  V30 7530 H 719.039 0.188954 -3.80031 0
M  V30 7531 H 718.551 -1.61548 -3.5288 0
M  V30 7532 H 716.652 0.848283 -3.62815 0
M  V30 7533 H 716.765 -0.67007 -4.74391 0
M  V30 7534 H 715.129 -0.260155 -2.53368 0
M  V30 7535 H 715.912 -1.89948 -2.85963 0
M  V30 7536 N 718.357 1.51182 -0.445186 0
M  V30 7537 C 719.287 2.30821 0.352686 0
M  V30 7538 C 720.268 1.36576 1.01395 0
M  V30 7539 O 721.453 1.65497 1.01609 0
M  V30 7540 C 718.583 3.15593 1.44976 0
M  V30 7541 C 717.537 4.1818 0.911553 0
M  V30 7542 C 716.863 4.91523 2.10497 0
M  V30 7543 C 718.163 5.22266 -0.059418 0
M  V30 7544 H 719.857 2.97771 -0.311936 0
M  V30 7545 H 717.403 1.43201 -0.151461 0
M  V30 7546 H 719.356 3.70091 2.01521 0
M  V30 7547 H 718.08 2.4648 2.14278 0
M  V30 7548 H 716.739 3.64746 0.368264 0
M  V30 7549 H 716.387 4.18906 2.78437 0
M  V30 7550 H 716.087 5.60898 1.7512 0
M  V30 7551 H 717.611 5.48847 2.6758 0
M  V30 7552 H 719.025 5.71789 0.415985 0
M  V30 7553 H 717.422 5.99213 -0.326152 0
M  V30 7554 H 718.492 4.7461 -0.993631 0
M  V30 7555 N 719.835 0.176821 1.56605 0
M  V30 7556 C 721.084 -0.466833 1.96223 0
M  V30 7557 C 721.397 -1.64015 1.06576 0
M  V30 7558 O 722.603 -2.3504 1.35898 0
M  V30 7559 C 721.059 -0.881921 3.48927 0
M  V30 7560 C 720.667 0.266102 4.47209 0
M  V30 7561 C 722.411 -1.49368 3.97353 0
M  V30 7562 C 720.318 -0.168923 5.91159 0
M  V30 7563 H 719.248 -0.178178 0.732645 0
M  V30 7564 H 721.899 0.265929 1.81563 0
M  V30 7565 H 720.281 -1.67082 3.59026 0
M  V30 7566 H 721.455 1.04349 4.4883 0
M  V30 7567 H 719.77 0.788178 4.08872 0
M  V30 7568 H 722.367 -1.8313 5.02362 0
M  V30 7569 H 722.71 -2.3936 3.40606 0
M  V30 7570 H 723.243 -0.769114 3.90294 0
M  V30 7571 H 719.982 0.696351 6.51791 0
M  V30 7572 H 719.502 -0.911552 5.92833 0
M  V30 7573 H 721.181 -0.610938 6.44109 0
M  V30 7574 N 721.313 -1.57302 -0.09688 0
M  V30 7575 C 722.243 -2.0497 -1.11846 0
M  V30 7576 C 723.224 -0.938278 -1.41882 0
M  V30 7577 O 724.409 -1.20943 -1.51942 0
M  V30 7578 C 721.539 -2.47264 -2.43881 0
M  V30 7579 C 720.493 -3.62053 -2.28257 0
M  V30 7580 C 719.819 -3.90318 -3.65453 0
M  V30 7581 C 721.119 -4.93005 -1.72461 0
M  V30 7582 H 722.813 -2.90567 -0.721888 0
M  V30 7583 H 720.359 -1.39786 -0.345803 0
M  V30 7584 H 722.312 -2.7922 -3.15617 0
M  V30 7585 H 721.036 -1.58664 -2.8547 0
M  V30 7586 H 719.695 -3.30341 -1.58967 0
M  V30 7587 H 719.343 -2.98889 -4.04567 0
M  V30 7588 H 719.043 -4.67597 -3.55846 0
M  V30 7589 H 720.567 -4.24747 -4.3866 0
M  V30 7590 H 721.981 -5.23354 -2.34036 0
M  V30 7591 H 720.378 -5.74436 -1.73618 0
M  V30 7592 H 721.448 -4.80053 -0.683898 0
M  V30 7593 N 722.791 0.367657 -1.53252 0
M  V30 7594 C 724.031 1.11923 -1.71034 0
M  V30 7595 C 724.395 1.86618 -0.45143 0
M  V30 7596 O 725.596 2.63996 -0.505915 0
M  V30 7597 C 723.867 2.05461 -2.92439 0
M  V30 7598 S 725.426 2.88167 -3.30916 0
M  V30 7599 H 722.244 0.378549 -0.601848 0
M  V30 7600 H 724.846 0.400757 -1.91348 0
M  V30 7601 H 723.55 1.49346 -3.82262 0
M  V30 7602 H 723.081 2.81784 -2.7452 0
M  V30 7603 H 725.096 4.07746 -2.82767 0
M  V30 7604 N 724.269 1.44576 0.627338 0
M  V30 7605 C 725.199 1.54562 1.75022 0
M  V30 7606 C 726.18 0.398378 1.65369 0
M  V30 7607 O 727.365 0.61899 1.84071 0
M  V30 7608 C 724.495 1.49309 3.13567 0
M  V30 7609 C 723.449 2.62549 3.38012 0
M  V30 7610 C 722.775 2.42348 4.76625 0
M  V30 7611 C 724.075 4.04678 3.30202 0
M  V30 7612 H 725.769 2.4855 1.66922 0
M  V30 7613 H 723.315 1.19624 0.801636 0
M  V30 7614 H 725.268 1.54895 3.919 0
M  V30 7615 H 723.992 0.518392 3.2246 0
M  V30 7616 H 722.651 2.56358 2.62061 0
M  V30 7617 H 722.299 1.43062 4.82226 0
M  V30 7618 H 721.999 3.18273 4.93939 0
M  V30 7619 H 723.523 2.49758 5.57183 0
M  V30 7620 H 724.937 4.12217 3.98435 0
M  V30 7621 H 723.334 4.80836 3.5905 0
M  V30 7622 H 724.404 4.2798 2.27949 0
M  V30 7623 N 725.747 -0.868086 1.31537 0
M  V30 7624 C 726.995 -1.61807 1.21091 0
M  V30 7625 C 727.316 -1.93631 -0.230623 0
M  V30 7626 O 726.586 -1.5846 -1.15183 0
M  V30 7627 H 725.166 -0.599854 0.445178 0
M  V30 7628 H 727.828 -1.03915 1.64887 0
M  V30 7629 H 726.924 -2.56088 1.78396 0
M  V30 7630 N 727.225 -1.14528 -1.08264 0
M  V30 7631 C 728.173 -0.829201 -2.17318 0
M  V30 7632 C 729.167 0.193521 -1.68291 0
M  V30 7633 O 730.373 0.0494744 -1.79932 0
M  V30 7634 H 726.748 -0.250435 -0.709074 0
M  V30 7635 H 728.719 -1.75683 -2.41201 0
M  V30 7636 C 727.468 -0.324663 -3.46181 0
M  V30 7637 H 726.791 -1.10299 -3.84284 0
M  V30 7638 H 728.231 -0.142059 -4.23762 0
M  V30 7639 C 726.69 0.952033 -3.23169 0
M  V30 7640 O 727.22 2.02549 -3.46896 0
M  V30 7641 N 725.426 0.887854 -2.76705 0
M  V30 7642 H 724.973 0.0141402 -2.57596 0
M  V30 7643 H 724.931 1.74263 -2.61686 0
M  V30 7644 N 728.703 1.26451 -0.940633 0
M  V30 7645 C 729.653 2.24086 -0.420669 0
M  V30 7646 C 730.637 1.53501 0.482301 0
M  V30 7647 O 731.829 1.74127 0.317636 0
M  V30 7648 C 728.958 3.41866 0.313452 0
M  V30 7649 C 728.044 4.19737 -0.606779 0
M  V30 7650 N 728.435 4.7521 -1.73232 0
M  V30 7651 C 726.733 4.44091 -0.41226 0
M  V30 7652 C 727.434 5.34052 -2.30572 0
M  V30 7653 N 726.41 5.1971 -1.59381 0
M  V30 7654 H 730.212 2.64569 -1.27986 0
M  V30 7655 H 727.726 1.4153 -0.796436 0
M  V30 7656 H 729.723 4.1093 0.702991 0
M  V30 7657 H 728.383 3.0291 1.16942 0
M  V30 7658 H 729.394 4.72769 -2.11447 0
M  V30 7659 H 726.071 4.1556 0.401984 0
M  V30 7660 H 727.461 5.87845 -3.25404 0
M  V30 7661 N 730.181 0.707592 1.40822 0
M  V30 7662 C 731.421 0.247986 2.0289 0
M  V30 7663 C 731.785 -1.13484 1.54872 0
M  V30 7664 O 732.986 -1.69098 2.08948 0
M  V30 7665 C 731.257 0.316326 3.55997 0
M  V30 7666 S 732.816 -0.0674698 4.38748 0
M  V30 7667 H 729.634 0.09895 0.704081 0
M  V30 7668 H 732.236 0.928039 1.72069 0
M  V30 7669 H 730.94 1.32453 3.88438 0
M  V30 7670 H 730.471 -0.382474 3.91536 0
M  V30 7671 H 732.486 -1.29182 4.79089 0
M  V30 7672 N 731.66 -1.50943 0.453197 0
M  V30 7673 C 732.885 -2.07116 -0.108463 0
M  V30 7674 C 733.31 -1.31681 -1.3432 0
M  V30 7675 O 732.668 -0.359256 -1.77705 0
M  V30 7676 C 732.716 -3.58447 -0.393424 0
M  V30 7677 O 731.82 -3.85038 -1.47714 0
M  V30 7678 H 731.161 -0.66398 0.0050993 0
M  V30 7679 H 733.691 -1.94362 0.639095 0
M  V30 7680 H 733.701 -4.02961 -0.639222 0
M  V30 7681 H 732.376 -4.12774 0.508946 0
M  V30 7682 H 730.953 -3.52376 -1.22006 0
M  V30 7683 N 733.138 -0.185124 -1.56509 0
M  V30 7684 C 734.068 0.735098 -2.21627 0
M  V30 7685 C 735.049 1.2288 -1.1762 0
M  V30 7686 O 736.234 1.27945 -1.46095 0
M  V30 7687 C 733.364 1.95889 -2.86783 0
M  V30 7688 C 732.318 1.6005 -3.96948 0
M  V30 7689 C 731.644 2.90009 -4.4922 0
M  V30 7690 C 732.944 0.818008 -5.15855 0
M  V30 7691 H 734.638 0.192274 -2.98782 0
M  V30 7692 H 732.184 0.0910393 -1.43712 0
M  V30 7693 H 734.137 2.60779 -3.31017 0
M  V30 7694 H 732.861 2.52608 -2.07018 0
M  V30 7695 H 731.52 0.975237 -3.5339 0
M  V30 7696 H 731.168 3.44797 -3.6623 0
M  V30 7697 H 730.868 2.66778 -5.23549 0
M  V30 7698 H 732.392 3.55904 -4.9615 0
M  V30 7699 H 733.806 1.36979 -5.56695 0
M  V30 7700 H 732.203 0.684207 -5.96187 0
M  V30 7701 H 733.273 -0.182939 -4.84555 0
M  V30 7702 N 734.616 1.57351 0.0885366 0
M  V30 7703 C 736.027 1.75303 0.642308 0
M  V30 7704 C 736.378 0.808238 1.78779 0
M  V30 7705 O 735.503 -0.01171 2.16397 0
M  V30 7706 C 736.098 3.17885 1.17194 0
M  V30 7707 C 734.657 3.37239 1.67172 0
M  V30 7708 C 733.804 2.7108 0.584045 0
M  V30 7709 H 736.755 1.58103 -0.137567 0
M  V30 7710 H 736.776 3.2112 2.04114 0
M  V30 7711 H 736.288 3.86625 0.338024 0
M  V30 7712 H 734.389 2.73588 2.52943 0
M  V30 7713 H 734.502 4.45594 1.76019 0
M  V30 7714 H 732.866 2.33161 1.02508 0
M  V30 7715 H 733.649 3.42464 -0.239403 0
M  V30 7716 N 736.094 -0.359525 1.53444 0
M  V30 7717 C 737.026 -1.46098 1.76602 0
M  V30 7718 C 738.039 -1.49395 0.646912 0
M  V30 7719 O 739.228 -1.52765 0.923307 0
M  V30 7720 C 736.328 -2.84836 1.83635 0
M  V30 7721 C 735.501 -3.05164 3.13358 0
M  V30 7722 C 734.56 -4.24051 3.11556 0
M  V30 7723 O 733.586 -4.18935 3.85334 0
M  V30 7724 N 734.788 -5.31775 2.328 0
M  V30 7725 H 737.553 -1.2661 2.71643 0
M  V30 7726 H 735.114 -0.549294 1.52297 0
M  V30 7727 H 737.106 -3.62516 1.799 0
M  V30 7728 H 735.676 -2.97542 0.958509 0
M  V30 7729 H 734.896 -2.15091 3.30348 0
M  V30 7730 H 736.184 -3.15619 3.99076 0
M  V30 7731 H 735.582 -5.38796 1.7238 0
M  V30 7732 H 734.139 -6.0801 2.34877 0
M  V30 7733 N 737.572 -1.44907 -0.619662 0
M  V30 7734 C 738.504 -1.48652 -1.74457 0
M  V30 7735 C 739.517 -0.378596 -1.58337 0
M  V30 7736 O 740.706 -0.644987 -1.6644 0
M  V30 7737 C 737.806 -1.31568 -3.12319 0
M  V30 7738 C 736.979 -2.55816 -3.54792 0
M  V30 7739 C 736.038 -2.33465 -4.71573 0
M  V30 7740 O 735.064 -3.07015 -4.79302 0
M  V30 7741 N 736.266 -1.37254 -5.6404 0
M  V30 7742 H 739.031 -2.45632 -1.71712 0
M  V30 7743 H 736.592 -1.40492 -0.804582 0
M  V30 7744 H 738.584 -1.14445 -3.88181 0
M  V30 7745 H 737.154 -0.429095 -3.09641 0
M  V30 7746 H 736.374 -2.88137 -2.69018 0
M  V30 7747 H 737.662 -3.38431 -3.79924 0
M  V30 7748 H 737.06 -0.765309 -5.60499 0
M  V30 7749 H 735.617 -1.26106 -6.39485 0
M  V30 7750 N 739.05 0.861098 -1.31996 0
M  V30 7751 C 739.997 1.96912 -1.20392 0
M  V30 7752 C 740.967 1.65869 -0.0875899 0
M  V30 7753 O 742.152 1.88992 -0.262011 0
M  V30 7754 C 739.292 3.32435 -0.926335 0
M  V30 7755 C 738.405 3.76018 -2.12684 0
M  V30 7756 C 737.54 5.00301 -1.78529 0
M  V30 7757 C 736.579 5.36357 -2.94937 0
M  V30 7758 N 735.716 6.51818 -2.60917 0
M  V30 7759 H 740.556 2.06169 -2.1517 0
M  V30 7760 H 738.093 1.00917 -1.07024 0
M  V30 7761 H 740.051 4.10478 -0.745917 0
M  V30 7762 H 738.681 3.22796 -0.0153578 0
M  V30 7763 H 737.733 2.93683 -2.41774 0
M  V30 7764 H 739.045 3.98664 -2.99781 0
M  V30 7765 H 738.199 5.86034 -1.57001 0
M  V30 7766 H 736.938 4.79578 -0.886356 0
M  V30 7767 H 735.943 4.49139 -3.17103 0
M  V30 7768 H 737.168 5.59041 -3.85552 0
M  V30 7769 H 735.114 6.32624 -1.73558 0
M  V30 7770 H 735.031 6.7445 -3.41544 0
M  V30 7771 H 736.299 7.4072 -2.42804 0
M  V30 7772 N 740.528 1.15101 1.07655 0
M  V30 7773 C 741.774 0.925343 1.80458 0
M  V30 7774 C 742.107 -0.546354 1.86356 0
M  V30 7775 O 741.382 -1.40496 1.34503 0
M  V30 7776 C 741.665 1.53646 3.25676 0
M  V30 7777 C 741.518 3.07854 3.27942 0
M  V30 7778 C 742.837 1.21968 4.22861 0
M  V30 7779 H 739.956 0.337592 0.655134 0
M  V30 7780 H 742.598 1.42217 1.25993 0
M  V30 7781 H 740.748 1.11395 3.72187 0
M  V30 7782 H 742.42 3.58989 2.89697 0
M  V30 7783 H 740.663 3.41904 2.66991 0
M  V30 7784 H 741.334 3.45725 4.30324 0
M  V30 7785 H 743.81 1.5851 3.84726 0
M  V30 7786 H 742.686 1.67349 5.22767 0
M  V30 7787 H 742.947 0.136207 4.4189 0
M  V30 7788 N 742.006 -1.2595 0.947325 0
M  V30 7789 C 742.939 -2.24559 0.406009 0
M  V30 7790 C 743.917 -1.54441 -0.508598 0
M  V30 7791 O 745.101 -1.83181 -0.444644 0
M  V30 7792 C 742.228 -3.36136 -0.415987 0
M  V30 7793 C 741.274 -4.24245 0.437969 0
M  V30 7794 S 742.107 -5.01948 1.86572 0
M  V30 7795 C 743.263 -6.16997 1.05194 0
M  V30 7796 H 743.496 -2.70128 1.24171 0
M  V30 7797 H 741.029 -1.34912 0.750874 0
M  V30 7798 H 742.987 -4.00861 -0.88433 0
M  V30 7799 H 741.648 -2.89167 -1.22643 0
M  V30 7800 H 740.841 -5.03634 -0.192127 0
M  V30 7801 H 740.443 -3.64416 0.841235 0
M  V30 7802 H 742.735 -6.76848 0.297126 0
M  V30 7803 H 743.678 -6.84324 1.8195 0
M  V30 7804 H 744.086 -5.61458 0.585294 0
M  V30 7805 N 743.484 -0.715051 -1.40445 0
M  V30 7806 C 744.447 -0.0708726 -2.2909 0
M  V30 7807 C 745.447 0.687926 -1.45342 0
M  V30 7808 O 746.637 0.519908 -1.66261 0
M  V30 7809 C 743.769 0.909528 -3.28543 0
M  V30 7810 H 744.962 -0.851611 -2.87555 0
M  V30 7811 H 742.515 -0.479674 -1.48758 0
M  V30 7812 H 743.25 1.71734 -2.75096 0
M  V30 7813 H 743.035 0.368318 -3.90366 0
M  V30 7814 H 744.525 1.35744 -3.94922 0
M  V30 7815 N 744.962 1.50701 -0.461195 0
M  V30 7816 C 745.894 2.26124 0.374244 0
M  V30 7817 C 746.907 1.31064 0.965715 0
M  V30 7818 O 748.096 1.56647 0.855801 0
M  V30 7819 C 745.196 3.01996 1.5379 0
M  V30 7820 C 744.369 4.24336 1.06101 0
M  V30 7821 C 743.428 4.82585 2.09756 0
M  V30 7822 O 742.454 5.43775 1.68219 0
M  V30 7823 N 743.656 4.68712 3.42475 0
M  V30 7824 H 746.421 2.9846 -0.2723 0
M  V30 7825 H 743.982 1.59256 -0.291415 0
M  V30 7826 H 745.974 3.37846 2.22806 0
M  V30 7827 H 744.544 2.32521 2.08933 0
M  V30 7828 H 743.764 3.93707 0.197085 0
M  V30 7829 H 745.052 5.03678 0.720156 0
M  V30 7830 H 744.45 4.20026 3.78938 0
M  V30 7831 H 743.007 5.08858 4.07317 0
M  V30 7832 N 746.441 0.193421 1.56409 0
M  V30 7833 C 747.373 -0.759944 2.16235 0
M  V30 7834 C 748.386 -1.17797 1.12373 0
M  V30 7835 O 749.575 -1.11399 1.39472 0
M  V30 7836 C 746.675 -2.03735 2.70823 0
M  V30 7837 C 745.848 -1.77939 3.9957 0
M  V30 7838 C 744.907 -2.90111 4.39001 0
M  V30 7839 O 743.933 -2.59791 5.06456 0
M  V30 7840 N 745.135 -4.18426 4.02368 0
M  V30 7841 H 747.9 -0.248348 2.98669 0
M  V30 7842 H 745.461 0.0113966 1.61896 0
M  V30 7843 H 747.453 -2.77914 2.94187 0
M  V30 7844 H 746.023 -2.46022 1.92852 0
M  V30 7845 H 745.243 -0.875491 3.84355 0
M  V30 7846 H 746.531 -1.58099 4.83614 0
M  V30 7847 H 745.929 -4.45913 3.48106 0
M  V30 7848 H 744.486 -4.89237 4.30686 0
M  V30 7849 N 747.919 -1.57396 -0.0801906 0
M  V30 7850 C 748.852 -1.98386 -1.12774 0
M  V30 7851 C 749.83 -0.859423 -1.38031 0
M  V30 7852 O 751.014 -1.12101 -1.51544 0
M  V30 7853 C 748.141 -2.3134 -2.47386 0
M  V30 7854 C 747.187 -3.53706 -2.38316 0
M  V30 7855 S 748.02 -5.04862 -1.78534 0
M  V30 7856 C 749.176 -5.41008 -3.1474 0
M  V30 7857 H 749.409 -2.86929 -0.778382 0
M  V30 7858 H 746.942 -1.51682 -0.28842 0
M  V30 7859 H 748.9 -2.51 -3.24822 0
M  V30 7860 H 747.561 -1.4334 -2.79486 0
M  V30 7861 H 746.754 -3.74253 -3.37566 0
M  V30 7862 H 746.356 -3.33632 -1.69014 0
M  V30 7863 H 748.648 -5.38565 -4.1104 0
M  V30 7864 H 749.591 -6.41885 -2.98981 0
M  V30 7865 H 749.999 -4.68467 -3.14958 0
M  V30 7866 N 749.397 0.351382 -1.53633 0
M  V30 7867 C 750.344 1.43115 -1.81071 0
M  V30 7868 C 751.314 1.52601 -0.655913 0
M  V30 7869 O 752.499 1.68264 -0.89955 0
M  V30 7870 C 749.639 2.79874 -2.01903 0
M  V30 7871 C 748.752 2.79242 -3.29618 0
M  V30 7872 C 747.887 4.07667 -3.40559 0
M  V30 7873 C 746.926 4.01233 -4.62254 0
M  V30 7874 N 746.063 5.21334 -4.70271 0
M  V30 7875 H 750.903 1.19017 -2.73201 0
M  V30 7876 H 748.44 0.576691 -1.35324 0
M  V30 7877 H 750.398 3.5934 -2.11969 0
M  V30 7878 H 749.028 3.0234 -1.13094 0
M  V30 7879 H 748.08 1.91927 -3.28433 0
M  V30 7880 H 749.392 2.70363 -4.19172 0
M  V30 7881 H 748.546 4.95555 -3.50015 0
M  V30 7882 H 747.285 4.19317 -2.49047 0
M  V30 7883 H 746.29 3.11732 -4.52884 0
M  V30 7884 H 747.515 3.91173 -5.55122 0
M  V30 7885 H 745.461 5.33543 -3.81665 0
M  V30 7886 H 745.378 5.14681 -5.5375 0
M  V30 7887 H 746.646 6.11014 -4.84027 0
M  V30 7888 N 750.875 1.45233 0.611969 0
M  V30 7889 C 751.822 1.5357 1.72293 0
M  V30 7890 C 752.792 0.381912 1.6165 0
M  V30 7891 O 753.977 0.594765 1.81293 0
M  V30 7892 C 751.117 1.50419 3.10593 0
M  V30 7893 C 750.23 2.76316 3.32074 0
M  V30 7894 C 749.365 2.64866 4.60456 0
M  V30 7895 C 748.404 3.85838 4.7518 0
M  V30 7896 N 747.541 3.72949 5.94856 0
M  V30 7897 H 752.381 2.4848 1.64504 0
M  V30 7898 H 749.918 1.23302 0.802191 0
M  V30 7899 H 751.876 1.4658 3.90602 0
M  V30 7900 H 750.506 0.590621 3.17351 0
M  V30 7901 H 749.558 2.90261 2.45872 0
M  V30 7902 H 750.87 3.66055 3.38829 0
M  V30 7903 H 750.024 2.58969 5.48653 0
M  V30 7904 H 748.763 1.72719 4.56092 0
M  V30 7905 H 747.768 3.92099 3.85407 0
M  V30 7906 H 748.993 4.79045 4.81344 0
M  V30 7907 H 746.939 2.83567 5.91545 0
M  V30 7908 H 746.856 4.56319 6.02751 0
M  V30 7909 H 748.124 3.70976 6.85563 0
M  V30 7910 N 752.353 -0.854086 1.3245 0
M  V30 7911 C 753.599 -1.61069 1.23225 0
M  V30 7912 C 753.932 -1.93111 -0.205349 0
M  V30 7913 O 753.207 -1.57397 -1.14265 0
M  V30 7914 C 753.49 -2.93065 2.09249 0
M  V30 7915 C 753.343 -2.67801 3.6139 0
M  V30 7916 C 754.662 -3.94341 1.95406 0
M  V30 7917 H 751.781 -0.584449 0.448986 0
M  V30 7918 H 754.423 -0.986189 1.62402 0
M  V30 7919 H 752.573 -3.46364 1.75967 0
M  V30 7920 H 754.245 -2.21052 4.04887 0
M  V30 7921 H 752.488 -2.01756 3.84027 0
M  V30 7922 H 753.159 -3.6179 4.16907 0
M  V30 7923 H 755.635 -3.50301 2.24562 0
M  V30 7924 H 754.511 -4.84555 2.57872 0
M  V30 7925 H 754.772 -4.32382 0.921865 0
M  V30 7926 N 753.831 -1.1567 -1.07043 0
M  V30 7927 C 755.078 -0.933517 -1.79699 0
M  V30 7928 C 755.406 0.539162 -1.86878 0
M  V30 7929 O 754.661 1.41592 -1.35093 0
M  V30 7930 C 754.96 -1.49677 -3.24548 0
M  V30 7931 C 754.626 -2.99047 -3.37463 0
M  V30 7932 C 753.288 -3.39824 -3.40695 0
M  V30 7933 C 755.64 -3.95027 -3.40004 0
M  V30 7934 C 752.968 -4.75215 -3.44075 0
M  V30 7935 C 755.32 -5.30295 -3.44921 0
M  V30 7936 C 753.984 -5.70562 -3.46432 0
M  V30 7937 H 753.254 -0.341598 -0.657565 0
M  V30 7938 H 755.901 -1.44263 -1.25938 0
M  V30 7939 H 754.206 -0.908915 -3.81111 0
M  V30 7940 H 755.903 -1.29986 -3.79348 0
M  V30 7941 H 752.493 -2.6653 -3.35648 0
M  V30 7942 H 756.677 -3.64596 -3.36725 0
M  V30 7943 H 751.933 -5.05754 -3.43545 0
M  V30 7944 H 756.107 -6.0446 -3.45833 0
M  V30 7945 H 753.734 -6.75456 -3.48803 0
M  V30 7946 N 755.309 1.25446 -0.953992 0
M  V30 7947 C 756.557 1.92762 -0.607227 0
M  V30 7948 C 756.878 1.7509 0.858399 0
M  V30 7949 O 756.148 1.11416 1.61132 0
M  V30 7950 H 754.728 0.713377 -0.221591 0
M  V30 7951 H 757.39 1.52625 -1.21209 0
M  V30 7952 H 756.486 3.00695 -0.835998 0
M  V30 7953 N 756.787 0.722489 1.40064 0
M  V30 7954 C 757.735 0.063329 2.32514 0
M  V30 7955 C 758.729 -0.73953 1.52405 0
M  V30 7956 O 759.935 -0.642122 1.68157 0
M  V30 7957 H 756.31 0.00167692 0.751998 0
M  V30 7958 H 758.281 0.859656 2.85749 0
M  V30 7959 C 757.03 -0.839219 3.3742 0
M  V30 7960 H 756.353 -0.230836 3.99133 0
M  V30 7961 H 757.793 -1.26827 4.04587 0
M  V30 7962 C 756.252 -1.96783 2.73456 0
M  V30 7963 O 756.782 -3.05933 2.60323 0
M  V30 7964 N 754.988 -1.75351 2.31734 0
M  V30 7965 H 754.535 -0.865787 2.42615 0
M  V30 7966 H 754.493 -2.51043 1.89275 0
M  V30 7967 N 758.265 -1.50454 0.469181 0
M  V30 7968 C 759.212 -2.28486 -0.325982 0
M  V30 7969 C 760.182 -1.33455 -0.988893 0
M  V30 7970 O 761.367 -1.6239 -1.0017 0
M  V30 7971 C 758.507 -3.15288 -1.40313 0
M  V30 7972 C 757.62 -4.25348 -0.755183 0
M  V30 7973 C 756.755 -4.9941 -1.81006 0
M  V30 7974 C 755.794 -6.01348 -1.14226 0
M  V30 7975 N 754.931 -6.68695 -2.1399 0
M  V30 7976 H 759.771 -2.95987 0.345753 0
M  V30 7977 H 757.308 -1.45965 0.182355 0
M  V30 7978 H 759.266 -3.63964 -2.03927 0
M  V30 7979 H 757.896 -2.49837 -2.04405 0
M  V30 7980 H 756.948 -3.80399 -0.00651901 0
M  V30 7981 H 758.26 -4.98279 -0.227941 0
M  V30 7982 H 757.414 -5.51794 -2.52206 0
M  V30 7983 H 756.153 -4.26181 -2.3711 0
M  V30 7984 H 755.158 -5.48225 -0.415876 0
M  V30 7985 H 756.383 -6.76548 -0.588135 0
M  V30 7986 H 754.329 -5.98258 -2.69115 0
M  V30 7987 H 754.246 -7.37495 -1.66246 0
M  V30 7988 H 755.514 -7.25697 -2.84576 0
M  V30 7989 N 759.743 -0.201713 -1.56304 0
M  V30 7990 C 760.673 0.71155 -2.22394 0
M  V30 7991 C 761.654 1.21625 -1.18917 0
M  V30 7992 O 762.839 1.26388 -1.47444 0
M  V30 7993 C 759.969 1.92837 -2.88845 0
M  V30 7994 C 758.923 1.55831 -3.98623 0
M  V30 7995 C 758.249 2.85228 -4.52271 0
M  V30 7996 C 759.549 0.763249 -5.16693 0
M  V30 7997 H 761.243 0.160573 -2.98969 0
M  V30 7998 H 758.789 0.0757916 -1.438 0
M  V30 7999 H 760.742 2.57253 -3.33764 0
M  V30 8000 H 759.466 2.50398 -2.09686 0
M  V30 8001 H 758.125 0.9377 -3.54405 0
M  V30 8002 H 757.773 3.40893 -3.69866 0
M  V30 8003 H 757.473 2.6121 -5.26349 0
M  V30 8004 H 758.997 3.50622 -4.99897 0
M  V30 8005 H 760.411 1.31066 -5.58117 0
M  V30 8006 H 758.808 0.620935 -5.96879 0
M  V30 8007 H 759.878 -0.234322 -4.84334 0
M  V30 8008 N 761.222 1.57436 0.0718424 0
M  V30 8009 C 762.452 1.91196 0.782795 0
M  V30 8010 C 762.86 0.795927 1.71644 0
M  V30 8011 O 762.203 -0.239604 1.82131 0
M  V30 8012 C 762.265 3.20421 1.63005 0
M  V30 8013 C 761.929 4.48724 0.865782 0
M  V30 8014 C 762.926 5.19571 0.185051 0
M  V30 8015 C 760.611 4.95345 0.832971 0
M  V30 8016 C 762.605 6.3529 -0.518264 0
M  V30 8017 C 760.292 6.1097 0.125884 0
M  V30 8018 C 761.29 6.80794 -0.548533 0
M  V30 8019 O 760.978 7.94213 -1.24423 0
M  V30 8020 H 760.71 0.636486 0.227731 0
M  V30 8021 H 763.264 2.05348 0.0464187 0
M  V30 8022 H 761.494 3.02478 2.40923 0
M  V30 8023 H 763.183 3.39831 2.21968 0
M  V30 8024 H 763.949 4.8458 0.201707 0
M  V30 8025 H 759.828 4.40871 1.34737 0
M  V30 8026 H 763.372 6.89725 -1.04523 0
M  V30 8027 H 759.269 6.45411 0.107155 0
M  V30 8028 H 760.037 8.10331 -1.1535 0
M  V30 8029 N 762.7 -0.34323 1.53817 0
M  V30 8030 C 763.928 -1.10348 1.75017 0
M  V30 8031 C 764.343 -1.82345 0.489475 0
M  V30 8032 O 763.7 -1.74362 -0.538886 0
M  V30 8033 C 763.751 -2.11672 2.93048 0
M  V30 8034 O 763.472 -1.42603 4.14241 0
M  V30 8035 C 764.973 -3.0007 3.26301 0
M  V30 8036 H 762.193 -0.329056 0.584776 0
M  V30 8037 H 764.737 -0.395339 2.00642 0
M  V30 8038 H 762.892 -2.78051 2.69753 0
M  V30 8039 H 763.306 -2.10294 4.80496 0
M  V30 8040 H 764.78 -3.67101 4.12239 0
M  V30 8041 H 765.257 -3.66105 2.42618 0
M  V30 8042 H 765.863 -2.3928 3.51604 0
M  V30 8043 N 764.178 -1.45556 -0.604258 0
M  V30 8044 C 765.088 -1.57025 -1.74299 0
M  V30 8045 C 766.104 -0.45456 -1.67958 0
M  V30 8046 O 767.28 -0.715711 -1.88254 0
M  V30 8047 C 764.345 -1.53702 -3.10768 0
M  V30 8048 C 763.406 -2.76335 -3.28538 0
M  V30 8049 C 762.639 -2.73161 -4.58496 0
M  V30 8050 O 762.862 -1.80678 -5.41028 0
M  V30 8051 O 761.796 -3.64409 -4.79051 0
M  V30 8052 H 765.622 -2.53284 -1.67573 0
M  V30 8053 H 763.207 -1.28104 -0.768745 0
M  V30 8054 H 765.089 -1.54468 -3.92068 0
M  V30 8055 H 763.764 -0.605957 -3.17978 0
M  V30 8056 H 762.671 -2.8113 -2.46813 0
M  V30 8057 H 764.004 -3.68578 -3.26207 0
M  V30 8058 N 765.656 0.84705 -1.32902 0
M  V30 8059 C 766.619 1.9378 -1.224 0
M  V30 8060 C 767.619 1.60144 -0.145108 0
M  V30 8061 O 768.809 1.69638 -0.396058 0
M  V30 8062 C 765.941 3.29234 -0.884174 0
M  V30 8063 H 767.134 2.04518 -2.19345 0
M  V30 8064 H 764.687 1.03816 -1.16842 0
M  V30 8065 H 765.422 3.24193 0.0831277 0
M  V30 8066 H 765.207 3.55026 -1.6643 0
M  V30 8067 H 766.697 4.09162 -0.835226 0
M  V30 8068 N 767.134 1.16236 1.06428 0
M  V30 8069 C 768.545 0.950942 1.60667 0
M  V30 8070 C 768.896 -0.505491 1.89576 0
M  V30 8071 O 768.021 -1.37843 1.66818 0
M  V30 8072 C 768.616 1.71982 2.91904 0
M  V30 8073 C 767.175 1.55342 3.4285 0
M  V30 8074 C 766.322 1.72942 2.16763 0
M  V30 8075 H 769.273 1.31126 0.893959 0
M  V30 8076 H 769.294 1.19483 3.61253 0
M  V30 8077 H 768.806 2.77978 2.70831 0
M  V30 8078 H 766.907 0.5178 3.68985 0
M  V30 8079 H 767.02 2.33643 4.18267 0
M  V30 8080 H 765.384 1.15673 2.26918 0
M  V30 8081 H 766.167 2.80324 1.98175 0
M  V30 8082 N 768.612 -1.24939 0.960631 0
M  V30 8083 C 769.542 -2.28 0.503815 0
M  V30 8084 C 770.523 -1.63959 -0.452928 0
M  V30 8085 O 771.708 -1.91009 -0.350585 0
M  V30 8086 C 768.838 -3.46643 -0.213535 0
M  V30 8087 C 767.792 -4.22903 0.658535 0
M  V30 8088 C 767.118 -5.34363 -0.189902 0
M  V30 8089 C 768.418 -4.84949 1.93963 0
M  V30 8090 H 770.112 -2.66462 1.36521 0
M  V30 8091 H 767.658 -1.28093 0.657897 0
M  V30 8092 H 769.611 -4.1787 -0.544286 0
M  V30 8093 H 768.335 -3.07187 -1.10923 0
M  V30 8094 H 766.994 -3.53467 0.972455 0
M  V30 8095 H 766.642 -4.91147 -1.08553 0
M  V30 8096 H 766.342 -5.86302 0.390331 0
M  V30 8097 H 767.866 -6.0842 -0.515484 0
M  V30 8098 H 769.28 -5.48288 1.67491 0
M  V30 8099 H 767.677 -5.47091 2.46601 0
M  V30 8100 H 768.747 -4.06799 2.639 0
M  V30 8101 N 770.09 -0.729906 -1.39679 0
M  V30 8102 C 771.501 -0.346241 -1.83461 0
M  V30 8103 C 771.852 1.1215 -1.60987 0
M  V30 8104 O 770.977 1.86456 -1.09832 0
M  V30 8105 C 771.572 -0.621656 -3.33048 0
M  V30 8106 C 770.131 -0.291543 -3.75269 0
M  V30 8107 C 769.278 -0.886844 -2.62736 0
M  V30 8108 H 772.229 -0.927949 -1.28743 0
M  V30 8109 H 772.25 0.108301 -3.80346 0
M  V30 8110 H 771.762 -1.68996 -3.49373 0
M  V30 8111 H 769.863 0.771133 -3.64533 0
M  V30 8112 H 769.976 -0.770544 -4.72863 0
M  V30 8113 H 768.34 -0.313839 -2.52759 0
M  V30 8114 H 769.123 -1.95971 -2.81869 0
M  V30 8115 N 771.568 1.50203 -0.477153 0
M  V30 8116 C 772.793 2.07263 0.0754986 0
M  V30 8117 C 773.218 1.33801 1.32208 0
M  V30 8118 O 772.576 0.387482 1.77111 0
M  V30 8119 C 772.624 3.59028 0.336348 0
M  V30 8120 O 771.728 3.87339 1.4157 0
M  V30 8121 H 771.069 0.663815 -0.015662 0
M  V30 8122 H 773.599 1.93321 -0.669936 0
M  V30 8123 H 773.609 4.03927 0.575034 0
M  V30 8124 H 772.284 4.11912 -0.574551 0
M  V30 8125 H 770.861 3.54272 1.16385 0
M  V30 8126 N 773.046 0.209999 1.56195 0
M  V30 8127 C 773.956 -0.716459 2.23392 0
M  V30 8128 C 774.972 -1.22291 1.23778 0
M  V30 8129 O 776.148 -1.26694 1.56558 0
M  V30 8130 C 773.213 -1.91261 2.89172 0
M  V30 8131 C 772.274 -1.44927 4.04097 0
M  V30 8132 C 771.507 -2.5884 4.66731 0
M  V30 8133 O 771.73 -3.76693 4.2832 0
M  V30 8134 O 770.664 -2.30701 5.55932 0
M  V30 8135 H 774.49 -0.174089 3.03201 0
M  V30 8136 H 772.075 -0.0199505 1.49387 0
M  V30 8137 H 773.957 -2.6114 3.30733 0
M  V30 8138 H 772.632 -2.4433 2.12331 0
M  V30 8139 H 771.539 -0.718839 3.67129 0
M  V30 8140 H 772.872 -0.965084 4.82646 0
M  V30 8141 N 774.524 -1.57472 -0.0634922 0
M  V30 8142 C 775.749 -1.92273 -0.77756 0
M  V30 8143 C 776.174 -0.807141 -1.69902 0
M  V30 8144 O 775.532 0.239523 -1.79711 0
M  V30 8145 C 775.58 -3.26054 -1.54017 0
M  V30 8146 O 774.684 -3.15873 -2.65138 0
M  V30 8147 H 774.025 -0.629389 -0.211579 0
M  V30 8148 H 776.555 -2.04579 -0.0292523 0
M  V30 8149 H 776.565 -3.60127 -1.91763 0
M  V30 8150 H 775.24 -4.06824 -0.864128 0
M  V30 8151 H 773.817 -2.93373 -2.30189 0
M  V30 8152 N 776.003 0.335068 -1.53997 0
M  V30 8153 C 777.233 1.0926 -1.75345 0
M  V30 8154 C 777.641 1.82568 -0.496545 0
M  V30 8155 O 776.984 1.75525 0.541897 0
M  V30 8156 C 777.046 2.14473 -2.88516 0
M  V30 8157 C 776.71 1.60665 -4.27827 0
M  V30 8158 C 777.707 1.05448 -5.09094 0
M  V30 8159 C 775.392 1.65255 -4.74337 0
M  V30 8160 C 777.386 0.555372 -6.34976 0
M  V30 8161 C 775.073 1.14956 -6.0019 0
M  V30 8162 C 776.071 0.601907 -6.80343 0
M  V30 8163 O 775.759 0.106445 -8.0383 0
M  V30 8164 H 775.491 0.331329 -0.589234 0
M  V30 8165 H 778.045 0.39042 -2.01655 0
M  V30 8166 H 776.275 2.88274 -2.5775 0
M  V30 8167 H 777.964 2.75857 -2.97755 0
M  V30 8168 H 778.73 1.01218 -4.74321 0
M  V30 8169 H 774.609 2.06822 -4.12002 0
M  V30 8170 H 778.153 0.127245 -6.97484 0
M  V30 8171 H 774.05 1.18891 -6.34457 0
M  V30 8172 H 774.818 0.222944 -8.18196 0
M  V30 8173 N 777.481 1.45874 0.596531 0
M  V30 8174 C 778.411 1.5824 1.71705 0
M  V30 8175 C 779.392 0.433366 1.64487 0
M  V30 8176 O 780.577 0.657895 1.82717 0
M  V30 8177 C 777.707 1.55927 3.10329 0
M  V30 8178 C 776.661 2.69659 3.32367 0
M  V30 8179 C 775.987 2.52403 4.71377 0
M  V30 8180 C 777.287 4.11591 3.21544 0
M  V30 8181 H 778.981 2.52035 1.61613 0
M  V30 8182 H 776.527 1.21297 0.776082 0
M  V30 8183 H 778.48 1.63173 3.88526 0
M  V30 8184 H 777.204 0.586674 3.21288 0
M  V30 8185 H 775.863 2.61859 2.56564 0
M  V30 8186 H 775.511 1.53258 4.79083 0
M  V30 8187 H 775.211 3.28679 4.87077 0
M  V30 8188 H 776.735 2.6152 5.5176 0
M  V30 8189 H 778.149 4.20576 3.89601 0
M  V30 8190 H 776.546 4.88344 3.4877 0
M  V30 8191 H 777.616 4.32719 2.1882 0
M  V30 8192 N 778.959 -0.83999 1.33349 0
M  V30 8193 C 780.37 -1.41139 1.22216 0
M  V30 8194 C 780.721 -1.95551 -0.159398 0
M  V30 8195 O 779.846 -1.88721 -1.05893 0
M  V30 8196 C 780.441 -2.56564 2.21269 0
M  V30 8197 C 779 -3.09661 2.13979 0
M  V30 8198 C 778.147 -1.82457 2.08818 0
M  V30 8199 H 781.098 -0.645853 1.44964 0
M  V30 8200 H 781.119 -3.34163 1.81976 0
M  V30 8201 H 780.631 -2.16932 3.21811 0
M  V30 8202 H 778.732 -3.53841 1.16736 0
M  V30 8203 H 778.845 -3.6991 3.04472 0
M  V30 8204 H 777.209 -2.0266 1.54276 0
M  V30 8205 H 777.992 -1.45022 3.11165 0
M  V30 8206 N 780.437 -1.16799 -1.0581 0
M  V30 8207 C 781.662 -0.977402 -1.82925 0
M  V30 8208 C 782.087 0.469514 -1.82146 0
M  V30 8209 O 781.445 1.33576 -1.22585 0
M  V30 8210 C 781.493 -1.51543 -3.27211 0
M  V30 8211 O 780.597 -0.725021 -4.05977 0
M  V30 8212 H 779.938 -0.347474 -0.565825 0
M  V30 8213 H 782.468 -1.55151 -1.33376 0
M  V30 8214 H 782.478 -1.53502 -3.78023 0
M  V30 8215 H 781.153 -2.56872 -3.27093 0
M  V30 8216 H 779.73 -0.77634 -3.64729 0
M  V30 8217 N 781.915 1.24427 -0.967243 0
M  V30 8218 C 783.326 1.74349 -0.667785 0
M  V30 8219 C 783.677 1.78403 0.816509 0
M  V30 8220 O 782.802 1.41315 1.63887 0
M  V30 8221 C 783.397 3.16628 -1.20548 0
M  V30 8222 C 781.956 3.64059 -0.955934 0
M  V30 8223 C 781.103 2.42715 -1.34106 0
M  V30 8224 H 784.054 1.10136 -1.14262 0
M  V30 8225 H 784.075 3.76183 -0.571547 0
M  V30 8226 H 783.587 3.13646 -2.28578 0
M  V30 8227 H 781.688 3.72441 0.108858 0
M  V30 8228 H 781.801 4.51549 -1.60126 0
M  V30 8229 H 780.165 2.43114 -0.759452 0
M  V30 8230 H 780.948 2.42414 -2.43085 0
M  V30 8231 N 783.393 0.737304 1.3929 0
M  V30 8232 C 784.303 0.100464 2.34385 0
M  V30 8233 C 785.319 -0.719282 1.58437 0
M  V30 8234 O 786.495 -0.647216 1.90717 0
M  V30 8235 C 783.56 -0.794325 3.37478 0
M  V30 8236 C 782.621 0.0379345 4.29283 0
M  V30 8237 C 781.854 -0.814241 5.27452 0
M  V30 8238 O 782.077 -2.05288 5.32177 0
M  V30 8239 O 781.011 -0.241679 6.01415 0
M  V30 8240 H 784.837 0.885407 2.90507 0
M  V30 8241 H 782.422 0.497999 1.40856 0
M  V30 8242 H 784.304 -1.30622 4.00644 0
M  V30 8243 H 782.979 -1.55804 2.83737 0
M  V30 8244 H 781.886 0.595405 3.69331 0
M  V30 8245 H 783.219 0.763926 4.86236 0
M  V30 8246 N 784.871 -1.49948 0.485112 0
M  V30 8247 C 785.818 -2.28819 -0.301729 0
M  V30 8248 C 786.788 -1.34496 -0.974683 0
M  V30 8249 O 787.973 -1.63444 -0.984418 0
M  V30 8250 C 785.113 -3.16758 -1.36961 0
M  V30 8251 C 784.226 -4.26125 -0.710027 0
M  V30 8252 C 783.361 -5.01302 -1.75699 0
M  V30 8253 C 782.4 -6.02525 -1.07841 0
M  V30 8254 N 781.537 -6.70927 -2.06886 0
M  V30 8255 H 786.377 -2.95604 0.377127 0
M  V30 8256 H 783.914 -1.45764 0.197826 0
M  V30 8257 H 785.872 -3.66106 -2.00056 0
M  V30 8258 H 784.502 -2.51991 -2.01744 0
M  V30 8259 H 783.554 -3.80385 0.0338278 0
M  V30 8260 H 784.866 -4.98493 -0.175079 0
M  V30 8261 H 784.02 -5.54438 -2.46339 0
M  V30 8262 H 782.759 -4.28672 -2.32577 0
M  V30 8263 H 781.764 -5.48635 -0.357706 0
M  V30 8264 H 782.989 -6.77134 -0.516345 0
M  V30 8265 H 780.935 -6.01079 -2.62755 0
M  V30 8266 H 780.852 -7.39216 -1.58414 0
M  V30 8267 H 782.12 -7.28675 -2.76863 0
M  V30 8268 N 786.349 -0.21828 -1.56081 0
M  V30 8269 C 787.279 0.687922 -2.23136 0
M  V30 8270 C 788.26 1.20357 -1.202 0
M  V30 8271 O 789.445 1.24817 -1.48776 0
M  V30 8272 C 786.575 1.89762 -2.90874 0
M  V30 8273 C 785.529 1.51595 -4.00254 0
M  V30 8274 C 784.855 2.80415 -4.55271 0
M  V30 8275 C 786.155 0.708404 -5.17474 0
M  V30 8276 H 787.849 0.128854 -2.99123 0
M  V30 8277 H 785.395 0.0605354 -1.43873 0
M  V30 8278 H 787.348 2.53699 -3.36474 0
M  V30 8279 H 786.072 2.4816 -2.1233 0
M  V30 8280 H 784.731 0.900058 -3.55379 0
M  V30 8281 H 784.379 3.36951 -3.73461 0
M  V30 8282 H 784.079 2.55613 -5.2909 0
M  V30 8283 H 785.603 3.453 -5.03587 0
M  V30 8284 H 787.017 1.2514 -5.59476 0
M  V30 8285 H 785.414 0.557593 -5.97504 0
M  V30 8286 H 786.484 -0.285679 -4.84058 0
M  V30 8287 N 787.827 1.57504 0.0551401 0
M  V30 8288 C 788.774 2.04825 1.06373 0
M  V30 8289 C 789.744 0.932108 1.37481 0
M  V30 8290 O 790.929 1.20093 1.48265 0
M  V30 8291 C 788.069 2.51091 2.36743 0
M  V30 8292 C 787.182 3.76392 2.12021 0
M  V30 8293 C 786.317 4.11373 3.36074 0
M  V30 8294 C 785.356 5.29666 3.0679 0
M  V30 8295 N 784.493 5.60205 4.2322 0
M  V30 8296 H 789.333 2.90753 0.653216 0
M  V30 8297 H 786.87 1.43776 0.310951 0
M  V30 8298 H 788.828 2.75973 3.12881 0
M  V30 8299 H 787.458 1.68118 2.75565 0
M  V30 8300 H 786.51 3.58751 1.26498 0
M  V30 8301 H 787.822 4.62662 1.86401 0
M  V30 8302 H 786.976 4.37245 4.20597 0
M  V30 8303 H 785.715 3.23704 3.64784 0
M  V30 8304 H 784.72 5.03574 2.20664 0
M  V30 8305 H 785.945 6.18968 2.79385 0
M  V30 8306 H 783.891 4.75495 4.5193 0
M  V30 8307 H 783.808 6.40928 4.00933 0
M  V30 8308 H 785.076 5.90637 5.08692 0
M  V30 8309 N 789.305 -0.326896 1.54172 0
M  V30 8310 C 790.721 -0.671034 1.44808 0
M  V30 8311 C 790.921 -1.91781 0.618258 0
M  V30 8312 O 789.977 -2.52235 0.115751 0
M  V30 8313 C 791.29 -0.848147 2.88491 0
M  V30 8314 C 792.838 -0.945702 2.98371 0
M  V30 8315 C 793.313 -1.15501 4.43197 0
M  V30 8316 N 794.804 -1.22183 4.46795 0
M  V30 8317 C 795.539 -1.4016 5.56006 0
M  V30 8318 N 795.035 -1.55202 6.75192 0
M  V30 8319 N 796.828 -1.42841 5.43648 0
M  V30 8320 H 788.979 0.49262 2.06608 0
M  V30 8321 H 791.242 0.158574 0.934643 0
M  V30 8322 H 790.948 -0.00329969 3.517 0
M  V30 8323 H 790.822 -1.74497 3.34411 0
M  V30 8324 H 793.209 -1.78106 2.35292 0
M  V30 8325 H 793.29 -0.0254215 2.55787 0
M  V30 8326 H 792.934 -0.324521 5.06862 0
M  V30 8327 H 792.864 -2.08911 4.83388 0
M  V30 8328 H 795.355 -1.12016 3.60917 0
M  V30 8329 H 795.668 -1.68601 7.54184 0
M  V30 8330 H 794.013 -1.52306 6.78106 0
M  V30 8331 H 797.204 -1.30683 4.49488 0
M  V30 8332 H 797.377 -1.56509 6.28816 0
M  V30 8333 N 790.784 -1.46188 -0.588786 0
M  V30 8334 C 791.717 -1.508 -1.71274 0
M  V30 8335 C 792.695 -0.362635 -1.58505 0
M  V30 8336 O 793.879 -0.565899 -1.79805 0
M  V30 8337 C 791.006 -1.38082 -3.09275 0
M  V30 8338 C 790.052 -2.56723 -3.40581 0
M  V30 8339 S 790.885 -4.1911 -3.33327 0
M  V30 8340 C 792.041 -4.08891 -4.73877 0
M  V30 8341 H 792.274 -2.45895 -1.67102 0
M  V30 8342 H 789.807 -1.34 -0.767025 0
M  V30 8343 H 791.765 -1.31432 -3.88891 0
M  V30 8344 H 790.426 -0.444259 -3.10942 0
M  V30 8345 H 789.619 -2.43801 -4.41109 0
M  V30 8346 H 789.221 -2.60332 -2.68521 0
M  V30 8347 H 791.513 -3.75196 -5.64123 0
M  V30 8348 H 792.456 -5.09395 -4.91856 0
M  V30 8349 H 792.864 -3.40239 -4.50441 0
M  V30 8350 N 792.262 0.832906 -1.33792 0
M  V30 8351 C 793.511 1.58351 -1.24932 0
M  V30 8352 C 793.824 1.94754 0.181703 0
M  V30 8353 O 795.03 2.6865 0.392375 0
M  V30 8354 C 793.486 2.85643 -2.18943 0
M  V30 8355 C 793.094 2.56581 -3.67247 0
M  V30 8356 C 794.838 3.63667 -2.18968 0
M  V30 8357 C 792.745 3.80006 -4.53155 0
M  V30 8358 H 791.675 0.594278 -0.464058 0
M  V30 8359 H 794.326 0.91786 -1.58895 0
M  V30 8360 H 792.708 3.53781 -1.77919 0
M  V30 8361 H 793.882 1.96617 -4.16747 0
M  V30 8362 H 792.197 1.91851 -3.6957 0
M  V30 8363 H 794.794 4.55293 -2.80379 0
M  V30 8364 H 795.137 3.99039 -1.18631 0
M  V30 8365 H 795.67 3.0246 -2.58384 0
M  V30 8366 H 792.409 3.4976 -5.5439 0
M  V30 8367 H 791.929 4.39288 -4.08395 0
M  V30 8368 H 793.608 4.47523 -4.6726 0
M  V30 8369 N 793.74 1.17359 1.05189 0
M  V30 8370 C 794.989 0.956412 1.77583 0
M  V30 8371 C 795.302 -0.516018 1.88671 0
M  V30 8372 O 796.508 -0.851401 2.57805 0
M  V30 8373 C 794.964 1.66203 3.19225 0
M  V30 8374 C 794.572 3.17299 3.16267 0
M  V30 8375 C 796.316 1.52725 3.96075 0
M  V30 8376 C 794.223 3.8055 4.52698 0
M  V30 8377 H 793.153 0.354204 0.665624 0
M  V30 8378 H 795.804 1.40612 1.17901 0
M  V30 8379 H 794.186 1.14006 3.79234 0
M  V30 8380 H 795.36 3.76431 2.65776 0
M  V30 8381 H 793.675 3.3079 2.52917 0
M  V30 8382 H 796.272 1.97351 4.96947 0
M  V30 8383 H 796.615 0.477803 4.13549 0
M  V30 8384 H 797.148 2.02139 3.42614 0
M  V30 8385 H 793.887 4.85492 4.4043 0
M  V30 8386 H 793.407 3.26206 5.03339 0
M  V30 8387 H 795.086 3.82757 5.21638 0
M  V30 8388 N 795.218 -1.23913 0.973828 0
M  V30 8389 C 796.464 -1.92436 0.640026 0
M  V30 8390 C 796.797 -1.75875 -0.823512 0
M  V30 8391 O 796.072 -1.11563 -1.59323 0
M  V30 8392 C 796.355 -3.4526 1.0231 0
M  V30 8393 C 796.208 -3.70961 2.54378 0
M  V30 8394 C 797.527 -4.36495 0.562155 0
M  V30 8395 H 794.646 -0.698868 0.233992 0
M  V30 8396 H 797.288 -1.46163 1.21393 0
M  V30 8397 H 795.438 -3.84802 0.534751 0
M  V30 8398 H 797.11 -3.40941 3.10737 0
M  V30 8399 H 795.353 -3.15899 2.97305 0
M  V30 8400 H 796.024 -4.77912 2.76232 0
M  V30 8401 H 798.5 -4.04363 0.981333 0
M  V30 8402 H 797.376 -5.42142 0.858689 0
M  V30 8403 H 797.637 -4.38818 -0.537659 0
M  V30 8404 N 796.696 -0.74468 -1.38897 0
M  V30 8405 C 797.643 -0.111064 -2.30533 0
M  V30 8406 C 798.613 0.719276 -1.49719 0
M  V30 8407 O 799.798 0.677244 -1.78376 0
M  V30 8408 C 796.938 0.78292 -3.36102 0
M  V30 8409 C 796.051 -0.0610817 -4.31957 0
M  V30 8410 C 795.186 0.835075 -5.24595 0
M  V30 8411 C 794.225 -0.0130974 -6.12099 0
M  V30 8412 N 793.362 0.839525 -6.97063 0
M  V30 8413 H 798.202 -0.898113 -2.84144 0
M  V30 8414 H 795.739 -0.454537 -1.39901 0
M  V30 8415 H 797.697 1.31578 -3.95908 0
M  V30 8416 H 796.327 1.53585 -2.83922 0
M  V30 8417 H 795.379 -0.711469 -3.73687 0
M  V30 8418 H 796.691 -0.716482 -4.93627 0
M  V30 8419 H 795.845 1.43542 -5.89475 0
M  V30 8420 H 794.584 1.52423 -4.63269 0
M  V30 8421 H 793.589 -0.626179 -5.46223 0
M  V30 8422 H 794.814 -0.699181 -6.75491 0
M  V30 8423 H 792.76 1.5138 -6.38295 0
M  V30 8424 H 792.677 0.240823 -7.55616 0
M  V30 8425 H 793.945 1.42513 -7.66362 0
M  V30 8426 N 798.174 1.49689 -0.493057 0
M  V30 8427 C 799.422 2.02027 0.0541642 0
M  V30 8428 C 799.743 1.37554 1.38217 0
M  V30 8429 O 799.013 0.528174 1.88646 0
M  V30 8430 H 797.593 0.746646 0.0230069 0
M  V30 8431 H 800.255 1.83795 -0.648489 0
M  V30 8432 H 799.351 3.11523 0.189652 0
M  V30 8433 N 799.652 0.226554 1.55963 0
M  V30 8434 C 800.599 -0.681504 2.20509 0
M  V30 8435 C 801.569 -1.1866 1.16229 0
M  V30 8436 O 802.754 -1.24478 1.44602 0
M  V30 8437 C 799.894 -1.88183 2.89277 0
M  V30 8438 C 799.007 -1.41517 4.08163 0
M  V30 8439 C 798.142 -2.57346 4.647 0
M  V30 8440 C 797.181 -2.07441 5.75877 0
M  V30 8441 N 796.318 -3.16561 6.26685 0
M  V30 8442 H 801.158 -0.124372 2.9774 0
M  V30 8443 H 798.695 -0.0496333 1.47016 0
M  V30 8444 H 800.653 -2.58666 3.27335 0
M  V30 8445 H 799.283 -2.41177 2.14555 0
M  V30 8446 H 798.335 -0.605099 3.75557 0
M  V30 8447 H 799.647 -1.00928 4.88482 0
M  V30 8448 H 798.801 -3.35903 5.05227 0
M  V30 8449 H 797.54 -3.01227 3.83554 0
M  V30 8450 H 796.545 -1.27347 5.34848 0
M  V30 8451 H 797.77 -1.64554 6.58862 0
M  V30 8452 H 795.716 -3.59914 5.48451 0
M  V30 8453 H 795.633 -2.80239 7.02141 0
M  V30 8454 H 796.901 -3.95238 6.71868 0
M  V30 8455 N 801.13 -1.57531 -0.0467866 0
M  V30 8456 C 802.077 -2.05387 -1.05285 0
M  V30 8457 C 803.047 -0.939385 -1.36985 0
M  V30 8458 O 804.232 -1.20877 -1.47626 0
M  V30 8459 C 801.372 -2.52343 -2.35408 0
M  V30 8460 C 800.485 -3.77512 -2.10022 0
M  V30 8461 C 799.62 -4.1315 -3.33887 0
M  V30 8462 C 798.659 -5.31286 -3.03976 0
M  V30 8463 N 797.796 -5.62441 -4.20243 0
M  V30 8464 H 802.636 -2.91095 -0.637788 0
M  V30 8465 H 800.173 -1.43939 -0.303322 0
M  V30 8466 H 802.131 -2.77628 -3.11413 0
M  V30 8467 H 800.761 -1.69577 -2.7467 0
M  V30 8468 H 799.813 -3.59417 -1.24594 0
M  V30 8469 H 801.125 -4.63644 -1.83945 0
M  V30 8470 H 800.279 -4.39469 -4.18273 0
M  V30 8471 H 799.018 -3.25634 -3.63062 0
M  V30 8472 H 798.023 -5.04738 -2.17991 0
M  V30 8473 H 799.248 -6.20441 -2.76098 0
M  V30 8474 H 797.194 -4.77885 -4.49402 0
M  V30 8475 H 797.111 -6.43046 -3.97528 0
M  V30 8476 H 798.379 -5.93327 -5.05553 0
M  V30 8477 N 802.608 0.318715 -1.54344 0
M  V30 8478 C 803.538 1.39751 -1.87061 0
M  V30 8479 C 804.519 1.53741 -0.727848 0
M  V30 8480 O 805.704 1.67541 -0.982016 0
M  V30 8481 C 802.834 2.76446 -2.10226 0
M  V30 8482 C 801.788 2.77239 -3.26071 0
M  V30 8483 C 801.114 4.17056 -3.34617 0
M  V30 8484 C 802.414 2.40555 -4.63606 0
M  V30 8485 H 804.108 1.12619 -2.77412 0
M  V30 8486 H 801.654 0.540318 -1.33479 0
M  V30 8487 H 803.607 3.51985 -2.31699 0
M  V30 8488 H 802.331 3.05066 -1.16629 0
M  V30 8489 H 800.99 2.04155 -3.04493 0
M  V30 8490 H 800.638 4.42824 -2.3857 0
M  V30 8491 H 800.338 4.18492 -4.12478 0
M  V30 8492 H 801.862 4.94401 -3.5833 0
M  V30 8493 H 803.276 3.05808 -4.84927 0
M  V30 8494 H 801.673 2.53234 -5.44052 0
M  V30 8495 H 802.743 1.35698 -4.65526 0
M  V30 8496 N 804.086 1.46499 0.581025 0
M  V30 8497 C 805.497 1.4604 1.16315 0
M  V30 8498 C 805.848 0.202154 1.95156 0
M  V30 8499 O 804.973 -0.694638 2.04948 0
M  V30 8500 C 805.568 2.64593 2.11604 0
M  V30 8501 C 804.127 2.6717 2.65136 0
M  V30 8502 C 803.274 2.38753 1.4104 0
M  V30 8503 H 806.225 1.54354 0.368871 0
M  V30 8504 H 806.246 2.40207 2.95095 0
M  V30 8505 H 805.758 3.56154 1.54194 0
M  V30 8506 H 803.859 1.79685 3.26411 0
M  V30 8507 H 803.972 3.67182 3.07757 0
M  V30 8508 H 802.336 1.88845 1.70908 0
M  V30 8509 H 803.119 3.32493 0.854588 0
M  V30 8510 N 805.565 -0.825799 1.34232 0
M  V30 8511 C 806.79 -1.61883 1.29648 0
M  V30 8512 C 807.215 -1.87669 -0.127295 0
M  V30 8513 O 806.573 -1.45016 -1.08813 0
M  V30 8514 C 806.621 -2.93846 2.09014 0
M  V30 8515 O 805.725 -3.85778 1.4577 0
M  V30 8516 H 805.066 -0.492454 0.445405 0
M  V30 8517 H 807.596 -1.02641 1.76992 0
M  V30 8518 H 807.606 -3.43435 2.20264 0
M  V30 8519 H 806.281 -2.74401 3.12533 0
M  V30 8520 H 804.858 -3.4429 1.43245 0
M  V30 8521 N 807.043 -1.17915 -1.04565 0
M  V30 8522 C 808.32 -0.881187 -1.74627 0
M  V30 8523 C 808.7 0.617123 -2.01878 0
M  V30 8524 O 808.048 1.57032 -1.65991 0
M  V30 8525 C 808.258 -1.72299 -3.03503 0
M  V30 8526 C 809.606 -1.94688 -3.77335 0
M  V30 8527 O 810.63 -1.6931 -3.13389 0
M  V30 8528 O 809.489 -2.37379 -4.92253 0
M  V30 8529 H 806.583 -0.326864 -0.759664 0
M  V30 8530 H 809.129 -1.28642 -1.10676 0
M  V30 8531 H 807.901 -2.73891 -2.79462 0
M  V30 8532 H 807.524 -1.31593 -3.75192 0
M  V30 8533 N 808.521 1.23394 -0.980386 0
M  V30 8534 C 809.932 1.73631 -0.686239 0
M  V30 8535 C 810.283 1.79259 0.797541 0
M  V30 8536 O 809.408 1.43046 1.62379 0
M  V30 8537 C 810.003 3.15332 -1.239 0
M  V30 8538 C 808.562 3.63024 -0.994494 0
M  V30 8539 C 807.709 2.41279 -1.36673 0
M  V30 8540 H 810.66 1.08918 -1.15423 0
M  V30 8541 H 810.681 3.75556 -0.611414 0
M  V30 8542 H 810.193 3.11204 -2.31892 0
M  V30 8543 H 808.294 3.72535 0.0693492 0
M  V30 8544 H 808.407 4.49825 -1.64906 0
M  V30 8545 H 806.771 2.42295 -0.785195 0
M  V30 8546 H 807.554 2.39822 -2.45642 0
M  V30 8547 N 809.999 0.752036 1.385 0
M  V30 8548 C 811.276 0.233075 1.94206 0
M  V30 8549 C 811.656 -1.26838 1.68746 0
M  V30 8550 O 811.004 -2.04214 1.02513 0
M  V30 8551 C 811.214 0.58509 3.44061 0
M  V30 8552 C 812.562 0.543871 4.21102 0
M  V30 8553 O 813.586 0.523291 3.52335 0
M  V30 8554 O 812.445 0.553436 5.4369 0
M  V30 8555 H 809.539 0.0483049 0.825588 0
M  V30 8556 H 812.085 0.832053 1.47902 0
M  V30 8557 H 810.857 1.62212 3.56094 0
M  V30 8558 H 810.48 -0.0419738 3.97578 0
M  V30 8559 N 811.477 -1.49425 0.500989 0
M  V30 8560 C 812.723 -2.02753 -0.0436 0
M  V30 8561 C 813.056 -1.37991 -1.36646 0
M  V30 8562 O 812.331 -0.515597 -1.87542 0
M  V30 8563 C 812.614 -3.59565 -0.19616 0
M  V30 8564 C 812.467 -4.34855 1.14982 0
M  V30 8565 C 813.786 -4.30014 -0.936795 0
M  V30 8566 H 810.905 -0.73686 -0.0143711 0
M  V30 8567 H 813.547 -1.78448 0.652397 0
M  V30 8568 H 811.697 -3.80405 -0.788959 0
M  V30 8569 H 813.369 -4.25512 1.7815 0
M  V30 8570 H 811.612 -3.97414 1.73911 0
M  V30 8571 H 812.283 -5.42933 0.996385 0
M  V30 8572 H 814.759 -4.1383 -0.434036 0
M  V30 8573 H 813.635 -5.39483 -1.01238 0
M  V30 8574 H 813.896 -3.95257 -1.9805 0
M  V30 8575 N 812.955 -0.234822 -1.55841 0
M  V30 8576 C 813.885 0.664217 -2.23854 0
M  V30 8577 C 814.866 1.19076 -1.2147 0
M  V30 8578 O 816.051 1.23232 -1.50091 0
M  V30 8579 C 813.181 1.86666 -2.9287 0
M  V30 8580 C 812.135 1.47341 -4.01839 0
M  V30 8581 C 811.461 2.75571 -4.58219 0
M  V30 8582 C 812.761 0.653479 -5.18196 0
M  V30 8583 H 814.455 0.0971213 -2.99242 0
M  V30 8584 H 812.001 0.0452724 -1.43929 0
M  V30 8585 H 813.954 2.50116 -3.39146 0
M  V30 8586 H 812.678 2.45894 -2.1495 0
M  V30 8587 H 811.337 0.862314 -3.56314 0
M  V30 8588 H 810.985 3.32971 -3.77014 0
M  V30 8589 H 810.685 2.49987 -5.31771 0
M  V30 8590 H 812.209 3.39939 -5.07221 0
M  V30 8591 H 813.623 1.19198 -5.60771 0
M  V30 8592 H 812.02 0.494188 -5.98062 0
M  V30 8593 H 813.09 -0.337004 -4.83728 0
M  V30 8594 N 814.433 1.57553 0.0384317 0
M  V30 8595 C 815.343 2.09333 1.0591 0
M  V30 8596 C 816.359 1.0299 1.40247 0
M  V30 8597 O 817.535 1.34669 1.49754 0
M  V30 8598 C 814.6 2.55468 2.34386 0
M  V30 8599 C 813.661 3.76254 2.06716 0
M  V30 8600 C 812.894 4.20179 3.29067 0
M  V30 8601 O 813.117 3.637 4.39407 0
M  V30 8602 O 812.051 5.12697 3.15317 0
M  V30 8603 H 815.877 2.96683 0.649087 0
M  V30 8604 H 813.462 1.47211 0.254802 0
M  V30 8605 H 815.344 2.85514 3.09935 0
M  V30 8606 H 814.019 1.71234 2.74701 0
M  V30 8607 H 812.926 3.51241 1.28766 0
M  V30 8608 H 814.259 4.61443 1.71263 0
M  V30 8609 N 815.911 -0.310526 1.54511 0
M  V30 8610 C 817.159 -1.04484 1.72996 0
M  V30 8611 C 817.48 -1.88118 0.513479 0
M  V30 8612 O 816.75 -1.90119 -0.472384 0
M  V30 8613 H 815.33 -0.388747 0.637875 0
M  V30 8614 H 817.992 -0.343811 1.91844 0
M  V30 8615 H 817.088 -1.70341 2.61515 0
M  V30 8616 N 817.389 -1.46805 -0.573248 0
M  V30 8617 C 818.299 -1.60687 -1.70929 0
M  V30 8618 C 819.315 -0.490084 -1.66956 0
M  V30 8619 O 820.491 -0.755482 -1.86693 0
M  V30 8620 C 817.556 -1.60259 -3.07438 0
M  V30 8621 C 816.617 -2.83242 -3.22603 0
M  V30 8622 C 815.85 -2.82825 -4.52599 0
M  V30 8623 O 816.073 -1.92113 -5.37074 0
M  V30 8624 O 815.007 -3.74489 -4.71213 0
M  V30 8625 H 818.833 -2.56782 -1.62163 0
M  V30 8626 H 816.418 -1.29706 -0.741399 0
M  V30 8627 H 818.3 -1.6275 -3.88704 0
M  V30 8628 H 816.975 -0.673268 -3.16621 0
M  V30 8629 H 815.882 -2.86302 -2.40794 0
M  V30 8630 H 817.215 -3.75415 -3.18315 0
M  V30 8631 N 818.867 0.818669 -1.34668 0
M  V30 8632 C 820.113 1.57746 -1.27453 0
M  V30 8633 C 820.446 1.93588 0.154077 0
M  V30 8634 O 819.721 1.60371 1.10051 0
M  V30 8635 C 820.004 2.87414 -2.16945 0
M  V30 8636 C 819.857 2.58125 -3.68363 0
M  V30 8637 C 821.176 3.89021 -2.05792 0
M  V30 8638 H 818.295 0.572339 -0.464324 0
M  V30 8639 H 820.937 0.942784 -1.64959 0
M  V30 8640 H 819.087 3.41576 -1.85089 0
M  V30 8641 H 820.759 2.10239 -4.10606 0
M  V30 8642 H 819.002 1.91503 -3.89242 0
M  V30 8643 H 819.673 3.5061 -4.26353 0
M  V30 8644 H 822.149 3.44224 -2.33771 0
M  V30 8645 H 821.025 4.77548 -2.70628 0
M  V30 8646 H 821.286 4.29786 -1.03618 0
M  V30 8647 N 820.346 1.18468 1.03938 0
M  V30 8648 C 821.574 1.00576 1.80809 0
M  V30 8649 C 821.989 -0.445786 1.83462 0
M  V30 8650 O 821.346 -1.30964 1.27101 0
M  V30 8651 C 821.397 1.55491 3.26351 0
M  V30 8652 O 821.118 2.94963 3.23926 0
M  V30 8653 C 822.619 1.42236 4.19862 0
M  V30 8654 H 819.839 0.35508 0.56935 0
M  V30 8655 H 822.383 1.57046 1.30984 0
M  V30 8656 H 820.538 1.03195 3.73403 0
M  V30 8657 H 820.952 3.20598 4.15111 0
M  V30 8658 H 822.426 1.85455 5.19914 0
M  V30 8659 H 822.903 0.371267 4.37628 0
M  V30 8660 H 823.509 1.9361 3.78675 0
M  V30 8661 N 821.824 -1.22873 0.986916 0
M  V30 8662 C 823.101 -1.86939 0.575589 0
M  V30 8663 C 823.481 -1.88656 -0.947205 0
M  V30 8664 O 822.829 -1.3728 -1.82665 0
M  V30 8665 C 823.039 -3.28117 1.18914 0
M  V30 8666 C 824.387 -4.04659 1.28593 0
M  V30 8667 O 825.411 -3.3736 1.14308 0
M  V30 8668 O 824.27 -5.25112 1.51391 0
M  V30 8669 H 821.364 -0.803748 0.194724 0
M  V30 8670 H 823.91 -1.30698 1.08241 0
M  V30 8671 H 822.682 -3.21468 2.231 0
M  V30 8672 H 822.305 -3.91956 0.667535 0
M  V30 8673 N 823.302 -0.75937 -1.38099 0
M  V30 8674 C 824.212 -0.13774 -2.34195 0
M  V30 8675 C 825.228 0.693985 -1.59561 0
M  V30 8676 O 826.404 0.616792 -1.91723 0
M  V30 8677 C 823.469 0.740535 -3.38699 0
M  V30 8678 C 822.53 -0.106225 -4.29169 0
M  V30 8679 C 821.763 0.730225 -5.28681 0
M  V30 8680 O 821.986 1.96796 -5.35376 0
M  V30 8681 O 820.92 0.145969 -6.01723 0
M  V30 8682 H 824.746 -0.931512 -2.89061 0
M  V30 8683 H 822.331 -0.520345 -1.40046 0
M  V30 8684 H 824.213 1.24232 -4.02672 0
M  V30 8685 H 822.888 1.51271 -2.8618 0
M  V30 8686 H 821.795 -0.654088 -3.68337 0
M  V30 8687 H 823.128 -0.841186 -4.84959 0
M  V30 8688 N 824.78 1.49157 -0.508906 0
M  V30 8689 C 826.057 1.95363 0.0961913 0
M  V30 8690 C 826.437 1.45064 1.53362 0
M  V30 8691 O 825.785 0.667835 2.18523 0
M  V30 8692 C 825.995 3.49 0.000688881 0
M  V30 8693 C 827.343 4.24257 0.170632 0
M  V30 8694 O 828.367 3.5612 0.0754994 0
M  V30 8695 O 827.226 5.45267 0.366957 0
M  V30 8696 H 824.32 0.821984 0.0909489 0
M  V30 8697 H 826.866 1.59769 -0.572007 0
M  V30 8698 H 825.638 3.78269 -1.00143 0
M  V30 8699 H 825.261 3.91233 0.708682 0
M  V30 8700 N 826.258 0.243083 1.55714 0
M  V30 8701 C 827.168 -0.668913 2.24862 0
M  V30 8702 C 828.184 -1.19638 1.26344 0
M  V30 8703 O 829.36 -1.23345 1.5921 0
M  V30 8704 C 826.425 -1.85084 2.93163 0
M  V30 8705 C 825.486 -1.36323 4.07081 0
M  V30 8706 C 824.719 -2.48882 4.72116 0
M  V30 8707 O 824.942 -3.67523 4.36214 0
M  V30 8708 O 823.876 -2.18857 5.60701 0
M  V30 8709 H 827.702 -0.109737 3.03502 0
M  V30 8710 H 825.287 0.0117411 1.49395 0
M  V30 8711 H 827.169 -2.54065 3.36197 0
M  V30 8712 H 825.844 -2.39771 2.17466 0
M  V30 8713 H 824.751 -0.640804 3.68571 0
M  V30 8714 H 826.084 -0.86249 4.84584 0
M  V30 8715 N 827.736 -1.57571 -0.0300757 0
M  V30 8716 C 828.646 -2.09892 -1.04798 0
M  V30 8717 C 829.662 -1.03732 -1.39698 0
M  V30 8718 O 830.838 -1.35461 -1.49038 0
M  V30 8719 C 827.903 -2.56707 -2.33028 0
M  V30 8720 C 826.964 -3.77345 -2.04718 0
M  V30 8721 C 826.197 -4.21918 -3.26834 0
M  V30 8722 O 826.42 -3.66025 -4.37472 0
M  V30 8723 O 825.354 -5.14362 -3.12594 0
M  V30 8724 H 829.18 -2.97023 -0.633344 0
M  V30 8725 H 826.765 -1.47344 -0.246991 0
M  V30 8726 H 828.647 -2.87154 -3.08417 0
M  V30 8727 H 827.322 -1.72688 -2.73789 0
M  V30 8728 H 826.229 -3.51919 -1.26901 0
M  V30 8729 H 827.562 -4.62345 -1.68813 0
M  V30 8730 N 829.214 0.302327 -1.54673 0
M  V30 8731 C 830.177 1.35592 -1.8479 0
M  V30 8732 C 831.177 1.43743 -0.72073 0
M  V30 8733 O 832.367 1.43402 -0.989017 0
M  V30 8734 C 829.499 2.74091 -2.02699 0
M  V30 8735 H 830.692 1.10132 -2.78946 0
M  V30 8736 H 828.245 0.538926 -1.46715 0
M  V30 8737 H 828.98 3.04775 -1.10826 0
M  V30 8738 H 828.765 2.69565 -2.8474 0
M  V30 8739 H 830.255 3.50272 -2.27374 0
M  V30 8740 N 830.692 1.47107 0.565454 0
M  V30 8741 C 831.602 1.61591 1.70075 0
M  V30 8742 C 832.618 0.498931 1.66693 0
M  V30 8743 O 833.794 0.765372 1.8629 0
M  V30 8744 C 830.859 1.61887 3.06583 0
M  V30 8745 C 829.92 2.84949 3.21096 0
M  V30 8746 C 829.153 2.85221 4.51093 0
M  V30 8747 O 829.376 1.94959 5.36048 0
M  V30 8748 O 828.31 3.76982 4.69221 0
M  V30 8749 H 832.136 2.57638 1.60799 0
M  V30 8750 H 829.721 1.30097 0.73451 0
M  V30 8751 H 831.603 1.64809 3.87835 0
M  V30 8752 H 830.278 0.69005 3.16259 0
M  V30 8753 H 829.185 2.87575 2.39273 0
M  V30 8754 H 830.518 3.77098 3.1632 0
M  V30 8755 N 832.17 -0.811516 1.35101 0
M  V30 8756 C 833.103 -1.92872 1.21966 0
M  V30 8757 C 834.081 -1.62236 0.108667 0
M  V30 8758 O 835.265 -1.8647 0.275875 0
M  V30 8759 C 832.392 -3.27152 0.876886 0
M  V30 8760 C 831.438 -3.7674 1.99924 0
M  V30 8761 S 832.271 -3.95132 3.61429 0
M  V30 8762 C 833.427 -5.32322 3.29218 0
M  V30 8763 H 833.66 -2.03718 2.16532 0
M  V30 8764 H 831.193 -0.968352 1.20259 0
M  V30 8765 H 833.151 -4.04729 0.685917 0
M  V30 8766 H 831.812 -3.14059 -0.0506289 0
M  V30 8767 H 831.005 -4.73981 1.71343 0
M  V30 8768 H 830.607 -3.06145 2.14829 0
M  V30 8769 H 832.899 -6.1614 2.8174 0
M  V30 8770 H 833.842 -5.65893 4.25641 0
M  V30 8771 H 834.25 -4.98374 2.65111 0
M  V30 8772 N 833.648 -1.19017 -1.03309 0
M  V30 8773 C 834.873 -1.01598 -1.80811 0
M  V30 8774 C 835.298 0.430773 -1.83101 0
M  V30 8775 O 834.656 1.30946 -1.25391 0
M  V30 8776 C 834.704 -1.5845 -3.23923 0
M  V30 8777 O 833.808 -0.810972 -4.04348 0
M  V30 8778 H 833.149 -0.359398 -0.558327 0
M  V30 8779 H 835.679 -1.57945 -1.30055 0
M  V30 8780 H 835.689 -1.61486 -3.74682 0
M  V30 8781 H 834.364 -2.63752 -3.21571 0
M  V30 8782 H 832.941 -0.85353 -3.63 0
M  V30 8783 N 835.127 1.22348 -0.993418 0
M  V30 8784 C 836.543 1.43222 -0.704238 0
M  V30 8785 C 836.743 1.88009 0.724909 0
M  V30 8786 O 835.799 2.03429 1.49575 0
M  V30 8787 C 837.112 2.47328 -1.71025 0
M  V30 8788 C 838.66 2.61126 -1.72576 0
M  V30 8789 C 839.135 3.68453 -2.72041 0
M  V30 8790 N 840.626 3.75911 -2.70639 0
M  V30 8791 C 841.361 4.58551 -3.44266 0
M  V30 8792 N 840.857 5.45179 -4.27495 0
M  V30 8793 N 842.65 4.52866 -3.32969 0
M  V30 8794 H 834.801 0.915832 -1.91641 0
M  V30 8795 H 837.064 0.464283 -0.826526 0
M  V30 8796 H 836.77 2.21366 -2.73295 0
M  V30 8797 H 836.644 3.45939 -1.50353 0
M  V30 8798 H 839.031 2.86431 -0.710037 0
M  V30 8799 H 839.112 1.62787 -1.97317 0
M  V30 8800 H 838.756 3.43895 -3.73763 0
M  V30 8801 H 838.686 4.66362 -2.4457 0
M  V30 8802 H 841.177 3.14014 -2.10247 0
M  V30 8803 H 841.49 6.0526 -4.80499 0
M  V30 8804 H 839.835 5.44759 -4.31582 0
M  V30 8805 H 843.026 3.84215 -2.67389 0
M  V30 8806 H 843.199 5.17039 -3.90608 0
M  V30 8807 N 836.605 0.766683 1.37694 0
M  V30 8808 C 838.021 0.445739 1.53249 0
M  V30 8809 C 838.221 -1.03935 1.72626 0
M  V30 8810 O 837.277 -1.82525 1.74473 0
M  V30 8811 C 838.59 1.2564 2.73194 0
M  V30 8812 C 840.138 1.24779 2.87053 0
M  V30 8813 C 840.613 2.04169 4.09974 0
M  V30 8814 N 842.104 2.01497 4.17077 0
M  V30 8815 C 842.839 2.5971 5.11212 0
M  V30 8816 N 842.335 3.26691 6.10938 0
M  V30 8817 N 844.128 2.49568 5.03659 0
M  V30 8818 H 836.279 1.72899 1.23368 0
M  V30 8819 H 838.542 0.733701 0.600322 0
M  V30 8820 H 838.248 2.30859 2.65324 0
M  V30 8821 H 838.122 0.882133 3.6674 0
M  V30 8822 H 840.509 0.203603 2.94397 0
M  V30 8823 H 840.59 1.66166 1.9448 0
M  V30 8824 H 840.234 3.08606 4.03392 0
M  V30 8825 H 840.164 1.60167 5.01651 0
M  V30 8826 H 842.655 1.52728 3.45662 0
M  V30 8827 H 842.968 3.68497 6.79286 0
M  V30 8828 H 841.313 3.30789 6.11231 0
M  V30 8829 H 844.504 1.96859 4.24693 0
M  V30 8830 H 844.677 2.95231 5.76839 0
M  V30 8831 N 838.083 -1.48885 0.516809 0
M  V30 8832 C 839.016 -2.26218 -0.30011 0
M  V30 8833 C 839.994 -1.31491 -0.956496 0
M  V30 8834 O 841.178 -1.6081 -0.983488 0
M  V30 8835 C 838.305 -3.07315 -1.42392 0
M  V30 8836 C 837.351 -4.17316 -0.880295 0
M  V30 8837 S 838.184 -5.34955 0.24146 0
M  V30 8838 C 839.34 -6.1961 -0.885138 0
M  V30 8839 H 839.573 -2.95158 0.356217 0
M  V30 8840 H 837.106 -1.5141 0.302365 0
M  V30 8841 H 839.064 -3.54619 -2.06775 0
M  V30 8842 H 837.725 -2.37813 -2.05192 0
M  V30 8843 H 836.918 -4.73635 -1.72297 0
M  V30 8844 H 836.52 -3.72685 -0.313396 0
M  V30 8845 H 838.812 -6.53513 -1.78682 0
M  V30 8846 H 839.755 -7.07183 -0.360226 0
M  V30 8847 H 840.163 -5.52461 -1.1596 0
M  V30 8848 N 839.561 -0.251338 -1.55583 0
M  V30 8849 C 840.786 0.379136 -2.03905 0
M  V30 8850 C 841.211 1.50428 -1.12929 0
M  V30 8851 O 840.569 1.80882 -0.123114 0
M  V30 8852 C 840.617 0.86009 -3.50193 0
M  V30 8853 O 839.721 1.96932 -3.62342 0
M  V30 8854 H 839.062 0.0820183 -0.658915 0
M  V30 8855 H 841.592 -0.378692 -2.01065 0
M  V30 8856 H 841.602 1.16214 -3.91099 0
M  V30 8857 H 840.277 0.0367559 -4.15884 0
M  V30 8858 H 838.854 1.67163 -3.33333 0
M  V30 8859 N 841.039 1.57585 0.0217189 0
M  V30 8860 C 842.285 1.89887 0.712099 0
M  V30 8861 C 842.618 0.849971 1.74611 0
M  V30 8862 O 841.893 -0.13407 1.94037 0
M  V30 8863 C 842.176 3.32815 1.37499 0
M  V30 8864 C 842.029 4.48405 0.353993 0
M  V30 8865 C 843.348 3.74786 2.30703 0
M  V30 8866 H 840.467 0.690588 0.257405 0
M  V30 8867 H 843.109 1.89983 -0.0251145 0
M  V30 8868 H 841.259 3.32863 2.00335 0
M  V30 8869 H 842.931 4.60491 -0.273015 0
M  V30 8870 H 841.174 4.32573 -0.32599 0
M  V30 8871 H 841.845 5.45316 0.85644 0
M  V30 8872 H 844.321 3.76151 1.77904 0
M  V30 8873 H 843.197 4.75585 2.74061 0
M  V30 8874 H 843.458 3.07449 3.17691 0
M  V30 8875 N 842.517 -0.29412 1.54831 0
M  V30 8876 C 843.794 -1.04847 1.65126 0
M  V30 8877 C 844.174 -2.04996 0.503986 0
M  V30 8878 O 843.522 -2.22996 -0.498496 0
M  V30 8879 C 843.732 -1.72418 3.03435 0
M  V30 8880 C 845.08 -2.24362 3.60481 0
M  V30 8881 O 846.104 -1.8244 3.05932 0
M  V30 8882 O 844.963 -3.01196 4.56008 0
M  V30 8883 H 842.057 -0.485032 0.669831 0
M  V30 8884 H 844.603 -0.291659 1.67175 0
M  V30 8885 H 843.375 -0.997351 3.78376 0
M  V30 8886 H 842.998 -2.54839 3.05193 0
M  V30 8887 N 843.995 -1.47404 -0.557645 0
M  V30 8888 C 845.225 -1.57393 -1.33832 0
M  V30 8889 C 845.633 -0.222978 -1.87881 0
M  V30 8890 O 844.976 0.793854 -1.65661 0
M  V30 8891 C 845.038 -2.53882 -2.54528 0
M  V30 8892 C 844.702 -3.99585 -2.21767 0
M  V30 8893 C 845.699 -4.88082 -1.79087 0
M  V30 8894 C 843.384 -4.44917 -2.3314 0
M  V30 8895 C 845.378 -6.1993 -1.48209 0
M  V30 8896 C 843.065 -5.76793 -2.01874 0
M  V30 8897 C 844.063 -6.64121 -1.59476 0
M  V30 8898 O 843.751 -7.93546 -1.28607 0
M  V30 8899 H 843.483 -0.534172 -0.41429 0
M  V30 8900 H 846.037 -1.93733 -0.682404 0
M  V30 8901 H 844.267 -2.12609 -3.23009 0
M  V30 8902 H 845.956 -2.54003 -3.16603 0
M  V30 8903 H 846.722 -4.54307 -1.69794 0
M  V30 8904 H 842.601 -3.77152 -2.65099 0
M  V30 8905 H 846.145 -6.88049 -1.15043 0
M  V30 8906 H 842.042 -6.1011 -2.10799 0
M  V30 8907 H 842.81 -8.06046 -1.42241 0
M  V30 8908 N 845.473 0.80434 -1.35529 0
M  V30 8909 C 846.421 1.93769 -1.28671 0
M  V30 8910 C 847.415 1.68428 -0.181222 0
M  V30 8911 O 848.621 1.76617 -0.347338 0
M  V30 8912 H 844.996 0.636663 -0.400206 0
M  V30 8913 H 846.967 1.96673 -2.24415 0
M  V30 8914 C 845.716 3.30572 -1.07784 0
M  V30 8915 H 845.039 3.5063 -1.9209 0
M  V30 8916 H 846.479 4.1027 -1.07027 0
M  V30 8917 C 844.938 3.36193 0.218213 0
M  V30 8918 O 845.468 3.82941 1.21323 0
M  V30 8919 N 843.674 2.89455 0.257761 0
M  V30 8920 H 843.221 2.51604 -0.552562 0
M  V30 8921 H 843.179 2.93597 1.12465 0
M  V30 8922 N 846.951 1.19563 1.02676 0
M  V30 8923 C 848.199 0.997593 1.75763 0
M  V30 8924 C 848.52 -0.47253 1.89188 0
M  V30 8925 O 847.79 -1.34214 1.42701 0
M  V30 8926 H 846.37 0.366128 0.651122 0
M  V30 8927 H 849.032 1.50495 1.23844 0
M  V30 8928 H 848.128 1.44741 2.76508 0
M  V30 8929 N 848.429 -1.21819 0.999893 0
M  V30 8930 C 849.339 -2.27691 0.565159 0
M  V30 8931 C 850.355 -1.69587 -0.389398 0
M  V30 8932 O 851.531 -1.99786 -0.254499 0
M  V30 8933 C 848.596 -3.46537 -0.106432 0
M  V30 8934 C 847.657 -4.19932 0.891964 0
M  V30 8935 C 846.89 -5.33103 0.252327 0
M  V30 8936 O 847.113 -5.62398 -0.952103 0
M  V30 8937 O 846.047 -5.94184 0.960698 0
M  V30 8938 H 849.873 -2.67059 1.44613 0
M  V30 8939 H 847.458 -1.28119 0.768499 0
M  V30 8940 H 849.34 -4.18631 -0.482301 0
M  V30 8941 H 848.015 -3.09079 -0.961865 0
M  V30 8942 H 846.922 -3.5008 1.3189 0
M  V30 8943 H 848.255 -4.61287 1.71682 0
M  V30 8944 N 849.908 -0.773975 -1.37286 0
M  V30 8945 C 850.84 -0.119938 -2.28886 0
M  V30 8946 C 851.853 0.661822 -1.48741 0
M  V30 8947 O 853.042 0.499548 -1.71367 0
M  V30 8948 C 850.142 0.853703 -3.27971 0
M  V30 8949 C 849.315 0.125286 -4.37221 0
M  V30 8950 C 848.374 1.01261 -5.16365 0
M  V30 8951 O 847.4 0.475565 -5.6721 0
M  V30 8952 N 848.602 2.33864 -5.31308 0
M  V30 8953 H 851.367 -0.906702 -2.85655 0
M  V30 8954 H 848.928 -0.626519 -1.49286 0
M  V30 8955 H 850.92 1.4508 -3.77801 0
M  V30 8956 H 849.49 1.54142 -2.71954 0
M  V30 8957 H 848.71 -0.652742 -3.88758 0
M  V30 8958 H 849.998 -0.377959 -5.07394 0
M  V30 8959 H 849.396 2.79929 -4.91585 0
M  V30 8960 H 847.953 2.88575 -5.84438 0
M  V30 8961 N 851.386 1.48609 -0.524698 0
M  V30 8962 C 852.333 2.29539 0.240956 0
M  V30 8963 C 853.303 1.37033 0.938681 0
M  V30 8964 O 854.488 1.65996 0.940737 0
M  V30 8965 C 851.628 3.20278 1.28514 0
M  V30 8966 C 850.741 4.27858 0.596798 0
M  V30 8967 C 849.876 5.05784 1.62346 0
M  V30 8968 C 848.915 6.05173 0.918287 0
M  V30 8969 N 848.052 6.76176 1.89025 0
M  V30 8970 H 852.892 2.945 -0.455368 0
M  V30 8971 H 850.429 1.45188 -0.236403 0
M  V30 8972 H 852.387 3.71281 1.90279 0
M  V30 8973 H 851.017 2.57251 1.94992 0
M  V30 8974 H 850.069 3.80162 -0.134668 0
M  V30 8975 H 851.381 4.98782 0.0428506 0
M  V30 8976 H 850.535 5.60775 2.31553 0
M  V30 8977 H 849.274 4.34687 2.2113 0
M  V30 8978 H 848.279 5.49391 0.21212 0
M  V30 8979 H 849.504 6.78265 0.336633 0
M  V30 8980 H 847.45 6.07834 2.46726 0
M  V30 8981 H 847.367 7.43157 1.3876 0
M  V30 8982 H 848.635 7.35759 2.57446 0
M  V30 8983 N 852.864 0.259585 1.55447 0
M  V30 8984 C 853.796 -0.667548 2.19263 0
M  V30 8985 C 854.809 -1.12925 1.17268 0
M  V30 8986 O 855.998 -1.05384 1.44071 0
M  V30 8987 C 853.098 -1.92066 2.7922 0
M  V30 8988 C 852.271 -1.60832 4.06758 0
M  V30 8989 C 851.33 -2.71231 4.50911 0
M  V30 8990 O 850.356 -2.38077 5.17019 0
M  V30 8991 N 851.558 -4.00984 4.19752 0
M  V30 8992 H 854.323 -0.121449 2.99454 0
M  V30 8993 H 851.884 0.0800519 1.61702 0
M  V30 8994 H 853.876 -2.65186 3.0571 0
M  V30 8995 H 852.446 -2.37621 2.03113 0
M  V30 8996 H 851.666 -0.711685 3.87722 0
M  V30 8997 H 852.954 -1.37445 4.89884 0
M  V30 8998 H 852.352 -4.30748 3.66706 0
M  V30 8999 H 850.909 -4.7053 4.51048 0
M  V30 9000 N 854.342 -1.57594 -0.0133615 0
M  V30 9001 C 855.591 -1.8916 -0.700103 0
M  V30 9002 C 855.904 -0.860147 -1.75673 0
M  V30 9003 O 857.11 -1.06556 -2.49716 0
M  V30 9004 C 855.566 -3.35742 -1.29635 0
M  V30 9005 C 855.174 -4.47154 -0.275249 0
M  V30 9006 C 856.918 -3.76436 -1.96205 0
M  V30 9007 C 854.825 -5.84805 -0.880726 0
M  V30 9008 H 853.755 -0.705805 -0.265247 0
M  V30 9009 H 856.406 -1.83445 0.044993 0
M  V30 9010 H 854.788 -3.36252 -2.09167 0
M  V30 9011 H 855.962 -4.58139 0.494506 0
M  V30 9012 H 854.277 -4.15394 0.289256 0
M  V30 9013 H 856.874 -4.76606 -2.42386 0
M  V30 9014 H 857.217 -3.09249 -2.78695 0
M  V30 9015 H 857.75 -3.78168 -1.23426 0
M  V30 9016 H 854.489 -6.55431 -0.0949013 0
M  V30 9017 H 854.009 -5.7751 -1.61995 0
M  V30 9018 H 855.688 -6.32038 -1.38338 0
M  V30 9019 N 855.82 0.285905 -1.54985 0
M  V30 9020 C 857.236 0.632405 -1.46536 0
M  V30 9021 C 857.436 1.90074 -0.668888 0
M  V30 9022 O 856.492 2.51839 -0.182586 0
M  V30 9023 C 857.805 0.771361 -2.90638 0
M  V30 9024 C 859.353 0.866262 -3.00774 0
M  V30 9025 C 859.828 1.0371 -4.46103 0
M  V30 9026 N 861.319 1.10294 -4.49877 0
M  V30 9027 C 862.054 1.25369 -5.59527 0
M  V30 9028 N 861.55 1.37246 -6.7907 0
M  V30 9029 N 863.343 1.28377 -5.47244 0
M  V30 9030 H 855.494 -0.547226 -2.0523 0
M  V30 9031 H 857.757 -0.183298 -0.930111 0
M  V30 9032 H 857.463 -0.0899485 -3.51585 0
M  V30 9033 H 857.337 1.65569 -3.3892 0
M  V30 9034 H 859.724 1.71805 -2.39931 0
M  V30 9035 H 859.805 -0.0424049 -2.55765 0
M  V30 9036 H 859.449 0.190021 -5.07544 0
M  V30 9037 H 859.379 1.96022 -4.88757 0
M  V30 9038 H 861.87 1.02407 -3.6376 0
M  V30 9039 H 862.183 1.48546 -7.58389 0
M  V30 9040 H 860.528 1.34274 -6.81906 0
M  V30 9041 H 863.719 1.1872 -4.52795 0
M  V30 9042 H 863.892 1.39782 -6.32744 0
M  V30 9043 N 857.298 1.47698 0.54982 0
M  V30 9044 C 858.228 1.63622 1.66583 0
M  V30 9045 C 859.209 0.485477 1.63025 0
M  V30 9046 O 860.394 0.715692 1.80531 0
M  V30 9047 C 857.524 1.65721 3.05211 0
M  V30 9048 C 856.478 2.80097 3.2362 0
M  V30 9049 C 855.804 2.67272 4.63109 0
M  V30 9050 C 857.104 4.21612 3.08286 0
M  V30 9051 H 858.798 2.57049 1.53512 0
M  V30 9052 H 856.344 1.23705 0.737099 0
M  V30 9053 H 858.297 1.75451 3.83138 0
M  V30 9054 H 857.021 0.688593 3.19258 0
M  V30 9055 H 855.68 2.69889 2.48104 0
M  V30 9056 H 855.328 1.68422 4.73965 0
M  V30 9057 H 855.028 3.44008 4.76374 0
M  V30 9058 H 856.552 2.78942 5.43161 0
M  V30 9059 H 857.966 4.32758 3.76024 0
M  V30 9060 H 856.363 4.99193 3.33057 0
M  V30 9061 H 857.433 4.39462 2.04942 0
M  V30 9062 N 858.776 -0.797141 1.35954 0
M  V30 9063 C 860.016 -1.56795 1.31128 0
M  V30 9064 C 860.38 -1.91683 -0.110364 0
M  V30 9065 O 861.581 -2.67305 -0.283093 0
M  V30 9066 C 859.852 -2.81577 2.20111 0
M  V30 9067 S 861.411 -3.71895 2.32894 0
M  V30 9068 H 858.229 -0.53711 0.465869 0
M  V30 9069 H 860.831 -0.939522 1.71445 0
M  V30 9070 H 859.535 -2.53986 3.22365 0
M  V30 9071 H 859.066 -3.49399 1.80786 0
M  V30 9072 H 861.081 -4.72322 1.52073 0
M  V30 9073 N 860.254 -1.20106 -1.0204 0
M  V30 9074 C 861.67 -0.955099 -1.27867 0
M  V30 9075 C 861.87 0.367595 -1.98119 0
M  V30 9076 O 860.926 1.09705 -2.27423 0
M  V30 9077 C 862.239 -2.13507 -2.11744 0
M  V30 9078 C 863.787 -2.17563 -2.25023 0
M  V30 9079 C 864.262 -3.35035 -3.12275 0
M  V30 9080 N 865.753 -3.35024 -3.19864 0
M  V30 9081 C 866.488 -4.22566 -3.8759 0
M  V30 9082 N 865.984 -5.20278 -4.57474 0
M  V30 9083 N 867.777 -4.10418 -3.84075 0
M  V30 9084 H 859.928 -2.05193 -0.54861 0
M  V30 9085 H 862.191 -0.897689 -0.304728 0
M  V30 9086 H 861.897 -3.09275 -1.67456 0
M  V30 9087 H 861.771 -2.11281 -3.12474 0
M  V30 9088 H 864.158 -1.22359 -2.68537 0
M  V30 9089 H 864.239 -2.23838 -1.23815 0
M  V30 9090 H 863.883 -4.30522 -2.69468 0
M  V30 9091 H 863.813 -3.25996 -4.13563 0
M  V30 9092 H 866.304 -2.64299 -2.701 0
M  V30 9093 H 866.617 -5.83408 -5.06809 0
M  V30 9094 H 864.962 -5.24219 -4.56311 0
M  V30 9095 H 868.153 -3.33353 -3.28623 0
M  V30 9096 H 868.326 -4.78854 -4.36581 0
M  V30 9097 N 861.732 1.21287 -1.00634 0
M  V30 9098 C 862.642 2.27388 -0.577226 0
M  V30 9099 C 863.658 1.69791 0.380399 0
M  V30 9100 O 864.834 1.99918 0.2439 0
M  V30 9101 C 861.899 3.46588 0.0880532 0
M  V30 9102 C 860.96 4.19453 -0.914222 0
M  V30 9103 C 860.193 5.32962 -0.280596 0
M  V30 9104 O 860.416 5.62895 0.922265 0
M  V30 9105 O 859.35 5.93666 -0.992196 0
M  V30 9106 H 863.176 2.66289 -1.46028 0
M  V30 9107 H 860.761 1.2771 -0.775283 0
M  V30 9108 H 862.643 4.18881 0.460094 0
M  V30 9109 H 861.318 3.09585 0.945461 0
M  V30 9110 H 860.225 3.49376 -1.33744 0
M  V30 9111 H 861.558 4.6037 -1.74126 0
M  V30 9112 N 863.21 0.781244 1.36873 0
M  V30 9113 C 864.14 0.188128 2.32741 0
M  V30 9114 C 865.121 -0.672326 1.56249 0
M  V30 9115 O 866.306 -0.607835 1.84442 0
M  V30 9116 C 863.436 -0.684341 3.40491 0
M  V30 9117 C 862.39 0.0755641 4.27933 0
M  V30 9118 C 861.716 -0.916968 5.26779 0
M  V30 9119 C 863.016 1.26006 5.06873 0
M  V30 9120 H 864.71 0.989016 2.82593 0
M  V30 9121 H 862.256 0.477038 1.35869 0
M  V30 9122 H 864.209 -1.10915 4.06541 0
M  V30 9123 H 862.933 -1.51785 2.89187 0
M  V30 9124 H 861.592 0.481258 3.63427 0
M  V30 9125 H 861.24 -1.74528 4.71751 0
M  V30 9126 H 860.94 -0.413 5.86147 0
M  V30 9127 H 862.464 -1.34052 5.95703 0
M  V30 9128 H 863.878 0.911425 5.66009 0
M  V30 9129 H 862.275 1.69676 5.75613 0
M  V30 9130 H 863.345 2.05948 4.38991 0
M  V30 9131 N 864.689 -1.48329 0.532571 0
M  V30 9132 C 865.914 -2.074 0.00147755 0
M  V30 9133 C 866.339 -1.38615 -1.27151 0
M  V30 9134 O 865.697 -0.452949 -1.75551 0
M  V30 9135 C 865.745 -3.60029 -0.202866 0
M  V30 9136 O 864.849 -3.92327 -1.27097 0
M  V30 9137 H 864.19 -0.662777 0.0402883 0
M  V30 9138 H 866.72 -1.90701 0.741224 0
M  V30 9139 H 866.73 -4.05783 -0.424722 0
M  V30 9140 H 865.405 -4.09496 0.727033 0
M  V30 9141 H 863.982 -3.58348 -1.03156 0
M  V30 9142 N 866.167 -0.267825 -1.55308 0
M  V30 9143 C 867.444 0.402449 -1.91415 0
M  V30 9144 C 867.824 1.7428 -1.1912 0
M  V30 9145 O 867.172 2.2631 -0.315609 0
M  V30 9146 C 867.382 0.549926 -3.4464 0
M  V30 9147 C 868.73 0.836188 -4.16285 0
M  V30 9148 O 869.754 0.635009 -3.50494 0
M  V30 9149 O 868.613 1.22051 -5.32697 0
M  V30 9150 H 865.707 0.219177 -0.797427 0
M  V30 9151 H 868.253 -0.313439 -1.6678 0
M  V30 9152 H 867.025 -0.393641 -3.89315 0
M  V30 9153 H 866.648 1.31556 -3.75205 0
M  V30 9154 N 867.645 1.57599 0.00500368 0
M  V30 9155 C 868.575 2.11143 0.99705 0
M  V30 9156 C 869.556 1.0194 1.3617 0
M  V30 9157 O 870.741 1.29596 1.44632 0
M  V30 9158 C 867.871 2.61062 2.2905 0
M  V30 9159 C 866.825 3.74745 2.0676 0
M  V30 9160 C 866.151 4.10961 3.42075 0
M  V30 9161 C 867.451 5.02222 1.43424 0
M  V30 9162 H 869.145 2.94281 0.551251 0
M  V30 9163 H 866.691 1.41565 0.263715 0
M  V30 9164 H 868.644 2.97146 2.98801 0
M  V30 9165 H 867.368 1.75038 2.75734 0
M  V30 9166 H 866.027 3.39047 1.39436 0
M  V30 9167 H 865.675 3.21968 3.86453 0
M  V30 9168 H 865.375 4.87549 3.27979 0
M  V30 9169 H 866.899 4.49599 4.1315 0
M  V30 9170 H 868.313 5.36109 2.03125 0
M  V30 9171 H 866.71 5.83581 1.39831 0
M  V30 9172 H 867.78 4.83224 0.40285 0
M  V30 9173 N 869.123 -0.277682 1.55134 0
M  V30 9174 C 870.369 -1.0114 1.7578 0
M  V30 9175 C 870.702 -1.86109 0.554719 0
M  V30 9176 O 869.977 -1.89275 -0.447813 0
M  V30 9177 C 870.26 -1.89789 3.06027 0
M  V30 9178 C 870.113 -1.07844 4.3668 0
M  V30 9179 C 871.432 -2.88577 3.32282 0
M  V30 9180 H 868.551 -0.366277 0.639539 0
M  V30 9181 H 871.193 -0.284155 1.87863 0
M  V30 9182 H 869.343 -2.51796 2.95856 0
M  V30 9183 H 871.015 -0.479432 4.58802 0
M  V30 9184 H 869.258 -0.381764 4.32117 0
M  V30 9185 H 869.929 -1.73179 5.24131 0
M  V30 9186 H 872.405 -2.36702 3.42215 0
M  V30 9187 H 871.281 -3.47749 4.2469 0
M  V30 9188 H 871.542 -3.63458 2.51696 0
M  V30 9189 N 870.601 -1.47988 -0.541979 0
M  V30 9190 C 871.826 -1.59286 -1.32826 0
M  V30 9191 C 872.251 -0.24894 -1.86445 0
M  V30 9192 O 871.609 0.777581 -1.63778 0
M  V30 9193 C 871.657 -2.6334 -2.46343 0
M  V30 9194 O 870.761 -2.19667 -3.49028 0
M  V30 9195 H 870.102 -0.534543 -0.393903 0
M  V30 9196 H 872.632 -1.93885 -0.653427 0
M  V30 9197 H 872.642 -2.84238 -2.92699 0
M  V30 9198 H 871.317 -3.60913 -2.06675 0
M  V30 9199 H 869.894 -2.08932 -3.08872 0
M  V30 9200 N 872.079 0.78992 -1.36375 0
M  V30 9201 C 873.328 1.54296 -1.29906 0
M  V30 9202 C 873.641 1.95234 0.119651 0
M  V30 9203 O 874.847 2.69762 0.306708 0
M  V30 9204 C 873.303 2.78533 -2.27919 0
M  V30 9205 C 872.911 2.44767 -3.75224 0
M  V30 9206 C 874.655 3.56516 -2.30427 0
M  V30 9207 C 872.562 3.65397 -4.65015 0
M  V30 9208 H 871.492 0.579214 -0.482729 0
M  V30 9209 H 874.143 0.866845 -1.61735 0
M  V30 9210 H 872.525 3.47941 -1.89084 0
M  V30 9211 H 873.699 1.83259 -4.22792 0
M  V30 9212 H 872.014 1.79996 -3.75487 0
M  V30 9213 H 874.611 4.46143 -2.94722 0
M  V30 9214 H 874.954 3.95063 -1.31266 0
M  V30 9215 H 875.487 2.94087 -2.67876 0
M  V30 9216 H 872.226 3.31946 -5.65236 0
M  V30 9217 H 871.746 4.26072 -4.22164 0
M  V30 9218 H 873.425 4.32431 -4.81261 0
M  V30 9219 N 873.557 1.20646 1.01402 0
M  V30 9220 C 874.797 1.02951 1.7658 0
M  V30 9221 C 875.161 -0.430522 1.87111 0
M  V30 9222 O 876.362 -0.727727 2.58762 0
M  V30 9223 C 874.633 1.69728 3.14527 0
M  V30 9224 S 876.192 1.6717 4.05709 0
M  V30 9225 H 873.01 0.36911 0.607683 0
M  V30 9226 H 875.612 1.53243 1.21395 0
M  V30 9227 H 874.316 2.75162 3.0449 0
M  V30 9228 H 873.847 1.19578 3.74786 0
M  V30 9229 H 875.862 0.706397 4.91146 0
M  V30 9230 N 875.035 -1.20752 1.01276 0
M  V30 9231 C 875.982 -2.234 0.579732 0
M  V30 9232 C 876.952 -1.61256 -0.398206 0
M  V30 9233 O 878.137 -1.8845 -0.29851 0
M  V30 9234 C 875.277 -3.45008 -0.0797006 0
M  V30 9235 C 874.39 -4.21597 0.942343 0
M  V30 9236 C 873.525 -5.30591 0.254364 0
M  V30 9237 C 872.564 -5.98919 1.26343 0
M  V30 9238 N 871.701 -6.99511 0.602384 0
M  V30 9239 H 876.541 -2.59801 1.45971 0
M  V30 9240 H 874.078 -1.27663 0.730787 0
M  V30 9241 H 876.036 -4.1444 -0.479125 0
M  V30 9242 H 874.666 -3.09312 -0.923354 0
M  V30 9243 H 873.718 -3.51268 1.45996 0
M  V30 9244 H 875.03 -4.68576 1.70992 0
M  V30 9245 H 874.184 -6.06368 -0.200763 0
M  V30 9246 H 872.923 -4.84639 -0.545553 0
M  V30 9247 H 871.928 -5.21906 1.72898 0
M  V30 9248 H 873.153 -6.46957 2.06456 0
M  V30 9249 H 871.099 -6.55759 -0.177734 0
M  V30 9250 H 871.016 -7.44597 1.30809 0
M  V30 9251 H 872.284 -7.79313 0.17072 0
M  V30 9252 N 876.513 -0.788492 -1.36457 0
M  V30 9253 C 877.738 -0.371224 -2.04051 0
M  V30 9254 C 878.163 1.004 -1.59064 0
M  V30 9255 O 877.521 1.64663 -0.758679 0
M  V30 9256 C 877.569 -0.442275 -3.57877 0
M  V30 9257 O 876.673 0.55113 -4.08701 0
M  V30 9258 H 876.014 -0.157808 -0.644975 0
M  V30 9259 H 878.544 -1.06935 -1.74431 0
M  V30 9260 H 878.554 -0.305548 -4.06854 0
M  V30 9261 H 877.229 -1.44547 -3.89973 0
M  V30 9262 H 875.806 0.37614 -3.70998 0
M  V30 9263 N 877.991 1.48044 -0.54043 0
M  V30 9264 C 879.237 2.02797 -0.0101718 0
M  V30 9265 C 879.57 1.41565 1.32939 0
M  V30 9266 O 878.845 0.565139 1.86109 0
M  V30 9267 C 879.128 3.59959 0.100758 0
M  V30 9268 C 878.981 4.31654 -1.26471 0
M  V30 9269 C 880.3 4.32347 0.822455 0
M  V30 9270 H 877.419 0.736982 -0.00517052 0
M  V30 9271 H 880.061 1.76656 -0.69948 0
M  V30 9272 H 878.211 3.82363 0.687824 0
M  V30 9273 H 879.883 4.20639 -1.89369 0
M  V30 9274 H 878.126 3.92663 -1.84386 0
M  V30 9275 H 878.797 5.401 -1.13998 0
M  V30 9276 H 881.273 4.14835 0.324164 0
M  V30 9277 H 880.149 5.41978 0.868993 0
M  V30 9278 H 880.41 4.00369 1.87501 0
M  V30 9279 N 879.47 0.276058 1.55163 0
M  V30 9280 C 880.402 -0.644254 2.19959 0
M  V30 9281 C 881.415 -1.11675 1.18459 0
M  V30 9282 O 882.604 -1.0385 1.45181 0
M  V30 9283 C 879.704 -1.89093 2.81242 0
M  V30 9284 C 878.877 -1.56509 4.08441 0
M  V30 9285 C 877.936 -2.66433 4.53762 0
M  V30 9286 O 876.962 -2.32579 5.19515 0
M  V30 9287 N 878.164 -3.96509 4.23982 0
M  V30 9288 H 880.929 -0.0896808 2.99566 0
M  V30 9289 H 878.49 0.0971981 1.61608 0
M  V30 9290 H 880.482 -2.61929 3.08505 0
M  V30 9291 H 879.052 -2.35453 2.05622 0
M  V30 9292 H 878.272 -0.670522 3.88455 0
M  V30 9293 H 879.56 -1.32242 4.91314 0
M  V30 9294 H 878.958 -4.26834 3.71254 0
M  V30 9295 H 877.515 -4.6572 4.56014 0
M  V30 9296 N 880.948 -1.576 0.00335426 0
M  V30 9297 C 882.178 -1.94713 -0.690682 0
M  V30 9298 C 882.586 -0.876915 -1.67651 0
M  V30 9299 O 881.929 0.152434 -1.83066 0
M  V30 9300 C 881.991 -3.27833 -1.47532 0
M  V30 9301 C 881.655 -4.52344 -0.650704 0
M  V30 9302 C 882.652 -5.19862 0.0630537 0
M  V30 9303 C 880.337 -4.98755 -0.595687 0
M  V30 9304 C 882.331 -6.32093 0.820779 0
M  V30 9305 C 880.018 -6.10875 0.165761 0
M  V30 9306 C 881.016 -6.77401 0.872724 0
M  V30 9307 O 880.704 -7.87372 1.62174 0
M  V30 9308 H 880.436 -0.646627 -0.197104 0
M  V30 9309 H 882.99 -2.05335 0.0516082 0
M  V30 9310 H 881.22 -3.13628 -2.26217 0
M  V30 9311 H 882.909 -3.50034 -2.05501 0
M  V30 9312 H 883.675 -4.84991 0.0297223 0
M  V30 9313 H 879.554 -4.46797 -1.13549 0
M  V30 9314 H 883.098 -6.83953 1.37312 0
M  V30 9315 H 878.995 -6.45187 0.200901 0
M  V30 9316 H 879.763 -8.03905 1.5388 0
M  V30 9317 N 882.426 0.269451 -1.5528 0
M  V30 9318 C 883.842 0.616827 -1.47199 0
M  V30 9319 C 884.042 1.89354 -0.68901 0
M  V30 9320 O 883.098 2.51631 -0.209287 0
M  V30 9321 C 884.411 0.740492 -2.9144 0
M  V30 9322 C 885.959 0.834312 -3.01676 0
M  V30 9323 C 886.434 0.989725 -4.47178 0
M  V30 9324 N 887.925 1.05516 -4.51022 0
M  V30 9325 C 888.66 1.19427 -5.60825 0
M  V30 9326 N 888.156 1.30035 -6.80487 0
M  V30 9327 N 889.949 1.22566 -5.48575 0
M  V30 9328 H 882.1 -0.568962 -2.04638 0
M  V30 9329 H 884.363 -0.193153 -0.928114 0
M  V30 9330 H 884.069 -0.127234 -3.5147 0
M  V30 9331 H 883.943 1.61965 -3.40657 0
M  V30 9332 H 886.33 1.6925 -2.4174 0
M  V30 9333 H 886.411 -0.0695298 -2.55705 0
M  V30 9334 H 886.055 0.136179 -5.07717 0
M  V30 9335 H 885.985 1.90827 -4.90808 0
M  V30 9336 H 888.476 0.985434 -3.64825 0
M  V30 9337 H 888.789 1.40494 -7.59922 0
M  V30 9338 H 887.134 1.27033 -6.83292 0
M  V30 9339 H 890.325 1.13911 -4.54029 0
M  V30 9340 H 890.498 1.33063 -6.34191 0
M  V30 9341 N 883.904 1.48273 0.534124 0
M  V30 9342 C 885.181 1.46567 1.29528 0
M  V30 9343 C 885.561 0.17509 2.10373 0
M  V30 9344 O 884.909 -0.843228 2.12372 0
M  V30 9345 C 885.119 2.72519 2.18023 0
M  V30 9346 C 886.467 3.2068 2.78298 0
M  V30 9347 O 887.491 2.73408 2.28313 0
M  V30 9348 O 886.35 4.02924 3.69208 0
M  V30 9349 H 883.444 0.585151 0.584403 0
M  V30 9350 H 885.99 1.60502 0.551119 0
M  V30 9351 H 884.762 3.57965 1.5804 0
M  V30 9352 H 884.385 2.61285 2.99693 0
M  V30 9353 N 885.382 -0.782676 1.36792 0
M  V30 9354 C 886.629 -1.54083 1.31395 0
M  V30 9355 C 886.957 -1.94217 -0.104797 0
M  V30 9356 O 886.212 -1.63491 -1.0756 0
M  V30 9357 C 886.511 -2.82542 2.18872 0
M  V30 9358 C 886.177 -2.61512 3.67317 0
M  V30 9359 C 884.839 -2.55486 4.07775 0
M  V30 9360 C 887.191 -2.42389 4.61407 0
M  V30 9361 C 884.519 -2.28311 5.40454 0
M  V30 9362 C 886.871 -2.1674 5.94312 0
M  V30 9363 C 885.535 -2.09151 6.33887 0
M  V30 9364 H 884.805 -0.563829 0.48081 0
M  V30 9365 H 887.452 -0.902436 1.68903 0
M  V30 9366 H 885.757 -3.50883 1.74323 0
M  V30 9367 H 887.454 -3.40367 2.12017 0
M  V30 9368 H 884.044 -2.67062 3.35225 0
M  V30 9369 H 888.228 -2.46043 4.31018 0
M  V30 9370 H 883.484 -2.20922 5.70091 0
M  V30 9371 H 887.658 -2.0094 6.6678 0
M  V30 9372 H 885.285 -1.87857 7.36623 0
M  V30 9373 N 886.86 -1.21182 -1.00761 0
M  V30 9374 C 887.77 -0.984691 -2.12934 0
M  V30 9375 C 888.786 0.0623657 -1.73888 0
M  V30 9376 O 889.962 -0.1271 -2.00999 0
M  V30 9377 C 887.027 -0.549447 -3.42319 0
M  V30 9378 C 886.088 -1.66841 -3.95553 0
M  V30 9379 C 885.321 -1.25384 -5.18763 0
M  V30 9380 O 885.544 -0.126333 -5.7026 0
M  V30 9381 O 884.478 -2.06475 -5.65377 0
M  V30 9382 H 888.304 -1.92413 -2.3497 0
M  V30 9383 H 885.889 -0.99647 -1.11314 0
M  V30 9384 H 887.771 -0.316384 -4.20211 0
M  V30 9385 H 886.446 0.361304 -3.21677 0
M  V30 9386 H 885.353 -1.95585 -3.189 0
M  V30 9387 H 886.686 -2.55649 -4.206 0
M  V30 9388 N 888.338 1.20213 -1.01915 0
M  V30 9389 C 889.268 2.25336 -0.612023 0
M  V30 9390 C 890.249 1.65933 0.374186 0
M  V30 9391 O 891.434 1.92464 0.259053 0
M  V30 9392 C 888.564 3.47267 0.047904 0
M  V30 9393 C 887.518 4.1928 -0.859557 0
M  V30 9394 C 886.844 5.3466 -0.0652655 0
M  V30 9395 C 888.144 4.75143 -2.1688 0
M  V30 9396 H 889.838 2.59645 -1.49079 0
M  V30 9397 H 887.384 1.24808 -0.718263 0
M  V30 9398 H 889.337 4.19991 0.344294 0
M  V30 9399 H 888.061 3.12129 0.961404 0
M  V30 9400 H 886.72 3.48425 -1.13999 0
M  V30 9401 H 886.368 4.95767 0.849964 0
M  V30 9402 H 886.068 5.83772 -0.669618 0
M  V30 9403 H 887.592 6.10187 0.224612 0
M  V30 9404 H 889.006 5.39672 -1.9346 0
M  V30 9405 H 887.403 5.34702 -2.72422 0
M  V30 9406 H 888.473 3.93744 -2.83008 0
M  V30 9407 N 889.816 0.795718 1.36037 0
M  V30 9408 C 891.041 0.38204 2.03851 0
M  V30 9409 C 891.466 -0.995553 1.59594 0
M  V30 9410 O 890.824 -1.64258 0.767401 0
M  V30 9411 C 890.872 0.461248 3.57638 0
M  V30 9412 O 889.976 -0.529448 4.08987 0
M  V30 9413 H 889.317 0.161227 0.644129 0
M  V30 9414 H 891.847 1.07858 1.73861 0
M  V30 9415 H 891.857 0.32712 4.06687 0
M  V30 9416 H 890.532 1.46613 3.89201 0
M  V30 9417 H 889.109 -0.35646 3.71192 0
M  V30 9418 N 891.294 -1.47756 0.548274 0
M  V30 9419 C 892.227 -2.26804 -0.252059 0
M  V30 9420 C 893.205 -1.3349 -0.928389 0
M  V30 9421 O 894.389 -1.6286 -0.949156 0
M  V30 9422 C 891.516 -3.10266 -1.35841 0
M  V30 9423 C 890.562 -4.1909 -0.791578 0
M  V30 9424 S 891.395 -5.34323 0.354878 0
M  V30 9425 C 892.551 -6.21348 -0.753511 0
M  V30 9426 H 892.784 -2.94336 0.418744 0
M  V30 9427 H 890.317 -1.50735 0.334413 0
M  V30 9428 H 892.275 -3.58925 -1.99207 0
M  V30 9429 H 890.936 -2.42112 -2.00101 0
M  V30 9430 H 890.129 -4.77183 -1.62212 0
M  V30 9431 H 889.731 -3.73266 -0.234274 0
M  V30 9432 H 892.023 -6.57156 -1.6478 0
M  V30 9433 H 892.966 -7.07788 -0.210141 0
M  V30 9434 H 893.374 -5.54797 -1.04216 0
M  V30 9435 N 892.772 -0.284283 -1.55015 0
M  V30 9436 C 893.719 0.599194 -2.22886 0
M  V30 9437 C 894.689 1.14264 -1.20553 0
M  V30 9438 O 895.874 1.19025 -1.49123 0
M  V30 9439 C 893.014 1.77317 -2.96062 0
M  V30 9440 C 892.127 1.26271 -4.13134 0
M  V30 9441 C 891.262 2.39922 -4.73931 0
M  V30 9442 C 890.301 1.85925 -5.8318 0
M  V30 9443 N 889.438 2.93084 -6.38002 0
M  V30 9444 H 894.278 0.0137816 -2.97997 0
M  V30 9445 H 891.815 -0.00496503 -1.47099 0
M  V30 9446 H 893.773 2.46339 -3.36709 0
M  V30 9447 H 892.403 2.33047 -2.23358 0
M  V30 9448 H 891.455 0.465296 -3.77544 0
M  V30 9449 H 892.767 0.827284 -4.91892 0
M  V30 9450 H 891.921 3.1692 -5.17346 0
M  V30 9451 H 890.66 2.86784 -3.9447 0
M  V30 9452 H 889.665 1.07409 -5.39206 0
M  V30 9453 H 890.89 1.39987 -6.64515 0
M  V30 9454 H 888.836 3.3931 -5.61431 0
M  V30 9455 H 888.753 2.53986 -7.12058 0
M  V30 9456 H 890.021 3.7003 -6.86075 0
M  V30 9457 N 894.251 1.57596 -0.0117121 0
M  V30 9458 C 895.476 1.95764 0.684938 0
M  V30 9459 C 895.901 0.887285 1.65858 0
M  V30 9460 O 895.259 -0.153508 1.80649 0
M  V30 9461 C 895.307 3.33031 1.38285 0
M  V30 9462 O 894.411 3.28163 2.49765 0
M  V30 9463 H 893.752 0.638767 0.181309 0
M  V30 9464 H 896.282 2.04486 -0.0683883 0
M  V30 9465 H 896.292 3.68866 1.74362 0
M  V30 9466 H 894.967 4.10483 0.669043 0
M  V30 9467 H 893.544 3.04021 2.15929 0
M  V30 9468 N 895.729 -0.261212 1.5542 0
M  V30 9469 C 896.661 -1.34571 1.85535 0
M  V30 9470 C 897.674 -1.44979 0.740612 0
M  V30 9471 O 898.863 -1.46584 1.01859 0
M  V30 9472 C 895.963 -2.7258 2.01378 0
M  V30 9473 C 895.136 -2.84618 3.32131 0
M  V30 9474 C 894.195 -4.03379 3.37893 0
M  V30 9475 O 893.221 -3.93581 4.11197 0
M  V30 9476 N 894.423 -5.15893 2.66148 0
M  V30 9477 H 897.188 -1.09078 2.79145 0
M  V30 9478 H 894.749 -0.451327 1.55482 0
M  V30 9479 H 896.741 -3.50342 2.0259 0
M  V30 9480 H 895.311 -2.90844 1.14579 0
M  V30 9481 H 894.531 -1.93647 3.43358 0
M  V30 9482 H 895.819 -2.896 4.18341 0
M  V30 9483 H 895.217 -5.26743 2.06297 0
M  V30 9484 H 893.774 -5.91842 2.73069 0
M  V30 9485 N 897.207 -1.48554 -0.526253 0
M  V30 9486 C 898.155 -1.63804 -1.65139 0
M  V30 9487 C 899.149 -0.504398 -1.61716 0
M  V30 9488 O 900.355 -0.683241 -1.66529 0
M  V30 9489 H 896.73 -0.516071 -0.546969 0
M  V30 9490 H 898.701 -2.58294 -1.49421 0
M  V30 9491 C 897.45 -1.69843 -3.03395 0
M  V30 9492 H 896.773 -2.56438 -3.06724 0
M  V30 9493 H 898.213 -1.84555 -3.81727 0
M  V30 9494 C 896.672 -0.437875 -3.34042 0
M  V30 9495 O 897.202 0.447604 -3.99198 0
M  V30 9496 N 895.408 -0.308444 -2.88958 0
M  V30 9497 H 894.955 -1.02998 -2.36112 0
M  V30 9498 H 894.913 0.533952 -3.09833 0
M  V30 9499 N 898.685 0.775411 -1.37205 0
M  V30 9500 C 899.915 1.56219 -1.352 0
M  V30 9501 C 900.323 1.89087 0.065456 0
M  V30 9502 O 899.666 1.51655 1.03665 0
M  V30 9503 C 899.728 2.9019 -2.12203 0
M  V30 9504 C 899.392 2.79978 -3.61195 0
M  V30 9505 C 900.389 2.51258 -4.55154 0
M  V30 9506 C 898.074 2.98115 -4.04268 0
M  V30 9507 C 900.068 2.40798 -5.90165 0
M  V30 9508 C 897.755 2.87276 -5.39366 0
M  V30 9509 C 898.753 2.58657 -6.32128 0
M  V30 9510 O 898.441 2.47838 -7.64743 0
M  V30 9511 H 898.173 0.490735 -0.464925 0
M  V30 9512 H 900.727 0.969201 -1.81096 0
M  V30 9513 H 898.957 3.51594 -1.60992 0
M  V30 9514 H 900.646 3.51561 -2.02879 0
M  V30 9515 H 901.412 2.36935 -4.23186 0
M  V30 9516 H 897.291 3.19392 -3.3243 0
M  V30 9517 H 900.835 2.18381 -6.62537 0
M  V30 9518 H 896.732 3.01166 -5.70937 0
M  V30 9519 H 897.5 2.63215 -7.75023 0
M  V30 9520 N 900.163 1.21714 1.00117 0
M  V30 9521 C 901.409 1.04829 1.74306 0
M  V30 9522 C 901.764 -0.413387 1.87907 0
M  V30 9523 O 901.057 -1.30258 1.40512 0
M  V30 9524 C 901.251 1.68345 3.15269 0
M  V30 9525 C 901.08 3.20537 3.15414 0
M  V30 9526 C 899.85 3.896 3.21776 0
M  V30 9527 C 902.048 4.17576 3.00224 0
M  V30 9528 N 900.03 5.28949 3.11587 0
M  V30 9529 C 901.401 5.43701 2.97974 0
M  V30 9530 C 903.456 4.08575 2.84554 0
M  V30 9531 C 902.159 6.61861 2.8166 0
M  V30 9532 C 904.185 5.26375 2.69598 0
M  V30 9533 C 903.547 6.51414 2.68028 0
M  V30 9534 H 899.646 0.437964 0.647852 0
M  V30 9535 H 902.23 1.54128 1.18965 0
M  V30 9536 H 900.401 1.21607 3.68872 0
M  V30 9537 H 902.133 1.44629 3.77974 0
M  V30 9538 H 898.888 3.40548 3.29126 0
M  V30 9539 H 899.312 6.01945 3.09825 0
M  V30 9540 H 903.954 3.12696 2.84571 0
M  V30 9541 H 901.672 7.57896 2.8039 0
M  V30 9542 H 905.258 5.21235 2.58468 0
M  V30 9543 H 904.138 7.41033 2.56593 0
M  V30 9544 N 901.641 -1.19671 1.02551 0
M  V30 9545 C 902.551 -2.26441 0.613329 0
M  V30 9546 C 903.567 -1.70375 -0.353339 0
M  V30 9547 O 904.743 -2.0028 -0.212064 0
M  V30 9548 C 901.808 -3.46684 -0.0329028 0
M  V30 9549 C 900.869 -4.17945 0.980837 0
M  V30 9550 C 900.102 -5.32448 0.36535 0
M  V30 9551 O 900.325 -5.64291 -0.832596 0
M  V30 9552 O 899.259 -5.92012 1.08652 0
M  V30 9553 H 903.085 -2.63932 1.50246 0
M  V30 9554 H 900.67 -1.2646 0.795502 0
M  V30 9555 H 902.552 -4.1956 -0.393395 0
M  V30 9556 H 901.227 -3.1105 -0.896089 0
M  V30 9557 H 900.134 -3.47204 1.39286 0
M  V30 9558 H 901.467 -4.57542 1.81428 0
M  V30 9559 N 903.119 -0.802921 -1.35613 0
M  V30 9560 C 904.052 -0.156345 -2.27664 0
M  V30 9561 C 905.03 0.675517 -1.47904 0
M  V30 9562 O 906.214 0.643589 -1.77173 0
M  V30 9563 C 903.341 0.78348 -3.29514 0
M  V30 9564 C 902.387 0.0317062 -4.26488 0
M  V30 9565 S 903.22 -1.30183 -5.19435 0
M  V30 9566 C 904.376 -0.366354 -6.24827 0
M  V30 9567 H 904.609 -0.936803 -2.82155 0
M  V30 9568 H 902.142 -0.597799 -1.42358 0
M  V30 9569 H 904.1 1.32023 -3.8869 0
M  V30 9570 H 902.761 1.53729 -2.73909 0
M  V30 9571 H 901.954 0.745364 -4.98458 0
M  V30 9572 H 901.556 -0.43497 -3.71462 0
M  V30 9573 H 903.848 0.44976 -6.76005 0
M  V30 9574 H 904.791 -1.05513 -7.00195 0
M  V30 9575 H 905.199 0.0363203 -5.64488 0
M  V30 9576 N 904.597 1.47463 -0.556102 0
M  V30 9577 C 905.837 2.04372 -0.0339743 0
M  V30 9578 C 906.201 1.42125 1.29091 0
M  V30 9579 O 907.402 1.90074 1.90066 0
M  V30 9580 C 905.673 3.57352 0.0585316 0
M  V30 9581 S 907.232 4.35625 0.526943 0
M  V30 9582 H 904.05 0.710574 -0.0246115 0
M  V30 9583 H 906.652 1.80848 -0.742585 0
M  V30 9584 H 905.356 4.00181 -0.910116 0
M  V30 9585 H 904.887 3.85371 0.790731 0
M  V30 9586 H 906.902 4.62911 1.78683 0
M  V30 9587 N 906.075 0.2925 1.54862 0
M  V30 9588 C 907.3 -0.32494 2.04839 0
M  V30 9589 C 907.725 -1.47381 1.16877 0
M  V30 9590 O 907.083 -1.80492 0.171028 0
M  V30 9591 C 907.131 -0.76694 3.5235 0
M  V30 9592 O 906.235 -1.87256 3.67436 0
M  V30 9593 H 905.576 -0.0645195 0.660858 0
M  V30 9594 H 908.106 0.431867 1.9999 0
M  V30 9595 H 908.116 -1.05804 3.94043 0
M  V30 9596 H 906.791 0.0735212 4.15835 0
M  V30 9597 H 905.368 -1.58266 3.37648 0
M  V30 9598 N 907.553 -1.57587 0.0200696 0
M  V30 9599 C 908.8 -1.91424 -0.660525 0
M  V30 9600 C 909.128 -0.895626 -1.72652 0
M  V30 9601 O 908.383 0.096771 -1.95461 0
M  V30 9602 C 908.682 -3.32002 -1.32323 0
M  V30 9603 C 908.348 -4.49223 -0.388487 0
M  V30 9604 C 907.01 -4.81021 -0.131184 0
M  V30 9605 C 909.362 -5.20581 0.253906 0
M  V30 9606 C 906.69 -5.81539 0.776471 0
M  V30 9607 C 909.042 -6.22067 1.14956 0
M  V30 9608 C 907.706 -6.52311 1.41584 0
M  V30 9609 H 906.976 -0.700472 -0.241703 0
M  V30 9610 H 909.623 -1.91333 0.0798991 0
M  V30 9611 H 907.928 -3.28312 -2.13819 0
M  V30 9612 H 909.625 -3.5545 -1.85623 0
M  V30 9613 H 906.215 -4.24391 -0.599207 0
M  V30 9614 H 910.399 -4.96253 0.068164 0
M  V30 9615 H 905.655 -6.03322 0.990575 0
M  V30 9616 H 909.829 -6.76484 1.65357 0
M  V30 9617 H 907.456 -7.30017 2.12083 0
M  V30 9618 N 909.032 0.252966 -1.55557 0
M  V30 9619 C 910.257 1.0038 -1.8149 0
M  V30 9620 C 910.682 1.78397 -0.596318 0
M  V30 9621 O 910.04 1.7551 0.454535 0
M  V30 9622 C 910.088 1.9222 -3.05096 0
M  V30 9623 O 909.192 3.01302 -2.81587 0
M  V30 9624 H 908.533 0.285949 -0.599274 0
M  V30 9625 H 911.063 0.275795 -2.02733 0
M  V30 9626 H 911.073 2.338 -3.34368 0
M  V30 9627 H 909.748 1.34852 -3.93431 0
M  V30 9628 H 908.325 2.63894 -2.63466 0
M  V30 9629 N 910.51 1.48831 0.518367 0
M  V30 9630 C 911.42 1.6692 1.64848 0
M  V30 9631 C 912.436 0.551711 1.65022 0
M  V30 9632 O 913.612 0.824251 1.83761 0
M  V30 9633 C 910.677 1.71559 3.01278 0
M  V30 9634 C 909.738 2.9502 3.11868 0
M  V30 9635 C 908.971 2.99428 4.4179 0
M  V30 9636 O 909.194 2.11914 5.29574 0
M  V30 9637 O 908.128 3.91719 4.5699 0
M  V30 9638 H 911.954 2.62623 1.52521 0
M  V30 9639 H 909.539 1.32368 0.692749 0
M  V30 9640 H 911.421 1.77064 3.82396 0
M  V30 9641 H 910.096 0.790316 3.13904 0
M  V30 9642 H 909.003 2.95042 2.30003 0
M  V30 9643 H 910.336 3.8697 3.04163 0
M  V30 9644 N 911.988 -0.768124 1.37614 0
M  V30 9645 C 913.216 -1.55726 1.36224 0
M  V30 9646 C 913.631 -1.8873 -0.0515357 0
M  V30 9647 O 912.988 -1.51718 -1.0143 0
M  V30 9648 C 913.039 -2.86533 2.20412 0
M  V30 9649 O 912.76 -2.54942 3.56281 0
M  V30 9650 C 914.261 -3.80745 2.27041 0
M  V30 9651 H 911.481 -0.482325 0.46648 0
M  V30 9652 H 914.025 -0.95176 1.81002 0
M  V30 9653 H 912.18 -3.43496 1.79134 0
M  V30 9654 H 912.594 -3.38732 4.00451 0
M  V30 9655 H 914.068 -4.69523 2.90263 0
M  V30 9656 H 914.545 -4.20138 1.27987 0
M  V30 9657 H 915.151 -3.2971 2.68647 0
M  V30 9658 N 913.466 -1.22244 -0.994698 0
M  V30 9659 C 914.376 -1.00722 -2.11878 0
M  V30 9660 C 915.392 0.043919 -1.73945 0
M  V30 9661 O 916.568 -0.148411 -2.00852 0
M  V30 9662 C 913.633 -0.585723 -3.41717 0
M  V30 9663 C 912.694 -1.71027 -3.93762 0
M  V30 9664 C 911.927 -1.30879 -5.17403 0
M  V30 9665 O 912.15 -0.18681 -5.70094 0
M  V30 9666 O 911.084 -2.1246 -5.63156 0
M  V30 9667 H 914.91 -1.94894 -2.32916 0
M  V30 9668 H 912.495 -1.00822 -1.10251 0
M  V30 9669 H 914.377 -0.360935 -4.19851 0
M  V30 9670 H 913.052 0.327166 -3.22042 0
M  V30 9671 H 911.959 -1.98956 -3.16808 0
M  V30 9672 H 913.292 -2.60096 -4.17865 0
M  V30 9673 N 914.944 1.19125 -1.03184 0
M  V30 9674 C 915.907 2.20662 -0.619766 0
M  V30 9675 C 916.907 1.57621 0.318179 0
M  V30 9676 O 918.097 1.73885 0.104783 0
M  V30 9677 C 915.229 3.40774 0.0926696 0
M  V30 9678 H 916.422 2.58633 -1.5182 0
M  V30 9679 H 913.975 1.32855 -0.823364 0
M  V30 9680 H 914.71 3.08324 1.00531 0
M  V30 9681 H 914.495 3.87766 -0.581344 0
M  V30 9682 H 915.985 4.15977 0.367792 0
M  V30 9683 N 916.422 0.810101 1.35185 0
M  V30 9684 C 917.647 0.40364 2.03434 0
M  V30 9685 C 918.072 -0.97857 1.60641 0
M  V30 9686 O 917.43 -1.63435 0.784779 0
M  V30 9687 C 917.478 0.499154 3.57129 0
M  V30 9688 O 916.582 -0.486039 4.09526 0
M  V30 9689 H 915.923 0.168049 0.642383 0
M  V30 9690 H 918.453 1.09696 1.72708 0
M  V30 9691 H 918.463 0.370236 4.06317 0
M  V30 9692 H 917.138 1.50733 3.87624 0
M  V30 9693 H 915.715 -0.31707 3.7155 0
M  V30 9694 N 917.9 -1.47166 0.563914 0
M  V30 9695 C 919.316 -1.58018 0.224173 0
M  V30 9696 C 919.516 -1.56163 -1.27339 0
M  V30 9697 O 918.572 -1.4686 -2.05398 0
M  V30 9698 C 919.885 -2.88236 0.856762 0
M  V30 9699 C 921.433 -3.01833 0.82861 0
M  V30 9700 C 921.908 -4.34761 1.44039 0
M  V30 9701 N 923.399 -4.41413 1.40388 0
M  V30 9702 C 924.134 -5.42845 1.84681 0
M  V30 9703 N 923.63 -6.51052 2.3686 0
M  V30 9704 N 925.423 -5.33931 1.75711 0
M  V30 9705 H 917.574 -1.46615 1.53681 0
M  V30 9706 H 919.837 -0.698195 0.64127 0
M  V30 9707 H 919.543 -2.95349 1.90949 0
M  V30 9708 H 919.417 -3.75537 0.353766 0
M  V30 9709 H 921.804 -2.94312 -0.215451 0
M  V30 9710 H 921.885 -2.16056 1.36943 0
M  V30 9711 H 921.529 -4.43037 2.48355 0
M  V30 9712 H 921.459 -5.1928 0.874953 0
M  V30 9713 H 923.95 -3.63811 1.02227 0
M  V30 9714 H 924.263 -7.24633 2.68564 0
M  V30 9715 H 922.608 -6.51924 2.40875 0
M  V30 9716 H 925.799 -4.48295 1.34718 0
M  V30 9717 H 925.972 -6.12841 2.10547 0
M  V30 9718 N 919.378 -0.300708 -1.54705 0
M  V30 9719 C 920.627 0.309428 -1.99312 0
M  V30 9720 C 920.94 1.55027 -1.19272 0
M  V30 9721 O 922.146 2.23498 -1.54146 0
M  V30 9722 C 920.602 0.601856 -3.54832 0
M  V30 9723 C 920.21 -0.620636 -4.4368 0
M  V30 9724 C 921.954 1.1732 -4.07966 0
M  V30 9725 C 919.861 -0.301376 -5.90632 0
M  V30 9726 H 918.791 0.119395 -0.744487 0
M  V30 9727 H 921.442 -0.409368 -1.78875 0
M  V30 9728 H 919.824 1.38024 -3.71168 0
M  V30 9729 H 920.998 -1.39685 -4.39118 0
M  V30 9730 H 919.313 -1.1106 -4.01316 0
M  V30 9731 H 921.91 1.42631 -5.15326 0
M  V30 9732 H 922.253 2.11537 -3.5855 0
M  V30 9733 H 922.786 0.456534 -3.95172 0
M  V30 9734 H 919.525 -1.21209 -6.44196 0
M  V30 9735 H 919.045 0.437574 -5.98202 0
M  V30 9736 H 920.724 0.097164 -6.46927 0
M  V30 9737 N 920.856 1.57574 -0.0284266 0
M  V30 9738 C 921.819 2.09096 0.938691 0
M  V30 9739 C 922.819 1.00588 1.25454 0
M  V30 9740 O 924.009 1.2675 1.19499 0
M  V30 9741 C 921.141 2.55624 2.25542 0
M  V30 9742 H 922.334 2.95829 0.49248 0
M  V30 9743 H 919.887 1.5475 0.219594 0
M  V30 9744 H 920.622 1.72218 2.74793 0
M  V30 9745 H 920.407 3.34896 2.03929 0
M  V30 9746 H 921.897 2.95712 2.94863 0
M  V30 9747 N 922.334 -0.244713 1.55689 0
M  V30 9748 C 923.282 -1.32276 1.91326 0
M  V30 9749 C 924.276 -1.49714 0.792589 0
M  V30 9750 O 925.482 -1.51163 0.977227 0
M  V30 9751 H 921.857 -0.442979 0.607679 0
M  V30 9752 H 923.828 -0.99486 2.81327 0
M  V30 9753 C 922.577 -2.67077 2.22633 0
M  V30 9754 H 921.9 -2.54458 3.08368 0
M  V30 9755 H 923.34 -3.41378 2.5147 0
M  V30 9756 C 921.799 -3.20335 1.04342 0
M  V30 9757 O 922.329 -4.00633 0.292543 0
M  V30 9758 N 920.535 -2.78392 0.833457 0
M  V30 9759 H 920.082 -2.13202 1.44577 0
M  V30 9760 H 920.04 -3.1437 0.0436713 0
M  V30 9761 N 923.813 -1.49104 -0.510467 0
M  V30 9762 C 924.723 -1.67792 -1.6396 0
M  V30 9763 C 925.739 -0.560454 -1.64727 0
M  V30 9764 O 926.915 -0.833985 -1.83321 0
M  V30 9765 C 923.98 -1.73154 -3.00364 0
M  V30 9766 C 923.041 -2.9667 -3.10299 0
M  V30 9767 C 922.274 -3.01767 -4.40196 0
M  V30 9768 O 922.497 -2.1472 -5.28443 0
M  V30 9769 O 921.431 -3.94137 -4.54906 0
M  V30 9770 H 925.257 -2.63428 -1.51126 0
M  V30 9771 H 922.842 -1.32734 -0.685719 0
M  V30 9772 H 924.724 -1.79089 -3.81451 0
M  V30 9773 H 923.399 -0.806952 -3.1348 0
M  V30 9774 H 922.306 -2.96257 -2.28435 0
M  V30 9775 H 923.639 -3.88578 -3.02106 0
M  V30 9776 N 925.291 0.760815 -1.38019 0
M  V30 9777 C 926.521 1.54776 -1.3685 0
M  V30 9778 C 926.929 1.89146 0.0453971 0
M  V30 9779 O 926.272 1.52746 1.0205 0
M  V30 9780 C 926.334 2.87923 -2.15269 0
M  V30 9781 C 925.998 2.76131 -3.64144 0
M  V30 9782 C 926.995 2.46417 -4.57794 0
M  V30 9783 C 924.68 2.9381 -4.07408 0
M  V30 9784 C 926.674 2.34525 -5.92686 0
M  V30 9785 C 924.361 2.81539 -5.42383 0
M  V30 9786 C 925.359 2.51938 -6.34836 0
M  V30 9787 O 925.047 2.39713 -7.67329 0
M  V30 9788 H 924.779 0.485776 -0.470104 0
M  V30 9789 H 927.333 0.949939 -1.82113 0
M  V30 9790 H 925.563 3.49867 -1.64712 0
M  V30 9791 H 927.252 3.49389 -2.06596 0
M  V30 9792 H 928.018 2.32433 -4.25676 0
M  V30 9793 H 923.897 3.15849 -3.35799 0
M  V30 9794 H 927.441 2.11342 -6.64816 0
M  V30 9795 H 923.338 2.95093 -5.741 0
M  V30 9796 H 924.106 2.5498 -7.77771 0
M  V30 9797 N 926.769 1.22769 0.988202 0
M  V30 9798 C 928.18 1.0512 1.54294 0
M  V30 9799 C 928.531 -0.383904 1.92407 0
M  V30 9800 O 927.656 -1.26955 1.75246 0
M  V30 9801 C 928.251 1.90198 2.80375 0
M  V30 9802 C 926.81 1.76831 3.32276 0
M  V30 9803 C 925.957 1.86377 2.05326 0
M  V30 9804 H 928.908 1.36546 0.808758 0
M  V30 9805 H 928.929 1.42216 3.52923 0
M  V30 9806 H 928.441 2.9464 2.52605 0
M  V30 9807 H 926.542 0.751412 3.64945 0
M  V30 9808 H 926.655 2.59771 4.02562 0
M  V30 9809 H 925.019 1.2987 2.19103 0
M  V30 9810 H 925.802 2.9236 1.79946 0
M  V30 9811 N 928.247 -1.18576 1.03814 0
M  V30 9812 C 929.157 -2.25778 0.637311 0
M  V30 9813 C 930.173 -1.7074 -0.335248 0
M  V30 9814 O 931.349 -2.00494 -0.19081 0
M  V30 9815 C 928.414 -3.467 0.00386953 0
M  V30 9816 C 927.475 -4.16881 1.02511 0
M  V30 9817 C 926.708 -5.32031 0.421802 0
M  V30 9818 O 926.931 -5.65142 -0.772699 0
M  V30 9819 O 925.865 -5.90826 1.14925 0
M  V30 9820 H 929.691 -2.62323 1.53037 0
M  V30 9821 H 927.276 -1.25609 0.80887 0
M  V30 9822 H 929.158 -4.19953 -0.348873 0
M  V30 9823 H 927.833 -3.11983 -0.863047 0
M  V30 9824 H 926.74 -3.45707 1.4296 0
M  V30 9825 H 928.073 -4.55592 1.86271 0
M  V30 9826 N 929.725 -0.817259 -1.34754 0
M  V30 9827 C 931.002 -0.325468 -1.92873 0
M  V30 9828 C 931.382 1.18643 -1.74606 0
M  V30 9829 O 930.73 1.9909 -1.1214 0
M  V30 9830 C 930.94 -0.74858 -3.40877 0
M  V30 9831 C 932.288 -0.744165 -4.18028 0
M  V30 9832 O 933.312 -0.690799 -3.49437 0
M  V30 9833 O 932.171 -0.812207 -5.40431 0
M  V30 9834 H 929.265 -0.0876397 -0.822343 0
M  V30 9835 H 931.811 -0.901671 -1.43764 0
M  V30 9836 H 930.583 -1.79017 -3.47949 0
M  V30 9837 H 930.206 -0.147764 -3.97325 0
M  V30 9838 N 931.203 1.46865 -0.571711 0
M  V30 9839 C 932.45 2.0243 -0.0531071 0
M  V30 9840 C 932.778 1.44446 1.30252 0
M  V30 9841 O 932.033 0.595182 1.8643 0
M  V30 9842 C 932.332 3.57323 0.0742311 0
M  V30 9843 C 931.998 4.34295 -1.21237 0
M  V30 9844 C 930.66 4.55044 -1.56489 0
M  V30 9845 C 933.012 4.78577 -2.0643 0
M  V30 9846 C 930.34 5.17325 -2.76752 0
M  V30 9847 C 932.692 5.42186 -3.25909 0
M  V30 9848 C 931.356 5.61165 -3.61456 0
M  V30 9849 H 930.626 0.740745 -0.0194333 0
M  V30 9850 H 933.273 1.76366 -0.74614 0
M  V30 9851 H 931.578 3.82461 0.850325 0
M  V30 9852 H 933.275 3.97982 0.491077 0
M  V30 9853 H 929.865 4.18435 -0.927922 0
M  V30 9854 H 934.049 4.62313 -1.80501 0
M  V30 9855 H 929.305 5.30211 -3.04444 0
M  V30 9856 H 933.479 5.75459 -3.92198 0
M  V30 9857 H 931.106 6.09195 -4.54737 0
M  V30 9858 N 932.681 0.308908 1.54543 0
M  V30 9859 C 933.927 -0.298478 2.00592 0
M  V30 9860 C 934.26 -1.52929 1.19692 0
M  V30 9861 O 933.535 -1.9254 0.27542 0
M  V30 9862 C 933.818 -0.647218 3.54236 0
M  V30 9863 C 933.671 0.593284 4.4587 0
M  V30 9864 C 934.99 -1.47064 4.14801 0
M  V30 9865 H 932.109 -0.107012 0.72919 0
M  V30 9866 H 934.751 0.422578 1.85241 0
M  V30 9867 H 932.901 -1.26153 3.67447 0
M  V30 9868 H 934.573 1.2317 4.44552 0
M  V30 9869 H 932.816 1.22501 4.16144 0
M  V30 9870 H 933.487 0.305018 5.51157 0
M  V30 9871 H 935.963 -0.951511 4.05075 0
M  V30 9872 H 934.839 -1.68343 5.22448 0
M  V30 9873 H 935.1 -2.4623 3.67183 0
M  V30 9874 N 934.159 -1.57557 0.0367827 0
M  V30 9875 C 935.107 -2.11844 -0.960454 0
M  V30 9876 C 936.101 -1.04681 -1.33185 0
M  V30 9877 O 937.307 -1.23108 -1.31318 0
M  V30 9878 H 933.682 -0.676921 -0.32754 0
M  V30 9879 H 935.653 -2.94557 -0.477346 0
M  V30 9880 C 934.402 -2.66683 -2.23105 0
M  V30 9881 H 933.725 -3.48795 -1.95403 0
M  V30 9882 H 935.165 -3.08305 -2.91074 0
M  V30 9883 C 933.624 -1.59782 -2.96599 0
M  V30 9884 O 934.154 -1.00214 -3.88999 0
M  V30 9885 N 932.36 -1.31644 -2.59072 0
M  V30 9886 H 931.907 -1.80272 -1.8401 0
M  V30 9887 H 931.865 -0.603457 -3.08554 0
M  V30 9888 N 935.637 0.236453 -1.55816 0
M  V30 9889 C 936.867 0.978873 -1.81939 0
M  V30 9890 C 937.275 1.79041 -0.611647 0
M  V30 9891 O 936.618 1.78616 0.429172 0
M  V30 9892 C 936.68 1.9569 -3.01572 0
M  V30 9893 C 936.344 1.33131 -4.37178 0
M  V30 9894 C 937.341 0.728585 -5.1477 0
M  V30 9895 C 935.026 1.34755 -4.83887 0
M  V30 9896 C 937.02 0.150427 -6.37222 0
M  V30 9897 C 934.707 0.765539 -6.06286 0
M  V30 9898 C 935.705 0.168017 -6.82793 0
M  V30 9899 O 935.393 -0.404976 -8.02879 0
M  V30 9900 H 935.125 0.293186 -0.609113 0
M  V30 9901 H 937.679 0.261384 -2.0373 0
M  V30 9902 H 935.909 2.71298 -2.75562 0
M  V30 9903 H 937.598 2.56362 -3.14695 0
M  V30 9904 H 938.364 0.708477 -4.79797 0
M  V30 9905 H 934.243 1.80202 -4.24321 0
M  V30 9906 H 937.787 -0.316586 -6.96881 0
M  V30 9907 H 933.684 0.78301 -6.40733 0
M  V30 9908 H 934.452 -0.29785 -8.17958 0
M  V30 9909 N 937.115 1.49373 0.502552 0
M  V30 9910 C 938.063 1.66411 1.62512 0
M  V30 9911 C 939.057 0.530062 1.60893 0
M  V30 9912 O 940.263 0.709648 1.65421 0
M  V30 9913 H 936.638 0.524707 0.538689 0
M  V30 9914 H 938.609 2.60639 1.45293 0
M  V30 9915 C 937.358 1.74648 3.00655 0
M  V30 9916 H 936.681 2.61285 3.02606 0
M  V30 9917 H 938.121 1.90605 3.78742 0
M  V30 9918 C 936.58 0.490963 3.33303 0
M  V30 9919 O 937.11 -0.384039 3.9986 0
M  V30 9920 N 935.316 0.354375 2.88431 0
M  V30 9921 H 934.863 1.06742 2.34444 0
M  V30 9922 H 934.821 -0.484593 3.10643 0
M  V30 9923 N 938.594 -0.753485 1.38421 0
M  V30 9924 C 939.541 -1.86723 1.35659 0
M  V30 9925 C 940.511 -1.64648 0.219121 0
M  V30 9926 O 941.696 -1.86313 0.411366 0
M  V30 9927 C 938.836 -3.24023 1.18758 0
M  V30 9928 C 937.949 -3.57928 2.41892 0
M  V30 9929 C 937.084 -4.84532 2.17721 0
M  V30 9930 C 936.123 -5.11224 3.36626 0
M  V30 9931 N 935.26 -6.29023 3.11889 0
M  V30 9932 H 940.1 -1.88419 2.30873 0
M  V30 9933 H 937.637 -0.920934 1.14705 0
M  V30 9934 H 939.595 -4.03252 1.06974 0
M  V30 9935 H 938.225 -3.21654 0.27182 0
M  V30 9936 H 937.277 -2.73541 2.64347 0
M  V30 9937 H 938.589 -3.73581 3.30513 0
M  V30 9938 H 937.743 -5.71704 2.03074 0
M  V30 9939 H 936.482 -4.71018 1.26465 0
M  V30 9940 H 935.487 -4.2252 3.51791 0
M  V30 9941 H 936.712 -5.26635 4.28757 0
M  V30 9942 H 934.658 -6.16832 2.2328 0
M  V30 9943 H 934.575 -6.45177 3.9406 0
M  V30 9944 H 935.843 -7.19083 3.00898 0
M  V30 9945 N 940.072 -1.23292 -0.981677 0
M  V30 9946 C 941.019 -1.01296 -2.07383 0
M  V30 9947 C 941.989 0.069139 -1.65956 0
M  V30 9948 O 943.174 -0.0827108 -1.90621 0
M  V30 9949 C 940.314 -0.608876 -3.39686 0
M  V30 9950 C 939.427 -1.76296 -3.9439 0
M  V30 9951 C 938.562 -1.30578 -5.14901 0
M  V30 9952 C 937.601 -2.4307 -5.61768 0
M  V30 9953 N 936.738 -1.98319 -6.73509 0
M  V30 9954 H 941.578 -1.9478 -2.25532 0
M  V30 9955 H 939.115 -0.970356 -1.10555 0
M  V30 9956 H 941.073 -0.355702 -4.15681 0
M  V30 9957 H 939.703 0.288961 -3.21504 0
M  V30 9958 H 938.755 -2.13017 -3.15163 0
M  V30 9959 H 940.067 -2.60871 -4.25145 0
M  V30 9960 H 939.221 -1.01066 -5.98223 0
M  V30 9961 H 937.96 -0.430386 -4.85797 0
M  V30 9962 H 936.965 -2.73358 -4.77028 0
M  V30 9963 H 938.19 -3.31144 -5.92892 0
M  V30 9964 H 936.136 -1.13157 -6.46167 0
M  V30 9965 H 936.053 -2.76454 -7.0364 0
M  V30 9966 H 937.321 -1.71907 -7.60308 0
M  V30 9967 N 941.55 1.18024 -1.04442 0
M  V30 9968 C 942.797 1.88098 -0.750022 0
M  V30 9969 C 943.125 1.80583 0.722489 0
M  V30 9970 O 942.38 1.20329 1.54335 0
M  V30 9971 C 942.679 3.37834 -1.16631 0
M  V30 9972 C 942.345 3.65553 -2.63974 0
M  V30 9973 C 941.007 3.72827 -3.04226 0
M  V30 9974 C 943.359 3.77634 -3.59224 0
M  V30 9975 C 940.687 3.89666 -4.38608 0
M  V30 9976 C 943.039 3.9599 -4.9333 0
M  V30 9977 C 941.703 4.01501 -5.33248 0
M  V30 9978 H 940.973 0.6883 -0.274452 0
M  V30 9979 H 943.62 1.39671 -1.31012 0
M  V30 9980 H 941.925 3.88266 -0.525071 0
M  V30 9981 H 943.622 3.90402 -0.915827 0
M  V30 9982 H 940.212 3.6051 -2.31798 0
M  V30 9983 H 944.396 3.71342 -3.2927 0
M  V30 9984 H 939.652 3.92178 -4.69048 0
M  V30 9985 H 943.826 4.0428 -5.67037 0
M  V30 9986 H 941.453 4.14301 -6.37384 0
M  V30 9987 N 943.028 0.824394 1.34319 0
M  V30 9988 C 943.958 0.262077 2.32025 0
M  V30 9989 C 944.939 -0.622277 1.58309 0
M  V30 9990 O 946.124 -0.548848 1.86283 0
M  V30 9991 C 943.254 -0.57567 3.42496 0
M  V30 9992 C 942.208 0.21167 4.27476 0
M  V30 9993 C 941.534 -0.748913 5.29429 0
M  V30 9994 C 942.834 1.42068 5.02607 0
M  V30 9995 H 944.528 1.07842 2.79304 0
M  V30 9996 H 942.074 0.520022 1.34282 0
M  V30 9997 H 944.027 -0.979251 4.09864 0
M  V30 9998 H 942.751 -1.42508 2.93869 0
M  V30 9999 H 941.41 0.596636 3.61712 0
M  V30 10000 H 941.058 -1.59432 4.77064 0
M  V30 10001 H 940.758 -0.226313 5.87164 0
M  V30 10002 H 942.282 -1.15032 5.99667 0
M  V30 10003 H 943.696 1.09103 5.62823 0
M  V30 10004 H 942.093 1.87903 5.69923 0
M  V30 10005 H 943.163 2.1981 4.32217 0
M  V30 10006 N 944.506 -1.46559 0.579492 0
M  V30 10007 C 945.731 -2.0729 0.0674595 0
M  V30 10008 C 946.156 -1.4259 -1.22677 0
M  V30 10009 O 945.514 -0.50857 -1.74021 0
M  V30 10010 C 945.562 -3.60492 -0.0882227 0
M  V30 10011 O 944.666 -3.96172 -1.14551 0
M  V30 10012 H 944.007 -0.661159 0.0613536 0
M  V30 10013 H 946.537 -1.88247 0.801519 0
M  V30 10014 H 946.547 -4.06929 -0.295411 0
M  V30 10015 H 945.222 -4.06976 0.856943 0
M  V30 10016 H 943.799 -3.61448 -0.917033 0
M  V30 10017 N 945.984 -0.3171 -1.54377 0
M  V30 10018 C 947.4 0.035766 -1.5956 0
M  V30 10019 C 947.6 1.51038 -1.33378 0
M  V30 10020 O 946.656 2.26546 -1.11505 0
M  V30 10021 C 947.969 -0.376652 -2.98332 0
M  V30 10022 C 949.517 -0.326765 -3.1129 0
M  V30 10023 C 949.992 -0.714247 -4.52396 0
M  V30 10024 N 951.483 -0.667402 -4.58367 0
M  V30 10025 C 952.218 -0.939494 -5.65651 0
M  V30 10026 N 951.714 -1.27839 -6.80903 0
M  V30 10027 N 953.507 -0.865484 -5.55397 0
M  V30 10028 H 945.658 -1.27794 -1.69654 0
M  V30 10029 H 947.921 -0.5192 -0.79318 0
M  V30 10030 H 947.627 -1.40381 -3.22469 0
M  V30 10031 H 947.501 0.261611 -3.76292 0
M  V30 10032 H 949.888 0.69117 -2.86892 0
M  V30 10033 H 949.969 -0.999873 -2.35449 0
M  V30 10034 H 949.613 -1.73007 -4.77526 0
M  V30 10035 H 949.543 -0.0188962 -5.26597 0
M  V30 10036 H 952.034 -0.417062 -3.75592 0
M  V30 10037 H 952.347 -1.47155 -7.5866 0
M  V30 10038 H 950.692 -1.31658 -6.82416 0
M  V30 10039 H 953.883 -0.600265 -4.64235 0
M  V30 10040 H 954.056 -1.0809 -6.38921 0
M  V30 10041 N 947.462 1.57535 -0.0451378 0
M  V30 10042 C 948.711 1.91628 0.629415 0
M  V30 10043 C 949.024 0.924754 1.72359 0
M  V30 10044 O 950.23 1.15751 2.45589 0
M  V30 10045 C 948.686 3.40322 1.17084 0
M  V30 10046 C 948.294 4.47867 0.109101 0
M  V30 10047 C 950.038 3.83458 1.82099 0
M  V30 10048 C 947.945 5.87671 0.663072 0
M  V30 10049 H 946.875 0.715163 0.238868 0
M  V30 10050 H 949.526 1.83151 -0.113046 0
M  V30 10051 H 947.908 3.43783 1.96543 0
M  V30 10052 H 949.082 4.55988 -0.664201 0
M  V30 10053 H 947.397 4.14034 -0.443227 0
M  V30 10054 H 949.994 4.85273 2.2453 0
M  V30 10055 H 950.337 3.19379 2.67026 0
M  V30 10056 H 950.87 3.82488 1.09305 0
M  V30 10057 H 947.609 6.55332 -0.148423 0
M  V30 10058 H 947.129 5.83124 1.4045 0
M  V30 10059 H 948.808 6.36737 1.14785 0
M  V30 10060 N 948.94 -0.228186 1.55939 0
M  V30 10061 C 950.17 -0.969211 1.82455 0
M  V30 10062 C 950.578 -1.78714 0.621133 0
M  V30 10063 O 949.921 -1.78841 -0.419694 0
M  V30 10064 C 949.983 -1.94088 3.02605 0
M  V30 10065 C 949.647 -1.30811 4.37878 0
M  V30 10066 C 950.644 -0.701275 5.15149 0
M  V30 10067 C 948.329 -1.32187 4.84595 0
M  V30 10068 C 950.323 -0.116631 6.37293 0
M  V30 10069 C 948.01 -0.733375 6.06683 0
M  V30 10070 C 949.008 -0.131804 6.82873 0
M  V30 10071 O 948.696 0.447549 8.02653 0
M  V30 10072 H 948.428 -0.289951 0.610659 0
M  V30 10073 H 950.982 -0.250576 2.03866 0
M  V30 10074 H 949.212 -2.69833 2.76996 0
M  V30 10075 H 950.901 -2.5469 3.1605 0
M  V30 10076 H 951.667 -0.683022 4.80166 0
M  V30 10077 H 947.546 -1.77949 4.25271 0
M  V30 10078 H 951.09 0.353539 6.96704 0
M  V30 10079 H 946.987 -0.749019 6.4114 0
M  V30 10080 H 947.755 0.341224 8.17788 0
M  V30 10081 N 950.418 -1.49637 -0.494624 0
M  V30 10082 C 951.829 -1.52573 -1.07603 0
M  V30 10083 C 952.18 -0.315591 -1.93645 0
M  V30 10084 O 951.305 0.573966 -2.08649 0
M  V30 10085 C 951.9 -2.7648 -1.95817 0
M  V30 10086 C 950.459 -2.82173 -2.49109 0
M  V30 10087 C 949.606 -2.4657 -1.2688 0
M  V30 10088 H 952.557 -1.56242 -0.278251 0
M  V30 10089 H 952.578 -2.57003 -2.80588 0
M  V30 10090 H 952.09 -3.64538 -1.33167 0
M  V30 10091 H 950.191 -1.9841 -3.15379 0
M  V30 10092 H 950.304 -3.84501 -2.85825 0
M  V30 10093 H 948.668 -1.98489 -1.59607 0
M  V30 10094 H 949.451 -3.3691 -0.659281 0
M  V30 10095 N 951.896 0.746133 -1.38819 0
M  V30 10096 C 953.121 1.54049 -1.38866 0
M  V30 10097 C 953.546 1.88092 0.0176624 0
M  V30 10098 O 952.904 1.51113 1.00173 0
M  V30 10099 C 952.952 2.8116 -2.25791 0
M  V30 10100 O 952.056 3.76623 -1.68014 0
M  V30 10101 H 951.397 0.465648 -0.473359 0
M  V30 10102 H 953.927 0.921469 -1.82675 0
M  V30 10103 H 953.937 3.30009 -2.39913 0
M  V30 10104 H 952.612 2.55713 -3.27999 0
M  V30 10105 H 951.189 3.35352 -1.63074 0
M  V30 10106 N 953.375 1.23811 0.975125 0
M  V30 10107 C 954.338 1.02505 2.05001 0
M  V30 10108 C 955.338 -0.0150084 1.60793 0
M  V30 10109 O 956.528 0.225246 1.72738 0
M  V30 10110 C 953.66 0.552087 3.364 0
M  V30 10111 H 954.853 1.979 2.25335 0
M  V30 10112 H 952.406 1.05929 1.1493 0
M  V30 10113 H 953.141 -0.405394 3.21756 0
M  V30 10114 H 952.926 1.30267 3.69828 0
M  V30 10115 H 954.416 0.423828 4.15444 0
M  V30 10116 N 954.853 -1.17469 1.05066 0
M  V30 10117 C 955.786 -2.2031 0.594863 0
M  V30 10118 C 956.764 -1.58196 -0.375878 0
M  V30 10119 O 957.948 -1.8629 -0.287798 0
M  V30 10120 C 955.075 -3.38452 -0.129614 0
M  V30 10121 C 954.121 -4.19007 0.795943 0
M  V30 10122 S 954.954 -4.8433 2.28441 0
M  V30 10123 C 956.11 -6.05862 1.57107 0
M  V30 10124 H 956.343 -2.58632 1.46618 0
M  V30 10125 H 953.876 -1.28063 0.862511 0
M  V30 10126 H 955.834 -4.06914 -0.541416 0
M  V30 10127 H 954.495 -2.98521 -0.976948 0
M  V30 10128 H 953.688 -5.0345 0.235396 0
M  V30 10129 H 953.29 -3.55976 1.14705 0
M  V30 10130 H 955.582 -6.71895 0.86969 0
M  V30 10131 H 956.525 -6.66442 2.39292 0
M  V30 10132 H 956.933 -5.54477 1.05903 0
M  V30 10133 N 956.331 -0.831506 -1.3388 0
M  V30 10134 C 957.747 -0.518349 -1.50948 0
M  V30 10135 C 957.947 0.955807 -1.77388 0
M  V30 10136 O 957.003 1.73993 -1.82983 0
M  V30 10137 C 958.316 -1.38531 -2.66889 0
M  V30 10138 C 959.864 -1.38332 -2.80772 0
M  V30 10139 C 960.339 -2.23497 -3.99766 0
M  V30 10140 N 961.83 -2.21167 -4.06988 0
M  V30 10141 C 962.565 -2.83805 -4.98239 0
M  V30 10142 N 962.061 -3.55468 -5.94655 0
M  V30 10143 N 963.854 -2.73314 -4.91178 0
M  V30 10144 H 956.005 -1.78588 -1.14978 0
M  V30 10145 H 958.268 -0.761508 -0.564633 0
M  V30 10146 H 957.974 -2.43255 -2.54007 0
M  V30 10147 H 957.848 -1.05611 -3.62114 0
M  V30 10148 H 960.235 -0.343832 -2.9309 0
M  V30 10149 H 960.316 -1.75256 -1.86331 0
M  V30 10150 H 959.96 -3.27501 -3.88208 0
M  V30 10151 H 959.89 -1.83919 -4.93438 0
M  V30 10152 H 962.381 -1.69046 -3.37982 0
M  V30 10153 H 962.694 -4.00487 -6.60931 0
M  V30 10154 H 961.039 -3.59575 -5.94753 0
M  V30 10155 H 964.23 -2.16897 -4.14817 0
M  V30 10156 H 964.403 -3.22416 -5.62096 0
M  V30 10157 N 957.809 1.4625 -0.587256 0
M  V30 10158 C 959.058 2.01571 -0.0722643 0
M  V30 10159 C 959.371 1.46385 1.29733 0
M  V30 10160 O 960.577 1.93554 1.90392 0
M  V30 10161 C 959.033 3.59814 -0.078579 0
M  V30 10162 C 958.641 4.23996 -1.44678 0
M  V30 10163 C 960.385 4.22776 0.382231 0
M  V30 10164 C 958.292 5.74332 -1.41057 0
M  V30 10165 H 957.222 0.753642 -0.0232461 0
M  V30 10166 H 959.873 1.67936 -0.739577 0
M  V30 10167 H 958.255 3.90546 0.654988 0
M  V30 10168 H 959.429 4.04867 -2.20043 0
M  V30 10169 H 957.744 3.73147 -1.84799 0
M  V30 10170 H 960.341 5.32983 0.428182 0
M  V30 10171 H 960.684 3.92027 1.40072 0
M  V30 10172 H 961.217 3.96687 -0.297417 0
M  V30 10173 H 957.956 6.09747 -2.40601 0
M  V30 10174 H 957.476 5.95711 -0.699185 0
M  V30 10175 H 959.155 6.37137 -1.12543 0
M  V30 10176 N 959.287 0.325282 1.54207 0
M  V30 10177 C 960.564 -0.33113 1.92777 0
M  V30 10178 C 960.944 -1.69739 1.25506 0
M  V30 10179 O 960.292 -2.24983 0.399385 0
M  V30 10180 C 960.502 -0.421636 3.46444 0
M  V30 10181 C 961.85 -0.681111 4.19101 0
M  V30 10182 O 962.874 -0.504488 3.52609 0
M  V30 10183 O 961.733 -1.02196 5.3686 0
M  V30 10184 H 958.827 -0.18943 0.805013 0
M  V30 10185 H 961.373 0.375123 1.65502 0
M  V30 10186 H 960.145 0.537862 3.87586 0
M  V30 10187 H 959.768 -1.1754 3.79829 0
M  V30 10188 N 960.765 -1.57509 0.0534917 0
M  V30 10189 C 961.99 -1.97511 -0.632794 0
M  V30 10190 C 962.415 -0.930947 -1.63447 0
M  V30 10191 O 961.773 0.105558 -1.80992 0
M  V30 10192 C 961.821 -3.3658 -1.29407 0
M  V30 10193 O 960.925 -3.3467 -2.40977 0
M  V30 10194 H 960.266 -0.643349 -0.16431 0
M  V30 10195 H 962.796 -2.04232 0.12258 0
M  V30 10196 H 962.806 -3.73359 -1.64521 0
M  V30 10197 H 961.481 -4.12113 -0.559976 0
M  V30 10198 H 960.058 -3.09639 -2.07793 0
M  V30 10199 N 962.243 0.219913 -1.56058 0
M  V30 10200 C 963.468 0.965073 -1.83579 0
M  V30 10201 C 963.893 1.77092 -0.634024 0
M  V30 10202 O 963.251 1.76434 0.417205 0
M  V30 10203 C 963.299 1.85705 -3.09105 0
M  V30 10204 O 962.403 2.95261 -2.87914 0
M  V30 10205 H 961.744 0.273173 -0.605204 0
M  V30 10206 H 964.274 0.23273 -2.03272 0
M  V30 10207 H 964.284 2.26655 -3.39252 0
M  V30 10208 H 962.959 1.26476 -3.96203 0
M  V30 10209 H 961.536 2.58246 -2.69005 0
M  V30 10210 N 963.721 1.49897 0.486681 0
M  V30 10211 C 964.669 1.68125 1.60738 0
M  V30 10212 C 965.663 0.547097 1.60322 0
M  V30 10213 O 966.869 0.727153 1.64659 0
M  V30 10214 H 963.244 0.530391 0.533094 0
M  V30 10215 H 965.215 2.62165 1.42521 0
M  V30 10216 C 963.964 1.77827 2.98786 0
M  V30 10217 H 963.287 2.6448 2.99818 0
M  V30 10218 H 964.727 1.94611 3.76699 0
M  V30 10219 C 963.186 0.526287 3.32764 0
M  V30 10220 O 963.716 -0.341607 4.00245 0
M  V30 10221 N 961.922 0.384947 2.88039 0
M  V30 10222 H 961.469 1.09222 2.33299 0
M  V30 10223 H 961.427 -0.451618 3.11139 0
M  V30 10224 N 965.199 -0.738761 1.39212 0
M  V30 10225 C 966.129 -1.86602 1.40364 0
M  V30 10226 C 967.11 -1.67984 0.267495 0
M  V30 10227 O 968.295 -1.88358 0.472765 0
M  V30 10228 C 965.425 -3.24308 1.24265 0
M  V30 10229 C 964.379 -3.57557 2.35239 0
M  V30 10230 C 963.705 -4.94159 2.04233 0
M  V30 10231 C 965.005 -3.60914 3.77543 0
M  V30 10232 H 966.699 -1.85896 2.34698 0
M  V30 10233 H 964.245 -0.892959 1.1297 0
M  V30 10234 H 966.198 -4.02838 1.23692 0
M  V30 10235 H 964.922 -3.25531 0.263974 0
M  V30 10236 H 963.581 -2.81354 2.35022 0
M  V30 10237 H 963.229 -4.91959 1.04813 0
M  V30 10238 H 962.929 -5.17373 2.78567 0
M  V30 10239 H 964.453 -5.7505 2.05303 0
M  V30 10240 H 965.867 -4.29528 3.79709 0
M  V30 10241 H 964.264 -3.95644 4.51205 0
M  V30 10242 H 965.334 -2.60803 4.08791 0
M  V30 10243 N 966.677 -1.24326 -0.968545 0
M  V30 10244 C 967.625 -1.03256 -2.08425 0
M  V30 10245 C 968.619 0.0322356 -1.69369 0
M  V30 10246 O 969.825 -0.122251 -1.79584 0
M  V30 10247 H 966.2 -0.31688 -0.681976 0
M  V30 10248 H 968.171 -1.97873 -2.23358 0
M  V30 10249 C 966.92 -0.653144 -3.4151 0
M  V30 10250 H 966.243 -1.46424 -3.72021 0
M  V30 10251 H 967.683 -0.545316 -4.20479 0
M  V30 10252 C 966.142 0.639674 -3.30771 0
M  V30 10253 O 966.672 1.68563 -3.64622 0
M  V30 10254 N 964.878 0.620074 -2.83907 0
M  V30 10255 H 964.425 -0.231449 -2.56558 0
M  V30 10256 H 964.383 1.48528 -2.77104 0
M  V30 10257 N 968.156 1.1691 -1.05688 0
M  V30 10258 C 969.567 1.68915 -0.795273 0
M  V30 10259 C 969.918 1.83968 0.681925 0
M  V30 10260 O 969.043 1.53083 1.52953 0
M  V30 10261 C 969.638 3.06814 -1.43703 0
M  V30 10262 C 968.197 3.55965 -1.22335 0
M  V30 10263 C 967.344 2.32099 -1.51741 0
M  V30 10264 H 970.295 1.01357 -1.22116 0
M  V30 10265 H 970.316 3.70907 -0.849016 0
M  V30 10266 H 969.828 2.95826 -2.51214 0
M  V30 10267 H 967.929 3.72222 -0.16771 0
M  V30 10268 H 968.042 4.38427 -1.9318 0
M  V30 10269 H 966.406 2.36811 -0.937696 0
M  V30 10270 H 967.189 2.23715 -2.60397 0
M  V30 10271 N 969.634 0.838594 1.33437 0
M  V30 10272 C 970.566 0.229006 2.28053 0
M  V30 10273 C 971.579 -0.590103 1.51729 0
M  V30 10274 O 972.768 -0.417218 1.73556 0
M  V30 10275 C 969.868 -0.696251 3.31671 0
M  V30 10276 C 969.041 0.0834606 4.3732 0
M  V30 10277 C 968.1 -0.765097 5.20608 0
M  V30 10278 O 967.126 -0.2044 5.68833 0
M  V30 10279 N 968.328 -2.08249 5.4186 0
M  V30 10280 H 971.093 1.04196 2.81004 0
M  V30 10281 H 968.654 0.697031 1.46127 0
M  V30 10282 H 970.646 -1.26889 3.84293 0
M  V30 10283 H 969.216 -1.40992 2.78998 0
M  V30 10284 H 968.436 0.837481 3.85201 0
M  V30 10285 H 969.724 0.619613 5.05013 0
M  V30 10286 H 969.122 -2.56156 5.04381 0
M  V30 10287 H 967.679 -2.60362 5.97541 0
M  V30 10288 N 971.112 -1.45937 0.595003 0
M  V30 10289 C 972.389 -1.95592 0.0178748 0
M  V30 10290 C 972.769 -1.53758 -1.44643 0
M  V30 10291 O 972.117 -0.794104 -2.14257 0
M  V30 10292 C 972.327 -3.4841 0.202789 0
M  V30 10293 C 973.675 -4.2453 0.0770121 0
M  V30 10294 O 974.699 -3.55954 0.132257 0
M  V30 10295 O 973.558 -5.46479 -0.0484271 0
M  V30 10296 H 970.652 -0.825888 -0.0428702 0
M  V30 10297 H 973.198 -1.56162 0.664184 0
M  V30 10298 H 971.97 -3.71787 1.22027 0
M  V30 10299 H 971.593 -3.947 -0.479376 0
M  V30 10300 N 972.59 -0.333456 -1.54032 0
M  V30 10301 C 973.837 0.266133 -2.00744 0
M  V30 10302 C 974.165 1.51361 -1.22148 0
M  V30 10303 O 973.42 1.93473 -0.294368 0
M  V30 10304 C 973.719 0.63565 -3.51702 0
M  V30 10305 C 973.385 -0.513786 -4.47963 0
M  V30 10306 C 972.047 -0.829253 -4.74001 0
M  V30 10307 C 974.399 -1.2854 -5.05101 0
M  V30 10308 C 971.727 -1.91888 -5.54433 0
M  V30 10309 C 974.079 -2.3652 -5.86721 0
M  V30 10310 C 972.743 -2.68637 -6.11057 0
M  V30 10311 H 972.013 0.097385 -0.734573 0
M  V30 10312 H 974.66 -0.459282 -1.85911 0
M  V30 10313 H 972.965 1.44163 -3.64313 0
M  V30 10314 H 974.662 1.11129 -3.85294 0
M  V30 10315 H 971.252 -0.25784 -4.27824 0
M  V30 10316 H 975.436 -1.05494 -4.84958 0
M  V30 10317 H 970.692 -2.17208 -5.71516 0
M  V30 10318 H 974.866 -2.96747 -6.30011 0
M  V30 10319 H 972.493 -3.53197 -6.73169 0
M  V30 10320 N 974.068 1.57479 -0.061844 0
M  V30 10321 C 975.314 1.9421 0.604485 0
M  V30 10322 C 975.669 0.941011 1.67818 0
M  V30 10323 O 974.962 -0.0382264 1.91562 0
M  V30 10324 C 975.156 3.35394 1.23474 0
M  V30 10325 C 974.985 4.49144 0.223628 0
M  V30 10326 C 973.755 5.04949 -0.188187 0
M  V30 10327 C 975.953 5.11508 -0.535193 0
M  V30 10328 N 973.935 6.02235 -1.19105 0
M  V30 10329 C 975.306 6.04199 -1.39082 0
M  V30 10330 C 977.361 4.94364 -0.592346 0
M  V30 10331 C 976.064 6.81587 -2.2985 0
M  V30 10332 C 978.09 5.72388 -1.48749 0
M  V30 10333 C 977.452 6.6472 -2.33082 0
M  V30 10334 H 973.551 0.757931 0.192522 0
M  V30 10335 H 976.135 1.9422 -0.136667 0
M  V30 10336 H 974.306 3.36141 1.94587 0
M  V30 10337 H 976.038 3.59387 1.86073 0
M  V30 10338 H 972.793 4.73207 0.192933 0
M  V30 10339 H 973.217 6.55575 -1.68969 0
M  V30 10340 H 977.859 4.22776 0.045445 0
M  V30 10341 H 975.577 7.5246 -2.94669 0
M  V30 10342 H 979.163 5.61146 -1.53642 0
M  V30 10343 H 978.043 7.2404 -3.01225 0
M  V30 10344 N 975.546 -0.211634 1.56173 0
M  V30 10345 C 976.494 -1.28188 1.94089 0
M  V30 10346 C 977.488 -1.47999 0.824167 0
M  V30 10347 O 978.694 -1.49056 1.00907 0
M  V30 10348 H 975.069 -0.42999 0.616938 0
M  V30 10349 H 977.04 -0.934962 2.83374 0
M  V30 10350 C 975.789 -2.62294 2.28248 0
M  V30 10351 H 975.112 -2.4786 3.13696 0
M  V30 10352 H 976.552 -3.35967 2.58655 0
M  V30 10353 C 975.011 -3.18049 1.11113 0
M  V30 10354 O 975.541 -3.99923 0.377458 0
M  V30 10355 N 973.747 -2.76561 0.892321 0
M  V30 10356 H 973.294 -2.10088 1.49067 0
M  V30 10357 H 973.252 -3.14206 0.110344 0
M  V30 10358 N 977.024 -1.50153 -0.478725 0
M  V30 10359 C 978.264 -1.62393 -1.24129 0
M  V30 10360 C 978.628 -0.313774 -1.89419 0
M  V30 10361 O 979.829 -0.311537 -2.66989 0
M  V30 10362 C 978.1 -2.76633 -2.26293 0
M  V30 10363 S 979.659 -3.08961 -3.11591 0
M  V30 10364 H 976.477 -0.572559 -0.421541 0
M  V30 10365 H 979.079 -1.87906 -0.539592 0
M  V30 10366 H 977.783 -3.70319 -1.76896 0
M  V30 10367 H 977.314 -2.53182 -3.01102 0
M  V30 10368 H 979.329 -2.52197 -4.2733 0
M  V30 10369 N 978.502 0.731368 -1.39602 0
M  V30 10370 C 979.75 1.48805 -1.36753 0
M  V30 10371 C 980.071 1.94969 0.034676 0
M  V30 10372 O 979.341 1.69243 0.986591 0
M  V30 10373 H 977.921 0.55203 -0.503261 0
M  V30 10374 H 980.583 0.868013 -1.74504 0
M  V30 10375 H 979.679 2.36844 -2.03252 0
M  V30 10376 N 979.98 1.24838 0.961938 0
M  V30 10377 C 981.22 1.10348 1.72054 0
M  V30 10378 C 981.584 -0.350775 1.88769 0
M  V30 10379 O 982.785 -0.617323 2.61615 0
M  V30 10380 C 981.056 1.82916 3.07045 0
M  V30 10381 S 982.615 1.84227 3.98253 0
M  V30 10382 H 979.433 0.394552 0.591481 0
M  V30 10383 H 982.035 1.58254 1.14786 0
M  V30 10384 H 980.739 2.87829 2.92545 0
M  V30 10385 H 980.27 1.35366 3.69377 0
M  V30 10386 H 982.285 0.914073 4.87708 0
M  V30 10387 N 981.458 -1.16348 1.06306 0
M  V30 10388 C 982.39 -2.20316 0.631929 0
M  V30 10389 C 983.403 -1.59819 -0.310133 0
M  V30 10390 O 984.592 -1.78213 -0.101103 0
M  V30 10391 C 981.692 -3.3877 -0.0937645 0
M  V30 10392 C 980.865 -4.28826 0.861816 0
M  V30 10393 C 979.924 -5.25908 0.175346 0
M  V30 10394 O 978.95 -5.63363 0.813039 0
M  V30 10395 N 980.152 -5.70307 -1.08305 0
M  V30 10396 H 982.917 -2.57925 1.52626 0
M  V30 10397 H 980.478 -1.31358 0.946392 0
M  V30 10398 H 982.47 -4.00759 -0.563412 0
M  V30 10399 H 981.04 -2.99666 -0.889904 0
M  V30 10400 H 980.26 -3.64098 1.51083 0
M  V30 10401 H 981.548 -4.85875 1.51007 0
M  V30 10402 H 980.946 -5.4197 -1.62127 0
M  V30 10403 H 979.503 -6.34387 -1.49656 0
M  V30 10404 N 982.937 -0.845659 -1.3299 0
M  V30 10405 C 984.186 -0.440928 -1.96822 0
M  V30 10406 C 984.499 1.00668 -1.67706 0
M  V30 10407 O 985.705 1.51641 -2.25205 0
M  V30 10408 C 984.161 -0.73752 -3.52262 0
M  V30 10409 C 983.769 -2.20026 -3.90247 0
M  V30 10410 C 985.513 -0.400072 -4.22611 0
M  V30 10411 C 983.42 -2.44054 -5.38694 0
M  V30 10412 H 982.35 -0.161148 -0.736578 0
M  V30 10413 H 985.001 -1.03519 -1.51513 0
M  V30 10414 H 983.383 -0.0728025 -3.95933 0
M  V30 10415 H 984.557 -2.90602 -3.57613 0
M  V30 10416 H 982.872 -2.50135 -3.32899 0
M  V30 10417 H 985.469 -0.557136 -5.3179 0
M  V30 10418 H 985.812 0.657547 -4.11074 0
M  V30 10419 H 986.345 -1.0203 -3.84493 0
M  V30 10420 H 983.084 -3.48407 -5.55241 0
M  V30 10421 H 982.604 -1.78047 -5.72765 0
M  V30 10422 H 984.283 -2.27549 -6.05665 0
M  V30 10423 N 984.415 1.45619 -0.602734 0
M  V30 10424 C 985.661 2.02572 -0.0961759 0
M  V30 10425 C 985.994 1.47076 1.26815 0
M  V30 10426 O 985.269 0.643566 1.83544 0
M  V30 10427 C 985.552 3.60062 -0.0520032 0
M  V30 10428 C 985.405 4.25901 -1.44665 0
M  V30 10429 C 986.724 4.35446 0.638342 0
M  V30 10430 H 983.843 0.736099 -0.0364238 0
M  V30 10431 H 986.485 1.7353 -0.773776 0
M  V30 10432 H 984.635 3.84936 0.525032 0
M  V30 10433 H 986.307 4.12228 -2.0704 0
M  V30 10434 H 984.55 3.84489 -2.00874 0
M  V30 10435 H 985.221 5.34779 -1.36803 0
M  V30 10436 H 987.697 4.15837 0.147926 0
M  V30 10437 H 986.573 5.45176 0.63834 0
M  V30 10438 H 986.834 4.07962 1.70351 0
M  V30 10439 N 985.893 0.34162 1.53853 0
M  V30 10440 C 986.856 -0.503541 2.236 0
M  V30 10441 C 987.856 -1.02912 1.23554 0
M  V30 10442 O 989.046 -0.918678 1.48007 0
M  V30 10443 C 986.178 -1.70126 2.95415 0
M  V30 10444 H 987.371 0.106437 2.99711 0
M  V30 10445 H 984.924 0.0929408 1.56023 0
M  V30 10446 H 985.659 -2.34999 2.23486 0
M  V30 10447 H 985.444 -1.33161 3.68796 0
M  V30 10448 H 986.934 -2.30077 3.48503 0
M  V30 10449 N 987.371 -1.57444 0.0701946 0
M  V30 10450 C 988.304 -2.08232 -0.93352 0
M  V30 10451 C 989.282 -0.987073 -1.29212 0
M  V30 10452 O 990.466 -1.26035 -1.40169 0
M  V30 10453 C 987.593 -2.53866 -2.2421 0
M  V30 10454 C 986.639 -3.7481 -2.03518 0
M  V30 10455 S 987.472 -5.1958 -1.29601 0
M  V30 10456 C 988.628 -5.68544 -2.61742 0
M  V30 10457 H 988.861 -2.93042 -0.501354 0
M  V30 10458 H 986.394 -1.53741 -0.142533 0
M  V30 10459 H 988.352 -2.80818 -2.99419 0
M  V30 10460 H 987.013 -1.69327 -2.64551 0
M  V30 10461 H 986.206 -4.04724 -3.00358 0
M  V30 10462 H 985.808 -3.48222 -1.36445 0
M  V30 10463 H 988.1 -5.75291 -3.57836 0
M  V30 10464 H 989.043 -6.67459 -2.3644 0
M  V30 10465 H 989.451 -4.96354 -2.68873 0
M  V30 10466 N 988.849 0.203349 -1.56283 0
M  V30 10467 C 989.797 1.27157 -1.94766 0
M  V30 10468 C 990.791 1.4756 -0.832005 0
M  V30 10469 O 991.997 1.48519 -1.01696 0
M  V30 10470 H 988.372 0.426712 -0.61921 0
M  V30 10471 H 990.343 0.919921 -2.83866 0
M  V30 10472 C 989.092 2.6108 -2.29636 0
M  V30 10473 H 988.415 2.46193 -3.15006 0
M  V30 10474 H 989.855 3.34591 -2.60433 0
M  V30 10475 C 988.314 3.17456 -1.12799 0
M  V30 10476 O 988.844 3.99717 -0.398661 0
M  V30 10477 N 987.05 2.76084 -0.906975 0
M  V30 10478 H 986.597 2.09294 -1.50179 0
M  V30 10479 H 986.555 3.14143 -0.127005 0
M  V30 10480 N 990.327 1.50405 0.470755 0
M  V30 10481 C 991.574 1.61411 1.22281 0
M  V30 10482 C 991.902 0.314603 1.91939 0
M  V30 10483 O 991.157 -0.699531 1.82771 0
M  V30 10484 C 991.456 2.74426 2.28965 0
M  V30 10485 C 991.122 4.14896 1.76557 0
M  V30 10486 C 989.784 4.53116 1.61985 0
M  V30 10487 C 992.136 5.02686 1.3768 0
M  V30 10488 C 989.464 5.76868 1.0696 0
M  V30 10489 C 991.816 6.26985 0.840967 0
M  V30 10490 C 990.48 6.64008 0.68188 0
M  V30 10491 H 989.75 0.590645 0.447459 0
M  V30 10492 H 992.397 1.84339 0.518783 0
M  V30 10493 H 990.702 2.45588 3.05277 0
M  V30 10494 H 992.399 2.80146 2.86914 0
M  V30 10495 H 988.989 3.84743 1.88867 0
M  V30 10496 H 993.173 4.7379 1.47772 0
M  V30 10497 H 988.429 6.04227 0.933808 0
M  V30 10498 H 992.603 6.94372 0.531066 0
M  V30 10499 H 990.23 7.59778 0.25335 0
M  V30 10500 N 991.805 -0.723954 1.39988 0
M  V30 10501 C 992.737 -1.84859 1.35498 0
M  V30 10502 C 993.75 -1.60681 0.261812 0
M  V30 10503 O 994.939 -1.7071 0.521566 0
M  V30 10504 C 992.039 -3.21103 1.08381 0
M  V30 10505 C 991.212 -3.72546 2.2919 0
M  V30 10506 C 990.271 -4.8738 1.9836 0
M  V30 10507 O 989.297 -5.00467 2.71149 0
M  V30 10508 N 990.499 -5.72566 0.956461 0
M  V30 10509 H 993.264 -1.89212 2.3242 0
M  V30 10510 H 990.825 -0.905152 1.34233 0
M  V30 10511 H 992.817 -3.9551 0.857564 0
M  V30 10512 H 991.387 -3.1195 0.201549 0
M  V30 10513 H 990.607 -2.89365 2.67697 0
M  V30 10514 H 991.895 -4.03652 3.09746 0
M  V30 10515 H 991.293 -5.64595 0.353444 0
M  V30 10516 H 989.85 -6.46993 0.790118 0
M  V30 10517 N 993.283 -1.25346 -0.955304 0
M  V30 10518 C 994.511 -1.12793 -1.73451 0
M  V30 10519 C 994.926 0.318344 -1.86097 0
M  V30 10520 O 994.283 1.21897 -1.35821 0
M  V30 10521 C 994.334 -1.77603 -3.14864 0
M  V30 10522 O 994.055 -3.16577 -3.02837 0
M  V30 10523 C 995.556 -1.70821 -4.09066 0
M  V30 10524 H 992.776 -0.393457 -0.543537 0
M  V30 10525 H 995.32 -1.65696 -1.19855 0
M  V30 10526 H 993.475 -1.28673 -3.65407 0
M  V30 10527 H 993.889 -3.48433 -3.92039 0
M  V30 10528 H 995.363 -2.2083 -5.05903 0
M  V30 10529 H 995.84 -0.671858 -4.34031 0
M  V30 10530 H 996.446 -2.19237 -3.64438 0
M  V30 10531 N 994.761 1.15782 -1.06922 0
M  V30 10532 C 996.172 1.68062 -0.813144 0
M  V30 10533 C 996.523 1.84681 0.662374 0
M  V30 10534 O 995.648 1.54696 1.51321 0
M  V30 10535 C 996.243 3.05273 -1.46949 0
M  V30 10536 C 994.802 3.54647 -1.26104 0
M  V30 10537 C 993.949 2.30477 -1.54194 0
M  V30 10538 H 996.9 1.00056 -1.23185 0
M  V30 10539 H 996.921 3.69986 -0.888308 0
M  V30 10540 H 996.433 2.93145 -2.54337 0
M  V30 10541 H 994.534 3.72024 -0.20718 0
M  V30 10542 H 994.647 4.36354 -1.97819 0
M  V30 10543 H 993.011 2.35803 -0.96276 0
M  V30 10544 H 993.794 2.2094 -2.62755 0
M  V30 10545 N 996.239 0.8527 1.3254 0
M  V30 10546 C 997.487 0.454224 1.96929 0
M  V30 10547 C 997.808 -0.993034 1.67821 0
M  V30 10548 O 997.078 -1.69371 0.984393 0
M  V30 10549 H 995.658 0.164977 0.728554 0
M  V30 10550 H 998.32 1.0887 1.61658 0
M  V30 10551 H 997.416 0.597667 3.06324 0
M  V30 10552 N 997.718 -1.45297 0.610449 0
M  V30 10553 C 999.129 -1.85715 0.191488 0
M  V30 10554 C 999.48 -1.51036 -1.25229 0
M  V30 10555 O 998.605 -0.938422 -1.94994 0
M  V30 10556 C 999.2 -3.37082 0.340747 0
M  V30 10557 C 997.759 -3.76393 -0.0235433 0
M  V30 10558 C 996.906 -2.69237 0.663849 0
M  V30 10559 H 999.857 -1.36058 0.816948 0
M  V30 10560 H 999.878 -3.78105 -0.426233 0
M  V30 10561 H 999.39 -3.62291 1.39164 0
M  V30 10562 H 997.491 -3.56801 -1.07351 0
M  V30 10563 H 997.604 -4.77653 0.372102 0
M  V30 10564 H 995.968 -2.54499 0.101204 0
M  V30 10565 H 996.751 -2.97281 1.71694 0
M  V30 10566 N 999.196 -0.349774 -1.5367 0
M  V30 10567 C 1000.13 0.547309 -2.2154 0
M  V30 10568 C 1001.11 1.09543 -1.20163 0
M  V30 10569 O 1002.29 1.15453 -1.49006 0
M  V30 10570 C 999.418 1.75356 -2.89772 0
M  V30 10571 C 998.464 1.33433 -4.0509 0
M  V30 10572 S 999.297 0.348891 -5.34362 0
M  V30 10573 C 1000.45 1.56183 -6.061 0
M  V30 10574 H 1000.69 -0.0291392 -2.97286 0
M  V30 10575 H 998.219 -0.133853 -1.53819 0
M  V30 10576 H 1000.18 2.44555 -3.29701 0
M  V30 10577 H 998.838 2.30123 -2.1378 0
M  V30 10578 H 998.031 2.23388 -4.5179 0
M  V30 10579 H 997.633 0.721746 -3.6697 0
M  V30 10580 H 999.925 2.49535 -6.29872 0
M  V30 10581 H 1000.87 1.13651 -6.9892 0
M  V30 10582 H 1001.28 1.76071 -5.36339 0
M  V30 10583 N 1000.67 1.57404 -0.0785433 0
M  V30 10584 C 1001.61 2.08724 0.922464 0
M  V30 10585 C 1002.58 0.993912 1.28686 0
M  V30 10586 O 1003.77 1.26776 1.39499 0
M  V30 10587 C 1000.9 2.55051 2.2286 0
M  V30 10588 C 999.942 3.75884 2.01528 0
M  V30 10589 S 1000.77 5.2026 1.26844 0
M  V30 10590 C 1001.93 5.69924 2.58723 0
M  V30 10591 H 1002.16 2.93304 0.485807 0
M  V30 10592 H 999.697 1.53814 0.134377 0
M  V30 10593 H 1001.65 2.82402 2.97926 0
M  V30 10594 H 1000.32 1.70727 2.63649 0
M  V30 10595 H 999.509 4.06311 2.98207 0
M  V30 10596 H 999.111 3.48941 1.34596 0
M  V30 10597 H 1001.4 5.7718 3.5478 0
M  V30 10598 H 1002.35 6.68704 2.32897 0
M  V30 10599 H 1002.75 4.97773 2.66237 0
M  V30 10600 N 1002.15 -0.195058 1.56388 0
M  V30 10601 C 1003.43 -0.941335 1.71459 0
M  V30 10602 C 1003.81 -2.01375 0.633336 0
M  V30 10603 O 1003.16 -2.25715 -0.35567 0
M  V30 10604 C 1003.37 -1.52772 3.13786 0
M  V30 10605 C 1004.71 -2.00983 3.7402 0
M  V30 10606 O 1005.74 -1.62614 3.16915 0
M  V30 10607 O 1004.6 -2.71586 4.7424 0
M  V30 10608 H 1001.69 -0.441451 0.699321 0
M  V30 10609 H 1004.24 -0.184752 1.68691 0
M  V30 10610 H 1003.01 -0.754699 3.83953 0
M  V30 10611 H 1002.63 -2.34914 3.20782 0
M  V30 10612 N 1003.63 -1.50653 -0.462772 0
M  V30 10613 C 1004.56 -1.73056 -1.5676 0
M  V30 10614 C 1005.54 -0.579699 -1.59917 0
M  V30 10615 O 1006.73 -0.819729 -1.76051 0
M  V30 10616 C 1003.86 -1.83234 -2.9503 0
M  V30 10617 C 1002.81 -2.98488 -3.06739 0
M  V30 10618 C 1002.14 -2.93818 -4.46738 0
M  V30 10619 C 1003.44 -4.38869 -2.83181 0
M  V30 10620 H 1005.13 -2.65562 -1.38265 0
M  V30 10621 H 1002.68 -1.27792 -0.663722 0
M  V30 10622 H 1004.63 -1.97491 -3.72257 0
M  V30 10623 H 1003.35 -0.873558 -3.14701 0
M  V30 10624 H 1002.01 -2.83895 -2.31946 0
M  V30 10625 H 1001.66 -1.95769 -4.63339 0
M  V30 10626 H 1001.36 -3.71197 -4.55507 0
M  V30 10627 H 1002.88 -3.10135 -5.25974 0
M  V30 10628 H 1004.3 -4.53945 -3.50153 0
M  V30 10629 H 1002.69 -5.17762 -3.03386 0
M  V30 10630 H 1003.76 -4.50663 -1.78972 0
M  V30 10631 N 1005.11 0.71652 -1.4037 0
M  V30 10632 C 1006.06 1.82219 -1.37041 0
M  V30 10633 C 1007.04 1.58975 -0.248116 0
M  V30 10634 O 1008.23 1.70164 -0.487147 0
M  V30 10635 C 1005.36 3.20337 -1.23446 0
M  V30 10636 C 1004.45 3.49347 -2.40452 0
M  V30 10637 N 1004.84 3.49179 -3.65934 0
M  V30 10638 C 1003.14 3.798 -2.33811 0
M  V30 10639 C 1003.84 3.76506 -4.43416 0
M  V30 10640 N 1002.82 3.95209 -3.73244 0
M  V30 10641 H 1006.62 1.80421 -2.32003 0
M  V30 10642 H 1004.13 0.915603 -1.34129 0
M  V30 10643 H 1006.13 3.99513 -1.19143 0
M  V30 10644 H 1004.79 3.23362 -0.294497 0
M  V30 10645 H 1005.8 3.30051 -3.99107 0
M  V30 10646 H 1002.48 3.9032 -1.48177 0
M  V30 10647 H 1003.87 3.82689 -5.52267 0
M  V30 10648 N 1006.59 1.25851 0.948643 0
M  V30 10649 C 1007.81 1.13711 1.72851 0
M  V30 10650 C 1008.23 -0.308471 1.86263 0
M  V30 10651 O 1007.59 -1.21175 1.36465 0
M  V30 10652 C 1007.64 1.79271 3.13918 0
M  V30 10653 O 1007.36 3.18179 3.01154 0
M  V30 10654 C 1008.86 1.72988 4.08154 0
M  V30 10655 H 1006.08 0.396334 0.541443 0
M  V30 10656 H 1008.62 1.66329 1.18974 0
M  V30 10657 H 1006.78 1.30609 3.64719 0
M  V30 10658 H 1007.19 3.50507 3.90186 0
M  V30 10659 H 1008.67 2.2351 5.04725 0
M  V30 10660 H 1009.14 0.694866 4.33668 0
M  V30 10661 H 1009.75 2.21166 3.63271 0
M  V30 10662 N 1008.06 -1.15214 1.07534 0
M  V30 10663 C 1009.31 -1.85676 0.79805 0
M  V30 10664 C 1009.63 -1.82837 -0.677919 0
M  V30 10665 O 1008.9 -1.27059 -1.49107 0
M  V30 10666 H 1007.48 -0.687468 0.292227 0
M  V30 10667 H 1010.15 -1.39658 1.35947 0
M  V30 10668 H 1009.24 -2.9076 1.13423 0
M  V30 10669 N 1009.54 -0.859717 -1.32086 0
M  V30 10670 C 1010.79 -0.475565 -1.97762 0
M  V30 10671 C 1011.14 0.959348 -1.66776 0
M  V30 10672 O 1010.44 1.66484 -0.948343 0
M  V30 10673 C 1010.63 -0.657397 -3.51302 0
M  V30 10674 C 1010.46 -2.10843 -3.97209 0
M  V30 10675 C 1009.23 -2.74796 -4.24046 0
M  V30 10676 C 1011.43 -3.07959 -4.11905 0
M  V30 10677 N 1009.41 -4.10758 -4.56236 0
M  V30 10678 C 1010.78 -4.28922 -4.4769 0
M  V30 10679 C 1012.84 -3.04086 -3.94254 0
M  V30 10680 C 1011.54 -5.46518 -4.67665 0
M  V30 10681 C 1013.56 -4.20931 -4.15416 0
M  V30 10682 C 1012.93 -5.40654 -4.51522 0
M  V30 10683 H 1009.03 -0.222859 -0.749572 0
M  V30 10684 H 1011.61 -1.11217 -1.59809 0
M  V30 10685 H 1009.78 -0.0504597 -3.88367 0
M  V30 10686 H 1011.51 -0.242642 -4.03972 0
M  V30 10687 H 1008.27 -2.25805 -4.16304 0
M  V30 10688 H 1008.69 -4.80905 -4.76507 0
M  V30 10689 H 1013.33 -2.12641 -3.65436 0
M  V30 10690 H 1011.05 -6.3849 -4.95335 0
M  V30 10691 H 1014.64 -4.19376 -4.03255 0
M  V30 10692 H 1013.52 -6.29563 -4.67568 0
M  V30 10693 N 1011.02 1.44971 -0.618145 0
M  V30 10694 C 1012.27 2.02159 -0.117482 0
M  V30 10695 C 1012.6 1.48517 1.2559 0
M  V30 10696 O 1011.85 0.654192 1.84442 0
M  V30 10697 C 1012.15 3.57378 -0.0394861 0
M  V30 10698 C 1011.82 4.30218 -1.34993 0
M  V30 10699 C 1010.48 4.49835 -1.70886 0
M  V30 10700 C 1012.83 4.71768 -2.21551 0
M  V30 10701 C 1010.16 5.08258 -2.9307 0
M  V30 10702 C 1012.51 5.31543 -3.42993 0
M  V30 10703 C 1011.17 5.49381 -3.79126 0
M  V30 10704 H 1010.44 0.739752 -0.0429897 0
M  V30 10705 H 1013.09 1.73903 -0.801871 0
M  V30 10706 H 1011.4 3.84973 0.728217 0
M  V30 10707 H 1013.09 3.99343 0.364213 0
M  V30 10708 H 1009.68 4.15271 -1.06057 0
M  V30 10709 H 1013.87 4.56336 -1.95117 0
M  V30 10710 H 1009.12 5.20257 -3.21158 0
M  V30 10711 H 1013.3 5.62691 -4.10308 0
M  V30 10712 H 1010.92 5.94419 -4.73888 0
M  V30 10713 N 1012.5 0.357919 1.53482 0
M  V30 10714 C 1013.43 -0.484231 2.28424 0
M  V30 10715 C 1014.41 -1.09046 1.30548 0
M  V30 10716 O 1015.59 -1.10916 1.59409 0
M  V30 10717 C 1012.72 -1.62803 3.06778 0
M  V30 10718 C 1011.68 -1.14943 4.12277 0
M  V30 10719 C 1011 -2.38287 4.78669 0
M  V30 10720 C 1012.3 -0.239627 5.2175 0
M  V30 10721 H 1014 0.140979 2.99068 0
M  V30 10722 H 1011.54 0.069244 1.43833 0
M  V30 10723 H 1013.5 -2.22374 3.57949 0
M  V30 10724 H 1012.22 -2.28036 2.3381 0
M  V30 10725 H 1010.88 -0.576442 3.6204 0
M  V30 10726 H 1010.53 -3.01959 4.02281 0
M  V30 10727 H 1010.23 -2.06939 5.49955 0
M  V30 10728 H 1011.75 -2.98558 5.32631 0
M  V30 10729 H 1013.17 -0.742597 5.6847 0
M  V30 10730 H 1011.56 -0.0173747 6.00097 0
M  V30 10731 H 1012.63 0.720333 4.7952 0
M  V30 10732 N 1013.98 -1.5736 0.0868897 0
M  V30 10733 C 1014.91 -2.10582 -0.904858 0
M  V30 10734 C 1015.92 -1.04124 -1.25148 0
M  V30 10735 O 1017.11 -1.31595 -1.20603 0
M  V30 10736 C 1014.21 -2.56381 -2.21635 0
M  V30 10737 C 1013.38 -3.86581 -2.04631 0
M  V30 10738 C 1012.44 -4.18313 -3.19219 0
M  V30 10739 O 1011.47 -4.87669 -2.93544 0
M  V30 10740 N 1012.67 -3.73061 -4.44754 0
M  V30 10741 H 1015.44 -2.96297 -0.450352 0
M  V30 10742 H 1013 -1.616 -0.0984376 0
M  V30 10743 H 1014.99 -2.7466 -2.97227 0
M  V30 10744 H 1013.56 -1.75721 -2.58536 0
M  V30 10745 H 1012.78 -3.77532 -1.13417 0
M  V30 10746 H 1014.07 -4.71777 -1.90537 0
M  V30 10747 H 1013.46 -3.1706 -4.68497 0
M  V30 10748 H 1012.02 -3.96511 -5.17322 0
M  V30 10749 N 1015.45 0.186762 -1.56489 0
M  V30 10750 C 1016.4 1.25084 -1.96104 0
M  V30 10751 C 1017.4 1.4667 -0.847609 0
M  V30 10752 O 1018.6 1.47432 -1.03266 0
M  V30 10753 H 1014.98 0.420121 -0.623701 0
M  V30 10754 H 1016.95 0.889761 -2.84826 0
M  V30 10755 C 1015.7 2.5863 -2.32392 0
M  V30 10756 H 1015.02 2.42838 -3.176 0
M  V30 10757 H 1016.46 3.3181 -2.63967 0
M  V30 10758 C 1014.92 3.16241 -1.16159 0
M  V30 10759 O 1015.45 3.99272 -0.441034 0
M  V30 10760 N 1013.66 2.75106 -0.936206 0
M  V30 10761 H 1013.2 2.0769 -1.5239 0
M  V30 10762 H 1013.16 3.13991 -0.160317 0
M  V30 10763 N 1016.93 1.50896 0.454776 0
M  V30 10764 C 1018.18 1.62378 1.20324 0
M  V30 10765 C 1018.5 0.333883 1.9212 0
M  V30 10766 O 1017.77 -0.649477 1.8482 0
M  V30 10767 H 1016.35 0.598395 0.447139 0
M  V30 10768 H 1019.01 1.87749 0.523102 0
M  V30 10769 H 1018.11 2.44296 1.94232 0
M  V30 10770 N 1018.41 -0.709066 1.40748 0
M  V30 10771 C 1019.66 -1.46611 1.39103 0
M  V30 10772 C 1019.98 -1.95 -0.00365366 0
M  V30 10773 O 1019.25 -1.70791 -0.959541 0
M  V30 10774 H 1017.83 -0.543954 0.511979 0
M  V30 10775 H 1020.49 -0.840141 1.75863 0
M  V30 10776 H 1019.59 -2.33581 2.06994 0
M  V30 10777 N 1019.89 -1.26353 -0.941956 0
M  V30 10778 C 1021.13 -1.13071 -1.70277 0
M  V30 10779 C 1021.49 0.320699 -1.89303 0
M  V30 10780 O 1022.69 0.575624 -2.62564 0
M  V30 10781 C 1020.97 -1.87777 -3.04096 0
M  V30 10782 S 1022.52 -1.9054 -3.95272 0
M  V30 10783 H 1019.34 -0.403912 -0.585129 0
M  V30 10784 H 1021.94 -1.6006 -1.12254 0
M  V30 10785 H 1020.65 -2.92447 -2.87929 0
M  V30 10786 H 1020.18 -1.41226 -3.67177 0
M  V30 10787 H 1022.19 -0.991548 -4.86192 0
M  V30 10788 N 1021.37 1.14642 -1.08144 0
M  V30 10789 C 1022.62 1.8525 -0.807885 0
M  V30 10790 C 1022.94 1.83194 0.668213 0
M  V30 10791 O 1022.21 1.27848 1.48431 0
M  V30 10792 H 1020.79 0.685909 -0.295868 0
M  V30 10793 H 1023.45 1.38935 -1.36686 0
M  V30 10794 H 1022.54 2.90155 -1.14964 0
M  V30 10795 N 1022.85 0.866709 1.31628 0
M  V30 10796 C 1024.08 0.489679 2.00713 0
M  V30 10797 C 1024.48 -0.921492 1.65243 0
M  V30 10798 O 1023.83 -1.61467 0.876012 0
M  V30 10799 C 1023.89 0.563148 3.55062 0
M  V30 10800 C 1023.55 1.93535 4.13996 0
M  V30 10801 C 1024.55 2.90243 4.31341 0
M  V30 10802 C 1022.23 2.23578 4.49798 0
M  V30 10803 C 1024.23 4.15138 4.83673 0
M  V30 10804 C 1021.92 3.48723 5.01832 0
M  V30 10805 C 1022.91 4.44319 5.18719 0
M  V30 10806 O 1022.6 5.67247 5.69637 0
M  V30 10807 H 1022.33 0.189605 0.648865 0
M  V30 10808 H 1024.89 1.16874 1.68907 0
M  V30 10809 H 1023.12 -0.172815 3.86314 0
M  V30 10810 H 1024.81 0.200009 4.05407 0
M  V30 10811 H 1025.57 2.6834 4.04003 0
M  V30 10812 H 1021.45 1.49949 4.35932 0
M  V30 10813 H 1025 4.89762 4.96769 0
M  V30 10814 H 1020.89 3.70471 5.28603 0
M  V30 10815 H 1021.66 5.69372 5.88011 0
M  V30 10816 N 1024.32 -1.44642 0.625825 0
M  V30 10817 C 1025.57 -2.02393 0.128391 0
M  V30 10818 C 1025.9 -1.49075 -1.2446 0
M  V30 10819 O 1025.18 -0.672684 -1.82497 0
M  V30 10820 C 1025.46 -3.59934 0.109279 0
M  V30 10821 C 1025.31 -4.23546 1.51423 0
M  V30 10822 C 1026.63 -4.36406 -0.568985 0
M  V30 10823 H 1023.75 -0.735427 0.0481299 0
M  V30 10824 H 1026.39 -1.72277 0.801286 0
M  V30 10825 H 1024.54 -3.85722 -0.463726 0
M  V30 10826 H 1026.22 -4.08882 2.13572 0
M  V30 10827 H 1024.46 -3.81245 2.06966 0
M  V30 10828 H 1025.13 -5.32535 1.45294 0
M  V30 10829 H 1027.61 -4.1602 -0.0817516 0
M  V30 10830 H 1026.48 -5.46122 -0.551527 0
M  V30 10831 H 1026.74 -4.1062 -1.6384 0
M  V30 10832 N 1025.8 -0.366053 -1.5329 0
M  V30 10833 C 1026.73 0.47211 -2.28677 0
M  V30 10834 C 1027.71 1.08353 -1.31125 0
M  V30 10835 O 1028.9 1.10069 -1.59995 0
M  V30 10836 C 1026.03 1.61174 -3.07637 0
M  V30 10837 C 1024.98 1.12755 -4.12881 0
M  V30 10838 C 1024.31 2.35745 -4.79925 0
M  V30 10839 C 1025.61 0.211954 -5.2187 0
M  V30 10840 H 1027.3 -0.156838 -2.98989 0
M  V30 10841 H 1024.85 -0.0768709 -1.43795 0
M  V30 10842 H 1026.8 2.20473 -3.59123 0
M  V30 10843 H 1025.52 2.26793 -2.35016 0
M  V30 10844 H 1024.18 0.557234 -3.6234 0
M  V30 10845 H 1023.83 2.99821 -4.03877 0
M  V30 10846 H 1023.53 2.04019 -5.51044 0
M  V30 10847 H 1025.06 2.95729 -5.34207 0
M  V30 10848 H 1026.47 0.71244 -5.68856 0
M  V30 10849 H 1024.87 -0.0144501 -6.00098 0
M  V30 10850 H 1025.94 -0.745753 -4.79131 0
M  V30 10851 N 1027.28 1.57312 -0.0952337 0
M  V30 10852 C 1028.7 1.57445 0.261416 0
M  V30 10853 C 1028.9 1.10639 1.68408 0
M  V30 10854 O 1027.95 0.782912 2.40056 0
M  V30 10855 C 1029.26 3.00659 0.0497206 0
M  V30 10856 C 1030.81 3.1278 0.117459 0
M  V30 10857 C 1031.29 4.57952 -0.0662441 0
M  V30 10858 N 1032.78 4.63199 -0.0114146 0
M  V30 10859 C 1033.51 5.73255 -0.128799 0
M  V30 10860 N 1033.01 6.92146 -0.301026 0
M  V30 10861 N 1034.8 5.62056 -0.0700599 0
M  V30 10862 H 1026.95 1.86045 -1.02475 0
M  V30 10863 H 1029.22 0.858726 -0.401614 0
M  V30 10864 H 1028.92 3.39102 -0.932888 0
M  V30 10865 H 1028.8 3.68792 0.791975 0
M  V30 10866 H 1031.18 2.74209 1.09057 0
M  V30 10867 H 1031.26 2.47238 -0.656288 0
M  V30 10868 H 1030.91 4.97217 -1.03623 0
M  V30 10869 H 1030.84 5.21555 0.727198 0
M  V30 10870 H 1033.33 3.77712 0.119154 0
M  V30 10871 H 1033.64 7.71855 -0.382104 0
M  V30 10872 H 1031.99 6.94184 -0.336695 0
M  V30 10873 H 1035.18 4.68057 0.0633587 0
M  V30 10874 H 1035.35 6.4779 -0.164991 0
M  V30 10875 N 1028.76 -0.17846 1.56586 0
M  V30 10876 C 1030.17 -0.741599 1.71339 0
M  V30 10877 C 1030.52 -1.83112 0.704579 0
M  V30 10878 O 1029.64 -2.15975 -0.135557 0
M  V30 10879 C 1030.24 -1.35198 3.10656 0
M  V30 10880 C 1028.8 -1.86202 3.27118 0
M  V30 10881 C 1027.95 -0.738255 2.67292 0
M  V30 10882 H 1030.9 0.0468424 1.58631 0
M  V30 10883 H 1030.92 -2.2216 3.0891 0
M  V30 10884 H 1030.43 -0.558776 3.84056 0
M  V30 10885 H 1028.53 -2.68188 2.58661 0
M  V30 10886 H 1028.64 -2.01237 4.34788 0
M  V30 10887 H 1027.01 -1.15686 2.26912 0
M  V30 10888 H 1027.79 0.0429821 3.43273 0
M  V30 10889 N 1030.24 -1.51135 -0.446768 0
M  V30 10890 C 1031.46 -1.67411 -1.22427 0
M  V30 10891 C 1031.89 -0.367009 -1.84485 0
M  V30 10892 O 1031.24 0.67185 -1.68392 0
M  V30 10893 C 1031.29 -2.78473 -2.29096 0
M  V30 10894 O 1030.4 -2.41419 -3.34351 0
M  V30 10895 H 1029.74 -0.558512 -0.359111 0
M  V30 10896 H 1032.27 -1.97648 -0.5288 0
M  V30 10897 H 1032.28 -3.02277 -2.7403 0
M  V30 10898 H 1030.95 -3.73326 -1.83304 0
M  V30 10899 H 1029.53 -2.28152 -2.9496 0
M  V30 10900 N 1031.71 0.701592 -1.41122 0
M  V30 10901 C 1032.96 1.45722 -1.39456 0
M  V30 10902 C 1033.28 1.95599 -0.00475228 0
M  V30 10903 O 1034.48 2.71166 0.134529 0
M  V30 10904 C 1032.94 2.63475 -2.45172 0
M  V30 10905 C 1032.55 2.20409 -3.90031 0
M  V30 10906 C 1034.29 3.4114 -2.52633 0
M  V30 10907 C 1032.2 3.35084 -4.87312 0
M  V30 10908 H 1031.13 0.547341 -0.518588 0
M  V30 10909 H 1033.78 0.762233 -1.6692 0
M  V30 10910 H 1032.16 3.35212 -2.10829 0
M  V30 10911 H 1033.33 1.56 -4.3359 0
M  V30 10912 H 1031.65 1.55752 -3.86174 0
M  V30 10913 H 1034.25 4.26496 -3.22498 0
M  V30 10914 H 1034.59 3.85915 -1.56125 0
M  V30 10915 H 1035.12 2.76456 -2.86037 0
M  V30 10916 H 1031.86 2.95327 -5.85203 0
M  V30 10917 H 1031.38 3.98362 -4.48406 0
M  V30 10918 H 1033.06 4.00949 -5.07788 0
M  V30 10919 N 1033.19 1.2685 0.935242 0
M  V30 10920 C 1034.12 1.03244 2.03509 0
M  V30 10921 C 1035.1 -0.0447323 1.62538 0
M  V30 10922 O 1036.29 0.0988905 1.8824 0
M  V30 10923 C 1033.41 0.564626 3.33961 0
M  V30 10924 C 1032.46 1.63524 3.93906 0
M  V30 10925 S 1033.29 3.22577 4.27439 0
M  V30 10926 C 1034.45 2.77579 5.60982 0
M  V30 10927 H 1034.68 1.96367 2.2322 0
M  V30 10928 H 1032.21 1.10597 1.07739 0
M  V30 10929 H 1034.17 0.301388 4.09392 0
M  V30 10930 H 1032.83 -0.346419 3.12184 0
M  V30 10931 H 1032.03 1.25905 4.8802 0
M  V30 10932 H 1031.63 1.85017 3.25031 0
M  V30 10933 H 1033.92 2.22412 6.39952 0
M  V30 10934 H 1034.86 3.70408 6.03493 0
M  V30 10935 H 1035.27 2.16956 5.21143 0
M  V30 10936 N 1034.67 -1.14067 1.0875 0
M  V30 10937 C 1036.09 -1.37173 0.815823 0
M  V30 10938 C 1036.29 -1.93175 -0.573215 0
M  V30 10939 O 1035.34 -2.14672 -1.32937 0
M  V30 10940 C 1036.66 -2.32955 1.90138 0
M  V30 10941 C 1038.2 -2.46586 1.9278 0
M  V30 10942 C 1038.68 -3.4567 3.0046 0
M  V30 10943 N 1040.17 -3.53216 2.99655 0
M  V30 10944 C 1040.9 -4.29743 3.79616 0
M  V30 10945 N 1040.4 -5.09484 4.69466 0
M  V30 10946 N 1042.19 -4.24975 3.67903 0
M  V30 10947 H 1034.34 -0.760648 1.98313 0
M  V30 10948 H 1036.61 -0.397135 0.860807 0
M  V30 10949 H 1036.31 -1.98949 2.90021 0
M  V30 10950 H 1036.19 -3.32897 1.77368 0
M  V30 10951 H 1038.57 -2.79882 0.935404 0
M  V30 10952 H 1038.66 -1.46593 2.09629 0
M  V30 10953 H 1038.3 -3.13106 3.99909 0
M  V30 10954 H 1038.23 -4.45452 2.80856 0
M  V30 10955 H 1040.72 -2.96314 2.34535 0
M  V30 10956 H 1041.03 -5.65163 5.27077 0
M  V30 10957 H 1039.38 -5.08741 4.73506 0
M  V30 10958 H 1042.57 -3.61751 2.97075 0
M  V30 10959 H 1042.74 -4.84364 4.30459 0
M  V30 10960 N 1036.15 -0.873678 -1.31166 0
M  V30 10961 C 1037.43 -0.40698 -1.91319 0
M  V30 10962 C 1037.81 1.1113 -1.79481 0
M  V30 10963 O 1037.15 1.94155 -1.20483 0
M  V30 10964 C 1037.36 -0.892484 -3.37396 0
M  V30 10965 C 1038.71 -0.920795 -4.14496 0
M  V30 10966 O 1039.74 -0.838386 -3.46193 0
M  V30 10967 O 1038.59 -1.04069 -5.365 0
M  V30 10968 H 1035.69 -0.122439 -0.817886 0
M  V30 10969 H 1038.23 -0.961835 -1.3981 0
M  V30 10970 H 1037.01 -1.93613 -3.40044 0
M  V30 10971 H 1036.63 -0.31615 -3.96341 0
M  V30 10972 N 1037.63 1.44308 -0.633487 0
M  V30 10973 C 1038.54 2.34492 0.0711787 0
M  V30 10974 C 1039.55 1.52754 0.8332 0
M  V30 10975 O 1040.73 1.85475 0.784929 0
M  V30 10976 C 1037.79 3.30767 1.03895 0
M  V30 10977 C 1036.85 4.28412 0.276043 0
M  V30 10978 C 1036.09 5.20087 1.19772 0
M  V30 10979 O 1036.31 5.15743 2.4365 0
M  V30 10980 O 1035.24 5.98038 0.680764 0
M  V30 10981 H 1039.07 2.96203 -0.67063 0
M  V30 10982 H 1036.66 1.4412 -0.393678 0
M  V30 10983 H 1038.54 3.90021 1.59566 0
M  V30 10984 H 1037.21 2.71586 1.76133 0
M  V30 10985 H 1036.12 3.72696 -0.32377 0
M  V30 10986 H 1037.45 4.9052 -0.406364 0
M  V30 10987 N 1039.1 0.374177 1.53094 0
M  V30 10988 C 1040.35 -0.213131 2.01677 0
M  V30 10989 C 1040.68 -1.47715 1.26071 0
M  V30 10990 O 1039.96 -1.91199 0.356834 0
M  V30 10991 C 1040.24 -0.496392 3.56662 0
M  V30 10992 C 1040.09 0.781859 4.42953 0
M  V30 10993 C 1041.41 -1.29339 4.20666 0
M  V30 10994 H 1038.53 -0.0759885 0.733072 0
M  V30 10995 H 1041.17 0.500765 1.83282 0
M  V30 10996 H 1039.32 -1.10455 3.72467 0
M  V30 10997 H 1041 1.41914 4.38928 0
M  V30 10998 H 1039.24 1.40041 4.10574 0
M  V30 10999 H 1039.91 0.538508 5.49367 0
M  V30 11000 H 1042.39 -0.778848 4.08746 0
M  V30 11001 H 1041.26 -1.46033 5.29118 0
M  V30 11002 H 1041.52 -2.30435 3.77296 0
M  V30 11003 N 1040.58 -1.57259 0.103575 0
M  V30 11004 C 1041.81 -1.99424 -0.569638 0
M  V30 11005 C 1042.23 -0.982475 -1.60403 0
M  V30 11006 O 1041.59 0.0479231 -1.81237 0
M  V30 11007 C 1041.64 -3.40527 -1.18633 0
M  V30 11008 O 1040.74 -3.42167 -2.30208 0
M  V30 11009 H 1040.08 -0.648251 -0.143759 0
M  V30 11010 H 1042.61 -2.03739 0.187493 0
M  V30 11011 H 1042.62 -3.78404 -1.5256 0
M  V30 11012 H 1041.3 -4.13686 -0.428582 0
M  V30 11013 H 1039.88 -3.16093 -1.97837 0
M  V30 11014 N 1042.06 0.170153 -1.56679 0
M  V30 11015 C 1043.29 0.900826 -1.85927 0
M  V30 11016 C 1043.7 1.76285 -0.687033 0
M  V30 11017 O 1043.04 1.80276 0.353029 0
M  V30 11018 C 1043.1 1.82723 -3.096 0
M  V30 11019 C 1042.77 1.14469 -4.42432 0
M  V30 11020 C 1043.76 0.509598 -5.17396 0
M  V30 11021 C 1041.45 1.1411 -4.89167 0
M  V30 11022 C 1043.44 -0.119976 -6.37287 0
M  V30 11023 C 1041.13 0.507703 -6.08987 0
M  V30 11024 C 1042.13 -0.121731 -6.82892 0
M  V30 11025 O 1041.82 -0.74514 -8.00439 0
M  V30 11026 H 1041.55 0.267087 -0.621 0
M  V30 11027 H 1044.1 0.17474 -2.04655 0
M  V30 11028 H 1042.33 2.59367 -2.8682 0
M  V30 11029 H 1044.02 2.42784 -3.25285 0
M  V30 11030 H 1044.79 0.504341 -4.82371 0
M  V30 11031 H 1040.67 1.62043 -4.31582 0
M  V30 11032 H 1044.21 -0.611872 -6.94911 0
M  V30 11033 H 1040.11 0.510548 -6.43478 0
M  V30 11034 H 1040.88 -0.644506 -8.15959 0
M  V30 11035 N 1043.54 1.5137 0.438746 0
M  V30 11036 C 1044.79 1.63969 1.1883 0
M  V30 11037 C 1045.11 0.355245 1.91228 0
M  V30 11038 O 1044.37 -0.660605 1.84213 0
M  V30 11039 C 1044.67 2.79221 2.23093 0
M  V30 11040 C 1044.33 4.18547 1.67717 0
M  V30 11041 C 1043 4.5645 1.52337 0
M  V30 11042 C 1045.35 5.05494 1.26986 0
M  V30 11043 C 1042.68 5.79007 0.946996 0
M  V30 11044 C 1045.03 6.28628 0.707785 0
M  V30 11045 C 1043.69 6.65305 0.540881 0
M  V30 11046 H 1042.96 0.600003 0.43483 0
M  V30 11047 H 1045.61 1.85398 0.479565 0
M  V30 11048 H 1043.91 2.52008 2.99999 0
M  V30 11049 H 1045.61 2.86168 2.80907 0
M  V30 11050 H 1042.2 3.88663 1.80663 0
M  V30 11051 H 1046.38 4.76818 1.37689 0
M  V30 11052 H 1041.64 6.06072 0.805432 0
M  V30 11053 H 1045.81 6.95342 0.38366 0
M  V30 11054 H 1043.44 7.60144 0.0921324 0
M  V30 11055 N 1045.02 -0.694098 1.41492 0
M  V30 11056 C 1046.24 -1.48789 1.44488 0
M  V30 11057 C 1046.67 -1.88028 0.0521588 0
M  V30 11058 O 1046.02 -1.54727 -0.944952 0
M  V30 11059 C 1046.07 -2.72586 2.3607 0
M  V30 11060 O 1045.18 -3.70128 1.81876 0
M  V30 11061 H 1044.52 -0.447758 0.490315 0
M  V30 11062 H 1047.05 -0.853036 1.85969 0
M  V30 11063 H 1047.06 -3.20877 2.51995 0
M  V30 11064 H 1045.73 -2.43363 3.37264 0
M  V30 11065 H 1044.31 -3.29069 1.75408 0
M  V30 11066 N 1046.49 -1.27344 -0.928501 0
M  V30 11067 C 1047.46 -1.10043 -2.01055 0
M  V30 11068 C 1048.46 -0.0446793 -1.60738 0
M  V30 11069 O 1049.65 -0.289202 -1.71783 0
M  V30 11070 C 1046.78 -0.676559 -3.34119 0
M  V30 11071 H 1047.97 -2.06126 -2.17835 0
M  V30 11072 H 1045.53 -1.10121 -1.10919 0
M  V30 11073 H 1046.26 0.285697 -3.23039 0
M  V30 11074 H 1046.05 -1.43903 -3.64739 0
M  V30 11075 H 1047.54 -0.577725 -4.13584 0
M  V30 11076 N 1047.97 1.13488 -1.09353 0
M  V30 11077 C 1048.92 2.20949 -0.726923 0
M  V30 11078 C 1049.91 1.67205 0.271816 0
M  V30 11079 O 1051.12 1.79505 0.133356 0
M  V30 11080 H 1047.5 0.719985 -0.217086 0
M  V30 11081 H 1049.47 2.49134 -1.6424 0
M  V30 11082 C 1048.22 3.47319 -0.162822 0
M  V30 11083 H 1047.54 3.89011 -0.922527 0
M  V30 11084 H 1048.98 4.23963 0.0557734 0
M  V30 11085 C 1047.44 3.18376 1.10175 0
M  V30 11086 O 1047.97 3.3707 2.18511 0
M  V30 11087 N 1046.17 2.72262 1.01597 0
M  V30 11088 H 1045.72 2.5725 0.134289 0
M  V30 11089 H 1045.68 2.53272 1.86281 0
M  V30 11090 N 1049.45 0.880621 1.30701 0
M  V30 11091 C 1050.68 0.511682 2.00473 0
M  V30 11092 C 1051.09 -0.898684 1.6604 0
M  V30 11093 O 1050.45 -1.59035 0.895218 0
M  V30 11094 C 1050.5 0.671723 3.55204 0
M  V30 11095 O 1050.22 2.02656 3.8841 0
M  V30 11096 C 1051.72 0.3052 4.42248 0
M  V30 11097 H 1048.94 0.198231 0.64105 0
M  V30 11098 H 1051.49 1.18472 1.66687 0
M  V30 11099 H 1049.64 0.0461066 3.87373 0
M  V30 11100 H 1050.06 2.04202 4.83117 0
M  V30 11101 H 1051.53 0.468095 5.50012 0
M  V30 11102 H 1052.01 -0.756456 4.32637 0
M  V30 11103 H 1052.61 0.906959 4.15517 0
M  V30 11104 N 1050.93 -1.4397 0.641131 0
M  V30 11105 C 1051.88 -2.30728 -0.0577905 0
M  V30 11106 C 1052.85 -1.44059 -0.826819 0
M  V30 11107 O 1054.03 -1.72947 -0.805853 0
M  V30 11108 C 1051.17 -3.29478 -1.02657 0
M  V30 11109 C 1050.28 -4.31247 -0.254913 0
M  V30 11110 C 1049.42 -5.17085 -1.2164 0
M  V30 11111 C 1048.46 -6.10556 -0.434481 0
M  V30 11112 N 1047.6 -6.89059 -1.34694 0
M  V30 11113 H 1052.44 -2.8995 0.687953 0
M  V30 11114 H 1049.97 -1.4285 0.351029 0
M  V30 11115 H 1051.93 -3.85228 -1.60173 0
M  V30 11116 H 1050.56 -2.71932 -1.73933 0
M  V30 11117 H 1049.61 -3.77889 0.436338 0
M  V30 11118 H 1050.92 -4.97545 0.353642 0
M  V30 11119 H 1050.08 -5.77402 -1.86258 0
M  V30 11120 H 1048.82 -4.50885 -1.85888 0
M  V30 11121 H 1047.82 -5.49339 0.225125 0
M  V30 11122 H 1049.05 -6.78795 0.203415 0
M  V30 11123 H 1046.99 -6.25518 -1.97644 0
M  V30 11124 H 1046.91 -7.51833 -0.792657 0
M  V30 11125 H 1048.18 -7.5389 -1.98165 0
M  V30 11126 N 1052.41 -0.382291 -1.52893 0
M  V30 11127 C 1053.66 0.201734 -2.01091 0
M  V30 11128 C 1053.98 1.47905 -1.2708 0
M  V30 11129 O 1053.25 1.92002 -0.38883 0
M  V30 11130 H 1051.83 0.0775373 -0.742965 0
M  V30 11131 H 1054.49 -0.512369 -1.88045 0
M  V30 11132 H 1053.58 0.416919 -3.09303 0
M  V30 11133 N 1053.89 1.57202 -0.111913 0
M  V30 11134 C 1055.13 1.94125 0.547573 0
M  V30 11135 C 1055.45 0.997026 1.68282 0
M  V30 11136 O 1056.65 1.26063 2.40459 0
M  V30 11137 C 1055.11 3.44982 1.02545 0
M  V30 11138 C 1054.72 4.47927 -0.0809529 0
M  V30 11139 C 1056.46 3.90837 1.65671 0
M  V30 11140 C 1054.37 5.89955 0.413224 0
M  V30 11141 H 1053.3 0.724651 0.208321 0
M  V30 11142 H 1055.95 1.82507 -0.190625 0
M  V30 11143 H 1054.33 3.5181 1.81785 0
M  V30 11144 H 1055.51 4.52761 -0.857003 0
M  V30 11145 H 1053.82 4.11782 -0.618434 0
M  V30 11146 H 1056.42 4.9436 2.03746 0
M  V30 11147 H 1056.76 3.30417 2.53239 0
M  V30 11148 H 1057.29 3.8678 0.929844 0
M  V30 11149 H 1054.03 6.54113 -0.426238 0
M  V30 11150 H 1053.55 5.88557 1.15591 0
M  V30 11151 H 1055.23 6.41032 0.876756 0
M  V30 11152 N 1055.36 -0.161842 1.56767 0
M  V30 11153 C 1056.29 -1.20226 2.0017 0
M  V30 11154 C 1057.27 -1.4564 0.878807 0
M  V30 11155 O 1058.46 -1.56813 1.14557 0
M  V30 11156 C 1055.59 -2.53897 2.36968 0
M  V30 11157 C 1054.54 -2.43033 3.52305 0
M  V30 11158 C 1053.87 -3.81281 3.74872 0
M  V30 11159 C 1055.17 -1.927 4.85453 0
M  V30 11160 H 1056.86 -0.84142 2.87333 0
M  V30 11161 H 1054.41 -0.403309 1.38237 0
M  V30 11162 H 1056.36 -3.26893 2.6593 0
M  V30 11163 H 1055.09 -2.91787 1.46724 0
M  V30 11164 H 1053.75 -1.7249 3.23485 0
M  V30 11165 H 1053.39 -4.1658 2.81904 0
M  V30 11166 H 1053.09 -3.74877 4.52483 0
M  V30 11167 H 1054.62 -4.55848 4.06245 0
M  V30 11168 H 1056.03 -2.55477 5.13229 0
M  V30 11169 H 1054.43 -1.97222 5.66766 0
M  V30 11170 H 1055.5 -0.881816 4.76814 0
M  V30 11171 N 1056.84 -1.516 -0.430713 0
M  V30 11172 C 1058.25 -1.57 -1.01035 0
M  V30 11173 C 1058.6 -0.397439 -1.92132 0
M  V30 11174 O 1057.73 0.484954 -2.10896 0
M  V30 11175 C 1058.32 -2.84536 -1.83915 0
M  V30 11176 C 1056.88 -2.92485 -2.36917 0
M  V30 11177 C 1056.03 -2.5173 -1.16308 0
M  V30 11178 H 1058.98 -1.57281 -0.211734 0
M  V30 11179 H 1059 -2.68672 -2.69435 0
M  V30 11180 H 1058.51 -3.69858 -1.17586 0
M  V30 11181 H 1056.61 -2.11608 -3.0668 0
M  V30 11182 H 1056.73 -3.96277 -2.6926 0
M  V30 11183 H 1055.09 -2.05079 -1.51045 0
M  V30 11184 H 1055.87 -3.39403 -0.515793 0
M  V30 11185 N 1058.32 0.686584 -1.41858 0
M  V30 11186 C 1059.57 1.44379 -1.41418 0
M  V30 11187 C 1059.89 1.94981 -0.0273696 0
M  V30 11188 O 1059.16 1.72296 0.932248 0
M  V30 11189 H 1057.74 0.53574 -0.520568 0
M  V30 11190 H 1060.4 0.812056 -1.77177 0
M  V30 11191 H 1059.5 2.30258 -2.10684 0
M  V30 11192 N 1059.8 1.27835 0.921735 0
M  V30 11193 C 1061.04 1.14692 1.67253 0
M  V30 11194 C 1061.38 -0.305384 1.91784 0
M  V30 11195 O 1060.65 -1.22286 1.51249 0
M  V30 11196 C 1060.93 1.93743 3.03539 0
M  V30 11197 C 1060.79 3.46991 2.86212 0
M  V30 11198 C 1062.11 1.74658 4.03959 0
M  V30 11199 H 1059.23 0.418021 0.606983 0
M  V30 11200 H 1061.87 1.5706 1.06922 0
M  V30 11201 H 1060.02 1.57738 3.55037 0
M  V30 11202 H 1061.69 3.92858 2.41785 0
M  V30 11203 H 1059.93 3.73029 2.21432 0
M  V30 11204 H 1060.6 3.97551 3.82958 0
M  V30 11205 H 1063.08 2.06063 3.61493 0
M  V30 11206 H 1061.96 2.32353 4.97296 0
M  V30 11207 H 1062.22 0.696019 4.36587 0
M  V30 11208 N 1061.28 -1.12907 1.09954 0
M  V30 11209 C 1062.5 -1.88679 0.861099 0
M  V30 11210 C 1062.93 -1.78853 -0.582499 0
M  V30 11211 O 1062.28 -1.13992 -1.4098 0
M  V30 11212 C 1062.33 -3.36047 1.30785 0
M  V30 11213 O 1061.44 -4.09716 0.469728 0
M  V30 11214 H 1060.78 -0.586447 0.31141 0
M  V30 11215 H 1063.31 -1.42818 1.46507 0
M  V30 11216 H 1063.32 -3.86882 1.29562 0
M  V30 11217 H 1061.99 -3.42516 2.35914 0
M  V30 11218 H 1060.57 -3.6887 0.54674 0
M  V30 11219 N 1062.75 -0.88754 -1.30232 0
M  V30 11220 C 1064.16 -0.55745 -1.78184 0
M  V30 11221 C 1064.52 0.926474 -1.72948 0
M  V30 11222 O 1063.64 1.72403 -1.3079 0
M  V30 11223 C 1064.24 -1.00512 -3.23547 0
M  V30 11224 C 1062.79 -0.726402 -3.69324 0
M  V30 11225 C 1061.94 -1.18666 -2.50627 0
M  V30 11226 H 1064.89 -1.07151 -1.17066 0
M  V30 11227 H 1064.91 -0.335185 -3.79021 0
M  V30 11228 H 1064.43 -2.08517 -3.27326 0
M  V30 11229 H 1062.53 0.341548 -3.71031 0
M  V30 11230 H 1062.64 -1.31575 -4.60679 0
M  V30 11231 H 1061 -0.605936 -2.47387 0
M  V30 11232 H 1061.79 -2.2745 -2.57141 0
M  V30 11233 N 1064.23 1.43628 -0.648757 0
M  V30 11234 C 1065.16 2.33478 0.0320785 0
M  V30 11235 C 1066.14 1.49217 0.816605 0
M  V30 11236 O 1067.33 1.77892 0.778974 0
M  V30 11237 C 1064.46 3.32525 1.00222 0
M  V30 11238 C 1063.41 4.2674 0.328119 0
M  V30 11239 C 1062.74 5.15791 1.4094 0
M  V30 11240 C 1064.04 5.16493 -0.776701 0
M  V30 11241 H 1065.73 2.90657 -0.718257 0
M  V30 11242 H 1063.28 1.3976 -0.346852 0
M  V30 11243 H 1065.23 3.94277 1.4874 0
M  V30 11244 H 1063.96 2.73593 1.78366 0
M  V30 11245 H 1062.61 3.66346 -0.136569 0
M  V30 11246 H 1062.26 4.53201 2.18216 0
M  V30 11247 H 1061.96 5.79645 0.963631 0
M  V30 11248 H 1063.49 5.80416 1.89603 0
M  V30 11249 H 1064.9 5.7208 -0.373878 0
M  V30 11250 H 1063.3 5.89043 -1.14667 0
M  V30 11251 H 1064.37 4.56448 -1.63654 0
M  V30 11252 N 1065.71 0.390394 1.52688 0
M  V30 11253 C 1066.67 -0.432149 2.25089 0
M  V30 11254 C 1067.67 -0.989296 1.26766 0
M  V30 11255 O 1068.86 -0.871126 1.50854 0
M  V30 11256 C 1066 -1.60642 3.00678 0
M  V30 11257 H 1067.19 0.201734 2.99221 0
M  V30 11258 H 1064.74 0.142531 1.55649 0
M  V30 11259 H 1065.48 -2.2777 2.3085 0
M  V30 11260 H 1065.26 -1.21361 3.72846 0
M  V30 11261 H 1066.75 -2.18873 3.55647 0
M  V30 11262 N 1067.19 -1.57141 0.120249 0
M  V30 11263 C 1068.12 -2.18398 -0.826112 0
M  V30 11264 C 1069.1 -1.12439 -1.27638 0
M  V30 11265 O 1070.28 -1.40679 -1.33877 0
M  V30 11266 C 1067.41 -2.78438 -2.0758 0
M  V30 11267 C 1066.37 -3.89991 -1.76327 0
M  V30 11268 C 1065.69 -4.36844 -3.08336 0
M  V30 11269 C 1066.99 -5.12031 -1.03062 0
M  V30 11270 H 1068.69 -2.97731 -0.315656 0
M  V30 11271 H 1066.23 -1.43213 -0.150387 0
M  V30 11272 H 1068.19 -3.19951 -2.74243 0
M  V30 11273 H 1066.91 -1.96396 -2.60953 0
M  V30 11274 H 1065.57 -3.49055 -1.12053 0
M  V30 11275 H 1065.22 -3.51659 -3.59646 0
M  V30 11276 H 1064.92 -5.1207 -2.88199 0
M  V30 11277 H 1066.44 -4.81009 -3.76116 0
M  V30 11278 H 1067.86 -5.50555 -1.59881 0
M  V30 11279 H 1066.25 -5.92848 -0.930146 0
M  V30 11280 H 1067.32 -4.84897 -0.017582 0
M  V30 11281 N 1068.67 0.153526 -1.5685 0
M  V30 11282 C 1069.62 1.19478 -1.94188 0
M  V30 11283 C 1070.6 1.38889 -0.812329 0
M  V30 11284 O 1071.79 1.4056 -1.07572 0
M  V30 11285 C 1068.92 2.53 -2.32047 0
M  V30 11286 C 1068.01 2.37209 -3.51557 0
M  V30 11287 N 1068.4 1.91162 -4.68285 0
M  V30 11288 C 1066.7 2.67981 -3.56514 0
M  V30 11289 C 1067.4 1.88259 -5.50394 0
M  V30 11290 N 1066.37 2.31329 -4.91923 0
M  V30 11291 H 1070.18 0.830748 -2.81915 0
M  V30 11292 H 1067.69 0.361643 -1.58322 0
M  V30 11293 H 1069.69 3.28264 -2.56998 0
M  V30 11294 H 1068.35 2.90191 -1.45669 0
M  V30 11295 H 1069.36 1.61227 -4.92165 0
M  V30 11296 H 1066.03 3.0909 -2.80659 0
M  V30 11297 H 1067.42 1.54205 -6.53965 0
M  V30 11298 N 1070.14 1.51827 0.422667 0
M  V30 11299 C 1071.39 1.6445 1.16786 0
M  V30 11300 C 1071.71 0.373792 1.91995 0
M  V30 11301 O 1072.91 0.379621 2.68833 0
M  V30 11302 C 1071.37 2.90488 2.12473 0
M  V30 11303 C 1070.98 4.24617 1.42844 0
M  V30 11304 C 1072.72 3.12472 2.87335 0
M  V30 11305 C 1070.63 5.41791 2.371 0
M  V30 11306 H 1069.56 0.612561 0.439641 0
M  V30 11307 H 1072.21 1.78305 0.433534 0
M  V30 11308 H 1070.59 2.703 2.89402 0
M  V30 11309 H 1071.76 4.55239 0.71372 0
M  V30 11310 H 1070.08 4.08628 0.800769 0
M  V30 11311 H 1072.68 3.9719 3.57973 0
M  V30 11312 H 1073.02 2.26148 3.49518 0
M  V30 11313 H 1073.55 3.33069 2.17509 0
M  V30 11314 H 1070.29 6.3042 1.79584 0
M  V30 11315 H 1069.81 5.15526 3.06583 0
M  V30 11316 H 1071.49 5.74329 2.97918 0
M  V30 11317 N 1071.62 -0.679052 1.4222 0
M  V30 11318 C 1072.57 -1.79269 1.45366 0
M  V30 11319 C 1073.54 -1.63255 0.306089 0
M  V30 11320 O 1074.72 -1.8387 0.509548 0
M  V30 11321 C 1071.86 -3.17272 1.35766 0
M  V30 11322 C 1070.98 -3.44603 2.60525 0
M  V30 11323 C 1070.11 -4.7231 2.43098 0
M  V30 11324 C 1069.15 -4.92661 3.63251 0
M  V30 11325 N 1068.29 -6.11606 3.44794 0
M  V30 11326 H 1073.13 -1.75916 2.40536 0
M  V30 11327 H 1070.67 -0.858836 1.19425 0
M  V30 11328 H 1072.62 -3.97015 1.282 0
M  V30 11329 H 1071.25 -3.1976 0.441939 0
M  V30 11330 H 1070.31 -2.59144 2.78475 0
M  V30 11331 H 1071.62 -3.55536 3.49851 0
M  V30 11332 H 1070.77 -5.60136 2.33093 0
M  V30 11333 H 1069.51 -4.63652 1.51255 0
M  V30 11334 H 1068.52 -4.03278 3.73693 0
M  V30 11335 H 1069.74 -5.03167 4.5607 0
M  V30 11336 H 1067.69 -6.04129 2.55663 0
M  V30 11337 H 1067.6 -6.23381 4.27705 0
M  V30 11338 H 1068.87 -7.02122 3.38592 0
M  V30 11339 N 1073.1 -1.28322 -0.914942 0
M  V30 11340 C 1074.35 -1.14785 -1.65853 0
M  V30 11341 C 1074.66 0.303135 -1.93237 0
M  V30 11342 O 1075.87 0.559606 -2.6567 0
M  V30 11343 C 1074.32 -2.00652 -2.98776 0
M  V30 11344 C 1073.93 -3.50483 -2.79044 0
M  V30 11345 C 1075.68 -1.95798 -3.76648 0
M  V30 11346 C 1073.58 -4.28505 -4.076 0
M  V30 11347 H 1072.51 -0.425987 -0.622135 0
M  V30 11348 H 1075.16 -1.52844 -1.01543 0
M  V30 11349 H 1073.55 -1.55447 -3.64214 0
M  V30 11350 H 1074.72 -4.03636 -2.22293 0
M  V30 11351 H 1073.04 -3.5685 -2.14586 0
M  V30 11352 H 1075.63 -2.51359 -4.71935 0
M  V30 11353 H 1075.98 -0.934455 -4.05677 0
M  V30 11354 H 1076.51 -2.38965 -3.18026 0
M  V30 11355 H 1073.25 -5.31433 -3.83744 0
M  V30 11356 H 1072.77 -3.80125 -4.63966 0
M  V30 11357 H 1074.45 -4.3836 -4.75867 0
M  V30 11358 N 1074.58 1.12322 -1.10551 0
M  V30 11359 C 1075.83 1.83216 -0.84349 0
M  V30 11360 C 1076.14 1.85075 0.632992 0
M  V30 11361 O 1077.35 2.51976 1.01095 0
M  V30 11362 C 1075.8 3.28994 -1.45915 0
M  V30 11363 C 1075.41 3.3549 -2.96901 0
M  V30 11364 C 1077.15 4.0485 -1.27657 0
M  V30 11365 C 1075.06 4.7561 -3.51496 0
M  V30 11366 H 1073.99 0.686471 -0.311887 0
M  V30 11367 H 1076.64 1.26463 -1.32964 0
M  V30 11368 H 1075.02 3.85621 -0.900678 0
M  V30 11369 H 1076.2 2.88795 -3.59074 0
M  V30 11370 H 1074.51 2.73107 -3.14327 0
M  V30 11371 H 1077.11 5.08316 -1.65889 0
M  V30 11372 H 1077.45 4.15727 -0.218258 0
M  V30 11373 H 1077.99 3.54584 -1.80318 0
M  V30 11374 H 1074.73 4.69927 -4.56999 0
M  V30 11375 H 1074.25 5.22753 -2.94091 0
M  V30 11376 H 1075.92 5.44552 -3.49388 0
M  V30 11377 N 1076.06 0.894434 1.2976 0
M  V30 11378 C 1077.28 0.5322 2.00455 0
M  V30 11379 C 1077.71 -0.874427 1.66539 0
M  V30 11380 O 1077.06 -1.58113 0.887129 0
M  V30 11381 C 1077.11 0.725264 3.53231 0
M  V30 11382 O 1076.22 -0.224612 4.11788 0
M  V30 11383 H 1075.56 0.208562 0.630395 0
M  V30 11384 H 1078.09 1.20458 1.65382 0
M  V30 11385 H 1078.1 0.627889 4.0314 0
M  V30 11386 H 1076.77 1.75079 3.77253 0
M  V30 11387 H 1075.35 -0.0801361 3.72814 0
M  V30 11388 N 1077.53 -1.43282 0.656365 0
M  V30 11389 C 1078.78 -2.01378 0.170702 0
M  V30 11390 C 1079.1 -1.52063 -1.22073 0
M  V30 11391 O 1078.37 -0.73456 -1.81607 0
M  V30 11392 H 1076.95 -0.744577 0.0601168 0
M  V30 11393 H 1079.62 -1.75449 0.848739 0
M  V30 11394 H 1078.71 -3.11701 0.157745 0
M  V30 11395 N 1079.01 -0.398486 -1.52479 0
M  V30 11396 C 1079.95 0.467426 -2.24383 0
M  V30 11397 C 1080.96 1.01908 -1.26959 0
M  V30 11398 O 1082.15 0.919843 -1.52974 0
M  V30 11399 C 1079.25 1.66146 -2.95379 0
M  V30 11400 C 1078.42 1.23557 -4.19586 0
M  V30 11401 C 1077.48 2.29532 -4.73499 0
M  V30 11402 O 1076.51 1.90561 -5.36354 0
M  V30 11403 N 1077.71 3.61564 -4.5415 0
M  V30 11404 H 1080.47 -0.148653 -2.99331 0
M  V30 11405 H 1078.03 -0.225313 -1.60325 0
M  V30 11406 H 1080.03 2.36585 -3.28344 0
M  V30 11407 H 1078.6 2.18369 -2.23682 0
M  V30 11408 H 1077.82 0.359715 -3.92555 0
M  V30 11409 H 1079.1 0.927812 -5.00269 0
M  V30 11410 H 1078.5 3.95983 -4.03998 0
M  V30 11411 H 1077.06 4.2801 -4.9158 0
M  V30 11412 N 1080.49 1.57075 -0.12858 0
M  V30 11413 C 1081.44 2.17084 0.835308 0
M  V30 11414 C 1082.43 1.12268 1.26855 0
M  V30 11415 O 1083.64 1.30554 1.23917 0
M  V30 11416 H 1080.01 0.694866 0.287516 0
M  V30 11417 H 1081.99 2.96839 0.304798 0
M  V30 11418 C 1080.73 2.79237 2.07177 0
M  V30 11419 H 1080.06 3.59594 1.74735 0
M  V30 11420 H 1081.5 3.24751 2.72604 0
M  V30 11421 C 1079.96 1.76803 2.86779 0
M  V30 11422 O 1080.49 1.22723 3.82494 0
M  V30 11423 N 1078.69 1.46525 2.50956 0
M  V30 11424 H 1078.24 1.90694 1.73187 0
M  V30 11425 H 1078.2 0.782326 3.04511 0
M  V30 11426 N 1081.97 -0.145205 1.5693 0
M  V30 11427 C 1083.22 -0.857516 1.83447 0
M  V30 11428 C 1083.54 -1.81088 0.709739 0
M  V30 11429 O 1082.8 -1.9337 -0.301097 0
M  V30 11430 C 1083.1 -1.66391 3.16305 0
M  V30 11431 C 1082.76 -0.857171 4.42678 0
M  V30 11432 C 1081.43 -0.634611 4.76997 0
M  V30 11433 C 1083.78 -0.293105 5.20375 0
M  V30 11434 C 1081.11 0.162693 5.86474 0
M  V30 11435 C 1083.46 0.491248 6.3069 0
M  V30 11436 C 1082.12 0.724368 6.63558 0
M  V30 11437 H 1081.39 -0.313787 0.671281 0
M  V30 11438 H 1084.04 -0.121074 1.91117 0
M  V30 11439 H 1082.34 -2.47051 3.04094 0
M  V30 11440 H 1084.04 -2.21855 3.34038 0
M  V30 11441 H 1080.63 -1.0407 4.15773 0
M  V30 11442 H 1084.82 -0.452326 4.94234 0
M  V30 11443 H 1080.07 0.352788 6.10381 0
M  V30 11444 H 1084.25 0.935449 6.90089 0
M  V30 11445 H 1081.87 1.34403 7.48224 0
M  V30 11446 N 1083.45 -1.52049 -0.414609 0
M  V30 11447 C 1084.86 -1.58062 -0.993638 0
M  V30 11448 C 1085.21 -0.417795 -1.917 0
M  V30 11449 O 1084.33 0.462558 -2.11399 0
M  V30 11450 C 1084.93 -2.86471 -1.80886 0
M  V30 11451 C 1083.49 -2.94981 -2.33801 0
M  V30 11452 C 1082.64 -2.52949 -1.13631 0
M  V30 11453 H 1085.59 -1.57497 -0.19504 0
M  V30 11454 H 1085.61 -2.71515 -2.66571 0
M  V30 11455 H 1085.12 -3.71085 -1.13657 0
M  V30 11456 H 1083.22 -2.14849 -3.04419 0
M  V30 11457 H 1083.33 -3.99111 -2.65042 0
M  V30 11458 H 1081.7 -2.0667 -1.48861 0
M  V30 11459 H 1082.48 -3.39931 -0.479765 0
M  V30 11460 N 1084.93 0.6715 -1.42579 0
M  V30 11461 C 1085.87 1.78496 -1.46314 0
M  V30 11462 C 1086.84 1.63091 -0.314743 0
M  V30 11463 O 1088.03 1.83597 -0.519292 0
M  V30 11464 C 1085.17 3.16548 -1.37447 0
M  V30 11465 C 1084.28 3.43216 -2.62348 0
M  V30 11466 C 1083.42 4.71014 -2.456 0
M  V30 11467 C 1082.45 4.90728 -3.65859 0
M  V30 11468 N 1081.59 6.09769 -3.48032 0
M  V30 11469 H 1086.43 1.74638 -2.41466 0
M  V30 11470 H 1083.97 0.852491 -1.19879 0
M  V30 11471 H 1085.93 3.96329 -1.30303 0
M  V30 11472 H 1084.56 3.19522 -0.458891 0
M  V30 11473 H 1083.61 2.57664 -2.79846 0
M  V30 11474 H 1084.92 3.53675 -3.51732 0
M  V30 11475 H 1084.07 5.58892 -2.3606 0
M  V30 11476 H 1082.81 4.62843 -1.53712 0
M  V30 11477 H 1081.82 4.01291 -3.75827 0
M  V30 11478 H 1083.04 5.00741 -4.58732 0
M  V30 11479 H 1080.99 6.02765 -2.58864 0
M  V30 11480 H 1080.91 6.21104 -4.31005 0
M  V30 11481 H 1082.17 7.00317 -3.42311 0
M  V30 11482 N 1086.4 1.28806 0.908124 0
M  V30 11483 C 1087.81 1.14719 1.47297 0
M  V30 11484 C 1088.17 -0.260763 1.94459 0
M  V30 11485 O 1087.29 -1.15553 1.82966 0
M  V30 11486 C 1087.89 2.07643 2.67712 0
M  V30 11487 C 1086.44 1.97605 3.20358 0
M  V30 11488 C 1085.59 1.99058 1.93058 0
M  V30 11489 H 1088.54 1.41413 0.720283 0
M  V30 11490 H 1088.56 1.64372 3.43165 0
M  V30 11491 H 1088.08 3.10108 2.33355 0
M  V30 11492 H 1086.18 0.981982 3.59427 0
M  V30 11493 H 1086.29 2.84846 3.85226 0
M  V30 11494 H 1084.65 1.43541 2.104 0
M  V30 11495 H 1085.44 3.03212 1.60989 0
M  V30 11496 N 1087.88 -1.11734 1.11145 0
M  V30 11497 C 1088.83 -2.17683 0.766979 0
M  V30 11498 C 1089.8 -1.64051 -0.260108 0
M  V30 11499 O 1090.98 -1.90302 -0.137723 0
M  V30 11500 C 1088.12 -3.44442 0.212982 0
M  V30 11501 C 1087.24 -4.12094 1.29626 0
M  V30 11502 C 1086.37 -5.26526 0.703127 0
M  V30 11503 C 1085.41 -5.86057 1.76647 0
M  V30 11504 N 1084.55 -6.91889 1.19306 0
M  V30 11505 H 1089.39 -2.46495 1.67465 0
M  V30 11506 H 1086.92 -1.21011 0.836353 0
M  V30 11507 H 1088.88 -4.17009 -0.126162 0
M  V30 11508 H 1087.51 -3.16025 -0.657888 0
M  V30 11509 H 1086.56 -3.37631 1.75241 0
M  V30 11510 H 1087.88 -4.52398 2.10089 0
M  V30 11511 H 1087.03 -6.05888 0.313859 0
M  V30 11512 H 1085.77 -4.87519 -0.132856 0
M  V30 11513 H 1084.77 -5.05375 2.16508 0
M  V30 11514 H 1086 -6.27132 2.60543 0
M  V30 11515 H 1083.95 -6.54906 0.378664 0
M  V30 11516 H 1083.86 -7.30832 1.93443 0
M  V30 11517 H 1085.13 -7.75062 0.830578 0
M  V30 11518 N 1089.36 -0.901303 -1.29284 0
M  V30 11519 C 1090.61 -0.527 -1.95108 0
M  V30 11520 C 1090.93 0.930065 -1.71391 0
M  V30 11521 O 1090.2 1.65601 -1.04658 0
M  V30 11522 H 1088.78 -0.191903 -0.721929 0
M  V30 11523 H 1091.44 -1.14795 -1.57506 0
M  V30 11524 H 1090.54 -0.710945 -3.03895 0
M  V30 11525 N 1090.84 1.42931 -0.663954 0
M  V30 11526 C 1091.8 2.29197 0.0117626 0
M  V30 11527 C 1092.8 1.42767 0.739875 0
M  V30 11528 O 1093.99 1.64278 0.579509 0
M  V30 11529 C 1091.12 3.2505 1.02738 0
M  V30 11530 H 1092.32 2.90438 -0.747391 0
M  V30 11531 H 1089.87 1.5039 -0.425733 0
M  V30 11532 H 1090.6 2.68726 1.8154 0
M  V30 11533 H 1090.39 3.88785 0.508809 0
M  V30 11534 H 1091.88 3.89771 1.49893 0
M  V30 11535 N 1092.32 0.406567 1.52266 0
M  V30 11536 C 1093.56 -0.169611 2.03695 0
M  V30 11537 C 1093.92 -1.42596 1.2857 0
M  V30 11538 O 1095.12 -2.08041 1.70212 0
M  V30 11539 C 1093.39 -0.413924 3.54995 0
M  V30 11540 S 1094.95 -0.957916 4.28217 0
M  V30 11541 H 1091.77 -0.0462362 0.709495 0
M  V30 11542 H 1094.37 0.558895 1.87341 0
M  V30 11543 H 1093.07 0.507285 4.07253 0
M  V30 11544 H 1092.61 -1.17038 3.75587 0
M  V30 11545 H 1094.62 -2.2387 4.42828 0
M  V30 11546 N 1093.79 -1.57004 0.136909 0
M  V30 11547 C 1094.76 -2.15066 -0.792419 0
M  V30 11548 C 1095.76 -1.08991 -1.18226 0
M  V30 11549 O 1096.95 -1.34681 -1.10484 0
M  V30 11550 C 1094.08 -2.70554 -2.07397 0
M  V30 11551 H 1095.27 -2.98519 -0.28752 0
M  V30 11552 H 1092.83 -1.55895 -0.112469 0
M  V30 11553 H 1093.56 -1.90739 -2.62277 0
M  V30 11554 H 1093.35 -3.48149 -1.80374 0
M  V30 11555 H 1094.84 -3.15322 -2.73792 0
M  V30 11556 N 1095.27 0.136881 -1.57004 0
M  V30 11557 C 1096.22 1.16869 -1.99023 0
M  V30 11558 C 1097.19 1.42137 -0.859435 0
M  V30 11559 O 1098.37 1.54303 -1.12229 0
M  V30 11560 C 1095.51 2.49466 -2.38455 0
M  V30 11561 C 1094.63 2.31286 -3.64871 0
M  V30 11562 C 1093.76 3.56989 -3.9336 0
M  V30 11563 C 1092.8 3.33889 -5.13015 0
M  V30 11564 N 1091.94 4.51748 -5.37464 0
M  V30 11565 H 1096.78 0.803366 -2.86967 0
M  V30 11566 H 1094.32 0.385216 -1.41967 0
M  V30 11567 H 1096.27 3.26794 -2.59348 0
M  V30 11568 H 1094.9 2.83926 -1.53577 0
M  V30 11569 H 1093.96 1.44962 -3.51696 0
M  V30 11570 H 1095.27 2.10183 -4.52355 0
M  V30 11571 H 1094.42 4.42742 -4.14806 0
M  V30 11572 H 1093.16 3.81106 -3.04318 0
M  V30 11573 H 1092.17 2.46525 -4.91432 0
M  V30 11574 H 1093.39 3.1116 -6.03619 0
M  V30 11575 H 1091.34 4.76019 -4.51377 0
M  V30 11576 H 1091.25 4.33684 -6.19237 0
M  V30 11577 H 1092.52 5.38686 -5.63416 0
M  V30 11578 N 1096.75 1.52266 0.40654 0
M  V30 11579 C 1098 1.66123 1.15097 0
M  V30 11580 C 1098.32 0.394836 1.90961 0
M  V30 11581 O 1097.59 -0.590349 1.86793 0
M  V30 11582 H 1096.17 0.612317 0.427875 0
M  V30 11583 H 1098.83 1.89318 0.463106 0
M  V30 11584 H 1097.93 2.50351 1.86361 0
M  V30 11585 N 1098.23 -0.663929 1.42933 0
M  V30 11586 C 1099.51 -1.42054 1.34462 0
M  V30 11587 C 1099.89 -2.11096 -0.0127801 0
M  V30 11588 O 1099.23 -2.04027 -1.02884 0
M  V30 11589 C 1099.44 -2.41406 2.5204 0
M  V30 11590 C 1100.79 -3.05726 2.94647 0
M  V30 11591 O 1101.82 -2.51733 2.52009 0
M  V30 11592 O 1100.67 -4.03593 3.68477 0
M  V30 11593 H 1097.77 -0.634149 0.530834 0
M  V30 11594 H 1100.31 -0.691738 1.54962 0
M  V30 11595 H 1099.09 -1.89263 3.42484 0
M  V30 11596 H 1098.71 -3.21752 2.33584 0
M  V30 11597 N 1099.71 -1.29285 -0.901281 0
M  V30 11598 C 1100.95 -1.17339 -1.65407 0
M  V30 11599 C 1101.29 0.274834 -1.92245 0
M  V30 11600 O 1100.56 1.19865 -1.53176 0
M  V30 11601 C 1100.84 -1.98547 -3.00418 0
M  V30 11602 C 1100.7 -3.51501 -2.80655 0
M  V30 11603 C 1102.02 -1.81062 -4.01129 0
M  V30 11604 H 1099.13 -0.427624 -0.600255 0
M  V30 11605 H 1101.78 -1.58741 -1.0441 0
M  V30 11606 H 1099.93 -1.63366 -3.52482 0
M  V30 11607 H 1101.6 -3.96655 -2.35505 0
M  V30 11608 H 1099.84 -3.76504 -2.15469 0
M  V30 11609 H 1100.51 -4.03593 -3.76585 0
M  V30 11610 H 1102.99 -2.11788 -3.58169 0
M  V30 11611 H 1101.86 -2.40235 -4.93536 0
M  V30 11612 H 1102.13 -0.765388 -4.35424 0
M  V30 11613 N 1101.18 1.11143 -1.11736 0
M  V30 11614 C 1102.43 1.82311 -0.862875 0
M  V30 11615 C 1102.75 1.85735 0.613326 0
M  V30 11616 O 1103.95 2.53034 0.984168 0
M  V30 11617 C 1102.41 3.27427 -1.49396 0
M  V30 11618 C 1102.02 3.32323 -3.00443 0
M  V30 11619 C 1103.76 4.03474 -1.31944 0
M  V30 11620 C 1101.67 4.71855 -3.56521 0
M  V30 11621 H 1100.6 0.683124 -0.31915 0
M  V30 11622 H 1103.25 1.25045 -1.34298 0
M  V30 11623 H 1101.63 3.84644 -0.941528 0
M  V30 11624 H 1102.8 2.84971 -3.62117 0
M  V30 11625 H 1101.12 2.69758 -3.17206 0
M  V30 11626 H 1103.72 5.06528 -1.71271 0
M  V30 11627 H 1104.06 4.15473 -0.262339 0
M  V30 11628 H 1104.59 3.52652 -1.84069 0
M  V30 11629 H 1101.33 4.65054 -4.61958 0
M  V30 11630 H 1100.85 5.19604 -2.99619 0
M  V30 11631 H 1102.53 5.40816 -3.55144 0
M  V30 11632 N 1102.66 0.908147 1.28804 0
M  V30 11633 C 1103.94 0.457561 1.90173 0
M  V30 11634 C 1104.32 -1.06333 1.82364 0
M  V30 11635 O 1103.67 -1.90892 1.25589 0
M  V30 11636 C 1103.88 0.981624 3.34911 0
M  V30 11637 C 1105.23 1.03037 4.11908 0
M  V30 11638 O 1106.25 0.929878 3.43848 0
M  V30 11639 O 1105.11 1.18257 5.33552 0
M  V30 11640 H 1102.2 0.144081 0.814352 0
M  V30 11641 H 1104.75 0.998565 1.37211 0
M  V30 11642 H 1103.52 2.02561 3.34791 0
M  V30 11643 H 1103.14 0.421122 3.95364 0
M  V30 11644 N 1104.14 -1.42577 0.671525 0
M  V30 11645 C 1105.55 -1.84736 0.270084 0
M  V30 11646 C 1105.9 -1.56212 -1.18711 0
M  V30 11647 O 1105.03 -1.02028 -1.90838 0
M  V30 11648 C 1105.62 -3.35334 0.483409 0
M  V30 11649 C 1104.18 -3.76154 0.136119 0
M  V30 11650 C 1103.33 -2.66179 0.777444 0
M  V30 11651 H 1106.28 -1.3247 0.873919 0
M  V30 11652 H 1106.3 -3.79573 -0.265483 0
M  V30 11653 H 1105.81 -3.56063 1.54405 0
M  V30 11654 H 1103.91 -3.61033 -0.921209 0
M  V30 11655 H 1104.03 -4.75645 0.574356 0
M  V30 11656 H 1102.39 -2.53841 0.209055 0
M  V30 11657 H 1103.17 -2.89732 1.84148 0
M  V30 11658 N 1105.62 -0.414636 -1.52048 0
M  V30 11659 C 1106.85 0.158456 -2.05991 0
M  V30 11660 C 1107.26 1.38947 -1.28415 0
M  V30 11661 O 1106.6 1.80698 -0.330728 0
M  V30 11662 C 1106.66 0.568392 -3.54978 0
M  V30 11663 C 1106.33 -0.552654 -4.53646 0
M  V30 11664 C 1107.32 -1.41791 -5.00191 0
M  V30 11665 C 1105.01 -0.726917 -4.97012 0
M  V30 11666 C 1107 -2.44234 -5.88752 0
M  V30 11667 C 1104.69 -1.75464 -5.85368 0
M  V30 11668 C 1105.69 -2.61075 -6.31133 0
M  V30 11669 O 1105.37 -3.62087 -7.17738 0
M  V30 11670 H 1105.11 0.0214746 -0.675659 0
M  V30 11671 H 1107.66 -0.585825 -1.96869 0
M  V30 11672 H 1105.89 1.36504 -3.61806 0
M  V30 11673 H 1107.58 1.07003 -3.91542 0
M  V30 11674 H 1108.35 -1.29471 -4.67399 0
M  V30 11675 H 1104.22 -0.0701964 -4.60947 0
M  V30 11676 H 1107.77 -3.1109 -6.24395 0
M  V30 11677 H 1103.67 -1.87813 -6.17573 0
M  V30 11678 H 1104.43 -3.58396 -7.35863 0
M  V30 11679 N 1107.1 1.56929 -0.145233 0
M  V30 11680 C 1108.34 1.96358 0.50707 0
M  V30 11681 C 1108.68 1.03005 1.64632 0
M  V30 11682 O 1107.95 0.0721045 1.94366 0
M  V30 11683 C 1108.23 3.45502 1.01492 0
M  V30 11684 C 1108.09 4.49633 -0.122708 0
M  V30 11685 C 1109.41 3.97103 1.89729 0
M  V30 11686 H 1106.52 0.713958 0.182848 0
M  V30 11687 H 1109.17 1.8865 -0.226102 0
M  V30 11688 H 1107.32 3.52202 1.6397 0
M  V30 11689 H 1108.99 4.55013 -0.758988 0
M  V30 11690 H 1107.23 4.26691 -0.782109 0
M  V30 11691 H 1107.9 5.51318 0.27432 0
M  V30 11692 H 1110.38 3.92871 1.37082 0
M  V30 11693 H 1109.25 5.01927 2.22173 0
M  V30 11694 H 1109.52 3.39354 2.83357 0
M  V30 11695 N 1108.58 -0.128553 1.57075 0
M  V30 11696 C 1109.82 -0.844012 1.86161 0
M  V30 11697 C 1110.18 -1.77499 0.73198 0
M  V30 11698 O 1111.38 -2.5313 0.904357 0
M  V30 11699 C 1109.65 -1.58238 3.20462 0
M  V30 11700 S 1111.21 -2.34073 3.71154 0
M  V30 11701 H 1108.03 -0.281884 0.652734 0
M  V30 11702 H 1110.63 -0.102902 1.95229 0
M  V30 11703 H 1109.33 -0.890246 4.00628 0
M  V30 11704 H 1108.87 -2.36404 3.14446 0
M  V30 11705 H 1110.88 -3.59617 3.41892 0
M  V30 11706 N 1110.05 -1.5248 -0.398459 0
M  V30 11707 C 1111.3 -1.66287 -1.14155 0
M  V30 11708 C 1111.62 -0.40429 -1.91376 0
M  V30 11709 O 1112.82 -0.422341 -2.68195 0
M  V30 11710 C 1111.28 -2.93831 -2.07825 0
M  V30 11711 C 1110.89 -4.26836 -1.3607 0
M  V30 11712 C 1112.63 -3.17004 -2.82327 0
M  V30 11713 C 1110.54 -5.45495 -2.28451 0
M  V30 11714 H 1109.47 -0.619478 -0.42984 0
M  V30 11715 H 1112.12 -1.78972 -0.405112 0
M  V30 11716 H 1110.5 -2.7487 -2.85065 0
M  V30 11717 H 1111.67 -4.56317 -0.641205 0
M  V30 11718 H 1109.99 -4.0985 -0.735659 0
M  V30 11719 H 1112.59 -4.02834 -3.51609 0
M  V30 11720 H 1112.93 -2.3168 -3.45876 0
M  V30 11721 H 1113.46 -3.36487 -2.12183 0
M  V30 11722 H 1110.2 -6.33198 -1.69532 0
M  V30 11723 H 1109.72 -5.20338 -2.98343 0
M  V30 11724 H 1111.4 -5.78996 -2.88743 0
M  V30 11725 N 1111.53 0.65634 -1.43283 0
M  V30 11726 C 1112.44 1.79847 -1.50639 0
M  V30 11727 C 1113.46 1.69487 -0.393714 0
M  V30 11728 O 1114.63 1.90712 -0.647379 0
M  V30 11729 C 1111.7 3.16107 -1.42398 0
M  V30 11730 C 1110.76 3.38287 -2.64312 0
M  V30 11731 C 1109.99 4.68046 -2.56454 0
M  V30 11732 O 1110.22 5.4719 -1.61056 0
M  V30 11733 O 1109.15 4.91877 -3.46902 0
M  V30 11734 H 1112.98 1.76596 -2.47078 0
M  V30 11735 H 1110.56 0.814428 -1.25249 0
M  V30 11736 H 1112.44 3.97382 -1.40233 0
M  V30 11737 H 1111.12 3.19956 -0.490929 0
M  V30 11738 H 1110.02 2.56788 -2.72049 0
M  V30 11739 H 1111.36 3.39282 -3.56579 0
M  V30 11740 N 1113.01 1.29761 0.894412 0
M  V30 11741 C 1114.26 1.17409 1.64006 0
M  V30 11742 C 1114.57 -0.272355 1.93695 0
M  V30 11743 O 1115.78 -0.517269 2.66527 0
M  V30 11744 C 1114.23 2.05379 2.95546 0
M  V30 11745 C 1113.84 3.54878 2.73433 0
M  V30 11746 C 1115.59 2.01765 3.73485 0
M  V30 11747 C 1113.49 4.34935 4.00731 0
M  V30 11748 H 1112.42 0.43583 0.615279 0
M  V30 11749 H 1115.07 1.5444 0.990983 0
M  V30 11750 H 1113.46 1.61222 3.61695 0
M  V30 11751 H 1114.63 4.07122 2.15844 0
M  V30 11752 H 1112.94 3.60218 2.08882 0
M  V30 11753 H 1115.54 2.58835 4.67877 0
M  V30 11754 H 1115.88 0.998876 4.04139 0
M  V30 11755 H 1116.42 2.43994 3.14184 0
M  V30 11756 H 1113.16 5.3747 3.75241 0
M  V30 11757 H 1112.68 3.87458 4.5786 0
M  V30 11758 H 1114.36 4.45875 4.68833 0
M  V30 11759 N 1114.49 -1.10549 1.12324 0
M  V30 11760 C 1115.44 -2.14997 0.758979 0
M  V30 11761 C 1116.42 -1.59078 -0.241461 0
M  V30 11762 O 1117.61 -1.76937 -0.0471439 0
M  V30 11763 C 1114.74 -3.42633 0.21395 0
M  V30 11764 C 1113.83 -4.05487 1.24261 0
M  V30 11765 N 1114.22 -4.43064 2.43984 0
M  V30 11766 C 1112.52 -4.32534 1.08769 0
M  V30 11767 C 1113.22 -4.92427 3.09662 0
M  V30 11768 N 1112.19 -4.89161 2.37114 0
M  V30 11769 H 1116 -2.4184 1.67005 0
M  V30 11770 H 1113.51 -1.27659 1.00384 0
M  V30 11771 H 1115.51 -4.16849 -0.0651928 0
M  V30 11772 H 1114.17 -3.17249 -0.691591 0
M  V30 11773 H 1115.18 -4.34797 2.81375 0
M  V30 11774 H 1111.86 -4.16813 0.239354 0
M  V30 11775 H 1113.25 -5.31059 4.11614 0
M  V30 11776 N 1115.97 -0.914965 -1.28321 0
M  V30 11777 C 1117.21 -0.547665 -1.94538 0
M  V30 11778 C 1117.53 0.911834 -1.72368 0
M  V30 11779 O 1116.8 1.64481 -1.06408 0
M  V30 11780 H 1115.38 -0.199549 -0.719853 0
M  V30 11781 H 1118.05 -1.16459 -1.5628 0
M  V30 11782 H 1117.14 -0.743138 -3.03124 0
M  V30 11783 N 1117.44 1.42219 -0.679077 0
M  V30 11784 C 1118.69 2.00703 -0.200309 0
M  V30 11785 C 1119.01 1.54339 1.20161 0
M  V30 11786 O 1120.21 2.0527 1.77698 0
M  V30 11787 C 1118.67 3.58586 -0.307248 0
M  V30 11788 C 1118.28 4.13937 -1.71349 0
M  V30 11789 C 1120.02 4.24351 0.112588 0
M  V30 11790 C 1117.93 5.64198 -1.77297 0
M  V30 11791 H 1116.86 0.750638 -0.0711279 0
M  V30 11792 H 1119.51 1.62893 -0.844881 0
M  V30 11793 H 1117.89 3.93921 0.40529 0
M  V30 11794 H 1119.06 3.90054 -2.45346 0
M  V30 11795 H 1117.38 3.60639 -2.08155 0
M  V30 11796 H 1119.98 5.34627 0.0883578 0
M  V30 11797 H 1120.32 4.00142 1.14857 0
M  V30 11798 H 1120.85 3.93992 -0.549093 0
M  V30 11799 H 1117.59 5.93211 -2.78892 0
M  V30 11800 H 1117.11 5.90058 -1.07662 0
M  V30 11801 H 1118.79 6.2869 -1.52835 0
M  V30 11802 N 1118.92 0.422693 1.51826 0
M  V30 11803 C 1120.33 -0.0438129 1.86649 0
M  V30 11804 C 1120.68 -1.43246 1.34071 0
M  V30 11805 O 1119.81 -2.05256 0.685501 0
M  V30 11806 C 1120.4 -0.0862802 3.3869 0
M  V30 11807 C 1118.96 -0.497157 3.73102 0
M  V30 11808 C 1118.11 0.319655 2.75451 0
M  V30 11809 H 1121.06 0.639181 1.45259 0
M  V30 11810 H 1121.08 -0.8988 3.69732 0
M  V30 11811 H 1120.59 0.924525 3.76927 0
M  V30 11812 H 1118.69 -1.51411 3.40449 0
M  V30 11813 H 1118.81 -0.232125 4.78537 0
M  V30 11814 H 1117.17 -0.219963 2.53748 0
M  V30 11815 H 1117.95 1.32906 3.16529 0
M  V30 11816 N 1120.4 -1.5685 0.153553 0
M  V30 11817 C 1121.36 -2.15894 -0.769564 0
M  V30 11818 C 1122.36 -1.10239 -1.17064 0
M  V30 11819 O 1123.55 -1.35845 -1.09049 0
M  V30 11820 C 1120.68 -2.72738 -2.04516 0
M  V30 11821 H 1121.88 -2.98807 -0.255842 0
M  V30 11822 H 1119.43 -1.56005 -0.0959279 0
M  V30 11823 H 1120.17 -1.9351 -2.60239 0
M  V30 11824 H 1119.95 -3.50042 -1.76672 0
M  V30 11825 H 1121.44 -3.18208 -2.70432 0
M  V30 11826 N 1121.88 0.120221 -1.57141 0
M  V30 11827 C 1123.15 0.858458 -1.75755 0
M  V30 11828 C 1123.53 1.98124 -0.728693 0
M  V30 11829 O 1122.88 2.27155 0.247573 0
M  V30 11830 C 1123.09 1.37627 -3.20718 0
M  V30 11831 C 1124.44 1.82909 -3.83183 0
M  V30 11832 O 1125.46 1.47309 -3.24312 0
M  V30 11833 O 1124.32 2.4865 -4.86657 0
M  V30 11834 H 1121.42 0.407583 -0.719587 0
M  V30 11835 H 1123.96 0.104057 -1.69381 0
M  V30 11836 H 1122.74 0.570651 -3.87117 0
M  V30 11837 H 1122.36 2.19341 -3.31625 0
M  V30 11838 N 1123.36 1.52689 0.390367 0
M  V30 11839 C 1124.6 1.69354 1.1445 0
M  V30 11840 C 1124.96 0.423677 1.87267 0
M  V30 11841 O 1126.16 0.466669 2.64718 0
M  V30 11842 C 1124.43 2.89356 2.0978 0
M  V30 11843 S 1125.99 3.26602 2.93047 0
M  V30 11844 H 1122.81 0.596162 0.387442 0
M  V30 11845 H 1125.41 1.90732 0.429119 0
M  V30 11846 H 1124.12 3.80003 1.55004 0
M  V30 11847 H 1123.65 2.70307 2.85828 0
M  V30 11848 H 1125.66 2.76683 4.11899 0
M  V30 11849 N 1124.83 -0.648732 1.43629 0
M  V30 11850 C 1126.06 -1.44117 1.49148 0
M  V30 11851 C 1126.48 -1.87767 0.111952 0
M  V30 11852 O 1125.84 -1.57655 -0.895249 0
M  V30 11853 C 1125.89 -2.64938 2.44623 0
M  V30 11854 O 1124.99 -3.64155 1.93559 0
M  V30 11855 H 1124.34 -0.431933 0.504312 0
M  V30 11856 H 1126.87 -0.793439 1.88589 0
M  V30 11857 H 1126.88 -3.12698 2.62076 0
M  V30 11858 H 1125.55 -2.3251 3.44836 0
M  V30 11859 H 1124.13 -3.23322 1.85789 0
M  V30 11860 N 1126.31 -1.30234 -0.887518 0
M  V30 11861 C 1127.22 -1.18316 -2.02579 0
M  V30 11862 C 1128.24 -0.103658 -1.73691 0
M  V30 11863 O 1129.41 -0.3181 -1.98872 0
M  V30 11864 C 1126.48 -0.873222 -3.35523 0
M  V30 11865 C 1125.54 -2.03783 -3.7785 0
M  V30 11866 C 1124.77 -1.74258 -5.0445 0
M  V30 11867 O 1125 -0.669295 -5.6646 0
M  V30 11868 O 1123.93 -2.59423 -5.43124 0
M  V30 11869 H 1127.76 -2.13933 -2.15561 0
M  V30 11870 H 1125.34 -1.09803 -1.0131 0
M  V30 11871 H 1127.22 -0.715463 -4.15282 0
M  V30 11872 H 1125.9 0.053056 -3.23657 0
M  V30 11873 H 1124.81 -2.2509 -2.98806 0
M  V30 11874 H 1126.14 -2.94574 -3.94318 0
M  V30 11875 N 1127.79 1.09952 -1.12909 0
M  V30 11876 C 1128.72 2.16257 -0.759305 0
M  V30 11877 C 1129.74 1.61355 0.216427 0
M  V30 11878 O 1130.92 1.785 -0.00297224 0
M  V30 11879 C 1128.02 3.38741 -0.103908 0
M  V30 11880 C 1127.2 4.23072 -1.11037 0
M  V30 11881 C 1126.26 5.23991 -0.481667 0
M  V30 11882 O 1125.28 5.57665 -1.14011 0
M  V30 11883 N 1126.48 5.75652 0.748698 0
M  V30 11884 H 1129.25 2.48588 -1.67405 0
M  V30 11885 H 1126.81 1.25617 -1.02137 0
M  V30 11886 H 1128.8 4.03362 0.328799 0
M  V30 11887 H 1127.37 3.04344 0.713677 0
M  V30 11888 H 1126.59 3.5467 -1.72054 0
M  V30 11889 H 1127.88 4.76244 -1.79078 0
M  V30 11890 H 1127.28 5.505 1.30253 0
M  V30 11891 H 1125.84 6.42033 1.12415 0
M  V30 11892 N 1129.27 0.921757 1.27833 0
M  V30 11893 C 1130.68 0.621102 1.47019 0
M  V30 11894 C 1130.88 -0.831338 1.83551 0
M  V30 11895 O 1129.94 -1.60974 1.94534 0
M  V30 11896 C 1131.25 1.56588 2.56712 0
M  V30 11897 C 1132.8 1.57346 2.70576 0
M  V30 11898 C 1133.28 2.50505 3.8342 0
M  V30 11899 N 1134.77 2.48678 3.90786 0
M  V30 11900 C 1135.5 3.17454 4.77505 0
M  V30 11901 N 1135 3.95588 5.68755 0
M  V30 11902 N 1136.79 3.06501 4.71183 0
M  V30 11903 H 1128.94 1.86085 1.02403 0
M  V30 11904 H 1131.21 0.798595 0.510833 0
M  V30 11905 H 1130.91 2.60175 2.36647 0
M  V30 11906 H 1130.79 1.30305 3.53978 0
M  V30 11907 H 1133.17 0.544919 2.90025 0
M  V30 11908 H 1133.25 1.87675 1.73815 0
M  V30 11909 H 1132.9 3.53466 3.64725 0
M  V30 11910 H 1132.83 2.17474 4.79596 0
M  V30 11911 H 1135.32 1.91928 3.25534 0
M  V30 11912 H 1135.63 4.45066 6.31772 0
M  V30 11913 H 1133.98 3.99692 5.6857 0
M  V30 11914 H 1137.17 2.44958 3.9889 0
M  V30 11915 H 1137.34 3.60372 5.3855 0
M  V30 11916 N 1130.75 -1.41857 0.686609 0
M  V30 11917 C 1131.97 -2.05699 0.222561 0
M  V30 11918 C 1132.39 -1.51636 -1.12481 0
M  V30 11919 O 1131.75 -0.660925 -1.70112 0
M  V30 11920 C 1131.8 -3.61138 0.161818 0
M  V30 11921 O 1131.52 -4.13199 1.45596 0
M  V30 11922 C 1133.02 -4.42112 -0.324304 0
M  V30 11923 H 1130.24 -0.662665 0.10543 0
M  V30 11924 H 1132.78 -1.81788 0.936671 0
M  V30 11925 H 1130.94 -3.8412 -0.503056 0
M  V30 11926 H 1131.35 -5.0717 1.33712 0
M  V30 11927 H 1132.83 -5.51097 -0.315694 0
M  V30 11928 H 1133.3 -4.1756 -1.36164 0
M  V30 11929 H 1133.91 -4.24174 0.309251 0
M  V30 11930 N 1132.22 -0.430739 -1.51599 0
M  V30 11931 C 1133.17 0.384024 -2.27583 0
M  V30 11932 C 1134.14 1.02254 -1.30895 0
M  V30 11933 O 1135.33 1.0427 -1.59789 0
M  V30 11934 C 1132.47 1.48291 -3.11615 0
M  V30 11935 C 1131.58 0.863187 -4.23288 0
M  V30 11936 C 1130.71 1.93657 -4.94642 0
M  V30 11937 C 1129.75 1.29493 -5.98246 0
M  V30 11938 N 1128.89 2.30939 -6.63032 0
M  V30 11939 H 1133.73 -0.270314 -2.96771 0
M  V30 11940 H 1131.27 -0.145148 -1.46382 0
M  V30 11941 H 1133.23 2.13124 -3.58656 0
M  V30 11942 H 1131.86 2.10697 -2.44554 0
M  V30 11943 H 1130.91 0.103326 -3.8026 0
M  V30 11944 H 1132.22 0.354676 -4.97537 0
M  V30 11945 H 1131.37 2.66167 -5.45197 0
M  V30 11946 H 1130.11 2.4788 -4.20008 0
M  V30 11947 H 1129.12 0.555262 -5.46989 0
M  V30 11948 H 1130.34 0.760122 -6.74833 0
M  V30 11949 H 1128.29 2.84254 -5.91216 0
M  V30 11950 H 1128.21 1.84961 -7.33025 0
M  V30 11951 H 1129.47 3.02953 -7.1822 0
M  V30 11952 N 1133.7 1.56767 -0.161869 0
M  V30 11953 C 1134.93 2.00964 0.492027 0
M  V30 11954 C 1135.35 1.04206 1.57437 0
M  V30 11955 O 1134.7 0.0413998 1.82453 0
M  V30 11956 C 1134.75 3.4502 1.07904 0
M  V30 11957 O 1134.47 4.38082 0.0399085 0
M  V30 11958 C 1135.98 4.04572 1.81209 0
M  V30 11959 H 1133.2 0.658911 0.126797 0
M  V30 11960 H 1135.74 2.0283 -0.260824 0
M  V30 11961 H 1133.89 3.43959 1.78243 0
M  V30 11962 H 1134.31 5.22372 0.471985 0
M  V30 11963 H 1135.78 5.07321 2.17554 0
M  V30 11964 H 1136.26 3.46126 2.70359 0
M  V30 11965 H 1136.87 4.09307 1.15534 0
M  V30 11966 N 1135.18 -0.111886 1.57202 0
M  V30 11967 C 1136.43 -0.819623 1.85499 0
M  V30 11968 C 1136.76 -1.7919 0.748629 0
M  V30 11969 O 1136.03 -1.92952 -0.244918 0
M  V30 11970 C 1136.32 -1.56324 3.24399 0
M  V30 11971 C 1136.17 -0.610081 4.45643 0
M  V30 11972 C 1137.49 -2.51777 3.60966 0
M  V30 11973 H 1134.61 -0.296512 0.674722 0
M  V30 11974 H 1137.25 -0.0836741 1.89816 0
M  V30 11975 H 1135.4 -2.1906 3.2085 0
M  V30 11976 H 1137.07 0.00898038 4.61299 0
M  V30 11977 H 1135.32 0.0778488 4.3373 0
M  V30 11978 H 1135.99 -1.16718 5.39519 0
M  V30 11979 H 1138.46 -1.99143 3.65351 0
M  V30 11980 H 1137.34 -3.00835 4.59118 0
M  V30 11981 H 1137.6 -3.34769 2.8876 0
M  V30 11982 N 1136.66 -1.52894 -0.382264 0
M  V30 11983 C 1137.59 -1.74413 -1.48703 0
M  V30 11984 C 1138.6 -0.624663 -1.50339 0
M  V30 11985 O 1139.79 -0.900527 -1.54119 0
M  V30 11986 C 1136.89 -1.79387 -2.8753 0
M  V30 11987 C 1136.07 -3.08794 -3.09783 0
M  V30 11988 C 1135.12 -3.05226 -4.2863 0
M  V30 11989 O 1134.15 -3.79073 -4.24609 0
M  V30 11990 N 1135.35 -2.2488 -5.35172 0
M  V30 11991 H 1138.12 -2.69734 -1.30628 0
M  V30 11992 H 1135.68 -1.51465 -0.571842 0
M  V30 11993 H 1137.67 -1.74498 -3.65147 0
M  V30 11994 H 1136.24 -0.914233 -2.98932 0
M  V30 11995 H 1135.46 -3.27118 -2.19971 0
M  V30 11996 H 1136.75 -3.94347 -3.21509 0
M  V30 11997 H 1136.15 -1.64363 -5.41296 0
M  V30 11998 H 1134.7 -2.25825 -6.1143 0
M  V30 11999 N 1138.14 0.641106 -1.43971 0
M  V30 12000 C 1139.07 1.76645 -1.46046 0
M  V30 12001 C 1140.08 1.58881 -0.355049 0
M  V30 12002 O 1141.27 1.67379 -0.620207 0
M  V30 12003 C 1138.37 3.14237 -1.26918 0
M  V30 12004 C 1137.54 3.5855 -2.50521 0
M  V30 12005 C 1136.6 4.74986 -2.26438 0
M  V30 12006 O 1135.63 4.83807 -2.99866 0
M  V30 12007 N 1136.83 5.66016 -1.28866 0
M  V30 12008 H 1139.6 1.75339 -2.43056 0
M  V30 12009 H 1137.16 0.82535 -1.39282 0
M  V30 12010 H 1139.15 3.89837 -1.0867 0
M  V30 12011 H 1137.72 3.10244 -0.383082 0
M  V30 12012 H 1136.94 2.73265 -2.84112 0
M  V30 12013 H 1138.23 3.84906 -3.32754 0
M  V30 12014 H 1137.63 5.61574 -0.682018 0
M  V30 12015 H 1136.18 6.41286 -1.16599 0
M  V30 12016 N 1139.62 1.30703 0.880598 0
M  V30 12017 C 1140.56 1.17369 2.00817 0
M  V30 12018 C 1141.56 0.0845159 1.69189 0
M  V30 12019 O 1142.76 0.245673 1.78316 0
M  V30 12020 H 1139.14 0.363107 0.658527 0
M  V30 12021 H 1141.11 2.12789 2.09197 0
M  V30 12022 C 1139.86 0.886851 3.362 0
M  V30 12023 H 1139.18 1.71704 3.61051 0
M  V30 12024 H 1140.62 0.83368 4.15723 0
M  V30 12025 C 1139.08 -0.410293 3.34392 0
M  V30 12026 O 1139.61 -1.43044 3.75368 0
M  V30 12027 N 1137.82 -0.423023 2.87505 0
M  V30 12028 H 1137.36 0.407637 2.54354 0
M  V30 12029 H 1137.32 -1.29086 2.86678 0
M  V30 12030 N 1141.09 -1.09351 1.1349 0
M  V30 12031 C 1142.32 -1.85844 0.92069 0
M  V30 12032 C 1142.74 -1.80616 -0.525303 0
M  V30 12033 O 1142.1 -1.1842 -1.37282 0
M  V30 12034 C 1142.15 -3.31716 1.4141 0
M  V30 12035 O 1141.25 -4.08014 0.599838 0
M  V30 12036 H 1140.59 -0.576242 0.32991 0
M  V30 12037 H 1143.12 -1.38084 1.50976 0
M  V30 12038 H 1143.13 -3.82564 1.41805 0
M  V30 12039 H 1141.81 -3.34837 2.46692 0
M  V30 12040 H 1140.39 -3.66944 0.663816 0
M  V30 12041 N 1142.57 -0.928524 -1.27343 0
M  V30 12042 C 1143.85 -0.487758 -1.89421 0
M  V30 12043 C 1144.23 1.03418 -1.84032 0
M  V30 12044 O 1143.58 1.8887 -1.2861 0
M  V30 12045 C 1143.79 -1.03478 -3.33307 0
M  V30 12046 C 1145.13 -1.09577 -4.10217 0
M  V30 12047 O 1146.16 -0.984463 -3.42326 0
M  V30 12048 O 1145.02 -1.2673 -5.31603 0
M  V30 12049 H 1142.11 -0.157018 -0.811957 0
M  V30 12050 H 1144.66 -1.02027 -1.35605 0
M  V30 12051 H 1143.43 -2.07861 -3.31526 0
M  V30 12052 H 1143.05 -0.483967 -3.94644 0
M  V30 12053 N 1144.05 1.41491 -0.694123 0
M  V30 12054 C 1145 2.32594 -0.0164704 0
M  V30 12055 C 1145.99 1.50884 0.770086 0
M  V30 12056 O 1147.2 1.66829 0.675871 0
M  V30 12057 H 1143.57 0.751879 0.0134743 0
M  V30 12058 H 1145.54 2.87423 -0.80191 0
M  V30 12059 C 1144.29 3.35661 0.90703 0
M  V30 12060 H 1143.62 3.98587 0.311205 0
M  V30 12061 H 1145.06 4.0195 1.34952 0
M  V30 12062 C 1143.51 2.69436 2.02253 0
M  V30 12063 O 1144.04 2.54107 3.11115 0
M  V30 12064 N 1142.25 2.28154 1.79984 0
M  V30 12065 H 1141.8 2.40821 0.914492 0
M  V30 12066 H 1141.76 1.84178 2.54805 0
M  V30 12067 N 1145.53 0.438773 1.51369 0
M  V30 12068 C 1146.94 -0.0240139 1.86685 0
M  V30 12069 C 1147.29 -1.41816 1.35583 0
M  V30 12070 O 1146.41 -2.04517 0.707232 0
M  V30 12071 C 1147.01 -0.0503527 3.38763 0
M  V30 12072 C 1145.57 -0.457556 3.73609 0
M  V30 12073 C 1144.72 0.348852 2.75097 0
M  V30 12074 H 1147.67 0.654552 1.44573 0
M  V30 12075 H 1147.69 -0.859534 3.70665 0
M  V30 12076 H 1147.2 0.964451 3.75925 0
M  V30 12077 H 1145.3 -1.47791 3.42036 0
M  V30 12078 H 1145.41 -0.181357 4.78757 0
M  V30 12079 H 1143.78 -0.193037 2.53967 0
M  V30 12080 H 1144.56 1.36256 3.15102 0
M  V30 12081 N 1147.01 -1.56678 0.170181 0
M  V30 12082 C 1148.25 -1.96024 -0.475147 0
M  V30 12083 C 1148.57 -1.0588 -1.64465 0
M  V30 12084 O 1149.77 -1.34901 -2.35614 0
M  V30 12085 C 1148.23 -3.4855 -0.896704 0
M  V30 12086 C 1147.84 -4.47318 0.247142 0
M  V30 12087 C 1149.58 -3.96716 -1.51052 0
M  V30 12088 C 1147.49 -5.91082 -0.193982 0
M  V30 12089 H 1146.42 -0.731883 -0.181282 0
M  V30 12090 H 1149.07 -1.81674 0.25823 0
M  V30 12091 H 1147.45 -3.58314 -1.68603 0
M  V30 12092 H 1148.63 -4.49268 1.02445 0
M  V30 12093 H 1146.94 -4.09203 0.770839 0
M  V30 12094 H 1149.54 -5.01581 -1.85258 0
M  V30 12095 H 1149.88 -3.39588 -2.40802 0
M  V30 12096 H 1150.41 -3.89965 -0.785652 0
M  V30 12097 H 1147.15 -6.5208 0.668714 0
M  V30 12098 H 1146.67 -5.92441 -0.936675 0
M  V30 12099 H 1148.35 -6.43844 -0.638237 0
M  V30 12100 N 1148.48 0.103547 -1.57259 0
M  V30 12101 C 1149.73 0.808576 -1.85656 0
M  V30 12102 C 1150.06 1.79143 -0.757502 0
M  V30 12103 O 1149.31 1.941 0.249723 0
M  V30 12104 C 1149.61 1.57946 -3.20605 0
M  V30 12105 C 1149.28 0.739502 -4.44795 0
M  V30 12106 C 1147.94 0.507921 -4.78512 0
M  V30 12107 C 1150.29 0.155034 -5.20969 0
M  V30 12108 C 1147.62 -0.318129 -5.85837 0
M  V30 12109 C 1149.97 -0.658292 -6.29166 0
M  V30 12110 C 1148.64 -0.900044 -6.61404 0
M  V30 12111 H 1147.91 0.295879 -0.679365 0
M  V30 12112 H 1150.55 0.0703604 -1.91371 0
M  V30 12113 H 1148.86 2.38902 -3.10537 0
M  V30 12114 H 1150.56 2.12921 -3.39803 0
M  V30 12115 H 1147.15 0.930103 -4.18386 0
M  V30 12116 H 1151.33 0.32113 -4.9526 0
M  V30 12117 H 1146.59 -0.514495 -6.09231 0
M  V30 12118 H 1150.76 -1.11809 -6.87366 0
M  V30 12119 H 1148.39 -1.54194 -7.44398 0
M  V30 12120 N 1149.96 1.53094 0.37415 0
M  V30 12121 C 1151.24 1.59456 1.13283 0
M  V30 12122 C 1151.62 0.396821 2.07337 0
M  V30 12123 O 1150.97 -0.613659 2.20106 0
M  V30 12124 C 1151.18 2.94069 1.87948 0
M  V30 12125 C 1152.52 3.4834 2.42785 0
M  V30 12126 O 1153.55 2.96042 1.98085 0
M  V30 12127 O 1152.41 4.39747 3.24477 0
M  V30 12128 H 1149.5 0.643731 0.519171 0
M  V30 12129 H 1152.05 1.65434 0.378105 0
M  V30 12130 H 1150.82 3.72685 1.19255 0
M  V30 12131 H 1150.44 2.91544 2.70348 0
M  V30 12132 N 1151.44 -0.633461 1.44309 0
M  V30 12133 C 1152.35 -1.77428 1.53481 0
M  V30 12134 C 1153.37 -1.68839 0.420628 0
M  V30 12135 O 1154.54 -1.89658 0.677638 0
M  V30 12136 C 1151.61 -3.13801 1.47409 0
M  V30 12137 C 1150.67 -3.34039 2.6966 0
M  V30 12138 C 1149.9 -4.63907 2.63868 0
M  V30 12139 O 1150.12 -5.44559 1.69741 0
M  V30 12140 O 1149.06 -4.86295 3.54684 0
M  V30 12141 H 1152.88 -1.72642 2.49857 0
M  V30 12142 H 1150.47 -0.794399 1.26529 0
M  V30 12143 H 1152.35 -3.95101 1.46537 0
M  V30 12144 H 1151.03 -3.19134 0.541769 0
M  V30 12145 H 1149.93 -2.52427 2.761 0
M  V30 12146 H 1151.27 -3.33566 3.61931 0
M  V30 12147 N 1152.92 -1.31168 -0.873655 0
M  V30 12148 C 1154.15 -1.23595 -1.65927 0
M  V30 12149 C 1154.56 0.199349 -1.87745 0
M  V30 12150 O 1153.92 1.13013 -1.43298 0
M  V30 12151 C 1153.97 -1.97268 -3.02932 0
M  V30 12152 O 1153.69 -3.35196 -2.82091 0
M  V30 12153 C 1155.19 -1.9649 -3.97374 0
M  V30 12154 H 1152.41 -0.427228 -0.517414 0
M  V30 12155 H 1154.96 -1.72983 -1.09074 0
M  V30 12156 H 1153.11 -1.51651 -3.56484 0
M  V30 12157 H 1153.52 -3.7266 -3.69087 0
M  V30 12158 H 1155 -2.52557 -4.90835 0
M  V30 12159 H 1155.48 -0.946525 -4.28879 0
M  V30 12160 H 1156.08 -2.4197 -3.49758 0
M  V30 12161 N 1154.4 1.08748 -1.14068 0
M  V30 12162 C 1155.64 1.81065 -0.906738 0
M  V30 12163 C 1155.97 1.86057 0.566844 0
M  V30 12164 O 1155.23 1.32976 1.43582 0
M  V30 12165 C 1155.53 3.26734 -1.44843 0
M  V30 12166 C 1155.19 3.41866 -2.94005 0
M  V30 12167 C 1153.85 3.45703 -3.34729 0
M  V30 12168 C 1156.21 3.45831 -3.89937 0
M  V30 12169 C 1153.53 3.51092 -4.70055 0
M  V30 12170 C 1155.89 3.52755 -5.25116 0
M  V30 12171 C 1154.55 3.54863 -5.65357 0
M  V30 12172 H 1153.82 0.662564 -0.331799 0
M  V30 12173 H 1156.47 1.28065 -1.42378 0
M  V30 12174 H 1154.77 3.82419 -0.852239 0
M  V30 12175 H 1156.47 3.81236 -1.2434 0
M  V30 12176 H 1153.06 3.39568 -2.61518 0
M  V30 12177 H 1157.24 3.421 -3.59557 0
M  V30 12178 H 1152.5 3.51015 -5.00598 0
M  V30 12179 H 1156.67 3.54768 -5.9926 0
M  V30 12180 H 1154.3 3.58792 -6.70203 0
M  V30 12181 N 1155.87 0.935264 1.26849 0
M  V30 12182 C 1156.78 0.446122 2.30319 0
M  V30 12183 C 1157.8 -0.476965 1.67335 0
M  V30 12184 O 1158.98 -0.357934 1.98194 0
M  V30 12185 C 1156.04 -0.286297 3.45516 0
M  V30 12186 C 1155.1 0.672626 4.23998 0
M  V30 12187 C 1154.34 -0.0249345 5.33694 0
M  V30 12188 O 1154.56 -1.24296 5.56693 0
M  V30 12189 O 1153.49 0.650752 5.98372 0
M  V30 12190 H 1157.32 1.30546 2.74211 0
M  V30 12191 H 1154.9 0.70091 1.31938 0
M  V30 12192 H 1156.79 -0.699109 4.1556 0
M  V30 12193 H 1155.46 -1.12112 3.03665 0
M  V30 12194 H 1154.37 1.13527 3.56458 0
M  V30 12195 H 1155.7 1.47489 4.69583 0
M  V30 12196 N 1157.35 -1.41121 0.701616 0
M  V30 12197 C 1158.6 -2.0113 0.235147 0
M  V30 12198 C 1158.93 -1.55587 -1.16718 0
M  V30 12199 O 1158.18 -0.760615 -1.80314 0
M  V30 12200 C 1158.48 -3.5654 0.247781 0
M  V30 12201 C 1158.15 -4.21616 1.59846 0
M  V30 12202 C 1156.81 -4.39106 1.96822 0
M  V30 12203 C 1159.16 -4.58048 2.48679 0
M  V30 12204 C 1156.49 -4.90307 3.22205 0
M  V30 12205 C 1158.84 -5.10642 3.734 0
M  V30 12206 C 1157.51 -5.26343 4.10512 0
M  V30 12207 H 1156.78 -0.735987 0.0860462 0
M  V30 12208 H 1159.42 -1.68932 0.901898 0
M  V30 12209 H 1157.73 -3.88564 -0.502528 0
M  V30 12210 H 1159.42 -4.00787 -0.130766 0
M  V30 12211 H 1156.01 -4.08381 1.30088 0
M  V30 12212 H 1160.2 -4.44184 2.21391 0
M  V30 12213 H 1155.45 -5.00647 3.50945 0
M  V30 12214 H 1159.63 -5.37811 4.42416 0
M  V30 12215 H 1157.26 -5.65779 5.07738 0
M  V30 12216 N 1158.83 -0.446794 -1.51134 0
M  V30 12217 C 1159.76 0.395804 -2.25757 0
M  V30 12218 C 1160.78 0.978178 -1.30137 0
M  V30 12219 O 1161.96 0.87071 -1.55823 0
M  V30 12220 C 1159.06 1.56665 -3.00515 0
M  V30 12221 C 1158.24 1.10146 -4.23305 0
M  V30 12222 C 1157.3 2.14352 -4.80562 0
M  V30 12223 O 1156.32 1.73401 -5.42145 0
M  V30 12224 N 1157.52 3.46932 -4.65423 0
M  V30 12225 H 1160.29 -0.243808 -2.98707 0
M  V30 12226 H 1157.85 -0.276205 -1.59527 0
M  V30 12227 H 1159.84 2.26019 -3.35704 0
M  V30 12228 H 1158.41 2.11142 -2.30516 0
M  V30 12229 H 1157.63 0.234644 -3.93501 0
M  V30 12230 H 1158.92 0.768185 -5.02968 0
M  V30 12231 H 1158.32 3.82929 -4.16391 0
M  V30 12232 H 1156.88 4.12154 -5.04948 0
M  V30 12233 N 1160.31 1.56586 -0.178487 0
M  V30 12234 C 1161.55 1.9739 0.465306 0
M  V30 12235 C 1161.89 1.06474 1.6241 0
M  V30 12236 O 1161.16 0.113316 1.9417 0
M  V30 12237 C 1161.45 3.47577 0.941408 0
M  V30 12238 C 1161.3 4.49271 -0.218054 0
M  V30 12239 C 1162.62 4.01038 1.81263 0
M  V30 12240 H 1159.74 0.717676 0.167663 0
M  V30 12241 H 1162.38 1.88128 -0.266067 0
M  V30 12242 H 1160.53 3.556 1.56463 0
M  V30 12243 H 1162.2 4.53301 -0.855332 0
M  V30 12244 H 1160.44 4.24936 -0.872441 0
M  V30 12245 H 1161.11 5.51776 0.157315 0
M  V30 12246 H 1163.59 3.9569 1.28718 0
M  V30 12247 H 1162.47 5.06526 2.11476 0
M  V30 12248 H 1162.73 3.45288 2.76096 0
M  V30 12249 N 1161.79 -0.095206 1.57312 0
M  V30 12250 C 1162.73 -1.13438 2.03063 0
M  V30 12251 C 1163.73 -1.41478 0.931679 0
M  V30 12252 O 1164.93 -1.41161 1.11686 0
M  V30 12253 H 1161.31 -0.383042 0.647134 0
M  V30 12254 H 1163.28 -0.722186 2.89529 0
M  V30 12255 C 1162.03 -2.44641 2.47075 0
M  V30 12256 H 1161.35 -2.23908 3.31218 0
M  V30 12257 H 1162.79 -3.15855 2.82863 0
M  V30 12258 C 1161.25 -3.08931 1.34399 0
M  V30 12259 O 1161.78 -3.96021 0.673071 0
M  V30 12260 N 1159.99 -2.6918 1.09501 0
M  V30 12261 H 1159.53 -1.98451 1.6424 0
M  V30 12262 H 1159.49 -3.12522 0.34311 0
M  V30 12263 N 1163.26 -1.53291 -0.366026 0
M  V30 12264 C 1164.19 -1.82675 -1.45437 0
M  V30 12265 C 1165.18 -0.680227 -1.55907 0
M  V30 12266 O 1166.36 -0.930032 -1.70482 0
M  V30 12267 C 1163.49 -2.01626 -2.8278 0
M  V30 12268 C 1162.44 -3.17391 -2.87135 0
M  V30 12269 C 1161.77 -3.21634 -4.27148 0
M  V30 12270 C 1163.07 -4.5599 -2.54697 0
M  V30 12271 H 1164.76 -2.73818 -1.21096 0
M  V30 12272 H 1162.31 -1.31754 -0.581108 0
M  V30 12273 H 1164.26 -2.20765 -3.58944 0
M  V30 12274 H 1162.99 -1.07193 -3.08508 0
M  V30 12275 H 1161.65 -2.98071 -2.13422 0
M  V30 12276 H 1161.29 -2.2484 -4.49951 0
M  V30 12277 H 1160.99 -3.99414 -4.30978 0
M  V30 12278 H 1162.52 -3.42957 -5.05186 0
M  V30 12279 H 1163.93 -4.75294 -3.20575 0
M  V30 12280 H 1162.33 -5.36008 -2.69844 0
M  V30 12281 H 1163.4 -4.61133 -1.49949 0
M  V30 12282 N 1164.74 0.6258 -1.44643 0
M  V30 12283 C 1166.15 1.20751 -1.42394 0
M  V30 12284 C 1166.5 1.95685 -0.142047 0
M  V30 12285 O 1165.63 2.02715 0.757332 0
M  V30 12286 C 1166.22 2.1964 -2.57961 0
M  V30 12287 C 1164.78 2.73227 -2.5889 0
M  V30 12288 C 1163.93 1.48315 -2.34303 0
M  V30 12289 H 1166.88 0.416162 -1.53146 0
M  V30 12290 H 1166.9 3.02342 -2.31019 0
M  V30 12291 H 1166.41 1.65073 -3.51244 0
M  V30 12292 H 1164.52 3.31782 -1.69563 0
M  V30 12293 H 1164.63 3.18902 -3.57545 0
M  V30 12294 H 1162.99 1.76634 -1.83501 0
M  V30 12295 H 1163.78 0.956427 -3.29708 0
M  V30 12296 N 1166.22 1.31629 0.866686 0
M  V30 12297 C 1167.13 1.21524 2.00671 0
M  V30 12298 C 1168.15 0.131277 1.73504 0
M  V30 12299 O 1169.32 0.349699 1.98341 0
M  V30 12300 C 1166.39 0.926491 3.34091 0
M  V30 12301 C 1165.45 2.09769 3.7456 0
M  V30 12302 C 1164.68 1.82262 5.01614 0
M  V30 12303 O 1164.9 0.759329 5.65323 0
M  V30 12304 O 1163.84 2.68031 5.38928 0
M  V30 12305 H 1167.66 2.17335 2.1213 0
M  V30 12306 H 1165.25 1.11401 0.995499 0
M  V30 12307 H 1167.13 0.78144 4.14091 0
M  V30 12308 H 1165.81 -0.00155829 3.237 0
M  V30 12309 H 1164.71 2.29816 2.95187 0
M  V30 12310 H 1166.05 3.0081 3.89582 0
M  V30 12311 N 1167.7 -1.08142 1.14644 0
M  V30 12312 C 1168.63 -2.17139 0.858667 0
M  V30 12313 C 1169.61 -1.69064 -0.187452 0
M  V30 12314 O 1170.8 -1.94151 -0.0435458 0
M  V30 12315 C 1167.93 -3.45648 0.33834 0
M  V30 12316 C 1166.88 -4.07129 1.32021 0
M  V30 12317 C 1166.21 -5.30623 0.659075 0
M  V30 12318 C 1167.51 -4.48095 2.68343 0
M  V30 12319 H 1169.2 -2.41468 1.77012 0
M  V30 12320 H 1166.75 -1.16052 0.852523 0
M  V30 12321 H 1168.7 -4.21216 0.124611 0
M  V30 12322 H 1167.42 -3.2088 -0.608553 0
M  V30 12323 H 1166.08 -3.33596 1.52016 0
M  V30 12324 H 1165.73 -5.02142 -0.293711 0
M  V30 12325 H 1165.43 -5.72714 1.31427 0
M  V30 12326 H 1166.95 -6.08903 0.454933 0
M  V30 12327 H 1168.37 -5.14828 2.5224 0
M  V30 12328 H 1166.76 -5.01113 3.30161 0
M  V30 12329 H 1167.83 -3.59852 3.25015 0
M  V30 12330 N 1169.18 -0.941978 -1.26351 0
M  V30 12331 C 1170.14 -0.456768 -2.24602 0
M  V30 12332 C 1171.14 0.432574 -1.54872 0
M  V30 12333 O 1172.33 0.23164 -1.72653 0
M  V30 12334 C 1169.46 0.341583 -3.39184 0
M  V30 12335 H 1170.66 -1.32503 -2.69041 0
M  V30 12336 H 1168.21 -0.724021 -1.38519 0
M  V30 12337 H 1168.94 1.22806 -3.00149 0
M  V30 12338 H 1168.73 -0.296268 -3.90979 0
M  V30 12339 H 1170.22 0.670955 -4.12175 0
M  V30 12340 N 1170.66 1.40747 -0.709091 0
M  V30 12341 C 1171.59 2.282 -0.00156906 0
M  V30 12342 C 1172.57 1.42981 0.774279 0
M  V30 12343 O 1173.75 1.724 0.762276 0
M  V30 12344 C 1170.88 3.23441 1.00517 0
M  V30 12345 C 1169.92 4.25291 0.320904 0
M  V30 12346 S 1170.76 5.27069 -0.946518 0
M  V30 12347 C 1171.91 6.25873 0.0582856 0
M  V30 12348 H 1172.15 2.87859 -0.743271 0
M  V30 12349 H 1169.68 1.46085 -0.499866 0
M  V30 12350 H 1171.64 3.78841 1.58082 0
M  V30 12351 H 1170.3 2.62851 1.71954 0
M  V30 12352 H 1169.49 4.92255 1.08173 0
M  V30 12353 H 1169.09 3.73557 -0.18202 0
M  V30 12354 H 1171.38 6.71398 0.907233 0
M  V30 12355 H 1172.33 7.05739 -0.577787 0
M  V30 12356 H 1172.74 5.62942 0.419108 0
M  V30 12357 N 1172.13 0.454803 1.50895 0
M  V30 12358 C 1173.38 -0.107367 2.01414 0
M  V30 12359 C 1173.7 -1.42243 1.34262 0
M  V30 12360 O 1174.9 -2.06858 1.75846 0
M  V30 12361 C 1173.36 -0.241872 3.59086 0
M  V30 12362 C 1172.97 1.06379 4.35187 0
M  V30 12363 C 1174.71 -0.756873 4.17698 0
M  V30 12364 C 1172.62 0.893973 5.84604 0
M  V30 12365 H 1171.55 -0.0439003 0.752721 0
M  V30 12366 H 1174.2 0.587225 1.7385 0
M  V30 12367 H 1172.58 -0.999873 3.83169 0
M  V30 12368 H 1173.75 1.83148 4.2284 0
M  V30 12369 H 1172.07 1.50865 3.88109 0
M  V30 12370 H 1174.67 -0.900697 5.27059 0
M  V30 12371 H 1175.01 -1.74397 3.7801 0
M  V30 12372 H 1175.54 -0.0567088 3.9776 0
M  V30 12373 H 1172.28 1.85395 6.28736 0
M  V30 12374 H 1171.8 0.166387 5.99569 0
M  V30 12375 H 1173.48 0.554084 6.44623 0
M  V30 12376 N 1173.61 -1.56489 0.186789 0
M  V30 12377 C 1175.03 -1.58701 -0.169176 0
M  V30 12378 C 1175.23 -1.2027 -1.61671 0
M  V30 12379 O 1174.28 -0.92154 -2.35083 0
M  V30 12380 C 1175.6 -3.00437 0.125657 0
M  V30 12381 C 1177.14 -3.12932 0.0651 0
M  V30 12382 C 1177.62 -4.56787 0.333131 0
M  V30 12383 N 1179.11 -4.62344 0.281453 0
M  V30 12384 C 1179.85 -5.71529 0.462805 0
M  V30 12385 N 1179.34 -6.89213 0.704054 0
M  V30 12386 N 1181.13 -5.60692 0.397636 0
M  V30 12387 H 1173.29 -1.79754 1.13148 0
M  V30 12388 H 1175.55 -0.83385 0.450997 0
M  V30 12389 H 1175.25 -3.33086 1.12901 0
M  V30 12390 H 1175.13 -3.72782 -0.575612 0
M  V30 12391 H 1177.52 -2.80101 -0.928845 0
M  V30 12392 H 1177.6 -2.42991 0.799318 0
M  V30 12393 H 1177.24 -4.9033 1.32436 0
M  V30 12394 H 1177.17 -5.24907 -0.421879 0
M  V30 12395 H 1179.66 -3.77764 0.101266 0
M  V30 12396 H 1179.97 -7.68314 0.831468 0
M  V30 12397 H 1178.32 -6.9104 0.740851 0
M  V30 12398 H 1181.51 -4.6763 0.20964 0
M  V30 12399 H 1181.68 -6.45726 0.54239 0
M  V30 12400 N 1175.09 0.086862 -1.5736 0
M  V30 12401 C 1176.34 0.78884 -1.86504 0
M  V30 12402 C 1176.66 1.78329 -0.77646 0
M  V30 12403 O 1175.92 1.94354 0.229122 0
M  V30 12404 C 1176.22 1.54537 -3.22263 0
M  V30 12405 C 1175.88 0.692284 -4.45554 0
M  V30 12406 C 1174.55 0.45714 -4.79024 0
M  V30 12407 C 1176.9 0.0997695 -5.21105 0
M  V30 12408 C 1174.23 -0.380247 -5.85466 0
M  V30 12409 C 1176.58 -0.724986 -6.28432 0
M  V30 12410 C 1175.24 -0.970144 -6.60412 0
M  V30 12411 H 1174.51 0.288657 -0.682465 0
M  V30 12412 H 1177.16 0.050059 -1.91435 0
M  V30 12413 H 1175.46 2.35594 -3.13053 0
M  V30 12414 H 1177.16 2.09305 -3.42042 0
M  V30 12415 H 1173.75 0.885675 -4.19349 0
M  V30 12416 H 1177.94 0.268583 -4.95573 0
M  V30 12417 H 1173.19 -0.579084 -6.08651 0
M  V30 12418 H 1177.37 -1.19093 -6.86141 0
M  V30 12419 H 1174.99 -1.6208 -7.42721 0
M  V30 12420 N 1176.57 1.53483 0.357892 0
M  V30 12421 C 1177.81 1.70289 1.10134 0
M  V30 12422 C 1178.15 0.457296 1.88739 0
M  V30 12423 O 1177.42 -0.545527 1.86693 0
M  V30 12424 C 1177.7 2.95755 2.05429 0
M  V30 12425 C 1177.56 4.30489 1.30382 0
M  V30 12426 C 1178.88 3.16844 3.05447 0
M  V30 12427 H 1176 0.61965 0.399003 0
M  V30 12428 H 1178.64 1.86133 0.381357 0
M  V30 12429 H 1176.79 2.82377 2.66825 0
M  V30 12430 H 1178.46 4.55692 0.71711 0
M  V30 12431 H 1176.7 4.2955 0.605712 0
M  V30 12432 H 1177.37 5.14427 2.00171 0
M  V30 12433 H 1179.85 3.29458 2.54159 0
M  V30 12434 H 1178.73 4.06053 3.69341 0
M  V30 12435 H 1178.99 2.32476 3.76041 0
M  V30 12436 N 1178.05 -0.61812 1.44973 0
M  V30 12437 C 1179.29 -1.37944 1.48658 0
M  V30 12438 C 1179.62 -1.93805 0.123749 0
M  V30 12439 O 1178.9 -1.74434 -0.860401 0
M  V30 12440 C 1179.18 -2.53515 2.55739 0
M  V30 12441 C 1179.04 -2.02918 4.01428 0
M  V30 12442 C 1180.35 -3.55674 2.59199 0
M  V30 12443 H 1177.47 -0.500223 0.541244 0
M  V30 12444 H 1180.12 -0.69774 1.76725 0
M  V30 12445 H 1178.27 -3.11669 2.31937 0
M  V30 12446 H 1179.94 -1.49494 4.36405 0
M  V30 12447 H 1178.18 -1.33999 4.12586 0
M  V30 12448 H 1178.85 -2.86181 4.72021 0
M  V30 12449 H 1181.33 -3.07343 2.80499 0
M  V30 12450 H 1180.2 -4.34042 3.36004 0
M  V30 12451 H 1180.46 -4.10601 1.63888 0
M  V30 12452 N 1179.52 -1.32087 -0.859693 0
M  V30 12453 C 1180.45 -1.23204 -1.98351 0
M  V30 12454 C 1181.43 -0.116974 -1.69697 0
M  V30 12455 O 1182.62 -0.303301 -1.91817 0
M  V30 12456 C 1179.75 -0.949171 -3.34078 0
M  V30 12457 C 1178.7 -2.02493 -3.77069 0
M  V30 12458 C 1178.03 -1.59455 -5.1037 0
M  V30 12459 C 1179.33 -3.43934 -3.93074 0
M  V30 12460 H 1181.02 -2.17227 -2.0604 0
M  V30 12461 H 1178.57 -1.04577 -0.989931 0
M  V30 12462 H 1180.52 -0.873594 -4.12245 0
M  V30 12463 H 1179.25 0.0267095 -3.26589 0
M  V30 12464 H 1177.91 -2.09057 -3.01149 0
M  V30 12465 H 1177.55 -0.606256 -4.99333 0
M  V30 12466 H 1177.25 -2.31429 -5.40106 0
M  V30 12467 H 1178.78 -1.53325 -5.91036 0
M  V30 12468 H 1180.19 -3.39986 -4.61608 0
M  V30 12469 H 1178.59 -4.14214 -4.3422 0
M  V30 12470 H 1179.66 -3.83965 -2.9614 0
M  V30 12471 N 1181 1.07532 -1.15215 0
M  V30 12472 C 1182.28 1.76813 -0.83646 0
M  V30 12473 C 1182.66 2.00242 0.6683 0
M  V30 12474 O 1182.01 1.61941 1.61206 0
M  V30 12475 C 1182.22 3.0779 -1.64519 0
M  V30 12476 C 1183.56 3.82168 -1.85022 0
M  V30 12477 O 1184.59 3.17596 -1.61279 0
M  V30 12478 O 1183.45 4.98135 -2.24775 0
M  V30 12479 H 1180.54 0.767736 -0.307426 0
M  V30 12480 H 1183.09 1.13914 -1.25784 0
M  V30 12481 H 1181.86 2.86342 -2.6669 0
M  V30 12482 H 1181.48 3.78419 -1.22002 0
M  V30 12483 N 1182.48 0.948665 1.2585 0
M  V30 12484 C 1183.76 0.517832 1.88621 0
M  V30 12485 C 1184.14 -1.00477 1.85654 0
M  V30 12486 O 1183.49 -1.868 1.31598 0
M  V30 12487 C 1183.7 1.08768 3.31618 0
M  V30 12488 C 1185.04 1.16089 4.08422 0
M  V30 12489 O 1186.07 1.0388 3.40716 0
M  V30 12490 O 1184.93 1.35172 5.29519 0
M  V30 12491 H 1182.02 0.169916 0.809356 0
M  V30 12492 H 1184.57 1.04171 1.33964 0
M  V30 12493 H 1183.34 2.13109 3.28177 0
M  V30 12494 H 1182.96 0.54669 3.93824 0
M  V30 12495 N 1183.96 -1.40369 0.716545 0
M  V30 12496 C 1185.24 -1.94737 0.183576 0
M  V30 12497 C 1185.62 -1.65464 -1.31092 0
M  V30 12498 O 1184.96 -0.972832 -2.06756 0
M  V30 12499 C 1185.17 -3.45438 0.497339 0
M  V30 12500 C 1186.52 -4.2235 0.436526 0
M  V30 12501 O 1187.55 -3.53553 0.433454 0
M  V30 12502 O 1186.4 -5.44923 0.41489 0
M  V30 12503 H 1183.5 -0.82655 0.0272785 0
M  V30 12504 H 1186.04 -1.49972 0.794143 0
M  V30 12505 H 1184.82 -3.60107 1.53097 0
M  V30 12506 H 1184.44 -3.97342 -0.143141 0
M  V30 12507 N 1185.44 -0.462799 -1.50652 0
M  V30 12508 C 1186.67 0.0928413 -2.06391 0
M  V30 12509 C 1187.07 1.34791 -1.3277 0
M  V30 12510 O 1186.42 1.79555 -0.388048 0
M  V30 12511 C 1186.48 0.45517 -3.56607 0
M  V30 12512 C 1186.14 -0.696698 -4.51658 0
M  V30 12513 C 1187.14 -1.57633 -4.95427 0
M  V30 12514 C 1184.83 -0.884669 -4.94448 0
M  V30 12515 C 1186.82 -2.62841 -5.80684 0
M  V30 12516 C 1184.51 -1.93998 -5.79489 0
M  V30 12517 C 1185.5 -2.81022 -6.22508 0
M  V30 12518 O 1185.19 -3.84738 -7.05856 0
M  V30 12519 H 1184.92 -3.18898e-05 -0.676 0
M  V30 12520 H 1187.48 -0.648161 -1.94905 0
M  V30 12521 H 1185.71 1.24924 -3.65966 0
M  V30 12522 H 1187.4 0.944923 -3.94748 0
M  V30 12523 H 1188.16 -1.44276 -4.63044 0
M  V30 12524 H 1184.04 -0.216807 -4.6049 0
M  V30 12525 H 1187.59 -3.30797 -6.14182 0
M  V30 12526 H 1183.48 -2.07366 -6.11285 0
M  V30 12527 H 1184.25 -3.81626 -7.24088 0
M  V30 12528 N 1186.91 1.56388 -0.195085 0
M  V30 12529 C 1188.16 1.96755 0.443901 0
M  V30 12530 C 1188.48 1.08483 1.6276 0
M  V30 12531 O 1189.68 1.38632 2.33438 0
M  V30 12532 C 1188.14 3.49933 0.841139 0
M  V30 12533 C 1187.75 4.46868 -0.318275 0
M  V30 12534 C 1189.49 3.99069 1.44721 0
M  V30 12535 C 1187.4 5.91316 0.0999211 0
M  V30 12536 H 1186.33 0.734674 0.169616 0
M  V30 12537 H 1188.98 1.8124 -0.287101 0
M  V30 12538 H 1187.36 3.60951 1.62881 0
M  V30 12539 H 1188.53 4.47581 -1.0958 0
M  V30 12540 H 1186.85 4.07925 -0.835842 0
M  V30 12541 H 1189.45 5.04465 1.77255 0
M  V30 12542 H 1189.79 3.43376 2.35369 0
M  V30 12543 H 1190.32 3.91165 0.723513 0
M  V30 12544 H 1187.06 6.50934 -0.77237 0
M  V30 12545 H 1186.58 5.93856 0.842304 0
M  V30 12546 H 1188.26 6.44778 0.535726 0
M  V30 12547 N 1188.39 -0.0785156 1.57404 0
M  V30 12548 C 1189.64 -0.777399 1.8655 0
M  V30 12549 C 1189.96 -1.78451 0.786142 0
M  V30 12550 O 1189.23 -1.95016 -0.185911 0
M  V30 12551 H 1187.81 -0.290097 0.688369 0
M  V30 12552 H 1190.47 -0.0562017 1.94819 0
M  V30 12553 H 1189.57 -1.29776 2.83839 0
M  V30 12554 N 1189.87 -1.5367 -0.349747 0
M  V30 12555 C 1191.15 -1.61238 -1.10732 0
M  V30 12556 C 1191.53 -0.429756 -2.06679 0
M  V30 12557 O 1190.88 0.578564 -2.21054 0
M  V30 12558 C 1191.09 -2.97022 -1.83245 0
M  V30 12559 C 1192.43 -3.52158 -2.37212 0
M  V30 12560 O 1193.46 -2.99156 -1.9335 0
M  V30 12561 O 1192.32 -4.44853 -3.1744 0
M  V30 12562 H 1189.41 -0.65191 -0.508864 0
M  V30 12563 H 1191.96 -1.66015 -0.351738 0
M  V30 12564 H 1190.73 -3.74535 -1.13311 0
M  V30 12565 H 1190.35 -2.95808 -2.65675 0
M  V30 12566 N 1191.35 0.610423 -1.45298 0
M  V30 12567 C 1192.26 1.74964 -1.56285 0
M  V30 12568 C 1193.27 1.68149 -0.447436 0
M  V30 12569 O 1194.45 1.88556 -0.707725 0
M  V30 12570 C 1191.52 3.11417 -1.52383 0
M  V30 12571 C 1190.58 3.29707 -2.7494 0
M  V30 12572 C 1189.81 4.5965 -2.71215 0
M  V30 12573 O 1190.03 5.41789 -1.78383 0
M  V30 12574 O 1188.97 4.80591 -3.62375 0
M  V30 12575 H 1192.79 1.68646 -2.52571 0
M  V30 12576 H 1190.38 0.774168 -1.27777 0
M  V30 12577 H 1192.26 3.9272 -1.52805 0
M  V30 12578 H 1190.93 3.18232 -0.592472 0
M  V30 12579 H 1189.84 2.48003 -2.80081 0
M  V30 12580 H 1191.17 3.27766 -3.67192 0
M  V30 12581 N 1192.83 1.32541 0.852676 0
M  V30 12582 C 1194.07 1.23214 1.607 0
M  V30 12583 C 1194.4 -0.205542 1.93411 0
M  V30 12584 O 1193.66 -1.15907 1.57683 0
M  V30 12585 C 1193.96 2.039 2.9353 0
M  V30 12586 C 1193.62 3.53237 2.8024 0
M  V30 12587 C 1192.28 3.93953 2.76323 0
M  V30 12588 C 1194.64 4.48194 2.6603 0
M  V30 12589 C 1191.96 5.27865 2.56077 0
M  V30 12590 C 1194.32 5.82251 2.47319 0
M  V30 12591 C 1192.98 6.22166 2.41796 0
M  V30 12592 H 1192.25 0.450873 0.588043 0
M  V30 12593 H 1194.9 1.63988 0.988954 0
M  V30 12594 H 1193.2 1.55861 3.59464 0
M  V30 12595 H 1194.9 1.94051 3.50921 0
M  V30 12596 H 1191.49 3.209 2.84114 0
M  V30 12597 H 1195.67 4.17656 2.681 0
M  V30 12598 H 1190.93 5.57845 2.50237 0
M  V30 12599 H 1195.1 6.55442 2.35305 0
M  V30 12600 H 1192.73 7.2587 2.25868 0
M  V30 12601 N 1194.3 -1.0692 1.15784 0
M  V30 12602 C 1195.55 -1.78983 0.929944 0
M  V30 12603 C 1195.87 -1.87884 -0.543969 0
M  V30 12604 O 1197.07 -2.56513 -0.889578 0
M  V30 12605 C 1195.53 -3.21657 1.61446 0
M  V30 12606 C 1195.14 -3.20943 3.12569 0
M  V30 12607 C 1196.88 -3.98299 1.46828 0
M  V30 12608 C 1194.79 -4.58298 3.73788 0
M  V30 12609 H 1193.72 -0.670809 0.344284 0
M  V30 12610 H 1196.37 -1.19975 1.38846 0
M  V30 12611 H 1194.75 -3.80885 1.08364 0
M  V30 12612 H 1195.92 -2.71334 3.72444 0
M  V30 12613 H 1194.24 -2.57799 3.26999 0
M  V30 12614 H 1196.84 -4.99822 1.89952 0
M  V30 12615 H 1197.18 -4.14213 0.416358 0
M  V30 12616 H 1197.71 -3.45577 1.97031 0
M  V30 12617 H 1194.45 -4.47588 4.789 0
M  V30 12618 H 1193.97 -5.08126 3.18698 0
M  V30 12619 H 1195.65 -5.27262 3.74972 0
M  V30 12620 N 1195.78 -0.955326 -1.25345 0
M  V30 12621 C 1197.03 -0.609278 -1.92697 0
M  V30 12622 C 1197.35 0.856535 -1.75181 0
M  V30 12623 O 1196.62 1.61013 -1.11587 0
M  V30 12624 H 1195.2 -0.22235 -0.713141 0
M  V30 12625 H 1197.86 -1.21372 -1.52496 0
M  V30 12626 H 1196.96 -0.839198 -3.00606 0
M  V30 12627 N 1197.26 1.39987 -0.723979 0
M  V30 12628 C 1198.19 2.2917 -0.0373445 0
M  V30 12629 C 1199.21 1.46258 0.715015 0
M  V30 12630 O 1200.4 1.69455 0.561003 0
M  V30 12631 C 1197.5 3.2468 0.971384 0
M  V30 12632 C 1196.67 4.36485 0.282826 0
M  V30 12633 C 1195.73 5.12379 1.19811 0
M  V30 12634 O 1194.75 5.65127 0.67974 0
M  V30 12635 N 1195.96 5.22531 2.52866 0
M  V30 12636 H 1198.72 2.88738 -0.803131 0
M  V30 12637 H 1196.28 1.51448 -0.572292 0
M  V30 12638 H 1198.27 3.72326 1.58606 0
M  V30 12639 H 1196.84 2.6622 1.63846 0
M  V30 12640 H 1196.06 3.90859 -0.512167 0
M  V30 12641 H 1197.35 5.08427 -0.194793 0
M  V30 12642 H 1196.75 4.81174 2.97469 0
M  V30 12643 H 1195.31 5.73655 3.09457 0
M  V30 12644 N 1198.74 0.470782 1.50404 0
M  V30 12645 C 1199.97 -0.0818945 2.06438 0
M  V30 12646 C 1200.38 -1.34085 1.33483 0
M  V30 12647 O 1199.72 -1.79346 0.397565 0
M  V30 12648 C 1199.78 -0.436252 3.56843 0
M  V30 12649 C 1199.45 0.720641 4.51282 0
M  V30 12650 C 1200.44 1.60258 4.94584 0
M  V30 12651 C 1198.13 0.910879 4.93972 0
M  V30 12652 C 1200.12 2.65916 5.79282 0
M  V30 12653 C 1197.81 1.97069 5.78452 0
M  V30 12654 C 1198.81 2.84319 6.21008 0
M  V30 12655 O 1198.5 3.88476 7.03805 0
M  V30 12656 H 1198.23 0.00361688 0.67599 0
M  V30 12657 H 1200.78 0.658488 1.94559 0
M  V30 12658 H 1199.01 -1.22982 3.66623 0
M  V30 12659 H 1200.7 -0.923976 3.95244 0
M  V30 12660 H 1201.47 1.46729 4.62272 0
M  V30 12661 H 1197.35 0.241225 4.60368 0
M  V30 12662 H 1200.89 3.3405 6.12419 0
M  V30 12663 H 1196.79 2.10605 6.10177 0
M  V30 12664 H 1197.55 3.8546 7.22054 0
M  V30 12665 N 1200.22 -1.56282 0.203376 0
M  V30 12666 C 1201.45 -2.02198 -0.438572 0
M  V30 12667 C 1201.86 -1.08343 -1.54619 0
M  V30 12668 O 1201.22 -0.0897594 -1.82279 0
M  V30 12669 C 1201.27 -3.4776 -0.987184 0
M  V30 12670 O 1200.99 -4.38034 0.0762552 0
M  V30 12671 C 1202.49 -4.09234 -1.70419 0
M  V30 12672 H 1199.71 -0.662041 -0.109282 0
M  V30 12673 H 1202.25 -2.02067 0.314509 0
M  V30 12674 H 1200.41 -3.48564 -1.69061 0
M  V30 12675 H 1200.82 -5.2344 -0.333322 0
M  V30 12676 H 1202.3 -5.1291 -2.04027 0
M  V30 12677 H 1202.77 -3.53172 -2.61087 0
M  V30 12678 H 1203.38 -4.12226 -1.04641 0
M  V30 12679 N 1201.7 0.070167 -1.57444 0
M  V30 12680 C 1202.94 0.767842 -1.86513 0
M  V30 12681 C 1203.26 1.78659 -0.796257 0
M  V30 12682 O 1204.46 2.53395 -0.974845 0
M  V30 12683 C 1202.92 1.41654 -3.30851 0
M  V30 12684 C 1202.53 0.436273 -4.45871 0
M  V30 12685 C 1204.27 2.09649 -3.69117 0
M  V30 12686 C 1202.18 1.09098 -5.8125 0
M  V30 12687 H 1201.11 0.290519 -0.695784 0
M  V30 12688 H 1203.76 0.0211697 -1.83488 0
M  V30 12689 H 1202.14 2.21153 -3.28493 0
M  V30 12690 H 1203.32 -0.329022 -4.59624 0
M  V30 12691 H 1201.63 -0.139314 -4.16167 0
M  V30 12692 H 1204.23 2.59411 -4.67558 0
M  V30 12693 H 1204.57 2.89663 -2.99 0
M  V30 12694 H 1205.1 1.36979 -3.73472 0
M  V30 12695 H 1201.84 0.331128 -6.54663 0
M  V30 12696 H 1201.36 1.8271 -5.71294 0
M  V30 12697 H 1203.04 1.61034 -6.2664 0
M  V30 12698 N 1203.17 1.53854 0.341593 0
M  V30 12699 C 1204.58 1.62623 0.917093 0
M  V30 12700 C 1204.94 0.508781 1.89488 0
M  V30 12701 O 1204.06 -0.361171 2.13365 0
M  V30 12702 C 1204.66 2.94775 1.67012 0
M  V30 12703 C 1203.21 3.058 2.19461 0
M  V30 12704 C 1202.36 2.58082 1.01433 0
M  V30 12705 H 1205.31 1.58248 0.119674 0
M  V30 12706 H 1205.33 2.83924 2.53313 0
M  V30 12707 H 1204.85 3.76085 0.958221 0
M  V30 12708 H 1202.95 2.29128 2.93821 0
M  V30 12709 H 1203.06 4.11302 2.45698 0
M  V30 12710 H 1201.42 2.13537 1.38831 0
M  V30 12711 H 1202.21 3.41833 0.317033 0
M  V30 12712 N 1204.65 -0.602709 1.4562 0
M  V30 12713 C 1205.9 -1.36158 1.49891 0
M  V30 12714 C 1206.23 -1.93977 0.142581 0
M  V30 12715 O 1205.48 -1.75822 -0.859374 0
M  V30 12716 C 1205.78 -2.52474 2.52966 0
M  V30 12717 C 1205.45 -2.12772 3.97541 0
M  V30 12718 C 1204.11 -2.01658 4.36907 0
M  V30 12719 C 1206.46 -1.8186 4.88443 0
M  V30 12720 C 1203.79 -1.57862 5.65063 0
M  V30 12721 C 1206.14 -1.39548 6.17016 0
M  V30 12722 C 1204.8 -1.26997 6.55308 0
M  V30 12723 H 1204.07 -0.498236 0.54849 0
M  V30 12724 H 1206.72 -0.680738 1.78992 0
M  V30 12725 H 1205.03 -3.25917 2.17452 0
M  V30 12726 H 1206.72 -3.10701 2.53507 0
M  V30 12727 H 1203.31 -2.22349 3.66413 0
M  V30 12728 H 1207.5 -1.89341 4.58763 0
M  V30 12729 H 1202.75 -1.46771 5.93522 0
M  V30 12730 H 1206.93 -1.14677 6.86893 0
M  V30 12731 H 1204.55 -0.928346 7.5451 0
M  V30 12732 N 1206.13 -1.32992 -0.845635 0
M  V30 12733 C 1207.04 -1.24701 -1.98713 0
M  V30 12734 C 1208.06 -0.158864 -1.73273 0
M  V30 12735 O 1209.23 -0.381209 -1.97759 0
M  V30 12736 C 1206.3 -0.979524 -3.32575 0
M  V30 12737 C 1205.36 -2.15701 -3.71176 0
M  V30 12738 C 1204.59 -1.90219 -4.98651 0
M  V30 12739 O 1204.81 -0.849171 -5.64044 0
M  V30 12740 O 1203.75 -2.76571 -5.34595 0
M  V30 12741 H 1207.57 -2.20683 -2.08645 0
M  V30 12742 H 1205.16 -1.12971 -0.97765 0
M  V30 12743 H 1207.04 -0.847219 -4.12796 0
M  V30 12744 H 1205.72 -0.0499398 -3.23661 0
M  V30 12745 H 1204.62 -2.34483 -2.91494 0
M  V30 12746 H 1205.96 -3.0697 -3.84747 0
M  V30 12747 N 1207.61 1.06304 -1.1635 0
M  V30 12748 C 1208.85 1.80686 -0.955614 0
M  V30 12749 C 1209.21 1.85171 0.507525 0
M  V30 12750 O 1210.41 2.55531 0.834103 0
M  V30 12751 C 1208.68 3.21276 -1.56577 0
M  V30 12752 S 1210.24 4.12274 -1.50251 0
M  V30 12753 H 1207.06 0.622426 -0.343666 0
M  V30 12754 H 1209.66 1.27628 -1.48092 0
M  V30 12755 H 1208.37 3.15607 -2.62336 0
M  V30 12756 H 1207.9 3.7941 -1.03978 0
M  V30 12757 H 1209.91 4.93647 -0.502703 0
M  V30 12758 N 1209.09 0.96196 1.24836 0
M  V30 12759 C 1210.02 0.506241 2.27946 0
M  V30 12760 C 1211 -0.451183 1.64007 0
M  V30 12761 O 1212.18 -0.348552 1.91046 0
M  V30 12762 C 1209.31 -0.209846 3.46665 0
M  V30 12763 C 1208.27 0.663035 4.22833 0
M  V30 12764 C 1207.59 -0.184216 5.34383 0
M  V30 12765 C 1208.89 1.94479 4.84742 0
M  V30 12766 H 1210.59 1.36805 2.66317 0
M  V30 12767 H 1208.13 0.65926 1.28023 0
M  V30 12768 H 1210.08 -0.539838 4.17928 0
M  V30 12769 H 1208.81 -1.10596 3.07305 0
M  V30 12770 H 1207.47 0.976216 3.53363 0
M  V30 12771 H 1207.12 -1.08031 4.91262 0
M  V30 12772 H 1206.82 0.39657 5.8626 0
M  V30 12773 H 1208.34 -0.509009 6.08475 0
M  V30 12774 H 1209.75 1.68074 5.48109 0
M  V30 12775 H 1208.15 2.47183 5.46828 0
M  V30 12776 H 1209.22 2.64332 4.06517 0
M  V30 12777 N 1210.56 -1.39601 0.731392 0
M  V30 12778 C 1211.5 -2.29147 0.0494974 0
M  V30 12779 C 1212.51 -1.46635 -0.707248 0
M  V30 12780 O 1213.7 -1.6975 -0.552008 0
M  V30 12781 C 1210.8 -3.25191 -0.954152 0
M  V30 12782 C 1209.97 -4.36629 -0.259674 0
M  V30 12783 C 1209.03 -5.13007 -1.17092 0
M  V30 12784 O 1208.06 -5.65479 -0.64976 0
M  V30 12785 N 1209.26 -5.23865 -2.50092 0
M  V30 12786 H 1212.02 -2.88308 0.818433 0
M  V30 12787 H 1209.58 -1.51142 0.580316 0
M  V30 12788 H 1211.58 -3.73161 -1.56629 0
M  V30 12789 H 1210.15 -2.67085 -1.62432 0
M  V30 12790 H 1209.37 -3.90582 0.532888 0
M  V30 12791 H 1210.65 -5.08317 0.221753 0
M  V30 12792 H 1210.05 -4.82745 -2.94913 0
M  V30 12793 H 1208.61 -5.75288 -3.0641 0
M  V30 12794 N 1212.04 -0.478751 -1.50152 0
M  V30 12795 C 1213.45 -0.0254907 -1.86683 0
M  V30 12796 C 1213.8 1.38171 -1.39295 0
M  V30 12797 O 1212.93 2.0257 -0.761207 0
M  V30 12798 C 1213.52 -0.0394819 -3.38777 0
M  V30 12799 C 1212.08 0.35834 -3.7469 0
M  V30 12800 C 1211.23 -0.421667 -2.74075 0
M  V30 12801 H 1214.18 -0.692653 -1.42787 0
M  V30 12802 H 1214.2 0.760957 -3.72813 0
M  V30 12803 H 1213.71 -1.06378 -3.73236 0
M  V30 12804 H 1211.82 1.38671 -3.45834 0
M  V30 12805 H 1211.93 0.0543589 -4.79069 0
M  V30 12806 H 1210.29 0.125634 -2.5439 0
M  V30 12807 H 1211.08 -1.44562 -3.11379 0
M  V30 12808 N 1213.52 1.56172 -0.211661 0
M  V30 12809 C 1214.77 1.97648 0.421871 0
M  V30 12810 C 1215.09 1.10026 1.60995 0
M  V30 12811 O 1214.36 0.175109 1.95116 0
M  V30 12812 H 1212.94 0.729914 0.158852 0
M  V30 12813 H 1215.6 1.92542 -0.302254 0
M  V30 12814 H 1214.7 3.02834 0.754868 0
M  V30 12815 N 1215 -0.0618163 1.57479 0
M  V30 12816 C 1216.23 -0.770605 1.9169 0
M  V30 12817 C 1216.64 -1.71134 0.806841 0
M  V30 12818 O 1215.98 -1.8228 -0.228002 0
M  V30 12819 C 1216.04 -1.60962 3.21452 0
M  V30 12820 C 1215.71 -0.837193 4.49266 0
M  V30 12821 C 1216.7 -0.151964 5.19678 0
M  V30 12822 C 1214.39 -0.801414 4.95866 0
M  V30 12823 C 1216.38 0.558705 6.34947 0
M  V30 12824 C 1214.07 -0.0869788 6.11038 0
M  V30 12825 C 1215.07 0.591871 6.80431 0
M  V30 12826 O 1214.75 1.29478 7.93405 0
M  V30 12827 H 1214.49 -0.223673 0.637923 0
M  V30 12828 H 1217.04 -0.0333424 2.05373 0
M  V30 12829 H 1215.27 -2.38992 3.04006 0
M  V30 12830 H 1216.96 -2.19799 3.41238 0
M  V30 12831 H 1217.73 -0.170848 4.84699 0
M  V30 12832 H 1213.6 -1.31927 4.4172 0
M  V30 12833 H 1217.15 1.08913 6.89046 0
M  V30 12834 H 1213.05 -0.066057 6.45466 0
M  V30 12835 H 1213.81 1.20507 8.0958 0
M  V30 12836 N 1216.48 -1.54033 -0.333429 0
M  V30 12837 C 1217.89 -1.44522 -0.677166 0
M  V30 12838 C 1218.09 -0.610122 -1.92041 0
M  V30 12839 O 1217.15 -0.105058 -2.52281 0
M  V30 12840 C 1218.46 -2.88129 -0.860369 0
M  V30 12841 C 1220.01 -2.97968 -0.958342 0
M  V30 12842 C 1220.48 -4.42703 -1.17379 0
M  V30 12843 N 1221.98 -4.46273 -1.24075 0
M  V30 12844 C 1222.71 -5.55407 -1.42515 0
M  V30 12845 N 1222.21 -6.74528 -1.58062 0
M  V30 12846 N 1224 -5.43037 -1.45144 0
M  V30 12847 H 1216.15 -2.06815 0.483858 0
M  V30 12848 H 1218.41 -0.935307 0.15461 0
M  V30 12849 H 1218.12 -3.51695 -0.0182085 0
M  V30 12850 H 1217.99 -3.33668 -1.75913 0
M  V30 12851 H 1220.38 -2.34535 -1.79102 0
M  V30 12852 H 1220.46 -2.55774 -0.0362643 0
M  V30 12853 H 1220.11 -5.0672 -0.346004 0
M  V30 12854 H 1220.04 -4.82498 -2.10959 0
M  V30 12855 H 1222.53 -3.60439 -1.13545 0
M  V30 12856 H 1222.84 -7.53462 -1.71797 0
M  V30 12857 H 1221.18 -6.77454 -1.55179 0
M  V30 12858 H 1224.38 -4.4893 -1.32588 0
M  V30 12859 H 1224.55 -6.28146 -1.59173 0
M  V30 12860 N 1217.95 0.594978 -1.45938 0
M  V30 12861 C 1218.9 1.69949 -1.51991 0
M  V30 12862 C 1219.89 1.56301 -0.381956 0
M  V30 12863 O 1221.08 1.65423 -0.62961 0
M  V30 12864 C 1218.21 3.08723 -1.5015 0
M  V30 12865 C 1217.3 3.27712 -2.69194 0
M  V30 12866 N 1217.69 3.1691 -3.9421 0
M  V30 12867 C 1215.98 3.58618 -2.65158 0
M  V30 12868 C 1216.69 3.37572 -4.7373 0
M  V30 12869 N 1215.66 3.62154 -4.05395 0
M  V30 12870 H 1219.46 1.60109 -2.46459 0
M  V30 12871 H 1216.98 0.798634 -1.41406 0
M  V30 12872 H 1218.97 3.87978 -1.52573 0
M  V30 12873 H 1217.63 3.19702 -0.567488 0
M  V30 12874 H 1218.65 2.95039 -4.25643 0
M  V30 12875 H 1215.32 3.76358 -1.80724 0
M  V30 12876 H 1216.71 3.34507 -5.82713 0
M  V30 12877 N 1219.43 1.33438 0.838571 0
M  V30 12878 C 1220.68 1.25097 1.5962 0
M  V30 12879 C 1221.01 -0.182798 1.93338 0
M  V30 12880 O 1220.29 -1.1242 1.5872 0
M  V30 12881 C 1220.57 2.12655 2.90603 0
M  V30 12882 C 1220.42 3.64491 2.63565 0
M  V30 12883 C 1221.74 1.99994 3.92033 0
M  V30 12884 H 1218.86 0.455776 0.579169 0
M  V30 12885 H 1221.5 1.63542 0.967169 0
M  V30 12886 H 1219.65 1.79998 3.44286 0
M  V30 12887 H 1221.32 4.0744 2.16312 0
M  V30 12888 H 1219.57 3.86356 1.9726 0
M  V30 12889 H 1220.24 4.21101 3.569 0
M  V30 12890 H 1222.71 2.28635 3.47657 0
M  V30 12891 H 1221.59 2.63509 4.81512 0
M  V30 12892 H 1221.85 0.972263 4.31277 0
M  V30 12893 N 1220.91 -1.05686 1.16912 0
M  V30 12894 C 1222.32 -1.60059 0.961153 0
M  V30 12895 C 1222.67 -1.89894 -0.493409 0
M  V30 12896 O 1221.8 -1.67692 -1.36778 0
M  V30 12897 C 1222.39 -2.90803 1.73837 0
M  V30 12898 C 1220.95 -3.41854 1.57522 0
M  V30 12899 C 1220.1 -2.15658 1.74319 0
M  V30 12900 H 1223.05 -0.885592 1.31693 0
M  V30 12901 H 1223.07 -3.60485 1.21781 0
M  V30 12902 H 1222.58 -2.69056 2.79697 0
M  V30 12903 H 1220.68 -3.68647 0.541284 0
M  V30 12904 H 1220.8 -4.16771 2.36302 0
M  V30 12905 H 1219.16 -2.26177 1.17115 0
M  V30 12906 H 1219.94 -1.96386 2.8158 0
M  V30 12907 N 1222.39 -0.968567 -1.24324 0
M  V30 12908 C 1223.32 -0.518323 -2.27674 0
M  V30 12909 C 1224.3 0.442479 -1.64244 0
M  V30 12910 O 1225.48 0.338416 -1.91229 0
M  V30 12911 C 1222.61 0.191459 -3.46772 0
M  V30 12912 C 1221.57 -0.685449 -4.22476 0
M  V30 12913 C 1220.89 0.155873 -5.34473 0
M  V30 12914 C 1222.19 -1.97047 -4.83704 0
M  V30 12915 H 1223.89 -1.38215 -2.65588 0
M  V30 12916 H 1221.43 -0.66604 -1.27671 0
M  V30 12917 H 1223.39 0.517667 -4.18208 0
M  V30 12918 H 1222.11 1.08965 -3.07887 0
M  V30 12919 H 1220.77 -0.994942 -3.52841 0
M  V30 12920 H 1220.42 1.05424 -4.91828 0
M  V30 12921 H 1220.12 -0.427655 -5.86042 0
M  V30 12922 H 1221.64 0.476733 -6.08736 0
M  V30 12923 H 1223.06 -1.70979 -5.4721 0
M  V30 12924 H 1221.45 -2.50079 -5.45509 0
M  V30 12925 H 1222.52 -2.66484 -4.0511 0
M  V30 12926 N 1223.87 1.39211 -0.738786 0
M  V30 12927 C 1225.28 1.54116 -0.414773 0
M  V30 12928 C 1225.48 1.70497 1.07392 0
M  V30 12929 O 1224.54 1.7076 1.86003 0
M  V30 12930 C 1225.85 2.7567 -1.2011 0
M  V30 12931 C 1227.4 2.89508 -1.1897 0
M  V30 12932 C 1227.87 4.14005 -1.95868 0
M  V30 12933 N 1229.37 4.21052 -1.93053 0
M  V30 12934 C 1230.1 5.16341 -2.49358 0
M  V30 12935 N 1229.6 6.17396 -3.14316 0
M  V30 12936 N 1231.39 5.08585 -2.3937 0
M  V30 12937 H 1223.54 1.26827 -1.70378 0
M  V30 12938 H 1225.8 0.614983 -0.721457 0
M  V30 12939 H 1225.51 2.69922 -2.25467 0
M  V30 12940 H 1225.38 3.68443 -0.808065 0
M  V30 12941 H 1227.77 2.94747 -0.144248 0
M  V30 12942 H 1227.85 1.97788 -1.62214 0
M  V30 12943 H 1227.5 4.09527 -3.00416 0
M  V30 12944 H 1227.43 5.04776 -1.50028 0
M  V30 12945 H 1229.92 3.48669 -1.45733 0
M  V30 12946 H 1230.23 6.86572 -3.54737 0
M  V30 12947 H 1228.57 6.17772 -3.18407 0
M  V30 12948 H 1231.77 4.28573 -1.88262 0
M  V30 12949 H 1231.94 5.8267 -2.83549 0
M  V30 12950 N 1225.34 0.486708 1.49896 0
M  V30 12951 C 1226.57 -0.0622999 2.07306 0
M  V30 12952 C 1226.99 -1.31353 1.3464 0
M  V30 12953 O 1226.35 -1.76861 0.398752 0
M  V30 12954 C 1226.4 -0.313481 3.59235 0
M  V30 12955 O 1225.5 -1.39101 3.88233 0
M  V30 12956 H 1224.85 0.0198885 0.663702 0
M  V30 12957 H 1227.38 0.682232 1.92891 0
M  V30 12958 H 1227.39 -0.549302 4.04285 0
M  V30 12959 H 1226.06 0.600767 4.11538 0
M  V30 12960 H 1224.64 -1.14127 3.55006 0
M  V30 12961 N 1226.82 -1.56058 0.219941 0
M  V30 12962 C 1228.07 -1.9826 -0.412197 0
M  V30 12963 C 1228.4 -1.10754 -1.59887 0
M  V30 12964 O 1227.65 -0.15212 -1.95108 0
M  V30 12965 C 1227.95 -3.46113 -0.8911 0
M  V30 12966 C 1227.62 -4.50521 0.184877 0
M  V30 12967 C 1226.28 -4.78795 0.480462 0
M  V30 12968 C 1228.63 -5.13147 0.912652 0
M  V30 12969 C 1225.96 -5.66979 1.50837 0
M  V30 12970 C 1228.31 -6.02444 1.92988 0
M  V30 12971 C 1226.98 -6.29063 2.2324 0
M  V30 12972 H 1226.25 -0.725486 -0.150834 0
M  V30 12973 H 1228.89 -1.88771 0.322122 0
M  V30 12974 H 1227.2 -3.52797 -1.70415 0
M  V30 12975 H 1228.9 -3.76137 -1.39003 0
M  V30 12976 H 1225.49 -4.28564 -0.0556594 0
M  V30 12977 H 1229.67 -4.91374 0.697532 0
M  V30 12978 H 1224.93 -5.85868 1.74839 0
M  V30 12979 H 1229.1 -6.50022 2.49889 0
M  V30 12980 H 1226.73 -6.97191 3.03032 0
M  V30 12981 N 1228.3 0.053464 -1.57509 0
M  V30 12982 C 1229.55 0.750212 -1.88414 0
M  V30 12983 C 1229.88 1.76288 -0.814619 0
M  V30 12984 O 1229.16 1.93728 0.173136 0
M  V30 12985 C 1229.44 1.44176 -3.29978 0
M  V30 12986 C 1229.29 0.444263 -4.47601 0
M  V30 12987 C 1230.61 2.38207 -3.70061 0
M  V30 12988 H 1227.73 0.271266 -0.685262 0
M  V30 12989 H 1230.37 0.0131676 -1.89995 0
M  V30 12990 H 1228.52 2.07001 -3.2876 0
M  V30 12991 H 1230.19 -0.180182 -4.60948 0
M  V30 12992 H 1228.44 -0.238771 -4.33142 0
M  V30 12993 H 1229.11 0.966134 -5.43479 0
M  V30 12994 H 1231.58 1.85446 -3.7249 0
M  V30 12995 H 1230.46 2.83588 -4.69967 0
M  V30 12996 H 1230.72 3.23821 -3.00985 0
M  V30 12997 N 1229.78 1.54207 0.325255 0
M  V30 12998 C 1231.03 1.71991 1.0613 0
M  V30 12999 C 1231.35 0.495505 1.88599 0
M  V30 13000 O 1230.62 -0.490504 1.8966 0
M  V30 13001 H 1229.2 0.634137 0.394816 0
M  V30 13002 H 1231.86 1.91507 0.362101 0
M  V30 13003 H 1230.96 2.59878 1.72829 0
M  V30 13004 N 1231.26 -0.58723 1.46251 0
M  V30 13005 C 1232.53 -1.34727 1.41802 0
M  V30 13006 C 1232.91 -2.10867 0.0991354 0
M  V30 13007 O 1232.26 -2.09194 -0.919242 0
M  V30 13008 C 1232.47 -2.27706 2.64482 0
M  V30 13009 C 1233.82 -2.89678 3.10438 0
M  V30 13010 O 1234.84 -2.38021 2.64999 0
M  V30 13011 O 1233.7 -3.83493 3.89352 0
M  V30 13012 H 1230.8 -0.605119 0.563702 0
M  V30 13013 H 1233.34 -0.608623 1.5841 0
M  V30 13014 H 1232.12 -1.70842 3.52035 0
M  V30 13015 H 1231.74 -3.08918 2.50311 0
M  V30 13016 N 1232.74 -1.33881 -0.831482 0
M  V30 13017 C 1233.98 -1.251 -1.58218 0
M  V30 13018 C 1234.3 0.17963 -1.94773 0
M  V30 13019 O 1235.5 0.389516 -2.68691 0
M  V30 13020 C 1233.96 -2.19246 -2.8541 0
M  V30 13021 C 1233.57 -3.6752 -2.5619 0
M  V30 13022 C 1235.31 -2.19355 -3.63433 0
M  V30 13023 C 1233.22 -4.53559 -3.79523 0
M  V30 13024 H 1232.15 -0.46469 -0.593784 0
M  V30 13025 H 1234.8 -1.58992 -0.916169 0
M  V30 13026 H 1233.18 -1.78295 -3.53591 0
M  V30 13027 H 1234.36 -4.16956 -1.96173 0
M  V30 13028 H 1232.67 -3.69774 -1.91458 0
M  V30 13029 H 1235.27 -2.80863 -4.54995 0
M  V30 13030 H 1235.61 -1.19056 -3.98913 0
M  V30 13031 H 1236.14 -2.58706 -3.02185 0
M  V30 13032 H 1232.88 -5.54762 -3.4917 0
M  V30 13033 H 1232.4 -4.08862 -4.38853 0
M  V30 13034 H 1234.08 -4.67736 -4.47025 0
M  V30 13035 N 1234.21 1.05064 -1.1747 0
M  V30 13036 C 1235.15 2.12334 -0.836028 0
M  V30 13037 C 1236.12 1.61393 0.197733 0
M  V30 13038 O 1237.31 1.88334 0.0789748 0
M  V30 13039 C 1234.44 3.37796 -0.24734 0
M  V30 13040 C 1233.48 4.07565 -1.25669 0
M  V30 13041 S 1234.31 4.55941 -2.80853 0
M  V30 13042 C 1235.47 5.84648 -2.23468 0
M  V30 13043 H 1235.7 2.40735 -1.74453 0
M  V30 13044 H 1233.24 1.17684 -0.999495 0
M  V30 13045 H 1235.19 4.1041 0.0858241 0
M  V30 13046 H 1233.86 3.07529 0.639124 0
M  V30 13047 H 1233.05 4.97715 -0.793465 0
M  V30 13048 H 1232.65 3.41022 -1.53557 0
M  V30 13049 H 1234.94 6.58067 -1.61104 0
M  V30 13050 H 1235.89 6.35719 -3.11877 0
M  V30 13051 H 1236.29 5.39272 -1.6687 0
M  V30 13052 N 1235.69 0.975146 1.23809 0
M  V30 13053 C 1236.6 0.51917 2.28783 0
M  V30 13054 C 1237.62 -0.423487 1.68768 0
M  V30 13055 O 1238.79 -0.294699 1.99232 0
M  V30 13056 C 1235.86 -0.176229 3.46252 0
M  V30 13057 C 1234.92 0.807177 4.21643 0
M  V30 13058 C 1234.15 0.144869 5.33503 0
M  V30 13059 O 1234.38 -1.06522 5.60365 0
M  V30 13060 O 1233.31 0.84079 5.95999 0
M  V30 13061 H 1237.14 1.39204 2.69919 0
M  V30 13062 H 1234.72 0.74253 1.29641 0
M  V30 13063 H 1236.6 -0.566547 4.17574 0
M  V30 13064 H 1235.28 -1.02394 3.07078 0
M  V30 13065 H 1234.18 1.2481 3.52666 0
M  V30 13066 H 1235.52 1.62354 4.64653 0
M  V30 13067 N 1237.17 -1.38817 0.746158 0
M  V30 13068 C 1238.12 -2.27825 0.089362 0
M  V30 13069 C 1239.1 -1.44826 -0.701013 0
M  V30 13070 O 1240.3 -1.67632 -0.568188 0
M  V30 13071 C 1237.42 -3.33639 -0.808682 0
M  V30 13072 C 1236.51 -4.24098 -0.0118582 0
M  V30 13073 N 1236.9 -4.95393 1.02075 0
M  V30 13074 C 1235.2 -4.45355 -0.239815 0
M  V30 13075 C 1235.9 -5.61969 1.5022 0
M  V30 13076 N 1234.88 -5.37398 0.818816 0
M  V30 13077 H 1238.68 -2.80406 0.88033 0
M  V30 13078 H 1236.19 -1.51632 0.581512 0
M  V30 13079 H 1238.19 -3.96284 -1.29478 0
M  V30 13080 H 1236.85 -2.82617 -1.59868 0
M  V30 13081 H 1237.86 -4.98552 1.40237 0
M  V30 13082 H 1234.54 -4.05255 -1.00374 0
M  V30 13083 H 1235.93 -6.29017 2.36192 0
M  V30 13084 N 1238.65 -0.49465 -1.49636 0
M  V30 13085 C 1239.89 0.0521945 -2.02733 0
M  V30 13086 C 1240.23 1.3723 -1.37411 0
M  V30 13087 O 1239.5 1.87758 -0.507642 0
M  V30 13088 C 1239.78 0.2114 -3.59479 0
M  V30 13089 C 1239.64 -1.13138 -4.35339 0
M  V30 13090 C 1240.96 0.955015 -4.29613 0
M  V30 13091 H 1238.08 0.0174946 -0.736792 0
M  V30 13092 H 1240.72 -0.644827 -1.78723 0
M  V30 13093 H 1238.87 0.805078 -3.80067 0
M  V30 13094 H 1240.54 -1.76345 -4.26263 0
M  V30 13095 H 1238.78 -1.72224 -3.98147 0
M  V30 13096 H 1239.45 -0.97336 -5.4335 0
M  V30 13097 H 1241.93 0.451575 -4.13642 0
M  V30 13098 H 1240.81 1.03524 -5.39049 0
M  V30 13099 H 1241.07 1.99724 -3.94414 0
M  V30 13100 N 1240.13 1.55939 -0.228214 0
M  V30 13101 C 1241.35 2.0287 0.406348 0
M  V30 13102 C 1241.77 1.1079 1.52876 0
M  V30 13103 O 1241.13 0.118747 1.82113 0
M  V30 13104 C 1241.18 3.49286 0.931734 0
M  V30 13105 O 1240.9 4.37857 -0.145933 0
M  V30 13106 C 1242.4 4.11893 1.63887 0
M  V30 13107 H 1239.62 0.663696 0.0987358 0
M  V30 13108 H 1242.16 2.01541 -0.346616 0
M  V30 13109 H 1240.32 3.5121 1.63494 0
M  V30 13110 H 1240.73 5.23904 0.250005 0
M  V30 13111 H 1242.21 5.16091 1.95841 0
M  V30 13112 H 1242.68 3.57281 2.55435 0
M  V30 13113 H 1243.29 4.13839 0.980697 0
M  V30 13114 N 1241.6 -0.0451101 1.57535 0
M  V30 13115 C 1242.53 -1.05046 2.08537 0
M  V30 13116 C 1243.52 -1.3872 0.984418 0
M  V30 13117 O 1244.7 -1.47884 1.25873 0
M  V30 13118 C 1241.83 -2.3562 2.55148 0
M  V30 13119 C 1240.78 -2.16231 3.69362 0
M  V30 13120 C 1240.11 -3.52423 4.02122 0
M  V30 13121 C 1241.41 -1.56159 4.98409 0
M  V30 13122 H 1243.1 -0.625965 2.92783 0
M  V30 13123 H 1240.65 -0.299657 1.40848 0
M  V30 13124 H 1242.6 -3.06266 2.89446 0
M  V30 13125 H 1241.33 -2.80099 1.67964 0
M  V30 13126 H 1239.99 -1.4802 3.35389 0
M  V30 13127 H 1239.63 -3.94522 3.12028 0
M  V30 13128 H 1239.33 -3.4028 4.79044 0
M  V30 13129 H 1240.86 -4.24458 4.38939 0
M  V30 13130 H 1242.27 -2.16703 5.30766 0
M  V30 13131 H 1240.67 -1.54638 5.79834 0
M  V30 13132 H 1241.74 -0.525698 4.82042 0
M  V30 13133 N 1243.08 -1.54377 -0.317073 0
M  V30 13134 C 1244.33 -1.72893 -1.05424 0
M  V30 13135 C 1244.66 -0.506082 -1.87801 0
M  V30 13136 O 1243.91 0.51213 -1.8888 0
M  V30 13137 C 1244.21 -2.96066 -2.00199 0
M  V30 13138 C 1243.88 -4.30551 -1.33927 0
M  V30 13139 C 1242.54 -4.67112 -1.15584 0
M  V30 13140 C 1244.89 -5.13986 -0.864158 0
M  V30 13141 C 1242.22 -5.84701 -0.483892 0
M  V30 13142 C 1244.57 -6.32264 -0.206006 0
M  V30 13143 C 1243.24 -6.67499 -0.0104849 0
M  V30 13144 H 1242.51 -0.63266 -0.385776 0
M  V30 13145 H 1245.15 -1.88623 -0.330722 0
M  V30 13146 H 1243.46 -2.7505 -2.79024 0
M  V30 13147 H 1245.15 -3.07586 -2.57278 0
M  V30 13148 H 1241.74 -4.0179 -1.49207 0
M  V30 13149 H 1245.93 -4.86252 -0.993635 0
M  V30 13150 H 1241.18 -6.10555 -0.32127 0
M  V30 13151 H 1245.36 -6.96192 0.170108 0
M  V30 13152 H 1242.99 -7.58472 0.512209 0
M  V30 13153 N 1244.56 0.579466 -1.4656 0
M  V30 13154 C 1245.81 1.33954 -1.52264 0
M  V30 13155 C 1246.14 1.93409 -0.175089 0
M  V30 13156 O 1245.41 1.76654 0.81385 0
M  V30 13157 C 1245.7 2.46645 -2.6237 0
M  V30 13158 C 1245.55 1.92204 -4.06667 0
M  V30 13159 C 1246.87 3.48676 -2.68538 0
M  V30 13160 H 1243.99 0.485697 -0.554317 0
M  V30 13161 H 1246.63 0.650639 -1.78512 0
M  V30 13162 H 1244.78 3.0541 -2.40119 0
M  V30 13163 H 1246.45 1.37871 -4.40215 0
M  V30 13164 H 1244.7 1.23012 -4.15993 0
M  V30 13165 H 1245.37 2.73566 -4.79443 0
M  V30 13166 H 1247.84 2.99798 -2.88549 0
M  V30 13167 H 1246.72 4.24981 -3.47394 0
M  V30 13168 H 1246.98 4.06112 -1.74716 0
M  V30 13169 N 1246.04 1.3432 0.824371 0
M  V30 13170 C 1246.99 1.22332 1.92403 0
M  V30 13171 C 1247.97 0.122709 1.60431 0
M  V30 13172 O 1249.16 0.352231 1.7346 0
M  V30 13173 C 1246.29 0.979497 3.2903 0
M  V30 13174 C 1245.38 2.12322 3.67124 0
M  V30 13175 N 1245.77 3.3743 3.76795 0
M  V30 13176 C 1244.07 2.03314 3.96963 0
M  V30 13177 C 1244.77 4.12532 4.10113 0
M  V30 13178 N 1243.75 3.41109 4.23256 0
M  V30 13179 H 1247.55 2.17143 1.98056 0
M  V30 13180 H 1245.06 1.26537 1.01795 0
M  V30 13181 H 1247.06 0.874525 4.07624 0
M  V30 13182 H 1245.72 0.0400611 3.24675 0
M  V30 13183 H 1246.73 3.72001 3.60327 0
M  V30 13184 H 1243.41 1.17118 4.00736 0
M  V30 13185 H 1244.8 5.20562 4.24811 0
M  V30 13186 N 1247.52 -1.0444 1.18026 0
M  V30 13187 C 1248.77 -1.7697 0.9677 0
M  V30 13188 C 1249.08 -1.88995 -0.503994 0
M  V30 13189 O 1250.28 -2.58342 -0.834968 0
M  V30 13190 C 1248.74 -3.1816 1.68232 0
M  V30 13191 C 1248.35 -3.14241 3.19307 0
M  V30 13192 C 1250.09 -3.95095 1.55244 0
M  V30 13193 C 1248 -4.50266 3.83425 0
M  V30 13194 H 1246.93 -0.663355 0.358436 0
M  V30 13195 H 1249.58 -1.17003 1.4136 0
M  V30 13196 H 1247.96 -3.78501 1.16418 0
M  V30 13197 H 1249.14 -2.63373 3.78115 0
M  V30 13198 H 1247.45 -2.50805 3.32394 0
M  V30 13199 H 1250.05 -4.95681 2.00511 0
M  V30 13200 H 1250.39 -4.13236 0.504125 0
M  V30 13201 H 1250.92 -3.4132 2.04317 0
M  V30 13202 H 1247.66 -4.37329 4.88286 0
M  V30 13203 H 1247.18 -5.01251 3.29404 0
M  V30 13204 H 1248.86 -5.1919 3.86071 0
M  V30 13205 N 1248.99 -0.981699 -1.2329 0
M  V30 13206 C 1249.96 -0.527992 -2.23036 0
M  V30 13207 C 1250.96 0.383083 -1.5617 0
M  V30 13208 O 1252.15 0.176595 -1.73303 0
M  V30 13209 C 1249.28 0.233501 -3.40099 0
M  V30 13210 H 1250.47 -1.40995 -2.64689 0
M  V30 13211 H 1248.03 -0.767724 -1.36146 0
M  V30 13212 H 1248.76 1.13194 -3.03904 0
M  V30 13213 H 1248.55 -0.420505 -3.89839 0
M  V30 13214 H 1250.04 0.539485 -4.14101 0
M  V30 13215 N 1250.47 1.3842 -0.753509 0
M  V30 13216 C 1251.72 1.99359 -0.306416 0
M  V30 13217 C 1252.03 1.60492 1.11811 0
M  V30 13218 O 1253.24 2.14401 1.66567 0
M  V30 13219 C 1251.7 3.56453 -0.496895 0
M  V30 13220 C 1251.3 4.04272 -1.9305 0
M  V30 13221 C 1253.05 4.24351 -0.11251 0
M  V30 13222 C 1250.96 5.54007 -2.06955 0
M  V30 13223 H 1249.89 0.745812 -0.110818 0
M  V30 13224 H 1252.54 1.58185 -0.930039 0
M  V30 13225 H 1250.92 3.95515 0.195912 0
M  V30 13226 H 1252.09 3.765 -2.65677 0
M  V30 13227 H 1250.41 3.49098 -2.26979 0
M  V30 13228 H 1253 5.34344 -0.195161 0
M  V30 13229 H 1253.35 4.05668 0.934849 0
M  V30 13230 H 1253.88 3.90528 -0.757168 0
M  V30 13231 H 1250.62 5.77594 -3.09944 0
M  V30 13232 H 1250.14 5.83522 -1.38788 0
M  V30 13233 H 1251.82 6.19704 -1.85945 0
M  V30 13234 N 1251.95 0.502579 1.49372 0
M  V30 13235 C 1253.18 -0.0381429 2.06865 0
M  V30 13236 C 1253.59 -1.30674 1.36271 0
M  V30 13237 O 1252.95 -1.77078 0.441532 0
M  V30 13238 C 1253 -0.294068 3.60302 0
M  V30 13239 O 1252.72 0.924244 4.2824 0
M  V30 13240 C 1254.22 -0.878253 4.34513 0
M  V30 13241 H 1251.44 0.0211756 0.670666 0
M  V30 13242 H 1253.99 0.700387 1.92132 0
M  V30 13243 H 1252.14 -0.982583 3.74732 0
M  V30 13244 H 1252.56 0.688062 5.19967 0
M  V30 13245 H 1254.03 -1.0069 5.42739 0
M  V30 13246 H 1254.51 -1.87643 3.97098 0
M  V30 13247 H 1255.11 -0.227157 4.24693 0
M  V30 13248 N 1253.43 -1.55816 0.23648 0
M  V30 13249 C 1254.38 -2.22322 -0.68378 0
M  V30 13250 C 1255.37 -1.2074 -1.1882 0
M  V30 13251 O 1256.58 -1.38781 -1.14629 0
M  V30 13252 H 1252.95 -0.713021 -0.238966 0
M  V30 13253 H 1254.92 -2.98234 -0.0995879 0
M  V30 13254 C 1253.67 -2.92845 -1.87449 0
M  V30 13255 H 1252.99 -3.70777 -1.49548 0
M  V30 13256 H 1254.43 -3.42758 -2.49585 0
M  V30 13257 C 1252.89 -1.96139 -2.73918 0
M  V30 13258 O 1253.42 -1.48781 -3.73132 0
M  V30 13259 N 1251.63 -1.63465 -2.40266 0
M  V30 13260 H 1251.18 -2.02171 -1.59639 0
M  V30 13261 H 1251.13 -0.990239 -2.98398 0
M  V30 13262 N 1254.91 0.036755 -1.57557 0
M  V30 13263 C 1256.32 0.392264 -1.54704 0
M  V30 13264 C 1256.52 1.77076 -0.96157 0
M  V30 13265 O 1255.58 2.45766 -0.579263 0
M  V30 13266 C 1256.89 0.301168 -2.99188 0
M  V30 13267 C 1258.44 0.378813 -3.10699 0
M  V30 13268 C 1258.91 0.317249 -4.569 0
M  V30 13269 N 1260.41 0.376277 -4.61669 0
M  V30 13270 C 1261.14 0.351411 -5.72322 0
M  V30 13271 N 1260.64 0.279288 -6.92237 0
M  V30 13272 N 1262.43 0.400571 -5.60671 0
M  V30 13273 H 1254.58 -0.865455 -1.93968 0
M  V30 13274 H 1256.84 -0.328339 -0.889324 0
M  V30 13275 H 1256.55 -0.64582 -3.4572 0
M  V30 13276 H 1256.42 1.09784 -3.6087 0
M  V30 13277 H 1258.81 1.31623 -2.6412 0
M  V30 13278 H 1258.89 -0.447072 -2.51863 0
M  V30 13279 H 1258.54 -0.616469 -5.04145 0
M  V30 13280 H 1258.47 1.16114 -5.13639 0
M  V30 13281 H 1260.96 0.434843 -3.7539 0
M  V30 13282 H 1261.27 0.265202 -7.72345 0
M  V30 13283 H 1259.61 0.24545 -6.94566 0
M  V30 13284 H 1262.81 0.454854 -4.65885 0
M  V30 13285 H 1262.98 0.377724 -6.46898 0
M  V30 13286 N 1256.39 1.54543 0.308881 0
M  V30 13287 C 1257.61 1.77753 1.06857 0
M  V30 13288 C 1258.04 0.531616 1.80431 0
M  V30 13289 O 1257.39 -0.517513 1.73757 0
M  V30 13290 C 1257.44 2.97968 2.03094 0
M  V30 13291 O 1256.55 2.70541 3.11257 0
M  V30 13292 H 1255.89 0.588576 0.307368 0
M  V30 13293 H 1258.42 2.01607 0.348703 0
M  V30 13294 H 1258.43 3.25722 2.45702 0
M  V30 13295 H 1257.1 3.88314 1.48948 0
M  V30 13296 H 1255.68 2.53781 2.7322 0
M  V30 13297 N 1257.86 -0.571685 1.46866 0
M  V30 13298 C 1259.11 -1.32685 1.52444 0
M  V30 13299 C 1259.43 -1.94147 0.182225 0
M  V30 13300 O 1258.7 -1.79159 -0.792385 0
M  V30 13301 H 1257.28 -0.492679 0.561495 0
M  V30 13302 H 1259.94 -0.668694 1.8307 0
M  V30 13303 H 1259.04 -2.12788 2.28315 0
M  V30 13304 N 1259.34 -1.34755 -0.817236 0
M  V30 13305 C 1260.59 -1.2718 -1.57066 0
M  V30 13306 C 1260.91 0.156531 -1.94371 0
M  V30 13307 O 1260.18 1.09049 -1.62742 0
M  V30 13308 H 1258.76 -0.467755 -0.582421 0
M  V30 13309 H 1261.42 -1.68734 -0.975438 0
M  V30 13310 H 1260.52 -1.88043 -2.49091 0
M  V30 13311 N 1260.82 1.03812 -1.18578 0
M  V30 13312 C 1262.07 1.76706 -0.980776 0
M  V30 13313 C 1262.39 1.88729 0.490562 0
M  V30 13314 O 1261.66 1.41413 1.35569 0
M  V30 13315 H 1260.24 0.654586 -0.359898 0
M  V30 13316 H 1262.9 1.25274 -1.49306 0
M  V30 13317 H 1262 2.77876 -1.42096 0
M  V30 13318 N 1262.3 0.988223 1.22768 0
M  V30 13319 C 1263.24 0.534605 2.24523 0
M  V30 13320 C 1264.21 -0.430615 1.60421 0
M  V30 13321 O 1265.4 -0.336417 1.87811 0
M  V30 13322 C 1262.54 -0.149195 3.44777 0
M  V30 13323 C 1261.65 0.85721 4.2341 0
M  V30 13324 C 1260.79 0.147411 5.30995 0
M  V30 13325 C 1259.83 1.1425 6.01343 0
M  V30 13326 N 1258.96 0.461327 7.00583 0
M  V30 13327 H 1263.8 1.40708 2.62689 0
M  V30 13328 H 1261.34 0.704918 1.2911 0
M  V30 13329 H 1263.3 -0.562527 4.1339 0
M  V30 13330 H 1261.93 -0.985485 3.07389 0
M  V30 13331 H 1260.98 1.38889 3.54138 0
M  V30 13332 H 1262.29 1.61517 4.71926 0
M  V30 13333 H 1261.45 -0.32289 6.0584 0
M  V30 13334 H 1260.19 -0.643085 4.83442 0
M  V30 13335 H 1259.19 1.62348 5.25284 0
M  V30 13336 H 1260.42 1.93379 6.50985 0
M  V30 13337 H 1258.36 -0.309818 6.55268 0
M  V30 13338 H 1258.28 1.15781 7.47082 0
M  V30 13339 H 1259.55 0.0136734 7.79499 0
M  V30 13340 N 1263.78 -1.38018 0.760839 0
M  V30 13341 C 1264.74 -2.28734 0.146154 0
M  V30 13342 C 1265.74 -1.47525 -0.639768 0
M  V30 13343 O 1266.93 -1.6788 -0.464964 0
M  V30 13344 C 1264.06 -3.31356 -0.801019 0
M  V30 13345 H 1265.25 -2.84599 0.945692 0
M  V30 13346 H 1262.81 -1.471 0.528323 0
M  V30 13347 H 1263.54 -2.80594 -1.62597 0
M  V30 13348 H 1263.33 -3.91366 -0.239775 0
M  V30 13349 H 1264.82 -3.99171 -1.22687 0
M  V30 13350 N 1265.25 -0.510493 -1.49103 0
M  V30 13351 C 1266.19 0.299697 -2.27232 0
M  V30 13352 C 1267.2 0.922102 -1.34168 0
M  V30 13353 O 1268.39 0.803836 -1.59376 0
M  V30 13354 C 1265.49 1.43778 -3.06889 0
M  V30 13355 C 1264.66 0.920927 -4.27595 0
M  V30 13356 C 1263.72 1.93777 -4.89221 0
M  V30 13357 O 1262.75 1.5025 -5.49011 0
M  V30 13358 N 1263.95 3.2688 -4.79718 0
M  V30 13359 H 1266.71 -0.37028 -2.97404 0
M  V30 13360 H 1264.27 -0.343617 -1.58212 0
M  V30 13361 H 1266.27 2.11577 -3.44988 0
M  V30 13362 H 1264.84 2.01175 -2.39264 0
M  V30 13363 H 1264.06 0.0675358 -3.94142 0
M  V30 13364 H 1265.34 0.554168 -5.05773 0
M  V30 13365 H 1264.74 3.64924 -4.32258 0
M  V30 13366 H 1263.3 3.90366 -5.21974 0
M  V30 13367 N 1266.73 1.55688 -0.24474 0
M  V30 13368 C 1267.68 2.21289 0.655723 0
M  V30 13369 C 1268.65 1.17606 1.17295 0
M  V30 13370 O 1269.83 1.46045 1.22782 0
M  V30 13371 C 1266.97 2.91453 1.84794 0
M  V30 13372 C 1266.09 4.09787 1.36744 0
M  V30 13373 C 1265.22 4.67672 2.51905 0
M  V30 13374 C 1264.26 5.78259 2.00706 0
M  V30 13375 N 1263.4 6.30336 3.09225 0
M  V30 13376 H 1268.24 2.97865 0.0896156 0
M  V30 13377 H 1265.77 1.47064 0.0324725 0
M  V30 13378 H 1267.73 3.30331 2.54828 0
M  V30 13379 H 1266.36 2.17355 2.38656 0
M  V30 13380 H 1265.41 3.76237 0.561228 0
M  V30 13381 H 1266.73 4.89627 0.952199 0
M  V30 13382 H 1265.88 5.09113 3.29984 0
M  V30 13383 H 1264.62 3.87044 2.9673 0
M  V30 13384 H 1263.62 5.36298 1.21097 0
M  V30 13385 H 1264.85 6.60737 1.56853 0
M  V30 13386 H 1262.8 5.52614 3.53489 0
M  V30 13387 H 1262.71 7.05364 2.72025 0
M  V30 13388 H 1263.98 6.76435 3.8737 0
M  V30 13389 N 1268.21 -0.0283989 1.57574 0
M  V30 13390 C 1269.63 -0.384054 1.5491 0
M  V30 13391 C 1269.83 -1.76564 0.970947 0
M  V30 13392 O 1268.88 -2.45455 0.592288 0
M  V30 13393 C 1270.19 -0.285297 2.99344 0
M  V30 13394 C 1271.74 -0.36233 3.10896 0
M  V30 13395 C 1272.22 -0.293014 4.57062 0
M  V30 13396 N 1273.71 -0.351788 4.61862 0
M  V30 13397 C 1274.44 -0.321054 5.725 0
M  V30 13398 N 1273.94 -0.242573 6.92375 0
M  V30 13399 N 1275.73 -0.370832 5.60875 0
M  V30 13400 H 1267.88 0.87573 1.93506 0
M  V30 13401 H 1270.15 0.33305 0.887571 0
M  V30 13402 H 1269.85 0.664146 3.45372 0
M  V30 13403 H 1269.73 -1.07869 3.61447 0
M  V30 13404 H 1272.11 -1.30221 2.64814 0
M  V30 13405 H 1272.19 0.460422 2.51622 0
M  V30 13406 H 1271.84 0.643197 5.03811 0
M  V30 13407 H 1271.77 -1.13388 5.14248 0
M  V30 13408 H 1274.26 -0.414929 3.75615 0
M  V30 13409 H 1274.57 -0.224239 7.72475 0
M  V30 13410 H 1272.92 -0.208612 6.94687 0
M  V30 13411 H 1276.11 -0.430141 4.6612 0
M  V30 13412 H 1276.28 -0.343412 6.47089 0
M  V30 13413 N 1269.69 -1.54705 -0.300681 0
M  V30 13414 C 1270.91 -1.78318 -1.05913 0
M  V30 13415 C 1271.34 -0.541177 -1.80147 0
M  V30 13416 O 1270.7 0.508291 -1.74029 0
M  V30 13417 C 1270.74 -2.99041 -2.01511 0
M  V30 13418 O 1269.85 -2.72188 -3.09818 0
M  V30 13419 H 1269.19 -0.590197 -0.304242 0
M  V30 13420 H 1271.72 -2.01789 -0.338006 0
M  V30 13421 H 1271.73 -3.2702 -2.43971 0
M  V30 13422 H 1270.4 -3.89098 -1.46886 0
M  V30 13423 H 1268.98 -2.55227 -2.71871 0
M  V30 13424 N 1271.17 0.563888 -1.47167 0
M  V30 13425 C 1272.1 1.68137 -1.62025 0
M  V30 13426 C 1273.08 1.63481 -0.469899 0
M  V30 13427 O 1274.26 1.81206 -0.698432 0
M  V30 13428 C 1271.39 3.06779 -1.62801 0
M  V30 13429 C 1270.35 3.26278 -2.76996 0
M  V30 13430 C 1269.67 4.65638 -2.62841 0
M  V30 13431 C 1270.97 3.12295 -4.18651 0
M  V30 13432 H 1272.67 1.55958 -2.55573 0
M  V30 13433 H 1270.21 0.74887 -1.22996 0
M  V30 13434 H 1272.17 3.84795 -1.71787 0
M  V30 13435 H 1270.89 3.19901 -0.658097 0
M  V30 13436 H 1269.55 2.50668 -2.67509 0
M  V30 13437 H 1269.2 4.75551 -1.63892 0
M  V30 13438 H 1268.9 4.79635 -3.39447 0
M  V30 13439 H 1270.42 5.45798 -2.73746 0
M  V30 13440 H 1271.83 3.80136 -4.2915 0
M  V30 13441 H 1270.23 3.37805 -4.95992 0
M  V30 13442 H 1271.3 2.09126 -4.37486 0
M  V30 13443 N 1272.64 1.35187 0.810078 0
M  V30 13444 C 1273.87 1.31528 1.60359 0
M  V30 13445 C 1274.29 -0.105385 1.87805 0
M  V30 13446 O 1273.65 -1.07113 1.46276 0
M  V30 13447 C 1273.7 2.12429 2.91386 0
M  V30 13448 O 1272.8 1.50262 3.84051 0
M  V30 13449 H 1272.15 0.451122 0.487222 0
M  V30 13450 H 1274.68 1.78178 1.00568 0
M  V30 13451 H 1274.69 2.24257 3.40841 0
M  V30 13452 H 1273.36 3.15714 2.70735 0
M  V30 13453 H 1271.94 1.47253 3.42594 0
M  V30 13454 N 1274.12 -1.03182 1.19127 0
M  V30 13455 C 1275.37 -1.76794 0.993563 0
M  V30 13456 C 1275.7 -1.88306 -0.474809 0
M  V30 13457 O 1274.98 -1.39769 -1.35258 0
M  V30 13458 C 1275.26 -3.19573 1.65968 0
M  V30 13459 C 1275.11 -3.1595 3.2015 0
M  V30 13460 C 1276.43 -4.17897 1.38023 0
M  V30 13461 H 1273.55 -0.641768 0.362357 0
M  V30 13462 H 1276.19 -1.20472 1.46924 0
M  V30 13463 H 1274.34 -3.67663 1.25524 0
M  V30 13464 H 1276.01 -2.7578 3.69788 0
M  V30 13465 H 1274.26 -2.53743 3.51848 0
M  V30 13466 H 1274.93 -4.16811 3.61901 0
M  V30 13467 H 1277.4 -3.78394 1.73082 0
M  V30 13468 H 1276.28 -5.15997 1.87186 0
M  V30 13469 H 1276.54 -4.41048 0.304812 0
M  V30 13470 N 1275.6 -0.99472 -1.22242 0
M  V30 13471 C 1277.02 -0.705762 -1.43147 0
M  V30 13472 C 1277.22 0.722908 -1.88086 0
M  V30 13473 O 1276.27 1.49359 -2.03588 0
M  V30 13474 C 1277.59 -1.71288 -2.47145 0
M  V30 13475 C 1279.13 -1.72853 -2.60942 0
M  V30 13476 C 1279.61 -2.72433 -3.68163 0
M  V30 13477 N 1281.1 -2.71039 -3.75623 0
M  V30 13478 C 1281.83 -3.44753 -4.58184 0
M  V30 13479 N 1281.33 -4.28075 -5.44724 0
M  V30 13480 N 1283.12 -3.33451 -4.52512 0
M  V30 13481 H 1275.27 -1.91738 -0.913792 0
M  V30 13482 H 1277.54 -0.82702 -0.463403 0
M  V30 13483 H 1277.24 -2.7353 -2.21075 0
M  V30 13484 H 1277.12 -1.50721 -3.45779 0
M  V30 13485 H 1279.5 -0.713085 -2.86355 0
M  V30 13486 H 1279.59 -1.9749 -1.62577 0
M  V30 13487 H 1279.23 -3.74129 -3.43497 0
M  V30 13488 H 1279.16 -2.45066 -4.66101 0
M  V30 13489 H 1281.65 -2.10581 -3.1379 0
M  V30 13490 H 1281.96 -4.81143 -6.04749 0
M  V30 13491 H 1280.31 -4.32161 -5.44299 0
M  V30 13492 H 1283.5 -2.67797 -3.8393 0
M  V30 13493 H 1283.67 -3.91158 -5.16623 0
M  V30 13494 N 1277.08 1.37613 -0.768148 0
M  V30 13495 C 1278.01 2.27988 -0.098355 0
M  V30 13496 C 1278.99 1.46137 0.712939 0
M  V30 13497 O 1280.17 1.75477 0.68847 0
M  V30 13498 C 1277.3 3.27413 0.867086 0
M  V30 13499 C 1276.35 4.26269 0.140235 0
M  V30 13500 S 1277.18 5.2258 -1.16921 0
M  V30 13501 C 1278.34 6.25557 -0.207221 0
M  V30 13502 H 1278.57 2.84447 -0.864693 0
M  V30 13503 H 1276.1 1.43833 -0.561376 0
M  V30 13504 H 1278.06 3.85205 1.41872 0
M  V30 13505 H 1276.72 2.69908 1.6065 0
M  V30 13506 H 1275.91 4.964 0.871977 0
M  V30 13507 H 1275.52 3.72449 -0.340294 0
M  V30 13508 H 1277.81 6.74642 0.621654 0
M  V30 13509 H 1278.75 7.02653 -0.876595 0
M  V30 13510 H 1279.16 5.64213 0.179968 0
M  V30 13511 N 1278.56 0.518393 1.4883 0
M  V30 13512 C 1279.8 -0.019866 2.0209 0
M  V30 13513 C 1280.13 -1.35863 1.3988 0
M  V30 13514 O 1279.4 -1.87722 0.560117 0
M  V30 13515 H 1277.98 -0.0103306 0.746929 0
M  V30 13516 H 1280.64 0.679591 1.82668 0
M  V30 13517 H 1279.73 -0.136749 3.118 0
M  V30 13518 N 1280.03 -1.55556 0.252993 0
M  V30 13519 C 1280.98 -2.21634 -0.643979 0
M  V30 13520 C 1281.95 -1.18226 -1.1667 0
M  V30 13521 O 1283.14 -1.46694 -1.22006 0
M  V30 13522 C 1280.28 -2.92429 -1.83246 0
M  V30 13523 C 1279.39 -4.10506 -1.34569 0
M  V30 13524 C 1278.52 -4.69001 -2.49421 0
M  V30 13525 C 1277.56 -5.79315 -1.97636 0
M  V30 13526 N 1276.7 -6.31967 -3.05878 0
M  V30 13527 H 1281.54 -2.97909 -0.0738178 0
M  V30 13528 H 1279.08 -1.47079 -0.0246728 0
M  V30 13529 H 1281.04 -3.31678 -2.53072 0
M  V30 13530 H 1279.67 -2.18617 -2.375 0
M  V30 13531 H 1278.72 -3.76529 -0.541268 0
M  V30 13532 H 1280.03 -4.90125 -0.92622 0
M  V30 13533 H 1279.18 -5.10855 -3.27279 0
M  V30 13534 H 1277.92 -3.88612 -2.94673 0
M  V30 13535 H 1276.93 -5.36933 -1.18251 0
M  V30 13536 H 1278.15 -6.6156 -1.53347 0
M  V30 13537 H 1276.1 -5.5448 -3.50553 0
M  V30 13538 H 1276.02 -7.06797 -2.68281 0
M  V30 13539 H 1277.28 -6.7848 -3.83777 0
M  V30 13540 N 1281.51 0.0200419 -1.57587 0
M  V30 13541 C 1282.46 1.01784 -2.07144 0
M  V30 13542 C 1283.43 1.3537 -0.962501 0
M  V30 13543 O 1284.61 1.45553 -1.23365 0
M  V30 13544 C 1281.75 2.31091 -2.56302 0
M  V30 13545 C 1280.87 2.03584 -3.81022 0
M  V30 13546 C 1280 3.26827 -4.18757 0
M  V30 13547 C 1279.04 2.94915 -5.36369 0
M  V30 13548 N 1278.18 4.10636 -5.69493 0
M  V30 13549 H 1283.02 0.588288 -2.92136 0
M  V30 13550 H 1280.56 0.278848 -1.44433 0
M  V30 13551 H 1282.51 3.06656 -2.82874 0
M  V30 13552 H 1281.14 2.71752 -1.74215 0
M  V30 13553 H 1280.2 1.18475 -3.6148 0
M  V30 13554 H 1281.51 1.76049 -4.66699 0
M  V30 13555 H 1280.66 4.10753 -4.46505 0
M  V30 13556 H 1279.4 3.57483 -3.31749 0
M  V30 13557 H 1278.41 2.09392 -5.08365 0
M  V30 13558 H 1279.63 2.65528 -6.25037 0
M  V30 13559 H 1277.58 4.41226 -4.85444 0
M  V30 13560 H 1277.49 3.86556 -6.497 0
M  V30 13561 H 1278.76 4.95409 -6.01822 0
M  V30 13562 N 1282.99 1.54862 0.292472 0
M  V30 13563 C 1284.24 1.74807 1.02813 0
M  V30 13564 C 1284.57 0.536935 1.8663 0
M  V30 13565 O 1283.84 -0.465854 1.88839 0
M  V30 13566 C 1284.13 3.04202 1.927 0
M  V30 13567 C 1283.98 4.35631 1.12006 0
M  V30 13568 C 1285.3 3.29514 2.91734 0
M  V30 13569 H 1282.42 0.636015 0.372362 0
M  V30 13570 H 1285.06 1.87583 0.302069 0
M  V30 13571 H 1283.21 2.9344 2.54608 0
M  V30 13572 H 1284.88 4.58323 0.52319 0
M  V30 13573 H 1283.13 4.31733 0.42298 0
M  V30 13574 H 1283.8 5.22454 1.78172 0
M  V30 13575 H 1286.27 3.39941 2.39957 0
M  V30 13576 H 1285.15 4.21352 3.51786 0
M  V30 13577 H 1285.41 2.48216 3.65843 0
M  V30 13578 N 1284.47 -0.556076 1.47464 0
M  V30 13579 C 1285.88 -0.882115 1.33007 0
M  V30 13580 C 1286.08 -1.9892 0.321407 0
M  V30 13581 O 1285.14 -2.51088 -0.266668 0
M  V30 13582 C 1286.45 -1.27428 2.72365 0
M  V30 13583 C 1288 -1.38564 2.80658 0
M  V30 13584 C 1288.48 -1.81136 4.20659 0
M  V30 13585 N 1289.97 -1.88284 4.23206 0
M  V30 13586 C 1290.7 -2.22555 5.28447 0
M  V30 13587 N 1290.2 -2.55432 6.43993 0
M  V30 13588 N 1291.99 -2.23339 5.15826 0
M  V30 13589 H 1284.14 0.17481 2.11679 0
M  V30 13590 H 1286.41 0.0155421 0.947873 0
M  V30 13591 H 1286.11 -0.53463 3.47613 0
M  V30 13592 H 1285.99 -2.23019 3.04208 0
M  V30 13593 H 1288.37 -2.1161 2.05682 0
M  V30 13594 H 1288.45 -0.411588 2.52467 0
M  V30 13595 H 1288.1 -1.08659 4.96141 0
M  V30 13596 H 1288.03 -2.79546 4.46275 0
M  V30 13597 H 1290.52 -1.65259 3.3985 0
M  V30 13598 H 1290.83 -2.80612 7.20053 0
M  V30 13599 H 1289.18 -2.5301 6.47311 0
M  V30 13600 H 1292.37 -1.97094 4.24584 0
M  V30 13601 H 1292.54 -2.49717 5.97951 0
M  V30 13602 N 1285.95 -1.35615 -0.802897 0
M  V30 13603 C 1286.86 -1.3096 -1.94645 0
M  V30 13604 C 1287.87 -0.213909 -1.7268 0
M  V30 13605 O 1289.05 -0.443932 -1.96446 0
M  V30 13606 C 1286.11 -1.08483 -3.2929 0
M  V30 13607 C 1285.18 -2.27401 -3.64126 0
M  V30 13608 C 1284.41 -2.05987 -4.92347 0
M  V30 13609 O 1284.63 -1.02819 -5.61057 0
M  V30 13610 O 1283.57 -2.93439 -5.25526 0
M  V30 13611 H 1287.39 -2.27209 -2.01519 0
M  V30 13612 H 1284.98 -1.16024 -0.941214 0
M  V30 13613 H 1286.86 -0.978118 -4.09891 0
M  V30 13614 H 1285.53 -0.152885 -3.23339 0
M  V30 13615 H 1284.44 -2.43638 -2.83886 0
M  V30 13616 H 1285.77 -3.19055 -3.74786 0
M  V30 13617 N 1287.43 1.02549 -1.19673 0
M  V30 13618 C 1288.66 1.79363 -1.02531 0
M  V30 13619 C 1289.06 1.84274 0.42893 0
M  V30 13620 O 1288.41 1.28813 1.30969 0
M  V30 13621 C 1288.47 3.2567 -1.52248 0
M  V30 13622 C 1288.13 3.44386 -3.00412 0
M  V30 13623 C 1289.13 3.34329 -3.98146 0
M  V30 13624 C 1286.81 3.70491 -3.39178 0
M  V30 13625 C 1288.81 3.50106 -5.3264 0
M  V30 13626 C 1286.5 3.85912 -4.7383 0
M  V30 13627 C 1287.49 3.75723 -5.70369 0
M  V30 13628 O 1287.18 3.90685 -7.02581 0
M  V30 13629 H 1286.91 0.571194 -0.361544 0
M  V30 13630 H 1289.47 1.30029 -1.59002 0
M  V30 13631 H 1287.7 3.76044 -0.901548 0
M  V30 13632 H 1289.39 3.8409 -1.31262 0
M  V30 13633 H 1290.15 3.14109 -3.69541 0
M  V30 13634 H 1286.03 3.77513 -2.64585 0
M  V30 13635 H 1289.58 3.42069 -6.07976 0
M  V30 13636 H 1285.47 4.05631 -5.02129 0
M  V30 13637 H 1286.24 4.07756 -7.09702 0
M  V30 13638 N 1288.9 1.00119 1.21713 0
M  V30 13639 C 1290.13 0.700431 1.94683 0
M  V30 13640 C 1290.55 -0.736333 1.73849 0
M  V30 13641 O 1289.9 -1.49778 1.04272 0
M  V30 13642 C 1289.95 1.00722 3.47185 0
M  V30 13643 O 1289.68 2.38754 3.67326 0
M  V30 13644 C 1291.18 0.725335 4.37326 0
M  V30 13645 H 1288.4 0.25843 0.619238 0
M  V30 13646 H 1290.94 1.3382 1.54636 0
M  V30 13647 H 1289.1 0.415117 3.85169 0
M  V30 13648 H 1289.51 2.49321 4.61454 0
M  V30 13649 H 1290.98 0.990202 5.43046 0
M  V30 13650 H 1291.46 -0.340649 4.37877 0
M  V30 13651 H 1292.07 1.29888 4.04981 0
M  V30 13652 N 1290.38 -1.37203 0.775435 0
M  V30 13653 C 1291.31 -2.27933 0.110444 0
M  V30 13654 C 1292.29 -1.46513 -0.705179 0
M  V30 13655 O 1293.48 -1.7584 -0.679154 0
M  V30 13656 C 1290.6 -3.27868 -0.84971 0
M  V30 13657 C 1289.65 -4.26338 -0.117627 0
M  V30 13658 S 1290.48 -5.21952 1.19691 0
M  V30 13659 C 1291.64 -6.25438 0.240393 0
M  V30 13660 H 1291.87 -2.83985 0.879766 0
M  V30 13661 H 1289.4 -1.43533 0.568996 0
M  V30 13662 H 1291.36 -3.85952 -1.39827 0
M  V30 13663 H 1290.02 -2.70756 -1.59217 0
M  V30 13664 H 1289.22 -4.96855 -0.845639 0
M  V30 13665 H 1288.82 -3.72263 0.360041 0
M  V30 13666 H 1291.11 -6.74962 -0.585867 0
M  V30 13667 H 1292.05 -7.02178 0.913846 0
M  V30 13668 H 1292.46 -5.64301 -0.150043 0
M  V30 13669 N 1291.86 -0.526279 -1.48553 0
M  V30 13670 C 1292.79 0.227364 -2.3239 0
M  V30 13671 C 1293.77 0.93862 -1.41859 0
M  V30 13672 O 1294.96 0.925119 -1.70749 0
M  V30 13673 C 1292.09 1.277 -3.22971 0
M  V30 13674 C 1291.04 0.684107 -4.22497 0
M  V30 13675 C 1290.37 1.83612 -5.02186 0
M  V30 13676 C 1291.67 -0.341723 -5.21181 0
M  V30 13677 H 1293.36 -0.472486 -2.95648 0
M  V30 13678 H 1290.91 -0.228669 -1.42173 0
M  V30 13679 H 1292.86 1.81215 -3.80446 0
M  V30 13680 H 1291.58 2.00638 -2.57705 0
M  V30 13681 H 1290.24 0.170505 -3.66203 0
M  V30 13682 H 1289.89 2.55379 -4.33348 0
M  V30 13683 H 1289.59 1.44536 -5.69547 0
M  V30 13684 H 1291.11 2.37513 -5.62512 0
M  V30 13685 H 1292.53 0.106207 -5.73202 0
M  V30 13686 H 1290.92 -0.649673 -5.96573 0
M  V30 13687 H 1291.99 -1.2488 -4.68543 0
M  V30 13688 N 1293.34 1.5542 -0.261239 0
M  V30 13689 C 1294.75 1.59327 0.0932655 0
M  V30 13690 C 1294.95 1.27846 1.55748 0
M  V30 13691 O 1294.01 1.03265 2.30418 0
M  V30 13692 C 1295.32 2.99496 -0.268856 0
M  V30 13693 C 1296.87 3.12265 -0.21433 0
M  V30 13694 C 1297.35 4.54677 -0.55069 0
M  V30 13695 N 1298.84 4.60475 -0.501723 0
M  V30 13696 C 1299.57 5.6867 -0.734961 0
M  V30 13697 N 1299.07 6.85069 -1.03209 0
M  V30 13698 N 1300.86 5.58156 -0.664696 0
M  V30 13699 H 1293.01 1.7415 -1.21595 0
M  V30 13700 H 1295.27 0.811382 -0.490268 0
M  V30 13701 H 1294.98 3.2732 -1.28664 0
M  V30 13702 H 1294.85 3.75104 0.397097 0
M  V30 13703 H 1297.24 2.84213 0.794148 0
M  V30 13704 H 1297.32 2.389 -0.914342 0
M  V30 13705 H 1296.97 4.83453 -1.55679 0
M  V30 13706 H 1296.9 5.26322 0.170959 0
M  V30 13707 H 1299.39 3.76851 -0.281387 0
M  V30 13708 H 1299.7 7.63472 -1.19709 0
M  V30 13709 H 1298.05 6.86718 -1.06971 0
M  V30 13710 H 1301.24 4.66098 -0.432513 0
M  V30 13711 H 1301.41 6.42403 -0.849857 0
M  V30 13712 N 1294.82 -0.0116844 1.57596 0
M  V30 13713 C 1295.76 -1.02514 2.08791 0
M  V30 13714 C 1296.76 -1.36341 1.00536 0
M  V30 13715 O 1297.96 -1.35042 1.19011 0
M  V30 13716 H 1294.34 -0.348201 0.666528 0
M  V30 13717 H 1296.31 -0.567698 2.9295 0
M  V30 13718 C 1295.06 -2.312 2.59696 0
M  V30 13719 H 1294.38 -2.06036 3.42621 0
M  V30 13720 H 1295.82 -3.00417 2.99208 0
M  V30 13721 C 1294.28 -3.01372 1.50586 0
M  V30 13722 O 1294.81 -3.91896 0.882046 0
M  V30 13723 N 1293.02 -2.62997 1.23616 0
M  V30 13724 H 1292.56 -1.89466 1.74529 0
M  V30 13725 H 1292.52 -3.10264 0.508289 0
M  V30 13726 N 1296.29 -1.55015 -0.284256 0
M  V30 13727 C 1297.54 -1.74297 -1.01506 0
M  V30 13728 C 1297.86 -0.545134 -1.8785 0
M  V30 13729 O 1299.06 -0.620118 -2.64323 0
M  V30 13730 C 1297.52 -3.08438 -1.85456 0
M  V30 13731 C 1297.13 -4.35753 -1.04034 0
M  V30 13732 C 1298.87 -3.37073 -2.58035 0
M  V30 13733 C 1296.78 -5.60938 -1.87358 0
M  V30 13734 H 1295.71 -0.649656 -0.382705 0
M  V30 13735 H 1298.36 -1.81484 -0.271239 0
M  V30 13736 H 1296.74 -2.95259 -2.63891 0
M  V30 13737 H 1297.91 -4.59816 -0.300954 0
M  V30 13738 H 1296.23 -4.14178 -0.429616 0
M  V30 13739 H 1298.83 -4.27806 -3.20759 0
M  V30 13740 H 1299.17 -2.56698 -3.27738 0
M  V30 13741 H 1299.7 -3.51299 -1.86638 0
M  V30 13742 H 1296.44 -6.44029 -1.22096 0
M  V30 13743 H 1295.96 -5.41035 -2.58923 0
M  V30 13744 H 1297.64 -5.98819 -2.44999 0
M  V30 13745 N 1297.77 0.548248 -1.47757 0
M  V30 13746 C 1299.02 1.30243 -1.54535 0
M  V30 13747 C 1299.34 1.93832 -0.213089 0
M  V30 13748 O 1298.61 1.80397 0.763782 0
M  V30 13749 H 1297.19 0.483684 -0.569262 0
M  V30 13750 H 1299.85 0.639485 -1.8411 0
M  V30 13751 H 1298.95 2.09128 -2.31672 0
M  V30 13752 N 1299.25 1.36039 0.795694 0
M  V30 13753 C 1300.18 1.32528 1.92246 0
M  V30 13754 C 1301.16 0.197805 1.68946 0
M  V30 13755 O 1302.35 0.394474 1.90151 0
M  V30 13756 C 1299.48 1.10748 3.29169 0
M  V30 13757 C 1298.43 2.20253 3.66978 0
M  V30 13758 C 1297.76 1.83624 5.02181 0
M  V30 13759 C 1299.06 3.62296 3.76216 0
M  V30 13760 H 1300.75 2.2681 1.95442 0
M  V30 13761 H 1298.3 1.09181 0.938908 0
M  V30 13762 H 1300.25 1.06929 4.07608 0
M  V30 13763 H 1298.97 0.129141 3.26345 0
M  V30 13764 H 1297.63 2.23187 2.90832 0
M  V30 13765 H 1297.28 0.843804 4.95872 0
M  V30 13766 H 1296.98 2.56935 5.28449 0
M  V30 13767 H 1298.5 1.81349 5.83048 0
M  V30 13768 H 1299.92 3.61623 4.44861 0
M  V30 13769 H 1298.31 4.34459 4.13963 0
M  V30 13770 H 1299.38 3.97657 2.77483 0
M  V30 13771 N 1300.73 -1.01913 1.20215 0
M  V30 13772 C 1301.68 -2.104 0.948708 0
M  V30 13773 C 1302.65 -1.65665 -0.120139 0
M  V30 13774 O 1303.83 -1.90785 0.0240547 0
M  V30 13775 C 1300.97 -3.41398 0.504132 0
M  V30 13776 C 1300.08 -3.99625 1.64085 0
M  V30 13777 C 1299.22 -5.18673 1.14683 0
M  V30 13778 C 1298.26 -5.68977 2.2568 0
M  V30 13779 N 1297.39 -6.79289 1.77514 0
M  V30 13780 H 1302.23 -2.31415 1.87753 0
M  V30 13781 H 1299.77 -1.13487 0.935901 0
M  V30 13782 H 1301.73 -4.16578 0.22771 0
M  V30 13783 H 1300.36 -3.20463 -0.387689 0
M  V30 13784 H 1299.41 -3.21565 2.03225 0
M  V30 13785 H 1300.72 -4.32965 2.47674 0
M  V30 13786 H 1299.88 -6.01048 0.826223 0
M  V30 13787 H 1298.62 -4.86891 0.280797 0
M  V30 13788 H 1297.62 -4.85208 2.5856 0
M  V30 13789 H 1298.85 -6.02794 3.12755 0
M  V30 13790 H 1296.79 -6.49341 0.932338 0
M  V30 13791 H 1296.71 -7.11808 2.54686 0
M  V30 13792 H 1297.98 -7.65235 1.48446 0
M  V30 13793 N 1302.21 -1.00763 -1.2118 0
M  V30 13794 C 1303.43 -0.710746 -1.94309 0
M  V30 13795 C 1303.85 0.727103 -1.74237 0
M  V30 13796 O 1303.21 1.49223 -1.05065 0
M  V30 13797 C 1303.26 -1.02562 -3.46646 0
M  V30 13798 O 1302.98 -2.40699 -3.66054 0
M  V30 13799 C 1304.48 -0.748517 -4.36935 0
M  V30 13800 H 1301.7 -0.26171 -0.617858 0
M  V30 13801 H 1304.24 -1.34639 -1.53924 0
M  V30 13802 H 1302.4 -0.435537 -3.84944 0
M  V30 13803 H 1302.81 -2.51764 -4.60125 0
M  V30 13804 H 1304.29 -1.01899 -5.42513 0
M  V30 13805 H 1304.76 0.317423 -4.38051 0
M  V30 13806 H 1305.37 -1.32033 -4.04286 0
M  V30 13807 N 1303.68 1.3679 -0.7827 0
M  V30 13808 C 1304.93 1.98664 -0.348634 0
M  V30 13809 C 1305.25 1.62827 1.08382 0
M  V30 13810 O 1306.45 2.17886 1.61982 0
M  V30 13811 C 1304.91 3.55319 -0.572392 0
M  V30 13812 C 1304.52 4.00086 -2.01582 0
M  V30 13813 C 1306.26 4.24017 -0.202496 0
M  V30 13814 C 1304.17 5.49493 -2.18659 0
M  V30 13815 H 1303.1 0.743294 -0.126612 0
M  V30 13816 H 1305.75 1.56177 -0.963383 0
M  V30 13817 H 1304.13 3.95842 0.111973 0
M  V30 13818 H 1305.3 3.7078 -2.73603 0
M  V30 13819 H 1303.62 3.44205 -2.34333 0
M  V30 13820 H 1306.22 5.3381 -0.308459 0
M  V30 13821 H 1306.56 4.07559 0.84859 0
M  V30 13822 H 1307.09 3.88834 -0.839834 0
M  V30 13823 H 1303.83 5.7089 -3.22126 0
M  V30 13824 H 1303.35 5.80447 -1.51134 0
M  V30 13825 H 1305.03 6.15621 -1.99048 0
M  V30 13826 N 1305.16 0.53415 1.48272 0
M  V30 13827 C 1306.44 -0.0630181 1.95498 0
M  V30 13828 C 1306.82 -1.50877 1.47646 0
M  V30 13829 O 1306.17 -2.17358 0.704829 0
M  V30 13830 C 1306.38 0.0585475 3.48951 0
M  V30 13831 C 1307.73 -0.0985978 4.24486 0
M  V30 13832 O 1308.75 -0.0150438 3.56197 0
M  V30 13833 O 1307.61 -0.274356 5.45811 0
M  V30 13834 H 1304.7 -0.0769841 0.823409 0
M  V30 13835 H 1307.25 0.599043 1.58775 0
M  V30 13836 H 1306.02 1.06549 3.76514 0
M  V30 13837 H 1305.64 -0.642175 3.9238 0
M  V30 13838 N 1306.64 -1.55279 0.269478 0
M  V30 13839 C 1307.92 -1.91458 -0.400412 0
M  V30 13840 C 1308.3 -1.19306 -1.74153 0
M  V30 13841 O 1307.65 -0.318017 -2.26276 0
M  V30 13842 C 1307.86 -3.44698 -0.546258 0
M  V30 13843 C 1309.2 -4.16374 -0.831758 0
M  V30 13844 O 1310.23 -3.50561 -0.631279 0
M  V30 13845 O 1309.09 -5.32826 -1.21484 0
M  V30 13846 H 1306.18 -0.79766 -0.218328 0
M  V30 13847 H 1308.73 -1.66747 0.315214 0
M  V30 13848 H 1307.5 -3.89273 0.397784 0
M  V30 13849 H 1307.12 -3.75345 -1.31157 0
M  V30 13850 N 1308.12 0.00332656 -1.576 0
M  V30 13851 C 1309.37 0.688044 -1.89602 0
M  V30 13852 C 1309.68 1.75121 -0.871316 0
M  V30 13853 O 1310.89 2.49032 -1.08144 0
M  V30 13854 C 1309.34 1.27494 -3.36561 0
M  V30 13855 C 1308.95 0.246771 -4.4732 0
M  V30 13856 C 1310.69 1.93804 -3.77677 0
M  V30 13857 C 1308.6 0.843471 -5.85354 0
M  V30 13858 H 1307.53 0.260747 -0.707479 0
M  V30 13859 H 1310.18 -0.0566727 -1.83412 0
M  V30 13860 H 1308.56 2.07022 -3.37577 0
M  V30 13861 H 1309.74 -0.523668 -4.57815 0
M  V30 13862 H 1308.05 -0.3157 -4.15202 0
M  V30 13863 H 1310.65 2.39347 -4.78139 0
M  V30 13864 H 1310.99 2.7672 -3.11017 0
M  V30 13865 H 1311.53 1.21015 -3.78946 0
M  V30 13866 H 1308.27 0.0531655 -6.55478 0
M  V30 13867 H 1307.79 1.58315 -5.7853 0
M  V30 13868 H 1309.46 1.34311 -6.32906 0
M  V30 13869 N 1309.6 1.55164 0.276031 0
M  V30 13870 C 1310.84 1.75627 1.00803 0
M  V30 13871 C 1311.17 0.555696 1.86393 0
M  V30 13872 O 1310.43 -0.461872 1.90172 0
M  V30 13873 C 1310.73 3.0127 1.92279 0
M  V30 13874 C 1310.39 4.33951 1.22464 0
M  V30 13875 C 1309.05 4.70013 1.03158 0
M  V30 13876 C 1311.41 5.16097 0.72758 0
M  V30 13877 C 1308.73 5.85779 0.328699 0
M  V30 13878 C 1311.09 6.32588 0.0383001 0
M  V30 13879 C 1309.75 6.67292 -0.166494 0
M  V30 13880 H 1309.02 0.642665 0.368866 0
M  V30 13881 H 1311.67 1.89433 0.280595 0
M  V30 13882 H 1309.97 2.82351 2.71634 0
M  V30 13883 H 1311.67 3.14299 2.49032 0
M  V30 13884 H 1308.26 4.05605 1.38501 0
M  V30 13885 H 1312.44 4.88715 0.864365 0
M  V30 13886 H 1307.7 6.11192 0.159279 0
M  V30 13887 H 1311.87 6.95496 -0.354631 0
M  V30 13888 H 1309.5 7.56848 -0.713124 0
M  V30 13889 N 1311.07 -0.540404 1.48045 0
M  V30 13890 C 1312.02 -1.64598 1.61791 0
M  V30 13891 C 1312.99 -1.59595 0.460301 0
M  V30 13892 O 1314.18 -1.78176 0.682482 0
M  V30 13893 C 1311.32 -3.02887 1.65389 0
M  V30 13894 C 1310.43 -3.18202 2.92184 0
M  V30 13895 C 1309.56 -4.46989 2.87009 0
M  V30 13896 C 1308.6 -4.55795 4.08555 0
M  V30 13897 N 1307.74 -5.75958 4.01518 0
M  V30 13898 H 1312.58 -1.52188 2.56208 0
M  V30 13899 H 1310.12 -0.741097 1.27068 0
M  V30 13900 H 1312.08 -3.82988 1.65457 0
M  V30 13901 H 1310.71 -3.14092 0.744703 0
M  V30 13902 H 1309.76 -2.31422 3.01907 0
M  V30 13903 H 1311.07 -3.20571 3.82146 0
M  V30 13904 H 1310.22 -5.35369 2.85421 0
M  V30 13905 H 1308.96 -4.47125 1.94759 0
M  V30 13906 H 1307.97 -3.65824 4.1043 0
M  V30 13907 H 1309.19 -4.57406 5.01953 0
M  V30 13908 H 1307.14 -5.77011 3.12081 0
M  V30 13909 H 1307.06 -5.79777 4.85175 0
M  V30 13910 H 1308.32 -6.66653 4.03972 0
M  V30 13911 N 1312.55 -1.36459 -0.788468 0
M  V30 13912 C 1313.8 -1.3007 -1.54158 0
M  V30 13913 C 1314.11 0.117574 -1.95246 0
M  V30 13914 O 1315.32 0.303837 -2.69795 0
M  V30 13915 C 1313.78 -2.28216 -2.78291 0
M  V30 13916 C 1313.38 -3.75484 -2.44368 0
M  V30 13917 C 1315.13 -2.30806 -3.56271 0
M  V30 13918 C 1313.04 -4.65404 -3.64902 0
M  V30 13919 H 1311.97 -0.483345 -0.5787 0
M  V30 13920 H 1314.62 -1.61827 -0.865123 0
M  V30 13921 H 1313 -1.89454 -3.4774 0
M  V30 13922 H 1314.17 -4.22986 -1.82809 0
M  V30 13923 H 1312.49 -3.75678 -1.79597 0
M  V30 13924 H 1315.08 -2.95196 -4.45829 0
M  V30 13925 H 1315.43 -1.31687 -3.94923 0
M  V30 13926 H 1315.96 -2.68189 -2.93802 0
M  V30 13927 H 1312.7 -5.65589 -3.31344 0
M  V30 13928 H 1312.22 -4.22617 -4.25623 0
M  V30 13929 H 1313.9 -4.81721 -4.31919 0
M  V30 13930 N 1314.03 1.01274 -1.20754 0
M  V30 13931 C 1314.99 2.08056 -0.961528 0
M  V30 13932 C 1315.99 1.60671 0.0644461 0
M  V30 13933 O 1317.18 1.73349 -0.172022 0
M  V30 13934 C 1314.32 3.37938 -0.448381 0
M  V30 13935 H 1315.51 2.31314 -1.90877 0
M  V30 13936 H 1313.06 1.18133 -1.02344 0
M  V30 13937 H 1313.8 3.20357 0.504144 0
M  V30 13938 H 1313.58 3.73659 -1.18833 0
M  V30 13939 H 1315.07 4.16551 -0.295876 0
M  V30 13940 N 1315.51 1.01404 1.20644 0
M  V30 13941 C 1316.76 0.702949 1.90227 0
M  V30 13942 C 1317.09 -0.765243 1.78487 0
M  V30 13943 O 1316.36 -1.55569 1.16741 0
M  V30 13944 C 1316.65 1.13606 3.4171 0
M  V30 13945 C 1316.5 2.66437 3.62397 0
M  V30 13946 C 1317.82 0.705361 4.34411 0
M  V30 13947 H 1314.94 0.256842 0.690797 0
M  V30 13948 H 1317.58 1.26133 1.42093 0
M  V30 13949 H 1315.73 0.660977 3.82836 0
M  V30 13950 H 1317.4 3.21778 3.3054 0
M  V30 13951 H 1315.64 3.0753 3.05954 0
M  V30 13952 H 1316.32 2.91795 4.68572 0
M  V30 13953 H 1318.79 1.11375 4.00918 0
M  V30 13954 H 1317.67 1.03647 5.39026 0
M  V30 13955 H 1317.93 -0.393094 4.40349 0
M  V30 13956 N 1316.99 -1.36373 0.789944 0
M  V30 13957 C 1317.94 -2.27425 0.161798 0
M  V30 13958 C 1318.92 -1.46983 -0.654583 0
M  V30 13959 O 1320.11 -1.69355 -0.51457 0
M  V30 13960 C 1317.24 -3.36043 -0.702128 0
M  V30 13961 C 1316.33 -4.23921 0.123071 0
M  V30 13962 N 1316.72 -4.91895 1.17784 0
M  V30 13963 C 1315.02 -4.45892 -0.0980072 0
M  V30 13964 C 1315.72 -5.56905 1.68023 0
M  V30 13965 N 1314.69 -5.34521 0.989371 0
M  V30 13966 H 1318.5 -2.77463 0.969093 0
M  V30 13967 H 1316.01 -1.49705 0.629458 0
M  V30 13968 H 1318.01 -4.00203 -1.16805 0
M  V30 13969 H 1316.67 -2.8756 -1.50796 0
M  V30 13970 H 1317.68 -4.93838 1.56027 0
M  V30 13971 H 1314.36 -4.08243 -0.874307 0
M  V30 13972 H 1315.75 -6.21185 2.56085 0
M  V30 13973 N 1318.47 -0.542005 -1.47987 0
M  V30 13974 C 1319.88 -0.104646 -1.86406 0
M  V30 13975 C 1320.23 1.32139 -1.4503 0
M  V30 13976 O 1319.35 1.99159 -0.846439 0
M  V30 13977 C 1319.95 -0.183133 -3.38305 0
M  V30 13978 C 1318.51 0.199098 -3.75873 0
M  V30 13979 C 1317.65 -0.537532 -2.7204 0
M  V30 13980 H 1320.6 -0.75259 -1.3972 0
M  V30 13981 H 1320.63 0.602149 -3.75705 0
M  V30 13982 H 1320.14 -1.22113 -3.68389 0
M  V30 13983 H 1318.24 1.23878 -3.51404 0
M  V30 13984 H 1318.35 -0.14888 -4.78869 0
M  V30 13985 H 1316.72 0.0176255 -2.54694 0
M  V30 13986 H 1317.5 -1.57639 -3.04967 0
M  V30 13987 N 1319.94 1.55134 -0.277709 0
M  V30 13988 C 1320.87 2.256 0.602232 0
M  V30 13989 C 1321.85 1.24708 1.15681 0
M  V30 13990 O 1323.04 1.53433 1.19046 0
M  V30 13991 C 1320.17 2.97907 1.78519 0
M  V30 13992 C 1319.12 4.0575 1.36203 0
M  V30 13993 C 1318.45 4.65644 2.62829 0
M  V30 13994 C 1319.75 5.19801 0.510327 0
M  V30 13995 H 1321.44 2.99396 0.0145622 0
M  V30 13996 H 1318.99 1.43999 0.00556389 0
M  V30 13997 H 1320.94 3.45915 2.40668 0
M  V30 13998 H 1319.67 2.21649 2.39873 0
M  V30 13999 H 1318.33 3.58557 0.763726 0
M  V30 14000 H 1317.97 3.86053 3.22447 0
M  V30 14001 H 1317.67 5.38463 2.35227 0
M  V30 14002 H 1319.2 5.16403 3.25823 0
M  V30 14003 H 1320.61 5.63845 1.03689 0
M  V30 14004 H 1319.01 5.99197 0.329073 0
M  V30 14005 H 1320.08 4.82614 -0.470273 0
M  V30 14006 N 1321.42 0.00503138 1.57599 0
M  V30 14007 C 1322.84 -0.351109 1.5569 0
M  V30 14008 C 1323.04 -1.74465 1.00818 0
M  V30 14009 O 1322.09 -2.44144 0.64422 0
M  V30 14010 C 1323.41 -0.221738 2.99881 0
M  V30 14011 C 1324.95 -0.296303 3.11594 0
M  V30 14012 C 1325.43 -0.195998 4.5758 0
M  V30 14013 N 1326.92 -0.253741 4.62504 0
M  V30 14014 C 1327.66 -0.199546 5.73053 0
M  V30 14015 N 1327.15 -0.0956553 6.92734 0
M  V30 14016 N 1328.94 -0.251779 5.61536 0
M  V30 14017 H 1321.1 0.916578 1.91605 0
M  V30 14018 H 1323.36 0.351802 0.880306 0
M  V30 14019 H 1323.06 0.737255 3.43886 0
M  V30 14020 H 1322.94 -1.00178 3.63654 0
M  V30 14021 H 1325.33 -1.24574 2.67517 0
M  V30 14022 H 1325.41 0.513692 2.50589 0
M  V30 14023 H 1325.05 0.749918 5.02333 0
M  V30 14024 H 1324.98 -1.02455 5.16537 0
M  V30 14025 H 1327.47 -0.335163 3.76411 0
M  V30 14026 H 1327.78 -0.0603357 7.72776 0
M  V30 14027 H 1326.13 -0.0612113 6.94973 0
M  V30 14028 H 1329.32 -0.331173 4.66927 0
M  V30 14029 H 1329.49 -0.206078 6.47672 0
M  V30 14030 N 1322.9 -1.55308 -0.267798 0
M  V30 14031 C 1323.81 -1.91649 -1.35307 0
M  V30 14032 C 1324.83 -0.814349 -1.53767 0
M  V30 14033 O 1326 -1.11388 -1.67793 0
M  V30 14034 C 1323.07 -2.18553 -2.69138 0
M  V30 14035 C 1322.13 -3.42083 -2.5938 0
M  V30 14036 C 1321.36 -3.67695 -3.86828 0
M  V30 14037 O 1321.58 -2.95728 -4.87751 0
M  V30 14038 O 1320.52 -4.61229 -3.86718 0
M  V30 14039 H 1324.34 -2.84044 -1.07483 0
M  V30 14040 H 1321.93 -1.41921 -0.466772 0
M  V30 14041 H 1323.81 -2.3726 -3.48261 0
M  V30 14042 H 1322.49 -1.2934 -2.96737 0
M  V30 14043 H 1321.39 -3.28706 -1.78614 0
M  V30 14044 H 1322.73 -4.31532 -2.36729 0
M  V30 14045 N 1324.38 0.532545 -1.4833 0
M  V30 14046 C 1325.34 1.61955 -1.62183 0
M  V30 14047 C 1326.34 1.52982 -0.495281 0
M  V30 14048 O 1327.53 1.56698 -0.761005 0
M  V30 14049 C 1324.66 3.0157 -1.58961 0
M  V30 14050 H 1325.86 1.51013 -2.59105 0
M  V30 14051 H 1323.41 0.754405 -1.36888 0
M  V30 14052 H 1324.14 3.18021 -0.635069 0
M  V30 14053 H 1323.93 3.09491 -2.40744 0
M  V30 14054 H 1325.42 3.80604 -1.71843 0
M  V30 14055 N 1325.86 1.36875 0.78122 0
M  V30 14056 C 1327.1 1.30886 1.53466 0
M  V30 14057 C 1327.42 -0.107218 1.95306 0
M  V30 14058 O 1328.62 -0.289525 2.69952 0
M  V30 14059 C 1327.08 2.29688 2.77076 0
M  V30 14060 C 1326.69 3.76775 2.42373 0
M  V30 14061 C 1328.43 2.32692 3.55042 0
M  V30 14062 C 1326.34 4.67332 3.62428 0
M  V30 14063 H 1325.27 0.486408 0.576128 0
M  V30 14064 H 1327.92 1.62283 0.856529 0
M  V30 14065 H 1326.3 1.91296 3.4673 0
M  V30 14066 H 1327.48 4.2395 1.80563 0
M  V30 14067 H 1325.79 3.76625 1.77602 0
M  V30 14068 H 1328.39 2.97556 4.44257 0
M  V30 14069 H 1328.73 1.33779 3.94219 0
M  V30 14070 H 1329.26 2.69743 2.92375 0
M  V30 14071 H 1326 5.67339 3.2834 0
M  V30 14072 H 1325.52 4.24868 4.23376 0
M  V30 14073 H 1327.2 4.84005 4.29358 0
M  V30 14074 N 1327.33 -1.00632 1.21289 0
M  V30 14075 C 1328.61 -1.71635 0.938124 0
M  V30 14076 C 1328.99 -2.03798 -0.550416 0
M  V30 14077 O 1328.34 -1.71065 -1.5149 0
M  V30 14078 C 1328.55 -2.97674 1.82184 0
M  V30 14079 C 1329.9 -3.7073 2.06989 0
M  V30 14080 O 1330.92 -3.07653 1.79522 0
M  V30 14081 O 1329.78 -4.84183 2.53435 0
M  V30 14082 H 1326.87 -0.748506 0.351664 0
M  V30 14083 H 1329.42 -1.06387 1.32212 0
M  V30 14084 H 1328.19 -2.70306 2.82931 0
M  V30 14085 H 1327.81 -3.70663 1.43858 0
M  V30 14086 N 1328.81 -1.02043 -1.20104 0
M  V30 14087 C 1329.74 -0.538603 -2.21753 0
M  V30 14088 C 1330.72 0.416016 -1.57188 0
M  V30 14089 O 1331.91 0.335114 -1.85497 0
M  V30 14090 C 1329.03 0.215706 -3.38012 0
M  V30 14091 C 1328.08 -0.68905 -4.20897 0
M  V30 14092 S 1328.91 -2.16041 -4.89986 0
M  V30 14093 C 1330.07 -1.41637 -6.09664 0
M  V30 14094 H 1330.3 -1.39988 -2.6228 0
M  V30 14095 H 1327.83 -0.829641 -1.30216 0
M  V30 14096 H 1329.79 0.644798 -4.05404 0
M  V30 14097 H 1328.45 1.0526 -2.95938 0
M  V30 14098 H 1327.65 -0.107195 -5.03886 0
M  V30 14099 H 1327.25 -1.05609 -3.5878 0
M  V30 14100 H 1329.54 -0.698414 -6.73891 0
M  V30 14101 H 1330.48 -2.22254 -6.72316 0
M  V30 14102 H 1330.89 -0.917572 -5.56993 0
M  V30 14103 N 1330.29 1.35952 -0.797165 0
M  V30 14104 C 1331.71 1.52218 -0.479765 0
M  V30 14105 C 1331.91 1.74898 1.00064 0
M  V30 14106 O 1330.96 1.78495 1.78594 0
M  V30 14107 C 1332.28 2.70328 -1.31694 0
M  V30 14108 C 1333.82 2.84202 -1.31142 0
M  V30 14109 C 1334.3 4.05325 -2.13251 0
M  V30 14110 N 1335.79 4.12485 -2.10737 0
M  V30 14111 C 1336.52 5.053 -2.71033 0
M  V30 14112 N 1336.02 6.03509 -3.40219 0
M  V30 14113 N 1337.81 4.97975 -2.60725 0
M  V30 14114 H 1329.96 1.19486 -1.75604 0
M  V30 14115 H 1332.23 0.58383 -0.746892 0
M  V30 14116 H 1331.93 2.60116 -2.36712 0
M  V30 14117 H 1331.81 3.64684 -0.963607 0
M  V30 14118 H 1334.19 2.9387 -0.269131 0
M  V30 14119 H 1334.28 1.9073 -1.70457 0
M  V30 14120 H 1333.92 3.96417 -3.17515 0
M  V30 14121 H 1333.85 4.97959 -1.71302 0
M  V30 14122 H 1336.34 3.42174 -1.6039 0
M  V30 14123 H 1336.65 6.70909 -3.83537 0
M  V30 14124 H 1335 6.03711 -3.44322 0
M  V30 14125 H 1338.19 4.20203 -2.0627 0
M  V30 14126 H 1338.36 5.70119 -3.08007 0
M  V30 14127 N 1331.77 0.549846 1.47697 0
M  V30 14128 C 1332.68 -0.205286 2.337 0
M  V30 14129 C 1333.69 -0.919271 1.47734 0
M  V30 14130 O 1334.87 -0.889808 1.80678 0
M  V30 14131 C 1331.94 -1.22658 3.24278 0
M  V30 14132 C 1331 -0.520815 4.26129 0
M  V30 14133 C 1330.23 -1.49345 5.12378 0
M  V30 14134 O 1330.45 -2.72772 5.00951 0
M  V30 14135 O 1329.39 -1.02197 5.93161 0
M  V30 14136 H 1333.21 0.499982 2.99556 0
M  V30 14137 H 1330.8 0.310538 1.46137 0
M  V30 14138 H 1332.68 -1.8163 3.80248 0
M  V30 14139 H 1331.35 -1.9139 2.61059 0
M  V30 14140 H 1330.26 0.109906 3.73939 0
M  V30 14141 H 1331.59 0.124922 4.92041 0
M  V30 14142 N 1333.25 -1.54984 0.285932 0
M  V30 14143 C 1334.19 -2.24385 -0.612703 0
M  V30 14144 C 1335.19 -1.24459 -1.14918 0
M  V30 14145 O 1336.39 -1.42357 -1.10156 0
M  V30 14146 H 1332.77 -0.720263 -0.21616 0
M  V30 14147 H 1334.74 -2.984 -0.00465668 0
M  V30 14148 C 1333.49 -2.98661 -1.78037 0
M  V30 14149 H 1332.81 -3.75347 -1.37676 0
M  V30 14150 H 1334.25 -3.50525 -2.38554 0
M  V30 14151 C 1332.71 -2.04754 -2.67539 0
M  V30 14152 O 1333.24 -1.60577 -3.68209 0
M  V30 14153 N 1331.45 -1.71026 -2.34944 0
M  V30 14154 H 1330.99 -2.07148 -1.53126 0
M  V30 14155 H 1330.95 -1.08467 -2.95097 0
M  V30 14156 N 1334.72 -0.0133892 -1.57594 0
M  V30 14157 C 1335.66 1.00798 -2.04731 0
M  V30 14158 C 1336.64 1.32686 -0.93985 0
M  V30 14159 O 1337.82 1.44622 -1.209 0
M  V30 14160 C 1334.95 2.33216 -2.45618 0
M  V30 14161 C 1333.99 2.16898 -3.67229 0
M  V30 14162 S 1334.83 1.48248 -5.14571 0
M  V30 14163 C 1335.98 2.82068 -5.58738 0
M  V30 14164 H 1336.21 0.606673 -2.91044 0
M  V30 14165 H 1333.75 0.197865 -1.53127 0
M  V30 14166 H 1335.71 3.09348 -2.69841 0
M  V30 14167 H 1334.37 2.70483 -1.59679 0
M  V30 14168 H 1333.56 3.14753 -3.93632 0
M  V30 14169 H 1333.16 1.4891 -3.43077 0
M  V30 14170 H 1335.45 3.78343 -5.62017 0
M  V30 14171 H 1336.4 2.60348 -6.58502 0
M  V30 14172 H 1336.8 2.86592 -4.86338 0
M  V30 14173 N 1336.2 1.55448 0.259558 0
M  V30 14174 C 1337.13 1.85678 1.34373 0
M  V30 14175 C 1338.15 0.742155 1.449 0
M  V30 14176 O 1339.34 1.02015 1.46476 0
M  V30 14177 C 1336.44 2.01668 2.72366 0
M  V30 14178 C 1335.61 3.32434 2.84265 0
M  V30 14179 C 1334.67 3.38322 4.03019 0
M  V30 14180 O 1333.69 4.11616 3.93143 0
M  V30 14181 N 1334.9 2.66697 5.1561 0
M  V30 14182 H 1337.66 2.79261 1.08781 0
M  V30 14183 H 1335.22 1.5553 0.449672 0
M  V30 14184 H 1337.21 2.02963 3.50126 0
M  V30 14185 H 1335.78 1.14889 2.90722 0
M  V30 14186 H 1335 3.43564 1.93281 0
M  V30 14187 H 1336.29 4.18649 2.89155 0
M  V30 14188 H 1335.69 2.06857 5.26523 0
M  V30 14189 H 1334.25 2.73699 5.91551 0
M  V30 14190 N 1337.68 -0.524672 1.4861 0
M  V30 14191 C 1338.63 -1.64965 1.6398 0
M  V30 14192 C 1339.62 -1.61663 0.506118 0
M  V30 14193 O 1340.83 -1.66456 0.685013 0
M  V30 14194 H 1337.2 -0.546419 0.516653 0
M  V30 14195 H 1339.17 -1.49146 2.58453 0
M  V30 14196 C 1337.92 -3.03215 1.70165 0
M  V30 14197 H 1337.25 -3.06451 2.56764 0
M  V30 14198 H 1338.69 -3.8153 1.84962 0
M  V30 14199 C 1337.15 -3.33996 0.44143 0
M  V30 14200 O 1337.68 -3.99246 -0.443356 0
M  V30 14201 N 1335.88 -2.88925 0.311518 0
M  V30 14202 H 1335.43 -2.36003 1.0325 0
M  V30 14203 H 1335.39 -3.09889 -0.530655 0
M  V30 14204 N 1339.16 -1.37287 -0.77395 0
M  V30 14205 C 1340.12 -1.32699 -1.86878 0
M  V30 14206 C 1341.12 -0.231486 -1.59125 0
M  V30 14207 O 1342.31 -0.487203 -1.67248 0
M  V30 14208 C 1339.44 -1.0609 -3.23972 0
M  V30 14209 H 1340.64 -2.30083 -1.92359 0
M  V30 14210 H 1338.19 -1.22284 -0.973459 0
M  V30 14211 H 1338.92 -0.0922868 -3.24169 0
M  V30 14212 H 1338.71 -1.85383 -3.45508 0
M  V30 14213 H 1340.2 -1.05524 -4.04048 0
M  V30 14214 N 1340.64 0.999871 -1.21821 0
M  V30 14215 C 1341.89 1.73257 -1.03271 0
M  V30 14216 C 1342.2 1.90736 0.433502 0
M  V30 14217 O 1343.4 2.61263 0.738511 0
M  V30 14218 C 1341.86 3.11697 -1.79925 0
M  V30 14219 C 1341.47 3.02173 -3.3075 0
M  V30 14220 C 1343.21 3.89061 -1.698 0
M  V30 14221 C 1341.12 4.35725 -3.99872 0
M  V30 14222 H 1340.05 0.649595 -0.382809 0
M  V30 14223 H 1342.7 1.11676 -1.45605 0
M  V30 14224 H 1341.08 3.73919 -1.30386 0
M  V30 14225 H 1342.26 2.49158 -3.8763 0
M  V30 14226 H 1340.57 2.38296 -3.41473 0
M  V30 14227 H 1343.17 4.87897 -2.1877 0
M  V30 14228 H 1343.51 4.11081 -0.657148 0
M  V30 14229 H 1344.04 3.33502 -2.16844 0
M  V30 14230 H 1340.78 4.18906 -5.04181 0
M  V30 14231 H 1340.3 4.8868 -3.47781 0
M  V30 14232 H 1341.98 5.04503 -4.05075 0
M  V30 14233 N 1342.11 1.02678 1.19562 0
M  V30 14234 C 1343.36 0.723086 1.89471 0
M  V30 14235 C 1343.69 -0.746269 1.79289 0
M  V30 14236 O 1342.97 -1.54322 1.18384 0
M  V30 14237 C 1343.25 1.17224 3.40486 0
M  V30 14238 C 1343.1 2.70266 3.5955 0
M  V30 14239 C 1344.42 0.751397 4.33638 0
M  V30 14240 H 1341.54 0.264155 0.688034 0
M  V30 14241 H 1344.18 1.27633 1.40747 0
M  V30 14242 H 1342.33 0.701544 3.82113 0
M  V30 14243 H 1344.01 3.25266 3.27108 0
M  V30 14244 H 1342.25 3.10758 3.02675 0
M  V30 14245 H 1342.92 2.96748 4.65451 0
M  V30 14246 H 1345.4 1.15621 3.99714 0
M  V30 14247 H 1344.27 1.09358 5.37896 0
M  V30 14248 H 1344.53 -0.346367 4.40741 0
M  V30 14249 N 1343.59 -1.35528 0.804364 0
M  V30 14250 C 1344.82 -2.03604 0.395013 0
M  V30 14251 C 1345.24 -1.60225 -0.985371 0
M  V30 14252 O 1344.6 -0.777844 -1.63766 0
M  V30 14253 C 1344.65 -3.57337 0.484011 0
M  V30 14254 O 1343.75 -4.09316 -0.503395 0
M  V30 14255 H 1343.09 -0.643089 0.165325 0
M  V30 14256 H 1345.62 -1.73171 1.08963 0
M  V30 14257 H 1345.63 -4.0647 0.353009 0
M  V30 14258 H 1344.31 -3.8826 1.49088 0
M  V30 14259 H 1342.89 -3.71412 -0.332817 0
M  V30 14260 N 1345.07 -0.557671 -1.47404 0
M  V30 14261 C 1346.32 -0.0316382 -2.01675 0
M  V30 14262 C 1346.63 1.32656 -1.43742 0
M  V30 14263 O 1347.84 1.94253 -1.89678 0
M  V30 14264 C 1346.3 -0.00606931 -3.59899 0
M  V30 14265 C 1345.9 -1.36106 -4.26825 0
M  V30 14266 C 1347.65 0.467332 -4.2192 0
M  V30 14267 C 1345.55 -1.29457 -5.77057 0
M  V30 14268 H 1344.48 -0.00805738 -0.753957 0
M  V30 14269 H 1347.14 -0.705592 -1.69392 0
M  V30 14270 H 1345.52 0.733541 -3.89147 0
M  V30 14271 H 1346.69 -2.11842 -4.09218 0
M  V30 14272 H 1345.01 -1.77243 -3.76794 0
M  V30 14273 H 1347.6 0.535478 -5.32012 0
M  V30 14274 H 1347.95 1.47942 -3.89126 0
M  V30 14275 H 1348.48 -0.217434 -3.97205 0
M  V30 14276 H 1345.22 -2.28267 -6.14471 0
M  V30 14277 H 1344.74 -0.579022 -5.96999 0
M  V30 14278 H 1346.42 -0.996834 -6.39275 0
M  V30 14279 N 1346.55 1.54831 -0.294147 0
M  V30 14280 C 1347.5 2.23263 0.58499 0
M  V30 14281 C 1348.47 1.21278 1.13494 0
M  V30 14282 O 1349.65 1.49878 1.18073 0
M  V30 14283 C 1346.79 2.97185 1.75429 0
M  V30 14284 C 1345.9 4.1393 1.23638 0
M  V30 14285 C 1345.04 4.7545 2.36899 0
M  V30 14286 C 1344.08 5.84352 1.82207 0
M  V30 14287 N 1343.22 6.39855 2.89015 0
M  V30 14288 H 1348.06 2.98 -0.00519329 0
M  V30 14289 H 1345.59 1.47093 -0.0143313 0
M  V30 14290 H 1347.55 3.38271 2.4419 0
M  V30 14291 H 1346.18 2.24837 2.3162 0
M  V30 14292 H 1345.23 3.77832 0.441247 0
M  V30 14293 H 1346.54 4.92409 0.795946 0
M  V30 14294 H 1345.7 5.19353 3.1362 0
M  V30 14295 H 1344.44 3.96288 2.84266 0
M  V30 14296 H 1343.44 5.39879 1.03974 0
M  V30 14297 H 1344.67 6.65393 1.35753 0
M  V30 14298 H 1342.61 5.6358 3.35729 0
M  V30 14299 H 1342.53 7.13661 2.49447 0
M  V30 14300 H 1343.8 6.88417 3.65654 0
M  V30 14301 N 1348.03 0.0217466 1.57585 0
M  V30 14302 C 1348.94 -0.978407 2.13224 0
M  V30 14303 C 1349.95 -1.36212 1.08269 0
M  V30 14304 O 1351.13 -1.44504 1.40288 0
M  V30 14305 C 1348.19 -2.24462 2.6423 0
M  V30 14306 C 1347.26 -1.92201 3.83871 0
M  V30 14307 C 1346.49 -3.12786 4.32436 0
M  V30 14308 O 1346.71 -4.25201 3.8021 0
M  V30 14309 O 1345.65 -2.95514 5.24362 0
M  V30 14310 H 1349.47 -0.535347 2.98944 0
M  V30 14311 H 1347.06 -0.198414 1.48077 0
M  V30 14312 H 1348.94 -2.98809 2.97138 0
M  V30 14313 H 1347.61 -2.67964 1.81596 0
M  V30 14314 H 1346.52 -1.15262 3.55901 0
M  V30 14315 H 1347.85 -1.53521 4.67645 0
M  V30 14316 N 1349.51 -1.55583 -0.251311 0
M  V30 14317 C 1350.44 -1.9296 -1.31486 0
M  V30 14318 C 1351.42 -0.794001 -1.50431 0
M  V30 14319 O 1352.6 -1.05393 -1.63113 0
M  V30 14320 C 1349.73 -2.22046 -2.67045 0
M  V30 14321 C 1348.69 -3.37816 -2.62801 0
M  V30 14322 C 1348.01 -3.52433 -4.02113 0
M  V30 14323 C 1349.31 -4.73626 -2.20171 0
M  V30 14324 H 1351.01 -2.82046 -1.00451 0
M  V30 14325 H 1348.55 -1.35702 -0.481775 0
M  V30 14326 H 1350.5 -2.46783 -3.41579 0
M  V30 14327 H 1349.23 -1.29782 -2.99707 0
M  V30 14328 H 1347.89 -3.13081 -1.90724 0
M  V30 14329 H 1347.54 -2.57597 -4.32034 0
M  V30 14330 H 1347.24 -4.30283 -4.00163 0
M  V30 14331 H 1348.76 -3.79486 -4.78354 0
M  V30 14332 H 1350.17 -4.97764 -2.84436 0
M  V30 14333 H 1348.57 -5.54547 -2.29341 0
M  V30 14334 H 1349.64 -4.70985 -1.1533 0
M  V30 14335 N 1350.98 0.516783 -1.48886 0
M  V30 14336 C 1352.22 1.28221 -1.59181 0
M  V30 14337 C 1352.59 1.90156 -0.265466 0
M  V30 14338 O 1353.79 2.67695 -0.243489 0
M  V30 14339 C 1352.06 2.3326 -2.70785 0
M  V30 14340 S 1353.62 3.19353 -3.00931 0
M  V30 14341 H 1350.44 0.435976 -0.561646 0
M  V30 14342 H 1353.04 0.587238 -1.86472 0
M  V30 14343 H 1351.74 1.86263 -3.65697 0
M  V30 14344 H 1351.27 3.07447 -2.45438 0
M  V30 14345 H 1353.29 4.3361 -2.4124 0
M  V30 14346 N 1352.46 1.37696 0.766659 0
M  V30 14347 C 1353.71 1.32922 1.52237 0
M  V30 14348 C 1354.03 -0.0842833 1.94818 0
M  V30 14349 O 1353.3 -1.02934 1.66677 0
M  V30 14350 H 1351.88 0.489049 0.564659 0
M  V30 14351 H 1354.54 1.72238 0.912142 0
M  V30 14352 H 1353.64 1.97158 2.4194 0
M  V30 14353 N 1353.94 -0.993397 1.22349 0
M  V30 14354 C 1354.87 -2.10171 1.01737 0
M  V30 14355 C 1355.85 -1.69989 -0.0615276 0
M  V30 14356 O 1357.04 -1.93939 0.100591 0
M  V30 14357 C 1354.17 -3.42186 0.593801 0
M  V30 14358 C 1353.12 -3.96215 1.61858 0
M  V30 14359 C 1352.45 -5.24272 1.05086 0
M  V30 14360 C 1353.75 -4.26956 3.00842 0
M  V30 14361 H 1355.44 -2.27673 1.94436 0
M  V30 14362 H 1352.99 -1.09408 0.936258 0
M  V30 14363 H 1354.94 -4.19131 0.436715 0
M  V30 14364 H 1353.66 -3.2451 -0.368855 0
M  V30 14365 H 1352.32 -3.21401 1.76343 0
M  V30 14366 H 1351.97 -5.02937 0.0795747 0
M  V30 14367 H 1351.67 -5.61387 1.73547 0
M  V30 14368 H 1353.19 -6.03851 0.905349 0
M  V30 14369 H 1354.61 -4.94699 2.89734 0
M  V30 14370 H 1353 -4.75242 3.66422 0
M  V30 14371 H 1354.07 -3.34752 3.50812 0
M  V30 14372 N 1355.42 -1.03311 -1.19015 0
M  V30 14373 C 1356.83 -0.761079 -1.70483 0
M  V30 14374 C 1357.18 0.718851 -1.82557 0
M  V30 14375 O 1356.3 1.56006 -1.4997 0
M  V30 14376 C 1356.9 -1.37492 -3.09647 0
M  V30 14377 C 1355.46 -1.15138 -3.58358 0
M  V30 14378 C 1354.61 -1.47034 -2.35109 0
M  V30 14379 H 1357.56 -1.2005 -1.03797 0
M  V30 14380 H 1357.58 -0.774115 -3.72542 0
M  V30 14381 H 1357.09 -2.45203 -3.00828 0
M  V30 14382 H 1355.19 -0.0926822 -3.72485 0
M  V30 14383 H 1355.3 -1.84307 -4.4223 0
M  V30 14384 H 1353.67 -0.889794 -2.38652 0
M  V30 14385 H 1354.45 -2.55837 -2.28916 0
M  V30 14386 N 1356.9 1.35099 -0.81154 0
M  V30 14387 C 1358.31 1.81082 -0.454543 0
M  V30 14388 C 1358.66 1.67361 1.02395 0
M  V30 14389 O 1357.78 1.20707 1.79607 0
M  V30 14390 C 1358.38 3.2877 -0.818274 0
M  V30 14391 C 1356.94 3.72877 -0.513808 0
M  V30 14392 C 1356.08 2.57008 -1.04125 0
M  V30 14393 H 1359.03 1.23007 -1.00274 0
M  V30 14394 H 1359.06 3.80318 -0.117683 0
M  V30 14395 H 1358.57 3.38725 -1.89439 0
M  V30 14396 H 1356.67 3.68468 0.553368 0
M  V30 14397 H 1356.78 4.67455 -1.0499 0
M  V30 14398 H 1355.15 2.5045 -0.463337 0
M  V30 14399 H 1355.93 2.69738 -2.12358 0
M  V30 14400 N 1358.37 0.56548 1.47106 0
M  V30 14401 C 1359.62 0.042333 2.01656 0
M  V30 14402 C 1359.94 -1.31892 1.44443 0
M  V30 14403 O 1361.14 -1.93245 1.90706 0
M  V30 14404 C 1359.6 0.0251556 3.59891 0
M  V30 14405 C 1359.21 1.38367 4.26097 0
M  V30 14406 C 1360.95 -0.44495 4.22162 0
M  V30 14407 C 1358.86 1.32516 5.76362 0
M  V30 14408 H 1357.79 0.0120557 0.753904 0
M  V30 14409 H 1360.44 0.714565 1.69015 0
M  V30 14410 H 1358.82 -0.712893 3.8953 0
M  V30 14411 H 1359.99 2.14009 4.08089 0
M  V30 14412 H 1358.31 1.79239 3.75849 0
M  V30 14413 H 1360.91 -0.507256 5.32288 0
M  V30 14414 H 1361.25 -1.45876 3.89905 0
M  V30 14415 H 1361.78 0.238496 3.97084 0
M  V30 14416 H 1358.52 2.31523 6.13252 0
M  V30 14417 H 1358.04 0.610674 5.96683 0
M  V30 14418 H 1359.72 1.03072 6.38737 0
M  V30 14419 N 1359.85 -1.54672 0.302354 0
M  V30 14420 C 1360.82 -2.22246 -0.560283 0
M  V30 14421 C 1361.82 -1.20895 -1.06023 0
M  V30 14422 O 1363.01 -1.45621 -0.956047 0
M  V30 14423 C 1360.14 -2.9099 -1.77589 0
M  V30 14424 H 1361.33 -2.99885 0.0301274 0
M  V30 14425 H 1358.88 -1.56209 0.0532036 0
M  V30 14426 H 1359.62 -2.17433 -2.4061 0
M  V30 14427 H 1359.4 -3.65288 -1.42503 0
M  V30 14428 H 1360.89 -3.42535 -2.38871 0
M  V30 14429 N 1361.33 -0.0301034 -1.57571 0
M  V30 14430 C 1362.56 0.662045 -1.9655 0
M  V30 14431 C 1362.98 1.64811 -0.906581 0
M  V30 14432 O 1362.34 1.80816 0.132415 0
M  V30 14433 C 1362.39 1.34389 -3.34622 0
M  V30 14434 O 1361.49 2.45919 -3.31056 0
M  V30 14435 H 1360.83 0.173842 -0.640839 0
M  V30 14436 H 1363.36 -0.092248 -2.04392 0
M  V30 14437 H 1363.37 1.70045 -3.70875 0
M  V30 14438 H 1362.05 0.621092 -4.11236 0
M  V30 14439 H 1360.62 2.12367 -3.06521 0
M  V30 14440 N 1362.81 1.55714 0.243056 0
M  V30 14441 C 1363.74 1.93655 1.30461 0
M  V30 14442 C 1364.72 0.801968 1.50008 0
M  V30 14443 O 1365.9 1.06256 1.62552 0
M  V30 14444 C 1363.03 2.23459 2.65863 0
M  V30 14445 C 1361.99 3.39205 2.61006 0
M  V30 14446 C 1361.31 3.5456 4.00239 0
M  V30 14447 C 1362.61 4.74787 2.17656 0
M  V30 14448 H 1364.31 2.82575 0.98954 0
M  V30 14449 H 1361.85 1.35955 0.474572 0
M  V30 14450 H 1363.81 2.48591 3.40266 0
M  V30 14451 H 1362.53 1.31369 2.99014 0
M  V30 14452 H 1361.19 3.14088 1.89061 0
M  V30 14453 H 1360.84 2.59884 4.30661 0
M  V30 14454 H 1360.54 4.32399 3.97876 0
M  V30 14455 H 1362.06 3.82017 4.76335 0
M  V30 14456 H 1363.48 4.99266 2.81792 0
M  V30 14457 H 1361.87 5.55756 2.26397 0
M  V30 14458 H 1362.94 4.7159 1.12831 0
M  V30 14459 N 1364.29 -0.50888 1.49158 0
M  V30 14460 C 1365.23 -1.61129 1.65246 0
M  V30 14461 C 1366.2 -1.58582 0.49405 0
M  V30 14462 O 1367.39 -1.76689 0.720122 0
M  V30 14463 C 1364.53 -2.99311 1.71776 0
M  V30 14464 C 1363.64 -3.11933 2.98868 0
M  V30 14465 C 1362.78 -4.408 2.96426 0
M  V30 14466 C 1361.82 -4.47027 4.18131 0
M  V30 14467 N 1360.95 -5.67311 4.13645 0
M  V30 14468 H 1365.79 -1.4672 2.59379 0
M  V30 14469 H 1363.33 -0.713978 1.28611 0
M  V30 14470 H 1365.29 -3.79392 1.73543 0
M  V30 14471 H 1363.92 -3.12442 0.811159 0
M  V30 14472 H 1362.97 -2.24966 3.06748 0
M  V30 14473 H 1364.28 -3.12393 3.8886 0
M  V30 14474 H 1363.44 -5.29194 2.96712 0
M  V30 14475 H 1362.17 -4.42893 2.04199 0
M  V30 14476 H 1361.18 -3.57036 4.18097 0
M  V30 14477 H 1362.4 -4.46656 5.11542 0
M  V30 14478 H 1360.35 -5.70261 3.2425 0
M  V30 14479 H 1360.27 -5.69355 4.97364 0
M  V30 14480 H 1361.54 -6.57934 4.18022 0
M  V30 14481 N 1365.76 -1.381 -0.759346 0
M  V30 14482 C 1366.7 -1.3075 -1.88248 0
M  V30 14483 C 1367.71 -0.220835 -1.61295 0
M  V30 14484 O 1368.9 -0.477952 -1.71982 0
M  V30 14485 C 1366 -1.00174 -3.23757 0
M  V30 14486 C 1365.17 -2.19635 -3.78258 0
M  V30 14487 C 1364.23 -1.85892 -4.92271 0
M  V30 14488 O 1363.26 -2.58325 -5.07205 0
M  V30 14489 N 1364.46 -0.810436 -5.74815 0
M  V30 14490 H 1367.22 -2.27529 -1.95065 0
M  V30 14491 H 1364.78 -1.31886 -0.93902 0
M  V30 14492 H 1366.78 -0.756631 -3.97564 0
M  V30 14493 H 1365.35 -0.122094 -3.12361 0
M  V30 14494 H 1364.57 -2.60246 -2.96084 0
M  V30 14495 H 1365.85 -2.99373 -4.11404 0
M  V30 14496 H 1365.25 -0.209644 -5.65311 0
M  V30 14497 H 1363.81 -0.625206 -6.48795 0
M  V30 14498 N 1367.24 0.986894 -1.22875 0
M  V30 14499 C 1368.48 1.74243 -1.06859 0
M  V30 14500 C 1368.85 1.88024 0.388736 0
M  V30 14501 O 1370.05 2.60318 0.669907 0
M  V30 14502 C 1368.32 3.10668 -1.76692 0
M  V30 14503 S 1369.88 4.01884 -1.76166 0
M  V30 14504 H 1366.7 0.59931 -0.382555 0
M  V30 14505 H 1369.3 1.17951 -1.55909 0
M  V30 14506 H 1368 2.98285 -2.81877 0
M  V30 14507 H 1367.53 3.7203 -1.27897 0
M  V30 14508 H 1369.55 4.89451 -0.815627 0
M  V30 14509 N 1368.72 1.0394 1.18466 0
M  V30 14510 C 1369.65 0.650182 2.24265 0
M  V30 14511 C 1370.63 -0.345968 1.66545 0
M  V30 14512 O 1371.82 -0.226348 1.92876 0
M  V30 14513 C 1368.95 0.0110451 3.47298 0
M  V30 14514 C 1367.9 0.930599 4.17761 0
M  V30 14515 C 1367.23 0.156005 5.34472 0
M  V30 14516 C 1368.53 2.24913 4.71393 0
M  V30 14517 H 1370.22 1.53465 2.57078 0
M  V30 14518 H 1367.77 0.739343 1.23571 0
M  V30 14519 H 1369.72 -0.272959 4.20515 0
M  V30 14520 H 1368.44 -0.908288 3.13716 0
M  V30 14521 H 1367.1 1.19897 3.4644 0
M  V30 14522 H 1366.75 -0.765695 4.97138 0
M  V30 14523 H 1366.45 0.768606 5.82551 0
M  V30 14524 H 1367.97 -0.121011 6.1048 0
M  V30 14525 H 1369.39 2.02592 5.36311 0
M  V30 14526 H 1367.79 2.81459 5.30001 0
M  V30 14527 H 1368.86 2.8965 3.88884 0
M  V30 14528 N 1370.2 -1.34667 0.818693 0
M  V30 14529 C 1371.13 -2.32134 0.252239 0
M  V30 14530 C 1372.11 -1.58044 -0.628982 0
M  V30 14531 O 1373.29 -1.86049 -0.55674 0
M  V30 14532 C 1370.42 -3.42249 -0.590183 0
M  V30 14533 C 1369.38 -4.27562 0.193547 0
M  V30 14534 C 1368.7 -5.29107 -0.771349 0
M  V30 14535 C 1370 -5.03205 1.39936 0
M  V30 14536 H 1371.7 -2.79758 1.06657 0
M  V30 14537 H 1369.24 -1.34502 0.514325 0
M  V30 14538 H 1371.2 -4.09445 -0.996616 0
M  V30 14539 H 1369.92 -2.93262 -1.43752 0
M  V30 14540 H 1368.58 -3.61962 0.581297 0
M  V30 14541 H 1368.23 -4.76384 -1.61453 0
M  V30 14542 H 1367.93 -5.87063 -0.251201 0
M  V30 14543 H 1369.45 -5.99174 -1.17573 0
M  V30 14544 H 1370.87 -5.6328 1.06717 0
M  V30 14545 H 1369.26 -5.70715 1.85485 0
M  V30 14546 H 1370.33 -4.33145 2.17976 0
M  V30 14547 N 1371.68 -0.573274 -1.46804 0
M  V30 14548 C 1372.9 -0.0605984 -2.06811 0
M  V30 14549 C 1373.32 1.24024 -1.4235 0
M  V30 14550 O 1372.68 1.7477 -0.525515 0
M  V30 14551 C 1372.73 0.121828 -3.61295 0
M  V30 14552 O 1372.45 -1.12751 -4.23342 0
M  V30 14553 C 1373.95 0.669941 -4.38208 0
M  V30 14554 H 1371.17 -0.0531498 -0.668892 0
M  V30 14555 H 1373.71 -0.791259 -1.88572 0
M  V30 14556 H 1371.87 0.802674 -3.78993 0
M  V30 14557 H 1372.28 -0.935361 -5.16092 0
M  V30 14558 H 1373.76 0.746806 -5.46925 0
M  V30 14559 H 1374.23 1.68483 -4.05598 0
M  V30 14560 H 1374.84 0.0242721 -4.25293 0
M  V30 14561 N 1373.15 1.5451 -0.310553 0
M  V30 14562 C 1374.08 2.26827 0.554243 0
M  V30 14563 C 1375.07 1.27133 1.13009 0
M  V30 14564 O 1376.25 1.55923 1.15765 0
M  V30 14565 C 1373.38 3.01626 1.7216 0
M  V30 14566 C 1372.33 4.08547 1.27566 0
M  V30 14567 C 1371.66 4.71115 2.52893 0
M  V30 14568 C 1372.96 5.20766 0.399955 0
M  V30 14569 H 1374.65 2.9936 -0.0489475 0
M  V30 14570 H 1372.2 1.43978 -0.0249817 0
M  V30 14571 H 1374.15 3.50942 2.33276 0
M  V30 14572 H 1372.88 2.26688 2.35118 0
M  V30 14573 H 1371.54 3.60096 0.687499 0
M  V30 14574 H 1371.18 3.92805 3.14186 0
M  V30 14575 H 1370.88 5.43331 2.23752 0
M  V30 14576 H 1372.41 5.23198 3.14796 0
M  V30 14577 H 1373.82 5.65918 0.917054 0
M  V30 14578 H 1372.22 5.9976 0.2019 0
M  V30 14579 H 1373.29 4.81508 -0.572537 0
M  V30 14580 N 1374.63 0.0384594 1.57553 0
M  V30 14581 C 1375.86 -0.651613 1.96898 0
M  V30 14582 C 1376.28 -1.64328 0.915308 0
M  V30 14583 O 1375.64 -1.80883 -0.122824 0
M  V30 14584 C 1375.69 -1.32613 3.3533 0
M  V30 14585 O 1374.79 -2.44159 3.32355 0
M  V30 14586 H 1374.13 -0.170441 0.641752 0
M  V30 14587 H 1376.66 0.103086 2.0434 0
M  V30 14588 H 1376.67 -1.68076 3.71772 0
M  V30 14589 H 1375.35 -0.599275 4.1156 0
M  V30 14590 H 1373.93 -2.10738 3.07642 0
M  V30 14591 N 1376.11 -1.55841 -0.234795 0
M  V30 14592 C 1377.34 -1.82649 -0.982547 0
M  V30 14593 C 1377.76 -0.617097 -1.77689 0
M  V30 14594 O 1377.12 0.434022 -1.76028 0
M  V30 14595 C 1377.17 -3.07319 -1.88646 0
M  V30 14596 O 1376.27 -2.85084 -2.97995 0
M  V30 14597 H 1375.61 -0.60257 -0.278936 0
M  V30 14598 H 1378.14 -2.03041 -0.252117 0
M  V30 14599 H 1378.15 -3.37073 -2.29882 0
M  V30 14600 H 1376.83 -3.94978 -1.30251 0
M  V30 14601 H 1375.4 -2.66528 -2.60801 0
M  V30 14602 N 1377.59 0.500963 -1.49426 0
M  V30 14603 C 1379.01 0.832142 -1.36189 0
M  V30 14604 C 1379.21 1.9759 -0.395014 0
M  V30 14605 O 1378.26 2.51905 0.173294 0
M  V30 14606 C 1379.57 1.17232 -2.76907 0
M  V30 14607 C 1381.12 1.28052 -2.85607 0
M  V30 14608 C 1381.6 1.65399 -4.27092 0
M  V30 14609 N 1383.09 1.72448 -4.29902 0
M  V30 14610 C 1383.82 2.02789 -5.36343 0
M  V30 14611 N 1383.32 2.31354 -6.53029 0
M  V30 14612 N 1385.11 2.0404 -5.23759 0
M  V30 14613 H 1377.26 -0.253253 -2.10885 0
M  V30 14614 H 1379.53 -0.0507111 -0.946643 0
M  V30 14615 H 1379.23 0.405247 -3.49357 0
M  V30 14616 H 1379.11 2.11574 -3.12276 0
M  V30 14617 H 1381.49 2.03831 -2.13394 0
M  V30 14618 H 1381.57 0.317603 -2.53821 0
M  V30 14619 H 1381.22 0.901704 -4.99832 0
M  V30 14620 H 1381.15 2.6279 -4.56343 0
M  V30 14621 H 1383.64 1.52532 -3.45749 0
M  V30 14622 H 1383.95 2.53695 -7.29972 0
M  V30 14623 H 1382.3 2.28811 -6.56255 0
M  V30 14624 H 1385.49 1.812 -4.31606 0
M  V30 14625 H 1385.66 2.27353 -6.06807 0
M  V30 14626 N 1379.07 1.38501 0.752011 0
M  V30 14627 C 1380 1.38577 1.87933 0
M  V30 14628 C 1380.98 0.251454 1.68231 0
M  V30 14629 O 1382.16 0.45477 1.888 0
M  V30 14630 C 1379.29 1.21164 3.25479 0
M  V30 14631 C 1378.25 2.31816 3.59785 0
M  V30 14632 C 1377.57 1.99508 4.96085 0
M  V30 14633 C 1378.87 3.74082 3.645 0
M  V30 14634 H 1380.57 2.32913 1.88127 0
M  V30 14635 H 1378.11 1.12113 0.903698 0
M  V30 14636 H 1380.07 1.19842 4.04 0
M  V30 14637 H 1378.79 0.232899 3.25769 0
M  V30 14638 H 1377.45 2.32327 2.83584 0
M  V30 14639 H 1377.1 1.00114 4.92936 0
M  V30 14640 H 1376.8 2.73617 5.20007 0
M  V30 14641 H 1378.32 1.99807 5.76983 0
M  V30 14642 H 1379.74 3.75593 4.33131 0
M  V30 14643 H 1378.13 4.47409 3.99931 0
M  V30 14644 H 1379.2 4.06284 2.64692 0
M  V30 14645 N 1380.55 -0.980364 1.23396 0
M  V30 14646 C 1381.79 -1.71592 1.06015 0
M  V30 14647 C 1382.11 -1.91401 -0.403103 0
M  V30 14648 O 1383.31 -2.62405 -0.696853 0
M  V30 14649 C 1381.77 -3.08795 1.84861 0
M  V30 14650 C 1381.38 -2.96873 3.35515 0
M  V30 14651 C 1383.12 -3.8631 1.75968 0
M  V30 14652 C 1381.03 -4.29308 4.06753 0
M  V30 14653 H 1379.96 -0.643423 0.393095 0
M  V30 14654 H 1382.61 -1.09345 1.47363 0
M  V30 14655 H 1380.99 -3.71797 1.36318 0
M  V30 14656 H 1382.17 -2.4296 3.91544 0
M  V30 14657 H 1380.48 -2.32833 3.45221 0
M  V30 14658 H 1383.08 -4.84355 2.26504 0
M  V30 14659 H 1383.42 -4.09983 0.722464 0
M  V30 14660 H 1383.95 -3.3001 2.22122 0
M  V30 14661 H 1380.69 -4.10831 5.10782 0
M  V30 14662 H 1380.21 -4.83086 3.55511 0
M  V30 14663 H 1381.89 -4.97995 4.1305 0
M  V30 14664 N 1382.02 -1.04567 -1.17913 0
M  V30 14665 C 1383.25 -0.772204 -1.9195 0
M  V30 14666 C 1383.67 0.671303 -1.76462 0
M  V30 14667 O 1383.02 1.45805 -1.0976 0
M  V30 14668 C 1383.07 -1.13539 -3.43207 0
M  V30 14669 O 1382.8 -2.52223 -3.58211 0
M  V30 14670 C 1384.3 -0.887146 -4.34332 0
M  V30 14671 H 1381.52 -0.281234 -0.609219 0
M  V30 14672 H 1384.06 -1.39467 -1.49563 0
M  V30 14673 H 1382.22 -0.557784 -3.83363 0
M  V30 14674 H 1382.63 -2.66275 -4.51882 0
M  V30 14675 H 1384.1 -1.19107 -5.38997 0
M  V30 14676 H 1384.58 0.1779 -4.3884 0
M  V30 14677 H 1385.19 -1.44829 -3.99881 0
M  V30 14678 N 1383.5 1.34231 -0.825823 0
M  V30 14679 C 1384.73 2.02949 -0.427354 0
M  V30 14680 C 1385.15 1.61772 0.959755 0
M  V30 14681 O 1384.51 0.803799 1.62508 0
M  V30 14682 C 1384.56 3.56522 -0.540799 0
M  V30 14683 O 1383.66 4.10065 0.438213 0
M  V30 14684 H 1383 0.640378 -0.175535 0
M  V30 14685 H 1385.53 1.71416 -1.11704 0
M  V30 14686 H 1385.54 4.05857 -0.41763 0
M  V30 14687 H 1384.22 3.85839 -1.55246 0
M  V30 14688 H 1382.79 3.71894 0.273687 0
M  V30 14689 N 1384.98 0.581051 1.46498 0
M  V30 14690 C 1386.26 -0.000789846 1.956 0
M  V30 14691 C 1386.64 -1.46104 1.52371 0
M  V30 14692 O 1385.98 -2.15005 0.773623 0
M  V30 14693 C 1386.19 0.169534 3.48588 0
M  V30 14694 C 1387.54 0.036499 4.24584 0
M  V30 14695 O 1388.57 0.0982852 3.56064 0
M  V30 14696 O 1387.43 -0.100571 5.46407 0
M  V30 14697 H 1384.52 -0.050749 0.825441 0
M  V30 14698 H 1387.07 0.649252 1.56789 0
M  V30 14699 H 1385.84 1.18473 3.72934 0
M  V30 14700 H 1385.46 -0.517017 3.94224 0
M  V30 14701 N 1386.46 -1.54343 0.318742 0
M  V30 14702 C 1387.41 -2.25634 -0.56497 0
M  V30 14703 C 1388.4 -1.26869 -1.12252 0
M  V30 14704 O 1389.61 -1.44662 -1.07112 0
M  V30 14705 H 1385.98 -0.724686 -0.200834 0
M  V30 14706 H 1387.95 -2.98342 0.0586393 0
M  V30 14707 C 1386.7 -3.0237 -1.71662 0
M  V30 14708 H 1386.02 -3.78183 -1.29684 0
M  V30 14709 H 1387.46 -3.55507 -2.31065 0
M  V30 14710 C 1385.92 -2.10383 -2.63136 0
M  V30 14711 O 1386.45 -1.68351 -3.6472 0
M  V30 14712 N 1384.66 -1.75971 -2.31263 0
M  V30 14713 H 1384.21 -2.10349 -1.48698 0
M  V30 14714 H 1384.16 -1.14702 -2.9273 0
M  V30 14715 N 1387.94 -0.0468143 -1.5753 0
M  V30 14716 C 1389.16 0.637648 -1.96829 0
M  V30 14717 C 1389.58 1.64635 -0.924158 0
M  V30 14718 O 1388.94 1.82267 0.0921139 0
M  V30 14719 C 1388.99 1.32842 -3.36207 0
M  V30 14720 O 1388.71 0.360111 -4.36617 0
M  V30 14721 C 1390.21 2.10305 -3.90239 0
M  V30 14722 H 1387.43 0.174634 -0.647876 0
M  V30 14723 H 1389.97 -0.111824 -2.04194 0
M  V30 14724 H 1388.13 2.02915 -3.30006 0
M  V30 14725 H 1388.54 0.852661 -5.17523 0
M  V30 14726 H 1390.02 2.54065 -4.90056 0
M  V30 14727 H 1390.49 2.94942 -3.25432 0
M  V30 14728 H 1391.1 1.45152 -3.99764 0
M  V30 14729 N 1389.41 1.55964 0.226527 0
M  V30 14730 C 1390.83 1.68978 0.793936 0
M  V30 14731 C 1391.18 0.647938 1.85192 0
M  V30 14732 O 1390.3 -0.201907 2.15456 0
M  V30 14733 C 1390.9 3.06351 1.44687 0
M  V30 14734 C 1389.46 3.21237 1.96173 0
M  V30 14735 C 1388.6 2.64896 0.8201 0
M  V30 14736 H 1391.55 1.587 0.00195967 0
M  V30 14737 H 1391.57 3.01932 2.31554 0
M  V30 14738 H 1391.09 3.82156 0.676611 0
M  V30 14739 H 1389.19 2.50292 2.76016 0
M  V30 14740 H 1389.3 4.28394 2.14512 0
M  V30 14741 H 1387.66 2.23247 1.22609 0
M  V30 14742 H 1388.45 3.43243 0.0625967 0
M  V30 14743 N 1390.89 -0.493031 1.4969 0
M  V30 14744 C 1392.12 -1.27517 1.63567 0
M  V30 14745 C 1392.54 -1.85526 0.310105 0
M  V30 14746 O 1391.9 -1.66246 -0.723314 0
M  V30 14747 C 1391.95 -2.37551 2.71296 0
M  V30 14748 O 1391.05 -3.41617 2.31023 0
M  V30 14749 H 1390.39 -0.376116 0.547205 0
M  V30 14750 H 1392.92 -0.589328 1.95929 0
M  V30 14751 H 1392.93 -2.83196 2.93708 0
M  V30 14752 H 1391.61 -1.94697 3.67513 0
M  V30 14753 H 1390.19 -3.01836 2.18974 0
M  V30 14754 N 1392.37 -1.38898 -0.744656 0
M  V30 14755 C 1393.62 -1.35795 -1.50623 0
M  V30 14756 C 1393.95 0.0491775 -1.94138 0
M  V30 14757 O 1393.22 1.01219 -1.66087 0
M  V30 14758 C 1393.51 -2.32168 -2.75263 0
M  V30 14759 C 1393.36 -3.81781 -2.3783 0
M  V30 14760 C 1394.68 -2.26526 -3.77325 0
M  V30 14761 H 1391.8 -0.494591 -0.546396 0
M  V30 14762 H 1394.44 -1.69816 -0.852211 0
M  V30 14763 H 1392.59 -2.03287 -3.31069 0
M  V30 14764 H 1394.26 -4.21373 -1.8773 0
M  V30 14765 H 1392.51 -3.99027 -1.70176 0
M  V30 14766 H 1393.18 -4.44687 -3.27044 0
M  V30 14767 H 1395.65 -2.52041 -3.31081 0
M  V30 14768 H 1394.53 -2.96053 -4.62216 0
M  V30 14769 H 1394.79 -1.26705 -4.23554 0
M  V30 14770 N 1393.85 0.973806 -1.23914 0
M  V30 14771 C 1395.07 1.7564 -1.10296 0
M  V30 14772 C 1395.5 1.84984 0.340954 0
M  V30 14773 O 1394.86 1.31629 1.24674 0
M  V30 14774 C 1394.9 3.15809 -1.7406 0
M  V30 14775 O 1394.01 3.99911 -1.00722 0
M  V30 14776 H 1393.35 0.540133 -0.386202 0
M  V30 14777 H 1395.88 1.22197 -1.64101 0
M  V30 14778 H 1395.89 3.66359 -1.79568 0
M  V30 14779 H 1394.56 3.08324 -2.79122 0
M  V30 14780 H 1393.14 3.58405 -1.02956 0
M  V30 14781 N 1395.33 1.05191 1.17357 0
M  V30 14782 C 1396.26 0.673931 2.23563 0
M  V30 14783 C 1397.24 -0.328284 1.66902 0
M  V30 14784 O 1398.42 -0.205878 1.93106 0
M  V30 14785 C 1395.55 0.0478801 3.47267 0
M  V30 14786 C 1394.51 0.974855 4.1675 0
M  V30 14787 C 1393.83 0.212684 5.34277 0
M  V30 14788 C 1395.13 2.299 4.68981 0
M  V30 14789 H 1396.83 1.56183 2.55436 0
M  V30 14790 H 1394.37 0.752408 1.2278 0
M  V30 14791 H 1396.33 -0.228343 4.20781 0
M  V30 14792 H 1395.05 -0.874963 3.14662 0
M  V30 14793 H 1393.71 1.23564 3.45148 0
M  V30 14794 H 1393.36 -0.712924 4.97922 0
M  V30 14795 H 1393.06 0.830351 5.81703 0
M  V30 14796 H 1394.58 -0.056255 6.10574 0
M  V30 14797 H 1395.99 2.08269 5.34132 0
M  V30 14798 H 1394.39 2.87064 5.26986 0
M  V30 14799 H 1395.46 2.93759 3.8579 0
M  V30 14800 N 1396.8 -1.33791 0.83293 0
M  V30 14801 C 1398.05 -1.98266 0.426412 0
M  V30 14802 C 1398.38 -1.65848 -1.01035 0
M  V30 14803 O 1397.66 -0.93528 -1.70537 0
M  V30 14804 C 1397.94 -3.54356 0.640586 0
M  V30 14805 C 1397.79 -3.96482 2.12419 0
M  V30 14806 C 1399.11 -4.40022 0.0829237 0
M  V30 14807 H 1396.23 -0.720213 0.156404 0
M  V30 14808 H 1398.87 -1.58527 1.04735 0
M  V30 14809 H 1397.02 -3.88338 0.11204 0
M  V30 14810 H 1398.7 -3.72786 2.71714 0
M  V30 14811 H 1396.94 -3.46429 2.61092 0
M  V30 14812 H 1397.61 -5.05179 2.22482 0
M  V30 14813 H 1400.09 -4.12651 0.534634 0
M  V30 14814 H 1398.96 -5.48272 0.262511 0
M  V30 14815 H 1399.22 -4.30341 -1.01287 0
M  V30 14816 N 1398.28 -0.588812 -1.46187 0
M  V30 14817 C 1399.22 0.189417 -2.27413 0
M  V30 14818 C 1400.19 0.891224 -1.36 0
M  V30 14819 O 1401.38 0.903883 -1.65415 0
M  V30 14820 C 1398.5 1.27233 -3.13894 0
M  V30 14821 C 1397.55 0.675705 -4.21113 0
M  V30 14822 S 1398.38 -0.502093 -5.33141 0
M  V30 14823 C 1399.54 0.581875 -6.23189 0
M  V30 14824 H 1399.77 -0.499754 -2.9307 0
M  V30 14825 H 1397.31 -0.375854 -1.49755 0
M  V30 14826 H 1399.26 1.89233 -3.64282 0
M  V30 14827 H 1397.92 1.93348 -2.47538 0
M  V30 14828 H 1397.12 1.48991 -4.81475 0
M  V30 14829 H 1396.72 0.131249 -3.7377 0
M  V30 14830 H 1399.01 1.46594 -6.6145 0
M  V30 14831 H 1399.95 0.0148739 -7.08098 0
M  V30 14832 H 1400.36 0.888764 -5.5746 0
M  V30 14833 N 1399.76 1.54172 -0.326923 0
M  V30 14834 C 1400.71 2.24454 0.537501 0
M  V30 14835 C 1401.68 1.23658 1.10896 0
M  V30 14836 O 1402.86 1.52348 1.14868 0
M  V30 14837 C 1400 3.00839 1.69085 0
M  V30 14838 C 1399.12 4.16459 1.1483 0
M  V30 14839 C 1398.25 4.80368 2.26761 0
M  V30 14840 C 1397.29 5.88085 1.69771 0
M  V30 14841 N 1396.43 6.45842 2.75378 0
M  V30 14842 H 1401.27 2.97921 -0.0684022 0
M  V30 14843 H 1398.8 1.4703 -0.0455287 0
M  V30 14844 H 1400.76 3.43375 2.36959 0
M  V30 14845 H 1399.39 2.297 2.26799 0
M  V30 14846 H 1398.44 3.78683 0.361004 0
M  V30 14847 H 1399.76 4.93986 0.69132 0
M  V30 14848 H 1398.91 5.25889 3.02533 0
M  V30 14849 H 1397.65 4.02228 2.75796 0
M  V30 14850 H 1396.65 5.41963 0.924985 0
M  V30 14851 H 1397.88 6.68123 1.21609 0
M  V30 14852 H 1395.82 5.70574 3.23699 0
M  V30 14853 H 1395.74 7.18792 2.34253 0
M  V30 14854 H 1397.01 6.96018 3.50969 0
M  V30 14855 N 1401.24 0.0551678 1.57503 0
M  V30 14856 C 1402.52 -0.657808 1.84207 0
M  V30 14857 C 1402.9 -1.88798 0.944372 0
M  V30 14858 O 1402.24 -2.28499 0.00641728 0
M  V30 14859 C 1402.45 -1.0113 3.34026 0
M  V30 14860 C 1403.8 -1.39189 4.01138 0
M  V30 14861 O 1404.83 -1.10353 3.38675 0
M  V30 14862 O 1403.68 -1.93023 5.11277 0
M  V30 14863 H 1400.78 -0.325084 0.760427 0
M  V30 14864 H 1403.32 0.0848352 1.69488 0
M  V30 14865 H 1402.1 -0.13688 3.91061 0
M  V30 14866 H 1401.72 -1.81126 3.53948 0
M  V30 14867 N 1402.72 -1.56081 -0.218252 0
M  V30 14868 C 1403.94 -1.83681 -0.963119 0
M  V30 14869 C 1404.37 -0.635909 -1.77025 0
M  V30 14870 O 1403.72 0.415327 -1.76479 0
M  V30 14871 C 1403.77 -3.09302 -1.85376 0
M  V30 14872 O 1402.88 -2.88228 -2.94955 0
M  V30 14873 H 1402.22 -0.605495 -0.272529 0
M  V30 14874 H 1404.75 -2.03297 -0.230567 0
M  V30 14875 H 1404.76 -3.39493 -2.26294 0
M  V30 14876 H 1403.43 -3.96337 -1.26054 0
M  V30 14877 H 1402.01 -2.69279 -2.57959 0
M  V30 14878 N 1404.2 0.485086 -1.49949 0
M  V30 14879 C 1405.44 1.23816 -1.60237 0
M  V30 14880 C 1405.77 1.9223 -0.296274 0
M  V30 14881 O 1405.03 1.82095 0.716939 0
M  V30 14882 C 1405.32 2.31573 -2.72229 0
M  V30 14883 C 1404.99 1.80508 -4.13192 0
M  V30 14884 C 1403.65 1.66301 -4.5155 0
M  V30 14885 C 1406 1.42471 -5.0135 0
M  V30 14886 C 1403.33 1.1246 -5.75821 0
M  V30 14887 C 1405.68 0.900757 -6.26154 0
M  V30 14888 C 1404.35 0.74521 -6.63327 0
M  V30 14889 H 1403.62 0.453075 -0.586348 0
M  V30 14890 H 1406.27 0.536349 -1.83836 0
M  V30 14891 H 1404.57 3.07606 -2.42663 0
M  V30 14892 H 1406.27 2.89574 -2.77395 0
M  V30 14893 H 1402.86 1.92529 -3.82924 0
M  V30 14894 H 1407.04 1.52287 -4.72358 0
M  V30 14895 H 1402.3 0.991422 -6.03308 0
M  V30 14896 H 1406.47 0.5973 -6.93834 0
M  V30 14897 H 1404.1 0.325838 -7.59501 0
M  V30 14898 N 1405.67 1.39291 0.737279 0
M  V30 14899 C 1407.08 1.32489 1.31543 0
M  V30 14900 C 1407.44 -0.0118162 1.96196 0
M  V30 14901 O 1406.56 -0.913938 1.96153 0
M  V30 14902 C 1407.16 2.39946 2.39189 0
M  V30 14903 C 1405.71 2.36671 2.92684 0
M  V30 14904 C 1404.86 2.21953 1.66229 0
M  V30 14905 H 1407.81 1.49412 0.534954 0
M  V30 14906 H 1407.83 2.06603 3.19524 0
M  V30 14907 H 1407.35 3.3722 1.92104 0
M  V30 14908 H 1405.45 1.43028 3.44055 0
M  V30 14909 H 1405.56 3.31441 3.45953 0
M  V30 14910 H 1403.92 1.69087 1.90478 0
M  V30 14911 H 1404.71 3.21194 1.21199 0
M  V30 14912 N 1407.15 -0.967221 1.24429 0
M  V30 14913 C 1408.38 -1.74267 1.10972 0
M  V30 14914 C 1408.79 -1.8611 -0.340522 0
M  V30 14915 O 1408.13 -1.34915 -1.24674 0
M  V30 14916 C 1408.19 -3.18035 1.67613 0
M  V30 14917 C 1407.86 -3.29661 3.16501 0
M  V30 14918 C 1408.86 -3.14952 4.13644 0
M  V30 14919 C 1406.54 -3.53886 3.56469 0
M  V30 14920 C 1408.53 -3.24294 5.48737 0
M  V30 14921 C 1406.22 -3.62866 4.91703 0
M  V30 14922 C 1407.22 -3.48082 5.87646 0
M  V30 14923 O 1406.91 -3.56719 7.20421 0
M  V30 14924 H 1406.64 -0.553293 0.388384 0
M  V30 14925 H 1409.19 -1.22295 1.65025 0
M  V30 14926 H 1407.42 -3.71314 1.07994 0
M  V30 14927 H 1409.11 -3.7739 1.49438 0
M  V30 14928 H 1409.88 -2.9612 3.84107 0
M  V30 14929 H 1405.76 -3.64459 2.82295 0
M  V30 14930 H 1409.3 -3.12672 6.23604 0
M  V30 14931 H 1405.2 -3.81212 5.20911 0
M  V30 14932 H 1405.97 -3.73431 7.28349 0
M  V30 14933 N 1408.63 -1.05812 -1.16797 0
M  V30 14934 C 1409.56 -0.685778 -2.23202 0
M  V30 14935 C 1410.54 0.319428 -1.67074 0
M  V30 14936 O 1411.73 0.195635 -1.93212 0
M  V30 14937 C 1408.86 -0.0662958 -3.47237 0
M  V30 14938 C 1407.81 -0.996943 -4.16227 0
M  V30 14939 C 1407.14 -0.241015 -5.34157 0
M  V30 14940 C 1408.44 -2.32384 -4.67755 0
M  V30 14941 H 1410.13 -1.57535 -2.54604 0
M  V30 14942 H 1407.68 -0.758909 -1.22379 0
M  V30 14943 H 1409.63 0.206024 -4.20896 0
M  V30 14944 H 1408.35 0.858263 -3.15121 0
M  V30 14945 H 1407.01 -1.25393 -3.44488 0
M  V30 14946 H 1406.66 0.686508 -4.98293 0
M  V30 14947 H 1406.36 -0.861188 -5.81255 0
M  V30 14948 H 1407.88 0.0238739 -6.10595 0
M  V30 14949 H 1409.3 -2.11099 -5.3302 0
M  V30 14950 H 1407.69 -2.89855 -5.25456 0
M  V30 14951 H 1408.76 -2.958 -3.84227 0
M  V30 14952 N 1410.11 1.33347 -0.840014 0
M  V30 14953 C 1411.02 2.32965 -0.276527 0
M  V30 14954 C 1412.03 1.634 0.598037 0
M  V30 14955 O 1413.21 1.95046 0.501888 0
M  V30 14956 C 1410.27 3.42498 0.53816 0
M  V30 14957 C 1409.34 4.27781 -0.360814 0
M  V30 14958 C 1408.57 5.32083 0.415085 0
M  V30 14959 O 1408.79 5.46115 1.64666 0
M  V30 14960 O 1407.73 6.01528 -0.211503 0
M  V30 14961 H 1411.55 2.83022 -1.10147 0
M  V30 14962 H 1409.14 1.3671 -0.602566 0
M  V30 14963 H 1411.02 4.09336 1.00108 0
M  V30 14964 H 1409.69 2.94655 1.34015 0
M  V30 14965 H 1408.6 3.63805 -0.871598 0
M  V30 14966 H 1409.93 4.7911 -1.1276 0
M  V30 14967 N 1411.59 0.596556 1.45873 0
M  V30 14968 C 1413 0.173758 1.8589 0
M  V30 14969 C 1413.35 -1.26665 1.49835 0
M  V30 14970 O 1412.47 -1.9588 0.919773 0
M  V30 14971 C 1413.07 0.308567 3.37392 0
M  V30 14972 C 1411.63 -0.0594585 3.76353 0
M  V30 14973 C 1410.77 0.638127 2.69858 0
M  V30 14974 H 1413.72 0.803928 1.36831 0
M  V30 14975 H 1413.75 -0.462294 3.77681 0
M  V30 14976 H 1413.26 1.35701 3.63603 0
M  V30 14977 H 1411.36 -1.1075 3.5576 0
M  V30 14978 H 1411.47 0.326506 4.77986 0
M  V30 14979 H 1409.84 0.0769147 2.54584 0
M  V30 14980 H 1410.62 1.68849 2.98906 0
M  V30 14981 N 1413.06 -1.53996 0.335095 0
M  V30 14982 C 1413.99 -2.2768 -0.518087 0
M  V30 14983 C 1414.97 -1.28915 -1.10972 0
M  V30 14984 O 1416.16 -1.57745 -1.1327 0
M  V30 14985 C 1413.29 -3.04327 -1.67339 0
M  V30 14986 C 1412.24 -4.10525 -1.2105 0
M  V30 14987 C 1411.57 -4.75078 -2.45366 0
M  V30 14988 C 1412.87 -5.21337 -0.317055 0
M  V30 14989 H 1414.56 -2.99244 0.0965669 0
M  V30 14990 H 1412.11 -1.4392 0.0478842 0
M  V30 14991 H 1414.06 -3.54608 -2.27664 0
M  V30 14992 H 1412.79 -2.30399 -2.31481 0
M  V30 14993 H 1411.45 -3.61144 -0.630124 0
M  V30 14994 H 1411.09 -3.97754 -3.07897 0
M  V30 14995 H 1410.79 -5.46822 -2.1508 0
M  V30 14996 H 1412.32 -5.2814 -3.06432 0
M  V30 14997 H 1413.73 -5.67305 -0.826905 0
M  V30 14998 H 1412.13 -6.00006 -0.106458 0
M  V30 14999 H 1413.2 -4.80536 0.649068 0
M  V30 15000 N 1414.54 -0.0635198 -1.57472 0
M  V30 15001 C 1415.79 0.606285 -1.92792 0
M  V30 15002 C 1416.11 1.70648 -0.943615 0
M  V30 15003 O 1415.38 1.95898 0.00957612 0
M  V30 15004 H 1413.96 0.226943 -0.711692 0
M  V30 15005 H 1416.62 -0.119429 -1.94534 0
M  V30 15006 H 1415.72 1.03694 -2.9437 0
M  V30 15007 N 1416.02 1.56195 0.209972 0
M  V30 15008 C 1416.98 1.92514 1.24383 0
M  V30 15009 C 1417.98 0.804793 1.39211 0
M  V30 15010 O 1419.17 1.0724 1.37278 0
M  V30 15011 C 1416.3 2.18613 2.61574 0
M  V30 15012 H 1417.5 2.84992 0.933781 0
M  V30 15013 H 1415.05 1.49656 0.450878 0
M  V30 15014 H 1415.79 1.28724 2.97659 0
M  V30 15015 H 1415.57 3.00241 2.52186 0
M  V30 15016 H 1417.06 2.47767 3.36156 0
M  V30 15017 N 1417.5 -0.477127 1.50204 0
M  V30 15018 C 1418.75 -1.22639 1.60133 0
M  V30 15019 C 1419.06 -1.93218 0.304333 0
M  V30 15020 O 1420.27 -2.70027 0.282457 0
M  V30 15021 C 1418.72 -2.22807 2.82639 0
M  V30 15022 C 1418.33 -1.58059 4.19191 0
M  V30 15023 C 1420.07 -2.98413 3.01911 0
M  V30 15024 C 1417.98 -2.56478 5.32891 0
M  V30 15025 H 1416.91 -0.461439 0.596314 0
M  V30 15026 H 1419.56 -0.497533 1.76626 0
M  V30 15027 H 1417.94 -2.98959 2.59692 0
M  V30 15028 H 1419.12 -0.877374 4.5237 0
M  V30 15029 H 1417.43 -0.947563 4.05475 0
M  V30 15030 H 1420.03 -3.72059 3.84026 0
M  V30 15031 H 1420.37 -3.57444 2.134 0
M  V30 15032 H 1420.91 -2.29375 3.25011 0
M  V30 15033 H 1417.64 -2.02194 6.23536 0
M  V30 15034 H 1417.16 -3.24969 5.04138 0
M  V30 15035 H 1418.84 -3.18429 5.63216 0
M  V30 15036 N 1418.98 -1.3968 -0.729882 0
M  V30 15037 C 1420.39 -1.33184 -1.30839 0
M  V30 15038 C 1420.74 0.00141129 -1.962 0
M  V30 15039 O 1419.86 0.903523 -1.96635 0
M  V30 15040 C 1420.46 -2.41211 -2.37913 0
M  V30 15041 C 1419.02 -2.3822 -2.91424 0
M  V30 15042 C 1418.16 -2.22832 -1.65049 0
M  V30 15043 H 1421.12 -1.49694 -0.527023 0
M  V30 15044 H 1421.14 -2.08294 -3.18424 0
M  V30 15045 H 1420.65 -3.38234 -1.90313 0
M  V30 15046 H 1418.75 -1.4485 -3.43292 0
M  V30 15047 H 1418.86 -3.33271 -3.44191 0
M  V30 15048 H 1417.23 -1.70095 -1.89578 0
M  V30 15049 H 1418.01 -3.21832 -1.19494 0
M  V30 15050 N 1420.45 0.960609 -1.2494 0
M  V30 15051 C 1421.73 1.68035 -1.00118 0
M  V30 15052 C 1422.11 2.057 0.474399 0
M  V30 15053 O 1421.46 1.76569 1.45036 0
M  V30 15054 C 1421.67 2.90708 -1.93106 0
M  V30 15055 C 1423.02 3.62792 -2.20606 0
M  V30 15056 O 1424.04 3.00778 -1.90816 0
M  V30 15057 O 1422.9 4.74443 -2.71231 0
M  V30 15058 H 1419.99 0.734939 -0.379202 0
M  V30 15059 H 1422.54 1.01407 -1.36069 0
M  V30 15060 H 1421.31 2.59619 -2.92769 0
M  V30 15061 H 1420.94 3.65068 -1.57515 0
M  V30 15062 N 1421.93 1.0643 1.16234 0
M  V30 15063 C 1423.18 0.782998 1.87075 0
M  V30 15064 C 1423.51 -0.688852 1.81572 0
M  V30 15065 O 1422.79 -1.50478 1.23234 0
M  V30 15066 C 1423.07 1.27997 3.36584 0
M  V30 15067 C 1422.92 2.81568 3.5077 0
M  V30 15068 C 1424.24 0.888975 4.31028 0
M  V30 15069 H 1421.36 0.28591 0.679282 0
M  V30 15070 H 1424 1.32046 1.36615 0
M  V30 15071 H 1422.15 0.822756 3.79688 0
M  V30 15072 H 1423.82 3.35508 3.16595 0
M  V30 15073 H 1422.07 3.2023 2.92635 0
M  V30 15074 H 1422.74 3.11406 4.55774 0
M  V30 15075 H 1425.21 1.28279 3.95833 0
M  V30 15076 H 1424.09 1.26416 5.34144 0
M  V30 15077 H 1424.35 -0.205973 4.4162 0
M  V30 15078 N 1423.41 -1.329 0.847073 0
M  V30 15079 C 1424.34 -2.27903 0.243522 0
M  V30 15080 C 1425.36 -1.52101 -0.58043 0
M  V30 15081 O 1426.54 -1.73818 -0.406158 0
M  V30 15082 C 1423.64 -3.32107 -0.675118 0
M  V30 15083 C 1422.82 -4.37258 0.111305 0
M  V30 15084 C 1421.88 -5.21085 -0.731933 0
M  V30 15085 O 1420.9 -5.68951 -0.168176 0
M  V30 15086 N 1422.1 -5.43175 -2.04794 0
M  V30 15087 H 1424.87 -2.80335 1.05983 0
M  V30 15088 H 1422.43 -1.4568 0.706322 0
M  V30 15089 H 1424.42 -3.85093 -1.2444 0
M  V30 15090 H 1422.99 -2.79891 -1.39212 0
M  V30 15091 H 1422.21 -3.8466 0.861991 0
M  V30 15092 H 1423.5 -5.04608 0.651756 0
M  V30 15093 H 1422.9 -5.06002 -2.5294 0
M  V30 15094 H 1421.46 -5.99186 -2.56552 0
M  V30 15095 N 1424.89 -0.604284 -1.45555 0
M  V30 15096 C 1425.84 0.116491 -2.30506 0
M  V30 15097 C 1426.81 0.863214 -1.41908 0
M  V30 15098 O 1427.99 0.849606 -1.7084 0
M  V30 15099 C 1425.13 1.11009 -3.26758 0
M  V30 15100 C 1424.24 0.36458 -4.30459 0
M  V30 15101 C 1423.38 1.34761 -5.13822 0
M  V30 15102 C 1422.42 0.589724 -6.09253 0
M  V30 15103 N 1421.55 1.52187 -6.85408 0
M  V30 15104 H 1426.39 -0.61394 -2.91607 0
M  V30 15105 H 1423.93 -0.314561 -1.43697 0
M  V30 15106 H 1425.89 1.69925 -3.81027 0
M  V30 15107 H 1424.52 1.80797 -2.67418 0
M  V30 15108 H 1423.57 -0.340026 -3.78877 0
M  V30 15109 H 1424.88 -0.226906 -4.98284 0
M  V30 15110 H 1424.04 2.00893 -5.72474 0
M  V30 15111 H 1422.78 1.97302 -4.46008 0
M  V30 15112 H 1421.78 -0.0852486 -5.49734 0
M  V30 15113 H 1423.01 -0.0306001 -6.79093 0
M  V30 15114 H 1420.95 2.13499 -6.20286 0
M  V30 15115 H 1420.87 0.983737 -7.49572 0
M  V30 15116 H 1422.14 2.17287 -7.48603 0
M  V30 15117 N 1426.37 1.53816 -0.343257 0
M  V30 15118 C 1427.31 2.25011 0.513664 0
M  V30 15119 C 1428.28 1.24827 1.09578 0
M  V30 15120 O 1429.47 1.53558 1.13245 0
M  V30 15121 C 1426.61 3.02616 1.65885 0
M  V30 15122 C 1425.72 4.17653 1.10406 0
M  V30 15123 C 1424.86 4.82746 2.21653 0
M  V30 15124 C 1423.9 5.89853 1.63524 0
M  V30 15125 N 1423.03 6.48726 2.68512 0
M  V30 15126 H 1427.87 2.97832 -0.099997 0
M  V30 15127 H 1425.41 1.46973 -0.0611206 0
M  V30 15128 H 1427.37 3.45868 2.33304 0
M  V30 15129 H 1426 2.32092 2.2435 0
M  V30 15130 H 1425.05 3.79045 0.320819 0
M  V30 15131 H 1426.36 4.94691 0.638887 0
M  V30 15132 H 1425.52 5.29068 2.96938 0
M  V30 15133 H 1424.25 4.05131 2.71515 0
M  V30 15134 H 1423.26 5.42914 0.86745 0
M  V30 15135 H 1424.48 6.69375 1.14515 0
M  V30 15136 H 1422.43 5.73975 3.17629 0
M  V30 15137 H 1422.35 7.21236 2.26616 0
M  V30 15138 H 1423.62 6.99701 3.43567 0
M  V30 15139 N 1427.84 0.0718701 1.57436 0
M  V30 15140 C 1428.78 -0.931304 2.08331 0
M  V30 15141 C 1429.76 -1.29106 0.988448 0
M  V30 15142 O 1430.94 -1.40035 1.26184 0
M  V30 15143 C 1428.07 -2.23939 2.54104 0
M  V30 15144 C 1427.11 -2.03119 3.75026 0
M  V30 15145 S 1427.95 -1.29048 5.19718 0
M  V30 15146 C 1429.1 -2.61136 5.68822 0
M  V30 15147 H 1429.33 -0.498236 2.93095 0
M  V30 15148 H 1426.87 -0.140897 1.53756 0
M  V30 15149 H 1428.83 -2.9912 2.81136 0
M  V30 15150 H 1427.49 -2.64371 1.69608 0
M  V30 15151 H 1426.68 -2.99927 4.05043 0
M  V30 15152 H 1426.28 -1.36074 3.48367 0
M  V30 15153 H 1428.57 -3.57224 5.75671 0
M  V30 15154 H 1429.52 -2.35729 6.67711 0
M  V30 15155 H 1429.92 -2.68345 4.9664 0
M  V30 15156 N 1429.32 -1.56304 -0.201686 0
M  V30 15157 C 1430.25 -1.97046 -1.25281 0
M  V30 15158 C 1431.23 -0.841458 -1.47829 0
M  V30 15159 O 1432.42 -1.10529 -1.59678 0
M  V30 15160 C 1429.55 -2.30429 -2.59845 0
M  V30 15161 C 1428.5 -3.46006 -2.5192 0
M  V30 15162 C 1427.83 -3.65047 -3.90697 0
M  V30 15163 C 1429.13 -4.80391 -2.04992 0
M  V30 15164 H 1430.82 -2.85099 -0.914272 0
M  V30 15165 H 1428.37 -1.37166 -0.438359 0
M  V30 15166 H 1430.32 -2.57525 -3.33555 0
M  V30 15167 H 1429.05 -1.39251 -2.95426 0
M  V30 15168 H 1427.7 -3.18991 -1.80667 0
M  V30 15169 H 1427.35 -2.71211 -4.2362 0
M  V30 15170 H 1427.05 -4.42796 -3.86271 0
M  V30 15171 H 1428.58 -3.94512 -4.66039 0
M  V30 15172 H 1429.99 -5.06561 -2.68456 0
M  V30 15173 H 1428.39 -5.61563 -2.11582 0
M  V30 15174 H 1429.46 -4.74416 -1.00288 0
M  V30 15175 N 1430.8 0.469154 -1.50455 0
M  V30 15176 C 1432.03 1.24432 -1.653 0
M  V30 15177 C 1432.44 1.85766 -0.33713 0
M  V30 15178 O 1431.8 1.69313 0.681118 0
M  V30 15179 C 1431.85 2.35163 -2.74555 0
M  V30 15180 O 1431.57 1.76344 -4.01042 0
M  V30 15181 C 1433.07 3.26006 -3.00391 0
M  V30 15182 H 1430.29 0.376251 -0.555587 0
M  V30 15183 H 1432.84 0.559777 -1.96689 0
M  V30 15184 H 1430.99 2.99389 -2.45855 0
M  V30 15185 H 1431.41 2.49278 -4.61477 0
M  V30 15186 H 1432.88 3.99909 -3.80496 0
M  V30 15187 H 1433.36 3.84901 -2.11537 0
M  V30 15188 H 1433.96 2.67515 -3.3063 0
M  V30 15189 N 1432.28 1.40065 0.722464 0
M  V30 15190 C 1433.24 1.39544 1.81825 0
M  V30 15191 C 1434.24 0.290385 1.58156 0
M  V30 15192 O 1435.43 0.54894 1.65325 0
M  V30 15193 C 1432.56 1.18041 3.19811 0
M  V30 15194 H 1433.76 2.37063 1.83687 0
M  V30 15195 H 1431.31 1.25813 0.927404 0
M  V30 15196 H 1432.04 0.212536 3.23603 0
M  V30 15197 H 1431.83 1.98079 3.38389 0
M  V30 15198 H 1433.32 1.20447 3.99853 0
M  V30 15199 N 1433.76 -0.95397 1.25448 0
M  V30 15200 C 1434.99 -1.7308 1.12814 0
M  V30 15201 C 1435.4 -1.86461 -0.320764 0
M  V30 15202 O 1434.74 -1.3623 -1.23236 0
M  V30 15203 C 1434.8 -3.16239 1.70976 0
M  V30 15204 C 1434.46 -3.26286 3.19979 0
M  V30 15205 C 1435.46 -3.10547 4.16961 0
M  V30 15206 C 1433.15 -3.50085 3.60202 0
M  V30 15207 C 1435.14 -3.18456 5.52146 0
M  V30 15208 C 1432.83 -3.5763 4.95524 0
M  V30 15209 C 1433.83 -3.4183 5.91305 0
M  V30 15210 O 1433.51 -3.49058 7.24164 0
M  V30 15211 H 1433.25 -0.549143 0.394231 0
M  V30 15212 H 1435.8 -1.20538 1.66312 0
M  V30 15213 H 1434.03 -3.70148 1.11926 0
M  V30 15214 H 1435.72 -3.75784 1.53432 0
M  V30 15215 H 1436.48 -2.92029 3.87226 0
M  V30 15216 H 1432.36 -3.61445 2.86145 0
M  V30 15217 H 1435.91 -3.0604 6.26885 0
M  V30 15218 H 1431.8 -3.75665 5.24925 0
M  V30 15219 H 1432.57 -3.65684 7.32269 0
M  V30 15220 N 1435.24 -1.07045 -1.15668 0
M  V30 15221 C 1436.51 -0.704942 -1.82455 0
M  V30 15222 C 1436.89 0.812921 -1.9482 0
M  V30 15223 O 1436.24 1.72615 -1.49721 0
M  V30 15224 C 1436.45 -1.41574 -3.18995 0
M  V30 15225 C 1437.8 -1.56584 -3.94673 0
M  V30 15226 O 1438.82 -1.37626 -3.28538 0
M  V30 15227 O 1437.68 -1.87751 -5.13237 0
M  V30 15228 H 1434.78 -0.250469 -0.788159 0
M  V30 15229 H 1437.32 -1.17118 -1.22806 0
M  V30 15230 H 1436.09 -2.4504 -3.05075 0
M  V30 15231 H 1435.72 -0.940071 -3.86327 0
M  V30 15232 N 1436.71 1.32449 -0.85411 0
M  V30 15233 C 1437.64 2.31383 -0.313697 0
M  V30 15234 C 1438.62 1.59656 0.586858 0
M  V30 15235 O 1439.81 1.87459 0.507216 0
M  V30 15236 C 1436.94 3.43693 0.499235 0
M  V30 15237 C 1435.89 4.26899 -0.306839 0
M  V30 15238 C 1435.22 5.30966 0.630795 0
M  V30 15239 C 1436.52 4.99318 -1.53229 0
M  V30 15240 H 1438.21 2.76832 -1.14037 0
M  V30 15241 H 1435.76 1.33091 -0.549805 0
M  V30 15242 H 1437.71 4.11944 0.887709 0
M  V30 15243 H 1436.44 2.96971 1.35926 0
M  V30 15244 H 1435.1 3.60294 -0.677061 0
M  V30 15245 H 1434.74 4.80498 1.48765 0
M  V30 15246 H 1434.44 5.87522 0.0954635 0
M  V30 15247 H 1435.97 6.0208 1.01646 0
M  V30 15248 H 1437.38 5.60253 -1.21614 0
M  V30 15249 H 1435.78 5.65596 -2.00552 0
M  V30 15250 H 1436.85 4.27213 -2.29383 0
M  V30 15251 N 1438.19 0.611994 1.45232 0
M  V30 15252 C 1439.12 -0.153214 2.27685 0
M  V30 15253 C 1440.1 -0.869474 1.37401 0
M  V30 15254 O 1441.29 -0.877453 1.66832 0
M  V30 15255 C 1438.41 -1.22224 3.15878 0
M  V30 15256 C 1437.46 -0.608624 4.22135 0
M  V30 15257 S 1438.29 0.586848 5.32275 0
M  V30 15258 C 1439.45 -0.482657 6.24036 0
M  V30 15259 H 1439.68 0.546316 2.92237 0
M  V30 15260 H 1437.21 0.399631 1.49139 0
M  V30 15261 H 1439.17 -1.83413 3.67246 0
M  V30 15262 H 1437.83 -1.89386 2.50583 0
M  V30 15263 H 1437.03 -1.41312 4.83784 0
M  V30 15264 H 1436.63 -0.0717689 3.73931 0
M  V30 15265 H 1438.92 -1.36053 6.63699 0
M  V30 15266 H 1439.86 0.0977803 7.08032 0
M  V30 15267 H 1440.27 -0.799965 5.58803 0
M  V30 15268 N 1439.67 -1.53632 0.351409 0
M  V30 15269 C 1440.92 -2.00222 -0.243731 0
M  V30 15270 C 1441.23 -1.24305 -1.51022 0
M  V30 15271 O 1442.44 -1.61411 -2.18309 0
M  V30 15272 C 1440.89 -3.56619 -0.48487 0
M  V30 15273 C 1440.5 -4.414 0.766173 0
M  V30 15274 C 1442.25 -4.11603 -1.03844 0
M  V30 15275 C 1440.15 -5.89321 0.4954 0
M  V30 15276 H 1439.08 -0.74801 -0.0948534 0
M  V30 15277 H 1441.73 -1.77433 0.467957 0
M  V30 15278 H 1440.12 -3.75505 -1.25746 0
M  V30 15279 H 1441.29 -4.34288 1.54047 0
M  V30 15280 H 1439.6 -3.97448 1.24194 0
M  V30 15281 H 1442.2 -5.19736 -1.25611 0
M  V30 15282 H 1442.54 -3.65311 -1.99634 0
M  V30 15283 H 1443.08 -3.96459 -0.326363 0
M  V30 15284 H 1439.82 -6.39863 1.42324 0
M  V30 15285 H 1439.34 -5.99317 -0.240662 0
M  V30 15286 H 1441.02 -6.46897 0.115584 0
M  V30 15287 N 1441.15 -0.0802183 -1.57396 0
M  V30 15288 C 1442.08 0.913777 -2.10197 0
M  V30 15289 C 1443.09 1.25588 -1.03593 0
M  V30 15290 O 1444.28 1.21159 -1.31083 0
M  V30 15291 C 1441.38 2.2272 -2.55439 0
M  V30 15292 C 1440.55 2.06268 -3.8571 0
M  V30 15293 C 1439.61 3.20989 -4.16956 0
M  V30 15294 O 1438.64 2.95608 -4.8642 0
M  V30 15295 N 1439.84 4.46331 -3.71172 0
M  V30 15296 H 1442.61 0.462908 -2.96103 0
M  V30 15297 H 1440.17 0.105287 -1.61557 0
M  V30 15298 H 1442.16 2.98389 -2.73397 0
M  V30 15299 H 1440.73 2.59278 -1.74624 0
M  V30 15300 H 1439.95 1.15016 -3.77048 0
M  V30 15301 H 1441.24 1.92535 -4.70965 0
M  V30 15302 H 1440.64 4.69837 -3.15071 0
M  V30 15303 H 1439.19 5.18999 -3.94314 0
M  V30 15304 N 1442.63 1.56409 0.193394 0
M  V30 15305 C 1443.54 1.97886 1.26009 0
M  V30 15306 C 1444.55 0.886786 1.49707 0
M  V30 15307 O 1445.73 1.19267 1.62288 0
M  V30 15308 C 1442.79 2.31145 2.58404 0
M  V30 15309 C 1441.85 3.54069 2.42763 0
M  V30 15310 C 1441.09 3.85732 3.68845 0
M  V30 15311 O 1441.31 3.18662 4.73086 0
M  V30 15312 O 1440.24 4.79155 3.64272 0
M  V30 15313 H 1444.07 2.88849 0.938087 0
M  V30 15314 H 1441.65 1.43987 0.398528 0
M  V30 15315 H 1443.54 2.53606 3.36544 0
M  V30 15316 H 1442.21 1.4335 2.90228 0
M  V30 15317 H 1441.12 3.36854 1.62728 0
M  V30 15318 H 1442.45 4.42335 2.15871 0
M  V30 15319 N 1444.1 -0.461169 1.50702 0
M  V30 15320 C 1445.33 -1.24019 1.66235 0
M  V30 15321 C 1445.75 -1.84827 0.349388 0
M  V30 15322 O 1445.11 -1.67743 -0.687888 0
M  V30 15323 C 1445.16 -2.31743 2.76274 0
M  V30 15324 O 1444.26 -3.3664 2.38217 0
M  V30 15325 H 1443.6 -0.364424 0.55506 0
M  V30 15326 H 1446.13 -0.547636 1.97135 0
M  V30 15327 H 1446.14 -2.76902 2.99649 0
M  V30 15328 H 1444.82 -1.86858 3.7156 0
M  V30 15329 H 1443.4 -2.97123 2.25327 0
M  V30 15330 N 1445.58 -1.40446 -0.715026 0
M  V30 15331 C 1447 -1.22488 -1.02317 0
M  V30 15332 C 1447.2 -0.100481 -2.01249 0
M  V30 15333 O 1446.25 0.541447 -2.46626 0
M  V30 15334 C 1447.57 -2.56682 -1.56636 0
M  V30 15335 C 1449.11 -2.63699 -1.68617 0
M  V30 15336 C 1449.59 -3.98163 -2.26342 0
M  V30 15337 N 1451.08 -3.99907 -2.33727 0
M  V30 15338 C 1451.82 -5.00737 -2.79375 0
M  V30 15339 N 1451.31 -6.11961 -3.24771 0
M  V30 15340 N 1453.1 -4.88106 -2.78764 0
M  V30 15341 H 1445.26 -2.12317 -0.0592712 0
M  V30 15342 H 1447.52 -0.943823 -0.088895 0
M  V30 15343 H 1447.22 -3.39615 -0.914036 0
M  V30 15344 H 1447.1 -2.77809 -2.55151 0
M  V30 15345 H 1449.49 -1.81138 -2.32966 0
M  V30 15346 H 1449.57 -2.46402 -0.687004 0
M  V30 15347 H 1449.21 -4.81164 -1.62614 0
M  V30 15348 H 1449.14 -4.1279 -3.26974 0
M  V30 15349 H 1451.63 -3.19592 -2.01666 0
M  V30 15350 H 1451.94 -6.84787 -3.58171 0
M  V30 15351 H 1450.29 -6.15525 -3.22729 0
M  V30 15352 H 1453.48 -4.00307 -2.42635 0
M  V30 15353 H 1453.65 -5.66828 -3.14023 0
M  V30 15354 N 1447.06 0.947303 -1.25952 0
M  V30 15355 C 1448.31 1.69279 -1.11135 0
M  V30 15356 C 1448.63 1.9139 0.346407 0
M  V30 15357 O 1447.89 1.48786 1.27126 0
M  V30 15358 C 1448.19 3.07652 -1.81892 0
M  V30 15359 C 1447.85 3.05317 -3.31802 0
M  V30 15360 C 1446.52 3.04387 -3.72695 0
M  V30 15361 C 1448.87 2.98088 -4.27543 0
M  V30 15362 C 1446.2 2.93987 -5.07729 0
M  V30 15363 C 1448.55 2.89229 -5.62609 0
M  V30 15364 C 1447.21 2.86639 -6.02822 0
M  V30 15365 H 1446.48 0.619435 -0.40667 0
M  V30 15366 H 1449.13 1.10621 -1.56318 0
M  V30 15367 H 1447.43 3.69898 -1.29161 0
M  V30 15368 H 1449.13 3.6417 -1.67873 0
M  V30 15369 H 1445.72 3.06817 -2.99268 0
M  V30 15370 H 1449.91 2.9792 -3.96935 0
M  V30 15371 H 1445.16 2.90355 -5.38056 0
M  V30 15372 H 1449.34 2.82598 -6.36483 0
M  V30 15373 H 1446.96 2.78336 -7.07413 0
M  V30 15374 N 1448.54 1.07657 1.15099 0
M  V30 15375 C 1449.47 0.721201 2.22083 0
M  V30 15376 C 1450.45 -0.292808 1.67561 0
M  V30 15377 O 1451.63 -0.164872 1.93499 0
M  V30 15378 C 1448.76 0.12153 3.47087 0
M  V30 15379 C 1447.72 1.06303 4.14588 0
M  V30 15380 C 1447.04 0.325964 5.33706 0
M  V30 15381 C 1448.34 2.39796 4.63999 0
M  V30 15382 H 1450.04 1.61566 2.52065 0
M  V30 15383 H 1447.58 0.778282 1.21156 0
M  V30 15384 H 1449.54 -0.139037 4.21171 0
M  V30 15385 H 1448.26 -0.808022 3.16447 0
M  V30 15386 H 1446.92 1.30858 3.4245 0
M  V30 15387 H 1446.57 -0.607147 4.99322 0
M  V30 15388 H 1446.27 0.953552 5.79811 0
M  V30 15389 H 1447.79 0.0732695 6.10556 0
M  V30 15390 H 1449.21 2.19552 5.29594 0
M  V30 15391 H 1447.6 2.98178 5.20778 0
M  V30 15392 H 1448.67 3.01876 3.79472 0
M  V30 15393 N 1450.02 -1.31994 0.861122 0
M  V30 15394 C 1451.27 -1.96294 0.463868 0
M  V30 15395 C 1451.58 -1.68869 -0.98704 0
M  V30 15396 O 1452.78 -2.26959 -1.49003 0
M  V30 15397 C 1451.24 -3.51377 0.77858 0
M  V30 15398 C 1450.85 -3.87653 2.24565 0
M  V30 15399 C 1452.59 -4.22115 0.449365 0
M  V30 15400 C 1450.5 -5.35809 2.50324 0
M  V30 15401 H 1449.43 -0.734647 0.169733 0
M  V30 15402 H 1452.08 -1.50294 1.0528 0
M  V30 15403 H 1450.46 -3.95821 0.119005 0
M  V30 15404 H 1451.64 -3.54197 2.94755 0
M  V30 15405 H 1449.95 -3.29957 2.54003 0
M  V30 15406 H 1452.55 -5.31103 0.61916 0
M  V30 15407 H 1452.89 -4.11814 -0.609528 0
M  V30 15408 H 1453.42 -3.83276 1.06511 0
M  V30 15409 H 1450.16 -5.51138 3.54863 0
M  V30 15410 H 1449.68 -5.70648 1.84719 0
M  V30 15411 H 1451.36 -6.02968 2.34602 0
M  V30 15412 N 1451.49 -0.619688 -1.44906 0
M  V30 15413 C 1452.4 0.0935512 -2.34413 0
M  V30 15414 C 1453.42 0.847738 -1.51952 0
M  V30 15415 O 1454.6 0.802591 -1.84717 0
M  V30 15416 C 1451.66 1.07047 -3.2976 0
M  V30 15417 C 1450.72 0.31691 -4.28129 0
M  V30 15418 C 1449.96 1.24729 -5.1892 0
M  V30 15419 O 1450.18 2.4856 -5.13395 0
M  V30 15420 O 1449.11 0.737799 -5.97361 0
M  V30 15421 H 1452.94 -0.642335 -2.96829 0
M  V30 15422 H 1450.52 -0.379908 -1.44489 0
M  V30 15423 H 1452.41 1.63281 -3.88481 0
M  V30 15424 H 1451.08 1.78717 -2.69893 0
M  V30 15425 H 1449.99 -0.288192 -3.72988 0
M  V30 15426 H 1451.32 -0.359539 -4.90885 0
M  V30 15427 N 1452.97 1.53444 -0.359552 0
M  V30 15428 C 1453.91 2.21884 0.533192 0
M  V30 15429 C 1454.88 1.20858 1.08776 0
M  V30 15430 O 1456.07 1.49738 1.14502 0
M  V30 15431 C 1453.19 2.90883 1.73507 0
M  V30 15432 C 1452.24 4.05931 1.30851 0
M  V30 15433 S 1453.07 5.34574 0.314859 0
M  V30 15434 C 1454.23 6.07083 1.52321 0
M  V30 15435 H 1454.46 2.97261 -0.0480679 0
M  V30 15436 H 1452 1.5373 -0.143645 0
M  V30 15437 H 1453.95 3.31252 2.42451 0
M  V30 15438 H 1452.61 2.15241 2.28758 0
M  V30 15439 H 1451.81 4.53203 2.20507 0
M  V30 15440 H 1451.41 3.67422 0.698365 0
M  V30 15441 H 1453.7 6.31448 2.45519 0
M  V30 15442 H 1454.64 6.99629 1.09198 0
M  V30 15443 H 1455.05 5.37449 1.72652 0
M  V30 15444 N 1454.45 0.0885642 1.57351 0
M  V30 15445 C 1455.41 -0.858178 2.12528 0
M  V30 15446 C 1456.41 -1.21522 1.05304 0
M  V30 15447 O 1457.6 -1.14573 1.3122 0
M  V30 15448 C 1454.74 -2.15619 2.64048 0
M  V30 15449 H 1455.93 -0.37918 2.97493 0
M  V30 15450 H 1453.48 -0.160354 1.55475 0
M  V30 15451 H 1454.22 -2.68018 1.82584 0
M  V30 15452 H 1454 -1.90995 3.42437 0
M  V30 15453 H 1455.49 -2.83359 3.06753 0
M  V30 15454 N 1455.93 -1.56509 -0.185096 0
M  V30 15455 C 1457.21 -1.72055 -0.930398 0
M  V30 15456 C 1457.59 -0.646145 -2.00968 0
M  V30 15457 O 1456.93 0.34129 -2.25937 0
M  V30 15458 C 1457.14 -3.14752 -1.50771 0
M  V30 15459 C 1458.49 -3.75292 -1.98597 0
M  V30 15460 O 1459.52 -3.17944 -1.60593 0
M  V30 15461 O 1458.37 -4.7596 -2.68561 0
M  V30 15462 H 1455.47 -0.702118 -0.436989 0
M  V30 15463 H 1458.01 -1.68806 -0.174007 0
M  V30 15464 H 1456.79 -3.84426 -0.730236 0
M  V30 15465 H 1456.41 -3.22272 -2.32866 0
M  V30 15466 N 1457.41 0.45317 -1.50944 0
M  V30 15467 C 1458.63 1.22672 -1.66611 0
M  V30 15468 C 1459.05 1.85398 -0.356814 0
M  V30 15469 O 1458.41 1.70026 0.663122 0
M  V30 15470 C 1458.46 2.32238 -2.77034 0
M  V30 15471 O 1458.18 1.72081 -4.02889 0
M  V30 15472 C 1459.68 3.22802 -3.03832 0
M  V30 15473 H 1456.9 0.370337 -0.559546 0
M  V30 15474 H 1459.44 0.538884 -1.97272 0
M  V30 15475 H 1457.6 2.96765 -2.49017 0
M  V30 15476 H 1458.01 2.4437 -4.64095 0
M  V30 15477 H 1459.49 3.95851 -3.84716 0
M  V30 15478 H 1459.96 3.82636 -2.15608 0
M  V30 15479 H 1460.57 2.63993 -3.33449 0
M  V30 15480 N 1458.88 1.40823 0.707568 0
M  V30 15481 C 1460.13 1.39741 1.4697 0
M  V30 15482 C 1460.46 0.00231194 1.942 0
M  V30 15483 O 1459.74 -0.967798 1.68713 0
M  V30 15484 C 1460.02 2.39385 2.69011 0
M  V30 15485 C 1459.87 3.87953 2.27624 0
M  V30 15486 C 1461.19 2.3645 3.71186 0
M  V30 15487 H 1458.31 0.508904 0.533091 0
M  V30 15488 H 1460.95 1.72015 0.806888 0
M  V30 15489 H 1459.1 2.11993 3.25563 0
M  V30 15490 H 1460.78 4.26202 1.76492 0
M  V30 15491 H 1459.02 4.03399 1.59537 0
M  V30 15492 H 1459.69 4.53201 3.15139 0
M  V30 15493 H 1462.17 2.60731 3.24282 0
M  V30 15494 H 1461.04 3.08204 4.54204 0
M  V30 15495 H 1461.3 1.3789 4.20046 0
M  V30 15496 N 1460.36 -0.94061 1.26453 0
M  V30 15497 C 1461.29 -2.04322 1.03852 0
M  V30 15498 C 1462.31 -1.628 -0.00122618 0
M  V30 15499 O 1463.5 -1.76894 0.238911 0
M  V30 15500 C 1460.6 -3.34394 0.550789 0
M  V30 15501 C 1459.77 -4.0468 1.6599 0
M  V30 15502 C 1458.83 -5.13025 1.17012 0
M  V30 15503 O 1457.85 -5.37699 1.8673 0
M  V30 15504 N 1459.06 -5.80497 0.0188478 0
M  V30 15505 H 1461.82 -2.24276 1.98797 0
M  V30 15506 H 1459.38 -1.11013 1.17846 0
M  V30 15507 H 1461.37 -4.04169 0.207305 0
M  V30 15508 H 1459.94 -3.11108 -0.30509 0
M  V30 15509 H 1459.16 -3.28813 2.17429 0
M  V30 15510 H 1460.45 -4.48392 2.40463 0
M  V30 15511 H 1459.85 -5.62888 -0.563368 0
M  V30 15512 H 1458.41 -6.51259 -0.265556 0
M  V30 15513 N 1461.84 -1.08266 -1.14527 0
M  V30 15514 C 1462.75 -0.723043 -2.2318 0
M  V30 15515 C 1463.77 0.269819 -1.71895 0
M  V30 15516 O 1464.94 0.114126 -2.01076 0
M  V30 15517 C 1462.01 -0.136229 -3.46432 0
M  V30 15518 C 1461.07 -1.18352 -4.12664 0
M  V30 15519 C 1460.3 -0.624612 -5.30032 0
M  V30 15520 O 1460.52 0.556377 -5.6768 0
M  V30 15521 O 1459.46 -1.37397 -5.86008 0
M  V30 15522 H 1463.28 -1.6294 -2.56289 0
M  V30 15523 H 1460.87 -0.856235 -1.22429 0
M  V30 15524 H 1462.75 0.18829 -4.20979 0
M  V30 15525 H 1461.43 0.74331 -3.1505 0
M  V30 15526 H 1460.33 -1.56054 -3.39997 0
M  V30 15527 H 1461.67 -2.03528 -4.48148 0
M  V30 15528 N 1463.32 1.31536 -0.86811 0
M  V30 15529 C 1464.27 2.28562 -0.320602 0
M  V30 15530 C 1465.24 1.55648 0.579902 0
M  V30 15531 O 1466.42 1.83804 0.51194 0
M  V30 15532 C 1463.56 3.41836 0.473499 0
M  V30 15533 C 1462.67 4.29604 -0.454311 0
M  V30 15534 C 1461.81 5.30021 0.353733 0
M  V30 15535 C 1460.85 6.09434 -0.570624 0
M  V30 15536 N 1459.99 7.01812 0.201058 0
M  V30 15537 H 1464.83 2.74782 -1.15322 0
M  V30 15538 H 1462.36 1.35179 -0.580088 0
M  V30 15539 H 1464.32 4.06248 0.949662 0
M  V30 15540 H 1462.95 2.96732 1.27083 0
M  V30 15541 H 1462 3.65653 -1.04892 0
M  V30 15542 H 1463.31 4.85048 -1.16316 0
M  V30 15543 H 1462.47 6.001 0.892484 0
M  V30 15544 H 1461.21 4.75228 1.09589 0
M  V30 15545 H 1460.21 5.38247 -1.12115 0
M  V30 15546 H 1461.44 6.66314 -1.3116 0
M  V30 15547 H 1459.38 6.49431 0.926058 0
M  V30 15548 H 1459.3 7.54668 -0.448494 0
M  V30 15549 H 1460.57 7.76157 0.7211 0
M  V30 15550 N 1464.8 0.627364 1.44575 0
M  V30 15551 C 1466.05 0.127824 2.01295 0
M  V30 15552 C 1466.36 -1.25647 1.49907 0
M  V30 15553 O 1467.57 -1.84982 1.9873 0
M  V30 15554 C 1466.02 0.177775 3.59461 0
M  V30 15555 C 1465.63 1.56315 4.19845 0
M  V30 15556 C 1467.37 -0.265497 4.23669 0
M  V30 15557 C 1465.28 1.56842 5.70223 0
M  V30 15558 H 1464.21 0.0440205 0.752714 0
M  V30 15559 H 1466.86 0.785607 1.65833 0
M  V30 15560 H 1465.24 -0.547038 3.92203 0
M  V30 15561 H 1466.42 2.31125 3.98645 0
M  V30 15562 H 1464.73 1.95019 3.67909 0
M  V30 15563 H 1467.33 -0.281038 5.33961 0
M  V30 15564 H 1467.67 -1.29208 3.95741 0
M  V30 15565 H 1468.21 0.406698 3.95716 0
M  V30 15566 H 1464.94 2.57325 6.0288 0
M  V30 15567 H 1464.46 0.863198 5.93556 0
M  V30 15568 H 1466.14 1.30071 6.33791 0
M  V30 15569 N 1466.28 -1.53251 0.367684 0
M  V30 15570 C 1467.52 -2.01585 -0.221679 0
M  V30 15571 C 1467.85 -1.25444 -1.48248 0
M  V30 15572 O 1467.13 -0.348726 -1.91348 0
M  V30 15573 C 1467.41 -3.56449 -0.511507 0
M  V30 15574 C 1467.27 -4.4328 0.763075 0
M  V30 15575 C 1468.58 -4.20113 -1.31121 0
M  V30 15576 H 1465.7 -0.732743 -0.0790954 0
M  V30 15577 H 1468.35 -1.83493 0.492991 0
M  V30 15578 H 1466.5 -3.71996 -1.12033 0
M  V30 15579 H 1468.17 -4.39526 1.40052 0
M  V30 15580 H 1466.41 -4.11164 1.38299 0
M  V30 15581 H 1467.08 -5.4959 0.515215 0
M  V30 15582 H 1469.56 -4.08412 -0.796169 0
M  V30 15583 H 1468.43 -5.28494 -1.48274 0
M  V30 15584 H 1468.69 -3.76316 -2.32032 0
M  V30 15585 N 1467.75 -0.0969077 -1.57302 0
M  V30 15586 C 1468.69 0.891431 -2.11154 0
M  V30 15587 C 1469.7 1.24482 -1.04919 0
M  V30 15588 O 1470.89 1.19762 -1.3236 0
M  V30 15589 C 1467.99 2.19998 -2.57787 0
M  V30 15590 C 1467.16 2.02165 -3.87876 0
M  V30 15591 C 1466.22 3.16549 -4.20337 0
M  V30 15592 O 1465.25 2.90432 -4.89528 0
M  V30 15593 N 1466.45 4.42369 -3.75885 0
M  V30 15594 H 1469.21 0.431477 -2.96578 0
M  V30 15595 H 1466.77 0.0881458 -1.6166 0
M  V30 15596 H 1468.77 2.95472 -2.76547 0
M  V30 15597 H 1467.34 2.57412 -1.77364 0
M  V30 15598 H 1466.56 1.11011 -3.78246 0
M  V30 15599 H 1467.84 1.87529 -4.7298 0
M  V30 15600 H 1467.24 4.66469 -3.20036 0
M  V30 15601 H 1465.8 5.14787 -3.99797 0
M  V30 15602 N 1469.23 1.56605 0.176793 0
M  V30 15603 C 1470.47 1.83477 0.900858 0
M  V30 15604 C 1470.84 0.677051 1.79666 0
M  V30 15605 O 1472.04 0.826091 2.55791 0
M  V30 15606 C 1470.31 3.15444 1.68017 0
M  V30 15607 S 1471.87 3.63781 2.45375 0
M  V30 15608 H 1468.68 0.643758 0.301823 0
M  V30 15609 H 1471.29 1.9482 0.162888 0
M  V30 15610 H 1469.99 3.97701 1.01302 0
M  V30 15611 H 1469.52 3.07028 2.45962 0
M  V30 15612 H 1471.54 3.30672 3.6996 0
M  V30 15613 N 1470.71 -0.445159 1.51182 0
M  V30 15614 C 1471.64 -1.55788 1.68115 0
M  V30 15615 C 1472.65 -1.52793 0.561964 0
M  V30 15616 O 1473.84 -1.57711 0.836029 0
M  V30 15617 C 1470.94 -2.94702 1.67344 0
M  V30 15618 C 1470.12 -3.22286 2.9572 0
M  V30 15619 C 1469.18 -4.40884 2.87241 0
M  V30 15620 O 1468.2 -4.3992 3.61191 0
M  V30 15621 N 1469.4 -5.44013 2.02558 0
M  V30 15622 H 1472.17 -1.4167 2.64102 0
M  V30 15623 H 1469.73 -0.633984 1.48971 0
M  V30 15624 H 1471.72 -3.7205 1.5925 0
M  V30 15625 H 1470.29 -3.02457 0.789842 0
M  V30 15626 H 1469.51 -2.33309 3.17743 0
M  V30 15627 H 1470.8 -3.3754 3.80715 0
M  V30 15628 H 1470.2 -5.47629 1.4184 0
M  V30 15629 H 1468.75 -6.20245 2.0035 0
M  V30 15630 N 1472.19 -1.41197 -0.700089 0
M  V30 15631 C 1473.13 -1.42688 -1.81407 0
M  V30 15632 C 1474.1 -0.28182 -1.63692 0
M  V30 15633 O 1475.29 -0.482196 -1.84606 0
M  V30 15634 C 1472.43 -1.31041 -3.19252 0
M  V30 15635 C 1471.54 -2.5538 -3.48432 0
M  V30 15636 C 1470.68 -2.3606 -4.75867 0
M  V30 15637 C 1469.72 -3.55898 -4.97999 0
M  V30 15638 N 1468.85 -3.35676 -6.16657 0
M  V30 15639 H 1473.69 -2.37898 -1.79467 0
M  V30 15640 H 1471.23 -1.18137 -0.87647 0
M  V30 15641 H 1473.19 -1.22292 -3.98874 0
M  V30 15642 H 1471.82 -0.394422 -3.20381 0
M  V30 15643 H 1470.87 -2.74598 -2.6325 0
M  V30 15644 H 1472.18 -3.44535 -3.6069 0
M  V30 15645 H 1471.34 -2.24752 -5.63535 0
M  V30 15646 H 1470.08 -1.44355 -4.65846 0
M  V30 15647 H 1469.08 -3.67665 -4.08781 0
M  V30 15648 H 1470.31 -4.4855 -5.09882 0
M  V30 15649 H 1468.25 -2.46667 -6.07858 0
M  V30 15650 H 1468.17 -4.18404 -6.29662 0
M  V30 15651 H 1469.44 -3.28132 -7.07071 0
M  V30 15652 N 1473.67 0.933891 -1.2695 0
M  V30 15653 C 1474.63 2.0152 -1.0919 0
M  V30 15654 C 1475.63 1.60755 -0.037865 0
M  V30 15655 O 1476.82 1.71904 -0.281917 0
M  V30 15656 C 1473.95 3.34403 -0.66239 0
M  V30 15657 H 1475.14 2.18706 -2.05201 0
M  V30 15658 H 1472.7 1.11385 -1.0965 0
M  V30 15659 H 1473.43 3.22915 0.299388 0
M  V30 15660 H 1473.22 3.65345 -1.42356 0
M  V30 15661 H 1474.71 4.13826 -0.560187 0
M  V30 15662 N 1475.14 1.08871 1.13951 0
M  V30 15663 C 1476.39 0.819665 1.84732 0
M  V30 15664 C 1476.71 -0.656535 1.83615 0
M  V30 15665 O 1475.98 -1.47614 1.28791 0
M  V30 15666 H 1474.56 0.30023 0.684011 0
M  V30 15667 H 1477.22 1.37568 1.38062 0
M  V30 15668 H 1476.32 1.16809 2.89417 0
M  V30 15669 N 1476.62 -1.31073 0.875073 0
M  V30 15670 C 1477.55 -2.26485 0.279215 0
M  V30 15671 C 1478.53 -1.5134 -0.594556 0
M  V30 15672 O 1479.72 -1.80393 -0.546849 0
M  V30 15673 C 1476.84 -3.33268 -0.604165 0
M  V30 15674 C 1475.89 -4.26036 0.198944 0
M  V30 15675 S 1476.72 -5.11636 1.58079 0
M  V30 15676 C 1477.88 -6.21932 0.703665 0
M  V30 15677 H 1478.11 -2.76677 1.088 0
M  V30 15678 H 1475.64 -1.38917 0.673898 0
M  V30 15679 H 1477.6 -3.9526 -1.10813 0
M  V30 15680 H 1476.26 -2.8182 -1.38694 0
M  V30 15681 H 1475.46 -5.01759 -0.474755 0
M  V30 15682 H 1475.06 -3.68567 0.635185 0
M  V30 15683 H 1477.35 -6.77448 -0.0835828 0
M  V30 15684 H 1478.29 -6.93465 1.43219 0
M  V30 15685 H 1478.7 -5.63859 0.268954 0
M  V30 15686 N 1478.1 -0.635022 -1.4424 0
M  V30 15687 C 1479.01 0.0686832 -2.34499 0
M  V30 15688 C 1480.03 0.831574 -1.52843 0
M  V30 15689 O 1481.2 0.782954 -1.85558 0
M  V30 15690 C 1478.27 1.03543 -3.30877 0
M  V30 15691 C 1477.33 0.271484 -4.28441 0
M  V30 15692 C 1476.56 1.19218 -5.20214 0
M  V30 15693 O 1476.78 2.43101 -5.16002 0
M  V30 15694 O 1475.72 0.6744 -5.9811 0
M  V30 15695 H 1479.54 -0.673781 -2.96132 0
M  V30 15696 H 1477.13 -0.395211 -1.44078 0
M  V30 15697 H 1479.01 1.59151 -3.90191 0
M  V30 15698 H 1477.69 1.75844 -2.71773 0
M  V30 15699 H 1476.59 -0.327736 -3.72662 0
M  V30 15700 H 1477.93 -0.411584 -4.90476 0
M  V30 15701 N 1479.58 1.53054 -0.375806 0
M  V30 15702 C 1480.83 2.01401 0.210673 0
M  V30 15703 C 1481.15 1.26275 1.47935 0
M  V30 15704 O 1480.41 0.347611 1.92588 0
M  V30 15705 C 1480.71 3.53321 0.538419 0
M  V30 15706 C 1480.37 4.46376 -0.637126 0
M  V30 15707 C 1479.04 4.71534 -0.959653 0
M  V30 15708 C 1481.39 5.01364 -1.42421 0
M  V30 15709 C 1478.72 5.4893 -2.07105 0
M  V30 15710 C 1481.07 5.79975 -2.5261 0
M  V30 15711 C 1479.73 6.03416 -2.85386 0
M  V30 15712 H 1479 0.736979 0.0770907 0
M  V30 15713 H 1481.65 1.84574 -0.510376 0
M  V30 15714 H 1479.95 3.6815 1.34062 0
M  V30 15715 H 1481.65 3.88212 1.00461 0
M  V30 15716 H 1478.24 4.2695 -0.375722 0
M  V30 15717 H 1482.42 4.81865 -1.18828 0
M  V30 15718 H 1477.68 5.65309 -2.32886 0
M  V30 15719 H 1481.85 6.21588 -3.14008 0
M  V30 15720 H 1479.48 6.63172 -3.71627 0
M  V30 15721 N 1481.06 0.105248 1.57248 0
M  V30 15722 C 1482.01 -0.860855 2.11124 0
M  V30 15723 C 1482.99 -1.23721 1.02868 0
M  V30 15724 O 1484.18 -1.2106 1.29126 0
M  V30 15725 C 1481.31 -2.11612 2.70325 0
M  V30 15726 C 1480.4 -1.76474 3.85639 0
M  V30 15727 N 1480.79 -1.11944 4.93257 0
M  V30 15728 C 1479.09 -2.0602 3.95565 0
M  V30 15729 C 1479.79 -0.956421 5.73783 0
M  V30 15730 N 1478.76 -1.47701 5.23149 0
M  V30 15731 H 1482.57 -0.35816 2.91709 0
M  V30 15732 H 1480.08 -0.0976543 1.62106 0
M  V30 15733 H 1482.08 -2.81778 3.07257 0
M  V30 15734 H 1480.74 -2.62438 1.91198 0
M  V30 15735 H 1481.75 -0.785042 5.11916 0
M  V30 15736 H 1478.42 -2.58989 3.27461 0
M  V30 15737 H 1479.81 -0.450964 6.70385 0
M  V30 15738 N 1482.53 -1.56697 -0.168486 0
M  V30 15739 C 1483.44 -1.99866 -1.22845 0
M  V30 15740 C 1484.46 -0.910491 -1.48277 0
M  V30 15741 O 1485.64 -1.21834 -1.6037 0
M  V30 15742 C 1482.7 -2.35227 -2.54694 0
M  V30 15743 C 1481.76 -3.57886 -2.37099 0
M  V30 15744 C 1481 -3.91551 -3.62661 0
M  V30 15745 O 1481.22 -3.26148 -4.67957 0
M  V30 15746 O 1480.15 -4.8489 -3.56603 0
M  V30 15747 H 1483.98 -2.90305 -0.892015 0
M  V30 15748 H 1481.56 -1.44602 -0.375571 0
M  V30 15749 H 1483.45 -2.58928 -3.32467 0
M  V30 15750 H 1482.12 -1.4795 -2.87911 0
M  V30 15751 H 1481.03 -3.394 -1.57348 0
M  V30 15752 H 1482.36 -4.45714 -2.08806 0
M  V30 15753 N 1484.01 0.437135 -1.51416 0
M  V30 15754 C 1484.92 1.55581 -1.75589 0
M  V30 15755 C 1485.94 1.61797 -0.640132 0
M  V30 15756 O 1487.11 1.79035 -0.922406 0
M  V30 15757 C 1484.18 2.91561 -1.87598 0
M  V30 15758 C 1483.24 2.9546 -3.11451 0
M  V30 15759 C 1482.47 4.24954 -3.22878 0
M  V30 15760 O 1482.7 5.17341 -2.40238 0
M  V30 15761 O 1481.63 4.35141 -4.15856 0
M  V30 15762 H 1485.46 1.38098 -2.70486 0
M  V30 15763 H 1483.04 0.620163 -1.3592 0
M  V30 15764 H 1484.92 3.72262 -1.97481 0
M  V30 15765 H 1483.6 3.09171 -0.958889 0
M  V30 15766 H 1482.51 2.13713 -3.07046 0
M  V30 15767 H 1483.84 2.82794 -4.0285 0
M  V30 15768 N 1485.49 1.41566 0.692592 0
M  V30 15769 C 1486.42 1.46423 1.81886 0
M  V30 15770 C 1487.4 0.32258 1.67013 0
M  V30 15771 O 1488.59 0.534437 1.86701 0
M  V30 15772 C 1485.72 1.3486 3.20047 0
M  V30 15773 C 1484.67 2.46867 3.49629 0
M  V30 15774 C 1484 2.20369 4.87177 0
M  V30 15775 C 1485.3 3.89205 3.48306 0
M  V30 15776 H 1486.99 2.40683 1.78079 0
M  V30 15777 H 1484.54 1.15845 0.855334 0
M  V30 15778 H 1486.49 1.36869 3.98553 0
M  V30 15779 H 1485.21 0.370859 3.24488 0
M  V30 15780 H 1483.87 2.44146 2.73475 0
M  V30 15781 H 1483.52 1.20931 4.88247 0
M  V30 15782 H 1483.22 2.95426 5.07934 0
M  V30 15783 H 1484.74 2.24099 5.6799 0
M  V30 15784 H 1486.16 3.93626 4.16811 0
M  V30 15785 H 1484.56 4.63969 3.80595 0
M  V30 15786 H 1485.63 4.17144 2.47222 0
M  V30 15787 N 1486.97 -0.927146 1.27443 0
M  V30 15788 C 1487.92 -2.01402 1.06871 0
M  V30 15789 C 1488.9 -1.609 -0.00345395 0
M  V30 15790 O 1490.09 -1.75688 0.215147 0
M  V30 15791 C 1487.22 -3.35697 0.718508 0
M  V30 15792 C 1486.31 -3.82641 1.82884 0
M  V30 15793 N 1486.7 -4.02091 3.06849 0
M  V30 15794 C 1485 -4.11682 1.71564 0
M  V30 15795 C 1485.7 -4.41195 3.79107 0
M  V30 15796 N 1484.68 -4.48697 3.06874 0
M  V30 15797 H 1488.48 -2.14471 2.00946 0
M  V30 15798 H 1485.99 -1.11402 1.18166 0
M  V30 15799 H 1487.99 -4.13226 0.552238 0
M  V30 15800 H 1486.65 -3.2399 -0.214622 0
M  V30 15801 H 1487.66 -3.88384 3.42605 0
M  V30 15802 H 1484.34 -4.08685 0.853381 0
M  V30 15803 H 1485.73 -4.64318 4.85653 0
M  V30 15804 N 1488.45 -1.09474 -1.13372 0
M  V30 15805 C 1489.39 -0.729274 -2.20872 0
M  V30 15806 C 1490.39 0.270036 -1.67234 0
M  V30 15807 O 1491.59 0.131445 -1.79519 0
M  V30 15808 H 1487.97 -0.217852 -0.719753 0
M  V30 15809 H 1489.94 -1.64505 -2.48959 0
M  V30 15810 C 1488.69 -0.166518 -3.47301 0
M  V30 15811 H 1488.01 -0.926666 -3.88913 0
M  V30 15812 H 1489.45 0.0512617 -4.23969 0
M  V30 15813 C 1487.91 1.09836 -3.18493 0
M  V30 15814 O 1488.44 2.18152 -3.37302 0
M  V30 15815 N 1486.65 1.01307 -2.7237 0
M  V30 15816 H 1486.19 0.131551 -2.57264 0
M  V30 15817 H 1486.15 1.86011 -2.5347 0
M  V30 15818 N 1489.92 1.30607 -0.882012 0
M  V30 15819 C 1490.85 2.30666 -0.362706 0
M  V30 15820 C 1491.84 1.60865 0.552861 0
M  V30 15821 O 1493.02 1.88493 0.467339 0
M  V30 15822 C 1490.15 3.44675 0.42622 0
M  V30 15823 C 1489.1 4.26152 -0.397322 0
M  V30 15824 C 1488.43 5.32185 0.518027 0
M  V30 15825 C 1489.73 4.95955 -1.63785 0
M  V30 15826 H 1491.42 2.74351 -1.19883 0
M  V30 15827 H 1488.97 1.31895 -0.577912 0
M  V30 15828 H 1490.92 4.13734 0.80013 0
M  V30 15829 H 1489.65 2.99787 1.29597 0
M  V30 15830 H 1488.31 3.58776 -0.753332 0
M  V30 15831 H 1487.95 4.83545 1.3854 0
M  V30 15832 H 1487.65 5.87593 -0.0291802 0
M  V30 15833 H 1489.18 6.04101 0.888518 0
M  V30 15834 H 1490.59 5.57547 -1.3347 0
M  V30 15835 H 1488.99 5.61215 -2.12504 0
M  V30 15836 H 1490.06 4.22252 -2.38394 0
M  V30 15837 N 1491.4 0.642663 1.43901 0
M  V30 15838 C 1492.65 0.151478 2.01532 0
M  V30 15839 C 1492.97 -1.23519 1.50891 0
M  V30 15840 O 1492.24 -1.82299 0.717197 0
M  V30 15841 H 1490.82 0.0530091 0.745117 0
M  V30 15842 H 1493.48 0.831958 1.76251 0
M  V30 15843 H 1492.58 0.127995 3.11837 0
M  V30 15844 N 1492.88 -1.52852 0.383918 0
M  V30 15845 C 1493.84 -2.24904 -0.441687 0
M  V30 15846 C 1494.84 -1.26345 -0.99466 0
M  V30 15847 O 1496.03 -1.50484 -0.877513 0
M  V30 15848 C 1493.17 -2.99994 -1.61915 0
M  V30 15849 H 1494.36 -2.99304 0.189047 0
M  V30 15850 H 1491.91 -1.55708 0.135932 0
M  V30 15851 H 1492.65 -2.29882 -2.28746 0
M  V30 15852 H 1492.43 -3.72328 -1.2294 0
M  V30 15853 H 1493.92 -3.54716 -2.20378 0
M  V30 15854 N 1494.36 -0.113586 -1.5719 0
M  V30 15855 C 1495.31 0.83862 -2.15025 0
M  V30 15856 C 1496.28 1.26726 -1.07376 0
M  V30 15857 O 1497.46 1.34574 -1.35257 0
M  V30 15858 C 1494.6 2.08538 -2.74965 0
M  V30 15859 C 1493.71 1.70559 -3.96905 0
M  V30 15860 C 1492.85 2.90161 -4.44949 0
M  V30 15861 C 1491.89 2.48396 -5.59433 0
M  V30 15862 N 1491.03 3.60894 -6.02246 0
M  V30 15863 H 1495.87 0.338585 -2.9607 0
M  V30 15864 H 1493.4 0.155437 -1.46276 0
M  V30 15865 H 1495.36 2.81579 -3.07846 0
M  V30 15866 H 1493.99 2.56009 -1.96619 0
M  V30 15867 H 1493.04 0.874133 -3.7022 0
M  V30 15868 H 1494.35 1.35863 -4.7994 0
M  V30 15869 H 1493.51 3.71434 -4.7971 0
M  V30 15870 H 1492.25 3.28081 -3.60852 0
M  V30 15871 H 1491.25 1.65555 -5.24282 0
M  V30 15872 H 1492.48 2.116 -6.45292 0
M  V30 15873 H 1490.42 3.98497 -5.21091 0
M  V30 15874 H 1490.34 3.30103 -6.80124 0
M  V30 15875 H 1491.61 4.42622 -6.41643 0
M  V30 15876 N 1495.84 1.56784 0.160173 0
M  V30 15877 C 1496.75 2.00514 1.21783 0
M  V30 15878 C 1497.76 0.918341 1.47792 0
M  V30 15879 O 1498.94 1.22683 1.59721 0
M  V30 15880 C 1496 2.36575 2.53443 0
M  V30 15881 C 1495.07 3.59138 2.35198 0
M  V30 15882 C 1494.3 3.93469 3.6058 0
M  V30 15883 O 1494.52 3.28625 4.6622 0
M  V30 15884 O 1493.46 4.86774 3.54027 0
M  V30 15885 H 1497.28 2.90774 0.876607 0
M  V30 15886 H 1494.87 1.44799 0.367897 0
M  V30 15887 H 1496.75 2.60687 3.31089 0
M  V30 15888 H 1495.42 1.49474 2.87122 0
M  V30 15889 H 1494.33 3.4023 1.55546 0
M  V30 15890 H 1495.66 4.46815 2.0644 0
M  V30 15891 N 1497.32 -0.429099 1.51646 0
M  V30 15892 C 1498.56 -1.17551 1.64396 0
M  V30 15893 C 1498.88 -1.91526 0.366444 0
M  V30 15894 O 1498.15 -1.85896 -0.618013 0
M  V30 15895 H 1496.73 -0.436918 0.605898 0
M  V30 15896 H 1499.4 -0.491159 1.8861 0
M  V30 15897 H 1498.49 -1.90057 2.47557 0
M  V30 15898 N 1498.79 -1.41931 -0.685074 0
M  V30 15899 C 1499.72 -1.47385 -1.81107 0
M  V30 15900 C 1500.7 -0.331433 -1.6684 0
M  V30 15901 O 1501.89 -0.544331 -1.86415 0
M  V30 15902 C 1499.02 -1.36555 -3.19327 0
M  V30 15903 C 1497.97 -2.48718 -3.48315 0
M  V30 15904 C 1497.3 -2.2295 -4.86002 0
M  V30 15905 C 1498.6 -3.91047 -3.46237 0
M  V30 15906 H 1500.29 -2.41624 -1.768 0
M  V30 15907 H 1497.84 -1.16297 -0.849178 0
M  V30 15908 H 1499.79 -1.38981 -3.97822 0
M  V30 15909 H 1498.52 -0.388063 -3.24286 0
M  V30 15910 H 1497.18 -2.45592 -2.72176 0
M  V30 15911 H 1496.82 -1.23518 -4.87598 0
M  V30 15912 H 1496.52 -2.98116 -5.0636 0
M  V30 15913 H 1498.05 -2.27108 -5.66793 0
M  V30 15914 H 1499.46 -3.95831 -4.14718 0
M  V30 15915 H 1497.86 -4.65981 -3.7813 0
M  V30 15916 H 1498.93 -4.1845 -2.45006 0
M  V30 15917 N 1500.27 0.920374 -1.27933 0
M  V30 15918 C 1501.22 2.02196 -1.1129 0
M  V30 15919 C 1502.19 1.66096 -0.0118871 0
M  V30 15920 O 1503.37 1.8999 -0.175586 0
M  V30 15921 C 1500.51 3.36312 -0.77383 0
M  V30 15922 C 1499.63 3.85322 -1.95322 0
M  V30 15923 C 1498.76 5.07919 -1.55537 0
M  V30 15924 C 1497.8 5.49244 -2.7018 0
M  V30 15925 N 1496.94 6.63034 -2.30933 0
M  V30 15926 H 1501.78 2.15764 -2.05548 0
M  V30 15927 H 1499.31 1.05691 -1.02312 0
M  V30 15928 H 1501.27 4.13451 -0.558024 0
M  V30 15929 H 1499.9 3.22531 0.131806 0
M  V30 15930 H 1498.95 3.04399 -2.28135 0
M  V30 15931 H 1500.27 4.11915 -2.81296 0
M  V30 15932 H 1499.42 5.92581 -1.30123 0
M  V30 15933 H 1498.16 4.8312 -0.666818 0
M  V30 15934 H 1497.16 4.63127 -2.96299 0
M  V30 15935 H 1498.39 5.76035 -3.59667 0
M  V30 15936 H 1496.34 6.39878 -1.44539 0
M  V30 15937 H 1496.25 6.89319 -3.10444 0
M  V30 15938 H 1497.52 7.51018 -2.08786 0
M  V30 15939 N 1501.75 1.10074 1.1279 0
M  V30 15940 C 1503 0.839212 1.83852 0
M  V30 15941 C 1503.32 -0.637023 1.84301 0
M  V30 15942 O 1502.59 -1.46239 1.30349 0
M  V30 15943 H 1501.17 0.307468 0.680788 0
M  V30 15944 H 1503.83 1.39025 1.36595 0
M  V30 15945 H 1502.93 1.19872 2.88162 0
M  V30 15946 N 1503.23 -1.30138 0.888926 0
M  V30 15947 C 1504.64 -1.48552 0.583486 0
M  V30 15948 C 1504.84 -1.81376 -0.877781 0
M  V30 15949 O 1503.9 -1.90374 -1.65873 0
M  V30 15950 C 1505.21 -2.60613 1.50004 0
M  V30 15951 C 1506.76 -2.74493 1.50409 0
M  V30 15952 C 1507.24 -3.89672 2.40666 0
M  V30 15953 N 1508.73 -3.96988 2.38652 0
M  V30 15954 C 1509.46 -4.85429 3.05199 0
M  V30 15955 N 1508.96 -5.78638 3.80985 0
M  V30 15956 N 1510.75 -4.78831 2.9441 0
M  V30 15957 H 1502.9 -1.07105 1.83418 0
M  V30 15958 H 1505.16 -0.530991 0.785336 0
M  V30 15959 H 1504.87 -2.43191 2.54069 0
M  V30 15960 H 1504.74 -3.5718 1.21254 0
M  V30 15961 H 1507.13 -2.91318 0.470933 0
M  V30 15962 H 1507.21 -1.78535 1.83191 0
M  V30 15963 H 1506.86 -3.73603 3.44069 0
M  V30 15964 H 1506.79 -4.84975 2.05198 0
M  V30 15965 H 1509.28 -3.30313 1.83581 0
M  V30 15966 H 1509.59 -6.42894 4.28844 0
M  V30 15967 H 1507.94 -5.78558 3.85092 0
M  V30 15968 H 1511.13 -4.04995 2.34727 0
M  V30 15969 H 1511.3 -5.47547 3.46549 0
M  V30 15970 N 1504.71 -0.650285 -1.43559 0
M  V30 15971 C 1505.65 0.043098 -2.3076 0
M  V30 15972 C 1506.62 0.81763 -1.44582 0
M  V30 15973 O 1507.81 0.794825 -1.73457 0
M  V30 15974 C 1504.95 1.00557 -3.30125 0
M  V30 15975 C 1504.06 0.227448 -4.31401 0
M  V30 15976 C 1503.2 1.18345 -5.17849 0
M  V30 15977 C 1502.23 0.395596 -6.1082 0
M  V30 15978 N 1501.37 1.30304 -6.89902 0
M  V30 15979 H 1506.21 -0.706402 -2.89506 0
M  V30 15980 H 1503.75 -0.360118 -1.42624 0
M  V30 15981 H 1505.71 1.57717 -3.8624 0
M  V30 15982 H 1504.34 1.72198 -2.73034 0
M  V30 15983 H 1503.39 -0.460391 -3.77604 0
M  V30 15984 H 1504.7 -0.385316 -4.9731 0
M  V30 15985 H 1503.85 1.82578 -5.78576 0
M  V30 15986 H 1502.59 1.83013 -4.52059 0
M  V30 15987 H 1501.6 -0.260099 -5.49184 0
M  V30 15988 H 1502.82 -0.246633 -6.78652 0
M  V30 15989 H 1500.77 1.93657 -6.26764 0
M  V30 15990 H 1500.69 0.744768 -7.52323 0
M  V30 15991 H 1501.95 1.93361 -7.55137 0
M  V30 15992 N 1506.18 1.52647 -0.392018 0
M  V30 15993 C 1507.11 2.29446 0.433228 0
M  V30 15994 C 1508.09 1.32945 1.06111 0
M  V30 15995 O 1509.28 1.61841 1.07337 0
M  V30 15996 C 1506.41 3.10328 1.55929 0
M  V30 15997 C 1505.36 4.14735 1.05731 0
M  V30 15998 C 1504.69 4.83858 2.27565 0
M  V30 15999 C 1505.99 5.22154 0.123346 0
M  V30 16000 H 1507.68 2.9868 -0.207563 0
M  V30 16001 H 1505.23 1.43643 -0.101266 0
M  V30 16002 H 1507.18 3.62814 2.14346 0
M  V30 16003 H 1505.91 2.38832 2.22771 0
M  V30 16004 H 1504.57 3.63234 0.495653 0
M  V30 16005 H 1504.21 4.08907 2.92923 0
M  V30 16006 H 1503.91 5.54428 1.94637 0
M  V30 16007 H 1505.44 5.39149 2.86619 0
M  V30 16008 H 1506.85 5.69983 0.615784 0
M  V30 16009 H 1505.25 5.99987 -0.116304 0
M  V30 16010 H 1506.32 4.77796 -0.826969 0
M  V30 16011 N 1507.66 0.121921 1.57128 0
M  V30 16012 C 1508.61 -0.844503 2.16728 0
M  V30 16013 C 1509.6 -1.2733 1.1173 0
M  V30 16014 O 1510.81 -1.2447 1.30028 0
M  V30 16015 H 1507.19 -0.290459 0.693641 0
M  V30 16016 H 1509.16 -0.317379 2.96707 0
M  V30 16017 C 1507.91 -2.08359 2.78356 0
M  V30 16018 H 1507.23 -1.76258 3.5885 0
M  V30 16019 H 1508.67 -2.73978 3.23592 0
M  V30 16020 C 1507.13 -2.87526 1.75586 0
M  V30 16021 O 1507.66 -3.83011 1.21101 0
M  V30 16022 N 1505.86 -2.51575 1.4546 0
M  V30 16023 H 1505.41 -1.73993 1.89958 0
M  V30 16024 H 1505.37 -3.0484 0.769411 0
M  V30 16025 N 1509.14 -1.56867 -0.151857 0
M  V30 16026 C 1510.09 -1.97899 -1.18763 0
M  V30 16027 C 1511.06 -0.845833 -1.42951 0
M  V30 16028 O 1512.24 -1.10751 -1.55367 0
M  V30 16029 C 1509.38 -2.36063 -2.5173 0
M  V30 16030 C 1508.5 -3.62647 -2.34757 0
M  V30 16031 C 1507.63 -3.89936 -3.60726 0
M  V30 16032 C 1506.67 -5.09806 -3.38769 0
M  V30 16033 N 1505.81 -5.33129 -4.56856 0
M  V30 16034 H 1510.65 -2.86187 -0.830713 0
M  V30 16035 H 1508.18 -1.41592 -0.398745 0
M  V30 16036 H 1510.14 -2.56218 -3.29254 0
M  V30 16037 H 1508.77 -1.50861 -2.85379 0
M  V30 16038 H 1507.82 -3.50297 -1.48312 0
M  V30 16039 H 1509.14 -4.50328 -2.1449 0
M  V30 16040 H 1508.29 -4.10563 -4.4668 0
M  V30 16041 H 1507.03 -3.00668 -3.83993 0
M  V30 16042 H 1506.03 -4.89057 -2.51203 0
M  V30 16043 H 1507.26 -6.00623 -3.16906 0
M  V30 16044 H 1505.2 -4.46815 -4.80305 0
M  V30 16045 H 1505.12 -6.1507 -4.39574 0
M  V30 16046 H 1506.39 -5.5825 -5.44038 0
M  V30 16047 N 1510.62 0.421051 -1.51871 0
M  V30 16048 C 1511.58 1.49478 -1.73749 0
M  V30 16049 C 1512.58 1.48887 -0.607395 0
M  V30 16050 O 1513.77 1.50622 -0.875143 0
M  V30 16051 C 1510.9 2.88947 -1.80893 0
M  V30 16052 H 1512.1 1.31377 -2.69593 0
M  V30 16053 H 1509.65 0.650786 -1.42107 0
M  V30 16054 H 1510.38 3.12434 -0.86922 0
M  V30 16055 H 1510.17 2.90781 -2.63038 0
M  V30 16056 H 1511.66 3.66809 -1.99602 0
M  V30 16057 N 1512.1 1.42293 0.677538 0
M  V30 16058 C 1513.32 1.46008 1.46592 0
M  V30 16059 C 1513.74 0.0706015 1.88668 0
M  V30 16060 O 1513.1 -0.914076 1.57959 0
M  V30 16061 C 1513.15 2.38477 2.71682 0
M  V30 16062 O 1512.87 3.72019 2.31372 0
M  V30 16063 C 1514.37 2.51185 3.65269 0
M  V30 16064 H 1511.59 0.49669 0.451154 0
M  V30 16065 H 1514.13 1.86777 0.832736 0
M  V30 16066 H 1512.29 2.00969 3.31195 0
M  V30 16067 H 1512.7 4.21514 3.12131 0
M  V30 16068 H 1514.18 3.20014 4.49772 0
M  V30 16069 H 1514.65 1.54885 4.10983 0
M  V30 16070 H 1515.26 2.89404 3.1165 0
M  V30 16071 N 1513.57 -0.913576 1.28419 0
M  V30 16072 C 1514.48 -2.04922 1.14211 0
M  V30 16073 C 1515.5 -1.73865 0.0686424 0
M  V30 16074 O 1516.68 -1.99473 0.277968 0
M  V30 16075 C 1513.74 -3.37214 0.805445 0
M  V30 16076 C 1512.8 -3.81879 1.96129 0
M  V30 16077 C 1512.04 -5.07858 1.6406 0
M  V30 16078 O 1512.26 -5.67693 0.555032 0
M  V30 16079 O 1511.19 -5.4824 2.48428 0
M  V30 16080 H 1515.02 -2.19827 2.09547 0
M  V30 16081 H 1512.6 -1.03501 1.0774 0
M  V30 16082 H 1514.49 -4.16639 0.631648 0
M  V30 16083 H 1513.16 -3.23484 -0.118254 0
M  V30 16084 H 1512.07 -3.03281 2.19024 0
M  V30 16085 H 1513.4 -4.00173 2.8657 0
M  V30 16086 N 1515.05 -1.1067 -1.12204 0
M  V30 16087 C 1516.28 -0.873095 -1.88127 0
M  V30 16088 C 1516.7 0.571099 -1.79221 0
M  V30 16089 O 1516.06 1.40251 -1.14888 0
M  V30 16090 C 1516.11 -1.32922 -3.35208 0
M  V30 16091 O 1515.21 -0.495807 -4.09409 0
M  V30 16092 H 1514.55 -0.315138 -0.584452 0
M  V30 16093 H 1517.08 -1.47413 -1.41882 0
M  V30 16094 H 1517.09 -1.32023 -3.86049 0
M  V30 16095 H 1515.77 -2.38091 -3.41007 0
M  V30 16096 H 1514.35 -0.570216 -3.68515 0
M  V30 16097 N 1516.53 1.29665 -0.895815 0
M  V30 16098 C 1517.78 1.95716 -0.519752 0
M  V30 16099 C 1518.11 1.7065 0.933212 0
M  V30 16100 O 1517.36 1.01014 1.67615 0
M  V30 16101 C 1517.66 3.49355 -0.754025 0
M  V30 16102 C 1517.33 3.94491 -2.18375 0
M  V30 16103 C 1515.99 4.06526 -2.57468 0
M  V30 16104 C 1518.34 4.17874 -3.11498 0
M  V30 16105 C 1515.67 4.39311 -3.88874 0
M  V30 16106 C 1518.02 4.52132 -4.42447 0
M  V30 16107 C 1516.68 4.62376 -4.81419 0
M  V30 16108 H 1515.95 0.716176 -0.190191 0
M  V30 16109 H 1518.6 1.54333 -1.13373 0
M  V30 16110 H 1516.91 3.91758 -0.0570932 0
M  V30 16111 H 1518.6 3.98551 -0.442493 0
M  V30 16112 H 1515.19 3.85638 -1.87033 0
M  V30 16113 H 1519.38 4.08046 -2.8251 0
M  V30 16114 H 1514.63 4.45444 -4.18795 0
M  V30 16115 H 1518.81 4.69175 -5.14634 0
M  V30 16116 H 1516.43 4.87535 -5.83278 0
M  V30 16117 N 1518.01 0.657889 1.43212 0
M  V30 16118 C 1518.97 -0.0214783 2.2919 0
M  V30 16119 C 1519.97 -0.745921 1.42452 0
M  V30 16120 O 1521.16 -0.586468 1.64031 0
M  V30 16121 C 1518.29 -1.04115 3.24612 0
M  V30 16122 H 1519.49 0.735072 2.90752 0
M  V30 16123 H 1517.04 0.419354 1.50569 0
M  V30 16124 H 1517.77 -1.82677 2.67954 0
M  V30 16125 H 1517.56 -0.525285 3.88566 0
M  V30 16126 H 1519.05 -1.51544 3.89132 0
M  V30 16127 N 1519.49 -1.52437 0.400108 0
M  V30 16128 C 1520.73 -2.02677 -0.171293 0
M  V30 16129 C 1521.09 -1.28088 -1.43566 0
M  V30 16130 O 1520.38 -0.37592 -1.87876 0
M  V30 16131 C 1520.57 -3.54133 -0.482141 0
M  V30 16132 C 1520.4 -4.43392 0.750551 0
M  V30 16133 C 1519.17 -4.89 1.27306 0
M  V30 16134 C 1521.37 -4.87918 1.62604 0
M  V30 16135 N 1519.35 -5.62361 2.46217 0
M  V30 16136 C 1520.72 -5.59969 2.66148 0
M  V30 16137 C 1522.78 -4.69945 1.64486 0
M  V30 16138 C 1521.48 -6.15955 3.71473 0
M  V30 16139 C 1523.51 -5.26821 2.68725 0
M  V30 16140 C 1522.87 -5.98787 3.7099 0
M  V30 16141 H 1518.97 -0.781617 -0.0244842 0
M  V30 16142 H 1521.55 -1.86698 0.552429 0
M  V30 16143 H 1519.72 -3.70203 -1.17491 0
M  V30 16144 H 1521.46 -3.91065 -1.04164 0
M  V30 16145 H 1518.21 -4.66227 0.832434 0
M  V30 16146 H 1518.64 -6.03688 3.06414 0
M  V30 16147 H 1523.28 -4.13801 0.867657 0
M  V30 16148 H 1521 -6.71175 4.50055 0
M  V30 16149 H 1524.58 -5.14789 2.71078 0
M  V30 16150 H 1523.46 -6.4201 4.50325 0
M  V30 16151 N 1520.96 -0.130252 -1.57061 0
M  V30 16152 C 1521.91 0.832998 -2.17173 0
M  V30 16153 C 1522.91 1.26735 -1.12403 0
M  V30 16154 O 1524.11 1.23778 -1.30686 0
M  V30 16155 H 1520.49 0.286777 -0.695171 0
M  V30 16156 H 1522.46 0.301639 -2.96872 0
M  V30 16157 C 1521.21 2.06879 -2.79457 0
M  V30 16158 H 1520.53 1.74352 -3.5978 0
M  V30 16159 H 1521.97 2.72258 -3.25041 0
M  V30 16160 C 1520.43 2.86591 -1.77108 0
M  V30 16161 O 1520.96 3.82363 -1.2313 0
M  V30 16162 N 1519.17 2.508 -1.46792 0
M  V30 16163 H 1518.71 1.72984 -1.90878 0
M  V30 16164 H 1518.67 3.04428 -0.785566 0
M  V30 16165 N 1522.44 1.56945 0.143535 0
M  V30 16166 C 1523.69 1.82728 0.854011 0
M  V30 16167 C 1524.01 0.712048 1.82179 0
M  V30 16168 O 1525.21 0.855579 2.57667 0
M  V30 16169 C 1523.67 3.23882 1.56934 0
M  V30 16170 C 1523.28 4.4335 0.643789 0
M  V30 16171 C 1525.02 3.58936 2.26639 0
M  V30 16172 C 1522.93 5.75528 1.36094 0
M  V30 16173 H 1521.86 0.681474 0.32266 0
M  V30 16174 H 1524.51 1.83189 0.106741 0
M  V30 16175 H 1522.89 3.17819 2.36236 0
M  V30 16176 H 1524.06 4.60658 -0.114257 0
M  V30 16177 H 1522.38 4.16364 0.0549721 0
M  V30 16178 H 1524.98 4.54948 2.80939 0
M  V30 16179 H 1525.32 2.85163 3.03295 0
M  V30 16180 H 1525.85 3.66676 1.54252 0
M  V30 16181 H 1522.59 6.52406 0.636157 0
M  V30 16182 H 1522.11 5.62149 2.09161 0
M  V30 16183 H 1523.79 6.18445 1.9009 0
M  V30 16184 N 1523.92 -0.412991 1.52093 0
M  V30 16185 C 1525.15 -1.18212 1.69805 0
M  V30 16186 C 1525.56 -1.84386 0.405844 0
M  V30 16187 O 1524.92 -1.71725 -0.617809 0
M  V30 16188 C 1524.97 -2.24811 2.83094 0
M  V30 16189 O 1524.69 -1.61338 4.0731 0
M  V30 16190 C 1526.19 -3.14633 3.12283 0
M  V30 16191 H 1523.41 -0.355371 0.569168 0
M  V30 16192 H 1525.96 -0.486392 1.98632 0
M  V30 16193 H 1524.11 -2.90058 2.56797 0
M  V30 16194 H 1524.53 -2.31979 4.7041 0
M  V30 16195 H 1526 -3.85511 3.95076 0
M  V30 16196 H 1526.48 -3.76785 2.25677 0
M  V30 16197 H 1527.08 -2.55059 3.40331 0
M  V30 16198 N 1525.4 -1.4265 -0.669982 0
M  V30 16199 C 1526.65 -1.43589 -1.43213 0
M  V30 16200 C 1526.98 -0.0537998 -1.94125 0
M  V30 16201 O 1526.25 0.922727 -1.71219 0
M  V30 16202 C 1526.54 -2.46433 -2.62569 0
M  V30 16203 C 1526.39 -3.93851 -2.17258 0
M  V30 16204 C 1527.71 -2.46208 -3.64787 0
M  V30 16205 H 1524.83 -0.522859 -0.519411 0
M  V30 16206 H 1527.47 -1.74094 -0.760997 0
M  V30 16207 H 1525.62 -2.20551 -3.19828 0
M  V30 16208 H 1527.29 -4.30732 -1.6513 0
M  V30 16209 H 1525.53 -4.07487 -1.48786 0
M  V30 16210 H 1526.21 -4.61398 -3.03012 0
M  V30 16211 H 1528.68 -2.69237 -3.17255 0
M  V30 16212 H 1527.56 -3.20138 -4.45873 0
M  V30 16213 H 1527.82 -1.48979 -4.16242 0
M  V30 16214 N 1526.88 0.906753 -1.28902 0
M  V30 16215 C 1527.81 2.02663 -1.15974 0
M  V30 16216 C 1528.79 1.70009 -0.0557202 0
M  V30 16217 O 1529.97 1.92786 -0.233952 0
M  V30 16218 C 1527.1 3.37283 -0.828115 0
M  V30 16219 C 1526.06 3.84123 -1.88767 0
M  V30 16220 C 1525.38 5.15787 -1.40953 0
M  V30 16221 C 1526.68 4.05217 -3.2954 0
M  V30 16222 H 1528.38 2.13738 -2.09658 0
M  V30 16223 H 1525.92 1.02699 -1.0094 0
M  V30 16224 H 1527.88 4.15127 -0.724408 0
M  V30 16225 H 1526.6 3.2628 0.14443 0
M  V30 16226 H 1525.26 3.0849 -1.98065 0
M  V30 16227 H 1524.91 5.01194 -0.425848 0
M  V30 16228 H 1524.61 5.48098 -2.11807 0
M  V30 16229 H 1526.13 5.9618 -1.31918 0
M  V30 16230 H 1527.55 4.73565 -3.23124 0
M  V30 16231 H 1525.94 4.48871 -3.9829 0
M  V30 16232 H 1527.01 3.0979 -3.73039 0
M  V30 16233 N 1528.36 1.11264 1.11616 0
M  V30 16234 C 1529.3 0.769295 2.17602 0
M  V30 16235 C 1530.27 -0.258362 1.64078 0
M  V30 16236 O 1531.46 -0.135698 1.90317 0
M  V30 16237 C 1528.6 0.216647 3.44419 0
M  V30 16238 C 1527.71 1.30064 4.11955 0
M  V30 16239 C 1526.85 0.708729 5.26451 0
M  V30 16240 C 1525.88 1.7727 5.85868 0
M  V30 16241 N 1525.02 1.20042 6.91762 0
M  V30 16242 H 1529.86 1.67727 2.46316 0
M  V30 16243 H 1527.4 0.83764 1.20921 0
M  V30 16244 H 1529.36 -0.121724 4.17022 0
M  V30 16245 H 1527.99 -0.654525 3.16095 0
M  V30 16246 H 1527.04 1.756 3.37445 0
M  V30 16247 H 1528.35 2.1057 4.52174 0
M  V30 16248 H 1527.5 0.320307 6.05854 0
M  V30 16249 H 1526.24 -0.127668 4.87533 0
M  V30 16250 H 1525.25 2.17046 5.05145 0
M  V30 16251 H 1526.47 2.6121 6.26854 0
M  V30 16252 H 1524.42 0.385633 6.54866 0
M  V30 16253 H 1524.34 1.94221 7.30626 0
M  V30 16254 H 1525.6 0.838825 7.74974 0
M  V30 16255 N 1529.83 -1.29188 0.902679 0
M  V30 16256 C 1531.08 -1.95052 0.529076 0
M  V30 16257 C 1531.4 -1.7149 -0.92824 0
M  V30 16258 O 1530.67 -1.04834 -1.65489 0
M  V30 16259 H 1529.25 -0.721725 0.192671 0
M  V30 16260 H 1531.91 -1.57384 1.14962 0
M  V30 16261 H 1531.01 -3.03819 0.714179 0
M  V30 16262 N 1531.31 -0.665475 -1.42861 0
M  V30 16263 C 1532.24 0.0574495 -2.29128 0
M  V30 16264 C 1533.26 0.774881 -1.43176 0
M  V30 16265 O 1534.45 0.630593 -1.6699 0
M  V30 16266 C 1531.55 1.10481 -3.20386 0
M  V30 16267 C 1530.72 0.463071 -4.34942 0
M  V30 16268 C 1529.78 1.40896 -5.06986 0
M  V30 16269 O 1528.8 0.912839 -5.61833 0
M  V30 16270 N 1530.01 2.74257 -5.11628 0
M  V30 16271 H 1532.77 -0.683051 -2.91812 0
M  V30 16272 H 1530.33 -0.509179 -1.53685 0
M  V30 16273 H 1532.32 1.73866 -3.65449 0
M  V30 16274 H 1530.89 1.74715 -2.59217 0
M  V30 16275 H 1530.11 -0.350109 -3.92642 0
M  V30 16276 H 1531.4 0.0156092 -5.08798 0
M  V30 16277 H 1530.8 3.17112 -4.68462 0
M  V30 16278 H 1529.36 3.32913 -5.60368 0
M  V30 16279 N 1532.79 1.52222 -0.408187 0
M  V30 16280 C 1534.04 2.01404 0.167574 0
M  V30 16281 C 1534.36 1.29572 1.45726 0
M  V30 16282 O 1533.63 0.421363 1.91315 0
M  V30 16283 H 1532.21 0.744174 0.0649156 0
M  V30 16284 H 1534.87 1.87148 -0.544212 0
M  V30 16285 H 1533.97 3.09966 0.36436 0
M  V30 16286 N 1534.27 0.138579 1.5699 0
M  V30 16287 C 1535.54 -0.559239 1.87435 0
M  V30 16288 C 1535.92 -1.83527 1.04312 0
M  V30 16289 O 1535.27 -2.28144 0.127531 0
M  V30 16290 C 1535.48 -0.83282 3.38918 0
M  V30 16291 C 1536.83 -1.1773 4.07952 0
M  V30 16292 O 1537.85 -0.92245 3.44048 0
M  V30 16293 O 1536.71 -1.6565 5.2079 0
M  V30 16294 H 1533.81 -0.284318 0.77659 0
M  V30 16295 H 1536.35 0.174558 1.688 0
M  V30 16296 H 1535.13 0.0706054 3.91236 0
M  V30 16297 H 1534.75 -1.62109 3.63051 0
M  V30 16298 N 1535.75 -1.57019 -0.13521 0
M  V30 16299 C 1536.68 -2.02182 -1.16811 0
M  V30 16300 C 1537.66 -0.9034 -1.44127 0
M  V30 16301 O 1538.84 -1.17202 -1.54846 0
M  V30 16302 C 1535.97 -2.41243 -2.49838 0
M  V30 16303 C 1534.93 -3.56379 -2.37018 0
M  V30 16304 C 1534.25 -3.8129 -3.74863 0
M  V30 16305 C 1535.55 -4.88653 -1.84432 0
M  V30 16306 H 1537.25 -2.8872 -0.792529 0
M  V30 16307 H 1534.79 -1.38901 -0.379788 0
M  V30 16308 H 1536.74 -2.7144 -3.22332 0
M  V30 16309 H 1535.47 -1.51656 -2.89254 0
M  V30 16310 H 1534.13 -3.26366 -1.66975 0
M  V30 16311 H 1533.78 -2.88934 -4.11735 0
M  V30 16312 H 1533.48 -4.58781 -3.67143 0
M  V30 16313 H 1535 -4.13924 -4.48887 0
M  V30 16314 H 1536.41 -5.17492 -2.46729 0
M  V30 16315 H 1534.81 -5.70032 -1.87574 0
M  V30 16316 H 1535.88 -4.78242 -0.800759 0
M  V30 16317 N 1537.22 0.404919 -1.52309 0
M  V30 16318 C 1538.15 1.50039 -1.78915 0
M  V30 16319 C 1539.14 1.57587 -0.640329 0
M  V30 16320 O 1540.32 1.72793 -0.886344 0
M  V30 16321 C 1537.45 2.87819 -1.94364 0
M  V30 16322 C 1536.4 2.9512 -3.09981 0
M  V30 16323 C 1535.73 4.35195 -3.10659 0
M  V30 16324 C 1537.03 2.66219 -4.4936 0
M  V30 16325 H 1538.72 1.28025 -2.70647 0
M  V30 16326 H 1536.27 0.61445 -1.30233 0
M  V30 16327 H 1538.22 3.64446 -2.11559 0
M  V30 16328 H 1536.95 3.11136 -0.993067 0
M  V30 16329 H 1535.61 2.20939 -2.92543 0
M  V30 16330 H 1535.25 4.55528 -2.13316 0
M  V30 16331 H 1534.95 4.41003 -3.88317 0
M  V30 16332 H 1536.48 5.1375 -3.29989 0
M  V30 16333 H 1537.89 3.32567 -4.66982 0
M  V30 16334 H 1536.29 2.83398 -5.28967 0
M  V30 16335 H 1537.36 1.61636 -4.57167 0
M  V30 16336 N 1538.7 1.43003 0.662408 0
M  V30 16337 C 1539.65 1.47448 1.77561 0
M  V30 16338 C 1540.62 0.325121 1.62887 0
M  V30 16339 O 1541.8 0.530971 1.83263 0
M  V30 16340 C 1538.94 1.3946 3.15666 0
M  V30 16341 C 1538.06 2.64529 3.41539 0
M  V30 16342 C 1537.19 2.48594 4.69441 0
M  V30 16343 C 1536.23 3.68976 4.88388 0
M  V30 16344 N 1535.37 3.51908 6.0754 0
M  V30 16345 H 1540.21 2.42573 1.73097 0
M  V30 16346 H 1537.75 1.2042 0.84484 0
M  V30 16347 H 1539.7 1.32824 3.95492 0
M  V30 16348 H 1538.33 0.479227 3.19223 0
M  V30 16349 H 1537.39 2.81481 2.55877 0
M  V30 16350 H 1538.7 3.53977 3.51429 0
M  V30 16351 H 1537.85 2.39614 5.57378 0
M  V30 16352 H 1536.59 1.56656 4.61855 0
M  V30 16353 H 1535.6 3.78374 3.9889 0
M  V30 16354 H 1536.82 4.61911 4.9781 0
M  V30 16355 H 1534.77 2.62697 6.01104 0
M  V30 16356 H 1534.68 4.34951 6.18347 0
M  V30 16357 H 1535.95 3.46763 6.98123 0
M  V30 16358 N 1540.18 -0.899904 1.29381 0
M  V30 16359 C 1541.13 -2.02537 1.14375 0
M  V30 16360 C 1542.12 -1.69296 0.0593904 0
M  V30 16361 O 1543.33 -1.78661 0.219174 0
M  V30 16362 H 1539.7 -0.663844 0.353291 0
M  V30 16363 H 1541.67 -2.12332 2.0966 0
M  V30 16364 C 1540.42 -3.37479 0.836845 0
M  V30 16365 H 1539.75 -3.6356 1.66326 0
M  V30 16366 H 1541.19 -4.16915 0.771873 0
M  V30 16367 C 1539.65 -3.33746 -0.459889 0
M  V30 16368 O 1540.18 -3.73203 -1.48601 0
M  V30 16369 N 1538.38 -2.86845 -0.465657 0
M  V30 16370 H 1537.93 -2.54931 0.369833 0
M  V30 16371 H 1537.89 -2.8473 -1.33327 0
M  V30 16372 N 1541.66 -1.11854 -1.11024 0
M  V30 16373 C 1542.62 -0.784033 -2.15373 0
M  V30 16374 C 1543.62 0.198686 -1.59568 0
M  V30 16375 O 1544.81 -0.0263428 -1.7418 0
M  V30 16376 C 1541.94 -0.163987 -3.40505 0
M  V30 16377 H 1543.14 -1.70849 -2.46477 0
M  V30 16378 H 1540.69 -0.920988 -1.26283 0
M  V30 16379 H 1541.42 0.770483 -3.15014 0
M  V30 16380 H 1541.21 -0.871447 -3.82293 0
M  V30 16381 H 1542.7 0.0537739 -4.17565 0
M  V30 16382 N 1543.14 1.28707 -0.909517 0
M  V30 16383 C 1544.08 2.27427 -0.393155 0
M  V30 16384 C 1545.05 1.57414 0.53009 0
M  V30 16385 O 1546.24 1.85339 0.453205 0
M  V30 16386 C 1543.38 3.4317 0.364507 0
M  V30 16387 C 1542.49 4.27942 -0.590757 0
M  V30 16388 C 1541.63 5.30878 0.184931 0
M  V30 16389 C 1540.67 6.07311 -0.764222 0
M  V30 16390 N 1539.8 7.02096 -0.0223203 0
M  V30 16391 H 1544.64 2.70974 -1.24005 0
M  V30 16392 H 1542.18 1.33265 -0.6228 0
M  V30 16393 H 1544.14 4.09063 0.819937 0
M  V30 16394 H 1542.77 3.00625 1.17578 0
M  V30 16395 H 1541.82 3.62131 -1.16471 0
M  V30 16396 H 1543.13 4.81102 -1.31689 0
M  V30 16397 H 1542.29 6.02635 0.701116 0
M  V30 16398 H 1541.02 4.78474 0.944143 0
M  V30 16399 H 1540.03 5.34408 -1.29182 0
M  V30 16400 H 1541.25 6.61804 -1.52292 0
M  V30 16401 H 1539.2 6.52048 0.718978 0
M  V30 16402 H 1539.12 7.5286 -0.688359 0
M  V30 16403 H 1540.39 7.78059 0.473807 0
M  V30 16404 N 1544.61 0.673042 1.42506 0
M  V30 16405 C 1545.56 -0.0180603 2.32593 0
M  V30 16406 C 1546.56 -0.7924 1.49724 0
M  V30 16407 O 1547.76 -0.700563 1.65807 0
M  V30 16408 H 1544.14 -0.0246346 0.751596 0
M  V30 16409 H 1546.11 0.759153 2.88582 0
M  V30 16410 C 1544.86 -0.95676 3.34277 0
M  V30 16411 H 1544.18 -0.370341 3.98081 0
M  V30 16412 H 1545.62 -1.40905 3.99902 0
M  V30 16413 C 1544.08 -2.0623 2.66403 0
M  V30 16414 O 1544.61 -3.14853 2.4946 0
M  V30 16415 N 1542.82 -1.83351 2.25457 0
M  V30 16416 H 1542.36 -0.950141 2.39437 0
M  V30 16417 H 1542.32 -2.57511 1.80375 0
M  V30 16418 N 1546.09 -1.52004 0.416254 0
M  V30 16419 C 1547 -2.30947 -0.412403 0
M  V30 16420 C 1548.02 -1.38969 -1.04707 0
M  V30 16421 O 1549.19 -1.72044 -1.04703 0
M  V30 16422 C 1546.26 -3.12078 -1.51024 0
M  V30 16423 C 1545.32 -4.19805 -0.897892 0
M  V30 16424 C 1544.55 -4.97059 -1.94341 0
M  V30 16425 O 1544.78 -4.74695 -3.16261 0
M  V30 16426 O 1543.71 -5.81715 -1.54567 0
M  V30 16427 H 1547.54 -3.02817 0.231473 0
M  V30 16428 H 1545.12 -1.4832 0.179283 0
M  V30 16429 H 1547 -3.6258 -2.14741 0
M  V30 16430 H 1545.68 -2.42995 -2.13858 0
M  V30 16431 H 1544.59 -3.73433 -0.223236 0
M  V30 16432 H 1545.92 -4.91201 -0.31336 0
M  V30 16433 N 1547.57 -0.146903 -1.56914 0
M  V30 16434 C 1548.53 0.778709 -2.15566 0
M  V30 16435 C 1549.53 1.1753 -1.09742 0
M  V30 16436 O 1550.72 1.09624 -1.35382 0
M  V30 16437 C 1547.86 2.0567 -2.71869 0
M  V30 16438 H 1549.05 0.268506 -2.98696 0
M  V30 16439 H 1546.6 0.10254 -1.55963 0
M  V30 16440 H 1547.34 2.61057 -1.92405 0
M  V30 16441 H 1547.12 1.78154 -3.4929 0
M  V30 16442 H 1548.61 2.71779 -3.17059 0
M  V30 16443 N 1549.05 1.57088 0.126881 0
M  V30 16444 C 1550.3 1.83624 0.834582 0
M  V30 16445 C 1550.61 0.731331 1.81414 0
M  V30 16446 O 1551.82 0.88286 2.56745 0
M  V30 16447 C 1550.27 3.25529 1.5349 0
M  V30 16448 C 1549.88 4.44008 0.59673 0
M  V30 16449 C 1551.62 3.6132 2.22819 0
M  V30 16450 C 1549.53 5.76939 1.29982 0
M  V30 16451 H 1548.46 0.684858 0.315414 0
M  V30 16452 H 1551.11 1.83292 0.087305 0
M  V30 16453 H 1549.49 3.20306 2.32852 0
M  V30 16454 H 1550.67 4.60511 -0.163109 0
M  V30 16455 H 1548.98 4.16399 0.0108081 0
M  V30 16456 H 1551.58 4.57902 2.76098 0
M  V30 16457 H 1551.92 2.88363 3.00254 0
M  V30 16458 H 1552.46 3.68291 1.50354 0
M  V30 16459 H 1549.2 6.53044 0.566925 0
M  V30 16460 H 1548.72 5.64336 2.03187 0
M  V30 16461 H 1550.39 6.20427 1.8352 0
M  V30 16462 N 1550.53 -0.396836 1.52522 0
M  V30 16463 C 1551.44 -1.50871 1.79653 0
M  V30 16464 C 1552.45 -1.60043 0.682804 0
M  V30 16465 O 1553.63 -1.76527 0.96955 0
M  V30 16466 C 1550.69 -2.86485 1.95263 0
M  V30 16467 C 1549.75 -2.87099 3.19175 0
M  V30 16468 C 1548.99 -4.16244 3.34031 0
M  V30 16469 O 1549.21 -5.1079 2.5387 0
M  V30 16470 O 1548.14 -4.23962 4.27247 0
M  V30 16471 H 1551.97 -1.30878 2.74052 0
M  V30 16472 H 1549.56 -0.583908 1.37517 0
M  V30 16473 H 1551.44 -3.66895 2.07282 0
M  V30 16474 H 1550.11 -3.0652 1.04052 0
M  V30 16475 H 1549.02 -2.05497 3.12605 0
M  V30 16476 H 1550.35 -2.72014 4.10206 0
M  V30 16477 N 1552.01 -1.43353 -0.654814 0
M  V30 16478 C 1552.95 -1.48652 -1.789 0
M  V30 16479 C 1553.95 -0.360274 -1.65525 0
M  V30 16480 O 1555.15 -0.534194 -1.71891 0
M  V30 16481 H 1551.53 -0.465987 -0.590221 0
M  V30 16482 H 1553.5 -2.44158 -1.7155 0
M  V30 16483 C 1552.25 -1.42512 -3.17152 0
M  V30 16484 H 1551.57 -2.28479 -3.28081 0
M  V30 16485 H 1553.01 -1.50282 -3.96474 0
M  V30 16486 C 1551.47 -0.142511 -3.36598 0
M  V30 16487 O 1552 0.796821 -3.93718 0
M  V30 16488 N 1550.21 -0.0532157 -2.90551 0
M  V30 16489 H 1549.75 -0.818421 -2.44253 0
M  V30 16490 H 1549.71 0.80427 -3.03939 0
M  V30 16491 N 1553.48 0.89303 -1.29857 0
M  V30 16492 C 1554.42 2.00005 -1.09879 0
M  V30 16493 C 1555.39 1.62598 -0.00873108 0
M  V30 16494 O 1556.58 1.87814 -0.160726 0
M  V30 16495 C 1553.71 3.31924 -0.67412 0
M  V30 16496 C 1552.75 3.88317 -1.76387 0
M  V30 16497 S 1553.58 4.16602 -3.36456 0
M  V30 16498 C 1554.74 5.51553 -2.95873 0
M  V30 16499 H 1554.97 2.16644 -2.036 0
M  V30 16500 H 1552.51 1.04045 -1.14079 0
M  V30 16501 H 1554.46 4.0818 -0.435825 0
M  V30 16502 H 1553.13 3.13154 0.243592 0
M  V30 16503 H 1552.32 4.83617 -1.41882 0
M  V30 16504 H 1551.92 3.18772 -1.95603 0
M  V30 16505 H 1554.21 6.32294 -2.43332 0
M  V30 16506 H 1555.16 5.90988 -3.90049 0
M  V30 16507 H 1555.56 5.13728 -2.33973 0
M  V30 16508 N 1554.96 1.12442 1.10429 0
M  V30 16509 C 1555.91 0.792332 2.16773 0
M  V30 16510 C 1556.88 -0.240945 1.64343 0
M  V30 16511 O 1558.06 -0.115504 1.9045 0
M  V30 16512 C 1555.2 0.253166 3.4417 0
M  V30 16513 C 1554.32 1.34426 4.10553 0
M  V30 16514 C 1553.45 0.764527 5.2567 0
M  V30 16515 C 1552.49 1.83474 5.83955 0
M  V30 16516 N 1551.63 1.27372 6.9045 0
M  V30 16517 H 1556.47 1.7033 2.44524 0
M  V30 16518 H 1554 0.850418 1.20026 0
M  V30 16519 H 1555.96 -0.0774862 4.17128 0
M  V30 16520 H 1554.59 -0.620962 3.16771 0
M  V30 16521 H 1553.64 1.79169 3.35563 0
M  V30 16522 H 1554.96 2.15354 4.49916 0
M  V30 16523 H 1554.11 0.384548 6.0548 0
M  V30 16524 H 1552.85 -0.0759512 4.87641 0
M  V30 16525 H 1551.85 2.22391 5.02814 0
M  V30 16526 H 1553.08 2.67844 6.24048 0
M  V30 16527 H 1551.03 0.455069 6.5442 0
M  V30 16528 H 1550.94 2.01959 7.28525 0
M  V30 16529 H 1552.21 0.920975 7.7404 0
M  V30 16530 N 1556.44 -1.28223 0.91633 0
M  V30 16531 C 1557.37 -2.26291 0.363986 0
M  V30 16532 C 1558.38 -1.54964 -0.498988 0
M  V30 16533 O 1559.57 -1.75726 -0.31345 0
M  V30 16534 C 1556.67 -3.35219 -0.498126 0
M  V30 16535 C 1555.85 -4.36054 0.34293 0
M  V30 16536 C 1554.91 -5.24232 -0.454688 0
M  V30 16537 O 1553.93 -5.69043 0.133649 0
M  V30 16538 N 1555.13 -5.53268 -1.75714 0
M  V30 16539 H 1557.9 -2.74323 1.20694 0
M  V30 16540 H 1555.46 -1.41731 0.782551 0
M  V30 16541 H 1557.45 -3.91148 -1.03852 0
M  V30 16542 H 1556.02 -2.86876 -1.2418 0
M  V30 16543 H 1555.24 -3.7955 1.06468 0
M  V30 16544 H 1556.53 -5.00444 0.918322 0
M  V30 16545 H 1555.93 -5.18698 -2.25762 0
M  V30 16546 H 1554.48 -6.11943 -2.2443 0
M  V30 16547 N 1557.92 -0.68059 -1.42147 0
M  V30 16548 C 1559.17 -0.202445 -2.00681 0
M  V30 16549 C 1559.48 1.19997 -1.54467 0
M  V30 16550 O 1560.69 1.77479 -2.05459 0
M  V30 16551 C 1559.14 -0.311064 -3.58553 0
M  V30 16552 C 1558.75 -1.7179 -4.13754 0
M  V30 16553 C 1560.49 0.108072 -4.24362 0
M  V30 16554 C 1558.4 -1.77897 -5.64009 0
M  V30 16555 H 1557.33 -0.0719266 -0.750561 0
M  V30 16556 H 1559.98 -0.846614 -1.62803 0
M  V30 16557 H 1558.36 0.401098 -3.93963 0
M  V30 16558 H 1559.54 -2.45761 -3.89793 0
M  V30 16559 H 1557.85 -2.08539 -3.60417 0
M  V30 16560 H 1560.45 0.0826684 -5.34636 0
M  V30 16561 H 1560.79 1.14431 -4.00264 0
M  V30 16562 H 1561.33 -0.553285 -3.93933 0
M  V30 16563 H 1558.06 -2.79523 -5.92914 0
M  V30 16564 H 1557.58 -1.0829 -5.89944 0
M  V30 16565 H 1559.26 -1.53504 -6.28527 0
M  V30 16566 N 1559.4 1.51781 -0.424309 0
M  V30 16567 C 1560.33 2.25144 0.429274 0
M  V30 16568 C 1561.34 1.2867 0.997389 0
M  V30 16569 O 1562.53 1.54514 0.893746 0
M  V30 16570 C 1559.63 2.98156 1.61109 0
M  V30 16571 C 1558.8 4.21623 1.16417 0
M  V30 16572 C 1557.86 4.77327 2.21462 0
M  V30 16573 O 1556.89 5.39511 1.8143 0
M  V30 16574 N 1558.09 4.60221 3.53803 0
M  V30 16575 H 1560.85 2.99036 -0.199438 0
M  V30 16576 H 1558.42 1.59919 -0.252492 0
M  V30 16577 H 1560.41 3.32312 2.30978 0
M  V30 16578 H 1558.98 2.27356 2.14541 0
M  V30 16579 H 1558.2 3.93109 0.293034 0
M  V30 16580 H 1559.49 5.01772 0.842767 0
M  V30 16581 H 1558.88 4.10661 3.89068 0
M  V30 16582 H 1557.44 4.98774 4.19604 0
M  V30 16583 N 1560.87 0.155222 1.56834 0
M  V30 16584 C 1561.8 -0.777258 2.20184 0
M  V30 16585 C 1562.78 -1.25102 1.15254 0
M  V30 16586 O 1563.97 -1.3071 1.43627 0
M  V30 16587 C 1561.1 -2.01326 2.82993 0
M  V30 16588 C 1560.05 -1.67596 3.93822 0
M  V30 16589 C 1559.38 -2.98529 4.43604 0
M  V30 16590 C 1560.68 -0.916302 5.142 0
M  V30 16591 H 1562.37 -0.249257 2.98361 0
M  V30 16592 H 1559.92 -0.118448 1.43512 0
M  V30 16593 H 1561.87 -2.67048 3.2598 0
M  V30 16594 H 1560.6 -2.56513 2.0216 0
M  V30 16595 H 1559.26 -1.0425 3.51465 0
M  V30 16596 H 1558.9 -3.51723 3.59583 0
M  V30 16597 H 1558.6 -2.76721 5.18362 0
M  V30 16598 H 1560.13 -3.65308 4.89267 0
M  V30 16599 H 1561.54 -1.47577 5.5398 0
M  V30 16600 H 1559.94 -0.797856 5.94772 0
M  V30 16601 H 1561.01 0.0904351 4.84816 0
M  V30 16602 N 1562.35 -1.57153 -0.118549 0
M  V30 16603 C 1563.31 -1.99438 -1.12947 0
M  V30 16604 C 1564.31 -0.884588 -1.34282 0
M  V30 16605 O 1565.5 -1.15062 -1.30792 0
M  V30 16606 C 1562.64 -2.33492 -2.48384 0
M  V30 16607 H 1563.83 -2.89952 -0.766034 0
M  V30 16608 H 1561.38 -1.5203 -0.362858 0
M  V30 16609 H 1562.12 -1.45859 -2.89647 0
M  V30 16610 H 1561.9 -3.14433 -2.34252 0
M  V30 16611 H 1563.39 -2.66945 -3.21139 0
M  V30 16612 N 1563.83 0.388742 -1.5273 0
M  V30 16613 C 1565.07 1.14269 -1.69475 0
M  V30 16614 C 1565.43 1.87222 -0.425669 0
M  V30 16615 O 1566.63 2.64668 -0.469486 0
M  V30 16616 C 1564.91 2.09472 -2.8958 0
M  V30 16617 S 1566.46 2.927 -3.26913 0
M  V30 16618 H 1563.28 0.386807 -0.596574 0
M  V30 16619 H 1565.88 0.427089 -1.90778 0
M  V30 16620 H 1564.59 1.54599 -3.80167 0
M  V30 16621 H 1564.12 2.8554 -2.70611 0
M  V30 16622 H 1566.13 4.11605 -2.77121 0
M  V30 16623 N 1565.31 1.43698 0.647203 0
M  V30 16624 C 1566.24 1.52135 1.77136 0
M  V30 16625 C 1567.22 0.375551 1.65902 0
M  V30 16626 O 1568.4 0.593564 1.84907 0
M  V30 16627 C 1565.53 1.44974 3.15594 0
M  V30 16628 C 1564.49 2.57866 3.41598 0
M  V30 16629 C 1563.81 2.35757 4.7992 0
M  V30 16630 C 1565.11 4.00089 3.35747 0
M  V30 16631 H 1566.81 2.46227 1.70332 0
M  V30 16632 H 1564.35 1.18507 0.818046 0
M  V30 16633 H 1566.31 1.4948 3.93997 0
M  V30 16634 H 1565.03 0.473905 3.23143 0
M  V30 16635 H 1563.69 2.52722 2.65569 0
M  V30 16636 H 1563.34 1.36403 4.84152 0
M  V30 16637 H 1563.04 3.11436 4.98278 0
M  V30 16638 H 1564.56 2.42055 5.60572 0
M  V30 16639 H 1565.98 4.06687 4.04078 0
M  V30 16640 H 1564.37 4.75842 3.65642 0
M  V30 16641 H 1565.44 4.24798 2.33825 0
M  V30 16642 N 1566.79 -0.886131 1.30328 0
M  V30 16643 C 1568.01 -1.67625 1.22134 0
M  V30 16644 C 1568.44 -1.86893 -0.212712 0
M  V30 16645 O 1567.79 -1.39905 -1.1531 0
M  V30 16646 C 1567.84 -3.03068 1.95402 0
M  V30 16647 O 1566.95 -3.92022 1.28032 0
M  V30 16648 H 1566.29 -0.512246 0.422493 0
M  V30 16649 H 1568.82 -1.10602 1.72129 0
M  V30 16650 H 1568.83 -3.53119 2.04379 0
M  V30 16651 H 1567.5 -2.88363 2.99699 0
M  V30 16652 H 1566.08 -3.50461 1.27402 0
M  V30 16653 N 1568.26 -1.13026 -1.09832 0
M  V30 16654 C 1569.5 -0.8996 -1.83539 0
M  V30 16655 C 1569.87 0.564226 -1.83522 0
M  V30 16656 O 1571.07 0.912286 -2.52845 0
M  V30 16657 C 1569.34 -1.46624 -3.25939 0
M  V30 16658 S 1570.9 -1.37502 -4.167 0
M  V30 16659 H 1567.72 -0.324364 -0.6327 0
M  V30 16660 H 1570.32 -1.44098 -1.32121 0
M  V30 16661 H 1569.02 -2.52507 -3.23525 0
M  V30 16662 H 1568.55 -0.922619 -3.82428 0
M  V30 16663 H 1570.57 -0.350666 -4.94959 0
M  V30 16664 N 1569.74 1.27735 -0.923117 0
M  V30 16665 C 1570.99 1.94185 -0.56004 0
M  V30 16666 C 1571.31 1.72945 0.90084 0
M  V30 16667 O 1570.58 1.07453 1.63801 0
M  V30 16668 H 1569.16 0.718568 -0.204129 0
M  V30 16669 H 1571.82 1.55535 -1.17451 0
M  V30 16670 H 1570.92 3.02644 -0.762424 0
M  V30 16671 N 1571.22 0.688118 1.41784 0
M  V30 16672 C 1572.15 0.0323199 2.33478 0
M  V30 16673 C 1573.13 -0.775145 1.51412 0
M  V30 16674 O 1574.32 -0.72962 1.79973 0
M  V30 16675 C 1571.45 -0.910141 3.35162 0
M  V30 16676 C 1570.4 -0.210312 4.27483 0
M  V30 16677 C 1569.73 -1.26662 5.19481 0
M  V30 16678 C 1571.03 0.918839 5.14154 0
M  V30 16679 H 1572.72 0.798138 2.88566 0
M  V30 16680 H 1570.27 0.385262 1.38751 0
M  V30 16681 H 1572.22 -1.3781 3.98229 0
M  V30 16682 H 1570.94 -1.70754 2.78408 0
M  V30 16683 H 1569.6 0.237544 3.6583 0
M  V30 16684 H 1569.25 -2.05635 4.59046 0
M  V30 16685 H 1568.95 -0.803416 5.82082 0
M  V30 16686 H 1570.47 -1.73524 5.85424 0
M  V30 16687 H 1571.89 0.531499 5.70831 0
M  V30 16688 H 1570.29 1.30867 5.85657 0
M  V30 16689 H 1571.36 1.7618 4.51762 0
M  V30 16690 N 1572.7 -1.51554 0.432352 0
M  V30 16691 C 1573.92 -2.06947 -0.136995 0
M  V30 16692 C 1574.35 -1.29817 -1.36122 0
M  V30 16693 O 1573.71 -0.334733 -1.78183 0
M  V30 16694 C 1573.75 -3.57871 -0.442785 0
M  V30 16695 O 1572.86 -3.82966 -1.53007 0
M  V30 16696 H 1572.2 -0.663988 -0.00405152 0
M  V30 16697 H 1574.73 -1.95225 0.612249 0
M  V30 16698 H 1574.74 -4.02042 -0.694694 0
M  V30 16699 H 1573.41 -4.13436 0.452013 0
M  V30 16700 H 1571.99 -3.50661 -1.26851 0
M  V30 16701 N 1574.18 -0.163538 -1.56749 0
M  V30 16702 C 1575.12 0.769787 -2.17584 0
M  V30 16703 C 1576.09 1.23246 -1.11354 0
M  V30 16704 O 1577.28 1.30203 -1.3947 0
M  V30 16705 C 1574.42 1.99685 -2.81461 0
M  V30 16706 C 1573.53 1.57846 -4.0213 0
M  V30 16707 C 1572.67 2.75858 -4.53955 0
M  V30 16708 C 1571.71 2.30473 -5.67053 0
M  V30 16709 N 1570.84 3.41551 -6.13423 0
M  V30 16710 H 1575.68 0.244221 -2.96998 0
M  V30 16711 H 1573.22 0.108821 -1.46697 0
M  V30 16712 H 1575.18 2.71643 -3.16648 0
M  V30 16713 H 1573.81 2.49624 -2.04664 0
M  V30 16714 H 1572.86 0.755907 -3.72814 0
M  V30 16715 H 1574.17 1.20525 -4.8402 0
M  V30 16716 H 1573.33 3.55984 -4.91284 0
M  V30 16717 H 1572.06 3.16434 -3.71107 0
M  V30 16718 H 1571.07 1.48791 -5.29284 0
M  V30 16719 H 1572.29 1.90964 -6.51698 0
M  V30 16720 H 1570.24 3.81717 -5.33506 0
M  V30 16721 H 1570.16 3.08298 -6.90281 0
M  V30 16722 H 1571.43 4.21985 -6.554 0
M  V30 16723 N 1575.65 1.57214 0.110213 0
M  V30 16724 C 1576.62 2.00034 1.11888 0
M  V30 16725 C 1577.62 0.891697 1.33811 0
M  V30 16726 O 1578.81 1.15754 1.3018 0
M  V30 16727 C 1575.94 2.34806 2.47142 0
M  V30 16728 H 1577.13 2.90354 0.750647 0
M  V30 16729 H 1574.69 1.5222 0.35479 0
M  V30 16730 H 1575.42 1.47393 2.8887 0
M  V30 16731 H 1575.21 3.15671 2.32581 0
M  V30 16732 H 1576.7 2.68644 3.19719 0
M  V30 16733 N 1577.13 -0.380637 1.52934 0
M  V30 16734 C 1578.54 -0.958182 1.60237 0
M  V30 16735 C 1578.89 -1.90722 0.460393 0
M  V30 16736 O 1578.02 -2.12376 -0.415354 0
M  V30 16737 C 1578.61 -1.7446 2.90429 0
M  V30 16738 C 1577.17 -2.27172 3.00116 0
M  V30 16739 C 1576.32 -1.07969 2.55417 0
M  V30 16740 H 1579.27 -0.159908 1.57892 0
M  V30 16741 H 1579.29 -2.60456 2.77385 0
M  V30 16742 H 1578.8 -1.05362 3.73524 0
M  V30 16743 H 1576.91 -2.99557 2.21577 0
M  V30 16744 H 1577.02 -2.56086 4.04916 0
M  V30 16745 H 1575.38 -1.4422 2.09935 0
M  V30 16746 H 1576.17 -0.403925 3.40915 0
M  V30 16747 N 1578.61 -1.44039 -0.639573 0
M  V30 16748 C 1579.84 -1.50063 -1.43164 0
M  V30 16749 C 1580.26 -0.123906 -1.87691 0
M  V30 16750 O 1579.62 0.885192 -1.58221 0
M  V30 16751 C 1579.67 -2.46305 -2.63375 0
M  V30 16752 O 1578.77 -1.95874 -3.62915 0
M  V30 16753 H 1578.11 -0.507052 -0.428713 0
M  V30 16754 H 1580.64 -1.8909 -0.781415 0
M  V30 16755 H 1580.65 -2.64062 -3.11023 0
M  V30 16756 H 1579.33 -3.46309 -2.3031 0
M  V30 16757 H 1577.9 -1.87844 -3.22132 0
M  V30 16758 N 1580.09 0.879207 -1.30796 0
M  V30 16759 C 1581.31 1.66975 -1.23021 0
M  V30 16760 C 1581.74 1.87004 0.202798 0
M  V30 16761 O 1581.1 1.40514 1.14566 0
M  V30 16762 C 1581.14 3.02028 -1.97007 0
M  V30 16763 O 1580.25 3.91338 -1.30109 0
M  V30 16764 H 1579.59 0.509998 -0.425204 0
M  V30 16765 H 1582.12 1.09688 -1.72713 0
M  V30 16766 H 1582.13 3.5203 -2.06249 0
M  V30 16767 H 1580.8 2.8677 -3.01224 0
M  V30 16768 H 1579.38 3.49781 -1.29258 0
M  V30 16769 N 1581.57 1.13606 1.09231 0
M  V30 16770 C 1582.79 0.922667 1.85746 0
M  V30 16771 C 1583.22 -0.523381 1.80672 0
M  V30 16772 O 1582.58 -1.37156 1.18566 0
M  V30 16773 C 1582.62 1.41762 3.31566 0
M  V30 16774 O 1581.73 0.60418 4.0795 0
M  V30 16775 H 1581.07 0.330523 0.575891 0
M  V30 16776 H 1583.6 1.51123 1.37924 0
M  V30 16777 H 1583.61 1.42212 3.82413 0
M  V30 16778 H 1582.28 2.47048 3.34574 0
M  V30 16779 H 1580.86 0.667721 3.66873 0
M  V30 16780 N 1583.05 -1.27244 0.929878 0
M  V30 16781 C 1584.01 -2.25028 0.435315 0
M  V30 16782 C 1585.01 -1.54453 -0.447332 0
M  V30 16783 O 1586.2 -1.72424 -0.248105 0
M  V30 16784 C 1583.33 -3.38843 -0.373933 0
M  V30 16785 H 1584.52 -2.70293 1.2993 0
M  V30 16786 H 1582.08 -1.39204 0.710771 0
M  V30 16787 H 1582.81 -2.98963 -1.25664 0
M  V30 16788 H 1582.6 -3.91244 0.258946 0
M  V30 16789 H 1584.09 -4.11516 -0.710255 0
M  V30 16790 N 1584.52 -0.695628 -1.41417 0
M  V30 16791 C 1585.43 -0.0308378 -2.3458 0
M  V30 16792 C 1586.45 0.766 -1.56232 0
M  V30 16793 O 1587.63 0.703548 -1.88712 0
M  V30 16794 C 1584.69 0.894162 -3.34971 0
M  V30 16795 C 1583.75 0.0895231 -4.29207 0
M  V30 16796 C 1582.98 0.970467 -5.24802 0
M  V30 16797 O 1583.21 2.20997 -5.25848 0
M  V30 16798 O 1582.14 0.420114 -6.00432 0
M  V30 16799 H 1585.97 -0.798775 -2.93007 0
M  V30 16800 H 1583.55 -0.455964 -1.42272 0
M  V30 16801 H 1585.43 1.42458 -3.9659 0
M  V30 16802 H 1584.11 1.64159 -2.78987 0
M  V30 16803 H 1583.02 -0.4855 -3.70936 0
M  V30 16804 H 1584.35 -0.619241 -4.88289 0
M  V30 16805 N 1586 1.51322 -0.440383 0
M  V30 16806 C 1586.96 2.26388 0.357911 0
M  V30 16807 C 1587.96 1.2995 0.947083 0
M  V30 16808 O 1589.15 1.53637 0.821057 0
M  V30 16809 C 1586.29 3.05797 1.50669 0
M  V30 16810 H 1587.48 2.98396 -0.300002 0
M  V30 16811 H 1585.03 1.55096 -0.193628 0
M  V30 16812 H 1585.77 2.38213 2.20057 0
M  V30 16813 H 1585.55 3.76634 1.09037 0
M  V30 16814 H 1587.04 3.6265 2.07062 0
M  V30 16815 N 1587.48 0.171848 1.5666 0
M  V30 16816 C 1588.43 -0.758237 2.17989 0
M  V30 16817 C 1589.4 -1.22654 1.12006 0
M  V30 16818 O 1590.58 -1.29461 1.40159 0
M  V30 16819 C 1587.72 -1.98189 2.82516 0
M  V30 16820 C 1586.83 -1.55711 4.02962 0
M  V30 16821 C 1585.97 -2.73447 4.55412 0
M  V30 16822 C 1585.01 -2.27462 5.68267 0
M  V30 16823 N 1584.15 -3.38293 6.15225 0
M  V30 16824 H 1588.99 -0.228467 2.97123 0
M  V30 16825 H 1586.52 -0.10104 1.46753 0
M  V30 16826 H 1588.48 -2.6996 3.18084 0
M  V30 16827 H 1587.11 -2.48536 2.05985 0
M  V30 16828 H 1586.16 -0.736126 3.7321 0
M  V30 16829 H 1587.47 -1.17957 4.84652 0
M  V30 16830 H 1586.63 -3.53374 4.93165 0
M  V30 16831 H 1585.37 -3.14462 3.7278 0
M  V30 16832 H 1584.37 -1.45982 5.30065 0
M  V30 16833 H 1585.6 -1.87505 6.52701 0
M  V30 16834 H 1583.54 -3.78882 5.35522 0
M  V30 16835 H 1583.46 -3.04633 6.91907 0
M  V30 16836 H 1584.73 -4.18503 6.57629 0
M  V30 16837 N 1588.96 -1.5727 -0.101874 0
M  V30 16838 C 1590.18 -1.90319 -0.824215 0
M  V30 16839 C 1590.61 -0.765469 -1.7182 0
M  V30 16840 O 1589.97 0.283275 -1.79073 0
M  V30 16841 C 1590.01 -3.22201 -1.61922 0
M  V30 16842 O 1589.12 -3.09313 -2.72762 0
M  V30 16843 H 1588.46 -0.624042 -0.226864 0
M  V30 16844 H 1590.99 -2.04447 -0.0791314 0
M  V30 16845 H 1591 -3.55343 -2.00487 0
M  V30 16846 H 1589.67 -4.04596 -0.963078 0
M  V30 16847 H 1588.25 -2.87672 -2.37274 0
M  V30 16848 N 1590.44 0.372521 -1.53134 0
M  V30 16849 C 1591.38 1.45597 -1.79082 0
M  V30 16850 C 1592.35 1.5349 -0.63482 0
M  V30 16851 O 1593.54 1.69488 -0.876276 0
M  V30 16852 C 1590.68 2.8263 -1.98026 0
M  V30 16853 C 1589.79 2.83758 -3.25738 0
M  V30 16854 C 1588.93 4.12322 -3.34909 0
M  V30 16855 C 1587.96 4.07565 -4.5668 0
M  V30 16856 N 1587.1 5.27766 -4.63042 0
M  V30 16857 H 1591.94 1.22771 -2.71535 0
M  V30 16858 H 1589.48 0.595285 -1.34517 0
M  V30 16859 H 1591.44 3.62227 -2.06997 0
M  V30 16860 H 1590.07 3.0387 -1.08917 0
M  V30 16861 H 1589.12 1.96435 -3.25757 0
M  V30 16862 H 1590.43 2.76114 -4.15406 0
M  V30 16863 H 1589.58 5.00331 -3.43153 0
M  V30 16864 H 1588.32 4.22709 -2.43245 0
M  V30 16865 H 1587.33 3.17943 -4.48545 0
M  V30 16866 H 1588.55 3.98786 -5.49678 0
M  V30 16867 H 1586.5 5.38752 -3.74276 0
M  V30 16868 H 1586.42 5.22264 -5.46605 0
M  V30 16869 H 1587.68 6.17626 -4.75561 0
M  V30 16870 N 1591.91 1.44376 0.631925 0
M  V30 16871 C 1593.33 1.28245 0.950014 0
M  V30 16872 C 1593.53 0.217644 2.00321 0
M  V30 16873 O 1592.59 -0.396736 2.49364 0
M  V30 16874 C 1593.9 2.65378 1.41404 0
M  V30 16875 C 1595.45 2.73081 1.52956 0
M  V30 16876 C 1595.92 4.10682 2.02742 0
M  V30 16877 N 1597.41 4.12854 2.10014 0
M  V30 16878 C 1598.15 5.16173 2.49705 0
M  V30 16879 N 1597.64 6.29855 2.88539 0
M  V30 16880 N 1599.44 5.03528 2.49832 0
M  V30 16881 H 1591.59 2.12302 -0.0646167 0
M  V30 16882 H 1593.85 0.9474 0.0337162 0
M  V30 16883 H 1593.56 3.44366 0.714476 0
M  V30 16884 H 1593.43 2.92213 2.3852 0
M  V30 16885 H 1595.82 1.94412 2.22009 0
M  V30 16886 H 1595.9 2.49988 0.542176 0
M  V30 16887 H 1595.54 4.89827 1.34285 0
M  V30 16888 H 1595.47 4.31152 3.02351 0
M  V30 16889 H 1597.96 3.30806 1.8269 0
M  V30 16890 H 1598.28 7.04505 3.17637 0
M  V30 16891 H 1596.62 6.33294 2.86293 0
M  V30 16892 H 1599.81 4.13773 2.18883 0
M  V30 16893 H 1599.99 5.84172 2.80441 0
M  V30 16894 N 1593.39 -0.872258 1.31261 0
M  V30 16895 C 1594.62 -1.6632 1.23905 0
M  V30 16896 C 1595.04 -1.87109 -0.192878 0
M  V30 16897 O 1594.4 -1.4112 -1.1382 0
M  V30 16898 C 1594.45 -3.00979 1.98606 0
M  V30 16899 O 1593.55 -3.90642 1.32183 0
M  V30 16900 H 1592.89 -0.507736 0.427902 0
M  V30 16901 H 1595.42 -1.0877 1.73292 0
M  V30 16902 H 1595.43 -3.50931 2.08113 0
M  V30 16903 H 1594.11 -2.85168 3.02741 0
M  V30 16904 H 1592.68 -3.4909 1.31112 0
M  V30 16905 N 1594.87 -1.14184 -1.08627 0
M  V30 16906 C 1595.8 -0.849455 -2.17501 0
M  V30 16907 C 1596.78 0.194617 -1.68983 0
M  V30 16908 O 1597.97 0.0517757 -1.94131 0
M  V30 16909 C 1595.1 -0.323685 -3.45788 0
M  V30 16910 C 1594.05 -1.30294 -4.07685 0
M  V30 16911 C 1593.38 -0.636575 -5.30897 0
M  V30 16912 C 1594.68 -2.66441 -4.49229 0
M  V30 16913 H 1596.37 -1.75987 -2.42217 0
M  V30 16914 H 1593.92 -0.847595 -1.16412 0
M  V30 16915 H 1595.87 -0.106754 -4.21265 0
M  V30 16916 H 1594.59 0.62215 -3.20619 0
M  V30 16917 H 1593.25 -1.50601 -3.34238 0
M  V30 16918 H 1592.9 0.314995 -5.02013 0
M  V30 16919 H 1592.6 -1.28998 -5.73266 0
M  V30 16920 H 1594.12 -0.429117 -6.0909 0
M  V30 16921 H 1595.54 -2.50055 -5.15893 0
M  V30 16922 H 1593.93 -3.28033 -5.02508 0
M  V30 16923 H 1595 -3.23486 -3.61226 0
M  V30 16924 N 1596.35 1.26749 -0.936613 0
M  V30 16925 C 1597.26 2.30272 -0.448573 0
M  V30 16926 C 1598.27 1.67386 0.475184 0
M  V30 16927 O 1599.45 1.98232 0.355825 0
M  V30 16928 C 1596.52 3.45546 0.28262 0
M  V30 16929 C 1595.58 4.23926 -0.677138 0
M  V30 16930 C 1594.81 5.33697 0.019255 0
M  V30 16931 O 1595.03 5.56825 1.23703 0
M  V30 16932 O 1593.97 5.98302 -0.657119 0
M  V30 16933 H 1597.79 2.74072 -1.30838 0
M  V30 16934 H 1595.38 1.31863 -0.702314 0
M  V30 16935 H 1597.26 4.15635 0.694686 0
M  V30 16936 H 1595.93 3.03784 1.11789 0
M  V30 16937 H 1594.84 3.56337 -1.13906 0
M  V30 16938 H 1596.17 4.69425 -1.47988 0
M  V30 16939 N 1597.83 0.703118 1.41046 0
M  V30 16940 C 1598.79 0.0514476 2.29142 0
M  V30 16941 C 1599.79 -0.700223 1.44753 0
M  V30 16942 O 1600.98 -0.533985 1.65814 0
M  V30 16943 C 1598.11 -0.93735 3.2776 0
M  V30 16944 H 1599.3 0.827201 2.88266 0
M  V30 16945 H 1596.86 0.467045 1.49159 0
M  V30 16946 H 1597.59 -1.7406 2.7363 0
M  V30 16947 H 1597.38 -0.4014 3.9004 0
M  V30 16948 H 1598.87 -1.39088 3.93757 0
M  V30 16949 N 1599.3 -1.51086 0.448402 0
M  V30 16950 C 1600.55 -2.01367 -0.115904 0
M  V30 16951 C 1600.87 -1.33658 -1.42811 0
M  V30 16952 O 1602.07 -1.74968 -2.07602 0
M  V30 16953 C 1600.53 -3.58981 -0.257092 0
M  V30 16954 C 1600.14 -4.35634 1.04534 0
M  V30 16955 C 1601.88 -4.17373 -0.774573 0
M  V30 16956 C 1599.79 -5.84978 0.869184 0
M  V30 16957 H 1598.72 -0.752528 -0.0470907 0
M  V30 16958 H 1601.37 -1.74098 0.57985 0
M  V30 16959 H 1599.75 -3.82742 -1.01611 0
M  V30 16960 H 1600.92 -4.23612 1.81354 0
M  V30 16961 H 1599.24 -3.88745 1.49219 0
M  V30 16962 H 1601.84 -5.26673 -0.923032 0
M  V30 16963 H 1602.18 -3.77267 -1.75997 0
M  V30 16964 H 1602.71 -3.97732 -0.0735697 0
M  V30 16965 H 1599.45 -6.29516 1.82729 0
M  V30 16966 H 1598.97 -5.99634 0.140969 0
M  V30 16967 H 1600.65 -6.44852 0.526752 0
M  V30 16968 N 1600.78 -0.180154 -1.56567 0
M  V30 16969 C 1601.69 0.758959 -2.21984 0
M  V30 16970 C 1602.71 1.24631 -1.21422 0
M  V30 16971 O 1603.88 1.29659 -1.54112 0
M  V30 16972 C 1600.95 1.96744 -2.85469 0
M  V30 16973 C 1600.01 1.52612 -4.01258 0
M  V30 16974 C 1599.24 2.677 -4.61706 0
M  V30 16975 O 1599.47 3.84799 -4.21054 0
M  V30 16976 O 1598.4 2.41269 -5.51428 0
M  V30 16977 H 1602.23 0.231919 -3.02813 0
M  V30 16978 H 1599.81 0.0484552 -1.49321 0
M  V30 16979 H 1601.69 2.67404 -3.25689 0
M  V30 16980 H 1600.37 2.48337 -2.0763 0
M  V30 16981 H 1599.28 0.78877 -3.6569 0
M  V30 16982 H 1600.61 1.05701 -4.80716 0
M  V30 16983 N 1602.26 1.57322 0.0935319 0
M  V30 16984 C 1603.17 2.05499 1.13169 0
M  V30 16985 C 1604.19 0.980199 1.43764 0
M  V30 16986 O 1605.36 1.29347 1.54374 0
M  V30 16987 C 1602.43 2.47111 2.43181 0
M  V30 16988 C 1601.49 3.68791 2.19754 0
M  V30 16989 C 1600.72 4.08408 3.43567 0
M  V30 16990 O 1600.94 3.48104 4.51863 0
M  V30 16991 O 1599.88 5.01351 3.33062 0
M  V30 16992 H 1603.7 2.9423 0.752491 0
M  V30 16993 H 1601.29 1.4623 0.306151 0
M  V30 16994 H 1603.17 2.74495 3.19735 0
M  V30 16995 H 1601.85 1.61518 2.80524 0
M  V30 16996 H 1600.75 3.46521 1.40976 0
M  V30 16997 H 1602.09 4.55169 1.87303 0
M  V30 16998 N 1603.74 -0.364395 1.53329 0
M  V30 16999 C 1604.69 -1.44645 1.79851 0
M  V30 17000 C 1605.66 -1.53151 0.642951 0
M  V30 17001 O 1606.84 -1.6902 0.885252 0
M  V30 17002 C 1603.98 -2.81575 1.99523 0
M  V30 17003 C 1603.09 -2.82026 3.27239 0
M  V30 17004 C 1602.23 -4.1054 3.37091 0
M  V30 17005 C 1601.27 -4.05138 4.58835 0
M  V30 17006 N 1600.4 -5.25303 4.65834 0
M  V30 17007 H 1605.24 -1.21329 2.72182 0
M  V30 17008 H 1602.78 -0.588143 1.34831 0
M  V30 17009 H 1604.74 -3.61124 2.08915 0
M  V30 17010 H 1603.37 -3.03288 1.10527 0
M  V30 17011 H 1602.42 -1.94704 3.26794 0
M  V30 17012 H 1603.73 -2.73907 4.16865 0
M  V30 17013 H 1602.89 -4.98504 3.45801 0
M  V30 17014 H 1601.63 -4.21413 2.45483 0
M  V30 17015 H 1600.63 -3.1556 4.50224 0
M  V30 17016 H 1601.86 -3.95866 5.51785 0
M  V30 17017 H 1599.8 -5.36759 3.77128 0
M  V30 17018 H 1599.72 -5.19358 5.49367 0
M  V30 17019 H 1600.99 -6.15096 4.78829 0
M  V30 17020 N 1605.22 -1.44709 -0.62426 0
M  V30 17021 C 1606.13 -1.54608 -1.76447 0
M  V30 17022 C 1607.14 -0.43137 -1.68568 0
M  V30 17023 O 1608.32 -0.6897 -1.89222 0
M  V30 17024 C 1605.38 -1.49404 -3.12857 0
M  V30 17025 C 1604.44 -2.71782 -3.32315 0
M  V30 17026 C 1603.68 -2.66817 -4.62217 0
M  V30 17027 O 1603.9 -1.73205 -5.43467 0
M  V30 17028 O 1602.83 -3.57773 -4.84027 0
M  V30 17029 H 1606.66 -2.50951 -1.71048 0
M  V30 17030 H 1604.25 -1.27033 -0.786326 0
M  V30 17031 H 1606.13 -1.4905 -3.9416 0
M  V30 17032 H 1604.8 -0.562078 -3.18783 0
M  V30 17033 H 1603.71 -2.77702 -2.50664 0
M  V30 17034 H 1605.04 -3.64048 -3.31255 0
M  V30 17035 N 1606.69 0.865285 -1.31722 0
M  V30 17036 C 1607.92 1.65661 -1.24785 0
M  V30 17037 C 1608.34 1.87208 0.182952 0
M  V30 17038 O 1607.7 1.41721 1.1307 0
M  V30 17039 C 1607.75 2.99921 -2.00199 0
M  V30 17040 O 1606.85 3.89936 -1.34253 0
M  V30 17041 H 1606.2 0.505459 -0.430589 0
M  V30 17042 H 1608.73 1.0785 -1.73867 0
M  V30 17043 H 1608.74 3.49823 -2.09971 0
M  V30 17044 H 1607.41 2.83559 -3.04249 0
M  V30 17045 H 1605.99 3.4839 -1.32961 0
M  V30 17046 N 1608.17 1.14759 1.0802 0
M  V30 17047 C 1609.4 0.942316 1.84757 0
M  V30 17048 C 1609.82 -0.504188 1.81217 0
M  V30 17049 O 1609.18 -1.35891 1.20014 0
M  V30 17050 C 1609.23 1.45271 3.30043 0
M  V30 17051 O 1608.33 0.647414 4.07287 0
M  V30 17052 H 1607.67 0.336613 0.572353 0
M  V30 17053 H 1610.2 1.52578 1.36313 0
M  V30 17054 H 1610.21 1.4626 3.80883 0
M  V30 17055 H 1608.89 2.50583 3.31935 0
M  V30 17056 H 1607.47 0.706595 3.66144 0
M  V30 17057 N 1609.65 -1.26251 0.943322 0
M  V30 17058 C 1610.56 -2.3003 0.460778 0
M  V30 17059 C 1611.58 -1.67635 -0.4663 0
M  V30 17060 O 1612.75 -1.98418 -0.345307 0
M  V30 17061 C 1609.82 -3.45691 -0.264291 0
M  V30 17062 C 1608.88 -4.23561 0.69961 0
M  V30 17063 C 1608.11 -5.33699 0.00904846 0
M  V30 17064 O 1608.33 -5.57473 -1.20748 0
M  V30 17065 O 1607.27 -5.97945 0.688839 0
M  V30 17066 H 1611.09 -2.73374 1.32289 0
M  V30 17067 H 1608.68 -1.31489 0.709297 0
M  V30 17068 H 1610.56 -4.15997 -0.672634 0
M  V30 17069 H 1609.24 -3.04373 -1.10176 0
M  V30 17070 H 1608.14 -3.55728 1.15794 0
M  V30 17071 H 1609.48 -4.68634 1.50476 0
M  V30 17072 N 1611.13 -0.710588 -1.40671 0
M  V30 17073 C 1612.04 -0.0557164 -2.34534 0
M  V30 17074 C 1613.06 0.749387 -1.57036 0
M  V30 17075 O 1614.23 0.683493 -1.89447 0
M  V30 17076 C 1611.3 0.858583 -3.35901 0
M  V30 17077 C 1610.36 0.043995 -4.29277 0
M  V30 17078 C 1609.59 0.91475 -5.25802 0
M  V30 17079 O 1609.81 2.15407 -5.28163 0
M  V30 17080 O 1608.75 0.356407 -6.00844 0
M  V30 17081 H 1612.57 -0.829807 -2.92144 0
M  V30 17082 H 1610.16 -0.471028 -1.4178 0
M  V30 17083 H 1612.04 1.38244 -3.98079 0
M  V30 17084 H 1610.72 1.61191 -2.80712 0
M  V30 17085 H 1609.62 -0.524815 -3.704 0
M  V30 17086 H 1610.96 -0.670996 -4.87605 0
M  V30 17087 N 1612.61 1.50847 -0.456408 0
M  V30 17088 C 1613.56 2.29805 0.359529 0
M  V30 17089 C 1614.55 1.3646 1.00374 0
M  V30 17090 O 1615.76 1.53718 0.936524 0
M  V30 17091 H 1612.13 0.739825 0.134772 0
M  V30 17092 H 1614.1 2.96603 -0.327009 0
M  V30 17093 C 1612.85 3.16597 1.43741 0
M  V30 17094 H 1612.17 3.88323 0.95108 0
M  V30 17095 H 1613.61 3.74866 1.98119 0
M  V30 17096 C 1612.07 2.3322 2.43126 0
M  V30 17097 O 1612.6 2.00504 3.48082 0
M  V30 17098 N 1610.81 1.96078 2.1448 0
M  V30 17099 H 1610.36 2.22883 1.29155 0
M  V30 17100 H 1610.31 1.40592 2.81214 0
M  V30 17101 N 1614.09 0.188454 1.56469 0
M  V30 17102 C 1615.33 -0.451165 1.97 0
M  V30 17103 C 1615.65 -1.6261 1.07624 0
M  V30 17104 O 1614.92 -1.95354 0.146125 0
M  V30 17105 H 1613.5 -0.16967 0.727476 0
M  V30 17106 H 1616.17 0.273638 1.9297 0
M  V30 17107 H 1615.26 -0.799741 3.0168 0
M  V30 17108 N 1615.56 -1.5737 -0.0851874 0
M  V30 17109 C 1616.51 -2.02758 -1.10262 0
M  V30 17110 C 1617.48 -0.905702 -1.39235 0
M  V30 17111 O 1618.67 -1.17241 -1.50529 0
M  V30 17112 C 1615.81 -2.46528 -2.41492 0
M  V30 17113 C 1614.92 -3.72278 -2.19165 0
M  V30 17114 C 1614.05 -4.04885 -3.43863 0
M  V30 17115 C 1613.09 -5.23715 -3.16842 0
M  V30 17116 N 1612.23 -5.52026 -4.33833 0
M  V30 17117 H 1617.07 -2.89453 -0.708583 0
M  V30 17118 H 1614.61 -1.43156 -0.338332 0
M  V30 17119 H 1616.56 -2.69952 -3.18091 0
M  V30 17120 H 1615.19 -1.62829 -2.78723 0
M  V30 17121 H 1614.25 -3.56272 -1.33321 0
M  V30 17122 H 1615.56 -4.5902 -1.95197 0
M  V30 17123 H 1614.71 -4.29138 -4.28865 0
M  V30 17124 H 1613.45 -3.16683 -3.70895 0
M  V30 17125 H 1612.46 -4.99272 -2.30234 0
M  V30 17126 H 1613.68 -6.13523 -2.91146 0
M  V30 17127 H 1611.63 -4.66784 -4.60922 0
M  V30 17128 H 1611.54 -6.3316 -4.13091 0
M  V30 17129 H 1612.81 -5.80822 -5.19871 0
M  V30 17130 N 1617.04 0.356258 -1.53521 0
M  V30 17131 C 1617.97 1.44271 -1.83598 0
M  V30 17132 C 1618.95 1.5547 -0.690141 0
M  V30 17133 O 1620.14 1.69886 -0.940868 0
M  V30 17134 C 1617.27 2.8149 -2.03422 0
M  V30 17135 C 1616.22 2.85108 -3.19213 0
M  V30 17136 C 1615.55 4.25091 -3.24348 0
M  V30 17137 C 1616.85 2.51788 -4.57602 0
M  V30 17138 H 1618.54 1.1935 -2.74583 0
M  V30 17139 H 1616.09 0.572707 -1.32121 0
M  V30 17140 H 1618.04 3.57531 -2.23046 0
M  V30 17141 H 1616.76 3.07819 -1.09155 0
M  V30 17142 H 1615.42 2.1152 -2.99424 0
M  V30 17143 H 1615.07 4.4851 -2.277 0
M  V30 17144 H 1614.77 4.28426 -4.0215 0
M  V30 17145 H 1616.3 5.02992 -3.46167 0
M  V30 17146 H 1617.71 3.17542 -4.77326 0
M  V30 17147 H 1616.11 2.66426 -5.37715 0
M  V30 17148 H 1617.18 1.4701 -4.62078 0
M  V30 17149 O 1618.56 1.53492 0.502237 0
M  V30 17150 H 1619.25 1.5534 1.15712 0
M  V30 END ATOM
M  V30 BEGIN BOND
M  V30 END BOND
M  V30 END CTAB
M  END
$$$$
