drugbank_target|P00282 Azurin (DB01915; DB02586; DB03492; DB03570; DB03840; DB03871; DB04085; DB04100; DB04231; DB06968)
 OpenBabel12092119523D

  0  0  0     0  0            999 V3000
M  V30 BEGIN CTAB
M  V30 COUNTS 2247 2265 0 0 0
M  V30 BEGIN ATOM
M  V30 1 H -0.908 1.98254 -0.117106 0
M  V30 2 N 0 1.576 0 0
M  V30 3 C 0.933 2.03868 1.02534 0
M  V30 4 C 1.911 0.928543 1.3348 0
M  V30 5 O 3.095 1.19667 1.45644 0
M  V30 6 C 0.222 2.43627 2.35294 0
M  V30 7 C -0.732 3.65373 2.2001 0
M  V30 8 S 0.101 5.13292 1.52614 0
M  V30 9 C 1.257 5.56322 2.86805 0
M  V30 10 H 1.49 2.90518 0.631377 0
M  V30 11 H -0.977 1.52953 0.210867 0
M  V30 12 H 0.981 2.67203 3.11629 0
M  V30 13 H -0.358 1.57376 2.7183 0
M  V30 14 H -1.165 3.90944 3.18086 0
M  V30 15 H -1.563 3.418 1.51819 0
M  V30 16 H 0.729 5.58782 3.83104 0
M  V30 17 H 1.672 6.56266 2.65933 0
M  V30 18 H 2.08 4.83886 2.90714 0
M  V30 19 N 1.4781 -0.272755 1.55222 0
M  V30 20 C 2.4081 -1.34136 1.91127 0
M  V30 21 C 3.3891 -1.51513 0.773168 0
M  V30 22 O 4.5741 -1.64552 1.03132 0
M  V30 23 C 1.7041 -2.70083 2.1834 0
M  V30 24 C 0.6581 -2.67437 3.34158 0
M  V30 25 C -0.0159 -4.06938 3.46851 0
M  V30 26 C 1.2841 -2.26686 4.70543 0
M  V30 27 H 2.9781 -1.04333 2.80633 0
M  V30 28 H 0.5241 -0.500454 1.35024 0
M  V30 29 H 2.4771 -3.44952 2.42046 0
M  V30 30 H 1.2011 -3.01469 1.25634 0
M  V30 31 H -0.1399 -1.95026 3.1042 0
M  V30 32 H -0.4919 -4.35547 2.51611 0
M  V30 33 H -0.7919 -4.06062 4.2472 0
M  V30 34 H 0.7321 -4.83545 3.72849 0
M  V30 35 H 2.1461 -2.91277 4.93792 0
M  V30 36 H 0.5431 -2.36971 5.5133 0
M  V30 37 H 1.6131 -1.21818 4.69349 0
M  V30 38 N 2.9562 -1.48159 -0.537278 0
M  V30 39 C 4.3722 -1.34118 -0.865129 0
M  V30 40 C 4.5722 -0.346678 -1.98495 0
M  V30 41 O 3.6282 0.234715 -2.51407 0
M  V30 42 C 4.9412 -2.73963 -1.23954 0
M  V30 43 C 6.4892 -2.82397 -1.34984 0
M  V30 44 C 6.9642 -4.22928 -1.75772 0
M  V30 45 N 8.4552 -4.25566 -1.82887 0
M  V30 46 C 9.1902 -5.31235 -2.15817 0
M  V30 47 N 8.6862 -6.47189 -2.47222 0
M  V30 48 N 10.4792 -5.18624 -2.16761 0
M  V30 49 H 2.6302 -2.1144 0.201715 0
M  V30 50 H 4.8932 -0.947598 0.0275949 0
M  V30 51 H 4.5992 -3.48264 -0.490381 0
M  V30 52 H 4.4732 -3.0702 -2.19132 0
M  V30 53 H 6.8602 -2.08356 -2.08978 0
M  V30 54 H 6.9412 -2.5297 -0.379448 0
M  V30 55 H 6.5852 -4.97482 -1.02341 0
M  V30 56 H 6.5152 -4.49794 -2.73848 0
M  V30 57 H 9.0062 -3.41924 -1.60924 0
M  V30 58 H 9.3192 -7.23564 -2.71433 0
M  V30 59 H 7.6642 -6.50476 -2.44757 0
M  V30 60 H 10.8552 -4.27056 -1.91679 0
M  V30 61 H 11.0282 -6.01078 -2.42093 0
M  V30 62 N 4.4343 0.785586 -1.36625 0
M  V30 63 C 5.3813 1.89838 -1.31264 0
M  V30 64 C 6.3513 1.65115 -0.180633 0
M  V30 65 O 7.5363 1.87222 -0.36777 0
M  V30 66 C 4.6763 3.26706 -1.11163 0
M  V30 67 C 3.7893 3.63476 -2.33472 0
M  V30 68 C 2.9243 4.89481 -2.06353 0
M  V30 69 C 1.9633 5.18941 -3.24602 0
M  V30 70 N 1.1003 6.36131 -2.97123 0
M  V30 71 H 5.9403 1.93756 -2.26413 0
M  V30 72 H 3.4773 0.947454 -1.12524 0
M  V30 73 H 5.4353 4.05639 -0.975337 0
M  V30 74 H 4.0653 3.222 -0.196674 0
M  V30 75 H 3.1173 2.79636 -2.57891 0
M  V30 76 H 4.4293 3.81193 -3.21704 0
M  V30 77 H 3.5833 5.76288 -1.89675 0
M  V30 78 H 2.3223 4.73841 -1.15437 0
M  V30 79 H 1.3273 4.30615 -3.41834 0
M  V30 80 H 2.5523 5.36498 -4.16349 0
M  V30 81 H 0.4983 6.21875 -2.08823 0
M  V30 82 H 0.4153 6.54198 -3.78894 0
M  V30 83 H 1.6833 7.2591 -2.84033 0
M  V30 84 N 5.9124 1.20967 1.01018 0
M  V30 85 C 6.8424 0.988272 2.11555 0
M  V30 86 C 7.8234 -0.0849778 1.69888 0
M  V30 87 O 9.0084 0.0738202 1.9406 0
M  V30 88 C 6.1384 0.546528 3.42973 0
M  V30 89 C 5.0924 1.56375 3.9841 0
M  V30 90 C 4.4184 0.97842 5.25672 0
M  V30 91 C 5.7184 2.94922 4.31066 0
M  V30 92 H 7.4124 1.91276 2.30334 0
M  V30 93 H 4.9584 0.921073 1.1069 0
M  V30 94 H 6.9114 0.378839 4.19694 0
M  V30 95 H 5.6354 -0.413598 3.23971 0
M  V30 96 H 4.2944 1.71891 3.23804 0
M  V30 97 H 3.9424 0.0101688 5.02999 0
M  V30 98 H 3.6424 1.65784 5.63728 0
M  V30 99 H 5.1664 0.821939 6.05043 0
M  V30 100 H 6.5804 2.8288 4.9865 0
M  V30 101 H 4.9774 3.5983 4.80253 0
M  V30 102 H 6.0474 3.4616 3.39561 0
M  V30 103 N 7.3905 -1.2043 1.01659 0
M  V30 104 C 8.3535 -2.21433 0.591616 0
M  V30 105 C 9.3535 -1.57203 -0.338226 0
M  V30 106 O 10.5435 -1.73737 -0.126918 0
M  V30 107 C 7.6755 -3.40628 -0.136058 0
M  V30 108 H 8.8685 -2.60545 1.48514 0
M  V30 109 H 6.4215 -1.33893 0.806379 0
M  V30 110 H 7.1565 -3.07019 -1.04449 0
M  V30 111 H 6.9415 -3.88475 0.531917 0
M  V30 112 H 8.4315 -4.15475 -0.420735 0
M  V30 113 N 8.8686 -0.792821 -1.36206 0
M  V30 114 C 9.8316 -0.199459 -2.2833 0
M  V30 115 C 10.8316 0.605189 -1.48977 0
M  V30 116 O 12.0216 0.425685 -1.68919 0
M  V30 117 C 9.1536 0.723523 -3.33134 0
M  V30 118 H 10.3466 -1.01181 -2.82316 0
M  V30 119 H 7.8996 -0.562485 -1.45828 0
M  V30 120 H 8.6346 1.56008 -2.84309 0
M  V30 121 H 8.4196 0.148436 -3.91819 0
M  V30 122 H 9.9096 1.13344 -4.01924 0
M  V30 123 N 10.3467 1.47872 -0.545128 0
M  V30 124 C 11.5927 2.02793 -0.0166104 0
M  V30 125 C 11.9257 1.41987 1.32489 0
M  V30 126 O 11.2007 0.571045 1.85928 0
M  V30 127 C 11.4837 3.59989 0.0893294 0
M  V30 128 C 11.3367 4.3125 -1.27841 0
M  V30 129 C 12.6557 4.32606 0.808724 0
M  V30 130 H 9.7747 0.736962 -0.00751035 0
M  V30 131 H 12.4167 1.76433 -0.705085 0
M  V30 132 H 10.5667 3.82579 0.675681 0
M  V30 133 H 12.2387 4.20035 -1.90704 0
M  V30 134 H 10.4817 3.92076 -1.85632 0
M  V30 135 H 11.1527 5.39736 -1.15713 0
M  V30 136 H 13.6287 4.14936 0.310992 0
M  V30 137 H 12.5047 5.42251 0.851782 0
M  V30 138 H 12.7657 4.00963 1.86229 0
M  V30 139 N 11.8248 0.280983 1.55075 0
M  V30 140 C 13.0498 -0.340154 2.04592 0
M  V30 141 C 13.4748 -1.48246 1.15779 0
M  V30 142 O 12.8328 -1.80614 0.15761 0
M  V30 143 C 12.8808 -0.793104 3.5177 0
M  V30 144 O 11.9848 -1.89981 3.66034 0
M  V30 145 H 11.3258 -0.0694289 0.66036 0
M  V30 146 H 13.8558 0.416993 2.00306 0
M  V30 147 H 13.8658 -1.08729 3.93245 0
M  V30 148 H 12.5408 0.0426163 4.15878 0
M  V30 149 H 11.1178 -1.60771 3.36463 0
M  V30 150 N 13.3029 -1.57598 0.00835791 0
M  V30 151 C 14.2329 -2.1198 -0.979113 0
M  V30 152 C 15.2139 -1.03091 -1.35301 0
M  V30 153 O 16.3989 -1.30818 -1.43528 0
M  V30 154 C 13.5289 -2.62995 -2.26828 0
M  V30 155 C 12.4829 -3.76485 -2.03576 0
M  V30 156 C 11.8089 -4.13846 -3.38579 0
M  V30 157 C 13.1089 -5.0342 -1.39161 0
M  V30 158 H 14.8029 -2.94738 -0.526281 0
M  V30 159 H 12.3489 -1.41783 -0.251704 0
M  V30 160 H 14.3019 -2.99669 -2.96271 0
M  V30 161 H 13.0259 -1.7737 -2.7424 0
M  V30 162 H 11.6849 -3.40217 -1.36557 0
M  V30 163 H 11.3329 -3.25232 -3.83709 0
M  V30 164 H 11.0329 -4.90312 -3.23834 0
M  V30 165 H 12.5569 -4.53086 -4.09323 0
M  V30 166 H 13.9709 -5.37812 -1.98573 0
M  V30 167 H 12.3679 -5.84746 -1.34878 0
M  V30 168 H 13.4379 -4.83548 -0.361868 0
M  V30 169 N 14.781 0.264519 -1.55364 0
M  V30 170 C 15.711 1.33121 -1.91836 0
M  V30 171 C 16.692 1.51101 -0.781192 0
M  V30 172 O 17.877 1.64003 -1.04003 0
M  V30 173 C 15.007 2.68921 -2.19769 0
M  V30 174 C 13.961 2.65661 -3.35571 0
M  V30 175 C 13.287 4.05093 -3.49004 0
M  V30 176 C 14.587 2.24187 -4.71739 0
M  V30 177 H 16.281 1.02844 -2.81182 0
M  V30 178 H 13.827 0.493286 -1.35287 0
M  V30 179 H 15.78 3.43663 -2.43872 0
M  V30 180 H 14.504 3.00799 -1.27231 0
M  V30 181 H 13.163 1.93377 -3.1145 0
M  V30 182 H 12.811 4.34206 -2.53917 0
M  V30 183 H 12.511 4.03804 -4.26868 0
M  V30 184 H 14.035 4.81561 -3.75408 0
M  V30 185 H 15.449 2.88654 -4.9533 0
M  V30 186 H 13.846 2.34044 -5.52579 0
M  V30 187 H 14.916 1.19327 -4.69988 0
M  V30 188 N 16.2591 1.48442 0.529413 0
M  V30 189 C 17.4841 1.60406 1.31471 0
M  V30 190 C 17.9091 0.264738 1.86228 0
M  V30 191 O 17.2671 -0.763668 1.64432 0
M  V30 192 C 17.3151 2.65419 2.44101 0
M  V30 193 O 16.4191 2.22618 3.47153 0
M  V30 194 H 15.7601 0.537863 0.389357 0
M  V30 195 H 18.2901 1.94432 0.636965 0
M  V30 196 H 18.3001 2.86709 2.90279 0
M  V30 197 H 16.9751 3.62652 2.03608 0
M  V30 198 H 15.5521 2.11543 3.0709 0
M  V30 199 N 17.7372 -0.778329 1.37039 0
M  V30 200 C 18.6672 -1.90546 1.34962 0
M  V30 201 C 19.6482 -1.68681 0.219274 0
M  V30 202 O 20.8332 -1.89634 0.418624 0
M  V30 203 C 17.9632 -3.27734 1.14925 0
M  V30 204 C 16.9172 -3.64147 2.24902 0
M  V30 205 C 16.2432 -4.99806 1.89996 0
M  V30 206 C 17.5432 -3.71579 3.67051 0
M  V30 207 H 19.2372 -1.92541 2.29277 0
M  V30 208 H 16.7832 -0.924948 1.10366 0
M  V30 209 H 18.7362 -4.06215 1.12104 0
M  V30 210 H 17.4602 -3.26154 0.170631 0
M  V30 211 H 16.1192 -2.8797 2.26868 0
M  V30 212 H 15.7672 -4.94759 0.906796 0
M  V30 213 H 15.4672 -5.25139 2.63634 0
M  V30 214 H 16.9912 -5.80694 1.88749 0
M  V30 215 H 18.4052 -4.40227 3.67251 0
M  V30 216 H 16.8022 -4.08405 4.39688 0
M  V30 217 H 17.8722 -2.72404 4.01154 0
M  V30 218 N 19.2153 -1.21501 -1.00376 0
M  V30 219 C 20.1453 -0.999478 -2.11028 0
M  V30 220 C 21.1263 0.0759671 -1.6993 0
M  V30 221 O 22.3113 -0.0841106 -1.94018 0
M  V30 222 C 19.4413 -0.564709 -3.42678 0
M  V30 223 C 18.3953 -1.58486 -3.97576 0
M  V30 224 C 17.7213 -1.00628 -5.25146 0
M  V30 225 C 19.0213 -2.97204 -4.29496 0
M  V30 226 H 20.7153 -1.92495 -2.29317 0
M  V30 227 H 18.2613 -0.92693 -1.102 0
M  V30 228 H 20.2143 -0.401091 -4.19487 0
M  V30 229 H 18.9383 0.396411 -3.24185 0
M  V30 230 H 17.5973 -1.73606 -3.22888 0
M  V30 231 H 17.2453 -0.0368439 -5.02987 0
M  V30 232 H 16.9453 -1.68771 -5.62841 0
M  V30 233 H 18.4693 -0.854015 -6.04598 0
M  V30 234 H 19.8833 -2.8552 -4.97143 0
M  V30 235 H 18.2803 -3.62372 -4.78338 0
M  V30 236 H 19.3503 -3.47956 -3.3772 0
M  V30 237 N 20.6934 1.19889 -1.02296 0
M  V30 238 C 21.9184 1.9393 -0.735237 0
M  V30 239 C 22.3434 1.74639 0.698782 0
M  V30 240 O 21.7014 1.04481 1.48167 0
M  V30 241 C 21.7494 3.43916 -1.08417 0
M  V30 242 O 20.8534 4.11917 -0.199446 0
M  V30 243 H 20.1944 0.605645 -0.272196 0
M  V30 244 H 22.7244 1.52137 -1.36804 0
M  V30 245 H 22.7344 3.9456 -1.03856 0
M  V30 246 H 21.4094 3.5728 -2.12894 0
M  V30 247 H 19.9864 3.71666 -0.303136 0
M  V30 248 N 22.1715 0.800033 1.35784 0
M  V30 249 C 23.1345 0.211565 2.28221 0
M  V30 250 C 24.1345 -0.59728 1.49296 0
M  V30 251 O 25.3245 -0.416721 1.69142 0
M  V30 252 C 22.4565 -0.705846 3.33513 0
M  V30 253 H 23.6495 1.02677 2.81776 0
M  V30 254 H 21.2025 0.570211 1.45528 0
M  V30 255 H 21.9375 -1.54498 2.85133 0
M  V30 256 H 21.7225 -0.127655 3.91892 0
M  V30 257 H 23.2125 -1.11211 4.02519 0
M  V30 258 N 23.6496 -1.47581 0.552962 0
M  V30 259 C 25.0606 -1.86324 0.118463 0
M  V30 260 C 25.4116 -1.46006 -1.3106 0
M  V30 261 O 24.5366 -0.861182 -1.98526 0
M  V30 262 C 25.1316 -3.3816 0.20821 0
M  V30 263 C 23.6906 -3.7601 -0.171226 0
M  V30 264 C 22.8376 -2.71634 0.557686 0
M  V30 265 H 25.7886 -1.39159 0.762928 0
M  V30 266 H 25.8096 -3.76141 -0.574278 0
M  V30 267 H 25.3216 -3.67473 1.24841 0
M  V30 268 H 23.4226 -3.52313 -1.21269 0
M  V30 269 H 23.5356 -4.78745 0.184379 0
M  V30 270 H 21.8996 -2.547 0.00125792 0
M  V30 271 H 22.6826 -3.0379 1.59896 0
M  V30 272 N 25.1277 -0.289203 -1.54924 0
M  V30 273 C 26.0577 0.58549 -2.2604 0
M  V30 274 C 27.0387 1.14753 -1.25562 0
M  V30 275 O 28.2237 1.17906 -1.54311 0
M  V30 276 C 25.3537 1.76305 -2.99222 0
M  V30 277 C 24.3077 1.33191 -4.06748 0
M  V30 278 C 23.6337 2.5937 -4.6758 0
M  V30 279 C 24.9337 0.471775 -5.20165 0
M  V30 280 H 26.6277 -0.00763532 -2.99399 0
M  V30 281 H 24.1737 -0.00511229 -1.43999 0
M  V30 282 H 26.1267 2.38097 -3.47689 0
M  V30 283 H 24.8507 2.38223 -2.23422 0
M  V30 284 H 23.5097 0.737121 -3.59113 0
M  V30 285 H 23.1577 3.19576 -3.88433 0
M  V30 286 H 22.8577 2.31228 -5.40192 0
M  V30 287 H 24.3817 3.21985 -5.18804 0
M  V30 288 H 25.7957 0.995056 -5.64599 0
M  V30 289 H 24.1927 0.284639 -5.99425 0
M  V30 290 H 25.2627 -0.506041 -4.82252 0
M  V30 291 N 26.6058 1.57591 -0.0167156 0
M  V30 292 C 27.5358 2.12496 0.967858 0
M  V30 293 C 28.5168 1.03807 1.34752 0
M  V30 294 O 29.7018 1.31577 1.42833 0
M  V30 295 C 26.8318 2.64194 2.25431 0
M  V30 296 C 25.7858 3.77559 2.01576 0
M  V30 297 C 25.1118 4.15636 3.36379 0
M  V30 298 C 26.4118 5.04151 1.36489 0
M  V30 299 H 28.1058 2.95013 0.510643 0
M  V30 300 H 25.6518 1.41915 0.244181 0
M  V30 301 H 27.6048 3.01236 2.94678 0
M  V30 302 H 26.3288 1.78821 2.73296 0
M  V30 303 H 24.9878 3.40937 1.34751 0
M  V30 304 H 24.6358 3.27263 3.81979 0
M  V30 305 H 24.3358 4.92022 3.21229 0
M  V30 306 H 25.8598 4.5525 4.06915 0
M  V30 307 H 27.2738 5.38857 1.95718 0
M  V30 308 H 25.6708 5.85453 1.31776 0
M  V30 309 H 26.7408 4.83733 0.336219 0
M  V30 310 N 28.0839 -0.256276 1.55502 0
M  V30 311 C 29.0469 -1.30047 1.88734 0
M  V30 312 C 30.0469 -1.4154 0.763086 0
M  V30 313 O 31.2369 -1.40403 1.03115 0
M  V30 314 C 28.3689 -2.67953 2.10747 0
M  V30 315 H 29.5619 -1.01802 2.82093 0
M  V30 316 H 27.1149 -0.495134 1.4825 0
M  V30 317 H 27.8499 -3.01351 1.19825 0
M  V30 318 H 27.6349 -2.60993 2.92617 0
M  V30 319 H 29.1249 -3.43368 2.37673 0
M  V30 320 N 29.562 -1.4872 -0.521534 0
M  V30 321 C 30.525 -1.63379 -1.60748 0
M  V30 322 C 31.525 -0.50661 -1.52611 0
M  V30 323 O 32.715 -0.772601 -1.5613 0
M  V30 324 C 29.847 -1.61192 -3.00383 0
M  V30 325 H 31.04 -2.60217 -1.49087 0
M  V30 326 H 28.593 -1.37444 -0.744235 0
M  V30 327 H 29.328 -0.65863 -3.17541 0
M  V30 328 H 29.113 -2.43032 -3.07698 0
M  V30 329 H 30.603 -1.7466 -3.7932 0
M  V30 330 N 31.0401 0.771051 -1.3745 0
M  V30 331 C 31.9501 1.91538 -1.35464 0
M  V30 332 C 32.9661 1.72134 -0.254123 0
M  V30 333 O 34.1421 1.95358 -0.489626 0
M  V30 334 C 31.2071 3.26671 -1.16134 0
M  V30 335 C 30.2681 3.58723 -2.35831 0
M  V30 336 C 29.5011 4.87409 -2.17413 0
M  V30 337 O 29.7241 5.58506 -1.15876 0
M  V30 338 O 28.6581 5.18539 -3.05615 0
M  V30 339 H 32.4841 1.96165 -2.31847 0
M  V30 340 H 30.0691 0.9139 -1.18187 0
M  V30 341 H 31.9511 4.07499 -1.07345 0
M  V30 342 H 30.6261 3.22894 -0.228251 0
M  V30 343 H 29.5331 2.78127 -2.50192 0
M  V30 344 H 30.8661 3.67243 -3.27709 0
M  V30 345 N 32.5182 1.22032 0.997298 0
M  V30 346 C 33.7582 1.05375 1.75144 0
M  V30 347 C 34.1222 -0.404696 1.87686 0
M  V30 348 O 35.3232 -0.691998 2.5974 0
M  V30 349 C 33.5942 1.74046 3.12158 0
M  V30 350 S 35.1532 1.72745 4.03366 0
M  V30 351 H 31.9712 0.377449 0.602539 0
M  V30 352 H 34.5732 1.54902 1.19272 0
M  V30 353 H 33.2772 2.79332 3.00669 0
M  V30 354 H 32.8082 1.24731 3.73103 0
M  V30 355 H 34.8232 0.774015 4.90126 0
M  V30 356 N 33.9963 -1.19345 1.0293 0
M  V30 357 C 35.2213 -1.93538 0.745511 0
M  V30 358 C 35.6463 -1.75007 -0.689511 0
M  V30 359 O 35.0043 -1.05265 -1.47611 0
M  V30 360 C 35.0523 -3.43336 1.10239 0
M  V30 361 O 34.1563 -4.11806 0.221289 0
M  V30 362 H 33.4973 -0.604193 0.275404 0
M  V30 363 H 36.0273 -1.5141 1.37609 0
M  V30 364 H 36.0373 -3.94004 1.05947 0
M  V30 365 H 34.7123 -3.56146 2.14786 0
M  V30 366 H 33.2893 -3.715 0.322842 0
M  V30 367 N 35.4744 -0.807222 -1.35358 0
M  V30 368 C 36.7204 -0.388463 -1.99045 0
M  V30 369 C 37.0534 1.04184 -1.63888 0
M  V30 370 O 36.3284 1.72292 -0.902535 0
M  V30 371 C 36.6114 -0.572783 -3.55515 0
M  V30 372 C 36.4644 -2.04807 -4.00468 0
M  V30 373 C 37.7834 0.00114064 -4.401 0
M  V30 374 H 34.9024 -0.142619 -0.723069 0
M  V30 375 H 37.5444 -1.01687 -1.60498 0
M  V30 376 H 35.6944 -0.0378425 -3.88482 0
M  V30 377 H 37.3664 -2.64544 -3.77908 0
M  V30 378 H 35.6094 -2.54427 -3.51353 0
M  V30 379 H 36.2804 -2.12792 -5.09337 0
M  V30 380 H 38.7564 -0.455716 -4.13597 0
M  V30 381 H 37.6324 -0.157737 -5.48673 0
M  V30 382 H 37.8934 1.09488 -4.28328 0
M  V30 383 N 36.9525 1.47285 -0.560781 0
M  V30 384 C 38.2295 1.9558 0.0277798 0
M  V30 385 C 38.6095 1.5034 1.48192 0
M  V30 386 O 37.9575 0.743882 2.16052 0
M  V30 387 C 38.1675 3.48789 -0.121418 0
M  V30 388 C 39.5155 4.24594 0.0220912 0
M  V30 389 O 40.5395 3.56166 -0.0491439 0
M  V30 390 O 39.3985 5.46217 0.175958 0
M  V30 391 H 36.4925 0.824663 0.0621342 0
M  V30 392 H 39.0385 1.5767 -0.627556 0
M  V30 393 H 37.8105 3.74533 -1.13316 0
M  V30 394 H 37.4335 3.93473 0.571366 0
M  V30 395 N 38.4306 0.297415 1.54768 0
M  V30 396 C 39.6796 -0.313669 1.99246 0
M  V30 397 C 39.9926 -1.55281 1.18942 0
M  V30 398 O 41.1986 -2.23825 1.5367 0
M  V30 399 C 39.6546 -0.609407 3.54703 0
M  V30 400 C 39.2626 0.611192 4.43811 0
M  V30 401 C 41.0066 -1.18188 4.07715 0
M  V30 402 C 38.9136 0.288805 5.90694 0
M  V30 403 H 37.8436 -0.120979 0.744231 0
M  V30 404 H 40.4946 0.40556 1.78962 0
M  V30 405 H 38.8766 -1.38813 3.70873 0
M  V30 406 H 40.0506 1.3875 4.39414 0
M  V30 407 H 38.3656 1.10205 4.01552 0
M  V30 408 H 40.9626 -1.43727 5.15021 0
M  V30 409 H 41.3056 -2.12299 3.58099 0
M  V30 410 H 41.8386 -0.464944 3.95074 0
M  V30 411 H 38.5776 1.19838 6.44453 0
M  V30 412 H 38.0976 -0.450305 5.98107 0
M  V30 413 H 39.7766 -0.110933 6.46905 0
M  V30 414 N 39.9087 -1.5758 0.0250728 0
M  V30 415 C 40.8407 -2.06869 -0.986796 0
M  V30 416 C 41.8537 -0.991332 -1.29137 0
M  V30 417 O 43.0427 -1.26761 -1.25674 0
M  V30 418 C 40.1427 -2.47486 -2.31525 0
M  V30 419 C 39.3157 -3.78253 -2.19643 0
M  V30 420 C 38.3747 -4.05464 -3.35388 0
M  V30 421 O 37.4007 -4.75774 -3.12454 0
M  V30 422 N 38.6027 -3.55321 -4.59051 0
M  V30 423 H 41.3677 -2.94302 -0.566276 0
M  V30 424 H 38.9287 -1.6109 -0.161776 0
M  V30 425 H 40.9207 -2.62785 -3.07776 0
M  V30 426 H 39.4907 -1.65441 -2.65232 0
M  V30 427 H 38.7107 -3.7279 -1.28144 0
M  V30 428 H 39.9987 -4.63936 -2.08903 0
M  V30 429 H 39.3967 -2.98431 -4.80578 0
M  V30 430 H 37.9537 -3.75905 -5.32483 0
M  V30 431 N 41.3868 0.248026 -1.55636 0
M  V30 432 C 42.6348 0.974295 -1.77065 0
M  V30 433 C 42.9558 1.85897 -0.588849 0
M  V30 434 O 42.2258 1.91868 0.395407 0
M  V30 435 H 40.8058 0.362733 -0.653019 0
M  V30 436 H 43.4678 0.266244 -1.93073 0
M  V30 437 H 42.5638 1.59667 -2.68166 0
M  V30 438 N 42.8649 1.48995 0.513639 0
M  V30 439 C 43.8129 1.65199 1.63744 0
M  V30 440 C 44.8069 0.51809 1.61283 0
M  V30 441 O 46.0129 0.697335 1.65943 0
M  V30 442 H 42.3879 0.52069 0.542574 0
M  V30 443 H 44.3589 2.59552 1.47226 0
M  V30 444 C 43.1079 1.72409 3.01945 0
M  V30 445 H 42.4309 2.59029 3.04539 0
M  V30 446 H 43.8709 1.87785 3.80148 0
M  V30 447 C 42.3299 0.46618 3.33659 0
M  V30 448 O 42.8599 -0.413744 3.99564 0
M  V30 449 N 41.0659 0.332931 2.88687 0
M  V30 450 H 40.6129 1.04996 2.35231 0
M  V30 451 H 40.5709 -0.507665 3.10274 0
M  V30 452 N 44.343 -0.763751 1.37857 0
M  V30 453 C 45.62 -1.51244 1.24035 0
M  V30 454 C 46 -2.10472 -0.162649 0
M  V30 455 O 45.348 -1.96206 -1.17112 0
M  V30 456 C 45.558 -2.58694 2.34261 0
M  V30 457 C 46.906 -3.25878 2.72193 0
M  V30 458 O 47.93 -2.68993 2.33497 0
M  V30 459 O 46.789 -4.2874 3.38887 0
M  V30 460 H 43.883 -0.670243 0.484462 0
M  V30 461 H 46.429 -0.800031 1.49658 0
M  V30 462 H 45.201 -2.13105 3.2818 0
M  V30 463 H 44.824 -3.37527 2.10146 0
M  V30 464 N 45.8211 -1.22559 -0.990812 0
M  V30 465 C 46.7531 -0.955325 -2.08342 0
M  V30 466 C 47.7661 0.0668408 -1.62663 0
M  V30 467 O 48.9551 -0.167421 -1.77713 0
M  V30 468 C 46.0551 -0.415566 -3.36342 0
M  V30 469 C 45.2281 -1.49544 -4.11042 0
M  V30 470 C 44.2871 -0.962399 -5.17324 0
M  V30 471 O 43.3131 -1.64907 -5.44788 0
M  V30 472 N 44.5151 0.215134 -5.80101 0
M  V30 473 H 47.2801 -1.89596 -2.32106 0
M  V30 474 H 44.8411 -1.13276 -1.15673 0
M  V30 475 H 46.8331 -0.0442386 -4.04676 0
M  V30 476 H 45.4031 0.430232 -3.09625 0
M  V30 477 H 44.6231 -2.04 -3.37309 0
M  V30 478 H 45.9111 -2.22195 -4.57719 0
M  V30 479 H 45.3091 0.789779 -5.6016 0
M  V30 480 H 43.8661 0.527826 -6.49659 0
M  V30 481 N 47.2992 1.18797 -1.03562 0
M  V30 482 C 48.2322 2.2105 -0.56676 0
M  V30 483 C 49.2102 1.57704 0.395993 0
M  V30 484 O 50.3942 1.85908 0.311498 0
M  V30 485 C 47.5212 3.38259 0.172704 0
M  V30 486 C 46.5672 4.19987 -0.74252 0
M  V30 487 S 47.4002 4.87199 -2.22254 0
M  V30 488 C 48.5562 6.07813 -1.49379 0
M  V30 489 H 48.7892 2.60478 -1.43312 0
M  V30 490 H 46.3222 1.29151 -0.846133 0
M  V30 491 H 48.2802 4.06191 0.593191 0
M  V30 492 H 46.9412 2.97252 1.01488 0
M  V30 493 H 46.1342 5.03709 -0.171265 0
M  V30 494 H 45.7362 3.57408 -1.10163 0
M  V30 495 H 48.0282 6.72948 -0.784056 0
M  V30 496 H 48.9712 6.69435 -2.30786 0
M  V30 497 H 49.3792 5.55781 -0.988331 0
M  V30 498 N 48.7773 0.814389 1.34928 0
M  V30 499 C 49.7093 0.187834 2.28429 0
M  V30 500 C 50.7223 -0.617374 1.5064 0
M  V30 501 O 51.9113 -0.448454 1.72775 0
M  V30 502 C 49.0113 -0.755962 3.30361 0
M  V30 503 C 48.1843 0.00456686 4.374 0
M  V30 504 C 47.2433 -0.858876 5.19143 0
M  V30 505 O 46.2693 -0.306968 5.68372 0
M  V30 506 N 47.4713 -2.17988 5.38016 0
M  V30 507 H 50.2363 0.991105 2.82838 0
M  V30 508 H 47.7973 0.670561 1.4736 0
M  V30 509 H 49.7893 -1.338 3.81942 0
M  V30 510 H 48.3593 -1.46001 2.7641 0
M  V30 511 H 47.5793 0.767865 3.86649 0
M  V30 512 H 48.8673 0.528422 5.06049 0
M  V30 513 H 48.2653 -2.65212 4.99679 0
M  V30 514 H 46.8223 -2.71098 5.92747 0
M  V30 515 N 50.2554 -1.46986 0.568584 0
M  V30 516 C 51.5024 -2.02441 0.0487986 0
M  V30 517 C 51.8304 -1.44169 -1.30559 0
M  V30 518 O 51.0854 -0.591213 -1.86556 0
M  V30 519 C 51.3844 -3.57306 -0.081836 0
M  V30 520 C 51.0504 -4.34552 1.20313 0
M  V30 521 C 49.7124 -4.55376 1.5552 0
M  V30 522 C 52.0644 -4.79016 2.05411 0
M  V30 523 C 49.3924 -5.17913 2.7565 0
M  V30 524 C 51.7444 -5.42879 3.24754 0
M  V30 525 C 50.4084 -5.61933 3.60261 0
M  V30 526 H 49.6784 -0.740785 0.0178567 0
M  V30 527 H 52.3254 -1.76525 0.742384 0
M  V30 528 H 50.6304 -3.8228 -0.858463 0
M  V30 529 H 52.3274 -3.97876 -0.499546 0
M  V30 530 H 48.9174 -4.18631 0.919014 0
M  V30 531 H 53.1014 -4.62696 1.79516 0
M  V30 532 H 48.3574 -5.30858 3.03315 0
M  V30 533 H 52.5314 -5.76293 3.90973 0
M  V30 534 H 50.1584 -6.10161 4.53439 0
M  V30 535 N 51.7335 -0.305618 -1.54608 0
M  V30 536 C 52.6815 0.584119 -2.25146 0
M  V30 537 C 53.6755 1.13326 -1.25911 0
M  V30 538 O 54.8815 1.08337 -1.43747 0
M  V30 539 H 51.2565 0.206983 -0.722954 0
M  V30 540 H 53.2275 -0.033291 -2.98381 0
M  V30 541 C 51.9765 1.74225 -3.009 0
M  V30 542 H 51.2995 1.32892 -3.77067 0
M  V30 543 H 52.7395 2.34077 -3.53531 0
M  V30 544 C 51.1985 2.64914 -2.0814 0
M  V30 545 O 51.7285 3.66137 -1.65246 0
M  V30 546 N 49.9345 2.3275 -1.74 0
M  V30 547 H 49.4815 1.50479 -2.09078 0
M  V30 548 H 49.4395 2.93694 -1.12211 0
M  V30 549 N 53.2116 1.57565 -0.0334293 0
M  V30 550 C 54.4396 1.9628 0.654347 0
M  V30 551 C 54.8546 0.910138 1.65414 0
M  V30 552 O 54.2116 -0.107595 1.82183 0
M  V30 553 C 54.2626 3.35067 1.35693 0
M  V30 554 O 53.9836 4.36296 0.397191 0
M  V30 555 C 55.4846 3.88439 2.13613 0
M  V30 556 H 52.7046 0.646369 0.180132 0
M  V30 557 H 55.2486 2.04282 -0.0944721 0
M  V30 558 H 53.4036 3.2827 2.05712 0
M  V30 559 H 53.8176 5.1678 0.896597 0
M  V30 560 H 55.2916 4.8788 2.58219 0
M  V30 561 H 55.7686 3.22914 2.97696 0
M  V30 562 H 56.3746 3.98516 1.48543 0
M  V30 563 N 54.6897 -0.239769 1.55765 0
M  V30 564 C 55.6377 -1.31668 1.91745 0
M  V30 565 C 56.6317 -1.49462 0.797338 0
M  V30 566 O 57.8377 -1.50852 0.982021 0
M  V30 567 H 54.2127 -0.441048 0.609082 0
M  V30 568 H 56.1837 -0.985923 2.81642 0
M  V30 569 C 54.9327 -2.66368 2.2348 0
M  V30 570 H 54.2557 -2.53478 3.09175 0
M  V30 571 H 55.6957 -3.40578 2.52553 0
M  V30 572 C 54.1547 -3.20002 1.05359 0
M  V30 573 O 54.6847 -4.00538 0.305261 0
M  V30 574 N 52.8907 -2.78126 0.842292 0
M  V30 575 H 52.4377 -2.12742 1.45253 0
M  V30 576 H 52.3957 -3.14354 0.053652 0
M  V30 577 N 56.1678 -1.49265 -0.50573 0
M  V30 578 C 57.1308 -1.65075 -1.59006 0
M  V30 579 C 58.1308 -0.522768 -1.52065 0
M  V30 580 O 59.3208 -0.789117 -1.55302 0
M  V30 581 C 56.4528 -1.64369 -2.98656 0
M  V30 582 H 57.6458 -2.61784 -1.46319 0
M  V30 583 H 55.1988 -1.38226 -0.729616 0
M  V30 584 H 55.9338 -0.692272 -3.16825 0
M  V30 585 H 55.7188 -2.46282 -3.05103 0
M  V30 586 H 57.2088 -1.78674 -3.77446 0
M  V30 587 N 57.6459 0.756429 -1.3826 0
M  V30 588 C 58.8949 1.51082 -1.3363 0
M  V30 589 C 59.2079 1.95467 0.0720068 0
M  V30 590 O 60.4139 2.7043 0.240834 0
M  V30 591 C 58.8699 2.72893 -2.34644 0
M  V30 592 C 58.4779 2.35544 -3.81081 0
M  V30 593 C 60.2219 3.50791 -2.39052 0
M  V30 594 C 58.1289 3.53948 -4.73787 0
M  V30 595 H 57.0589 0.56727 -0.49671 0
M  V30 596 H 59.7099 0.827147 -1.638 0
M  V30 597 H 58.0919 3.43227 -1.97513 0
M  V30 598 H 59.2659 1.72894 -4.27135 0
M  V30 599 H 57.5809 1.70786 -3.79764 0
M  V30 600 H 60.1779 4.38823 -3.05513 0
M  V30 601 H 60.5209 3.91745 -1.40861 0
M  V30 602 H 61.0539 2.87467 -2.74968 0
M  V30 603 H 57.7929 3.18064 -5.73163 0
M  V30 604 H 57.3129 4.15651 -4.32428 0
M  V30 605 H 58.9919 4.20566 -4.91663 0
M  V30 606 N 59.124 1.23083 0.984299 0
M  V30 607 C 60.352 1.08714 1.76037 0
M  V30 608 C 60.767 -0.361691 1.85303 0
M  V30 609 O 60.124 -1.25034 1.32939 0
M  V30 610 C 60.175 1.70206 3.18923 0
M  V30 611 O 59.896 3.09423 3.10144 0
M  V30 612 C 61.397 1.61227 4.12941 0
M  V30 613 H 58.617 0.380664 0.552572 0
M  V30 614 H 61.161 1.62853 1.23689 0
M  V30 615 H 59.316 1.20109 3.6831 0
M  V30 616 H 59.73 3.39188 4.00065 0
M  V30 617 H 61.204 2.08962 5.10919 0
M  V30 618 H 61.681 0.570375 4.35481 0
M  V30 619 H 62.287 2.10671 3.69456 0
M  V30 620 N 60.6021 -1.18246 1.0419 0
M  V30 621 C 61.8481 -1.88536 0.747122 0
M  V30 622 C 62.1811 -1.80223 -0.723409 0
M  V30 623 O 61.4561 -1.20337 -1.52804 0
M  V30 624 C 61.7391 -3.38968 1.21544 0
M  V30 625 C 61.5921 -3.56084 2.74816 0
M  V30 626 C 62.9111 -4.32648 0.806482 0
M  V30 627 H 60.0301 -0.684619 0.272883 0
M  V30 628 H 62.6721 -1.39113 1.29413 0
M  V30 629 H 60.8221 -3.8119 0.750081 0
M  V30 630 H 62.4941 -3.22946 3.29399 0
M  V30 631 H 60.7371 -2.98699 3.14582 0
M  V30 632 H 61.4081 -4.61639 3.02644 0
M  V30 633 H 63.8841 -3.98211 1.20695 0
M  V30 634 H 62.7601 -5.36462 1.1619 0
M  V30 635 H 63.0211 -4.41146 -0.29029 0
M  V30 636 N 62.0802 -0.821533 -1.34494 0
M  V30 637 C 63.3572 -0.33159 -1.92769 0
M  V30 638 C 63.7372 1.18088 -1.74981 0
M  V30 639 O 63.0852 1.98733 -1.12772 0
M  V30 640 C 63.2952 -0.759398 -3.40638 0
M  V30 641 C 64.6432 -0.757433 -4.1779 0
M  V30 642 O 65.6672 -0.70189 -3.49216 0
M  V30 643 O 64.5262 -0.829361 -5.4017 0
M  V30 644 H 61.6202 -0.0902502 -0.822061 0
M  V30 645 H 64.1662 -0.906231 -1.43477 0
M  V30 646 H 62.9382 -1.8012 -3.47379 0
M  V30 647 H 62.5612 -0.160378 -3.97276 0
M  V30 648 N 63.5583 1.46682 -0.576371 0
M  V30 649 C 64.5053 2.30241 0.160499 0
M  V30 650 C 65.4753 1.40233 0.890162 0
M  V30 651 O 66.6603 1.69186 0.882084 0
M  V30 652 C 63.8003 3.24578 1.1723 0
M  V30 653 C 62.9133 4.29684 0.446736 0
M  V30 654 C 62.0483 5.11154 1.44551 0
M  V30 655 C 61.0873 6.08015 0.70599 0
M  V30 656 N 60.2243 6.82376 1.65251 0
M  V30 657 H 65.0643 2.92727 -0.558127 0
M  V30 658 H 62.6013 1.44272 -0.287056 0
M  V30 659 H 64.5593 3.77711 1.77172 0
M  V30 660 H 63.1893 2.63916 1.85872 0
M  V30 661 H 62.2413 3.79458 -0.267594 0
M  V30 662 H 63.5533 4.98626 -0.131686 0
M  V30 663 H 62.7073 5.68533 2.11791 0
M  V30 664 H 61.4463 4.42158 2.05786 0
M  V30 665 H 60.4513 5.49796 0.0197725 0
M  V30 666 H 61.6763 6.79028 0.09912 0
M  V30 667 H 59.6223 6.16094 2.25308 0
M  V30 668 H 59.5393 7.47556 1.12673 0
M  V30 669 H 60.8073 7.44316 2.31546 0
M  V30 670 N 65.0364 0.313813 1.54444 0
M  V30 671 C 66.2614 -0.296681 2.05267 0
M  V30 672 C 66.6864 -1.45757 1.18897 0
M  V30 673 O 66.0444 -1.80239 0.195886 0
M  V30 674 C 66.0924 -0.71831 3.53373 0
M  V30 675 O 65.1964 -1.82175 3.69981 0
M  V30 676 H 64.5374 -0.0554061 0.661684 0
M  V30 677 H 67.0674 0.459387 1.99376 0
M  V30 678 H 67.0774 -1.00364 3.95463 0
M  V30 679 H 65.7524 0.130821 4.15694 0
M  V30 680 H 64.3294 -1.53598 3.39797 0
M  V30 681 N 66.5145 -1.57545 0.0417849 0
M  V30 682 C 67.7545 -1.94185 -0.63809 0
M  V30 683 C 68.1185 -0.919339 -1.68559 0
M  V30 684 O 69.3195 -1.17236 -2.41886 0
M  V30 685 C 67.5905 -3.35672 -1.22714 0
M  V30 686 S 69.1495 -3.94256 -1.92633 0
M  V30 687 H 65.9675 -0.679353 -0.209764 0
M  V30 688 H 68.5695 -1.95199 0.108479 0
M  V30 689 H 67.2735 -4.07898 -0.452503 0
M  V30 690 H 66.8045 -3.38132 -2.01073 0
M  V30 691 H 68.8195 -3.7872 -3.20602 0
M  V30 692 N 67.9926 0.231505 -1.5589 0
M  V30 693 C 68.9396 1.28682 -1.91598 0
M  V30 694 C 69.9096 1.47071 -0.771974 0
M  V30 695 O 71.0946 1.60802 -1.027 0
M  V30 696 C 68.2346 2.6342 -2.22944 0
M  V30 697 C 67.3476 2.52912 -3.50228 0
M  V30 698 C 66.4826 3.80106 -3.7107 0
M  V30 699 C 65.5216 3.64279 -4.91902 0
M  V30 700 N 64.6586 4.834 -5.09184 0
M  V30 701 H 69.4986 0.975305 -2.81588 0
M  V30 702 H 67.0356 0.470299 -1.39379 0
M  V30 703 H 68.9936 3.41869 -2.39126 0
M  V30 704 H 67.6236 2.92687 -1.36139 0
M  V30 705 H 66.6756 1.6595 -3.42294 0
M  V30 706 H 67.9876 2.37133 -4.38827 0
M  V30 707 H 67.1416 4.66999 -3.87295 0
M  V30 708 H 65.8806 3.98799 -2.80733 0
M  V30 709 H 64.8856 2.7577 -4.75637 0
M  V30 710 H 66.1106 3.47067 -5.83714 0
M  V30 711 H 64.0566 5.02425 -4.21788 0
M  V30 712 H 63.9736 4.70311 -5.91898 0
M  V30 713 H 65.2416 5.71747 -5.29835 0
M  V30 714 N 69.4707 1.49531 0.497807 0
M  V30 715 C 70.4027 1.62559 1.61578 0
M  V30 716 C 71.4157 0.508134 1.54667 0
M  V30 717 O 72.6047 0.780309 1.60541 0
M  V30 718 C 69.7047 1.56925 3.00379 0
M  V30 719 C 68.8777 2.84257 3.3244 0
M  V30 720 C 67.9367 2.71632 4.50669 0
M  V30 721 O 66.9627 3.4557 4.52294 0
M  V30 722 N 68.1647 1.83391 5.5077 0
M  V30 723 H 70.9297 2.58981 1.50828 0
M  V30 724 H 68.4907 1.4666 0.685743 0
M  V30 725 H 70.4827 1.46129 3.77397 0
M  V30 726 H 69.0527 0.683483 3.05037 0
M  V30 727 H 68.2727 3.09381 2.44289 0
M  V30 728 H 69.5607 3.68666 3.5066 0
M  V30 729 H 68.9587 1.22583 5.52259 0
M  V30 730 H 67.5157 1.78515 6.26878 0
M  V30 731 N 70.9488 -0.749086 1.3866 0
M  V30 732 C 72.1958 -1.50833 1.35114 0
M  V30 733 C 72.5238 -1.94415 -0.0574049 0
M  V30 734 O 71.7788 -1.66065 -1.03541 0
M  V30 735 C 72.0778 -2.7712 2.25697 0
M  V30 736 C 71.7438 -2.52477 3.73585 0
M  V30 737 C 70.4058 -2.45466 4.13884 0
M  V30 738 C 72.7578 -2.31066 4.67181 0
M  V30 739 C 70.0858 -2.15064 5.45861 0
M  V30 740 C 72.4378 -2.02183 5.9942 0
M  V30 741 C 71.1018 -1.93631 6.38798 0
M  V30 742 H 70.3718 -0.551936 0.494416 0
M  V30 743 H 73.0188 -0.860979 1.71054 0
M  V30 744 H 71.3238 -3.46528 1.82827 0
M  V30 745 H 73.0208 -3.35096 2.20254 0
M  V30 746 H 69.6108 -2.58807 3.41638 0
M  V30 747 H 73.7948 -2.35459 4.3689 0
M  V30 748 H 69.0508 -2.06954 5.75308 0
M  V30 749 H 73.2248 -1.8462 6.71482 0
M  V30 750 H 70.8518 -1.69839 7.40985 0
M  V30 751 N 72.4269 -1.23603 -0.977757 0
M  V30 752 C 73.6549 -1.09646 -1.75458 0
M  V30 753 C 74.0699 0.351859 -1.85492 0
M  V30 754 O 73.4269 1.24327 -1.336 0
M  V30 755 C 73.4779 -1.71895 -3.18016 0
M  V30 756 O 73.1989 -3.11063 -3.08498 0
M  V30 757 C 74.6999 -1.63415 -4.12081 0
M  V30 758 H 71.9199 -0.38359 -0.550545 0
M  V30 759 H 74.4639 -1.63507 -1.22824 0
M  V30 760 H 72.6189 -1.22061 -3.67668 0
M  V30 761 H 73.0329 -3.41305 -3.9826 0
M  V30 762 H 74.5069 -2.11669 -5.09804 0
M  V30 763 H 74.9839 -0.593462 -4.35172 0
M  V30 764 H 75.5899 -2.12628 -3.68334 0
M  V30 765 N 73.905 1.17692 -1.04816 0
M  V30 766 C 75.151 1.88137 -0.75711 0
M  V30 767 C 75.484 1.80604 0.713841 0
M  V30 768 O 74.759 1.21146 1.52164 0
M  V30 769 C 75.042 3.38318 -1.2334 0
M  V30 770 C 74.895 3.54622 -2.76701 0
M  V30 771 C 76.214 4.32214 -0.829415 0
M  V30 772 H 73.333 0.683163 -0.27651 0
M  V30 773 H 75.975 1.38424 -1.30149 0
M  V30 774 H 74.125 3.80787 -0.770286 0
M  V30 775 H 75.797 3.21194 -3.31107 0
M  V30 776 H 74.04 2.97026 -3.16161 0
M  V30 777 H 74.711 4.60028 -3.05088 0
M  V30 778 H 77.187 3.97565 -1.22805 0
M  V30 779 H 76.063 5.35838 -1.19033 0
M  V30 780 H 76.324 4.41294 0.266891 0
M  V30 781 N 75.3831 0.828654 1.34056 0
M  V30 782 C 76.3311 0.242973 2.31327 0
M  V30 783 C 77.3251 -0.61944 1.57668 0
M  V30 784 O 78.5311 -0.51014 1.7262 0
M  V30 785 H 74.9061 0.059834 0.749616 0
M  V30 786 H 76.8771 1.07809 2.78244 0
M  V30 787 C 75.6261 -0.575733 3.429 0
M  V30 788 H 74.9491 0.0785582 3.99723 0
M  V30 789 H 76.3891 -0.951547 4.13185 0
M  V30 790 C 74.8481 -1.75044 2.87856 0
M  V30 791 O 75.3781 -2.84882 2.83205 0
M  V30 792 N 73.5841 -1.56903 2.44602 0
M  V30 793 H 73.1311 -0.675547 2.48584 0
M  V30 794 H 73.0891 -2.35652 2.08124 0
M  V30 795 N 76.8612 -1.46375 0.584142 0
M  V30 796 C 77.7912 -2.33103 -0.136037 0
M  V30 797 C 78.7722 -1.45431 -0.882255 0
M  V30 798 O 79.9572 -1.74246 -0.857434 0
M  V30 799 C 77.0872 -3.27731 -1.14933 0
M  V30 800 C 76.0412 -4.24855 -0.517862 0
M  V30 801 C 75.3672 -5.09001 -1.63773 0
M  V30 802 C 76.6672 -5.19439 0.545886 0
M  V30 803 H 78.3612 -2.93568 0.588086 0
M  V30 804 H 75.9072 -1.41166 0.284259 0
M  V30 805 H 77.8602 -3.87261 -1.66153 0
M  V30 806 H 76.5842 -2.65377 -1.90375 0
M  V30 807 H 75.2432 -3.6659 -0.0267361 0
M  V30 808 H 74.8912 -4.43031 -2.38185 0
M  V30 809 H 74.5912 -5.74777 -1.22085 0
M  V30 810 H 76.1152 -5.71396 -2.15266 0
M  V30 811 H 77.5292 -5.73177 0.118704 0
M  V30 812 H 75.9262 -5.93566 0.88317 0
M  V30 813 H 76.9962 -4.63285 1.43162 0
M  V30 814 N 78.3393 -0.321999 -1.54275 0
M  V30 815 C 79.5643 0.285791 -2.05422 0
M  V30 816 C 79.9893 1.45124 -1.19669 0
M  V30 817 O 79.3473 1.80132 -0.205441 0
M  V30 818 C 79.3953 0.69956 -3.53749 0
M  V30 819 O 78.4993 1.8021 -3.70942 0
M  V30 820 H 77.8403 0.0518962 -0.661969 0
M  V30 821 H 80.3703 -0.469954 -1.9913 0
M  V30 822 H 80.3803 0.982649 -3.9599 0
M  V30 823 H 79.0553 -0.152864 -4.15619 0
M  V30 824 H 77.6323 1.51794 -3.40607 0
M  V30 825 N 79.8174 1.5752 -0.0501392 0
M  V30 826 C 80.7674 2.07981 0.934231 0
M  V30 827 C 81.7514 0.984745 1.27246 0
M  V30 828 O 82.9434 1.24809 1.25506 0
M  V30 829 C 80.0724 2.62751 2.20945 0
M  V30 830 C 79.1584 3.79225 1.89865 0
M  V30 831 N 79.5494 4.89036 1.29142 0
M  V30 832 C 77.8474 3.88111 2.19741 0
M  V30 833 C 78.5484 5.70084 1.15669 0
M  V30 834 N 77.5244 5.17659 1.65923 0
M  V30 835 H 81.3264 2.90277 0.460053 0
M  V30 836 H 78.8404 1.61665 0.15434 0
M  V30 837 H 80.8374 2.97205 2.9236 0
M  V30 838 H 79.4974 1.81894 2.6897 0
M  V30 839 H 80.5084 5.08854 0.963756 0
M  V30 840 H 77.1854 3.18194 2.70293 0
M  V30 841 H 78.5754 6.68395 0.685356 0
M  V30 842 N 81.2955 -0.223234 1.56011 0
M  V30 843 C 82.7065 -0.790368 1.69145 0
M  V30 844 C 83.0575 -1.85055 0.651845 0
M  V30 845 O 82.1825 -2.15498 -0.197359 0
M  V30 846 C 82.7775 -1.4404 3.06656 0
M  V30 847 C 81.3365 -1.95494 3.2165 0
M  V30 848 C 80.4835 -0.814506 2.65068 0
M  V30 849 H 83.4345 0.00139011 1.587 0
M  V30 850 H 83.4555 -2.30916 3.0242 0
M  V30 851 H 82.9675 -0.668543 3.82298 0
M  V30 852 H 81.0685 -2.75487 2.50874 0
M  V30 853 H 81.1815 -2.13607 4.28846 0
M  V30 854 H 79.5455 -1.22137 2.23505 0
M  V30 855 H 80.3285 -0.0553515 3.43255 0
M  V30 856 N 82.7736 -1.49793 -0.48987 0
M  V30 857 C 84.0216 -1.59525 -1.24081 0
M  V30 858 C 84.3426 -0.288953 -1.92847 0
M  V30 859 O 83.6126 0.692436 -1.83254 0
M  V30 860 H 82.1926 -0.587796 -0.460983 0
M  V30 861 H 84.8546 -1.86477 -0.566778 0
M  V30 862 H 83.9506 -2.39696 -1.99881 0
M  V30 863 N 84.2517 0.741722 -1.39055 0
M  V30 864 C 85.1997 1.87702 -1.3737 0
M  V30 865 C 86.1937 1.67427 -0.257812 0
M  V30 866 O 87.3997 1.7485 -0.427489 0
M  V30 867 H 83.7747 0.617757 -0.428812 0
M  V30 868 H 85.7457 1.86239 -2.33147 0
M  V30 869 C 84.4947 3.25315 -1.22741 0
M  V30 870 H 83.8177 3.41509 -2.07873 0
M  V30 871 H 85.2577 4.04964 -1.25618 0
M  V30 872 C 83.7167 3.36838 0.0647316 0
M  V30 873 O 84.2467 3.88073 1.03741 0
M  V30 874 N 82.4527 2.90329 0.125544 0
M  V30 875 H 81.9997 2.48823 -0.666682 0
M  V30 876 H 81.9577 2.98418 0.989639 0
M  V30 877 N 85.7298 1.2412 0.971189 0
M  V30 878 C 86.6598 1.05508 2.08304 0
M  V30 879 C 87.6408 -0.0308864 1.70072 0
M  V30 880 O 88.8258 0.135521 1.93727 0
M  V30 881 C 85.9558 0.655365 3.4106 0
M  V30 882 C 84.9098 1.68971 3.93234 0
M  V30 883 C 84.2358 1.14516 5.22293 0
M  V30 884 C 85.5358 3.08487 4.21465 0
M  V30 885 H 87.2298 1.98507 2.24132 0
M  V30 886 H 84.7758 0.955821 1.07704 0
M  V30 887 H 86.7288 0.51217 4.18276 0
M  V30 888 H 85.4528 -0.31032 3.25122 0
M  V30 889 H 84.1118 1.82106 3.18171 0
M  V30 890 H 83.7598 0.170189 5.02712 0
M  V30 891 H 83.4598 1.83635 5.58168 0
M  V30 892 H 84.9838 1.01401 6.02121 0
M  V30 893 H 86.3978 2.98601 4.89398 0
M  V30 894 H 84.7948 3.74926 4.68562 0
M  V30 895 H 85.8648 3.56787 3.28376 0
M  V30 896 N 87.2079 -1.17134 1.05439 0
M  V30 897 C 88.6189 -1.69084 0.791676 0
M  V30 898 C 88.9699 -1.83822 -0.685839 0
M  V30 899 O 88.0949 -1.52757 -1.53278 0
M  V30 900 C 88.6899 -3.07119 1.4305 0
M  V30 901 C 87.2489 -3.56225 1.21577 0
M  V30 902 C 86.3959 -2.32421 1.51247 0
M  V30 903 H 89.3469 -1.01617 1.219 0
M  V30 904 H 89.3679 -3.71087 0.84112 0
M  V30 905 H 88.8799 -2.9636 2.50584 0
M  V30 906 H 86.9809 -3.72257 0.159787 0
M  V30 907 H 87.0939 -4.38837 1.92246 0
M  V30 908 H 85.4579 -2.3701 0.932653 0
M  V30 909 H 86.2409 -2.24268 2.5992 0
M  V30 910 N 88.686 -0.835752 -1.33615 0
M  V30 911 C 89.633 -0.26473 -2.29277 0
M  V30 912 C 90.603 0.617712 -1.54187 0
M  V30 913 O 91.788 0.556641 -1.825 0
M  V30 914 C 88.928 0.556777 -3.40579 0
M  V30 915 C 88.041 -0.349339 -4.30585 0
M  V30 916 C 87.176 0.482969 -5.29 0
M  V30 917 C 86.215 -0.421732 -6.10645 0
M  V30 918 N 85.352 0.372262 -7.01112 0
M  V30 919 H 90.192 -1.08582 -2.77514 0
M  V30 920 H 87.729 -0.546927 -1.36554 0
M  V30 921 H 89.687 1.04852 -4.03809 0
M  V30 922 H 88.317 1.34286 -2.93542 0
M  V30 923 H 87.369 -0.959372 -3.68104 0
M  V30 924 H 88.681 -1.04445 -4.87742 0
M  V30 925 H 87.835 1.03866 -5.97743 0
M  V30 926 H 86.574 1.21153 -4.72412 0
M  V30 927 H 85.579 -0.989464 -5.40823 0
M  V30 928 H 86.804 -1.14861 -6.69316 0
M  V30 929 H 84.75 1.08426 -6.46977 0
M  V30 930 H 84.667 -0.264198 -7.55538 0
M  V30 931 H 85.935 0.910293 -7.74167 0
M  V30 932 N 90.1641 1.46063 -0.591896 0
M  V30 933 C 91.1121 2.32124 0.148739 0
M  V30 934 C 92.1061 1.45035 0.875286 0
M  V30 935 O 93.3121 1.61609 0.792632 0
M  V30 936 H 89.6871 0.749024 0.066832 0
M  V30 937 H 91.6581 2.92392 -0.595783 0
M  V30 938 C 90.4071 3.28373 1.1431 0
M  V30 939 H 89.7301 3.95371 0.59346 0
M  V30 940 H 91.1701 3.91352 1.63155 0
M  V30 941 C 89.6291 2.54393 2.20875 0
M  V30 942 O 90.1591 2.31373 3.28374 0
M  V30 943 N 88.3651 2.14797 1.95731 0
M  V30 944 H 87.9121 2.33719 1.08319 0
M  V30 945 H 87.8701 1.65619 2.67241 0
M  V30 946 N 91.6422 0.330177 1.54103 0
M  V30 947 C 92.8882 -0.270806 2.00984 0
M  V30 948 C 93.2212 -1.51265 1.21789 0
M  V30 949 O 92.4962 -1.92142 0.301927 0
M  V30 950 C 92.7792 -0.598339 3.55094 0
M  V30 951 C 92.6322 0.654674 4.4501 0
M  V30 952 C 93.9512 -1.41334 4.16789 0
M  V30 953 H 91.0702 -0.0969531 0.730595 0
M  V30 954 H 93.7122 0.448066 1.84641 0
M  V30 955 H 91.8622 -1.21078 3.69151 0
M  V30 956 H 93.5342 1.29285 4.42813 0
M  V30 957 H 91.7772 1.28224 4.14416 0
M  V30 958 H 92.4482 0.380944 5.50684 0
M  V30 959 H 94.9242 -0.895597 4.06347 0
M  V30 960 H 93.8002 -1.61127 5.24718 0
M  V30 961 H 94.0612 -2.41146 3.70541 0
M  V30 962 N 93.1203 -1.57491 0.0584922 0
M  V30 963 C 94.0533 -2.07533 -0.948969 0
M  V30 964 C 95.0313 -0.977444 -1.29942 0
M  V30 965 O 96.2153 -1.2499 -1.41102 0
M  V30 966 C 93.3423 -2.52192 -2.2609 0
M  V30 967 C 92.3883 -3.73287 -2.06298 0
M  V30 968 S 93.2213 -5.18603 -1.33459 0
M  V30 969 C 94.3773 -5.66583 -2.65959 0
M  V30 970 H 94.6103 -2.92662 -0.523118 0
M  V30 971 H 92.1433 -1.53631 -0.153954 0
M  V30 972 H 94.1013 -2.78585 -3.01498 0
M  V30 973 H 92.7623 -1.67356 -2.65802 0
M  V30 974 H 91.9553 -4.0248 -3.03357 0
M  V30 975 H 91.5573 -3.47199 -1.39029 0
M  V30 976 H 93.8493 -5.72616 -3.62101 0
M  V30 977 H 94.7923 -6.65684 -2.41393 0
M  V30 978 H 95.2003 -4.94342 -2.72554 0
M  V30 979 N 94.5984 0.214957 -1.56127 0
M  V30 980 C 95.8464 0.936518 -1.79091 0
M  V30 981 C 96.1674 1.84606 -0.628148 0
M  V30 982 O 95.4374 1.92664 0.35462 0
M  V30 983 H 94.0174 0.3488 -0.660566 0
M  V30 984 H 96.6794 0.22523 -1.93594 0
M  V30 985 H 95.7754 1.53943 -2.71492 0
M  V30 986 N 96.0765 1.50051 0.48192 0
M  V30 987 C 97.0265 1.64512 1.5786 0
M  V30 988 C 98.0105 0.500073 1.52932 0
M  V30 989 O 99.2025 0.753964 1.60139 0
M  V30 990 C 96.3315 1.73263 2.9637 0
M  V30 991 C 95.4175 2.93409 3.06222 0
M  V30 992 N 95.8085 4.17236 2.85915 0
M  V30 993 C 94.1065 2.91742 3.37346 0
M  V30 994 C 94.8075 4.981 3.00451 0
M  V30 995 N 93.7835 4.3184 3.30174 0
M  V30 996 H 97.5855 2.57955 1.40842 0
M  V30 997 H 95.0995 1.47086 0.688439 0
M  V30 998 H 97.0965 1.81724 3.75209 0
M  V30 999 H 95.7565 0.809711 3.14442 0
M  V30 1000 H 96.7675 4.46909 2.6171 0
M  V30 1001 H 93.4445 2.08907 3.61475 0
M  V30 1002 H 94.8345 6.06532 2.89082 0
M  V30 1003 N 97.5546 -0.734337 1.39446 0
M  V30 1004 C 98.5026 -1.86971 1.38364 0
M  V30 1005 C 99.4966 -1.67288 0.266687 0
M  V30 1006 O 100.703 -1.74621 0.436755 0
M  V30 1007 H 97.0776 -0.615474 0.432082 0
M  V30 1008 H 99.0486 -1.85 2.34132 0
M  V30 1009 C 97.7976 -3.2466 1.24465 0
M  V30 1010 H 97.1206 -3.40402 2.09682 0
M  V30 1011 H 98.5606 -4.04292 1.27764 0
M  V30 1012 C 97.0196 -3.36867 -0.0468674 0
M  V30 1013 O 97.5496 -3.88618 -1.01681 0
M  V30 1014 N 95.7556 -2.90391 -0.110145 0
M  V30 1015 H 95.3026 -2.48466 0.679868 0
M  V30 1016 H 95.2606 -2.98939 -0.973799 0
M  V30 1017 N 99.0327 -1.24633 -0.964593 0
M  V30 1018 C 100.279 -1.09957 -1.71117 0
M  V30 1019 C 100.634 0.357422 -1.89051 0
M  V30 1020 O 99.9267 1.26029 -1.44317 0
M  V30 1021 C 100.121 -1.7763 -3.10133 0
M  V30 1022 C 99.9497 -3.29759 -3.05759 0
M  V30 1023 C 98.7197 -3.98981 -3.10068 0
M  V30 1024 C 100.918 -4.26305 -2.87695 0
M  V30 1025 N 98.8997 -5.37966 -2.95747 0
M  V30 1026 C 100.271 -5.52308 -2.81702 0
M  V30 1027 C 102.326 -4.16842 -2.72299 0
M  V30 1028 C 101.029 -6.69931 -2.61887 0
M  V30 1029 C 103.055 -5.34147 -2.53853 0
M  V30 1030 C 102.417 -6.59084 -2.48572 0
M  V30 1031 H 98.5157 -0.457003 -0.634564 0
M  V30 1032 H 101.1 -1.57592 -1.14337 0
M  V30 1033 H 99.2707 -1.32504 -3.65099 0
M  V30 1034 H 101.003 -1.55786 -3.73514 0
M  V30 1035 H 97.7577 -3.50169 -3.18871 0
M  V30 1036 H 98.1817 -6.10877 -2.91818 0
M  V30 1037 H 102.824 -3.21007 -2.75163 0
M  V30 1038 H 100.542 -7.65886 -2.57767 0
M  V30 1039 H 104.128 -5.28678 -2.4288 0
M  V30 1040 H 103.008 -7.48324 -2.34481 0
M  V30 1041 N 100.511 1.16574 -1.06058 0
M  V30 1042 C 101.757 1.87324 -0.777022 0
M  V30 1043 C 102.09 1.81351 0.694645 0
M  V30 1044 O 101.365 1.22753 1.50871 0
M  V30 1045 C 101.648 3.36991 -1.26922 0
M  V30 1046 C 101.501 3.51667 -2.80447 0
M  V30 1047 C 102.82 4.3131 -0.87521 0
M  V30 1048 H 99.9388 0.680191 -0.28374 0
M  V30 1049 H 102.581 1.37036 -1.3161 0
M  V30 1050 H 100.731 3.79949 -0.81063 0
M  V30 1051 H 102.403 3.17664 -3.34495 0
M  V30 1052 H 100.646 2.93656 -3.19294 0
M  V30 1053 H 101.317 4.56766 -3.0995 0
M  V30 1054 H 103.793 3.9624 -1.27014 0
M  V30 1055 H 102.669 5.34545 -1.2471 0
M  V30 1056 H 102.93 4.41552 0.220071 0
M  V30 1057 N 101.989 0.842826 1.3317 0
M  V30 1058 C 102.919 0.294028 2.31641 0
M  V30 1059 C 103.9 -0.600401 1.59151 0
M  V30 1060 O 105.085 -0.523124 1.87022 0
M  V30 1061 C 102.215 -0.528416 3.43257 0
M  V30 1062 C 101.169 0.27056 4.27144 0
M  V30 1063 C 100.495 -0.675881 5.30411 0
M  V30 1064 C 101.795 1.48981 5.00602 0
M  V30 1065 H 103.489 1.11681 2.77791 0
M  V30 1066 H 101.035 0.538478 1.33553 0
M  V30 1067 H 102.988 -0.922674 4.11175 0
M  V30 1068 H 101.712 -1.38445 2.95805 0
M  V30 1069 H 100.371 0.646427 3.60856 0
M  V30 1070 H 100.019 -1.52842 4.79216 0
M  V30 1071 H 99.7189 -0.145374 5.8742 0
M  V30 1072 H 101.243 -1.06757 6.01195 0
M  V30 1073 H 102.657 1.16849 5.61266 0
M  V30 1074 H 101.054 1.95739 5.6728 0
M  V30 1075 H 102.124 2.25746 4.29147 0
M  V30 1076 N 103.467 -1.45747 0.599634 0
M  V30 1077 C 104.692 -2.07178 0.0960198 0
M  V30 1078 C 105.117 -1.44268 -1.207 0
M  V30 1079 O 104.475 -0.532503 -1.73303 0
M  V30 1080 C 104.523 -3.60579 -0.0385348 0
M  V30 1081 O 103.627 -3.97713 -1.0908 0
M  V30 1082 H 102.968 -0.660251 0.0704593 0
M  V30 1083 H 105.498 -1.87124 0.827385 0
M  V30 1084 H 105.508 -4.07298 -0.239304 0
M  V30 1085 H 104.183 -4.05756 0.912947 0
M  V30 1086 H 102.76 -3.62678 -0.867135 0
M  V30 1087 N 104.945 -0.338344 -1.53925 0
M  V30 1088 C 106.173 0.261298 -2.05243 0
M  V30 1089 C 106.588 1.44625 -1.21363 0
M  V30 1090 O 105.945 1.80811 -0.247736 0
M  V30 1091 C 105.996 0.681412 -3.5502 0
M  V30 1092 O 105.717 -0.456414 -4.35716 0
M  V30 1093 C 107.218 1.34232 -4.22489 0
M  V30 1094 H 104.438 0.0513685 -0.669031 0
M  V30 1095 H 106.982 -0.488822 -1.98572 0
M  V30 1096 H 105.137 1.38148 -3.61931 0
M  V30 1097 H 105.551 -0.122564 -5.24357 0
M  V30 1098 H 107.025 1.58708 -5.28693 0
M  V30 1099 H 107.502 2.29426 -3.74514 0
M  V30 1100 H 108.108 0.684424 -4.19757 0
M  V30 1101 N 106.423 1.57458 -0.0668435 0
M  V30 1102 C 107.386 2.11323 0.887422 0
M  V30 1103 C 108.386 1.03618 1.22964 0
M  V30 1104 O 109.576 1.29626 1.16373 0
M  V30 1105 C 106.708 2.61048 2.19242 0
M  V30 1106 H 107.901 2.96942 0.420194 0
M  V30 1107 H 105.454 1.55239 0.181793 0
M  V30 1108 H 106.189 1.78868 2.70512 0
M  V30 1109 H 105.974 3.39769 1.95702 0
M  V30 1110 H 107.464 3.02814 2.87565 0
M  V30 1111 N 107.901 -0.206675 1.56239 0
M  V30 1112 C 108.864 -1.23976 1.92776 0
M  V30 1113 C 109.864 -1.39041 0.807729 0
M  V30 1114 O 111.054 -1.37051 1.0753 0
M  V30 1115 C 108.186 -2.61112 2.19165 0
M  V30 1116 H 109.379 -0.927764 2.85189 0
M  V30 1117 H 106.932 -0.447718 1.4975 0
M  V30 1118 H 107.667 -2.97386 1.29352 0
M  V30 1119 H 107.452 -2.51552 3.00772 0
M  V30 1120 H 108.942 -3.35633 2.48476 0
M  V30 1121 N 109.379 -1.50304 -0.473955 0
M  V30 1122 C 110.656 -1.51667 -1.23518 0
M  V30 1123 C 111.036 -0.259701 -2.09496 0
M  V30 1124 O 110.384 0.756986 -2.15597 0
M  V30 1125 C 110.594 -2.81082 -2.06868 0
M  V30 1126 C 111.942 -3.31631 -2.65153 0
M  V30 1127 O 112.966 -2.82384 -2.17113 0
M  V30 1128 O 111.825 -4.17471 -3.52675 0
M  V30 1129 H 108.919 -0.60822 -0.560355 0
M  V30 1130 H 111.465 -1.62592 -0.486011 0
M  V30 1131 H 110.237 -3.64041 -1.4349 0
M  V30 1132 H 109.86 -2.73146 -2.88924 0
M  V30 1133 N 110.857 0.726932 -1.39834 0
M  V30 1134 C 111.79 1.8501 -1.33592 0
M  V30 1135 C 112.768 1.61262 -0.208191 0
M  V30 1136 O 113.952 1.84422 -0.389981 0
M  V30 1137 C 111.079 3.21143 -1.07633 0
M  V30 1138 C 110.125 3.63737 -2.22705 0
M  V30 1139 S 110.958 3.72167 -3.85035 0
M  V30 1140 C 112.114 5.11077 -3.61318 0
M  V30 1141 H 112.347 1.90022 -2.28646 0
M  V30 1142 H 109.88 0.892595 -1.25985 0
M  V30 1143 H 111.838 3.99747 -0.933415 0
M  V30 1144 H 110.499 3.13776 -0.142526 0
M  V30 1145 H 109.692 4.62551 -2.00155 0
M  V30 1146 H 109.294 2.9236 -2.33242 0
M  V30 1147 H 111.586 5.97656 -3.19083 0
M  V30 1148 H 112.529 5.38658 -4.59623 0
M  V30 1149 H 112.937 4.81135 -2.95245 0
M  V30 1150 N 112.336 1.25143 0.95797 0
M  V30 1151 C 113.268 1.01023 2.05735 0
M  V30 1152 C 114.281 -0.0236902 1.62783 0
M  V30 1153 O 115.47 0.21448 1.77207 0
M  V30 1154 C 112.57 0.504595 3.35122 0
M  V30 1155 C 111.743 1.6039 4.06932 0
M  V30 1156 C 110.802 1.09922 5.14591 0
M  V30 1157 O 109.828 1.79293 5.40225 0
M  V30 1158 N 111.03 -0.0612545 5.80468 0
M  V30 1159 H 113.795 1.95683 2.26998 0
M  V30 1160 H 111.356 1.16303 1.12629 0
M  V30 1161 H 113.348 0.151516 4.04416 0
M  V30 1162 H 111.918 -0.347989 3.10657 0
M  V30 1163 H 111.138 2.12872 3.31782 0
M  V30 1164 H 112.426 2.34252 4.51667 0
M  V30 1165 H 111.824 -0.640985 5.62057 0
M  V30 1166 H 110.381 -0.355395 6.5083 0
M  V30 1167 N 113.814 -1.1601 1.06675 0
M  V30 1168 C 115.062 -1.86264 0.784229 0
M  V30 1169 C 115.383 -1.82328 -0.691488 0
M  V30 1170 O 114.653 -1.25947 -1.50047 0
M  V30 1171 H 113.233 -0.689621 0.28711 0
M  V30 1172 H 115.895 -1.40664 1.34906 0
M  V30 1173 H 114.991 -2.91595 1.11259 0
M  V30 1174 N 115.292 -0.849877 -1.32721 0
M  V30 1175 C 116.538 -0.451591 -1.97708 0
M  V30 1176 C 116.871 0.989175 -1.6712 0
M  V30 1177 O 116.146 1.69334 -0.956891 0
M  V30 1178 C 116.429 -0.685598 -3.53513 0
M  V30 1179 C 116.282 -2.17444 -3.93749 0
M  V30 1180 C 117.601 -0.138874 -4.39881 0
M  V30 1181 H 114.72 -0.16555 -0.718166 0
M  V30 1182 H 117.362 -1.06742 -1.57182 0
M  V30 1183 H 115.512 -0.161416 -3.88165 0
M  V30 1184 H 117.184 -2.76433 -3.693 0
M  V30 1185 H 115.427 -2.65476 -3.43081 0
M  V30 1186 H 116.098 -2.28888 -5.02309 0
M  V30 1187 H 118.574 -0.587068 -4.11938 0
M  V30 1188 H 117.45 -0.332213 -5.47894 0
M  V30 1189 H 117.711 0.95806 -4.31594 0
M  V30 1190 N 116.77 1.45427 -0.607355 0
M  V30 1191 C 118.016 2.0254 -0.102607 0
M  V30 1192 C 118.349 1.47478 1.26348 0
M  V30 1193 O 117.624 0.64939 1.83339 0
M  V30 1194 C 117.907 3.60044 -0.0634347 0
M  V30 1195 C 117.76 4.2544 -1.46017 0
M  V30 1196 C 119.079 4.35646 0.624514 0
M  V30 1197 H 116.198 0.73598 -0.0387607 0
M  V30 1198 H 118.84 1.73284 -0.779282 0
M  V30 1199 H 116.99 3.85101 0.512808 0
M  V30 1200 H 118.662 4.11569 -2.08347 0
M  V30 1201 H 116.905 3.83849 -2.02094 0
M  V30 1202 H 117.576 5.34342 -1.385 0
M  V30 1203 H 120.052 4.15882 0.134723 0
M  V30 1204 H 118.928 5.45376 0.621028 0
M  V30 1205 H 119.189 4.08501 1.69055 0
M  V30 1206 N 118.248 0.346503 1.53744 0
M  V30 1207 C 119.476 -0.25041 2.05379 0
M  V30 1208 C 119.891 -1.43979 1.22129 0
M  V30 1209 O 119.248 -1.80677 0.257321 0
M  V30 1210 C 119.299 -0.662575 3.55376 0
M  V30 1211 O 119.02 0.479515 4.35468 0
M  V30 1212 C 120.521 -1.31989 4.23195 0
M  V30 1213 H 117.741 -0.0478198 0.669294 0
M  V30 1214 H 120.285 0.499346 1.9831 0
M  V30 1215 H 118.44 -1.36227 3.62658 0
M  V30 1216 H 118.854 0.15037 5.24284 0
M  V30 1217 H 120.328 -1.55902 5.29527 0
M  V30 1218 H 120.805 -2.27436 3.75725 0
M  V30 1219 H 121.411 -0.662154 4.20114 0
M  V30 1220 N 119.726 -1.57421 0.075193 0
M  V30 1221 C 121.003 -1.85029 -0.634329 0
M  V30 1222 C 121.383 -0.968305 -1.87582 0
M  V30 1223 O 120.731 -0.0354749 -2.28472 0
M  V30 1224 C 120.941 -3.35286 -0.968742 0
M  V30 1225 C 122.289 -4.02875 -1.34077 0
M  V30 1226 O 123.313 -3.40051 -1.06037 0
M  V30 1227 O 122.172 -5.13691 -1.86506 0
M  V30 1228 H 119.266 -0.7645 -0.315387 0
M  V30 1229 H 121.812 -1.69366 0.106382 0
M  V30 1230 H 120.584 -3.91203 -0.0871376 0
M  V30 1231 H 120.207 -3.56223 -1.7661 0
M  V30 1232 N 121.204 0.198386 -1.56346 0
M  V30 1233 C 122.452 0.91747 -1.80075 0
M  V30 1234 C 122.773 1.83929 -0.647692 0
M  V30 1235 O 122.043 1.93029 0.334166 0
M  V30 1236 H 120.623 0.341774 -0.664228 0
M  V30 1237 H 123.285 0.204684 -1.93822 0
M  V30 1238 H 122.381 1.51055 -2.7311 0
M  V30 1239 N 122.682 1.50554 0.465978 0
M  V30 1240 C 123.615 1.64436 1.58227 0
M  V30 1241 C 124.593 0.492367 1.54966 0
M  V30 1242 O 125.777 0.712536 1.74514 0
M  V30 1243 C 122.904 1.63165 2.96808 0
M  V30 1244 C 121.95 2.83987 3.18204 0
M  V30 1245 S 122.783 4.45219 2.97557 0
M  V30 1246 C 123.939 4.46649 4.3847 0
M  V30 1247 H 124.172 2.58861 1.46213 0
M  V30 1248 H 121.705 1.3988 0.653678 0
M  V30 1249 H 123.663 1.63116 3.76701 0
M  V30 1250 H 122.324 0.69967 3.06208 0
M  V30 1251 H 121.517 2.79416 4.19455 0
M  V30 1252 H 121.119 2.81629 2.46092 0
M  V30 1253 H 123.411 4.20526 5.31191 0
M  V30 1254 H 124.354 5.48295 4.48082 0
M  V30 1255 H 124.762 3.76296 4.20787 0
M  V30 1256 N 124.16 -0.719506 1.40217 0
M  V30 1257 C 125.123 -1.8153 1.39927 0
M  V30 1258 C 126.123 -1.58095 0.293723 0
M  V30 1259 O 127.313 -1.65209 0.552429 0
M  V30 1260 C 124.445 -3.19561 1.18716 0
M  V30 1261 H 125.638 -1.83186 2.37451 0
M  V30 1262 H 123.191 -0.924746 1.26008 0
M  V30 1263 H 123.926 -3.23557 0.219366 0
M  V30 1264 H 123.711 -3.3797 1.98793 0
M  V30 1265 H 125.201 -3.99598 1.21291 0
M  V30 1266 N 125.638 -1.25649 -0.95132 0
M  V30 1267 C 126.863 -1.13443 -1.73624 0
M  V30 1268 C 127.288 0.307565 -1.85568 0
M  V30 1269 O 126.646 1.22282 -1.33854 0
M  V30 1270 C 126.694 -1.79723 -3.12621 0
M  V30 1271 O 125.798 -1.07912 -3.98031 0
M  V30 1272 H 125.139 -0.395872 -0.533086 0
M  V30 1273 H 127.669 -1.66276 -1.1922 0
M  V30 1274 H 127.679 -1.86141 -3.63064 0
M  V30 1275 H 126.354 -2.84633 -3.03244 0
M  V30 1276 H 124.931 -1.09398 -3.56492 0
M  V30 1277 N 127.117 1.15442 -1.07289 0
M  V30 1278 C 128.365 1.85845 -0.794096 0
M  V30 1279 C 128.686 1.82692 0.681809 0
M  V30 1280 O 127.956 1.26741 1.49377 0
M  V30 1281 H 126.536 0.688089 -0.290763 0
M  V30 1282 H 129.198 1.39947 -1.3565 0
M  V30 1283 H 128.294 2.91001 -1.12804 0
M  V30 1284 N 128.595 0.856903 1.32268 0
M  V30 1285 C 129.525 0.31858 2.31316 0
M  V30 1286 C 130.506 -0.583487 1.59779 0
M  V30 1287 O 131.691 -0.503259 1.87566 0
M  V30 1288 C 128.821 -0.491979 3.43798 0
M  V30 1289 C 127.775 0.315849 4.26833 0
M  V30 1290 C 127.101 -0.619586 5.31098 0
M  V30 1291 C 128.401 1.54282 4.98993 0
M  V30 1292 H 130.095 1.14621 2.76591 0
M  V30 1293 H 127.641 0.552613 1.32974 0
M  V30 1294 H 129.594 -0.879012 4.1213 0
M  V30 1295 H 128.318 -1.35299 2.97257 0
M  V30 1296 H 126.977 0.684664 3.6015 0
M  V30 1297 H 126.625 -1.47751 4.8081 0
M  V30 1298 H 126.325 -0.0830621 5.87541 0
M  V30 1299 H 127.849 -1.00375 6.02293 0
M  V30 1300 H 129.263 1.22796 5.59995 0
M  V30 1301 H 127.66 2.01745 5.65172 0
M  V30 1302 H 128.73 2.30285 4.26728 0
M  V30 1303 N 130.073 -1.45103 0.615059 0
M  V30 1304 C 131.35 -1.95549 0.0448276 0
M  V30 1305 C 131.73 -1.55737 -1.4251 0
M  V30 1306 O 131.078 -0.823556 -2.13143 0
M  V30 1307 C 131.288 -3.48098 0.250785 0
M  V30 1308 C 132.636 -4.24384 0.135509 0
M  V30 1309 O 133.66 -3.55738 0.181299 0
M  V30 1310 O 132.519 -5.46493 0.0268878 0
M  V30 1311 H 129.613 -0.8264 -0.0314845 0
M  V30 1312 H 132.159 -1.55232 0.685642 0
M  V30 1313 H 130.931 -3.7007 1.27139 0
M  V30 1314 H 130.554 -3.95323 -0.424937 0
M  V30 1315 N 131.551 -0.354651 -1.53558 0
M  V30 1316 C 132.498 0.496968 -2.25386 0
M  V30 1317 C 133.468 1.0865 -1.25636 0
M  V30 1318 O 134.653 1.12104 -1.54394 0
M  V30 1319 C 131.793 1.63637 -3.03837 0
M  V30 1320 C 130.906 1.07307 -4.18461 0
M  V30 1321 C 130.041 2.18068 -4.84376 0
M  V30 1322 C 129.08 1.59147 -5.91049 0
M  V30 1323 N 128.217 2.63695 -6.50699 0
M  V30 1324 H 133.057 -0.122075 -2.9775 0
M  V30 1325 H 130.594 -0.0720154 -1.46924 0
M  V30 1326 H 132.552 2.30734 -3.47589 0
M  V30 1327 H 131.182 2.22623 -2.33749 0
M  V30 1328 H 130.234 0.292708 -3.79272 0
M  V30 1329 H 131.546 0.602193 -4.95152 0
M  V30 1330 H 130.7 2.93007 -5.31255 0
M  V30 1331 H 129.439 2.68504 -4.07133 0
M  V30 1332 H 128.444 0.827175 -5.43542 0
M  V30 1333 H 129.669 1.09549 -6.70206 0
M  V30 1334 H 127.615 3.13365 -5.76315 0
M  V30 1335 H 127.532 2.21263 -7.22896 0
M  V30 1336 H 128.8 3.3837 -7.02229 0
M  V30 1337 N 133.029 1.57378 -0.0835403 0
M  V30 1338 C 134.306 1.85363 0.624507 0
M  V30 1339 C 134.686 0.978239 1.87066 0
M  V30 1340 O 134.034 0.0475908 2.2845 0
M  V30 1341 C 134.244 3.35795 0.950947 0
M  V30 1342 C 135.592 4.03581 1.31939 0
M  V30 1343 O 136.616 3.40609 1.04232 0
M  V30 1344 O 135.475 5.14672 1.83779 0
M  V30 1345 H 132.569 0.766162 0.311329 0
M  V30 1346 H 135.115 1.69307 -0.115362 0
M  V30 1347 H 133.887 3.91244 0.0663899 0
M  V30 1348 H 133.51 3.57154 1.74719 0
M  V30 1349 N 134.507 -0.190092 1.56449 0
M  V30 1350 C 135.737 -0.92443 1.84764 0
M  V30 1351 C 136.145 -1.77146 0.664529 0
M  V30 1352 O 135.488 -1.79812 -0.375957 0
M  V30 1353 C 135.55 -1.86651 3.07248 0
M  V30 1354 C 135.214 -1.20094 4.40938 0
M  V30 1355 C 136.211 -0.575445 5.16706 0
M  V30 1356 C 133.896 -1.2033 4.87674 0
M  V30 1357 C 135.89 0.0388111 6.37388 0
M  V30 1358 C 133.577 -0.585214 6.08291 0
M  V30 1359 C 134.575 0.0347578 6.82991 0
M  V30 1360 O 134.263 0.643147 8.01323 0
M  V30 1361 H 133.995 -0.274974 0.617548 0
M  V30 1362 H 136.549 -0.200788 2.04416 0
M  V30 1363 H 134.779 -2.62998 2.83494 0
M  V30 1364 H 136.468 -2.46907 3.22167 0
M  V30 1365 H 137.234 -0.565728 4.81689 0
M  V30 1366 H 133.113 -1.67526 4.29484 0
M  V30 1367 H 136.657 0.523329 6.95634 0
M  V30 1368 H 132.554 -0.592451 6.42775 0
M  V30 1369 H 133.322 0.540545 8.16713 0
M  V30 1370 N 135.985 -1.50799 -0.457987 0
M  V30 1371 C 136.915 -1.73553 -1.5621 0
M  V30 1372 C 137.896 -0.584774 -1.59732 0
M  V30 1373 O 139.081 -0.825314 -1.7579 0
M  V30 1374 C 136.211 -1.84169 -2.94447 0
M  V30 1375 C 135.165 -2.99461 -3.0579 0
M  V30 1376 C 134.491 -2.95235 -4.45803 0
M  V30 1377 C 135.791 -4.39766 -2.81786 0
M  V30 1378 H 137.485 -2.66 -1.37421 0
M  V30 1379 H 135.031 -1.28002 -0.659662 0
M  V30 1380 H 136.984 -1.98672 -3.71628 0
M  V30 1381 H 135.708 -0.883545 -3.14422 0
M  V30 1382 H 134.367 -2.8463 -2.31044 0
M  V30 1383 H 134.015 -1.97239 -4.62715 0
M  V30 1384 H 133.715 -3.72642 -4.54326 0
M  V30 1385 H 135.239 -3.11803 -5.24987 0
M  V30 1386 H 136.653 -4.55054 -3.4871 0
M  V30 1387 H 135.05 -5.18722 -3.0174 0
M  V30 1388 H 136.12 -4.51229 -1.7754 0
M  V30 1389 N 137.463 0.71206 -1.40597 0
M  V30 1390 C 138.41 1.82613 -1.41142 0
M  V30 1391 C 139.38 1.63925 -0.267903 0
M  V30 1392 O 140.565 1.85009 -0.466495 0
M  V30 1393 C 137.705 3.20354 -1.28324 0
M  V30 1394 C 136.818 3.50589 -2.52411 0
M  V30 1395 C 135.953 4.77855 -2.32009 0
M  V30 1396 C 134.992 5.01005 -3.51654 0
M  V30 1397 N 134.129 6.19487 -3.30425 0
M  V30 1398 H 138.969 1.81482 -2.36365 0
M  V30 1399 H 136.506 0.886475 -1.17388 0
M  V30 1400 H 138.464 3.99899 -1.18899 0
M  V30 1401 H 137.094 3.20705 -0.367189 0
M  V30 1402 H 136.146 2.65573 -2.72351 0
M  V30 1403 H 137.458 3.63604 -3.41458 0
M  V30 1404 H 136.612 5.65424 -2.19956 0
M  V30 1405 H 135.351 4.67056 -1.40392 0
M  V30 1406 H 134.356 4.1189 -3.64179 0
M  V30 1407 H 135.581 5.13674 -4.44202 0
M  V30 1408 H 133.527 6.09932 -2.41494 0
M  V30 1409 H 133.444 6.33194 -4.13039 0
M  V30 1410 H 134.712 7.09834 -3.22113 0
M  V30 1411 N 138.941 1.26152 0.944643 0
M  V30 1412 C 140.352 1.10454 1.50522 0
M  V30 1413 C 140.703 -0.31635 1.93633 0
M  V30 1414 O 139.828 -1.20746 1.79581 0
M  V30 1415 C 140.423 1.99891 2.73549 0
M  V30 1416 C 138.982 1.88348 3.25886 0
M  V30 1417 C 138.129 1.93447 1.9868 0
M  V30 1418 H 141.08 1.39292 0.760489 0
M  V30 1419 H 141.101 1.54477 3.47732 0
M  V30 1420 H 140.613 3.03297 2.42141 0
M  V30 1421 H 138.714 0.878636 3.62092 0
M  V30 1422 H 138.827 2.73696 3.93227 0
M  V30 1423 H 137.191 1.37456 2.14425 0
M  V30 1424 H 137.974 2.98476 1.69607 0
M  V30 1425 N 140.419 -1.14872 1.07899 0
M  V30 1426 C 141.696 -1.81928 0.71845 0
M  V30 1427 C 142.076 -1.95417 -0.798455 0
M  V30 1428 O 141.424 -1.50997 -1.715 0
M  V30 1429 C 141.634 -3.17937 1.43935 0
M  V30 1430 C 142.982 -3.93501 1.59506 0
M  V30 1431 O 144.006 -3.27509 1.40058 0
M  V30 1432 O 142.865 -5.1183 1.91551 0
M  V30 1433 H 139.959 -0.78628 0.256305 0
M  V30 1434 H 142.505 -1.21934 1.18026 0
M  V30 1435 H 141.277 -3.0325 2.47295 0
M  V30 1436 H 140.9 -3.85619 0.968687 0
M  V30 1437 N 141.898 -0.863906 -1.31812 0
M  V30 1438 C 143.175 -0.39275 -1.91616 0
M  V30 1439 C 143.555 1.12461 -1.7865 0
M  V30 1440 O 142.903 1.95045 -1.19037 0
M  V30 1441 C 143.113 -0.867385 -3.38049 0
M  V30 1442 C 144.461 -0.889966 -4.15168 0
M  V30 1443 O 145.485 -0.812635 -3.46806 0
M  V30 1444 O 144.344 -1.00079 -5.37258 0
M  V30 1445 H 141.438 -0.116358 -0.818773 0
M  V30 1446 H 143.984 -0.951418 -1.40521 0
M  V30 1447 H 142.756 -1.91081 -3.41473 0
M  V30 1448 H 142.379 -0.286687 -3.96565 0
M  V30 1449 N 143.376 1.44774 -0.622745 0
M  V30 1450 C 144.601 2.06999 -0.128968 0
M  V30 1451 C 145.026 1.4617 1.1839 0
M  V30 1452 O 144.384 0.560007 1.72434 0
M  V30 1453 C 144.432 3.60595 -0.0188351 0
M  V30 1454 O 143.536 3.99398 1.02739 0
M  V30 1455 H 142.877 0.659047 -0.0809544 0
M  V30 1456 H 145.407 1.85784 -0.85705 0
M  V30 1457 H 145.417 4.07627 0.174476 0
M  V30 1458 H 144.092 4.04252 -0.977384 0
M  V30 1459 H 142.669 3.64011 0.809326 0
M  V30 1460 N 144.854 0.36279 1.53368 0
M  V30 1461 C 146.27 0.0116182 1.59596 0
M  V30 1462 C 146.47 -1.47012 1.37803 0
M  V30 1463 O 145.526 -2.23136 1.18181 0
M  V30 1464 C 146.839 0.465052 2.97082 0
M  V30 1465 C 148.387 0.419033 3.10182 0
M  V30 1466 C 148.862 0.848235 4.50077 0
M  V30 1467 N 150.353 0.803183 4.56183 0
M  V30 1468 C 151.088 1.107 5.62613 0
M  V30 1469 N 150.584 1.47996 6.76808 0
M  V30 1470 N 152.377 1.02998 5.52583 0
M  V30 1471 H 144.528 1.32775 1.65785 0
M  V30 1472 H 146.791 0.542518 0.777417 0
M  V30 1473 H 146.497 1.49892 3.18159 0
M  V30 1474 H 146.371 -0.149786 3.76902 0
M  V30 1475 H 148.758 -0.605696 2.88817 0
M  V30 1476 H 148.839 1.06933 2.32377 0
M  V30 1477 H 148.483 1.87107 4.7218 0
M  V30 1478 H 148.413 0.175218 5.26308 0
M  V30 1479 H 150.904 0.52838 3.74188 0
M  V30 1480 H 151.217 1.69613 7.53957 0
M  V30 1481 H 149.562 1.51859 6.78206 0
M  V30 1482 H 152.753 0.737817 4.62249 0
M  V30 1483 H 152.926 1.2701 6.35431 0
M  V30 1484 N 146.332 -1.57332 0.0918853 0
M  V30 1485 C 147.578 -1.94524 -0.573425 0
M  V30 1486 C 147.911 -0.973578 -1.68033 0
M  V30 1487 O 147.186 -0.00609226 -1.94499 0
M  V30 1488 C 147.469 -3.41858 -1.13161 0
M  V30 1489 C 147.322 -4.4979 -0.0299747 0
M  V30 1490 C 148.641 -3.90435 -2.03098 0
M  V30 1491 H 145.76 -0.70734 -0.206975 0
M  V30 1492 H 148.402 -1.89309 0.161942 0
M  V30 1493 H 146.552 -3.46433 -1.7583 0
M  V30 1494 H 148.224 -4.57327 0.604112 0
M  V30 1495 H 146.467 -4.291 0.636833 0
M  V30 1496 H 147.138 -5.50069 -0.461287 0
M  V30 1497 H 149.614 -3.87992 -1.50338 0
M  V30 1498 H 148.49 -4.94097 -2.39081 0
M  V30 1499 H 148.751 -3.29541 -2.94712 0
M  V30 1500 N 147.81 0.181792 -1.56548 0
M  V30 1501 C 149.059 0.898348 -1.8059 0
M  V30 1502 C 149.372 1.83862 -0.667379 0
M  V30 1503 O 150.578 2.59678 -0.792446 0
M  V30 1504 C 149.034 1.64791 -3.19956 0
M  V30 1505 C 148.642 0.751789 -4.41647 0
M  V30 1506 C 150.386 2.35331 -3.53298 0
M  V30 1507 C 148.293 1.50098 -5.72035 0
M  V30 1508 H 147.223 0.339194 -0.673397 0
M  V30 1509 H 149.874 0.151413 -1.82874 0
M  V30 1510 H 148.256 2.43921 -3.11959 0
M  V30 1511 H 149.43 -0.0018076 -4.608 0
M  V30 1512 H 147.745 0.156562 -4.16106 0
M  V30 1513 H 150.342 2.91958 -4.47956 0
M  V30 1514 H 150.685 3.10164 -2.77676 0
M  V30 1515 H 151.218 1.63154 -3.62803 0
M  V30 1516 H 147.957 0.795175 -6.50659 0
M  V30 1517 H 147.477 2.22817 -5.56878 0
M  V30 1518 H 149.156 2.05125 -6.13622 0
M  V30 1519 N 149.288 1.51039 0.449983 0
M  V30 1520 C 150.251 1.70863 1.5277 0
M  V30 1521 C 151.251 0.578846 1.5002 0
M  V30 1522 O 152.441 0.846213 1.52266 0
M  V30 1523 C 149.573 1.75341 2.9235 0
M  V30 1524 H 150.766 2.67034 1.36502 0
M  V30 1525 H 148.319 1.40838 0.677812 0
M  V30 1526 H 149.054 0.809383 3.14037 0
M  V30 1527 H 148.839 2.57436 2.95752 0
M  V30 1528 H 150.329 1.92559 3.70555 0
M  V30 1529 N 150.766 -0.704594 1.40972 0
M  V30 1530 C 151.716 -1.81051 1.38581 0
M  V30 1531 C 152.7 -1.58759 0.261585 0
M  V30 1532 O 153.892 -1.69745 0.501556 0
M  V30 1533 C 151.021 -3.19279 1.26157 0
M  V30 1534 C 150.107 -3.47296 2.43405 0
M  V30 1535 N 150.498 -3.46064 3.68881 0
M  V30 1536 C 148.796 -3.77804 2.37023 0
M  V30 1537 C 149.497 -3.72733 4.46592 0
M  V30 1538 N 148.473 -3.9203 3.76581 0
M  V30 1539 H 152.275 -1.78448 2.33525 0
M  V30 1540 H 149.789 -0.904198 1.349 0
M  V30 1541 H 151.786 -3.98488 1.22526 0
M  V30 1542 H 150.446 -3.231 0.321902 0
M  V30 1543 H 151.457 -3.26656 4.01891 0
M  V30 1544 H 148.134 -3.8905 1.51481 0
M  V30 1545 H 149.524 -3.77993 5.55492 0
M  V30 1546 N 152.244 -1.26651 -0.937939 0
M  V30 1547 C 153.472 -1.15173 -1.7188 0
M  V30 1548 C 153.887 0.292668 -1.86518 0
M  V30 1549 O 153.244 1.20014 -1.37488 0
M  V30 1550 C 153.295 -1.81925 -3.12387 0
M  V30 1551 O 153.016 -3.2072 -2.98446 0
M  V30 1552 C 154.517 -1.76442 -4.06673 0
M  V30 1553 H 151.737 -0.400911 -0.538063 0
M  V30 1554 H 154.281 -1.67332 -1.1756 0
M  V30 1555 H 152.436 -1.33696 -3.63599 0
M  V30 1556 H 152.85 -3.53802 -3.872 0
M  V30 1557 H 154.324 -2.27781 -5.02812 0
M  V30 1558 H 154.801 -0.731608 -4.33064 0
M  V30 1559 H 155.407 -2.24238 -3.61382 0
M  V30 1560 N 153.722 1.14298 -1.08507 0
M  V30 1561 C 154.669 2.19414 -0.715965 0
M  V30 1562 C 155.639 1.63399 0.298326 0
M  V30 1563 O 156.824 1.89929 0.182101 0
M  V30 1564 C 153.964 3.44845 -0.132534 0
M  V30 1565 C 153.077 4.15007 -1.19973 0
M  V30 1566 C 152.212 5.28024 -0.580048 0
M  V30 1567 C 151.251 5.9002 -1.62921 0
M  V30 1568 N 150.388 6.94485 -1.03125 0
M  V30 1569 H 155.228 2.50336 -1.61666 0
M  V30 1570 H 152.765 1.2293 -0.807882 0
M  V30 1571 H 154.723 4.16601 0.223454 0
M  V30 1572 H 153.353 3.14403 0.731467 0
M  V30 1573 H 152.405 3.41629 -1.67313 0
M  V30 1574 H 153.717 4.57178 -1.99473 0
M  V30 1575 H 152.871 6.06455 -0.172364 0
M  V30 1576 H 151.61 4.87076 0.246603 0
M  V30 1577 H 150.615 5.10291 -2.04654 0
M  V30 1578 H 151.84 6.33042 -2.45835 0
M  V30 1579 H 149.786 6.55612 -0.225711 0
M  V30 1580 H 149.703 7.35148 -1.76334 0
M  V30 1581 H 150.971 7.7679 -0.649458 0
M  V30 1582 N 155.201 0.870884 1.31352 0
M  V30 1583 C 156.131 0.343096 2.30966 0
M  V30 1584 C 157.112 -0.566507 1.60389 0
M  V30 1585 O 158.297 -0.483336 1.88089 0
M  V30 1586 C 155.427 -0.455487 3.443 0
M  V30 1587 C 154.381 0.361103 4.26474 0
M  V30 1588 C 153.707 -0.563221 5.31725 0
M  V30 1589 C 155.007 1.59566 4.97329 0
M  V30 1590 H 156.701 1.17548 2.75359 0
M  V30 1591 H 154.247 0.566686 1.32381 0
M  V30 1592 H 156.2 -0.83525 4.13039 0
M  V30 1593 H 154.924 -1.32139 2.98675 0
M  V30 1594 H 153.583 0.722825 3.59403 0
M  V30 1595 H 153.231 -1.42643 4.82351 0
M  V30 1596 H 152.931 -0.0207409 5.87596 0
M  V30 1597 H 154.455 -0.939808 6.03324 0
M  V30 1598 H 155.869 1.28728 5.58661 0
M  V30 1599 H 154.266 2.07728 5.63 0
M  V30 1600 H 155.336 2.34798 4.24262 0
M  V30 1601 N 156.679 -1.44442 0.630414 0
M  V30 1602 C 157.928 -2.01267 0.132073 0
M  V30 1603 C 158.241 -1.50172 -1.25331 0
M  V30 1604 O 159.447 -1.9912 -1.84562 0
M  V30 1605 C 157.903 -3.59422 0.185362 0
M  V30 1606 C 157.511 -4.19514 1.57201 0
M  V30 1607 C 159.255 -4.23724 -0.256553 0
M  V30 1608 C 157.162 -5.69891 1.58045 0
M  V30 1609 H 156.092 -0.752619 0.0456092 0
M  V30 1610 H 158.743 -1.65666 0.789106 0
M  V30 1611 H 157.125 -3.92318 -0.538759 0
M  V30 1612 H 158.299 -3.98156 2.31966 0
M  V30 1613 H 156.614 -3.67496 1.95795 0
M  V30 1614 H 159.211 -5.34019 -0.269767 0
M  V30 1615 H 159.554 -3.96013 -1.28372 0
M  V30 1616 H 160.087 -3.95629 0.41505 0
M  V30 1617 H 156.826 -6.02336 2.58597 0
M  V30 1618 H 156.346 -5.93373 0.875725 0
M  V30 1619 H 158.025 -6.33515 1.31408 0
M  V30 1620 N 158.157 -0.370918 -1.53173 0
M  V30 1621 C 159.405 0.216673 -2.00935 0
M  V30 1622 C 159.726 1.48845 -1.25977 0
M  V30 1623 O 158.996 1.92286 -0.374551 0
M  V30 1624 H 157.576 0.0830565 -0.742368 0
M  V30 1625 H 160.238 -0.49838 -1.8842 0
M  V30 1626 H 159.334 0.439893 -3.08984 0
M  V30 1627 N 159.635 1.57281 -0.100228 0
M  V30 1628 C 160.86 1.99302 0.573881 0
M  V30 1629 C 161.285 0.979059 1.60611 0
M  V30 1630 O 160.643 -0.0517803 1.81226 0
M  V30 1631 C 160.691 3.40274 1.19358 0
M  V30 1632 O 159.795 3.41676 2.30935 0
M  V30 1633 H 159.136 0.647944 0.145138 0
M  V30 1634 H 161.666 2.03779 -0.183156 0
M  V30 1635 H 161.676 3.78078 1.53365 0
M  V30 1636 H 160.351 4.13594 0.437385 0
M  V30 1637 H 158.928 3.15672 1.98509 0
M  V30 1638 N 161.113 -0.173488 1.56642 0
M  V30 1639 C 162.361 -0.888706 1.81512 0
M  V30 1640 C 162.682 -1.82875 0.676872 0
M  V30 1641 O 161.952 -1.93536 -0.303414 0
M  V30 1642 H 160.532 -0.331164 0.669582 0
M  V30 1643 H 163.194 -0.173823 1.94123 0
M  V30 1644 H 162.29 -1.46691 2.75478 0
M  V30 1645 N 162.591 -1.51276 -0.441967 0
M  V30 1646 C 163.501 -1.75092 -1.56141 0
M  V30 1647 C 164.517 -0.634963 -1.62001 0
M  V30 1648 O 165.693 -0.916686 -1.79329 0
M  V30 1649 C 162.758 -1.86666 -2.92158 0
M  V30 1650 C 161.819 -3.10506 -2.96453 0
M  V30 1651 C 161.052 -3.21519 -4.25982 0
M  V30 1652 O 161.275 -2.38586 -5.18105 0
M  V30 1653 O 160.209 -4.14465 -4.36466 0
M  V30 1654 H 164.035 -2.70044 -1.38961 0
M  V30 1655 H 161.62 -1.35722 -0.624499 0
M  V30 1656 H 163.502 -1.96292 -3.72891 0
M  V30 1657 H 162.177 -0.949014 -3.09476 0
M  V30 1658 H 161.084 -3.06363 -2.14692 0
M  V30 1659 H 162.417 -4.01945 -2.84079 0
M  V30 1660 N 164.069 0.697108 -1.41344 0
M  V30 1661 C 165.016 1.81106 -1.43071 0
M  V30 1662 C 165.986 1.63632 -0.285275 0
M  V30 1663 O 167.171 1.84504 -0.486091 0
M  V30 1664 C 164.311 3.18975 -1.31715 0
M  V30 1665 C 163.424 3.47892 -2.56115 0
M  V30 1666 C 162.559 4.75367 -2.37064 0
M  V30 1667 C 161.598 4.97247 -3.56948 0
M  V30 1668 N 160.735 6.15947 -3.36977 0
M  V30 1669 H 165.575 1.78965 -2.38276 0
M  V30 1670 H 163.112 0.873975 -1.18322 0
M  V30 1671 H 165.07 3.98615 -1.23133 0
M  V30 1672 H 163.7 3.20297 -0.401183 0
M  V30 1673 H 162.752 2.62669 -2.75153 0
M  V30 1674 H 164.064 3.59962 -3.45295 0
M  V30 1675 H 163.218 5.63059 -2.25941 0
M  V30 1676 H 161.957 4.65541 -1.45338 0
M  V30 1677 H 160.962 4.08004 -3.68527 0
M  V30 1678 H 162.187 5.08934 -4.49626 0
M  V30 1679 H 160.133 6.07336 -2.47949 0
M  V30 1680 H 160.05 6.28777 -4.19732 0
M  V30 1681 H 161.318 7.06377 -3.29623 0
M  V30 1682 N 165.547 1.27147 0.931209 0
M  V30 1683 C 166.824 1.0401 1.65654 0
M  V30 1684 C 167.204 -0.426297 2.06751 0
M  V30 1685 O 166.552 -1.40879 1.79904 0
M  V30 1686 C 166.762 1.99834 2.86125 0
M  V30 1687 C 168.11 2.29007 3.57549 0
M  V30 1688 O 169.134 1.97779 2.96246 0
M  V30 1689 O 167.993 2.82222 4.67989 0
M  V30 1690 H 165.087 0.396239 0.725895 0
M  V30 1691 H 167.633 1.38397 0.982056 0
M  V30 1692 H 166.405 2.98744 2.52721 0
M  V30 1693 H 166.028 1.65987 3.61295 0
M  V30 1694 N 167.025 -1.13721 1.09112 0
M  V30 1695 C 168.25 -1.89314 0.847053 0
M  V30 1696 C 168.675 -1.78416 -0.595774 0
M  V30 1697 O 168.033 -1.12942 -1.41823 0
M  V30 1698 C 168.081 -3.3701 1.28284 0
M  V30 1699 O 167.185 -4.10054 0.439267 0
M  V30 1700 H 166.526 -0.588745 0.307044 0
M  V30 1701 H 169.056 -1.43902 1.45442 0
M  V30 1702 H 169.066 -3.87834 1.26683 0
M  V30 1703 H 167.741 -3.4426 2.33363 0
M  V30 1704 H 166.318 -3.69266 0.519312 0
M  V30 1705 N 168.503 -0.877838 -1.30888 0
M  V30 1706 C 169.749 -0.493426 -1.96706 0
M  V30 1707 C 170.082 0.953504 -1.6918 0
M  V30 1708 O 169.357 1.67266 -0.992594 0
M  V30 1709 C 169.64 -0.760429 -3.51979 0
M  V30 1710 C 169.493 -2.25747 -3.89048 0
M  V30 1711 C 170.812 -0.232148 -4.39487 0
M  V30 1712 H 167.931 -0.180746 -0.714493 0
M  V30 1713 H 170.573 -1.10052 -1.54882 0
M  V30 1714 H 168.723 -0.243715 -3.87735 0
M  V30 1715 H 170.395 -2.84204 -3.63354 0
M  V30 1716 H 168.638 -2.72694 -3.37373 0
M  V30 1717 H 169.309 -2.39491 -4.97341 0
M  V30 1718 H 171.785 -0.674314 -4.106 0
M  V30 1719 H 170.661 -0.448355 -5.47066 0
M  V30 1720 H 170.922 0.866297 -4.33529 0
M  V30 1721 N 169.982 1.44106 -0.638065 0
M  V30 1722 C 171.21 2.06336 -0.152615 0
M  V30 1723 C 171.625 1.47731 1.17563 0
M  V30 1724 O 170.982 0.602806 1.72257 0
M  V30 1725 C 171.033 3.61479 -0.0391491 0
M  V30 1726 O 170.754 4.17903 -1.31487 0
M  V30 1727 C 172.255 4.40757 0.474176 0
M  V30 1728 H 169.475 0.665862 -0.0828776 0
M  V30 1729 H 172.019 1.84862 -0.87443 0
M  V30 1730 H 170.174 3.82191 0.633142 0
M  V30 1731 H 170.588 5.11416 -1.16421 0
M  V30 1732 H 172.062 5.49707 0.502562 0
M  V30 1733 H 172.539 4.12697 1.50258 0
M  V30 1734 H 173.145 4.24979 -0.165102 0
M  V30 1735 N 171.46 0.379036 1.52974 0
M  V30 1736 C 172.707 -0.206421 2.01445 0
M  V30 1737 C 173.035 -1.47668 1.26587 0
M  V30 1738 O 172.29 -1.92514 0.351675 0
M  V30 1739 C 172.589 -0.53096 3.53434 0
M  V30 1740 C 172.255 0.646546 4.46241 0
M  V30 1741 C 170.917 0.969604 4.7133 0
M  V30 1742 C 173.269 1.43479 5.01062 0
M  V30 1743 C 170.597 2.08263 5.48492 0
M  V30 1744 C 172.949 2.53834 5.7944 0
M  V30 1745 C 171.613 2.86659 6.02812 0
M  V30 1746 H 170.883 -0.0755349 0.73714 0
M  V30 1747 H 173.53 0.514271 1.84465 0
M  V30 1748 H 171.835 -1.33285 3.68432 0
M  V30 1749 H 173.532 -0.996417 3.88423 0
M  V30 1750 H 170.122 0.384734 4.2687 0
M  V30 1751 H 174.306 1.19844 4.81613 0
M  V30 1752 H 169.562 2.34078 5.64816 0
M  V30 1753 H 173.736 3.15319 6.20924 0
M  V30 1754 H 171.363 3.73026 6.62387 0
M  V30 1755 N 172.938 -1.57226 0.108567 0
M  V30 1756 C 174.215 -1.86333 -0.594939 0
M  V30 1757 C 174.595 -1.00788 -1.85486 0
M  V30 1758 O 173.943 -0.0839293 -2.28346 0
M  V30 1759 C 174.153 -3.37265 -0.897405 0
M  V30 1760 C 175.501 -4.05629 -1.25501 0
M  V30 1761 O 176.525 -3.42224 -0.987998 0
M  V30 1762 O 175.384 -5.17531 -1.75567 0
M  V30 1763 H 172.478 -0.771018 -0.2991 0
M  V30 1764 H 175.024 -1.69102 0.142283 0
M  V30 1765 H 173.796 -3.913 -0.00413806 0
M  V30 1766 H 173.419 -3.59889 -1.69014 0
M  V30 1767 N 174.416 0.165178 -1.56732 0
M  V30 1768 C 175.662 0.882112 -1.82611 0
M  V30 1769 C 175.995 1.81628 -0.687378 0
M  V30 1770 O 175.27 1.92009 0.310267 0
M  V30 1771 C 175.553 1.67245 -3.18906 0
M  V30 1772 C 175.406 0.760987 -4.43316 0
M  V30 1773 C 176.725 2.63884 -3.52212 0
M  V30 1774 H 173.844 0.319242 -0.664269 0
M  V30 1775 H 176.486 0.148052 -1.89422 0
M  V30 1776 H 174.636 2.29824 -3.1323 0
M  V30 1777 H 176.308 0.147596 -4.61064 0
M  V30 1778 H 174.551 0.0694102 -4.33744 0
M  V30 1779 H 175.222 1.34962 -5.35247 0
M  V30 1780 H 177.698 2.11429 -3.58381 0
M  V30 1781 H 176.574 3.16245 -4.48643 0
M  V30 1782 H 176.835 3.44377 -2.77231 0
M  V30 1783 N 175.894 1.51508 0.433938 0
M  V30 1784 C 177.119 1.68443 1.21003 0
M  V30 1785 C 177.544 0.382636 1.84167 0
M  V30 1786 O 176.902 -0.65755 1.68956 0
M  V30 1787 C 176.95 2.80405 2.26727 0
M  V30 1788 O 176.054 2.44245 3.32292 0
M  V30 1789 H 175.395 0.561536 0.354363 0
M  V30 1790 H 177.925 1.9809 0.512024 0
M  V30 1791 H 177.935 3.0459 2.71457 0
M  V30 1792 H 176.61 3.74867 1.80132 0
M  V30 1793 H 175.187 2.30644 2.93015 0
M  V30 1794 N 177.372 -0.689602 1.41712 0
M  V30 1795 C 178.319 -1.80345 1.44029 0
M  V30 1796 C 179.289 -1.63478 0.293948 0
M  V30 1797 O 180.474 -1.84244 0.495869 0
M  V30 1798 C 177.614 -3.18272 1.33405 0
M  V30 1799 C 176.727 -3.46529 2.57956 0
M  V30 1800 C 175.862 -4.74103 2.39582 0
M  V30 1801 C 174.901 -4.95347 3.5958 0
M  V30 1802 N 174.038 -6.14151 3.40239 0
M  V30 1803 H 178.878 -1.77698 2.39222 0
M  V30 1804 H 176.415 -0.867688 1.18784 0
M  V30 1805 H 178.373 -3.97956 1.25246 0
M  V30 1806 H 177.003 -3.2008 0.418164 0
M  V30 1807 H 176.055 -2.61207 2.76542 0
M  V30 1808 H 177.367 -3.58126 3.47199 0
M  V30 1809 H 176.521 -5.61853 2.28924 0
M  V30 1810 H 175.26 -4.64763 1.47805 0
M  V30 1811 H 174.265 -4.06044 3.70686 0
M  V30 1812 H 175.49 -5.06542 4.52318 0
M  V30 1813 H 173.436 -6.06013 2.51167 0
M  V30 1814 H 173.353 -6.26543 4.23061 0
M  V30 1815 H 174.621 -7.04619 3.33365 0
M  V30 1816 N 178.85 -1.27639 -0.924453 0
M  V30 1817 C 179.78 -1.13166 -2.04244 0
M  V30 1818 C 180.761 -0.032256 -1.70069 0
M  V30 1819 O 181.946 -0.207328 -1.9309 0
M  V30 1820 C 179.076 -0.781496 -3.38393 0
M  V30 1821 C 178.03 -1.83449 -3.86692 0
M  V30 1822 C 177.356 -1.33822 -5.17683 0
M  V30 1823 C 178.656 -3.23917 -4.09726 0
M  V30 1824 H 180.35 -2.06689 -2.1661 0
M  V30 1825 H 177.896 -0.995136 -1.04082 0
M  V30 1826 H 179.849 -0.667057 -4.16087 0
M  V30 1827 H 178.573 0.189439 -3.2605 0
M  V30 1828 H 177.232 -1.93789 -3.11193 0
M  V30 1829 H 176.88 -0.35665 -5.01734 0
M  V30 1830 H 176.58 -2.04224 -5.50968 0
M  V30 1831 H 178.104 -1.23679 -5.97943 0
M  V30 1832 H 179.518 -3.16559 -4.77978 0
M  V30 1833 H 177.915 -3.92059 -4.54324 0
M  V30 1834 H 178.985 -3.68729 -3.14908 0
M  V30 1835 N 180.328 1.1314 -1.09713 0
M  V30 1836 C 181.275 2.18642 -0.739196 0
M  V30 1837 C 182.245 1.63706 0.280978 0
M  V30 1838 O 183.43 1.90111 0.161946 0
M  V30 1839 C 180.57 3.44685 -0.169102 0
M  V30 1840 C 179.683 4.13711 -1.24367 0
M  V30 1841 C 178.818 5.27379 -0.636019 0
M  V30 1842 C 177.857 5.88259 -1.69169 0
M  V30 1843 N 176.994 6.93352 -1.10485 0
M  V30 1844 H 181.834 2.48607 -1.64312 0
M  V30 1845 H 179.371 1.22066 -0.820875 0
M  V30 1846 H 181.329 4.16815 0.179256 0
M  V30 1847 H 179.959 3.15161 0.698079 0
M  V30 1848 H 179.011 3.39835 -1.70927 0
M  V30 1849 H 180.323 4.55037 -2.04311 0
M  V30 1850 H 179.477 6.06238 -0.236677 0
M  V30 1851 H 178.216 4.8731 0.194928 0
M  V30 1852 H 177.221 5.08092 -2.10055 0
M  V30 1853 H 178.446 6.30399 -2.52536 0
M  V30 1854 H 176.392 6.55335 -0.295234 0
M  V30 1855 H 176.309 7.33236 -1.84121 0
M  V30 1856 H 177.577 7.76057 -0.73181 0
M  V30 1857 N 181.806 0.884767 1.30421 0
M  V30 1858 C 182.716 0.355398 2.31892 0
M  V30 1859 C 183.732 -0.542261 1.65335 0
M  V30 1860 O 184.908 -0.435432 1.96637 0
M  V30 1861 C 181.973 -0.421661 3.44126 0
M  V30 1862 C 181.034 0.505727 4.26311 0
M  V30 1863 C 180.267 -0.234343 5.33185 0
M  V30 1864 O 180.49 -1.46045 5.51386 0
M  V30 1865 O 179.424 0.415443 6.00465 0
M  V30 1866 H 183.25 1.19685 2.79122 0
M  V30 1867 H 180.835 0.648596 1.34587 0
M  V30 1868 H 182.717 -0.861641 4.12497 0
M  V30 1869 H 181.392 -1.23942 2.99032 0
M  V30 1870 H 180.299 0.994513 3.60639 0
M  V30 1871 H 181.632 1.28948 4.75009 0
M  V30 1872 N 183.284 -1.43765 0.645699 0
M  V30 1873 C 184.532 -2.01499 0.155731 0
M  V30 1874 C 184.853 -1.51151 -1.232 0
M  V30 1875 O 184.123 -0.721044 -1.82148 0
M  V30 1876 H 182.703 -0.745003 0.0545817 0
M  V30 1877 H 185.365 -1.76075 0.835677 0
M  V30 1878 H 184.461 -3.1181 0.134577 0
M  V30 1879 N 184.763 -0.387143 -1.52771 0
M  V30 1880 C 185.673 0.456442 -2.30117 0
M  V30 1881 C 186.689 1.07342 -1.36944 0
M  V30 1882 O 187.865 1.07971 -1.70013 0
M  V30 1883 C 184.93 1.56957 -3.09136 0
M  V30 1884 C 183.991 0.977916 -4.18014 0
M  V30 1885 C 183.224 2.038 -4.93256 0
M  V30 1886 O 183.447 3.25271 -4.68567 0
M  V30 1887 O 182.381 1.6565 -5.78657 0
M  V30 1888 H 186.207 -0.17359 -3.03203 0
M  V30 1889 H 183.792 -0.150919 -1.48636 0
M  V30 1890 H 185.674 2.21628 -3.58412 0
M  V30 1891 H 184.349 2.18461 -2.38865 0
M  V30 1892 H 183.256 0.294525 -3.72939 0
M  V30 1893 H 184.589 0.407128 -4.90513 0
M  V30 1894 N 186.241 1.57166 -0.116904 0
M  V30 1895 C 187.173 2.12271 0.864507 0
M  V30 1896 C 188.186 1.06494 1.23138 0
M  V30 1897 O 189.375 1.33873 1.18069 0
M  V30 1898 C 186.475 2.60564 2.16702 0
M  V30 1899 C 185.648 3.90416 1.97216 0
M  V30 1900 C 184.707 4.24329 3.11178 0
M  V30 1901 O 183.733 4.93182 2.84184 0
M  V30 1902 N 184.935 3.8148 4.37554 0
M  V30 1903 H 187.7 2.97102 0.393726 0
M  V30 1904 H 185.261 1.61759 0.0675805 0
M  V30 1905 H 187.253 2.80282 2.91932 0
M  V30 1906 H 185.823 1.80623 2.55135 0
M  V30 1907 H 185.043 3.79627 1.06192 0
M  V30 1908 H 186.331 4.75327 1.81499 0
M  V30 1909 H 185.729 3.25943 4.62361 0
M  V30 1910 H 184.286 4.06311 5.09661 0
M  V30 1911 N 187.719 -0.156864 1.56817 0
M  V30 1912 C 188.949 -0.885031 1.86684 0
M  V30 1913 C 189.357 -1.75696 0.701954 0
M  V30 1914 O 188.7 -1.80569 -0.337732 0
M  V30 1915 C 188.762 -1.80092 3.11138 0
M  V30 1916 C 188.426 -1.10714 4.43386 0
M  V30 1917 C 189.423 -0.465714 5.1781 0
M  V30 1918 C 187.108 -1.09959 4.90117 0
M  V30 1919 C 189.102 0.174002 6.37162 0
M  V30 1920 C 186.789 -0.456055 6.09396 0
M  V30 1921 C 187.787 0.179622 6.82764 0
M  V30 1922 O 187.475 0.812975 7.99779 0
M  V30 1923 H 187.207 -0.261813 0.623242 0
M  V30 1924 H 189.761 -0.157383 2.04796 0
M  V30 1925 H 187.991 -2.56926 2.89009 0
M  V30 1926 H 189.68 -2.40018 3.27332 0
M  V30 1927 H 190.446 -0.463427 4.82781 0
M  V30 1928 H 186.325 -1.58378 4.3294 0
M  V30 1929 H 189.869 0.670765 6.94368 0
M  V30 1930 H 185.766 -0.455975 6.43888 0
M  V30 1931 H 186.534 0.71366 8.15383 0
M  V30 1932 N 189.197 -1.51736 -0.425897 0
M  V30 1933 C 190.13 -1.68574 -1.53812 0
M  V30 1934 C 191.108 -0.53328 -1.53606 0
M  V30 1935 O 192.292 -0.758555 -1.72564 0
M  V30 1936 C 189.419 -1.70977 -2.92377 0
M  V30 1937 C 188.465 -2.92324 -3.10563 0
M  V30 1938 S 189.298 -4.52952 -2.85648 0
M  V30 1939 C 190.454 -4.58117 -4.26474 0
M  V30 1940 H 190.687 -2.62647 -1.39298 0
M  V30 1941 H 188.22 -1.41564 -0.616361 0
M  V30 1942 H 190.178 -1.73047 -3.72243 0
M  V30 1943 H 188.839 -0.78061 -3.04245 0
M  V30 1944 H 188.032 -2.90439 -4.11899 0
M  V30 1945 H 187.634 -2.88055 -2.38538 0
M  V30 1946 H 189.926 -4.34462 -5.19855 0
M  V30 1947 H 190.869 -5.59983 -4.33388 0
M  V30 1948 H 191.277 -3.8732 -4.10662 0
M  V30 1949 N 190.675 0.682077 -1.42076 0
M  V30 1950 C 191.922 1.44215 -1.42156 0
M  V30 1951 C 192.25 1.94468 -0.0354186 0
M  V30 1952 O 191.505 1.70816 0.955002 0
M  V30 1953 C 191.804 2.66036 -2.38662 0
M  V30 1954 C 191.47 2.34366 -3.85206 0
M  V30 1955 C 190.132 2.25439 -4.25124 0
M  V30 1956 C 192.484 2.08513 -4.77673 0
M  V30 1957 C 189.812 1.88775 -5.55501 0
M  V30 1958 C 192.164 1.73354 -6.08384 0
M  V30 1959 C 190.828 1.62933 -6.47309 0
M  V30 1960 H 190.098 0.527718 -0.520187 0
M  V30 1961 H 192.745 0.778387 -1.74967 0
M  V30 1962 H 191.05 3.3741 -1.99152 0
M  V30 1963 H 192.747 3.24205 -2.35991 0
M  V30 1964 H 189.337 2.42213 -3.53597 0
M  V30 1965 H 193.521 2.14346 -4.47626 0
M  V30 1966 H 188.777 1.7927 -5.84527 0
M  V30 1967 H 192.951 1.52373 -6.79526 0
M  V30 1968 H 190.578 1.34292 -7.48244 0
M  V30 1969 N 192.153 1.28127 0.917671 0
M  V30 1970 C 193.4 1.15052 1.66641 0
M  V30 1971 C 193.728 -0.301677 1.92146 0
M  V30 1972 O 192.983 -1.23622 1.51711 0
M  V30 1973 C 193.282 1.89018 3.03327 0
M  V30 1974 C 192.948 3.38832 2.97496 0
M  V30 1975 C 191.61 3.79693 2.95613 0
M  V30 1976 C 193.962 4.34378 2.88036 0
M  V30 1977 C 191.29 5.14447 2.82066 0
M  V30 1978 C 193.642 5.69201 2.7603 0
M  V30 1979 C 192.306 6.09343 2.72502 0
M  V30 1980 H 191.576 0.421006 0.609783 0
M  V30 1981 H 194.223 1.58855 1.06945 0
M  V30 1982 H 192.528 1.37752 3.66785 0
M  V30 1983 H 194.225 1.76321 3.60156 0
M  V30 1984 H 190.815 3.06342 2.99754 0
M  V30 1985 H 194.999 4.03775 2.88581 0
M  V30 1986 H 190.255 5.44681 2.77728 0
M  V30 1987 H 194.429 6.42901 2.67678 0
M  V30 1988 H 192.056 7.13712 2.61762 0
M  V30 1989 N 193.631 -1.12557 1.10312 0
M  V30 1990 C 194.871 -1.8568 0.854543 0
M  V30 1991 C 195.235 -1.82091 -0.608843 0
M  V30 1992 O 196.436 -2.50544 -0.973717 0
M  V30 1993 C 194.707 -3.2942 1.38626 0
M  V30 1994 S 196.266 -4.19931 1.27293 0
M  V30 1995 H 193.084 -0.640427 0.308827 0
M  V30 1996 H 195.686 -1.35599 1.40831 0
M  V30 1997 H 194.39 -3.2959 2.44537 0
M  V30 1998 H 193.921 -3.84566 0.82902 0
M  V30 1999 H 195.936 -4.95668 0.229776 0
M  V30 2000 N 195.109 -0.891671 -1.2995 0
M  V30 2001 C 196.337 -0.52866 -2.00032 0
M  V30 2002 C 196.752 0.884574 -1.66795 0
M  V30 2003 O 196.109 1.5827 -0.908669 0
M  V30 2004 C 196.16 -0.701814 -3.54622 0
M  V30 2005 O 195.881 -2.05942 -3.86678 0
M  V30 2006 C 197.382 -0.342683 -4.41973 0
M  V30 2007 H 194.602 -0.203659 -0.639347 0
M  V30 2008 H 197.146 -1.19881 -1.65677 0
M  V30 2009 H 195.301 -0.0789468 -3.8732 0
M  V30 2010 H 195.715 -2.08291 -4.81368 0
M  V30 2011 H 197.189 -0.514709 -5.49595 0
M  V30 2012 H 197.666 0.71975 -4.33262 0
M  V30 2013 H 198.272 -0.942154 -4.14733 0
M  V30 2014 N 196.587 1.43421 -0.653314 0
M  V30 2015 C 197.834 2.01812 -0.166745 0
M  V30 2016 C 198.162 1.51535 1.21931 0
M  V30 2017 O 197.417 0.698975 1.82792 0
M  V30 2018 C 197.716 3.57176 -0.126623 0
M  V30 2019 C 197.382 4.26798 -1.45444 0
M  V30 2020 C 196.044 4.45534 -1.81805 0
M  V30 2021 C 198.396 4.66225 -2.32989 0
M  V30 2022 C 195.724 5.00961 -3.05377 0
M  V30 2023 C 198.076 5.23021 -3.55853 0
M  V30 2024 C 196.74 5.39973 -3.9241 0
M  V30 2025 H 196.01 0.738484 -0.0610162 0
M  V30 2026 H 198.657 1.71896 -0.84404 0
M  V30 2027 H 196.962 3.86634 0.634123 0
M  V30 2028 H 198.659 4.00112 0.266723 0
M  V30 2029 H 195.249 4.12561 -1.16153 0
M  V30 2030 H 199.433 4.51443 -2.06187 0
M  V30 2031 H 194.689 5.12271 -3.3375 0
M  V30 2032 H 198.863 5.52518 -4.23907 0
M  V30 2033 H 196.49 5.82687 -4.88242 0
M  V30 2034 N 198.065 0.39524 1.52563 0
M  V30 2035 C 199.476 -0.0774719 1.86539 0
M  V30 2036 C 199.827 -1.45641 1.31466 0
M  V30 2037 O 198.952 -2.06459 0.648367 0
M  V30 2038 C 199.547 -0.147356 3.38479 0
M  V30 2039 C 198.106 -0.564373 3.72145 0
M  V30 2040 C 197.253 0.269919 2.75983 0
M  V30 2041 H 200.204 0.612876 1.46388 0
M  V30 2042 H 200.225 -0.965343 3.68051 0
M  V30 2043 H 199.737 0.856387 3.78534 0
M  V30 2044 H 197.838 -1.57527 3.37663 0
M  V30 2045 H 197.951 -0.318402 4.78041 0
M  V30 2046 H 196.315 -0.265696 2.5331 0
M  V30 2047 H 197.098 1.27175 3.18875 0
M  V30 2048 N 199.544 -1.57102 0.125237 0
M  V30 2049 C 200.792 -1.95021 -0.530198 0
M  V30 2050 C 201.113 -1.00982 -1.66816 0
M  V30 2051 O 200.383 -0.0672693 -1.95784 0
M  V30 2052 H 198.963 -0.720046 -0.198853 0
M  V30 2053 H 201.625 -1.93916 0.19564 0
M  V30 2054 H 200.721 -2.98211 -0.920681 0
M  V30 2055 N 201.022 0.148545 -1.56898 0
M  V30 2056 C 201.972 1.1886 -1.94567 0
M  V30 2057 C 202.956 1.3863 -0.816735 0
M  V30 2058 O 204.148 1.40218 -1.08018 0
M  V30 2059 C 201.277 2.52262 -2.32849 0
M  V30 2060 C 200.363 2.36092 -3.52309 0
M  V30 2061 N 200.754 1.89674 -4.6889 0
M  V30 2062 C 199.052 2.66848 -3.57363 0
M  V30 2063 C 199.753 1.86511 -5.50989 0
M  V30 2064 N 198.729 2.29766 -4.92655 0
M  V30 2065 H 202.531 0.821793 -2.82177 0
M  V30 2066 H 200.045 0.356615 -1.58436 0
M  V30 2067 H 202.042 3.27447 -2.58039 0
M  V30 2068 H 200.702 2.89727 -1.46589 0
M  V30 2069 H 201.713 1.59663 -4.92674 0
M  V30 2070 H 198.39 3.08198 -2.81639 0
M  V30 2071 H 199.78 1.52128 -6.54452 0
M  V30 2072 N 202.5 1.5196 0.417844 0
M  V30 2073 C 203.725 1.69717 1.1921 0
M  V30 2074 C 204.15 0.402148 1.83751 0
M  V30 2075 O 203.508 -0.639593 1.69643 0
M  V30 2076 C 203.556 2.82794 2.2374 0
M  V30 2077 O 202.66 2.47756 3.29683 0
M  V30 2078 H 202.001 0.565263 0.348387 0
M  V30 2079 H 204.531 1.98621 0.490985 0
M  V30 2080 H 204.541 3.07452 2.68212 0
M  V30 2081 H 203.216 3.76756 1.76146 0
M  V30 2082 H 201.793 2.33739 2.90552 0
M  V30 2083 N 203.978 -0.674533 1.42435 0
M  V30 2084 C 204.941 -1.76986 1.45632 0
M  V30 2085 C 205.941 -1.5708 0.343871 0
M  V30 2086 O 207.131 -1.63367 0.604709 0
M  V30 2087 C 204.263 -3.15623 1.28822 0
M  V30 2088 H 205.456 -1.75539 2.43158 0
M  V30 2089 H 203.009 -0.884189 1.28887 0
M  V30 2090 H 203.744 -3.22696 0.322193 0
M  V30 2091 H 203.529 -3.31475 2.09444 0
M  V30 2092 H 205.019 -3.95537 1.33942 0
M  V30 2093 N 205.456 -1.28612 -0.910864 0
M  V30 2094 C 206.386 -1.15326 -2.03032 0
M  V30 2095 C 207.367 -0.0502924 -1.70026 0
M  V30 2096 O 208.552 -0.227797 -1.92859 0
M  V30 2097 C 205.682 -0.817343 -3.37545 0
M  V30 2098 C 204.636 -1.8754 -3.84724 0
M  V30 2099 C 203.962 -1.39305 -5.16235 0
M  V30 2100 C 205.262 -3.28244 -4.06267 0
M  V30 2101 H 206.956 -2.08975 -2.14406 0
M  V30 2102 H 204.502 -1.00612 -1.03021 0
M  V30 2103 H 206.455 -0.711151 -4.15356 0
M  V30 2104 H 205.179 0.154846 -3.26233 0
M  V30 2105 H 203.838 -1.97079 -3.09121 0
M  V30 2106 H 203.486 -0.409846 -5.01328 0
M  V30 2107 H 203.186 -2.10057 -5.48771 0
M  V30 2108 H 204.71 -1.30014 -5.96598 0
M  V30 2109 H 206.124 -3.21611 -4.74594 0
M  V30 2110 H 204.521 -3.96855 -4.5014 0
M  V30 2111 H 205.591 -3.72048 -3.10979 0
M  V30 2112 N 206.934 1.1197 -1.10907 0
M  V30 2113 C 207.867 2.16998 -0.706192 0
M  V30 2114 C 208.845 1.59903 0.294897 0
M  V30 2115 O 210.029 1.87513 0.192636 0
M  V30 2116 C 207.156 3.38673 -0.0427664 0
M  V30 2117 C 206.202 4.14414 -1.00811 0
M  V30 2118 S 207.035 4.72079 -2.52789 0
M  V30 2119 C 208.191 5.97083 -1.87731 0
M  V30 2120 H 208.424 2.50837 -1.59587 0
M  V30 2121 H 205.957 1.23508 -0.926555 0
M  V30 2122 H 207.915 4.09142 0.333668 0
M  V30 2123 H 206.576 3.03105 0.823788 0
M  V30 2124 H 205.769 5.016 -0.491259 0
M  V30 2125 H 205.371 3.49678 -1.3267 0
M  V30 2126 H 207.663 6.66599 -1.21044 0
M  V30 2127 H 208.606 6.53403 -2.72892 0
M  V30 2128 H 209.014 5.4837 -1.33979 0
M  V30 2129 N 208.412 0.89855 1.29475 0
M  V30 2130 C 209.359 0.373819 2.27753 0
M  V30 2131 C 210.329 -0.543444 1.56958 0
M  V30 2132 O 211.514 -0.468934 1.84948 0
M  V30 2133 C 208.654 -0.393648 3.42848 0
M  V30 2134 C 207.767 0.554379 4.28428 0
M  V30 2135 C 206.902 -0.230026 5.30702 0
M  V30 2136 C 205.941 0.712599 6.07938 0
M  V30 2137 N 205.078 -0.0373283 7.0209 0
M  V30 2138 H 209.918 1.21699 2.72017 0
M  V30 2139 H 207.455 0.611456 1.33789 0
M  V30 2140 H 209.413 -0.85466 4.08352 0
M  V30 2141 H 208.043 -1.20128 2.99615 0
M  V30 2142 H 207.095 1.13391 3.63107 0
M  V30 2143 H 208.407 1.27597 4.82204 0
M  V30 2144 H 207.561 -0.752288 6.02018 0
M  V30 2145 H 206.3 -0.984758 4.77654 0
M  V30 2146 H 205.305 1.24637 5.35486 0
M  V30 2147 H 206.53 1.46664 6.63074 0
M  V30 2148 H 204.476 -0.774348 6.51414 0
M  V30 2149 H 204.393 0.624374 7.53417 0
M  V30 2150 H 205.661 -0.539891 7.77628 0
M  V30 2151 N 209.89 -1.43072 0.660911 0
M  V30 2152 C 211.138 -2.01323 0.177094 0
M  V30 2153 C 211.459 -1.5245 -1.2159 0
M  V30 2154 O 210.729 -0.740322 -1.81373 0
M  V30 2155 H 209.309 -0.744382 0.0624804 0
M  V30 2156 H 211.971 -1.75179 0.854305 0
M  V30 2157 H 211.067 -3.11649 0.167641 0
M  V30 2158 N 211.368 -0.403325 -1.52352 0
M  V30 2159 C 212.596 0.174012 -2.06167 0
M  V30 2160 C 213.011 1.39347 -1.27388 0
M  V30 2161 O 212.368 1.79597 -0.324201 0
M  V30 2162 C 212.419 0.530223 -3.5759 0
M  V30 2163 O 212.14 -0.640806 -4.33388 0
M  V30 2164 C 213.641 1.16192 -4.27802 0
M  V30 2165 H 210.861 0.0229464 -0.670608 0
M  V30 2166 H 213.405 -0.572604 -1.9632 0
M  V30 2167 H 211.56 1.22673 -3.67464 0
M  V30 2168 H 211.974 -0.344851 -5.23365 0
M  V30 2169 H 213.448 1.36141 -5.34948 0
M  V30 2170 H 213.925 2.13335 -3.83907 0
M  V30 2171 H 214.531 0.505775 -4.22282 0
M  V30 2172 N 212.846 1.57033 -0.133567 0
M  V30 2173 C 213.776 2.1909 0.807567 0
M  V30 2174 C 214.757 1.13517 1.26681 0
M  V30 2175 O 215.942 1.41809 1.32679 0
M  V30 2176 C 213.072 2.80188 2.05212 0
M  V30 2177 C 212.026 3.91471 1.73015 0
M  V30 2178 C 211.352 4.39443 3.04622 0
M  V30 2179 C 212.652 5.12886 0.987168 0
M  V30 2180 H 214.346 2.97988 0.290403 0
M  V30 2181 H 211.892 1.43335 0.138239 0
M  V30 2182 H 213.845 3.22264 2.71521 0
M  V30 2183 H 212.569 1.98601 2.59278 0
M  V30 2184 H 211.228 3.49993 1.0909 0
M  V30 2185 H 210.876 3.54695 3.56651 0
M  V30 2186 H 210.576 5.14495 2.83847 0
M  V30 2187 H 212.1 4.8418 3.72024 0
M  V30 2188 H 213.514 5.51891 1.55208 0
M  V30 2189 H 211.911 5.93615 0.87985 0
M  V30 2190 H 212.981 4.84894 -0.0235286 0
M  V30 2191 N 214.325 -0.140222 1.56975 0
M  V30 2192 C 215.553 -0.866437 1.87884 0
M  V30 2193 C 215.968 -1.74428 0.722517 0
M  V30 2194 O 215.325 -1.79891 -0.30749 0
M  V30 2195 C 215.376 -1.71753 3.18093 0
M  V30 2196 O 215.097 -0.875056 4.29272 0
M  V30 2197 C 216.598 -2.55074 3.62563 0
M  V30 2198 H 213.818 -0.25019 0.622612 0
M  V30 2199 H 216.362 -0.130977 2.0408 0
M  V30 2200 H 214.517 -2.40598 3.03631 0
M  V30 2201 H 214.931 -1.46002 5.03769 0
M  V30 2202 H 216.405 -3.10356 4.5649 0
M  V30 2203 H 216.882 -3.31434 2.88181 0
M  V30 2204 H 217.488 -1.91509 3.79743 0
M  V30 2205 N 215.803 -1.52179 -0.40978 0
M  V30 2206 C 216.733 -1.78435 -1.5061 0
M  V30 2207 C 217.714 -0.635295 -1.57791 0
M  V30 2208 O 218.899 -0.880823 -1.73076 0
M  V30 2209 C 216.029 -1.93444 -2.88439 0
M  V30 2210 C 214.983 -3.09038 -2.96108 0
M  V30 2211 C 214.309 -3.09268 -4.36185 0
M  V30 2212 C 215.609 -4.48508 -2.67652 0
M  V30 2213 H 217.303 -2.70237 -1.28889 0
M  V30 2214 H 214.849 -1.30036 -0.618605 0
M  V30 2215 H 216.802 -2.10394 -3.65119 0
M  V30 2216 H 215.526 -0.983129 -3.11452 0
M  V30 2217 H 214.185 -2.91837 -2.21872 0
M  V30 2218 H 213.833 -2.11861 -4.56206 0
M  V30 2219 H 213.533 -3.86907 -4.42241 0
M  V30 2220 H 215.057 -3.28348 -5.14801 0
M  V30 2221 H 216.471 -4.65918 -3.34056 0
M  V30 2222 H 214.868 -5.28059 -2.85085 0
M  V30 2223 H 215.938 -4.56649 -1.63095 0
M  V30 2224 N 217.281 0.66697 -1.42791 0
M  V30 2225 C 218.228 1.7803 -1.4688 0
M  V30 2226 C 219.198 1.6299 -0.319919 0
M  V30 2227 O 220.383 1.83432 -0.525118 0
M  V30 2228 C 217.523 3.1611 -1.38451 0
M  V30 2229 C 216.636 3.42381 -2.63437 0
M  V30 2230 C 215.771 4.70232 -2.47094 0
M  V30 2231 C 214.81 4.89564 -3.67415 0
M  V30 2232 N 213.947 6.08661 -3.49966 0
M  V30 2233 H 218.787 1.7387 -2.42019 0
M  V30 2234 H 216.324 0.84868 -1.20149 0
M  V30 2235 H 218.282 3.95914 -1.31561 0
M  V30 2236 H 216.912 3.19374 -0.469033 0
M  V30 2237 H 215.964 2.56774 -2.80662 0
M  V30 2238 H 217.276 3.52557 -3.52853 0
M  V30 2239 H 216.43 5.5814 -2.37834 0
M  V30 2240 H 215.169 4.62353 -1.5518 0
M  V30 2241 H 214.174 4.00096 -3.77099 0
M  V30 2242 H 215.399 4.99282 -4.6032 0
M  V30 2243 H 213.345 6.0194 -2.60776 0
M  V30 2244 H 213.262 6.19733 -4.32975 0
M  V30 2245 H 214.53 6.99226 -3.44532 0
M  V30 2246 O 218.798 1.39735 0.809714 0
M  V30 2247 H 219.489 1.27958 1.45418 0
M  V30 END ATOM
M  V30 BEGIN BOND
M  V30 END BOND
M  V30 END CTAB
M  END
$$$$
