drugbank_target|P83844 ADP-ribose pyrophosphatase (DB01975; DB02059)
 OpenBabel12092119523D

  0  0  0     0  0            999 V3000
M  V30 BEGIN CTAB
M  V30 COUNTS 3312 3345 0 0 0
M  V30 BEGIN ATOM
M  V30 1 H -0.908 1.98254 -0.117106 0
M  V30 2 N 0 1.576 0 0
M  V30 3 C 0.933 2.03868 1.02534 0
M  V30 4 C 1.911 0.928543 1.3348 0
M  V30 5 O 3.095 1.19667 1.45644 0
M  V30 6 C 0.222 2.43627 2.35294 0
M  V30 7 C -0.732 3.65373 2.2001 0
M  V30 8 S 0.101 5.13292 1.52614 0
M  V30 9 C 1.257 5.56322 2.86805 0
M  V30 10 H 1.49 2.90518 0.631377 0
M  V30 11 H -0.977 1.52953 0.210867 0
M  V30 12 H 0.981 2.67203 3.11629 0
M  V30 13 H -0.358 1.57376 2.7183 0
M  V30 14 H -1.165 3.90944 3.18086 0
M  V30 15 H -1.563 3.418 1.51819 0
M  V30 16 H 0.729 5.58782 3.83104 0
M  V30 17 H 1.672 6.56266 2.65933 0
M  V30 18 H 2.08 4.83886 2.90714 0
M  V30 19 N 1.4781 -0.272755 1.55222 0
M  V30 20 C 2.4081 -1.34136 1.91127 0
M  V30 21 C 3.3891 -1.51513 0.773168 0
M  V30 22 O 4.5741 -1.64552 1.03132 0
M  V30 23 C 1.7041 -2.70083 2.1834 0
M  V30 24 C 0.6581 -2.67437 3.34158 0
M  V30 25 C -0.0159 -4.06938 3.46851 0
M  V30 26 C 1.2841 -2.26686 4.70543 0
M  V30 27 H 2.9781 -1.04333 2.80633 0
M  V30 28 H 0.5241 -0.500454 1.35024 0
M  V30 29 H 2.4771 -3.44952 2.42046 0
M  V30 30 H 1.2011 -3.01469 1.25634 0
M  V30 31 H -0.1399 -1.95026 3.1042 0
M  V30 32 H -0.4919 -4.35547 2.51611 0
M  V30 33 H -0.7919 -4.06062 4.2472 0
M  V30 34 H 0.7321 -4.83545 3.72849 0
M  V30 35 H 2.1461 -2.91277 4.93792 0
M  V30 36 H 0.5431 -2.36971 5.5133 0
M  V30 37 H 1.6131 -1.21818 4.69349 0
M  V30 38 N 2.9562 -1.48159 -0.537278 0
M  V30 39 C 3.9032 -1.62138 -1.64256 0
M  V30 40 C 4.8732 -0.463668 -1.59497 0
M  V30 41 O 6.0582 -0.686241 -1.78032 0
M  V30 42 C 3.1982 -1.66028 -3.02537 0
M  V30 43 C 2.3112 -2.92855 -3.17585 0
M  V30 44 C 1.4462 -2.87952 -4.46382 0
M  V30 45 C 0.4852 -4.09516 -4.54932 0
M  V30 46 N -0.3778 -4.02733 -5.75109 0
M  V30 47 H 4.4622 -2.56529 -1.51647 0
M  V30 48 H 1.9992 -1.27224 -0.738414 0
M  V30 49 H 3.9572 -1.66265 -3.82638 0
M  V30 50 H 2.5872 -0.751331 -3.13934 0
M  V30 51 H 1.6392 -3.02395 -2.30784 0
M  V30 52 H 2.9512 -3.82822 -3.19764 0
M  V30 53 H 2.1052 -2.8655 -5.34765 0
M  V30 54 H 0.8442 -1.95702 -4.46712 0
M  V30 55 H -0.1508 -4.11201 -3.64957 0
M  V30 56 H 1.0742 -5.02917 -4.56346 0
M  V30 57 H -0.9798 -3.13299 -5.76351 0
M  V30 58 H -1.0628 -4.86397 -5.78752 0
M  V30 59 H 0.2052 -4.05379 -6.65799 0
M  V30 60 N 4.4343 0.785586 -1.36625 0
M  V30 61 C 5.8453 1.36101 -1.27803 0
M  V30 62 C 6.1963 1.96035 0.0804875 0
M  V30 63 O 5.3213 1.92834 0.982042 0
M  V30 64 C 5.9163 2.47442 -2.31426 0
M  V30 65 C 4.4753 3.00789 -2.26281 0
M  V30 66 C 3.6223 1.73896 -2.15999 0
M  V30 67 H 6.5733 0.586928 -1.47448 0
M  V30 68 H 6.5943 3.2656 -1.95291 0
M  V30 69 H 6.1063 2.03791 -3.30289 0
M  V30 70 H 4.2073 3.48851 -1.30896 0
M  V30 71 H 4.3203 3.57343 -3.19128 0
M  V30 72 H 2.6843 1.9628 -1.62316 0
M  V30 73 H 3.4673 1.32368 -3.16755 0
M  V30 74 N 5.9124 1.20967 1.01018 0
M  V30 75 C 7.1894 0.93264 1.71934 0
M  V30 76 C 7.5694 -0.55692 2.03621 0
M  V30 77 O 6.9174 -1.52035 1.7058 0
M  V30 78 C 7.1274 1.81233 2.98254 0
M  V30 79 C 8.4754 2.05804 3.71389 0
M  V30 80 O 9.4994 1.78539 3.08225 0
M  V30 81 O 8.3584 2.51888 4.84989 0
M  V30 82 H 5.4524 0.349272 0.749625 0
M  V30 83 H 7.9984 1.31871 1.06808 0
M  V30 84 H 6.7704 2.82067 2.71208 0
M  V30 85 H 6.3934 1.42674 3.7112 0
M  V30 86 N 7.3905 -1.2043 1.01659 0
M  V30 87 C 8.3385 -2.25249 0.580143 0
M  V30 88 C 9.3325 -1.65057 -0.381115 0
M  V30 89 O 10.5385 -1.78241 -0.251039 0
M  V30 90 H 6.9135 -0.732695 0.169299 0
M  V30 91 H 8.8845 -2.59389 1.47512 0
M  V30 92 C 7.6335 -3.47638 -0.065788 0
M  V30 93 H 6.9565 -3.94233 0.664874 0
M  V30 94 H 8.3965 -4.2268 -0.334282 0
M  V30 95 C 6.8555 -3.10447 -1.3086 0
M  V30 96 O 7.3855 -3.21981 -2.4019 0
M  V30 97 N 5.5915 -2.64996 -1.1927 0
M  V30 98 H 5.1385 -2.55811 -0.303064 0
M  V30 99 H 5.0965 -2.40482 -2.02523 0
M  V30 100 N 8.8686 -0.792821 -1.36206 0
M  V30 101 C 9.7986 -0.207853 -2.32573 0
M  V30 102 C 10.7796 0.659055 -1.56813 0
M  V30 103 O 11.9646 0.592176 -1.84951 0
M  V30 104 C 9.0946 0.655449 -3.41059 0
M  V30 105 C 8.0486 -0.111842 -4.27854 0
M  V30 106 C 7.3746 0.872274 -5.27537 0
M  V30 107 C 8.6746 -1.30299 -5.05786 0
M  V30 108 H 10.3686 -1.01294 -2.81744 0
M  V30 109 H 7.9146 -0.48854 -1.3546 0
M  V30 110 H 9.8676 1.07464 -4.07467 0
M  V30 111 H 8.5916 1.49328 -2.90463 0
M  V30 112 H 7.2506 -0.512053 -3.63006 0
M  V30 113 H 6.8986 1.70523 -4.73214 0
M  V30 114 H 6.5986 0.363291 -5.86476 0
M  V30 115 H 8.1226 1.28996 -5.96818 0
M  V30 116 H 9.5366 -0.959379 -5.65216 0
M  V30 117 H 7.9336 -1.7455 -5.74154 0
M  V30 118 H 9.0036 -2.09663 -4.37229 0
M  V30 119 N 10.3467 1.47872 -0.545128 0
M  V30 120 C 11.7577 1.86384 -0.108581 0
M  V30 121 C 12.1087 1.45309 1.31832 0
M  V30 122 O 11.2337 0.850641 1.9898 0
M  V30 123 C 11.8287 3.38265 -0.190274 0
M  V30 124 C 10.3877 3.75914 0.191164 0
M  V30 125 C 9.5347 2.71926 -0.543273 0
M  V30 126 H 12.4857 1.39561 -0.755537 0
M  V30 127 H 12.5067 3.75831 0.594217 0
M  V30 128 H 12.0187 3.6813 -1.2289 0
M  V30 129 H 10.1197 3.51665 1.23136 0
M  V30 130 H 10.2327 4.78836 -0.158987 0
M  V30 131 H 8.5967 2.54697 0.0122495 0
M  V30 132 H 9.3797 3.04634 -1.58282 0
M  V30 133 N 11.8248 0.280983 1.55075 0
M  V30 134 C 13.0708 -0.33461 2.00021 0
M  V30 135 C 13.4038 -1.55063 1.16915 0
M  V30 136 O 12.6788 -1.93006 0.240646 0
M  V30 137 C 12.9618 -0.711007 3.53011 0
M  V30 138 C 12.8148 0.512766 4.46868 0
M  V30 139 C 14.1338 -1.54522 4.12081 0
M  V30 140 H 11.2528 -0.120147 0.727141 0
M  V30 141 H 13.8948 0.389097 1.85973 0
M  V30 142 H 12.0448 -1.32761 3.65112 0
M  V30 143 H 13.7168 1.15131 4.46702 0
M  V30 144 H 11.9598 1.14975 4.18286 0
M  V30 145 H 12.6308 0.205556 5.51617 0
M  V30 146 H 15.1068 -1.02442 4.03293 0
M  V30 147 H 13.9828 -1.77739 5.19327 0
M  V30 148 H 14.2438 -2.52813 3.62682 0
M  V30 149 N 13.3029 -1.57598 0.00835791 0
M  V30 150 C 14.5309 -1.95214 -0.68549 0
M  V30 151 C 14.9459 -0.883706 -1.66841 0
M  V30 152 O 14.3029 0.136565 -1.81988 0
M  V30 153 C 14.3539 -3.32865 -1.41007 0
M  V30 154 O 14.0749 -4.35609 -0.466552 0
M  V30 155 C 15.5759 -3.84991 -2.19765 0
M  V30 156 H 12.7959 -0.643422 -0.190392 0
M  V30 157 H 15.3399 -2.04406 0.0619607 0
M  V30 158 H 13.4949 -3.24956 -2.10908 0
M  V30 159 H 13.9089 -5.15288 -0.978699 0
M  V30 160 H 15.3829 -4.8371 -2.65948 0
M  V30 161 H 15.8599 -3.18137 -3.02796 0
M  V30 162 H 16.4659 -3.96103 -1.54864 0
M  V30 163 N 14.781 0.264519 -1.55364 0
M  V30 164 C 16.028 0.994986 -1.7637 0
M  V30 165 C 16.356 1.85976 -0.5695 0
M  V30 166 O 15.611 1.90509 0.44776 0
M  V30 167 C 15.91 1.9004 -3.02687 0
M  V30 168 C 15.576 1.19243 -4.34847 0
M  V30 169 C 14.238 0.996709 -4.70764 0
M  V30 170 C 16.59 0.689296 -5.16622 0
M  V30 171 C 13.918 0.285261 -5.86006 0
M  V30 172 C 16.27 -0.00860079 -6.32599 0
M  V30 173 C 14.934 -0.215963 -6.67151 0
M  V30 174 H 14.204 0.364091 -0.645383 0
M  V30 175 H 16.851 0.266543 -1.89636 0
M  V30 176 H 15.156 2.69533 -2.84357 0
M  V30 177 H 16.853 2.46695 -3.16137 0
M  V30 178 H 13.443 1.3549 -4.06621 0
M  V30 179 H 17.627 0.828108 -4.89342 0
M  V30 180 H 12.883 0.113961 -6.11294 0
M  V30 181 H 17.057 -0.406186 -6.95214 0
M  V30 182 H 14.684 -0.769217 -7.56298 0
M  V30 183 N 16.2591 1.48442 0.529413 0
M  V30 184 C 17.5071 1.56179 1.28267 0
M  V30 185 C 17.8281 0.237721 1.93546 0
M  V30 186 O 17.0981 -0.740779 1.81354 0
M  V30 187 H 15.6781 0.575367 0.476405 0
M  V30 188 H 18.3401 1.84909 0.61602 0
M  V30 189 H 17.4361 2.34312 2.06165 0
M  V30 190 N 17.7372 -0.778329 1.37039 0
M  V30 191 C 18.6842 -1.89139 1.32269 0
M  V30 192 C 19.6542 -1.65017 0.189387 0
M  V30 193 O 20.8392 -1.87024 0.377693 0
M  V30 194 C 17.9792 -3.26112 1.12894 0
M  V30 195 C 17.0922 -3.62233 2.35396 0
M  V30 196 C 16.2272 -4.8838 2.08946 0
M  V30 197 C 15.2662 -5.17212 3.2735 0
M  V30 198 N 14.4032 -6.34546 3.00492 0
M  V30 199 H 19.2432 -1.92552 2.27437 0
M  V30 200 H 16.7802 -0.941473 1.13025 0
M  V30 201 H 18.7382 -4.05116 0.996835 0
M  V30 202 H 17.3682 -3.22091 0.213758 0
M  V30 203 H 16.4202 -2.78265 2.5937 0
M  V30 204 H 17.7322 -3.79481 3.23721 0
M  V30 205 H 16.8862 -5.75274 1.92729 0
M  V30 206 H 15.6252 -4.73222 1.17949 0
M  V30 207 H 14.6302 -4.28796 3.44113 0
M  V30 208 H 15.8552 -5.34283 4.19188 0
M  V30 209 H 13.8012 -6.20759 2.12118 0
M  V30 210 H 13.7182 -6.52179 3.82358 0
M  V30 211 H 14.9862 -7.24394 2.87879 0
M  V30 212 N 19.2153 -1.21501 -1.00376 0
M  V30 213 C 20.1633 -0.972442 -2.11297 0
M  V30 214 C 21.1573 0.080731 -1.69208 0
M  V30 215 O 22.3633 -0.0707666 -1.79861 0
M  V30 216 H 18.7383 -0.297218 -0.690772 0
M  V30 217 H 20.7093 -1.91394 -2.28934 0
M  V30 218 C 19.4583 -0.555065 -3.43241 0
M  V30 219 H 18.7813 -1.35709 -3.76062 0
M  V30 220 H 20.2213 -0.424664 -4.21868 0
M  V30 221 C 18.6803 0.734147 -3.28804 0
M  V30 222 O 19.2103 1.78937 -3.59645 0
M  V30 223 N 17.4163 0.701133 -2.82015 0
M  V30 224 H 16.9633 -0.157874 -2.57116 0
M  V30 225 H 16.9213 1.56403 -2.72737 0
M  V30 226 N 20.6934 1.19889 -1.02296 0
M  V30 227 C 21.9704 1.85148 -0.630832 0
M  V30 228 C 22.3504 1.91385 0.890782 0
M  V30 229 O 21.6984 1.42642 1.78509 0
M  V30 230 C 21.9084 3.24442 -1.28602 0
M  V30 231 C 23.2564 4.00663 -1.4055 0
M  V30 232 O 24.2804 3.33818 -1.24273 0
M  V30 233 O 23.1394 5.20387 -1.66913 0
M  V30 234 H 20.2334 0.797613 -0.218499 0
M  V30 235 H 22.7794 1.27427 -1.12074 0
M  V30 236 H 21.5514 3.14704 -2.32545 0
M  V30 237 H 21.1744 3.89802 -0.7836 0
M  V30 238 N 22.1715 0.800033 1.35784 0
M  V30 239 C 23.4175 0.377901 1.99248 0
M  V30 240 C 23.7505 -1.05052 1.63333 0
M  V30 241 O 23.0255 -1.72768 0.893385 0
M  V30 242 C 23.3085 0.553922 3.55814 0
M  V30 243 C 23.1615 2.0268 4.01548 0
M  V30 244 C 24.4805 -0.0244802 4.40093 0
M  V30 245 H 21.5995 0.138782 0.723815 0
M  V30 246 H 24.2415 1.00835 1.61035 0
M  V30 247 H 22.3915 0.0172398 3.88496 0
M  V30 248 H 24.0635 2.62536 3.79305 0
M  V30 249 H 22.3065 2.5256 3.52698 0
M  V30 250 H 22.9775 2.10087 5.10458 0
M  V30 251 H 25.4535 0.433775 4.13833 0
M  V30 252 H 24.3295 0.128637 5.48749 0
M  V30 253 H 24.5905 -1.11758 4.27741 0
M  V30 254 N 23.6496 -1.47581 0.552962 0
M  V30 255 C 24.5596 -2.33743 -0.200353 0
M  V30 256 C 25.5756 -1.47928 -0.916151 0
M  V30 257 O 26.7516 -1.80865 -0.885993 0
M  V30 258 C 23.8166 -3.24536 -1.21973 0
M  V30 259 C 22.8776 -4.26238 -0.511819 0
M  V30 260 C 22.1106 -5.12693 -1.48263 0
M  V30 261 O 22.3336 -5.01525 -2.71714 0
M  V30 262 O 21.2676 -5.93375 -1.00945 0
M  V30 263 H 25.0936 -2.9945 0.506304 0
M  V30 264 H 22.6786 -1.46071 0.313622 0
M  V30 265 H 24.5606 -3.80631 -1.80827 0
M  V30 266 H 23.2356 -2.61462 -1.90839 0
M  V30 267 H 22.1426 -3.73914 0.117799 0
M  V30 268 H 23.4756 -4.92014 0.135308 0
M  V30 269 N 25.1277 -0.289203 -1.54924 0
M  V30 270 C 26.3767 0.324231 -1.99077 0
M  V30 271 C 26.6897 1.5591 -1.18117 0
M  V30 272 O 27.8957 2.24637 -1.52481 0
M  V30 273 C 26.3517 0.628209 -3.54375 0
M  V30 274 C 25.9597 -0.587647 -4.44129 0
M  V30 275 C 27.7037 1.20349 -4.07083 0
M  V30 276 C 25.6107 -0.257475 -5.90839 0
M  V30 277 H 24.5407 0.124924 -0.743579 0
M  V30 278 H 27.1917 -0.396063 -1.79175 0
M  V30 279 H 25.5737 1.40778 -3.70132 0
M  V30 280 H 26.7477 -1.36418 -4.40144 0
M  V30 281 H 25.0627 -1.08074 -4.0213 0
M  V30 282 H 27.6597 1.46456 -5.14252 0
M  V30 283 H 28.0027 2.14195 -3.56968 0
M  V30 284 H 28.5357 0.485889 -3.94821 0
M  V30 285 H 25.2747 -1.16419 -6.45079 0
M  V30 286 H 24.7947 0.482018 -5.9786 0
M  V30 287 H 26.4737 0.145238 -6.46837 0
M  V30 288 N 26.6058 1.57591 -0.0167156 0
M  V30 289 C 27.8548 1.90461 0.663877 0
M  V30 290 C 28.1678 0.893515 1.73999 0
M  V30 291 O 29.3738 1.11302 2.47637 0
M  V30 292 C 27.8298 3.38155 1.23204 0
M  V30 293 C 27.4378 4.47597 0.189866 0
M  V30 294 C 29.1818 3.80111 1.88986 0
M  V30 295 C 27.0888 5.86379 0.768964 0
M  V30 296 H 26.0188 0.710738 0.251729 0
M  V30 297 H 28.6698 1.83326 -0.0799926 0
M  V30 298 H 27.0518 3.40182 2.02712 0
M  V30 299 H 28.2258 4.57112 -0.581846 0
M  V30 300 H 26.5408 4.14766 -0.368475 0
M  V30 301 H 29.1378 4.81145 2.33247 0
M  V30 302 H 29.4808 3.14511 2.72743 0
M  V30 303 H 30.0138 3.80454 1.16187 0
M  V30 304 H 26.7528 6.55493 -0.0301957 0
M  V30 305 H 26.2728 5.80496 1.50945 0
M  V30 306 H 27.9518 6.34563 1.26251 0
M  V30 307 N 28.0839 -0.256276 1.55502 0
M  V30 308 C 29.0469 -1.30047 1.88734 0
M  V30 309 C 30.0469 -1.4154 0.763086 0
M  V30 310 O 31.2369 -1.40403 1.03115 0
M  V30 311 C 28.3689 -2.67953 2.10747 0
M  V30 312 H 29.5619 -1.01802 2.82093 0
M  V30 313 H 27.1149 -0.495134 1.4825 0
M  V30 314 H 27.8499 -3.01351 1.19825 0
M  V30 315 H 27.6349 -2.60993 2.92617 0
M  V30 316 H 29.1249 -3.43368 2.37673 0
M  V30 317 N 29.562 -1.4872 -0.521534 0
M  V30 318 C 30.978 -1.35028 -0.850855 0
M  V30 319 C 31.178 -0.367712 -1.98116 0
M  V30 320 O 30.234 0.208037 -2.51642 0
M  V30 321 C 31.547 -2.75263 -1.21041 0
M  V30 322 C 33.095 -2.83813 -1.31981 0
M  V30 323 C 33.57 -4.24769 -1.71276 0
M  V30 324 N 35.061 -4.27482 -1.78363 0
M  V30 325 C 35.796 -5.33494 -2.1017 0
M  V30 326 N 35.292 -6.49775 -2.40343 0
M  V30 327 N 37.085 -5.20894 -2.11248 0
M  V30 328 H 29.236 -2.11214 0.22413 0
M  V30 329 H 31.499 -0.947252 0.0376439 0
M  V30 330 H 31.205 -3.48765 -0.453415 0
M  V30 331 H 31.079 -3.09327 -2.15863 0
M  V30 332 H 33.466 -2.10561 -2.06756 0
M  V30 333 H 33.547 -2.53358 -0.352596 0
M  V30 334 H 33.191 -4.9854 -0.970588 0
M  V30 335 H 33.121 -4.52673 -2.69062 0
M  V30 336 H 35.612 -3.43611 -1.57288 0
M  V30 337 H 35.925 -7.26402 -2.63743 0
M  V30 338 H 34.27 -6.53035 -2.37844 0
M  V30 339 H 37.461 -4.29065 -1.87139 0
M  V30 340 H 37.634 -6.03612 -2.35704 0
M  V30 341 N 31.0401 0.771051 -1.3745 0
M  V30 342 C 31.9501 1.91538 -1.35464 0
M  V30 343 C 32.9661 1.72134 -0.254123 0
M  V30 344 O 34.1421 1.95358 -0.489626 0
M  V30 345 C 31.2071 3.26671 -1.16134 0
M  V30 346 C 30.2681 3.58723 -2.35831 0
M  V30 347 C 29.5011 4.87409 -2.17413 0
M  V30 348 O 29.7241 5.58506 -1.15876 0
M  V30 349 O 28.6581 5.18539 -3.05615 0
M  V30 350 H 32.4841 1.96165 -2.31847 0
M  V30 351 H 30.0691 0.9139 -1.18187 0
M  V30 352 H 31.9511 4.07499 -1.07345 0
M  V30 353 H 30.6261 3.22894 -0.228251 0
M  V30 354 H 29.5331 2.78127 -2.50192 0
M  V30 355 H 30.8661 3.67243 -3.27709 0
M  V30 356 N 32.5182 1.22032 0.997298 0
M  V30 357 C 33.7462 1.06841 1.7718 0
M  V30 358 C 34.1612 -0.381325 1.84909 0
M  V30 359 O 33.5182 -1.26437 1.31605 0
M  V30 360 C 33.5692 1.66814 3.20711 0
M  V30 361 O 33.2902 3.06116 3.13408 0
M  V30 362 C 34.7912 1.56838 4.14628 0
M  V30 363 H 32.0112 0.374782 0.556578 0
M  V30 364 H 34.5552 1.61532 1.2541 0
M  V30 365 H 32.7102 1.16196 3.69564 0
M  V30 366 H 33.1242 3.34926 4.0364 0
M  V30 367 H 34.5982 2.03532 5.13107 0
M  V30 368 H 35.0752 0.524155 4.36061 0
M  V30 369 H 35.6812 2.06741 3.7167 0
M  V30 370 N 33.9963 -1.19345 1.0293 0
M  V30 371 C 34.9263 -2.2481 0.631105 0
M  V30 372 C 35.9073 -1.66245 -0.360104 0
M  V30 373 O 37.0923 -1.92677 -0.242726 0
M  V30 374 C 34.2223 -3.47295 -0.0184607 0
M  V30 375 C 33.1763 -4.18536 0.895073 0
M  V30 376 C 32.5023 -5.34586 0.110592 0
M  V30 377 C 33.8023 -4.73287 2.209 0
M  V30 378 H 35.4963 -2.58372 1.51275 0
M  V30 379 H 33.0423 -1.24194 0.728818 0
M  V30 380 H 34.9953 -4.20268 -0.308675 0
M  V30 381 H 33.7193 -3.12933 -0.934907 0
M  V30 382 H 32.3783 -3.47446 1.16949 0
M  V30 383 H 32.0263 -4.96469 -0.807902 0
M  V30 384 H 31.7263 -5.83183 0.719087 0
M  V30 385 H 33.2503 -6.10355 -0.172871 0
M  V30 386 H 34.6643 -5.38013 1.98028 0
M  V30 387 H 33.0613 -5.32373 2.76946 0
M  V30 388 H 34.1313 -3.91331 2.86336 0
M  V30 389 N 35.4744 -0.807222 -1.35358 0
M  V30 390 C 36.7044 -0.399796 -2.02695 0
M  V30 391 C 37.1124 0.994176 -1.60974 0
M  V30 392 O 36.4554 1.65209 -0.803226 0
M  V30 393 C 36.5174 -0.404445 -3.57218 0
M  V30 394 C 36.1814 -1.74904 -4.22206 0
M  V30 395 C 37.1784 -2.70743 -4.4384 0
M  V30 396 C 34.8634 -2.03322 -4.5931 0
M  V30 397 C 36.8574 -3.93183 -5.01683 0
M  V30 398 C 34.5444 -3.26026 -5.16866 0
M  V30 399 C 35.5424 -4.20774 -5.37994 0
M  V30 400 O 35.2304 -5.41312 -5.94337 0
M  V30 401 H 34.9624 -0.160517 -0.656666 0
M  V30 402 H 37.5164 -1.09235 -1.73945 0
M  V30 403 H 35.7464 0.344707 -3.85161 0
M  V30 404 H 37.4354 -0.0192429 -4.05895 0
M  V30 405 H 38.2014 -2.5008 -4.15554 0
M  V30 406 H 34.0804 -1.30384 -4.42178 0
M  V30 407 H 37.6244 -4.6715 -5.1809 0
M  V30 408 H 33.5214 -3.46559 -5.44579 0
M  V30 409 H 34.2894 -5.42618 -6.12787 0
M  V30 410 N 36.9525 1.47285 -0.560781 0
M  V30 411 C 38.3685 1.58065 -0.22081 0
M  V30 412 C 38.5685 1.55892 1.27671 0
M  V30 413 O 37.6245 1.46422 2.0571 0
M  V30 414 C 38.9375 2.88418 -0.850625 0
M  V30 415 C 40.4855 3.02009 -0.822184 0
M  V30 416 C 40.9605 4.35066 -1.43113 0
M  V30 417 N 42.4515 4.41711 -1.39448 0
M  V30 418 C 43.1865 5.43237 -1.83525 0
M  V30 419 N 42.6825 6.51555 -2.35474 0
M  V30 420 N 44.4755 5.34304 -1.74574 0
M  V30 421 H 36.6265 1.46941 -1.53369 0
M  V30 422 H 38.8895 0.699558 -0.639783 0
M  V30 423 H 38.5955 2.95755 -1.9032 0
M  V30 424 H 38.4695 3.75612 -0.345773 0
M  V30 425 H 40.8565 2.94266 0.221714 0
M  V30 426 H 40.9375 2.16347 -1.36483 0
M  V30 427 H 40.5815 4.43565 -2.47412 0
M  V30 428 H 40.5115 5.19465 -0.863899 0
M  V30 429 H 43.0025 3.64027 -1.01452 0
M  V30 430 H 43.3155 7.25203 -2.67021 0
M  V30 431 H 41.6605 6.52435 -2.39487 0
M  V30 432 H 44.8515 4.48581 -1.33763 0
M  V30 433 H 45.0245 6.13288 -2.09242 0
M  V30 434 N 38.4306 0.297415 1.54768 0
M  V30 435 C 39.6786 -0.312295 1.99673 0
M  V30 436 C 39.9996 -1.54686 1.18732 0
M  V30 437 O 39.2696 -1.93854 0.282382 0
M  V30 438 H 37.8496 -0.118381 0.73756 0
M  V30 439 H 40.5116 0.407915 1.90583 0
M  V30 440 H 39.6076 -0.586813 3.06534 0
M  V30 441 N 39.9087 -1.5758 0.0250728 0
M  V30 442 C 41.1557 -1.91633 -0.654444 0
M  V30 443 C 41.4837 -0.901103 -1.72367 0
M  V30 444 O 40.7387 0.0905647 -1.9549 0
M  V30 445 C 41.0377 -3.32421 -1.31268 0
M  V30 446 C 40.7037 -4.49344 -0.374223 0
M  V30 447 C 39.3657 -4.8106 -0.115911 0
M  V30 448 C 41.7177 -5.20498 0.270432 0
M  V30 449 C 39.0457 -5.8129 0.79493 0
M  V30 450 C 41.3977 -6.21699 1.1693 0
M  V30 451 C 40.0617 -6.51859 1.43655 0
M  V30 452 H 39.3317 -0.701236 -0.239478 0
M  V30 453 H 41.9787 -1.91307 0.0859734 0
M  V30 454 H 40.2837 -3.28989 -2.12775 0
M  V30 455 H 41.9807 -3.56038 -1.84494 0
M  V30 456 H 38.5707 -4.24579 -0.58573 0
M  V30 457 H 42.7547 -4.96229 0.0839194 0
M  V30 458 H 38.0107 -6.03005 1.00973 0
M  V30 459 H 42.1847 -6.75955 1.67504 0
M  V30 460 H 39.8117 -7.2934 2.144 0
M  V30 461 N 41.3868 0.248026 -1.55636 0
M  V30 462 C 42.6338 0.976224 -1.77415 0
M  V30 463 C 42.9618 1.85361 -0.589193 0
M  V30 464 O 42.2168 1.90973 0.427529 0
M  V30 465 C 42.5158 1.86819 -3.04686 0
M  V30 466 C 42.1818 1.14625 -4.36087 0
M  V30 467 C 40.8438 0.946723 -4.71795 0
M  V30 468 C 43.1958 0.634463 -5.17324 0
M  V30 469 C 40.5238 0.223091 -5.86276 0
M  V30 470 C 42.8758 -0.0756959 -6.32555 0
M  V30 471 C 41.5398 -0.286711 -6.66884 0
M  V30 472 H 40.8098 0.357226 -0.649208 0
M  V30 473 H 43.4568 0.246415 -1.89908 0
M  V30 474 H 41.7618 2.66502 -2.872 0
M  V30 475 H 43.4588 2.43329 -3.18735 0
M  V30 476 H 40.0488 1.3117 -4.08035 0
M  V30 477 H 44.2328 0.77616 -4.90193 0
M  V30 478 H 39.4888 0.0491185 -6.1138 0
M  V30 479 H 43.6628 -0.479899 -6.94745 0
M  V30 480 H 41.2898 -0.849389 -7.5544 0
M  V30 481 N 42.8649 1.48995 0.513639 0
M  V30 482 C 44.0899 1.61792 1.29762 0
M  V30 483 C 44.5149 0.284475 1.85936 0
M  V30 484 O 43.8729 -0.746185 1.65232 0
M  V30 485 C 43.9209 2.67993 2.41272 0
M  V30 486 O 43.0249 2.26287 3.44772 0
M  V30 487 H 42.3659 0.541963 0.38363 0
M  V30 488 H 44.8959 1.95097 0.616307 0
M  V30 489 H 44.9059 2.89772 2.87221 0
M  V30 490 H 43.5809 3.64791 1.9975 0
M  V30 491 H 42.1579 2.14788 3.04829 0
M  V30 492 N 44.343 -0.763751 1.37857 0
M  V30 493 C 45.273 -1.89103 1.36975 0
M  V30 494 C 46.254 -1.68439 0.237152 0
M  V30 495 O 47.439 -1.8918 0.438713 0
M  V30 496 C 44.569 -3.26496 1.18395 0
M  V30 497 C 43.523 -3.61741 2.28751 0
M  V30 498 C 42.849 -4.97762 1.95286 0
M  V30 499 C 44.149 -3.67665 3.70972 0
M  V30 500 H 45.843 -1.90099 2.31307 0
M  V30 501 H 43.389 -0.91319 1.11341 0
M  V30 502 H 45.342 -4.05003 1.16406 0
M  V30 503 H 44.066 -3.25955 0.205215 0
M  V30 504 H 42.725 -2.85547 2.29909 0
M  V30 505 H 42.373 -4.93769 0.959221 0
M  V30 506 H 42.073 -5.22313 2.69189 0
M  V30 507 H 43.597 -5.7866 1.94898 0
M  V30 508 H 45.011 -4.36307 3.719 0
M  V30 509 H 43.408 -4.03718 4.43995 0
M  V30 510 H 44.478 -2.68134 4.0402 0
M  V30 511 N 45.8211 -1.22559 -0.990812 0
M  V30 512 C 47.0981 -0.959875 -1.70428 0
M  V30 513 C 47.4781 0.524455 -2.04481 0
M  V30 514 O 46.8261 1.49302 -1.72977 0
M  V30 515 C 47.0361 -1.85955 -2.95333 0
M  V30 516 C 48.3841 -2.11687 -3.68068 0
M  V30 517 O 49.4081 -1.8342 -3.05345 0
M  V30 518 O 48.2671 -2.59572 -4.80921 0
M  V30 519 H 45.3611 -0.361154 -0.743974 0
M  V30 520 H 47.9071 -1.33554 -1.04697 0
M  V30 521 H 46.6791 -2.86346 -2.66687 0
M  V30 522 H 46.3021 -1.4856 -3.68803 0
M  V30 523 N 47.2992 1.18797 -1.03562 0
M  V30 524 C 48.2292 2.24472 -0.643019 0
M  V30 525 C 49.2102 1.66433 0.351283 0
M  V30 526 O 50.3952 1.92803 0.232505 0
M  V30 527 C 47.5252 3.473 4.24935e-05 0
M  V30 528 C 46.4792 4.18055 -0.917257 0
M  V30 529 C 45.8052 5.34519 -0.138941 0
M  V30 530 C 47.1052 4.72109 -2.23407 0
M  V30 531 H 48.7992 2.57566 -1.52643 0
M  V30 532 H 46.3452 1.23806 -0.735394 0
M  V30 533 H 48.2982 4.20426 0.286383 0
M  V30 534 H 47.0222 3.13424 0.918299 0
M  V30 535 H 45.6812 3.46821 -1.1879 0
M  V30 536 H 45.3292 4.96891 0.781562 0
M  V30 537 H 45.0292 5.82794 -0.750005 0
M  V30 538 H 46.5532 6.10438 0.1405 0
M  V30 539 H 47.9672 5.36955 -2.00879 0
M  V30 540 H 46.3642 5.30897 -2.79765 0
M  V30 541 H 47.4342 3.89807 -2.88407 0
M  V30 542 N 48.7773 0.814389 1.34928 0
M  V30 543 C 50.0073 0.41054 2.0248 0
M  V30 544 C 50.4153 -0.985625 1.61499 0
M  V30 545 O 49.7583 -1.64781 0.811976 0
M  V30 546 C 49.8203 0.423384 3.56998 0
M  V30 547 C 49.4843 1.77141 4.21272 0
M  V30 548 C 50.4813 2.73093 4.42398 0
M  V30 549 C 48.1663 2.05755 4.58225 0
M  V30 550 C 50.1603 3.95838 4.9959 0
M  V30 551 C 47.8473 3.28762 5.1513 0
M  V30 552 C 48.8453 4.23621 5.35755 0
M  V30 553 O 48.5333 5.44456 5.91458 0
M  V30 554 H 48.2653 0.163997 0.655806 0
M  V30 555 H 50.8193 1.10155 1.73364 0
M  V30 556 H 49.0493 -0.324276 3.85338 0
M  V30 557 H 50.7383 0.0407683 4.0588 0
M  V30 558 H 51.5043 2.5228 4.14222 0
M  V30 559 H 47.3833 1.32727 4.4148 0
M  V30 560 H 50.9273 4.69891 5.15605 0
M  V30 561 H 46.8243 3.49443 5.42734 0
M  V30 562 H 47.5923 5.4586 6.09901 0
M  V30 563 N 50.2554 -1.46986 0.568584 0
M  V30 564 C 51.6714 -1.57946 0.229189 0
M  V30 565 C 51.8714 -1.56567 -1.26843 0
M  V30 566 O 50.9274 -1.47511 -2.04931 0
M  V30 567 C 52.2404 -2.87963 0.865909 0
M  V30 568 C 53.7884 -3.01568 0.838188 0
M  V30 569 C 54.2634 -4.34301 1.45419 0
M  V30 570 N 55.7544 -4.40965 1.41788 0
M  V30 571 C 56.4894 -5.42256 1.86403 0
M  V30 572 N 55.9854 -6.50297 2.38926 0
M  V30 573 N 57.7784 -5.3337 1.77405 0
M  V30 574 H 49.9294 -1.46126 1.54146 0
M  V30 575 H 52.1924 -0.696156 0.643484 0
M  V30 576 H 51.8984 -2.94742 1.91886 0
M  V30 577 H 51.7724 -3.75423 0.365687 0
M  V30 578 H 54.1594 -2.94379 -0.206106 0
M  V30 579 H 54.2404 -2.1562 1.37629 0
M  V30 580 H 53.8844 -4.42247 2.49761 0
M  V30 581 H 53.8144 -5.19 0.891435 0
M  V30 582 H 56.3054 -3.63484 1.03381 0
M  V30 583 H 56.6184 -7.23777 2.70863 0
M  V30 584 H 54.9634 -6.51155 2.42944 0
M  V30 585 H 58.1544 -4.47865 1.3614 0
M  V30 586 H 58.3274 -6.12169 2.12492 0
M  V30 587 N 51.7335 -0.305618 -1.54608 0
M  V30 588 C 52.9805 0.302298 -2.00231 0
M  V30 589 C 53.3085 1.5354 -1.19398 0
M  V30 590 O 52.5635 1.93973 -0.259423 0
M  V30 591 C 52.8625 0.698983 -3.50498 0
M  V30 592 C 52.5285 -0.432903 -4.48817 0
M  V30 593 C 51.1905 -0.743622 -4.75419 0
M  V30 594 C 53.5425 -1.19409 -5.07337 0
M  V30 595 C 50.8705 -1.81857 -5.57804 0
M  V30 596 C 53.2225 -2.25899 -5.90891 0
M  V30 597 C 51.8865 -2.57572 -6.15803 0
M  V30 598 H 51.1565 0.110619 -0.732697 0
M  V30 599 H 53.8035 -0.425674 -1.86709 0
M  V30 600 H 52.1085 1.50711 -3.61654 0
M  V30 601 H 53.8055 1.1806 -3.83227 0
M  V30 602 H 50.3955 -0.18063 -4.28219 0
M  V30 603 H 54.5795 -0.967295 -4.86782 0
M  V30 604 H 49.8355 -2.06864 -5.75341 0
M  V30 605 H 54.0095 -2.85335 -6.35261 0
M  V30 606 H 51.6365 -3.40998 -6.7943 0
M  V30 607 N 53.2116 1.57565 -0.0334293 0
M  V30 608 C 54.6276 1.56297 0.322997 0
M  V30 609 C 54.8276 1.03945 1.7262 0
M  V30 610 O 53.8836 0.688109 2.42943 0
M  V30 611 C 55.1966 3.00232 0.167664 0
M  V30 612 C 56.7446 3.12078 0.240107 0
M  V30 613 C 57.2196 4.57859 0.113513 0
M  V30 614 N 58.7106 4.62887 0.170359 0
M  V30 615 C 59.4456 5.73319 0.0962517 0
M  V30 616 N 58.9416 6.92794 -0.0291881 0
M  V30 617 N 60.7346 5.61898 0.150551 0
M  V30 618 H 52.8856 1.89923 -0.950956 0
M  V30 619 H 55.1486 0.873824 -0.367608 0
M  V30 620 H 54.8546 3.42501 -0.799102 0
M  V30 621 H 54.7286 3.654 0.936083 0
M  V30 622 H 57.1156 2.69718 1.19733 0
M  V30 623 H 57.1966 2.49623 -0.558763 0
M  V30 624 H 56.8406 5.009 -0.840314 0
M  V30 625 H 56.7706 5.18299 0.931302 0
M  V30 626 H 59.2616 3.76954 0.26728 0
M  V30 627 H 59.5746 7.7276 -0.0789252 0
M  V30 628 H 57.9196 6.94971 -0.0640299 0
M  V30 629 H 61.1106 4.67448 0.246981 0
M  V30 630 H 61.2836 6.47938 0.0893365 0
M  V30 631 N 54.6897 -0.239769 1.55765 0
M  V30 632 C 55.6397 -1.30002 1.87306 0
M  V30 633 C 56.6237 -1.43156 0.73452 0
M  V30 634 O 57.8157 -1.46277 0.99659 0
M  V30 635 C 54.9447 -2.65409 2.17745 0
M  V30 636 C 54.0307 -2.56231 3.37945 0
M  V30 637 N 54.4217 -2.16689 4.57033 0
M  V30 638 C 52.7197 -2.87229 3.41197 0
M  V30 639 C 53.4207 -2.18318 5.39177 0
M  V30 640 N 52.3967 -2.58098 4.78421 0
M  V30 641 H 56.1987 -0.984912 2.76906 0
M  V30 642 H 53.7127 -0.448381 1.56087 0
M  V30 643 H 55.7097 -3.41934 2.38509 0
M  V30 644 H 54.3697 -2.97781 1.29448 0
M  V30 645 H 55.3807 -1.88116 4.82528 0
M  V30 646 H 52.0577 -3.24094 2.63191 0
M  V30 647 H 53.4477 -1.90025 6.44469 0
M  V30 648 N 56.1678 -1.49265 -0.50573 0
M  V30 649 C 57.5838 -1.35923 -0.836486 0
M  V30 650 C 57.7838 -0.388704 -1.97715 0
M  V30 651 O 56.8398 0.181336 -2.51848 0
M  V30 652 C 58.1528 -2.76531 -1.18115 0
M  V30 653 C 59.7008 -2.85197 -1.28964 0
M  V30 654 C 60.1758 -4.26561 -1.66761 0
M  V30 655 N 61.6668 -4.2935 -1.73819 0
M  V30 656 C 62.4018 -5.35693 -2.045 0
M  V30 657 N 61.8978 -6.52287 -2.33438 0
M  V30 658 N 63.6908 -5.23105 -2.05711 0
M  V30 659 H 55.8418 -2.10965 0.246519 0
M  V30 660 H 58.1048 -0.9468 0.0476887 0
M  V30 661 H 57.8108 -3.49226 -0.416398 0
M  V30 662 H 57.6848 -3.11599 -2.1257 0
M  V30 663 H 60.0718 -2.12742 -2.04511 0
M  V30 664 H 60.1528 -2.53718 -0.325704 0
M  V30 665 H 59.7968 -4.99541 -0.917656 0
M  V30 666 H 59.7268 -4.55502 -2.64246 0
M  V30 667 H 62.2178 -3.4526 -1.53635 0
M  V30 668 H 62.5308 -7.29158 -2.56024 0
M  V30 669 H 60.8758 -6.55521 -2.30905 0
M  V30 670 H 64.0668 -4.31026 -1.82577 0
M  V30 671 H 64.2398 -6.06078 -2.29289 0
M  V30 672 N 57.6459 0.756429 -1.3826 0
M  V30 673 C 58.5759 1.88374 -1.37976 0
M  V30 674 C 59.5569 1.68311 -0.246082 0
M  V30 675 O 60.7419 1.88944 -0.44874 0
M  V30 676 C 57.8719 3.25864 -1.20125 0
M  V30 677 C 56.8259 3.60523 -2.30666 0
M  V30 678 C 56.1519 4.9672 -1.97923 0
M  V30 679 C 57.4519 3.65692 -3.72916 0
M  V30 680 H 59.1459 1.88869 -2.32312 0
M  V30 681 H 56.6919 0.907272 -1.11824 0
M  V30 682 H 58.6449 4.0438 -1.18552 0
M  V30 683 H 57.3689 3.25841 -0.222498 0
M  V30 684 H 56.0279 2.84324 -2.3142 0
M  V30 685 H 55.6759 4.93253 -0.985393 0
M  V30 686 H 55.3759 5.20878 -2.71955 0
M  V30 687 H 56.8999 5.77618 -1.97964 0
M  V30 688 H 58.3139 4.34328 -3.74208 0
M  V30 689 H 56.7109 4.01358 -4.4613 0
M  V30 690 H 57.7809 2.65987 -4.05436 0
M  V30 691 N 59.124 1.23083 0.984299 0
M  V30 692 C 60.371 1.06057 1.72505 0
M  V30 693 C 60.699 -0.403105 1.90277 0
M  V30 694 O 59.954 -1.3149 1.44944 0
M  V30 695 C 60.253 1.72673 3.1292 0
M  V30 696 C 59.919 3.22586 3.15038 0
M  V30 697 C 58.581 3.63489 3.15324 0
M  V30 698 C 60.933 4.185 3.10657 0
M  V30 699 C 58.261 4.98772 3.08939 0
M  V30 700 C 60.613 5.53769 3.05814 0
M  V30 701 C 59.277 5.94041 3.04419 0
M  V30 702 H 58.547 0.388091 0.631242 0
M  V30 703 H 61.194 1.52963 1.15215 0
M  V30 704 H 59.499 1.18116 3.73572 0
M  V30 705 H 61.196 1.56982 3.68996 0
M  V30 706 H 57.786 2.90022 3.15571 0
M  V30 707 H 61.97 3.87911 3.09579 0
M  V30 708 H 57.226 5.29193 3.0621 0
M  V30 709 H 61.4 6.27808 3.0138 0
M  V30 710 H 59.027 6.98833 2.99227 0
M  V30 711 N 60.6021 -1.18246 1.0419 0
M  V30 712 C 61.5501 -2.23968 0.627792 0
M  V30 713 C 62.5441 -1.65828 -0.346019 0
M  V30 714 O 63.7501 -1.78733 -0.213175 0
M  V30 715 H 60.1251 -0.728939 0.184802 0
M  V30 716 H 62.0961 -2.56202 1.52981 0
M  V30 717 C 60.8451 -3.47699 0.00796591 0
M  V30 718 H 60.1681 -3.92734 0.748347 0
M  V30 719 H 61.6081 -4.23294 -0.24455 0
M  V30 720 C 60.0671 -3.13153 -1.24246 0
M  V30 721 O 60.5971 -3.27003 -2.33307 0
M  V30 722 N 58.8031 -2.67467 -1.13622 0
M  V30 723 H 58.3501 -2.56396 -0.248734 0
M  V30 724 H 58.3081 -2.44724 -1.97377 0
M  V30 725 N 62.0802 -0.821533 -1.34494 0
M  V30 726 C 63.3282 -0.408139 -1.97936 0
M  V30 727 C 63.6492 1.03193 -1.65457 0
M  V30 728 O 62.9192 1.71622 -0.944595 0
M  V30 729 H 61.4992 -0.147928 -0.732206 0
M  V30 730 H 64.1612 -1.05067 -1.64155 0
M  V30 731 H 63.2572 -0.52601 -3.07635 0
M  V30 732 N 63.5583 1.46682 -0.576371 0
M  V30 733 C 64.4903 2.28341 0.198231 0
M  V30 734 C 65.5033 1.38141 0.861453 0
M  V30 735 O 66.6923 1.62797 0.732082 0
M  V30 736 C 63.7923 3.12986 1.29972 0
M  V30 737 C 62.9653 4.31271 0.729639 0
M  V30 738 C 62.0243 4.97363 1.71803 0
M  V30 739 O 61.0503 5.55156 1.25658 0
M  V30 740 N 62.2523 4.93796 3.05198 0
M  V30 741 H 65.0173 2.9546 -0.502324 0
M  V30 742 H 62.5783 1.56525 -0.413715 0
M  V30 743 H 64.5703 3.54066 1.96008 0
M  V30 744 H 63.1403 2.47984 1.90323 0
M  V30 745 H 62.3603 3.94052 -0.108012 0
M  V30 746 H 63.6483 5.07739 0.328438 0
M  V30 747 H 63.0463 4.48077 3.45317 0
M  V30 748 H 61.6033 5.38837 3.6674 0
M  V30 749 N 65.0364 0.313813 1.54444 0
M  V30 750 C 65.9694 -0.598866 2.20202 0
M  V30 751 C 66.9474 -1.12318 1.17573 0
M  V30 752 O 68.1314 -1.18899 1.46271 0
M  V30 753 C 65.2584 -1.82071 2.85601 0
M  V30 754 C 64.3044 -1.42851 4.01865 0
M  V30 755 S 65.1374 -0.473512 5.33402 0
M  V30 756 C 66.2934 -1.70286 6.0229 0
M  V30 757 H 66.5264 -0.0402532 2.97273 0
M  V30 758 H 64.0594 0.0979165 1.54089 0
M  V30 759 H 66.0174 -2.52184 3.23904 0
M  V30 760 H 64.6784 -2.3505 2.08351 0
M  V30 761 H 63.8714 -2.33871 4.46453 0
M  V30 762 H 63.4734 -0.807198 3.65185 0
M  V30 763 H 65.7654 -2.64168 6.23876 0
M  V30 764 H 66.7084 -1.29932 6.96077 0
M  V30 765 H 67.1164 -1.88541 5.32083 0
M  V30 766 N 66.5145 -1.57545 0.0417849 0
M  V30 767 C 67.7395 -1.97035 -0.647455 0
M  V30 768 C 68.1645 -0.918775 -1.64135 0
M  V30 769 O 67.5225 0.119006 -1.80909 0
M  V30 770 C 67.5705 -3.35609 -1.31905 0
M  V30 771 O 66.6745 -3.3287 -2.43457 0
M  V30 772 H 66.0155 -0.64211 -0.169086 0
M  V30 773 H 68.5455 -2.04318 0.107399 0
M  V30 774 H 68.5555 -3.72126 -1.67291 0
M  V30 775 H 67.2305 -4.11685 -0.590586 0
M  V30 776 H 65.8075 -3.08087 -2.10088 0
M  V30 777 N 67.9926 0.231505 -1.5589 0
M  V30 778 C 68.9426 1.29007 -1.87993 0
M  V30 779 C 69.9266 1.42764 -0.742102 0
M  V30 780 O 71.1186 1.45747 -1.00433 0
M  V30 781 C 68.2476 2.6425 -2.1915 0
M  V30 782 C 67.3336 2.54435 -3.39299 0
M  V30 783 N 67.7246 2.14262 -4.58176 0
M  V30 784 C 66.0226 2.85416 -3.42715 0
M  V30 785 C 66.7236 2.15455 -5.40328 0
M  V30 786 N 65.6996 2.55558 -4.79783 0
M  V30 787 H 69.5016 0.970213 -2.77424 0
M  V30 788 H 67.0156 0.440097 -1.56323 0
M  V30 789 H 69.0126 3.40665 -2.40319 0
M  V30 790 H 67.6726 2.9709 -1.31025 0
M  V30 791 H 68.6836 1.85554 -4.83518 0
M  V30 792 H 65.3606 3.22693 -2.64906 0
M  V30 793 H 66.7506 1.86605 -6.45467 0
M  V30 794 N 69.4707 1.49531 0.497807 0
M  V30 795 C 70.3807 1.69176 1.62532 0
M  V30 796 C 71.3967 0.5744 1.64246 0
M  V30 797 O 72.5727 0.849497 1.82608 0
M  V30 798 C 69.6377 1.75695 2.98885 0
M  V30 799 C 68.6987 2.9929 3.07773 0
M  V30 800 C 67.9317 3.05488 4.37622 0
M  V30 801 O 68.1547 2.19192 5.26603 0
M  V30 802 O 67.0887 3.9798 4.51548 0
M  V30 803 H 70.9147 2.647 1.48887 0
M  V30 804 H 68.4997 1.3331 0.674441 0
M  V30 805 H 70.3817 1.82317 3.79919 0
M  V30 806 H 69.0567 0.8335 3.12785 0
M  V30 807 H 67.9637 2.98183 2.25915 0
M  V30 808 H 69.2967 3.91125 2.98801 0
M  V30 809 N 70.9488 -0.749086 1.3866 0
M  V30 810 C 72.1948 -1.51056 1.35314 0
M  V30 811 C 72.5278 -1.94121 -0.0553751 0
M  V30 812 O 71.8028 -1.65763 -1.01749 0
M  V30 813 C 72.0858 -2.76003 2.31288 0
M  V30 814 C 71.9388 -2.39047 3.8102 0
M  V30 815 C 73.2578 -3.78046 2.2532 0
M  V30 816 H 70.3768 -0.547972 0.492844 0
M  V30 817 H 73.0188 -0.857628 1.69543 0
M  V30 818 H 71.1688 -3.31716 2.02229 0
M  V30 819 H 72.8408 -1.89074 4.20771 0
M  V30 820 H 71.0838 -1.71449 3.98482 0
M  V30 821 H 71.7548 -3.28462 4.4364 0
M  V30 822 H 74.2308 -3.31884 2.50983 0
M  V30 823 H 73.1068 -4.63159 2.94576 0
M  V30 824 H 73.3678 -4.23957 1.25352 0
M  V30 825 N 72.4269 -1.23603 -0.977757 0
M  V30 826 C 73.8429 -0.999251 -1.24447 0
M  V30 827 C 74.0429 0.298053 -1.99283 0
M  V30 828 O 73.0989 1.01681 -2.31122 0
M  V30 829 C 74.4119 -2.20784 -2.04144 0
M  V30 830 C 75.9599 -2.25303 -2.17273 0
M  V30 831 C 76.4349 -3.45755 -3.00362 0
M  V30 832 N 77.9259 -3.4601 -3.07947 0
M  V30 833 C 78.6609 -4.35868 -3.72568 0
M  V30 834 N 78.1569 -5.35966 -4.38991 0
M  V30 835 N 79.9499 -4.23605 -3.6948 0
M  V30 836 H 72.1009 -2.06986 -0.476483 0
M  V30 837 H 74.3639 -0.907801 -0.273134 0
M  V30 838 H 74.0699 -3.14945 -1.56533 0
M  V30 839 H 73.9439 -2.22085 -3.04891 0
M  V30 840 H 76.3309 -1.3168 -2.64092 0
M  V30 841 H 76.4119 -2.28033 -1.15907 0
M  V30 842 H 76.0559 -4.39687 -2.5424 0
M  V30 843 H 75.9859 -3.40266 -4.01904 0
M  V30 844 H 78.4769 -2.73588 -2.60688 0
M  V30 845 H 78.7899 -6.00783 -4.86086 0
M  V30 846 H 77.1349 -5.39863 -4.37691 0
M  V30 847 H 80.3259 -3.44647 -3.16759 0
M  V30 848 H 80.4989 -4.93836 -4.1956 0
M  V30 849 N 73.905 1.17692 -1.04816 0
M  V30 850 C 75.321 1.39863 -0.768794 0
M  V30 851 C 75.521 1.91118 0.638451 0
M  V30 852 O 74.577 2.10036 1.40146 0
M  V30 853 C 75.89 2.39274 -1.82122 0
M  V30 854 C 77.438 2.52987 -1.843 0
M  V30 855 C 77.913 3.55669 -2.88555 0
M  V30 856 N 79.404 3.63183 -2.87493 0
M  V30 857 C 80.139 4.42381 -3.64811 0
M  V30 858 N 79.635 5.25125 -4.51903 0
M  V30 859 N 81.428 4.37217 -3.53267 0
M  V30 860 H 73.579 0.82752 -1.95617 0
M  V30 861 H 75.842 0.426123 -0.846831 0
M  V30 862 H 75.548 2.08678 -2.83102 0
M  V30 863 H 75.422 3.38725 -1.65967 0
M  V30 864 H 77.809 2.82896 -0.839869 0
M  V30 865 H 77.89 1.53623 -2.04532 0
M  V30 866 H 77.534 3.26499 -3.89051 0
M  V30 867 H 77.464 4.54728 -2.65575 0
M  V30 868 H 79.955 3.04103 -2.24343 0
M  V30 869 H 80.268 5.82728 -5.07591 0
M  V30 870 H 78.613 5.24519 -4.55966 0
M  V30 871 H 81.804 3.71626 -2.84625 0
M  V30 872 H 81.977 4.98696 -4.13771 0
M  V30 873 N 75.3831 0.828654 1.34056 0
M  V30 874 C 76.2931 0.256725 2.33191 0
M  V30 875 C 77.3091 -0.611898 1.62886 0
M  V30 876 O 78.4851 -0.51844 1.94613 0
M  V30 877 C 75.5501 -0.567238 3.42028 0
M  V30 878 C 74.6111 0.324458 4.28072 0
M  V30 879 C 73.8441 -0.460274 5.31712 0
M  V30 880 O 74.0671 -1.693 5.44696 0
M  V30 881 O 73.0011 0.160391 6.01686 0
M  V30 882 H 76.8271 1.07739 2.83947 0
M  V30 883 H 74.4121 0.59093 1.37217 0
M  V30 884 H 76.2941 -1.03582 4.08471 0
M  V30 885 H 74.9691 -1.36513 2.93506 0
M  V30 886 H 73.8761 0.840659 3.64532 0
M  V30 887 H 75.2091 1.08685 4.8005 0
M  V30 888 N 76.8612 -1.46375 0.584142 0
M  V30 889 C 78.1102 -2.01585 0.0679741 0
M  V30 890 C 78.4232 -1.46109 -1.30045 0
M  V30 891 O 79.6292 -1.93148 -1.90804 0
M  V30 892 C 78.0852 -3.5983 0.0709207 0
M  V30 893 C 77.6932 -4.24303 1.43775 0
M  V30 894 C 79.4372 -4.22693 -0.391228 0
M  V30 895 C 77.3442 -5.74631 1.39834 0
M  V30 896 H 76.2742 -0.753689 0.0216421 0
M  V30 897 H 78.9252 -1.68093 0.736001 0
M  V30 898 H 77.3072 -3.90405 -0.663299 0
M  V30 899 H 78.4812 -4.05335 2.19181 0
M  V30 900 H 76.7962 -3.73539 1.84004 0
M  V30 901 H 79.3932 -5.3289 -0.439524 0
M  V30 902 H 79.7362 -3.91728 -1.40906 0
M  V30 903 H 80.2692 -3.96749 0.288974 0
M  V30 904 H 77.0082 -6.10258 2.39303 0
M  V30 905 H 76.5282 -5.95858 0.686505 0
M  V30 906 H 78.2072 -6.37375 1.11187 0
M  V30 907 N 78.3393 -0.321999 -1.54275 0
M  V30 908 C 79.5863 0.281044 -2.0054 0
M  V30 909 C 79.9143 1.52265 -1.21019 0
M  V30 910 O 79.1693 1.93687 -0.279982 0
M  V30 911 C 79.4683 0.661769 -3.5122 0
M  V30 912 C 79.1343 -0.480482 -4.48333 0
M  V30 913 C 77.7963 -0.794005 -4.74604 0
M  V30 914 C 80.1483 -1.24783 -5.06042 0
M  V30 915 C 77.4763 -1.87763 -5.55844 0
M  V30 916 C 79.8283 -2.32153 -5.88462 0
M  V30 917 C 78.4923 -2.64089 -6.13036 0
M  V30 918 H 77.7623 0.102841 -0.733829 0
M  V30 919 H 80.4093 -0.445453 -1.86247 0
M  V30 920 H 78.7143 1.46867 -3.63232 0
M  V30 921 H 80.4113 1.13989 -3.84457 0
M  V30 922 H 77.0013 -0.226039 -4.28004 0
M  V30 923 H 81.1853 -1.01887 -4.85729 0
M  V30 924 H 76.4413 -2.12954 -5.73115 0
M  V30 925 H 80.6153 -2.92057 -6.32199 0
M  V30 926 H 78.2423 -3.48185 -6.75775 0
M  V30 927 N 79.8174 1.5752 -0.0501392 0
M  V30 928 C 80.7274 2.14952 0.939827 0
M  V30 929 C 81.7434 1.10706 1.34239 0
M  V30 930 O 82.9194 1.42869 1.41952 0
M  V30 931 C 79.9844 2.68232 2.19665 0
M  V30 932 C 79.0454 3.87272 1.85253 0
M  V30 933 C 78.2784 4.38002 3.04943 0
M  V30 934 O 78.5014 3.87811 4.18281 0
M  V30 935 O 77.4354 5.29602 2.86017 0
M  V30 936 H 81.2614 2.9986 0.481392 0
M  V30 937 H 78.8464 1.4841 0.171699 0
M  V30 938 H 80.7284 3.02475 2.93406 0
M  V30 939 H 79.4034 1.86395 2.64648 0
M  V30 940 H 78.3104 3.5792 1.0883 0
M  V30 941 H 79.6434 4.70336 1.4507 0
M  V30 942 N 81.2955 -0.223234 1.56011 0
M  V30 943 C 82.7115 -0.572856 1.48965 0
M  V30 944 C 82.9115 -1.87225 0.74492 0
M  V30 945 O 81.9675 -2.50899 0.283896 0
M  V30 946 C 83.2805 -0.653646 2.9351 0
M  V30 947 C 84.8285 -0.744386 3.0402 0
M  V30 948 C 85.3035 -0.856535 4.49919 0
M  V30 949 N 86.7945 -0.9208 4.53955 0
M  V30 950 C 87.5295 -1.02726 5.64123 0
M  V30 951 N 87.0255 -1.09777 6.84047 0
M  V30 952 N 88.8185 -1.06226 5.51971 0
M  V30 953 H 80.9695 0.629462 2.02858 0
M  V30 954 H 83.2325 0.220621 0.921971 0
M  V30 955 H 82.9385 0.231518 3.50937 0
M  V30 956 H 82.8125 -1.51781 3.45315 0
M  V30 957 H 85.1995 -1.61999 2.46658 0
M  V30 958 H 85.2805 0.14541 2.55386 0
M  V30 959 H 84.9245 0.0146069 5.07898 0
M  V30 960 H 84.8545 -1.76172 4.96257 0
M  V30 961 H 87.3455 -0.876694 3.6759 0
M  V30 962 H 87.6585 -1.17872 7.63758 0
M  V30 963 H 86.0035 -1.06693 6.86762 0
M  V30 964 H 89.1945 -1.00382 4.5721 0
M  V30 965 H 89.3675 -1.14177 6.37862 0
M  V30 966 N 82.7736 -1.49793 -0.48987 0
M  V30 967 C 84.0216 -1.59525 -1.24081 0
M  V30 968 C 84.3426 -0.288953 -1.92847 0
M  V30 969 O 83.6126 0.692436 -1.83254 0
M  V30 970 H 82.1926 -0.587796 -0.460983 0
M  V30 971 H 84.8546 -1.86477 -0.566778 0
M  V30 972 H 83.9506 -2.39696 -1.99881 0
M  V30 973 N 84.2517 0.741722 -1.39055 0
M  V30 974 C 85.2017 1.84661 -1.33732 0
M  V30 975 C 86.1857 1.59397 -0.219401 0
M  V30 976 O 87.3777 1.71015 -0.456375 0
M  V30 977 C 84.5067 3.22512 -1.17647 0
M  V30 978 C 83.5927 3.53628 -2.34112 0
M  V30 979 N 83.9837 3.55723 -3.59576 0
M  V30 980 C 82.2817 3.83956 -2.26923 0
M  V30 981 C 82.9827 3.84443 -4.36553 0
M  V30 982 N 81.9587 4.01877 -3.66055 0
M  V30 983 H 85.7607 1.84576 -2.28711 0
M  V30 984 H 83.2747 0.939647 -1.32455 0
M  V30 985 H 85.2717 4.01597 -1.11917 0
M  V30 986 H 83.9317 3.2384 -0.236124 0
M  V30 987 H 84.9427 3.37196 -3.93089 0
M  V30 988 H 81.6197 3.92929 -1.41113 0
M  V30 989 H 83.0097 3.92588 -5.45274 0
M  V30 990 N 85.7298 1.2412 0.971189 0
M  V30 991 C 86.6928 1.03156 2.04674 0
M  V30 992 C 87.6928 -0.00990322 1.60797 0
M  V30 993 O 88.8828 0.230729 1.72665 0
M  V30 994 C 86.0148 0.562765 3.36223 0
M  V30 995 H 87.2078 1.98614 2.24705 0
M  V30 996 H 84.7608 1.06293 1.14593 0
M  V30 997 H 85.4958 -0.395176 3.21883 0
M  V30 998 H 85.2808 1.31441 3.69413 0
M  V30 999 H 86.7708 0.437015 4.15307 0
M  V30 1000 N 87.2079 -1.17134 1.05439 0
M  V30 1001 C 88.1709 -2.19439 0.661764 0
M  V30 1002 C 89.1709 -1.58199 -0.288042 0
M  V30 1003 O 90.3609 -1.74053 -0.0715803 0
M  V30 1004 C 87.4929 -3.40889 -0.0276209 0
M  V30 1005 H 88.6859 -2.55688 1.56728 0
M  V30 1006 H 86.2389 -1.31259 0.848567 0
M  V30 1007 H 86.9739 -3.10187 -0.94629 0
M  V30 1008 H 86.7589 -3.86586 0.655238 0
M  V30 1009 H 88.2489 -4.16603 -0.288342 0
M  V30 1010 N 88.686 -0.835752 -1.33615 0
M  V30 1011 C 89.932 -0.430596 -1.98176 0
M  V30 1012 C 90.265 1.00684 -1.66061 0
M  V30 1013 O 89.54 1.70339 -0.938877 0
M  V30 1014 C 89.823 -0.648065 -3.5422 0
M  V30 1015 C 89.676 -2.13255 -3.96033 0
M  V30 1016 C 90.995 -0.0922113 -4.40003 0
M  V30 1017 H 88.114 -0.157924 -0.719881 0
M  V30 1018 H 90.756 -1.05069 -1.58305 0
M  V30 1019 H 88.906 -0.120237 -3.88314 0
M  V30 1020 H 90.578 -2.725 -3.72211 0
M  V30 1021 H 88.821 -2.61823 -3.45878 0
M  V30 1022 H 89.492 -2.23547 -5.04708 0
M  V30 1023 H 91.968 -0.543343 -4.12537 0
M  V30 1024 H 90.844 -0.274083 -5.48215 0
M  V30 1025 H 91.105 1.00378 -4.30554 0
M  V30 1026 N 90.1641 1.46063 -0.591896 0
M  V30 1027 C 91.0941 2.33172 0.123673 0
M  V30 1028 C 92.0751 1.45897 0.87453 0
M  V30 1029 O 93.2601 1.74698 0.848181 0
M  V30 1030 C 90.3901 3.28336 1.13194 0
M  V30 1031 C 89.3441 4.25124 0.495324 0
M  V30 1032 C 88.6701 5.09863 1.61071 0
M  V30 1033 C 89.9701 5.19143 -0.573425 0
M  V30 1034 H 91.6641 2.93252 -0.603646 0
M  V30 1035 H 89.2101 1.41014 -0.291741 0
M  V30 1036 H 91.1631 3.88137 1.64097 0
M  V30 1037 H 89.8871 2.66383 1.88965 0
M  V30 1038 H 88.5461 3.66599 0.00729452 0
M  V30 1039 H 88.1941 4.44288 2.35832 0
M  V30 1040 H 87.8941 5.75417 1.19035 0
M  V30 1041 H 89.4181 5.72529 2.12233 0
M  V30 1042 H 90.8321 5.73106 -0.1491 0
M  V30 1043 H 89.2291 5.93089 -0.914636 0
M  V30 1044 H 90.2991 4.62519 -1.45617 0
M  V30 1045 N 91.6422 0.330177 1.54103 0
M  V30 1046 C 92.5722 -0.525353 2.27513 0
M  V30 1047 C 93.5532 -1.11383 1.2856 0
M  V30 1048 O 94.7382 -1.13773 1.57383 0
M  V30 1049 C 91.8682 -1.6831 3.03791 0
M  V30 1050 C 90.8222 -1.2236 4.10137 0
M  V30 1051 C 90.1482 -2.46882 4.74293 0
M  V30 1052 C 91.4482 -0.333697 5.21233 0
M  V30 1053 H 93.1422 0.087013 2.99274 0
M  V30 1054 H 90.6882 0.0432893 1.43935 0
M  V30 1055 H 92.6412 -2.28795 3.5388 0
M  V30 1056 H 91.3652 -2.32216 2.29659 0
M  V30 1057 H 90.0242 -0.64165 3.60941 0
M  V30 1058 H 89.6722 -3.09165 3.96769 0
M  V30 1059 H 89.3722 -2.16825 5.46133 0
M  V30 1060 H 90.8962 -3.08117 5.27159 0
M  V30 1061 H 92.3102 -0.845013 5.67038 0
M  V30 1062 H 90.7072 -0.125612 5.99969 0
M  V30 1063 H 91.7772 0.633724 4.80741 0
M  V30 1064 N 93.1203 -1.57491 0.0584922 0
M  V30 1065 C 94.5313 -1.80526 -0.476138 0
M  V30 1066 C 94.8823 -0.971334 -1.70469 0
M  V30 1067 O 94.0073 -0.190012 -2.15564 0
M  V30 1068 C 94.6023 -3.27424 -0.870587 0
M  V30 1069 C 93.1613 -3.51351 -1.35015 0
M  V30 1070 C 92.3083 -2.75343 -0.32887 0
M  V30 1071 H 95.2593 -1.56133 0.284312 0
M  V30 1072 H 95.2803 -3.38745 -1.73299 0
M  V30 1073 H 94.7923 -3.88093 0.0237627 0
M  V30 1074 H 92.8933 -2.95971 -2.26345 0
M  V30 1075 H 93.0063 -4.60059 -1.33726 0
M  V30 1076 H 91.3703 -2.417 -0.803321 0
M  V30 1077 H 92.1533 -3.38743 0.557521 0
M  V30 1078 N 94.5984 0.214957 -1.56127 0
M  V30 1079 C 95.8454 0.938372 -1.79446 0
M  V30 1080 C 96.1734 1.8407 -0.628378 0
M  V30 1081 O 95.4284 1.91837 0.386925 0
M  V30 1082 C 95.7274 1.80314 -3.0858 0
M  V30 1083 C 95.3934 1.05349 -4.3842 0
M  V30 1084 C 94.0554 0.846435 -4.73697 0
M  V30 1085 C 96.4074 0.524588 -5.18553 0
M  V30 1086 C 93.7354 0.098683 -5.86617 0
M  V30 1087 C 96.0874 -0.209853 -6.32252 0
M  V30 1088 C 94.7514 -0.428102 -6.66126 0
M  V30 1089 H 94.0214 0.343375 -0.656639 0
M  V30 1090 H 96.6684 0.206077 -1.90388 0
M  V30 1091 H 94.9734 2.6035 -2.92789 0
M  V30 1092 H 96.6704 2.36513 -3.23825 0
M  V30 1093 H 93.2604 1.22486 -4.10725 0
M  V30 1094 H 97.4444 0.672008 -4.91729 0
M  V30 1095 H 92.7004 -0.0805753 -6.11347 0
M  V30 1096 H 96.8744 -0.627157 -6.9357 0
M  V30 1097 H 94.5014 -1.00944 -7.53468 0
M  V30 1098 N 96.0765 1.50051 0.48192 0
M  V30 1099 C 97.3535 1.51009 1.2432 0
M  V30 1100 C 97.7335 0.248587 2.09631 0
M  V30 1101 O 97.0815 -0.768409 2.15192 0
M  V30 1102 C 97.2915 2.79981 2.08355 0
M  V30 1103 C 98.6395 3.3022 2.66908 0
M  V30 1104 O 99.6635 2.81228 2.18607 0
M  V30 1105 O 98.5225 4.15595 3.54884 0
M  V30 1106 H 95.6165 0.605239 0.563573 0
M  V30 1107 H 98.1625 1.62332 0.494627 0
M  V30 1108 H 96.9345 3.63275 1.45419 0
M  V30 1109 H 96.5575 2.7161 2.90368 0
M  V30 1110 N 97.5546 -0.734337 1.39446 0
M  V30 1111 C 98.9656 -1.31264 1.32766 0
M  V30 1112 C 99.3166 -1.96198 -0.00767497 0
M  V30 1113 O 98.4416 -1.96346 -0.909796 0
M  V30 1114 C 99.0366 -2.38682 2.4045 0
M  V30 1115 C 97.5956 -2.92184 2.37288 0
M  V30 1116 C 96.7426 -1.6576 2.22304 0
M  V30 1117 H 99.6936 -0.531799 1.49525 0
M  V30 1118 H 99.7146 -3.19087 2.07276 0
M  V30 1119 H 99.2266 -1.91392 3.37625 0
M  V30 1120 H 97.3276 -3.43752 1.43754 0
M  V30 1121 H 97.4406 -3.45253 3.3217 0
M  V30 1122 H 95.8046 -1.9012 1.69489 0
M  V30 1123 H 96.5876 -1.20521 3.21449 0
M  V30 1124 N 99.0327 -1.24633 -0.964593 0
M  V30 1125 C 100.279 -1.08949 -1.71049 0
M  V30 1126 C 100.612 0.370302 -1.90637 0
M  V30 1127 O 99.8867 1.27349 -1.47011 0
M  V30 1128 C 100.17 -1.83329 -3.0994 0
M  V30 1129 C 100.023 -3.37077 -2.97824 0
M  V30 1130 C 101.342 -1.60846 -4.09654 0
M  V30 1131 H 98.4607 -0.397178 -0.620821 0
M  V30 1132 H 101.103 -1.5334 -1.12191 0
M  V30 1133 H 99.2527 -1.45597 -3.60186 0
M  V30 1134 H 100.925 -3.84425 -2.5498 0
M  V30 1135 H 99.1677 -3.65298 -2.33965 0
M  V30 1136 H 99.8387 -3.84324 -3.96231 0
M  V30 1137 H 102.315 -1.93674 -3.68279 0
M  V30 1138 H 101.191 -2.1534 -5.04896 0
M  V30 1139 H 101.452 -0.547434 -4.38698 0
M  V30 1140 N 100.511 1.16574 -1.06058 0
M  V30 1141 C 101.927 1.3904 -0.783585 0
M  V30 1142 C 102.127 1.91784 0.618145 0
M  V30 1143 O 101.183 2.11511 1.37911 0
M  V30 1144 C 102.496 2.37329 -1.84649 0
M  V30 1145 C 104.044 2.51018 -1.86973 0
M  V30 1146 C 104.519 3.52588 -2.92311 0
M  V30 1147 N 106.01 3.60113 -2.91329 0
M  V30 1148 C 106.745 4.38486 -3.69482 0
M  V30 1149 N 106.241 5.20302 -4.57447 0
M  V30 1150 N 108.034 4.33446 -3.57885 0
M  V30 1151 H 100.185 0.806725 -1.96483 0
M  V30 1152 H 102.448 0.417117 -0.851303 0
M  V30 1153 H 102.154 2.05663 -2.85299 0
M  V30 1154 H 102.028 3.36946 -1.6955 0
M  V30 1155 H 104.415 2.81989 -0.869827 0
M  V30 1156 H 104.496 1.51445 -2.0615 0
M  V30 1157 H 104.14 3.22354 -3.92492 0
M  V30 1158 H 104.07 4.51886 -2.70383 0
M  V30 1159 H 106.561 3.01707 -2.27555 0
M  V30 1160 H 106.874 5.77311 -5.13743 0
M  V30 1161 H 105.219 5.19653 -4.61503 0
M  V30 1162 H 108.41 3.68586 -2.88551 0
M  V30 1163 H 108.583 4.94279 -4.19037 0
M  V30 1164 N 101.989 0.842826 1.3317 0
M  V30 1165 C 103.266 0.362216 1.92217 0
M  V30 1166 C 103.646 -1.15289 1.76838 0
M  V30 1167 O 102.994 -1.96914 1.15919 0
M  V30 1168 C 103.204 0.813495 3.39387 0
M  V30 1169 C 104.552 0.823804 4.16532 0
M  V30 1170 O 105.576 0.757358 3.48055 0
M  V30 1171 O 104.435 0.915193 5.38782 0
M  V30 1172 H 101.529 0.103317 0.820521 0
M  V30 1173 H 104.075 0.928942 1.42017 0
M  V30 1174 H 102.847 1.85624 3.4447 0
M  V30 1175 H 102.47 0.223561 3.96971 0
M  V30 1176 N 103.467 -1.45747 0.599634 0
M  V30 1177 C 104.377 -2.34262 -0.125888 0
M  V30 1178 C 105.393 -1.50768 -0.868625 0
M  V30 1179 O 106.569 -1.83592 -0.828003 0
M  V30 1180 C 103.634 -3.28252 -1.11587 0
M  V30 1181 C 102.695 -4.27651 -0.375956 0
M  V30 1182 C 101.928 -5.1715 -1.31877 0
M  V30 1183 O 102.151 -5.09916 -2.55621 0
M  V30 1184 O 101.085 -5.96286 -0.820157 0
M  V30 1185 H 104.911 -2.97688 0.601315 0
M  V30 1186 H 102.496 -1.44999 0.359934 0
M  V30 1187 H 104.378 -3.86191 -1.68626 0
M  V30 1188 H 103.053 -2.67401 -1.82424 0
M  V30 1189 H 101.96 -3.7335 0.236698 0
M  V30 1190 H 103.293 -4.91334 0.29177 0
M  V30 1191 N 104.945 -0.338344 -1.53925 0
M  V30 1192 C 106.191 0.260143 -2.01125 0
M  V30 1193 C 106.524 1.50617 -1.22589 0
M  V30 1194 O 105.799 1.91979 -0.312113 0
M  V30 1195 C 106.082 0.579499 -3.55407 0
M  V30 1196 C 105.935 -0.678264 -4.44657 0
M  V30 1197 C 107.254 1.39122 -4.17532 0
M  V30 1198 H 104.373 0.0930772 -0.731099 0
M  V30 1199 H 107.015 -0.457852 -1.84401 0
M  V30 1200 H 105.165 1.19118 -3.69788 0
M  V30 1201 H 106.837 -1.31631 -4.42121 0
M  V30 1202 H 105.08 -1.3042 -4.13731 0
M  V30 1203 H 105.751 -0.410143 -5.50474 0
M  V30 1204 H 108.227 0.874035 -4.06817 0
M  V30 1205 H 107.103 1.58342 -5.25565 0
M  V30 1206 H 107.364 2.39178 -3.71815 0
M  V30 1207 N 106.423 1.57458 -0.0668435 0
M  V30 1208 C 107.669 1.93587 0.6043 0
M  V30 1209 C 108.002 0.946722 1.69561 0
M  V30 1210 O 107.277 -0.0248516 1.94484 0
M  V30 1211 C 107.56 3.40014 1.18585 0
M  V30 1212 C 107.413 4.49685 0.101529 0
M  V30 1213 C 108.732 3.87154 2.09284 0
M  V30 1214 H 105.851 0.703958 0.218202 0
M  V30 1215 H 108.493 1.89542 -0.131804 0
M  V30 1216 H 106.643 3.43592 1.81319 0
M  V30 1217 H 108.315 4.5823 -0.531279 0
M  V30 1218 H 106.558 4.30059 -0.568487 0
M  V30 1219 H 107.229 5.49266 0.54874 0
M  V30 1220 H 109.705 3.85551 1.56491 0
M  V30 1221 H 108.581 4.90231 2.46911 0
M  V30 1222 H 108.842 3.2481 2.99918 0
M  V30 1223 N 107.901 -0.206675 1.56239 0
M  V30 1224 C 108.831 -1.25909 1.96645 0
M  V30 1225 C 109.812 -1.48097 0.836734 0
M  V30 1226 O 110.997 -1.6003 1.10019 0
M  V30 1227 C 108.127 -2.6058 2.29599 0
M  V30 1228 C 107.081 -2.53024 3.452 0
M  V30 1229 C 106.407 -3.91861 3.63798 0
M  V30 1230 C 107.707 -2.06524 4.79734 0
M  V30 1231 H 109.401 -0.923369 2.84806 0
M  V30 1232 H 106.947 -0.442735 1.37025 0
M  V30 1233 H 108.9 -3.34375 2.56459 0
M  V30 1234 H 107.624 -2.95869 1.38307 0
M  V30 1235 H 106.283 -1.81684 3.18412 0
M  V30 1236 H 105.931 -4.24483 2.69857 0
M  V30 1237 H 105.631 -3.87683 4.4156 0
M  V30 1238 H 107.155 -4.67296 3.93022 0
M  V30 1239 H 108.569 -2.70072 5.05702 0
M  V30 1240 H 106.966 -2.13374 5.60885 0
M  V30 1241 H 108.036 -1.01802 4.74093 0
M  V30 1242 N 109.379 -1.50304 -0.473955 0
M  V30 1243 C 110.628 -1.60392 -1.22301 0
M  V30 1244 C 110.941 -0.308411 -1.93153 0
M  V30 1245 O 112.147 -0.288156 -2.69966 0
M  V30 1246 C 110.603 -2.83109 -2.2221 0
M  V30 1247 C 110.211 -4.19524 -1.57173 0
M  V30 1248 C 111.955 -3.0254 -2.97775 0
M  V30 1249 C 109.862 -5.33431 -2.55353 0
M  V30 1250 H 108.792 -0.597286 -0.460179 0
M  V30 1251 H 111.443 -1.76731 -0.493803 0
M  V30 1252 H 109.825 -2.60322 -2.9841 0
M  V30 1253 H 110.999 -4.52554 -0.867824 0
M  V30 1254 H 109.314 -4.05674 -0.939002 0
M  V30 1255 H 111.911 -3.84811 -3.71248 0
M  V30 1256 H 112.254 -2.14154 -3.56992 0
M  V30 1257 H 112.787 -3.25494 -2.28688 0
M  V30 1258 H 109.526 -6.23962 -2.00878 0
M  V30 1259 H 109.046 -5.04823 -3.23904 0
M  V30 1260 H 110.725 -5.63887 -3.17239 0
M  V30 1261 N 110.857 0.726932 -1.39834 0
M  V30 1262 C 111.767 1.87131 -1.41489 0
M  V30 1263 C 112.783 1.71239 -0.308757 0
M  V30 1264 O 113.959 1.93701 -0.551529 0
M  V30 1265 C 111.024 3.22811 -1.26468 0
M  V30 1266 C 110.085 3.51039 -2.47124 0
M  V30 1267 C 109.318 4.80245 -2.3281 0
M  V30 1268 O 109.541 5.54537 -1.33585 0
M  V30 1269 O 108.475 5.08554 -3.21957 0
M  V30 1270 H 112.301 1.8869 -2.3797 0
M  V30 1271 H 109.886 0.875837 -1.21035 0
M  V30 1272 H 111.768 4.03877 -1.20255 0
M  V30 1273 H 110.443 3.22005 -0.330862 0
M  V30 1274 H 109.35 2.70027 -2.58914 0
M  V30 1275 H 110.683 3.56632 -3.39227 0
M  V30 1276 N 112.336 1.25143 0.95797 0
M  V30 1277 C 113.268 1.01023 2.05735 0
M  V30 1278 C 114.281 -0.0236902 1.62783 0
M  V30 1279 O 115.47 0.21448 1.77207 0
M  V30 1280 C 112.57 0.504595 3.35122 0
M  V30 1281 C 111.743 1.6039 4.06932 0
M  V30 1282 C 110.802 1.09922 5.14591 0
M  V30 1283 O 109.828 1.79293 5.40225 0
M  V30 1284 N 111.03 -0.0612545 5.80468 0
M  V30 1285 H 113.795 1.95683 2.26998 0
M  V30 1286 H 111.356 1.16303 1.12629 0
M  V30 1287 H 113.348 0.151516 4.04416 0
M  V30 1288 H 111.918 -0.347989 3.10657 0
M  V30 1289 H 111.138 2.12872 3.31782 0
M  V30 1290 H 112.426 2.34252 4.51667 0
M  V30 1291 H 111.824 -0.640985 5.62057 0
M  V30 1292 H 110.381 -0.355395 6.5083 0
M  V30 1293 N 113.814 -1.1601 1.06675 0
M  V30 1294 C 115.063 -1.85973 0.780818 0
M  V30 1295 C 115.376 -1.82819 -0.695444 0
M  V30 1296 O 116.582 -2.484 -1.09589 0
M  V30 1297 C 115.038 -3.33757 1.34665 0
M  V30 1298 C 114.646 -3.45374 2.85343 0
M  V30 1299 C 116.39 -4.0895 1.13843 0
M  V30 1300 C 114.297 -4.87266 3.35151 0
M  V30 1301 H 113.227 -0.696661 0.288407 0
M  V30 1302 H 115.878 -1.30903 1.28595 0
M  V30 1303 H 114.26 -3.88456 0.769274 0
M  V30 1304 H 115.434 -3.00816 3.49065 0
M  V30 1305 H 113.749 -2.83619 3.04876 0
M  V30 1306 H 116.346 -5.13654 1.4854 0
M  V30 1307 H 116.689 -4.16229 0.0770282 0
M  V30 1308 H 117.222 -3.605 1.68179 0
M  V30 1309 H 113.961 -4.85168 4.40786 0
M  V30 1310 H 113.481 -5.32433 2.76179 0
M  V30 1311 H 115.16 -5.56097 3.30704 0
M  V30 1312 N 115.292 -0.849877 -1.32721 0
M  V30 1313 C 116.708 -0.539102 -1.50219 0
M  V30 1314 C 116.908 0.931271 -1.78689 0
M  V30 1315 O 115.964 1.71455 -1.85363 0
M  V30 1316 C 117.277 -1.42196 -2.64954 0
M  V30 1317 C 118.825 -1.42189 -2.78839 0
M  V30 1318 C 119.3 -2.28985 -3.96648 0
M  V30 1319 N 120.791 -2.26754 -4.03902 0
M  V30 1320 C 121.526 -2.90644 -4.94281 0
M  V30 1321 N 121.022 -3.63629 -5.897 0
M  V30 1322 N 122.815 -2.80057 -4.87365 0
M  V30 1323 H 114.966 -1.80156 -1.12506 0
M  V30 1324 H 117.229 -0.769217 -0.554085 0
M  V30 1325 H 116.935 -2.46733 -2.50631 0
M  V30 1326 H 116.809 -1.10591 -3.60624 0
M  V30 1327 H 119.196 -0.38419 -2.92588 0
M  V30 1328 H 119.277 -1.77807 -1.83898 0
M  V30 1329 H 118.921 -3.32819 -3.83658 0
M  V30 1330 H 118.851 -1.90702 -4.90857 0
M  V30 1331 H 121.342 -1.73688 -3.3562 0
M  V30 1332 H 121.655 -4.09558 -6.55349 0
M  V30 1333 H 120 -3.67737 -5.89741 0
M  V30 1334 H 123.191 -2.22593 -4.11789 0
M  V30 1335 H 123.364 -3.30132 -5.57599 0
M  V30 1336 N 116.77 1.45427 -0.607355 0
M  V30 1337 C 118.019 2.01452 -0.100036 0
M  V30 1338 C 118.332 1.48159 1.27704 0
M  V30 1339 O 119.538 1.96159 1.87707 0
M  V30 1340 C 117.994 3.59672 -0.128158 0
M  V30 1341 C 117.602 4.21962 -1.50507 0
M  V30 1342 C 119.346 4.23262 0.323932 0
M  V30 1343 C 117.253 5.72333 -1.48959 0
M  V30 1344 H 116.183 0.75325 -0.0336299 0
M  V30 1345 H 118.834 1.66901 -0.76265 0
M  V30 1346 H 117.216 3.91411 0.601105 0
M  V30 1347 H 118.39 4.01796 -2.25602 0
M  V30 1348 H 116.705 3.70565 -1.89923 0
M  V30 1349 H 119.302 5.33522 0.354691 0
M  V30 1350 H 119.645 3.93921 1.34656 0
M  V30 1351 H 120.178 3.96239 -0.352056 0
M  V30 1352 H 116.917 6.06373 -2.48981 0
M  V30 1353 H 116.437 5.94691 -0.781214 0
M  V30 1354 H 118.116 6.35525 -1.21313 0
M  V30 1355 N 118.248 0.346503 1.53744 0
M  V30 1356 C 119.211 -0.496439 2.23759 0
M  V30 1357 C 120.211 -1.0252 1.2388 0
M  V30 1358 O 121.401 -0.913974 1.48297 0
M  V30 1359 C 118.533 -1.69187 2.95954 0
M  V30 1360 H 119.726 0.115952 2.99676 0
M  V30 1361 H 117.279 0.0978939 1.55993 0
M  V30 1362 H 118.014 -2.34288 2.24231 0
M  V30 1363 H 117.799 -1.31989 3.69217 0
M  V30 1364 H 119.289 -2.28969 3.49232 0
M  V30 1365 N 119.726 -1.57421 0.075193 0
M  V30 1366 C 120.689 -2.11791 -0.876203 0
M  V30 1367 C 121.689 -1.04268 -1.22412 0
M  V30 1368 O 122.879 -1.30242 -1.15684 0
M  V30 1369 C 120.011 -2.62207 -2.17854 0
M  V30 1370 H 121.204 -2.9716 -0.40444 0
M  V30 1371 H 118.757 -1.55333 -0.173557 0
M  V30 1372 H 119.492 -1.803 -2.6956 0
M  V30 1373 H 119.277 -3.40802 -1.93897 0
M  V30 1374 H 120.767 -3.04335 -2.85955 0
M  V30 1375 N 121.204 0.198386 -1.56346 0
M  V30 1376 C 122.434 0.934215 -1.84271 0
M  V30 1377 C 122.842 1.77496 -0.655125 0
M  V30 1378 O 122.185 1.7961 0.385488 0
M  V30 1379 C 122.247 1.88278 -3.06254 0
M  V30 1380 C 121.911 1.22431 -4.40295 0
M  V30 1381 C 122.908 0.602839 -5.16393 0
M  V30 1382 C 120.593 1.22915 -4.87029 0
M  V30 1383 C 122.587 -0.0050083 -6.374 0
M  V30 1384 C 120.274 0.617465 -6.07973 0
M  V30 1385 C 121.272 0.00146341 -6.83 0
M  V30 1386 O 120.96 -0.600642 -8.01653 0
M  V30 1387 H 120.692 0.278245 -0.616081 0
M  V30 1388 H 123.246 0.211626 -2.04307 0
M  V30 1389 H 121.476 2.64498 -2.82095 0
M  V30 1390 H 123.165 2.48612 -3.20853 0
M  V30 1391 H 123.931 0.591265 -4.81382 0
M  V30 1392 H 119.81 1.69801 -4.28589 0
M  V30 1393 H 123.354 -0.48643 -6.95902 0
M  V30 1394 H 119.251 0.62653 -6.42452 0
M  V30 1395 H 120.019 -0.497225 -8.16988 0
M  V30 1396 N 122.682 1.50554 0.465978 0
M  V30 1397 C 123.959 1.5232 1.22712 0
M  V30 1398 C 124.339 0.270807 2.09356 0
M  V30 1399 O 123.687 -0.745541 2.15995 0
M  V30 1400 C 123.897 2.82175 2.05374 0
M  V30 1401 C 125.245 3.33033 2.6339 0
M  V30 1402 O 126.269 2.83531 2.15612 0
M  V30 1403 O 125.128 4.19336 3.50456 0
M  V30 1404 H 122.222 0.611183 0.557122 0
M  V30 1405 H 124.768 1.62847 0.477381 0
M  V30 1406 H 123.54 3.64797 1.41558 0
M  V30 1407 H 123.163 2.74675 2.87471 0
M  V30 1408 N 124.16 -0.719506 1.40217 0
M  V30 1409 C 125.388 -1.50864 1.41589 0
M  V30 1410 C 125.803 -1.88794 0.0145275 0
M  V30 1411 O 125.16 -1.55174 -0.960594 0
M  V30 1412 C 125.211 -2.78646 2.30302 0
M  V30 1413 O 124.932 -2.42321 3.64983 0
M  V30 1414 C 126.433 -3.72569 2.40224 0
M  V30 1415 H 123.653 -0.465709 0.48307 0
M  V30 1416 H 126.197 -0.88785 1.84221 0
M  V30 1417 H 124.352 -3.37019 1.91042 0
M  V30 1418 H 124.766 -3.24514 4.12057 0
M  V30 1419 H 126.24 -4.5908 3.06512 0
M  V30 1420 H 126.717 -4.15403 1.42608 0
M  V30 1421 H 127.323 -3.20109 2.80019 0
M  V30 1422 N 125.638 -1.25649 -0.95132 0
M  V30 1423 C 126.863 -1.13443 -1.73624 0
M  V30 1424 C 127.288 0.307565 -1.85568 0
M  V30 1425 O 126.646 1.22282 -1.33854 0
M  V30 1426 C 126.694 -1.79723 -3.12621 0
M  V30 1427 O 125.798 -1.07912 -3.98031 0
M  V30 1428 H 125.139 -0.395872 -0.533086 0
M  V30 1429 H 127.669 -1.66276 -1.1922 0
M  V30 1430 H 127.679 -1.86141 -3.63064 0
M  V30 1431 H 126.354 -2.84633 -3.03244 0
M  V30 1432 H 124.931 -1.09398 -3.56492 0
M  V30 1433 N 127.117 1.15442 -1.07289 0
M  V30 1434 C 128.027 2.23786 -0.704057 0
M  V30 1435 C 129.043 1.7166 0.284413 0
M  V30 1436 O 130.219 2.00972 0.131205 0
M  V30 1437 C 127.284 3.46535 -0.106792 0
M  V30 1438 C 126.345 4.13654 -1.14842 0
M  V30 1439 C 125.578 5.30544 -0.57956 0
M  V30 1440 O 125.801 5.67187 0.604585 0
M  V30 1441 O 124.735 5.87154 -1.32414 0
M  V30 1442 H 128.561 2.57664 -1.60757 0
M  V30 1443 H 126.146 1.23152 -0.845803 0
M  V30 1444 H 128.028 4.20804 0.224048 0
M  V30 1445 H 126.703 3.14407 0.770049 0
M  V30 1446 H 125.61 3.4131 -1.5316 0
M  V30 1447 H 126.943 4.49861 -1.99714 0
M  V30 1448 N 128.595 0.856903 1.32268 0
M  V30 1449 C 129.823 0.475439 2.01363 0
M  V30 1450 C 130.238 -0.928486 1.64392 0
M  V30 1451 O 129.595 -1.60624 0.866387 0
M  V30 1452 C 129.646 0.607545 3.56358 0
M  V30 1453 O 129.367 1.95617 3.92002 0
M  V30 1454 C 130.868 0.225382 4.42727 0
M  V30 1455 H 128.088 0.186636 0.644521 0
M  V30 1456 H 130.632 1.15446 1.68797 0
M  V30 1457 H 128.787 -0.0237719 3.87393 0
M  V30 1458 H 129.201 1.95455 4.86721 0
M  V30 1459 H 130.675 0.368813 5.50767 0
M  V30 1460 H 131.152 -0.834369 4.31202 0
M  V30 1461 H 131.758 0.831864 4.17085 0
M  V30 1462 N 130.073 -1.45103 0.615059 0
M  V30 1463 C 131.484 -1.85654 0.197383 0
M  V30 1464 C 131.835 -1.51433 -1.24749 0
M  V30 1465 O 130.96 -0.944608 -1.94695 0
M  V30 1466 C 131.555 -3.36972 0.351448 0
M  V30 1467 C 130.114 -3.76398 -0.011593 0
M  V30 1468 C 129.261 -2.69024 0.672394 0
M  V30 1469 H 132.212 -1.35797 0.821263 0
M  V30 1470 H 132.233 -3.78239 -0.414227 0
M  V30 1471 H 131.745 -3.61847 1.40314 0
M  V30 1472 H 129.846 -3.5714 -1.06217 0
M  V30 1473 H 129.959 -4.77532 0.387265 0
M  V30 1474 H 128.323 -2.54465 0.109284 0
M  V30 1475 H 129.106 -2.96735 1.72636 0
M  V30 1476 N 131.551 -0.354651 -1.53558 0
M  V30 1477 C 132.797 0.231422 -2.02079 0
M  V30 1478 C 133.152 1.47308 -1.23767 0
M  V30 1479 O 132.445 1.8891 -0.319947 0
M  V30 1480 C 132.639 0.587121 -3.52545 0
M  V30 1481 C 132.468 -0.618513 -4.45426 0
M  V30 1482 C 131.238 -1.12724 -4.92566 0
M  V30 1483 C 133.436 -1.48039 -4.92533 0
M  V30 1484 N 131.418 -2.29404 -5.69427 0
M  V30 1485 C 132.789 -2.49397 -5.67628 0
M  V30 1486 C 134.844 -1.50454 -4.74624 0
M  V30 1487 C 133.547 -3.53013 -6.26717 0
M  V30 1488 C 135.573 -2.52958 -5.34571 0
M  V30 1489 C 134.935 -3.5304 -6.09543 0
M  V30 1490 H 131.034 0.0476909 -0.780544 0
M  V30 1491 H 133.618 -0.496727 -1.88257 0
M  V30 1492 H 131.789 1.28436 -3.6655 0
M  V30 1493 H 133.521 1.15734 -3.87799 0
M  V30 1494 H 130.276 -0.693577 -4.68494 0
M  V30 1495 H 130.7 -2.88347 -6.12524 0
M  V30 1496 H 135.342 -0.744356 -4.16196 0
M  V30 1497 H 133.06 -4.2992 -6.84247 0
M  V30 1498 H 136.646 -2.55667 -5.22614 0
M  V30 1499 H 135.526 -4.31056 -6.55103 0
M  V30 1500 N 133.029 1.57378 -0.0835403 0
M  V30 1501 C 133.959 2.1641 0.87686 0
M  V30 1502 C 134.94 1.09429 1.30228 0
M  V30 1503 O 136.125 1.37516 1.37124 0
M  V30 1504 C 133.255 2.73517 2.14022 0
M  V30 1505 C 132.209 3.85769 1.85381 0
M  V30 1506 C 131.535 4.29529 3.18448 0
M  V30 1507 C 132.835 5.09486 1.14984 0
M  V30 1508 H 134.529 2.96914 0.385059 0
M  V30 1509 H 132.075 1.42823 0.18377 0
M  V30 1510 H 134.028 3.13463 2.81636 0
M  V30 1511 H 132.752 1.90252 2.65465 0
M  V30 1512 H 131.411 3.46345 1.20169 0
M  V30 1513 H 131.059 3.43169 3.67755 0
M  V30 1514 H 130.759 5.05204 3.00071 0
M  V30 1515 H 132.283 4.72099 3.8724 0
M  V30 1516 H 133.697 5.46674 1.72687 0
M  V30 1517 H 132.094 5.90515 1.06826 0
M  V30 1518 H 133.164 4.84724 0.130749 0
M  V30 1519 N 134.507 -0.190092 1.56449 0
M  V30 1520 C 135.437 -1.23816 1.97969 0
M  V30 1521 C 136.418 -1.47201 0.852395 0
M  V30 1522 O 137.603 -1.58854 1.1171 0
M  V30 1523 C 134.733 -2.5813 2.3235 0
M  V30 1524 C 133.687 -2.49348 3.47864 0
M  V30 1525 C 133.013 -3.8798 3.67934 0
M  V30 1526 C 134.313 -2.01424 4.81898 0
M  V30 1527 H 136.007 -0.89311 2.85769 0
M  V30 1528 H 133.553 -0.428177 1.37487 0
M  V30 1529 H 135.506 -3.31637 2.59991 0
M  V30 1530 H 134.23 -2.94386 1.41438 0
M  V30 1531 H 132.889 -1.78297 3.20321 0
M  V30 1532 H 132.537 -4.21597 2.74344 0
M  V30 1533 H 132.237 -3.82978 4.45648 0
M  V30 1534 H 133.761 -4.63101 3.97957 0
M  V30 1535 H 135.175 -2.64693 5.08538 0
M  V30 1536 H 133.572 -2.07413 5.63116 0
M  V30 1537 H 134.642 -0.967677 4.75146 0
M  V30 1538 N 135.985 -1.50799 -0.457987 0
M  V30 1539 C 136.895 -1.73426 -1.57989 0
M  V30 1540 C 137.911 -0.617745 -1.62665 0
M  V30 1541 O 139.087 -0.897614 -1.80291 0
M  V30 1542 C 136.152 -1.83557 -2.94122 0
M  V30 1543 C 135.213 -3.07345 -2.99729 0
M  V30 1544 C 134.446 -3.16983 -4.29368 0
M  V30 1545 O 134.669 -2.33077 -5.20607 0
M  V30 1546 O 133.603 -4.09812 -4.40837 0
M  V30 1547 H 137.429 -2.68555 -1.41817 0
M  V30 1548 H 135.014 -1.35052 -0.638859 0
M  V30 1549 H 136.896 -1.92326 -3.74952 0
M  V30 1550 H 135.571 -0.916137 -3.10465 0
M  V30 1551 H 134.478 -3.04068 -2.1793 0
M  V30 1552 H 135.811 -3.9891 -2.88326 0
M  V30 1553 N 137.463 0.71206 -1.40597 0
M  V30 1554 C 138.396 1.83582 -1.35546 0
M  V30 1555 C 139.374 1.61032 -0.225284 0
M  V30 1556 O 140.558 1.83998 -0.409519 0
M  V30 1557 C 137.685 3.19983 -1.11034 0
M  V30 1558 C 136.731 3.61355 -2.2655 0
M  V30 1559 S 137.564 3.68062 -3.88961 0
M  V30 1560 C 138.72 5.07216 -3.66719 0
M  V30 1561 H 138.953 1.87586 -2.30648 0
M  V30 1562 H 136.486 0.879182 -1.26924 0
M  V30 1563 H 138.444 3.98734 -0.975761 0
M  V30 1564 H 137.105 3.13608 -0.175798 0
M  V30 1565 H 136.298 4.60403 -2.0505 0
M  V30 1566 H 135.9 2.8987 -2.36329 0
M  V30 1567 H 138.192 5.94238 -3.25404 0
M  V30 1568 H 139.135 5.33753 -4.6531 0
M  V30 1569 H 139.543 4.77976 -3.00332 0
M  V30 1570 N 138.941 1.26152 0.944643 0
M  V30 1571 C 140.187 1.11657 1.69294 0
M  V30 1572 C 140.52 -0.339926 1.91202 0
M  V30 1573 O 139.795 -1.24994 1.49019 0
M  V30 1574 C 140.078 1.88236 3.06984 0
M  V30 1575 C 139.931 3.41772 2.92424 0
M  V30 1576 C 141.25 1.67343 4.07043 0
M  V30 1577 H 138.369 0.407004 0.614424 0
M  V30 1578 H 141.011 1.55106 1.09737 0
M  V30 1579 H 139.161 1.51308 3.57824 0
M  V30 1580 H 140.833 3.88433 2.48832 0
M  V30 1581 H 139.076 3.68974 2.28124 0
M  V30 1582 H 139.747 3.90579 3.90067 0
M  V30 1583 H 142.223 1.99509 3.65151 0
M  V30 1584 H 141.099 2.23346 5.01406 0
M  V30 1585 H 141.36 0.617158 4.37771 0
M  V30 1586 N 140.419 -1.14872 1.07899 0
M  V30 1587 C 141.382 -2.17986 0.708161 0
M  V30 1588 C 142.382 -1.58775 -0.25442 0
M  V30 1589 O 143.572 -1.74166 -0.034645 0
M  V30 1590 C 140.704 -3.40871 0.0446929 0
M  V30 1591 H 141.897 -2.52306 1.62116 0
M  V30 1592 H 139.45 -1.2943 0.876218 0
M  V30 1593 H 140.185 -3.12124 -0.880281 0
M  V30 1594 H 139.97 -3.8511 0.737091 0
M  V30 1595 H 141.46 -4.17121 -0.19991 0
M  V30 1596 N 141.898 -0.863906 -1.31812 0
M  V30 1597 C 143.146 -0.470904 -1.96537 0
M  V30 1598 C 143.467 0.978771 -1.68657 0
M  V30 1599 O 142.737 1.6853 -0.998717 0
M  V30 1600 H 141.317 -0.171148 -0.72713 0
M  V30 1601 H 143.979 -1.10236 -1.60729 0
M  V30 1602 H 143.075 -0.623616 -3.05806 0
M  V30 1603 N 143.376 1.44774 -0.622745 0
M  V30 1604 C 144.309 2.27792 0.136329 0
M  V30 1605 C 145.287 1.38041 0.859264 0
M  V30 1606 O 146.471 1.67478 0.86506 0
M  V30 1607 C 143.598 3.16776 1.19878 0
M  V30 1608 C 142.644 4.22575 0.57731 0
M  V30 1609 S 143.477 5.31825 -0.626294 0
M  V30 1610 C 144.633 6.24377 0.436378 0
M  V30 1611 H 144.866 2.91824 -0.567967 0
M  V30 1612 H 142.399 1.48838 -0.410677 0
M  V30 1613 H 144.357 3.68596 1.80686 0
M  V30 1614 H 143.018 2.5198 1.87523 0
M  V30 1615 H 142.211 4.84818 1.37721 0
M  V30 1616 H 141.813 3.73974 0.0440439 0
M  V30 1617 H 144.105 6.64689 1.31128 0
M  V30 1618 H 145.048 7.07941 -0.150271 0
M  V30 1619 H 145.456 5.59381 0.758513 0
M  V30 1620 N 144.854 0.36279 1.53368 0
M  V30 1621 C 146.103 -0.22888 2.00397 0
M  V30 1622 C 146.416 -1.50096 1.25421 0
M  V30 1623 O 147.622 -2.17106 1.63025 0
M  V30 1624 C 146.078 -0.458417 3.56969 0
M  V30 1625 C 145.686 0.798877 4.4082 0
M  V30 1626 C 147.43 -1.00789 4.12361 0
M  V30 1627 C 145.337 0.539078 5.88938 0
M  V30 1628 H 144.267 -0.089305 0.748693 0
M  V30 1629 H 146.918 0.481099 1.77081 0
M  V30 1630 H 145.3 -1.22959 3.76427 0
M  V30 1631 H 146.474 1.57262 4.33134 0
M  V30 1632 H 144.789 1.27137 3.96516 0
M  V30 1633 H 147.386 -1.21754 5.20653 0
M  V30 1634 H 147.729 -1.9692 3.66781 0
M  V30 1635 H 148.262 -0.296961 3.9669 0
M  V30 1636 H 145.001 1.47064 6.3879 0
M  V30 1637 H 144.521 -0.196222 5.99479 0
M  V30 1638 H 146.2 0.163542 6.46793 0
M  V30 1639 N 146.332 -1.57332 0.0918853 0
M  V30 1640 C 147.242 -2.17368 -0.882505 0
M  V30 1641 C 148.258 -1.14226 -1.31257 0
M  V30 1642 O 149.434 -1.46582 -1.38115 0
M  V30 1643 C 146.499 -2.73962 -2.12476 0
M  V30 1644 C 145.56 -3.92048 -1.7492 0
M  V30 1645 C 144.793 -4.45933 -2.93223 0
M  V30 1646 O 145.016 -3.98764 -4.07852 0
M  V30 1647 O 143.95 -5.36999 -2.71875 0
M  V30 1648 H 147.776 -3.01031 -0.40172 0
M  V30 1649 H 145.361 -1.48813 -0.132291 0
M  V30 1650 H 147.243 -3.10147 -2.85283 0
M  V30 1651 H 145.918 -1.93347 -2.59613 0
M  V30 1652 H 144.825 -3.6068 -0.993025 0
M  V30 1653 H 146.158 -4.74017 -1.32548 0
M  V30 1654 N 147.81 0.181792 -1.56548 0
M  V30 1655 C 148.72 1.24538 -1.98815 0
M  V30 1656 C 149.736 1.49045 -0.897861 0
M  V30 1657 O 150.912 1.61399 -1.20467 0
M  V30 1658 C 147.977 2.56683 -2.33055 0
M  V30 1659 C 147.038 2.40131 -3.55859 0
M  V30 1660 C 146.271 3.65975 -3.88456 0
M  V30 1661 O 146.494 4.70711 -3.22161 0
M  V30 1662 O 145.428 3.6071 -4.81842 0
M  V30 1663 H 149.254 0.916647 -2.89536 0
M  V30 1664 H 146.839 0.387842 -1.44278 0
M  V30 1665 H 148.721 3.34655 -2.56094 0
M  V30 1666 H 147.396 2.89157 -1.45498 0
M  V30 1667 H 146.303 1.60226 -3.38051 0
M  V30 1668 H 147.636 2.12585 -4.43924 0
M  V30 1669 N 149.288 1.51039 0.449983 0
M  V30 1670 C 150.536 1.62759 1.19808 0
M  V30 1671 C 150.857 0.339981 1.92013 0
M  V30 1672 O 150.127 -0.643606 1.85026 0
M  V30 1673 H 148.707 0.599811 0.445237 0
M  V30 1674 H 151.369 1.87914 0.517138 0
M  V30 1675 H 150.465 2.44911 1.93455 0
M  V30 1676 N 150.766 -0.704594 1.40972 0
M  V30 1677 C 151.676 -1.84856 1.44448 0
M  V30 1678 C 152.692 -1.70726 0.335961 0
M  V30 1679 O 153.868 -1.92799 0.582276 0
M  V30 1680 C 150.933 -3.20758 1.31587 0
M  V30 1681 C 149.994 -3.47063 2.52677 0
M  V30 1682 C 149.227 -4.76481 2.4042 0
M  V30 1683 O 149.45 -5.52341 1.42391 0
M  V30 1684 O 148.384 -5.03367 3.30007 0
M  V30 1685 H 152.21 -1.8488 2.40942 0
M  V30 1686 H 149.795 -0.85647 1.22413 0
M  V30 1687 H 151.677 -4.01913 1.26665 0
M  V30 1688 H 150.352 -3.21438 0.382049 0
M  V30 1689 H 149.259 -2.65873 2.63177 0
M  V30 1690 H 150.592 -3.5119 3.44858 0
M  V30 1691 N 152.244 -1.26651 -0.937939 0
M  V30 1692 C 153.469 -1.15279 -1.72411 0
M  V30 1693 C 153.894 0.287866 -1.85884 0
M  V30 1694 O 153.252 1.20855 -1.35143 0
M  V30 1695 C 153.3 -1.83028 -3.10698 0
M  V30 1696 O 152.404 -1.12128 -3.96864 0
M  V30 1697 H 151.745 -0.401504 -0.528858 0
M  V30 1698 H 154.275 -1.67531 -1.1745 0
M  V30 1699 H 154.285 -1.89981 -3.6107 0
M  V30 1700 H 152.96 -2.87833 -3.00208 0
M  V30 1701 H 151.537 -1.13173 -3.55312 0
M  V30 1702 N 153.722 1.14298 -1.08507 0
M  V30 1703 C 154.968 1.85633 -0.816581 0
M  V30 1704 C 155.301 1.82784 0.656021 0
M  V30 1705 O 154.576 1.25926 1.48233 0
M  V30 1706 C 154.859 3.34223 -1.34041 0
M  V30 1707 C 154.712 3.45639 -2.87843 0
M  V30 1708 C 156.031 4.29356 -0.9665 0
M  V30 1709 H 153.15 0.67402 -0.298104 0
M  V30 1710 H 155.792 1.34214 -1.34487 0
M  V30 1711 H 153.942 3.78144 -0.89104 0
M  V30 1712 H 155.614 3.10498 -3.41158 0
M  V30 1713 H 153.857 2.86817 -3.25451 0
M  V30 1714 H 154.528 4.50089 -3.19569 0
M  V30 1715 H 157.004 3.93457 -1.35391 0
M  V30 1716 H 155.88 5.3178 -1.3602 0
M  V30 1717 H 156.141 4.41919 0.126362 0
M  V30 1718 N 155.201 0.870884 1.31352 0
M  V30 1719 C 156.111 0.330783 2.32256 0
M  V30 1720 C 157.127 -0.559767 1.6475 0
M  V30 1721 O 158.303 -0.456263 1.96164 0
M  V30 1722 C 155.368 -0.458137 3.4366 0
M  V30 1723 C 154.429 0.460482 4.26823 0
M  V30 1724 C 153.662 -0.290881 5.32907 0
M  V30 1725 O 153.885 -1.51885 5.49806 0
M  V30 1726 O 152.819 0.351732 6.00871 0
M  V30 1727 H 156.645 1.16718 2.80376 0
M  V30 1728 H 154.23 0.634285 1.35267 0
M  V30 1729 H 156.112 -0.905343 4.1156 0
M  V30 1730 H 154.787 -1.27106 2.97701 0
M  V30 1731 H 153.694 0.956207 3.61673 0
M  V30 1732 H 155.027 1.23903 4.7635 0
M  V30 1733 N 156.679 -1.44442 0.630414 0
M  V30 1734 C 157.956 -1.9549 0.0655657 0
M  V30 1735 C 158.336 -1.5724 -1.40851 0
M  V30 1736 O 157.684 -0.846116 -2.12257 0
M  V30 1737 C 157.894 -3.47812 0.287691 0
M  V30 1738 C 159.242 -4.24216 0.180513 0
M  V30 1739 O 160.266 -3.55526 0.219019 0
M  V30 1740 O 159.125 -5.46434 0.0848493 0
M  V30 1741 H 156.219 -0.826688 -0.0227177 0
M  V30 1742 H 158.765 -1.54496 0.702068 0
M  V30 1743 H 157.537 -3.687 1.31056 0
M  V30 1744 H 157.16 -3.95751 -0.382984 0
M  V30 1745 N 158.157 -0.370918 -1.53173 0
M  V30 1746 C 159.403 0.217423 -2.01631 0
M  V30 1747 C 159.736 1.47983 -1.25756 0
M  V30 1748 O 159.011 1.91274 -0.352764 0
M  V30 1749 C 159.294 0.503982 -3.56556 0
M  V30 1750 C 159.147 -0.77243 -4.43118 0
M  V30 1751 C 160.466 1.30234 -4.20389 0
M  V30 1752 H 157.585 0.0775486 -0.732909 0
M  V30 1753 H 160.227 -0.496863 -1.83388 0
M  V30 1754 H 158.377 1.11248 -3.72231 0
M  V30 1755 H 160.049 -1.4098 -4.39229 0
M  V30 1756 H 158.292 -1.39167 -4.10871 0
M  V30 1757 H 158.963 -0.526815 -5.4948 0
M  V30 1758 H 161.439 0.787546 -4.08579 0
M  V30 1759 H 160.315 1.47158 -5.28806 0
M  V30 1760 H 160.576 2.31237 -3.76805 0
M  V30 1761 N 159.635 1.57281 -0.100228 0
M  V30 1762 C 160.598 2.13158 0.842398 0
M  V30 1763 C 161.598 1.06202 1.20738 0
M  V30 1764 O 162.788 1.32066 1.13597 0
M  V30 1765 C 159.92 2.65639 2.13655 0
M  V30 1766 H 161.113 2.97766 0.357114 0
M  V30 1767 H 158.666 1.5559 0.148823 0
M  V30 1768 H 159.401 1.84566 2.66657 0
M  V30 1769 H 159.186 3.43844 1.88451 0
M  V30 1770 H 160.676 3.08846 2.81077 0
M  V30 1771 N 161.113 -0.173488 1.56642 0
M  V30 1772 C 162.529 -0.525174 1.50712 0
M  V30 1773 C 162.729 -1.8476 0.804107 0
M  V30 1774 O 161.785 -2.49869 0.363574 0
M  V30 1775 C 163.098 -0.559937 2.95441 0
M  V30 1776 C 164.646 -0.647288 3.06234 0
M  V30 1777 C 165.121 -0.712963 4.52417 0
M  V30 1778 N 166.612 -0.775911 4.56655 0
M  V30 1779 C 167.347 -0.847264 5.67106 0
M  V30 1780 N 166.843 -0.879585 6.87194 0
M  V30 1781 N 168.636 -0.886117 5.55071 0
M  V30 1782 H 160.787 0.693681 2.00753 0
M  V30 1783 H 163.05 0.249841 0.914485 0
M  V30 1784 H 162.756 0.343049 3.50023 0
M  V30 1785 H 162.63 -1.40718 3.49969 0
M  V30 1786 H 165.017 -1.5407 2.51687 0
M  V30 1787 H 165.098 0.226586 2.54794 0
M  V30 1788 H 164.742 0.176183 5.07594 0
M  V30 1789 H 164.672 -1.60295 5.0161 0
M  V30 1790 H 167.163 -0.759304 3.70193 0
M  V30 1791 H 167.476 -0.935144 7.67121 0
M  V30 1792 H 165.821 -0.847898 6.89808 0
M  V30 1793 H 169.012 -0.857853 4.60172 0
M  V30 1794 H 169.185 -0.938263 6.41171 0
M  V30 1795 N 162.591 -1.51276 -0.441967 0
M  V30 1796 C 164.007 -1.39349 -0.778083 0
M  V30 1797 C 164.207 -0.472212 -1.95889 0
M  V30 1798 O 163.263 0.0743551 -2.5239 0
M  V30 1799 C 164.576 -2.81292 -1.0628 0
M  V30 1800 C 166.124 -2.9041 -1.16751 0
M  V30 1801 C 166.599 -4.33251 -1.48519 0
M  V30 1802 N 168.09 -4.36336 -1.55453 0
M  V30 1803 C 168.825 -5.43885 -1.81596 0
M  V30 1804 N 168.321 -6.61601 -2.05562 0
M  V30 1805 N 170.114 -5.3136 -1.8334 0
M  V30 1806 H 162.265 -2.09729 0.335774 0
M  V30 1807 H 164.528 -0.943925 0.0878028 0
M  V30 1808 H 164.234 -3.50678 -0.267905 0
M  V30 1809 H 164.108 -3.20334 -1.99163 0
M  V30 1810 H 166.495 -2.21225 -1.95304 0
M  V30 1811 H 166.576 -2.54871 -0.217801 0
M  V30 1812 H 166.22 -5.02984 -0.704958 0
M  V30 1813 H 166.15 -4.66299 -2.44689 0
M  V30 1814 H 168.641 -3.51466 -1.38853 0
M  V30 1815 H 168.954 -7.39361 -2.24867 0
M  V30 1816 H 167.299 -6.64725 -2.02894 0
M  V30 1817 H 170.49 -4.38382 -1.64132 0
M  V30 1818 H 170.663 -6.15258 -2.03377 0
M  V30 1819 N 164.069 0.697108 -1.41344 0
M  V30 1820 C 164.979 1.84088 -1.45427 0
M  V30 1821 C 165.995 1.70545 -0.34501 0
M  V30 1822 O 167.171 1.92488 -0.592492 0
M  V30 1823 C 164.236 3.20056 -1.33286 0
M  V30 1824 C 163.297 3.45718 -2.54514 0
M  V30 1825 C 162.53 4.75199 -2.42944 0
M  V30 1826 O 162.753 5.51579 -1.45318 0
M  V30 1827 O 161.687 5.0161 -3.32672 0
M  V30 1828 H 165.513 1.836 -2.41919 0
M  V30 1829 H 163.098 0.849966 -1.22866 0
M  V30 1830 H 164.98 4.01236 -1.28794 0
M  V30 1831 H 163.655 3.2123 -0.39909 0
M  V30 1832 H 162.562 2.64474 -2.64583 0
M  V30 1833 H 163.895 3.49356 -3.46715 0
M  V30 1834 N 165.547 1.27147 0.931209 0
M  V30 1835 C 166.51 1.09615 2.01289 0
M  V30 1836 C 167.51 0.0412581 1.60747 0
M  V30 1837 O 168.7 0.285545 1.71844 0
M  V30 1838 C 165.832 0.669447 3.34262 0
M  V30 1839 H 167.025 2.05662 2.18273 0
M  V30 1840 H 164.578 1.09885 1.11153 0
M  V30 1841 H 165.313 -0.292572 3.22978 0
M  V30 1842 H 165.098 1.43127 3.65044 0
M  V30 1843 H 166.588 0.568921 4.13706 0
M  V30 1844 N 167.025 -1.13721 1.09112 0
M  V30 1845 C 168.274 -1.84275 0.82009 0
M  V30 1846 C 168.587 -1.84253 -0.656509 0
M  V30 1847 O 169.793 -2.50668 -1.04296 0
M  V30 1848 C 168.249 -3.30825 1.41714 0
M  V30 1849 C 167.857 -3.39244 2.92605 0
M  V30 1850 C 169.601 -4.06443 1.22492 0
M  V30 1851 C 167.508 -4.80047 3.45411 0
M  V30 1852 H 166.438 -0.690387 0.30312 0
M  V30 1853 H 169.089 -1.28146 1.31343 0
M  V30 1854 H 167.471 -3.86737 0.851498 0
M  V30 1855 H 168.645 -2.93344 3.55367 0
M  V30 1856 H 166.96 -2.77088 3.10823 0
M  V30 1857 H 169.557 -5.10387 1.59402 0
M  V30 1858 H 169.9 -4.15972 0.165299 0
M  V30 1859 H 170.433 -3.56852 1.75788 0
M  V30 1860 H 167.172 -4.75709 4.50978 0
M  V30 1861 H 166.692 -5.26455 2.87411 0
M  V30 1862 H 168.371 -5.48957 3.42425 0
M  V30 1863 N 168.503 -0.877838 -1.30888 0
M  V30 1864 C 169.413 -0.343096 -2.32078 0
M  V30 1865 C 170.429 0.551022 -1.65045 0
M  V30 1866 O 171.605 0.445854 -1.96403 0
M  V30 1867 C 168.67 0.439905 -3.43898 0
M  V30 1868 C 167.731 -0.483111 -4.26573 0
M  V30 1869 C 166.964 0.262616 -5.33053 0
M  V30 1870 O 167.187 1.48967 -5.50604 0
M  V30 1871 O 166.121 -0.383593 -6.00676 0
M  V30 1872 H 169.947 -1.18203 -2.79753 0
M  V30 1873 H 167.532 -0.64145 -1.34929 0
M  V30 1874 H 169.414 0.883504 -4.12034 0
M  V30 1875 H 168.089 1.25526 -2.98371 0
M  V30 1876 H 166.996 -0.975374 -3.61161 0
M  V30 1877 H 168.329 -1.26427 -4.75686 0
M  V30 1878 N 169.982 1.44106 -0.638065 0
M  V30 1879 C 170.892 2.34513 0.0637334 0
M  V30 1880 C 171.908 1.53018 0.828346 0
M  V30 1881 O 173.084 1.85723 0.779036 0
M  V30 1882 C 170.149 3.31095 1.02844 0
M  V30 1883 C 169.21 4.28497 0.26244 0
M  V30 1884 C 168.443 5.20465 1.1812 0
M  V30 1885 O 168.666 5.16514 2.42011 0
M  V30 1886 O 167.6 5.98251 0.661774 0
M  V30 1887 H 171.426 2.95989 -0.68003 0
M  V30 1888 H 169.011 1.43994 -0.398252 0
M  V30 1889 H 170.893 3.90526 1.58327 0
M  V30 1890 H 169.568 2.72144 1.7527 0
M  V30 1891 H 168.475 3.72592 -0.335602 0
M  V30 1892 H 169.808 4.90388 -0.421936 0
M  V30 1893 N 171.46 0.379036 1.52974 0
M  V30 1894 C 172.423 -0.448865 2.24762 0
M  V30 1895 C 173.423 -0.998689 1.26027 0
M  V30 1896 O 174.613 -0.882313 1.50203 0
M  V30 1897 C 171.745 -1.62872 2.99476 0
M  V30 1898 H 172.938 0.179491 2.99362 0
M  V30 1899 H 170.491 0.13096 1.5575 0
M  V30 1900 H 171.226 -2.29479 2.29151 0
M  V30 1901 H 171.011 -1.24128 3.71934 0
M  V30 1902 H 172.501 -2.2151 3.5401 0
M  V30 1903 N 172.938 -1.57226 0.108567 0
M  V30 1904 C 174.186 -1.94448 -0.550853 0
M  V30 1905 C 174.507 -0.992074 -1.67878 0
M  V30 1906 O 173.777 -0.0465 -1.95845 0
M  V30 1907 H 172.357 -0.717897 -0.206479 0
M  V30 1908 H 175.019 -1.94112 0.175062 0
M  V30 1909 H 174.115 -2.97218 -0.952259 0
M  V30 1910 N 174.416 0.165178 -1.56732 0
M  V30 1911 C 175.346 1.20651 -1.99914 0
M  V30 1912 C 176.327 1.45827 -0.875705 0
M  V30 1913 O 177.512 1.57057 -1.14223 0
M  V30 1914 C 174.642 2.54401 -2.36427 0
M  V30 1915 C 173.596 2.43782 -3.51787 0
M  V30 1916 C 172.922 3.82078 -3.7406 0
M  V30 1917 C 174.222 1.93732 -4.85041 0
M  V30 1918 H 175.916 0.847534 -2.87154 0
M  V30 1919 H 173.462 0.40625 -1.38151 0
M  V30 1920 H 175.415 3.27458 -2.65234 0
M  V30 1921 H 174.139 2.92098 -1.46103 0
M  V30 1922 H 172.798 1.73178 -3.23117 0
M  V30 1923 H 172.446 4.17179 -2.81017 0
M  V30 1924 H 172.146 3.7584 -4.51684 0
M  V30 1925 H 173.67 4.56712 -4.05274 0
M  V30 1926 H 175.084 2.56569 -5.12684 0
M  V30 1927 H 173.481 1.98428 -5.66345 0
M  V30 1928 H 174.551 0.891962 -4.76626 0
M  V30 1929 N 175.894 1.51508 0.433938 0
M  V30 1930 C 177.143 1.63578 1.18005 0
M  V30 1931 C 177.456 0.359514 1.92268 0
M  V30 1932 O 178.662 0.359632 2.69108 0
M  V30 1933 C 177.118 2.88901 2.14626 0
M  V30 1934 C 176.726 4.23544 1.45995 0
M  V30 1935 C 178.47 3.10328 2.89649 0
M  V30 1936 C 176.377 5.40014 2.4112 0
M  V30 1937 H 175.307 0.609277 0.444182 0
M  V30 1938 H 177.958 1.77978 0.446773 0
M  V30 1939 H 176.34 2.68142 2.91403 0
M  V30 1940 H 177.514 4.54696 0.747532 0
M  V30 1941 H 175.829 4.08021 0.831115 0
M  V30 1942 H 178.426 3.94518 3.60915 0
M  V30 1943 H 178.769 2.23544 3.51189 0
M  V30 1944 H 179.302 3.31443 2.19978 0
M  V30 1945 H 176.041 6.29068 1.84264 0
M  V30 1946 H 175.561 5.13233 3.10406 0
M  V30 1947 H 177.24 5.72099 3.02177 0
M  V30 1948 N 177.372 -0.689602 1.41712 0
M  V30 1949 C 178.618 -1.45181 1.41599 0
M  V30 1950 C 178.951 -1.94181 0.0270081 0
M  V30 1951 O 178.226 -1.6993 -0.946265 0
M  V30 1952 C 178.509 -2.65945 2.42787 0
M  V30 1953 C 178.362 -2.22672 3.90816 0
M  V30 1954 C 179.681 -3.68149 2.41151 0
M  V30 1955 H 176.8 -0.526576 0.515642 0
M  V30 1956 H 179.442 -0.784947 1.73028 0
M  V30 1957 H 177.592 -3.2284 2.16116 0
M  V30 1958 H 179.264 -1.71058 4.28412 0
M  V30 1959 H 177.507 -1.54394 4.05395 0
M  V30 1960 H 178.178 -3.0935 4.57172 0
M  V30 1961 H 180.654 -3.2094 2.64834 0
M  V30 1962 H 179.53 -4.50248 3.13955 0
M  V30 1963 H 179.791 -4.18259 1.43221 0
M  V30 1964 N 178.85 -1.27639 -0.924453 0
M  V30 1965 C 179.797 -1.10644 -2.0255 0
M  V30 1966 C 180.767 -0.00658438 -1.66099 0
M  V30 1967 O 181.952 -0.16952 -1.90045 0
M  V30 1968 C 179.092 -0.76309 -3.36557 0
M  V30 1969 C 178.205 -1.94091 -3.85944 0
M  V30 1970 C 177.34 -1.53914 -5.08413 0
M  V30 1971 C 176.379 -2.68425 -5.50104 0
M  V30 1972 N 175.516 -2.28815 -6.63768 0
M  V30 1973 H 180.356 -2.04858 -2.16419 0
M  V30 1974 H 177.893 -1.01974 -1.06017 0
M  V30 1975 H 179.851 -0.544822 -4.13627 0
M  V30 1976 H 178.481 0.142102 -3.22487 0
M  V30 1977 H 177.533 -2.27162 -3.05125 0
M  V30 1978 H 178.845 -2.7998 -4.12811 0
M  V30 1979 H 177.999 -1.28231 -5.92994 0
M  V30 1980 H 176.738 -0.651391 -4.8333 0
M  V30 1981 H 175.743 -2.94819 -4.64071 0
M  V30 1982 H 176.968 -3.57826 -5.7718 0
M  V30 1983 H 174.914 -1.42495 -6.40337 0
M  V30 1984 H 174.831 -3.08242 -6.90306 0
M  V30 1985 H 176.099 -2.06387 -7.51681 0
M  V30 1986 N 180.328 1.1314 -1.09713 0
M  V30 1987 C 181.744 1.36477 -0.827423 0
M  V30 1988 C 181.944 1.93654 0.556817 0
M  V30 1989 O 181 2.15791 1.31112 0
M  V30 1990 C 182.313 2.31334 -1.92106 0
M  V30 1991 C 183.861 2.44943 -1.94864 0
M  V30 1992 C 184.336 3.4311 -3.0338 0
M  V30 1993 N 185.827 3.50662 -3.02639 0
M  V30 1994 C 186.562 4.2651 -3.83246 0
M  V30 1995 N 186.058 5.05485 -4.73768 0
M  V30 1996 N 187.851 4.2184 -3.71493 0
M  V30 1997 H 180.002 0.743807 -1.9895 0
M  V30 1998 H 182.265 0.389823 -0.864143 0
M  V30 1999 H 181.971 1.96483 -2.91698 0
M  V30 2000 H 181.845 3.31381 -1.80184 0
M  V30 2001 H 184.232 2.79079 -0.959099 0
M  V30 2002 H 184.313 1.4481 -2.10864 0
M  V30 2003 H 183.957 3.09704 -4.02549 0
M  V30 2004 H 183.887 4.43055 -2.84622 0
M  V30 2005 H 186.378 2.94315 -2.37039 0
M  V30 2006 H 186.691 5.60675 -5.3185 0
M  V30 2007 H 185.036 5.04708 -4.77802 0
M  V30 2008 H 188.227 3.5922 -3.00131 0
M  V30 2009 H 188.4 4.80697 -4.3455 0
M  V30 2010 N 181.806 0.884767 1.30421 0
M  V30 2011 C 183.034 0.518044 2.0031 0
M  V30 2012 C 183.449 -0.893408 1.66324 0
M  V30 2013 O 182.806 -1.5875 0.900262 0
M  V30 2014 C 182.857 0.682997 3.54989 0
M  V30 2015 O 182.578 2.03888 3.87764 0
M  V30 2016 C 184.079 0.31924 4.42149 0
M  V30 2017 H 181.299 0.200265 0.640418 0
M  V30 2018 H 183.843 1.19001 1.6631 0
M  V30 2019 H 181.998 0.0584052 3.87356 0
M  V30 2020 H 182.412 2.05735 4.82466 0
M  V30 2021 H 183.886 0.485555 5.4986 0
M  V30 2022 H 184.363 -0.742717 4.32875 0
M  V30 2023 H 184.969 0.920147 4.15227 0
M  V30 2024 N 183.284 -1.43765 0.645699 0
M  V30 2025 C 184.231 -2.30745 -0.0504648 0
M  V30 2026 C 185.201 -1.4432 -0.822241 0
M  V30 2027 O 186.386 -1.73202 -0.800358 0
M  V30 2028 C 183.526 -3.29802 -1.0161 0
M  V30 2029 C 182.639 -4.31326 -0.241219 0
M  V30 2030 C 181.774 -5.17469 -1.19998 0
M  V30 2031 C 180.813 -6.10691 -0.415094 0
M  V30 2032 N 179.95 -6.89483 -1.32506 0
M  V30 2033 H 184.79 -2.8973 0.697155 0
M  V30 2034 H 182.327 -1.42738 0.355563 0
M  V30 2035 H 184.285 -3.85734 -1.58949 0
M  V30 2036 H 182.915 -2.72483 -1.73069 0
M  V30 2037 H 181.967 -3.77749 0.448334 0
M  V30 2038 H 183.279 -4.9743 0.369437 0
M  V30 2039 H 182.433 -5.7799 -1.84424 0
M  V30 2040 H 181.172 -4.51473 -1.84455 0
M  V30 2041 H 180.177 -5.49265 0.242565 0
M  V30 2042 H 181.402 -6.78727 0.224966 0
M  V30 2043 H 179.348 -6.26142 -1.95657 0
M  V30 2044 H 179.265 -7.52081 -0.768783 0
M  V30 2045 H 180.533 -7.54516 -1.9577 0
M  V30 2046 N 184.763 -0.387143 -1.52771 0
M  V30 2047 C 186.174 0.0873634 -1.86495 0
M  V30 2048 C 186.525 1.46336 -1.30691 0
M  V30 2049 O 185.65 2.068 -0.637409 0
M  V30 2050 C 186.245 0.165305 -3.38396 0
M  V30 2051 C 184.804 0.584101 -3.7184 0
M  V30 2052 C 183.951 -0.255279 -2.76122 0
M  V30 2053 H 186.902 -0.605104 -1.46711 0
M  V30 2054 H 186.923 0.984848 -3.67534 0
M  V30 2055 H 186.435 -0.836301 -3.78982 0
M  V30 2056 H 184.536 1.59315 -3.36823 0
M  V30 2057 H 184.649 0.343749 -4.77865 0
M  V30 2058 H 183.013 0.279126 -2.53166 0
M  V30 2059 H 183.796 -1.25482 -3.19545 0
M  V30 2060 N 186.241 1.57166 -0.116904 0
M  V30 2061 C 187.487 1.95412 0.542405 0
M  V30 2062 C 187.82 1.00019 1.66463 0
M  V30 2063 O 187.095 0.0370346 1.94465 0
M  V30 2064 C 187.378 3.43615 1.07708 0
M  V30 2065 C 187.231 4.49781 -0.0415868 0
M  V30 2066 C 188.55 3.93616 1.96861 0
M  V30 2067 H 185.669 0.710543 0.195696 0
M  V30 2068 H 188.311 1.89027 -0.192038 0
M  V30 2069 H 186.461 3.49187 1.70296 0
M  V30 2070 H 188.133 4.56308 -0.676793 0
M  V30 2071 H 186.376 4.28033 -0.705019 0
M  V30 2072 H 187.047 5.50733 0.373717 0
M  V30 2073 H 189.523 3.90335 1.44146 0
M  V30 2074 H 188.399 4.97838 2.3119 0
M  V30 2075 H 188.66 3.34188 2.89432 0
M  V30 2076 N 187.719 -0.156864 1.56817 0
M  V30 2077 C 188.649 -1.19589 2.00551 0
M  V30 2078 C 189.63 -1.4536 0.883426 0
M  V30 2079 O 190.815 -1.56449 1.15054 0
M  V30 2080 C 187.945 -2.53143 2.37773 0
M  V30 2081 C 186.899 -2.41913 3.53075 0
M  V30 2082 C 186.225 -3.80088 3.76081 0
M  V30 2083 C 187.525 -1.91157 4.86062 0
M  V30 2084 H 189.219 -0.832293 2.87599 0
M  V30 2085 H 186.765 -0.398918 1.38364 0
M  V30 2086 H 188.718 -3.26047 2.66967 0
M  V30 2087 H 187.442 -2.91319 1.4765 0
M  V30 2088 H 186.101 -1.71462 3.24031 0
M  V30 2089 H 185.749 -4.15683 2.83225 0
M  V30 2090 H 185.449 -3.73439 4.53671 0
M  V30 2091 H 186.973 -4.54556 4.0769 0
M  V30 2092 H 188.387 -2.53846 5.14038 0
M  V30 2093 H 186.784 -1.95422 5.67389 0
M  V30 2094 H 187.854 -0.866673 4.77092 0
M  V30 2095 N 189.197 -1.51736 -0.425897 0
M  V30 2096 C 190.422 -1.69082 -1.20108 0
M  V30 2097 C 190.847 -0.392398 -1.83962 0
M  V30 2098 O 190.205 0.64858 -1.69302 0
M  V30 2099 C 190.253 -2.81604 -2.25237 0
M  V30 2100 O 189.357 -2.46004 -3.30992 0
M  V30 2101 H 188.698 -0.563408 -0.35138 0
M  V30 2102 H 191.228 -1.98358 -0.501512 0
M  V30 2103 H 191.238 -3.06025 -2.69838 0
M  V30 2104 H 189.913 -3.75817 -1.78142 0
M  V30 2105 H 188.49 -2.32195 -2.91787 0
M  V30 2106 N 190.675 0.682077 -1.42076 0
M  V30 2107 C 191.922 1.44215 -1.42156 0
M  V30 2108 C 192.25 1.94468 -0.0354186 0
M  V30 2109 O 191.505 1.70816 0.955002 0
M  V30 2110 C 191.804 2.66036 -2.38662 0
M  V30 2111 C 191.47 2.34366 -3.85206 0
M  V30 2112 C 190.132 2.25439 -4.25124 0
M  V30 2113 C 192.484 2.08513 -4.77673 0
M  V30 2114 C 189.812 1.88775 -5.55501 0
M  V30 2115 C 192.164 1.73354 -6.08384 0
M  V30 2116 C 190.828 1.62933 -6.47309 0
M  V30 2117 H 190.098 0.527718 -0.520187 0
M  V30 2118 H 192.745 0.778387 -1.74967 0
M  V30 2119 H 191.05 3.3741 -1.99152 0
M  V30 2120 H 192.747 3.24205 -2.35991 0
M  V30 2121 H 189.337 2.42213 -3.53597 0
M  V30 2122 H 193.521 2.14346 -4.47626 0
M  V30 2123 H 188.777 1.7927 -5.84527 0
M  V30 2124 H 192.951 1.52373 -6.79526 0
M  V30 2125 H 190.578 1.34292 -7.48244 0
M  V30 2126 N 192.153 1.28127 0.917671 0
M  V30 2127 C 193.083 1.14248 2.03641 0
M  V30 2128 C 194.064 0.0412748 1.7005 0
M  V30 2129 O 195.249 0.217566 1.92977 0
M  V30 2130 C 192.379 0.799431 3.37974 0
M  V30 2131 C 191.333 1.85497 3.85713 0
M  V30 2132 C 190.659 1.36565 5.16966 0
M  V30 2133 C 191.959 3.26085 4.08002 0
M  V30 2134 H 193.653 2.07835 2.15511 0
M  V30 2135 H 191.199 1.00064 1.03553 0
M  V30 2136 H 193.152 0.689114 4.15727 0
M  V30 2137 H 191.876 -0.172145 3.26146 0
M  V30 2138 H 190.535 1.95437 3.10161 0
M  V30 2139 H 190.183 0.383253 5.01538 0
M  V30 2140 H 189.883 2.07143 5.49878 0
M  V30 2141 H 191.407 1.26848 5.97279 0
M  V30 2142 H 192.821 3.19089 4.76293 0
M  V30 2143 H 191.218 3.94462 4.52238 0
M  V30 2144 H 192.288 3.70394 3.12948 0
M  V30 2145 N 193.631 -1.12557 1.10312 0
M  V30 2146 C 194.594 -2.16434 0.75424 0
M  V30 2147 C 195.594 -1.59278 -0.220685 0
M  V30 2148 O 196.784 -1.742 0.00230591 0
M  V30 2149 C 193.916 -3.40699 0.116987 0
M  V30 2150 H 195.109 -2.48811 1.67431 0
M  V30 2151 H 192.662 -1.27542 0.903475 0
M  V30 2152 H 193.397 -3.13921 -0.813877 0
M  V30 2153 H 193.182 -3.83459 0.818613 0
M  V30 2154 H 194.672 -4.17451 -0.111387 0
M  V30 2155 N 195.109 -0.891671 -1.2995 0
M  V30 2156 C 196.334 -0.527932 -2.00568 0
M  V30 2157 C 196.759 0.877969 -1.66353 0
M  V30 2158 O 196.117 1.58301 -0.883762 0
M  V30 2159 C 196.165 -0.717745 -3.53385 0
M  V30 2160 O 195.269 0.233376 -4.11739 0
M  V30 2161 H 194.61 -0.20722 -0.630837 0
M  V30 2162 H 197.14 -1.20105 -1.65638 0
M  V30 2163 H 197.15 -0.619307 -4.03272 0
M  V30 2164 H 195.825 -1.74276 -3.77625 0
M  V30 2165 H 194.402 0.0880706 -3.72796 0
M  V30 2166 N 196.587 1.43421 -0.653314 0
M  V30 2167 C 197.998 1.85065 -0.246537 0
M  V30 2168 C 198.349 1.54688 1.2069 0
M  V30 2169 O 197.474 0.995896 1.92122 0
M  V30 2170 C 198.069 3.35922 -0.440666 0
M  V30 2171 C 196.628 3.76297 -0.0882064 0
M  V30 2172 C 195.775 2.67147 -0.743484 0
M  V30 2173 H 198.726 1.33572 -0.856979 0
M  V30 2174 H 198.747 3.79204 0.313798 0
M  V30 2175 H 198.259 3.58 -1.49858 0
M  V30 2176 H 196.36 3.5983 0.96711 0
M  V30 2177 H 196.473 4.76338 -0.513738 0
M  V30 2178 H 194.837 2.54086 -0.176712 0
M  V30 2179 H 195.62 2.92053 -1.80443 0
M  V30 2180 N 198.065 0.39524 1.52563 0
M  V30 2181 C 199.313 -0.184678 2.01254 0
M  V30 2182 C 199.634 -1.46822 1.28329 0
M  V30 2183 O 198.904 -1.91666 0.405094 0
M  V30 2184 H 197.484 -0.0712355 0.743596 0
M  V30 2185 H 200.146 0.528293 1.87603 0
M  V30 2186 H 199.242 -0.390681 3.09645 0
M  V30 2187 N 199.544 -1.57102 0.125237 0
M  V30 2188 C 200.792 -1.95021 -0.530198 0
M  V30 2189 C 201.113 -1.00982 -1.66816 0
M  V30 2190 O 200.383 -0.0672693 -1.95784 0
M  V30 2191 H 198.963 -0.720046 -0.198853 0
M  V30 2192 H 201.625 -1.93916 0.19564 0
M  V30 2193 H 200.721 -2.98211 -0.920681 0
M  V30 2194 N 201.022 0.148545 -1.56898 0
M  V30 2195 C 202.25 0.876389 -1.87422 0
M  V30 2196 C 202.665 1.74809 -0.713256 0
M  V30 2197 O 202.022 1.79725 0.317025 0
M  V30 2198 C 202.073 1.73438 -3.17178 0
M  V30 2199 O 201.794 0.897809 -4.28802 0
M  V30 2200 C 203.295 2.56993 -3.61205 0
M  V30 2201 H 200.515 0.253489 -0.621277 0
M  V30 2202 H 203.059 0.141798 -2.04008 0
M  V30 2203 H 201.214 2.42205 -3.0235 0
M  V30 2204 H 201.628 1.48672 -5.02988 0
M  V30 2205 H 203.102 3.12773 -4.54838 0
M  V30 2206 H 203.579 3.32958 -2.86419 0
M  V30 2207 H 204.185 1.9352 -3.78722 0
M  V30 2208 N 202.5 1.5196 0.417844 0
M  V30 2209 C 203.725 1.69717 1.1921 0
M  V30 2210 C 204.15 0.402148 1.83751 0
M  V30 2211 O 203.508 -0.639593 1.69643 0
M  V30 2212 C 203.556 2.82794 2.2374 0
M  V30 2213 O 202.66 2.47756 3.29683 0
M  V30 2214 H 202.001 0.565263 0.348387 0
M  V30 2215 H 204.531 1.98621 0.490985 0
M  V30 2216 H 204.541 3.07452 2.68212 0
M  V30 2217 H 203.216 3.76756 1.76146 0
M  V30 2218 H 201.793 2.33739 2.90552 0
M  V30 2219 N 203.978 -0.674533 1.42435 0
M  V30 2220 C 204.888 -1.81751 1.48337 0
M  V30 2221 C 205.904 -1.69975 0.372099 0
M  V30 2222 O 207.08 -1.91521 0.62304 0
M  V30 2223 C 204.145 -3.17895 1.38361 0
M  V30 2224 C 203.206 -3.41625 2.59982 0
M  V30 2225 C 202.439 -4.71274 2.50473 0
M  V30 2226 O 202.662 -5.49197 1.54075 0
M  V30 2227 O 201.596 -4.96254 3.4061 0
M  V30 2228 H 205.422 -1.79728 2.44809 0
M  V30 2229 H 203.007 -0.830312 1.24202 0
M  V30 2230 H 204.889 -3.99136 1.35161 0
M  V30 2231 H 203.564 -3.20555 0.450144 0
M  V30 2232 H 202.471 -2.60231 2.68757 0
M  V30 2233 H 203.804 -3.43796 3.52229 0
M  V30 2234 N 205.456 -1.28612 -0.910864 0
M  V30 2235 C 206.872 -1.06381 -1.18976 0
M  V30 2236 C 207.072 0.191998 -2.00583 0
M  V30 2237 O 206.128 0.892869 -2.36187 0
M  V30 2238 C 207.441 -2.31295 -1.92154 0
M  V30 2239 C 208.989 -2.36503 -2.05025 0
M  V30 2240 C 209.464 -3.61191 -2.81612 0
M  V30 2241 N 210.955 -3.61847 -2.89172 0
M  V30 2242 C 211.69 -4.55004 -3.4894 0
M  V30 2243 N 211.186 -5.58482 -4.09963 0
M  V30 2244 N 212.979 -4.42594 -3.46506 0
M  V30 2245 H 205.13 -2.09221 -0.366094 0
M  V30 2246 H 207.393 -0.921003 -0.224629 0
M  V30 2247 H 207.099 -3.228 -1.39618 0
M  V30 2248 H 206.973 -2.37934 -2.9269 0
M  V30 2249 H 209.36 -1.45494 -2.5674 0
M  V30 2250 H 209.441 -2.33857 -1.03657 0
M  V30 2251 H 209.085 -4.52545 -2.30576 0
M  V30 2252 H 209.015 -3.61092 -3.83302 0
M  V30 2253 H 211.506 -2.87022 -2.45819 0
M  V30 2254 H 211.819 -6.25704 -4.53557 0
M  V30 2255 H 210.164 -5.62305 -4.08459 0
M  V30 2256 H 213.355 -3.60953 -2.98045 0
M  V30 2257 H 213.528 -5.15381 -3.92793 0
M  V30 2258 N 206.934 1.1197 -1.10907 0
M  V30 2259 C 208.159 1.87942 -0.877064 0
M  V30 2260 C 208.584 1.79341 0.567314 0
M  V30 2261 O 207.942 1.15184 1.40009 0
M  V30 2262 C 207.99 3.34926 -1.33629 0
M  V30 2263 O 207.094 4.09303 -0.504447 0
M  V30 2264 H 206.435 0.583785 -0.316371 0
M  V30 2265 H 208.965 1.4157 -1.47712 0
M  V30 2266 H 208.975 3.8577 -1.32837 0
M  V30 2267 H 207.65 3.40504 -2.3881 0
M  V30 2268 H 206.227 3.68393 -0.577993 0
M  V30 2269 N 208.412 0.89855 1.29475 0
M  V30 2270 C 209.637 0.538561 2.00285 0
M  V30 2271 C 210.062 -0.869135 1.66816 0
M  V30 2272 O 209.42 -1.57831 0.892145 0
M  V30 2273 C 209.468 0.736475 3.52999 0
M  V30 2274 O 208.572 -0.211537 4.11857 0
M  V30 2275 H 207.913 0.210563 0.62973 0
M  V30 2276 H 210.443 1.20982 1.64998 0
M  V30 2277 H 210.453 0.640685 4.02938 0
M  V30 2278 H 209.128 1.76276 3.76696 0
M  V30 2279 H 207.705 -0.0682991 3.72837 0
M  V30 2280 N 209.89 -1.43072 0.660911 0
M  V30 2281 C 211.139 -2.00942 0.174735 0
M  V30 2282 C 211.452 -1.52797 -1.22117 0
M  V30 2283 O 212.658 -2.02991 -1.80297 0
M  V30 2284 C 211.114 -3.58948 0.261559 0
M  V30 2285 C 210.722 -4.16085 1.66064 0
M  V30 2286 C 212.466 -4.24173 -0.166617 0
M  V30 2287 C 210.373 -5.6641 1.70098 0
M  V30 2288 H 209.303 -0.751483 0.0615631 0
M  V30 2289 H 211.954 -1.63955 0.824069 0
M  V30 2290 H 210.336 -3.93372 -0.455421 0
M  V30 2291 H 211.51 -3.93147 2.40359 0
M  V30 2292 H 209.825 -3.6326 2.03546 0
M  V30 2293 H 212.422 -5.34471 -0.156433 0
M  V30 2294 H 212.765 -3.98647 -1.19943 0
M  V30 2295 H 213.298 -3.94659 0.498875 0
M  V30 2296 H 210.037 -5.96715 2.71315 0
M  V30 2297 H 209.557 -5.91382 1.00139 0
M  V30 2298 H 211.236 -6.30585 1.44816 0
M  V30 2299 N 211.368 -0.403325 -1.52352 0
M  V30 2300 C 212.301 0.469463 -2.23319 0
M  V30 2301 C 213.279 1.05272 -1.23922 0
M  V30 2302 O 214.463 1.10169 -1.52954 0
M  V30 2303 C 211.59 1.6511 -2.9573 0
M  V30 2304 C 210.636 1.19178 -4.0951 0
M  V30 2305 S 211.469 0.161718 -5.35256 0
M  V30 2306 C 212.625 1.34882 -6.11194 0
M  V30 2307 H 212.858 -0.133134 -2.97002 0
M  V30 2308 H 210.391 -0.187588 -1.53256 0
M  V30 2309 H 212.349 2.3287 -3.38056 0
M  V30 2310 H 211.01 2.22503 -2.21701 0
M  V30 2311 H 210.203 2.07444 -4.59329 0
M  V30 2312 H 209.805 0.592911 -3.6927 0
M  V30 2313 H 212.097 2.27345 -6.38217 0
M  V30 2314 H 213.04 0.89128 -7.02468 0
M  V30 2315 H 213.448 1.57198 -5.42171 0
M  V30 2316 N 212.846 1.57033 -0.133567 0
M  V30 2317 C 214.092 1.95976 0.521649 0
M  V30 2318 C 214.425 1.01779 1.65393 0
M  V30 2319 O 213.7 0.0576581 1.94415 0
M  V30 2320 C 213.983 3.44738 1.04057 0
M  V30 2321 C 213.836 4.49711 -0.0892897 0
M  V30 2322 C 215.155 3.95682 1.92675 0
M  V30 2323 H 212.274 0.712579 0.188149 0
M  V30 2324 H 214.916 1.88813 -0.212076 0
M  V30 2325 H 213.066 3.50973 1.66583 0
M  V30 2326 H 214.738 4.55565 -0.725152 0
M  V30 2327 H 212.981 4.27261 -0.750378 0
M  V30 2328 H 213.652 5.51099 0.315284 0
M  V30 2329 H 216.128 3.91841 1.39998 0
M  V30 2330 H 215.004 5.00262 2.25897 0
M  V30 2331 H 215.265 3.37239 2.85872 0
M  V30 2332 N 214.325 -0.140222 1.56975 0
M  V30 2333 C 215.573 -0.850005 1.83356 0
M  V30 2334 C 215.894 -1.81399 0.71551 0
M  V30 2335 O 215.164 -1.94136 -0.262294 0
M  V30 2336 H 213.744 -0.316886 0.676456 0
M  V30 2337 H 216.406 -0.132608 1.94448 0
M  V30 2338 H 215.502 -1.40814 2.78528 0
M  V30 2339 N 215.803 -1.52179 -0.40978 0
M  V30 2340 C 216.713 -1.78364 -1.52392 0
M  V30 2341 C 217.729 -0.669183 -1.60617 0
M  V30 2342 O 218.905 -0.954518 -1.77344 0
M  V30 2343 C 215.97 -1.92822 -2.88133 0
M  V30 2344 C 215.031 -3.16725 -2.898 0
M  V30 2345 C 214.264 -3.30483 -4.19067 0
M  V30 2346 O 214.487 -2.49522 -5.12928 0
M  V30 2347 O 213.421 -4.2363 -4.27576 0
M  V30 2348 H 217.247 -2.72931 -1.33201 0
M  V30 2349 H 214.832 -1.37016 -0.59557 0
M  V30 2350 H 216.714 -2.04157 -3.68643 0
M  V30 2351 H 215.389 -1.01444 -3.07393 0
M  V30 2352 H 214.296 -3.10848 -2.08146 0
M  V30 2353 H 215.629 -4.07881 -2.75489 0
M  V30 2354 N 217.281 0.66697 -1.42791 0
M  V30 2355 C 218.527 1.4291 -1.43891 0
M  V30 2356 C 218.86 1.94114 -0.0578972 0
M  V30 2357 O 218.135 1.71414 0.91911 0
M  V30 2358 C 218.418 2.62049 -2.46987 0
M  V30 2359 C 218.271 2.16426 -3.94309 0
M  V30 2360 C 219.59 3.64266 -2.46978 0
M  V30 2361 H 216.709 0.518306 -0.523954 0
M  V30 2362 H 219.351 0.757321 -1.74255 0
M  V30 2363 H 217.501 3.19361 -2.21225 0
M  V30 2364 H 219.173 1.64221 -4.31079 0
M  V30 2365 H 217.416 1.47925 -4.078 0
M  V30 2366 H 218.087 3.02038 -4.62036 0
M  V30 2367 H 220.563 3.16686 -2.69906 0
M  V30 2368 H 219.439 4.45196 -3.21079 0
M  V30 2369 H 219.7 4.15927 -1.49857 0
M  V30 2370 N 218.759 1.29093 0.90403 0
M  V30 2371 C 220.036 1.075 1.63411 0
M  V30 2372 C 220.416 -0.382346 2.07609 0
M  V30 2373 O 219.764 -1.37031 1.82851 0
M  V30 2374 C 219.974 2.05858 2.81822 0
M  V30 2375 C 221.322 2.36539 3.52611 0
M  V30 2376 O 222.346 2.04019 2.91984 0
M  V30 2377 O 221.205 2.92085 4.61897 0
M  V30 2378 H 218.299 0.411547 0.717327 0
M  V30 2379 H 220.845 1.40449 0.952479 0
M  V30 2380 H 219.617 3.04037 2.46327 0
M  V30 2381 H 219.24 1.73613 3.57693 0
M  V30 2382 N 220.237 -1.11381 1.11499 0
M  V30 2383 C 221.2 -2.15622 0.777153 0
M  V30 2384 C 222.2 -1.59504 -0.203779 0
M  V30 2385 O 223.39 -1.74188 0.020782 0
M  V30 2386 C 220.522 -3.40556 0.153116 0
M  V30 2387 H 221.715 -2.47021 1.70061 0
M  V30 2388 H 219.268 -1.26577 0.916952 0
M  V30 2389 H 220.003 -3.14767 -0.780536 0
M  V30 2390 H 219.788 -3.8257 0.859238 0
M  V30 2391 H 221.278 -4.17546 -0.0671044 0
M  V30 2392 N 221.715 -0.905404 -1.28997 0
M  V30 2393 C 222.943 -0.549846 -1.9946 0
M  V30 2394 C 223.358 0.866834 -1.67724 0
M  V30 2395 O 222.715 1.57298 -0.925404 0
M  V30 2396 C 222.766 -0.739387 -3.53858 0
M  V30 2397 O 222.487 -2.10031 -3.84472 0
M  V30 2398 C 223.988 -0.389541 -4.41585 0
M  V30 2399 H 221.208 -0.210429 -0.637151 0
M  V30 2400 H 223.752 -1.21632 -1.64396 0
M  V30 2401 H 221.907 -0.120023 -3.87214 0
M  V30 2402 H 222.321 -2.13385 -4.79132 0
M  V30 2403 H 223.795 -0.572972 -5.49018 0
M  V30 2404 H 224.272 0.673756 -4.34001 0
M  V30 2405 H 224.878 -0.986089 -4.1371 0
M  V30 2406 N 223.193 1.4272 -0.668489 0
M  V30 2407 C 224.421 2.05966 -0.196348 0
M  V30 2408 C 224.836 1.50191 1.14403 0
M  V30 2409 O 224.193 0.639208 1.7094 0
M  V30 2410 C 224.244 3.61314 -0.115815 0
M  V30 2411 O 223.965 4.1502 -1.40322 0
M  V30 2412 C 225.466 4.41663 0.380579 0
M  V30 2413 H 222.686 0.663954 -0.0969829 0
M  V30 2414 H 225.23 1.82966 -0.913446 0
M  V30 2415 H 223.385 3.83448 0.551931 0
M  V30 2416 H 223.799 5.08832 -1.27243 0
M  V30 2417 H 225.273 5.5065 0.385848 0
M  V30 2418 H 225.75 4.15792 1.41471 0
M  V30 2419 H 226.356 4.24534 -0.255209 0
M  V30 2420 N 224.671 0.411399 1.52136 0
M  V30 2421 C 225.634 -0.401089 2.25663 0
M  V30 2422 C 226.634 -0.971732 1.28117 0
M  V30 2423 O 227.824 -0.850254 1.52041 0
M  V30 2424 C 224.956 -1.56483 3.02863 0
M  V30 2425 H 226.149 0.24295 2.98914 0
M  V30 2426 H 223.702 0.163968 1.55438 0
M  V30 2427 H 224.437 -2.24567 2.33967 0
M  V30 2428 H 224.222 -1.16211 3.74483 0
M  V30 2429 H 225.712 -2.13951 3.58629 0
M  V30 2430 N 226.149 -1.5696 0.141893 0
M  V30 2431 C 227.374 -2.00754 -0.520838 0
M  V30 2432 C 227.799 -1.0213 -1.57959 0
M  V30 2433 O 227.157 0.00371324 -1.813 0
M  V30 2434 C 227.205 -3.43318 -1.10294 0
M  V30 2435 O 226.309 -3.47679 -2.21795 0
M  V30 2436 H 225.65 -0.651564 -0.127908 0
M  V30 2437 H 228.18 -2.03221 0.23712 0
M  V30 2438 H 228.19 -3.82012 -1.43287 0
M  V30 2439 H 226.865 -4.14608 -0.327574 0
M  V30 2440 H 225.442 -3.20824 -1.9007 0
M  V30 2441 N 227.627 0.131896 -1.57047 0
M  V30 2442 C 228.875 0.840269 -1.83804 0
M  V30 2443 C 229.196 1.81017 -0.72512 0
M  V30 2444 O 228.466 1.94272 0.251995 0
M  V30 2445 H 227.046 0.313294 -0.678127 0
M  V30 2446 H 229.708 0.122294 -1.94516 0
M  V30 2447 H 228.804 1.39335 -2.79271 0
M  V30 2448 N 229.106 1.52395 0.401703 0
M  V30 2449 C 230.355 1.66044 1.14509 0
M  V30 2450 C 230.668 0.400216 1.91462 0
M  V30 2451 O 231.874 0.416632 2.68284 0
M  V30 2452 C 230.33 2.93388 2.0845 0
M  V30 2453 C 229.938 4.26545 1.36978 0
M  V30 2454 C 231.682 3.16402 2.83001 0
M  V30 2455 C 229.589 5.45007 2.29611 0
M  V30 2456 H 228.519 0.618562 0.431158 0
M  V30 2457 H 231.17 1.78886 0.40892 0
M  V30 2458 H 229.552 2.74263 2.8565 0
M  V30 2459 H 230.726 4.56179 0.650916 0
M  V30 2460 H 229.041 4.09692 0.74438 0
M  V30 2461 H 231.638 4.02085 3.52465 0
M  V30 2462 H 231.981 2.30943 3.46368 0
M  V30 2463 H 232.514 3.36034 2.12898 0
M  V30 2464 H 229.253 6.32835 1.70879 0
M  V30 2465 H 228.773 5.19702 2.9945 0
M  V30 2466 H 230.452 5.7838 2.89974 0
M  V30 2467 N 230.584 -0.659388 1.43143 0
M  V30 2468 C 231.534 -1.7655 1.44271 0
M  V30 2469 C 232.518 -1.57847 0.311961 0
M  V30 2470 O 233.71 -1.68064 0.555306 0
M  V30 2471 C 230.839 -3.15104 1.36251 0
M  V30 2472 C 229.925 -3.39377 2.54331 0
M  V30 2473 N 230.316 -3.34153 3.79704 0
M  V30 2474 C 228.614 -3.70072 2.48922 0
M  V30 2475 C 229.315 -3.58337 4.58225 0
M  V30 2476 N 228.291 -3.79851 3.88863 0
M  V30 2477 H 232.093 -1.70928 2.39083 0
M  V30 2478 H 229.607 -0.860823 1.37708 0
M  V30 2479 H 231.604 -3.94389 1.35141 0
M  V30 2480 H 230.264 -3.21913 0.424531 0
M  V30 2481 H 231.275 -3.13704 4.1208 0
M  V30 2482 H 227.952 -3.84034 1.63781 0
M  V30 2483 H 229.342 -3.60129 5.67236 0
M  V30 2484 N 232.062 -1.29571 -0.897171 0
M  V30 2485 C 233.31 -1.17456 -1.64464 0
M  V30 2486 C 233.631 0.273698 -1.9307 0
M  V30 2487 O 232.901 1.18684 -1.55855 0
M  V30 2488 H 231.481 -0.431706 -0.609622 0
M  V30 2489 H 234.143 -1.62531 -1.07562 0
M  V30 2490 H 233.239 -1.72648 -2.59998 0
M  V30 2491 N 233.54 1.10788 -1.12088 0
M  V30 2492 C 234.47 2.19083 -0.807755 0
M  V30 2493 C 235.451 1.6858 0.226859 0
M  V30 2494 O 236.636 1.93997 0.0888475 0
M  V30 2495 C 233.766 3.46344 -0.257576 0
M  V30 2496 C 232.72 4.101 -1.22483 0
M  V30 2497 C 232.046 5.32016 -0.535052 0
M  V30 2498 C 233.346 4.54236 -2.57811 0
M  V30 2499 H 235.04 2.45534 -1.71328 0
M  V30 2500 H 232.586 1.1801 -0.825205 0
M  V30 2501 H 234.539 4.21392 -0.0262679 0
M  V30 2502 H 233.263 3.19373 0.683278 0
M  V30 2503 H 231.922 3.37054 -1.44189 0
M  V30 2504 H 231.57 5.01319 0.410827 0
M  V30 2505 H 231.27 5.75625 -1.18024 0
M  V30 2506 H 232.794 6.09799 -0.312695 0
M  V30 2507 H 234.208 5.20575 -2.40155 0
M  V30 2508 H 232.605 5.08682 -3.18375 0
M  V30 2509 H 233.675 3.6734 -3.16528 0
M  V30 2510 N 235.018 0.912232 1.28515 0
M  V30 2511 C 235.981 0.404223 2.25607 0
M  V30 2512 C 236.981 -0.468602 1.53821 0
M  V30 2513 O 238.171 -0.271873 1.72065 0
M  V30 2514 C 235.303 -0.420653 3.38295 0
M  V30 2515 H 236.496 1.26188 2.7206 0
M  V30 2516 H 234.049 0.691495 1.40171 0
M  V30 2517 H 234.784 -1.29777 2.97201 0
M  V30 2518 H 234.569 0.204935 3.91564 0
M  V30 2519 H 236.059 -0.766971 4.10496 0
M  V30 2520 N 236.496 -1.42363 0.676048 0
M  V30 2521 C 237.773 -1.95183 0.127726 0
M  V30 2522 C 238.153 -1.61641 -1.35777 0
M  V30 2523 O 237.501 -0.913216 -2.09458 0
M  V30 2524 C 237.711 -3.46721 0.398199 0
M  V30 2525 C 239.059 -4.23427 0.315383 0
M  V30 2526 O 240.083 -3.54649 0.332016 0
M  V30 2527 O 238.942 -5.45888 0.25865 0
M  V30 2528 H 236.036 -0.826992 0.00359427 0
M  V30 2529 H 238.582 -1.52184 0.750864 0
M  V30 2530 H 237.354 -3.64344 1.4272 0
M  V30 2531 H 236.977 -3.96769 -0.256885 0
M  V30 2532 N 237.974 -0.419461 -1.51915 0
M  V30 2533 C 238.884 0.407528 -2.31033 0
M  V30 2534 C 239.9 1.04413 -1.3919 0
M  V30 2535 O 241.076 1.0434 -1.72265 0
M  V30 2536 C 238.141 1.50365 -3.12396 0
M  V30 2537 C 237.202 0.889029 -4.19994 0
M  V30 2538 C 236.435 1.93291 -4.97468 0
M  V30 2539 O 236.658 3.15259 -4.75361 0
M  V30 2540 O 235.592 1.53339 -5.8204 0
M  V30 2541 H 239.418 -0.237865 -3.02767 0
M  V30 2542 H 237.003 -0.182413 -1.48282 0
M  V30 2543 H 238.885 2.13975 -3.63032 0
M  V30 2544 H 237.56 2.13345 -2.43445 0
M  V30 2545 H 236.467 0.215353 -3.7348 0
M  V30 2546 H 237.8 0.302991 -4.91267 0
M  V30 2547 N 239.452 1.56882 -0.150215 0
M  V30 2548 C 240.4 2.18214 0.805313 0
M  V30 2549 C 241.394 1.14006 1.25296 0
M  V30 2550 O 242.6 1.3225 1.22107 0
M  V30 2551 H 238.975 0.698762 0.277913 0
M  V30 2552 H 240.946 2.97231 0.263862 0
M  V30 2553 C 239.695 2.82065 2.03309 0
M  V30 2554 H 239.018 3.61968 1.69763 0
M  V30 2555 H 240.458 3.28477 2.68103 0
M  V30 2556 C 238.917 1.80739 2.84315 0
M  V30 2557 O 239.447 1.27983 3.80767 0
M  V30 2558 N 237.653 1.4997 2.48913 0
M  V30 2559 H 237.2 1.93062 1.70542 0
M  V30 2560 H 237.158 0.824217 3.03404 0
M  V30 2561 N 240.93 -0.123565 1.57115 0
M  V30 2562 C 241.84 -1.17074 2.033 0
M  V30 2563 C 242.856 -1.4561 0.952559 0
M  V30 2564 O 244.032 -1.56817 1.26374 0
M  V30 2565 C 241.097 -2.47857 2.42421 0
M  V30 2566 C 240.158 -2.26758 3.64526 0
M  V30 2567 C 239.391 -3.51305 4.01771 0
M  V30 2568 O 239.614 -4.5843 3.39409 0
M  V30 2569 O 238.548 -3.42578 4.94898 0
M  V30 2570 H 242.374 -0.808555 2.92739 0
M  V30 2571 H 239.959 -0.334027 1.45618 0
M  V30 2572 H 241.841 -3.2492 2.68338 0
M  V30 2573 H 240.516 -2.83558 1.5613 0
M  V30 2574 H 239.423 -1.47569 3.43765 0
M  V30 2575 H 240.756 -1.95963 4.51508 0
M  V30 2576 N 242.408 -1.52605 -0.393616 0
M  V30 2577 C 243.685 -1.58001 -1.15304 0
M  V30 2578 C 244.065 -0.370385 -2.07825 0
M  V30 2579 O 243.413 0.641638 -2.19306 0
M  V30 2580 C 243.623 -2.91652 -1.91677 0
M  V30 2581 C 244.971 -3.4522 -2.47201 0
M  V30 2582 O 245.995 -2.93495 -2.01839 0
M  V30 2583 O 244.854 -4.35579 -3.3005 0
M  V30 2584 H 241.948 -0.637068 -0.527327 0
M  V30 2585 H 244.494 -1.64939 -0.399141 0
M  V30 2586 H 243.266 -3.71136 -1.23992 0
M  V30 2587 H 242.889 -2.88077 -2.74039 0
M  V30 2588 N 243.887 0.651787 -1.4349 0
M  V30 2589 C 245.136 1.40754 -1.44469 0
M  V30 2590 C 245.449 1.95463 -0.0731845 0
M  V30 2591 O 246.655 2.71471 0.0395721 0
M  V30 2592 C 245.111 2.54735 -2.5424 0
M  V30 2593 C 244.719 2.06628 -3.97504 0
M  V30 2594 C 246.463 3.32092 -2.64414 0
M  V30 2595 C 244.37 3.17829 -4.98737 0
M  V30 2596 H 243.3 0.528862 -0.53742 0
M  V30 2597 H 245.951 0.703365 -1.69485 0
M  V30 2598 H 244.333 3.2763 -2.22428 0
M  V30 2599 H 245.507 1.40734 -4.38783 0
M  V30 2600 H 243.822 1.42146 -3.91387 0
M  V30 2601 H 246.419 4.14952 -3.37223 0
M  V30 2602 H 246.762 3.80217 -1.69532 0
M  V30 2603 H 247.295 2.66279 -2.95534 0
M  V30 2604 H 244.034 2.74671 -5.95177 0
M  V30 2605 H 243.554 3.82429 -4.62069 0
M  V30 2606 H 245.233 3.82937 -5.21505 0
M  V30 2607 N 245.365 1.30045 0.890287 0
M  V30 2608 C 246.781 1.08261 1.17268 0
M  V30 2609 C 246.981 -0.160063 2.00863 0
M  V30 2610 O 246.037 -0.855181 2.37577 0
M  V30 2611 C 247.35 2.34323 1.8845 0
M  V30 2612 C 248.898 2.39735 2.01237 0
M  V30 2613 C 249.373 3.65625 2.7583 0
M  V30 2614 N 250.864 3.66402 2.83379 0
M  V30 2615 C 251.599 4.60498 3.41657 0
M  V30 2616 N 251.095 5.64933 4.01026 0
M  V30 2617 N 252.888 4.48051 3.39421 0
M  V30 2618 H 245.039 2.09777 0.332762 0
M  V30 2619 H 247.302 0.92446 0.209948 0
M  V30 2620 H 247.008 3.2498 1.34465 0
M  V30 2621 H 246.882 2.4256 2.88867 0
M  V30 2622 H 249.269 1.4956 2.54393 0
M  V30 2623 H 249.35 2.35476 0.999232 0
M  V30 2624 H 248.994 4.56156 2.23347 0
M  V30 2625 H 248.924 3.67144 3.77509 0
M  V30 2626 H 251.415 2.90896 2.41222 0
M  V30 2627 H 251.728 6.32841 4.43545 0
M  V30 2628 H 250.073 5.68732 3.99461 0
M  V30 2629 H 253.264 3.65649 2.92264 0
M  V30 2630 H 253.437 5.21565 3.84544 0
M  V30 2631 N 246.843 -1.10192 1.12674 0
M  V30 2632 C 248.089 -1.82475 0.884915 0
M  V30 2633 C 248.422 -1.85093 -0.58773 0
M  V30 2634 O 247.697 -1.3134 -1.43457 0
M  V30 2635 C 247.98 -3.29018 1.46353 0
M  V30 2636 C 247.833 -3.34718 3.00473 0
M  V30 2637 C 249.152 -4.25473 1.12519 0
M  V30 2638 H 246.271 -0.662492 0.322915 0
M  V30 2639 H 248.913 -1.2913 1.39375 0
M  V30 2640 H 247.063 -3.74576 1.03077 0
M  V30 2641 H 248.735 -2.97622 3.52447 0
M  V30 2642 H 246.978 -2.74541 3.35872 0
M  V30 2643 H 247.649 -4.37918 3.36053 0
M  V30 2644 H 250.125 -3.88161 1.499 0
M  V30 2645 H 249.001 -5.26365 1.55663 0
M  V30 2646 H 249.262 -4.42084 0.0377407 0
M  V30 2647 N 248.321 -0.919034 -1.28029 0
M  V30 2648 C 249.271 -0.382574 -2.24767 0
M  V30 2649 C 250.255 0.508286 -1.52661 0
M  V30 2650 O 251.447 0.347145 -1.73562 0
M  V30 2651 C 248.576 0.371432 -3.41285 0
M  V30 2652 C 247.662 -0.535449 -4.20706 0
M  V30 2653 N 248.053 -1.65141 -4.78082 0
M  V30 2654 C 246.351 -0.336824 -4.44726 0
M  V30 2655 C 247.052 -2.21475 -5.37888 0
M  V30 2656 N 246.028 -1.50537 -5.22341 0
M  V30 2657 H 249.83 -1.23477 -2.66703 0
M  V30 2658 H 247.344 -0.772299 -1.42861 0
M  V30 2659 H 249.341 0.772638 -4.09678 0
M  V30 2660 H 248.001 1.22066 -3.00882 0
M  V30 2661 H 249.012 -2.03392 -4.7629 0
M  V30 2662 H 245.689 0.47246 -4.14818 0
M  V30 2663 H 247.079 -3.15379 -5.93284 0
M  V30 2664 N 249.799 1.42003 -0.683588 0
M  V30 2665 C 251.045 2.01712 -0.209825 0
M  V30 2666 C 251.378 1.53968 1.18353 0
M  V30 2667 O 250.653 0.745661 1.79639 0
M  V30 2668 C 250.936 3.59202 -0.254197 0
M  V30 2669 C 250.789 4.17102 -1.68363 0
M  V30 2670 C 252.108 4.38344 0.392709 0
M  V30 2671 H 249.227 0.732891 -0.0777189 0
M  V30 2672 H 251.869 1.68909 -0.87004 0
M  V30 2673 H 250.019 3.87278 0.307954 0
M  V30 2674 H 251.691 3.99946 -2.29871 0
M  V30 2675 H 249.934 3.72597 -2.22157 0
M  V30 2676 H 250.605 5.26249 -1.6663 0
M  V30 2677 H 253.081 4.16011 -0.0859162 0
M  V30 2678 H 251.957 5.47901 0.331063 0
M  V30 2679 H 252.218 4.16887 1.47164 0
M  V30 2680 N 251.277 0.427512 1.51691 0
M  V30 2681 C 252.523 -0.142439 2.02299 0
M  V30 2682 C 252.856 -1.43214 1.31162 0
M  V30 2683 O 252.131 -1.89833 0.423511 0
M  V30 2684 C 252.414 -0.371301 3.58181 0
M  V30 2685 C 252.267 0.936358 4.39946 0
M  V30 2686 C 253.586 -1.14542 4.24933 0
M  V30 2687 H 250.705 -0.0502937 0.735282 0
M  V30 2688 H 253.347 0.564584 1.81418 0
M  V30 2689 H 251.497 -0.973559 3.76104 0
M  V30 2690 H 253.169 1.57184 4.33694 0
M  V30 2691 H 251.412 1.5432 4.05423 0
M  V30 2692 H 252.083 0.730388 5.47147 0
M  V30 2693 H 254.559 -0.635362 4.11221 0
M  V30 2694 H 253.435 -1.27431 5.33903 0
M  V30 2695 H 253.696 -2.17093 3.85127 0
M  V30 2696 N 252.755 -1.56801 0.158532 0
M  V30 2697 C 253.98 -2.01295 -0.499516 0
M  V30 2698 C 254.405 -1.03799 -1.56867 0
M  V30 2699 O 253.763 -0.0155162 -1.81293 0
M  V30 2700 C 253.811 -3.44469 -1.06647 0
M  V30 2701 O 252.915 -3.50012 -2.18095 0
M  V30 2702 H 252.256 -0.652884 -0.12099 0
M  V30 2703 H 254.786 -2.02958 0.258661 0
M  V30 2704 H 254.796 -3.8351 -1.39227 0
M  V30 2705 H 253.471 -4.14932 -0.283581 0
M  V30 2706 H 252.048 -3.22822 -1.86656 0
M  V30 2707 N 254.233 0.115231 -1.57178 0
M  V30 2708 C 255.649 0.468877 -1.52557 0
M  V30 2709 C 255.849 1.81649 -0.872125 0
M  V30 2710 O 254.905 2.48347 -0.45606 0
M  V30 2711 C 256.218 0.4499 -2.97315 0
M  V30 2712 C 257.766 0.533185 -3.08425 0
M  V30 2713 C 258.241 0.54456 -4.54751 0
M  V30 2714 N 259.732 0.605892 -4.5922 0
M  V30 2715 C 260.467 0.636203 -5.6986 0
M  V30 2716 N 259.963 0.623931 -6.89985 0
M  V30 2717 N 261.756 0.679496 -5.57978 0
M  V30 2718 H 253.907 -0.767712 -1.9804 0
M  V30 2719 H 256.17 -0.283609 -0.904583 0
M  V30 2720 H 255.876 -0.472721 -3.48509 0
M  V30 2721 H 255.75 1.27632 -3.5495 0
M  V30 2722 H 258.137 1.44623 -2.57232 0
M  V30 2723 H 258.218 -0.320995 -2.53778 0
M  V30 2724 H 257.862 -0.364452 -5.06591 0
M  V30 2725 H 257.792 1.41568 -5.07214 0
M  V30 2726 H 260.283 0.621386 -3.72756 0
M  V30 2727 H 260.596 0.649787 -7.70063 0
M  V30 2728 H 258.941 0.591296 -6.9248 0
M  V30 2729 H 262.132 0.686472 -4.63039 0
M  V30 2730 H 262.305 0.69965 -6.44212 0
M  V30 2731 N 255.711 1.52812 0.385517 0
M  V30 2732 C 256.621 1.80766 1.49535 0
M  V30 2733 C 257.637 0.694651 1.59532 0
M  V30 2734 O 258.813 0.982611 1.75803 0
M  V30 2735 C 255.878 1.97381 2.85029 0
M  V30 2736 C 254.939 3.21295 2.84724 0
M  V30 2737 C 254.172 3.37108 4.13756 0
M  V30 2738 O 254.395 2.5765 5.08893 0
M  V30 2739 O 253.329 4.30378 4.20783 0
M  V30 2740 H 257.155 2.75015 1.28842 0
M  V30 2741 H 254.74 1.37946 0.573697 0
M  V30 2742 H 256.622 2.09996 3.65349 0
M  V30 2743 H 255.297 1.06322 3.05741 0
M  V30 2744 H 254.204 3.1412 2.03174 0
M  V30 2745 H 255.537 4.12212 2.68965 0
M  V30 2746 N 257.189 -0.644168 1.43834 0
M  V30 2747 C 258.121 -1.76955 1.45669 0
M  V30 2748 C 259.134 -1.58956 0.351666 0
M  V30 2749 O 260.323 -1.6751 0.616644 0
M  V30 2750 C 257.423 -3.14507 1.26248 0
M  V30 2751 C 256.596 -3.59083 2.49757 0
M  V30 2752 C 255.655 -4.75467 2.25427 0
M  V30 2753 O 254.681 -4.84444 2.98836 0
M  V30 2754 N 255.883 -5.66289 1.27661 0
M  V30 2755 H 258.648 -1.75856 2.42682 0
M  V30 2756 H 256.209 -0.828312 1.39106 0
M  V30 2757 H 258.201 -3.90067 1.0784 0
M  V30 2758 H 256.771 -3.10325 0.376478 0
M  V30 2759 H 255.991 -2.7387 2.8353 0
M  V30 2760 H 257.279 -3.85613 3.31934 0
M  V30 2761 H 256.677 -5.61718 0.670064 0
M  V30 2762 H 255.234 -6.41533 1.15234 0
M  V30 2763 N 258.668 -1.30515 -0.883378 0
M  V30 2764 C 259.631 -1.1701 -1.97082 0
M  V30 2765 C 260.631 -0.10089 -1.60483 0
M  V30 2766 O 261.821 -0.349127 -1.70666 0
M  V30 2767 C 258.953 -0.793045 -3.31547 0
M  V30 2768 H 260.146 -2.13622 -2.10489 0
M  V30 2769 H 257.699 -1.13935 -1.06998 0
M  V30 2770 H 258.434 0.172499 -3.23841 0
M  V30 2771 H 258.219 -1.56576 -3.5948 0
M  V30 2772 H 259.709 -0.722073 -4.1131 0
M  V30 2773 N 260.146 1.09593 -1.13257 0
M  V30 2774 C 261.376 1.85231 -0.915049 0
M  V30 2775 C 261.784 1.81345 0.539498 0
M  V30 2776 O 261.127 1.20664 1.38513 0
M  V30 2777 C 261.189 3.34275 -1.3229 0
M  V30 2778 C 260.853 3.6191 -2.79052 0
M  V30 2779 C 261.85 3.57777 -3.77216 0
M  V30 2780 C 259.535 3.90309 -3.16171 0
M  V30 2781 C 261.529 3.81652 -5.1051 0
M  V30 2782 C 259.216 4.13839 -4.49644 0
M  V30 2783 C 260.214 4.09502 -5.46623 0
M  V30 2784 O 259.902 4.32426 -6.77689 0
M  V30 2785 H 259.634 0.591997 -0.326367 0
M  V30 2786 H 262.188 1.394 -1.50854 0
M  V30 2787 H 260.418 3.80805 -0.672667 0
M  V30 2788 H 262.107 3.9132 -1.07812 0
M  V30 2789 H 262.873 3.35865 -3.49885 0
M  V30 2790 H 258.752 3.92811 -2.41289 0
M  V30 2791 H 262.296 3.78182 -5.86195 0
M  V30 2792 H 258.193 4.35232 -4.767 0
M  V30 2793 H 258.961 4.49896 -6.83766 0
M  V30 2794 N 261.624 0.925811 1.2754 0
M  V30 2795 C 262.556 0.380753 2.26015 0
M  V30 2796 C 263.569 -0.487485 1.5533 0
M  V30 2797 O 264.758 -0.300413 1.75954 0
M  V30 2798 C 261.858 -0.473259 3.35579 0
M  V30 2799 C 261.031 0.375249 4.35787 0
M  V30 2800 C 260.09 -0.415809 5.24555 0
M  V30 2801 O 259.116 0.175834 5.68928 0
M  V30 2802 N 260.318 -1.71607 5.54555 0
M  V30 2803 H 263.083 1.22725 2.73421 0
M  V30 2804 H 260.644 0.793037 1.41147 0
M  V30 2805 H 262.636 -1.00949 3.91907 0
M  V30 2806 H 261.206 -1.2205 2.87789 0
M  V30 2807 H 260.426 1.09279 3.7875 0
M  V30 2808 H 261.714 0.955399 4.99749 0
M  V30 2809 H 261.112 -2.2191 5.20358 0
M  V30 2810 H 259.669 -2.19887 6.1359 0
M  V30 2811 N 263.102 -1.41638 0.69111 0
M  V30 2812 C 264.348 -2.02104 0.229258 0
M  V30 2813 C 264.703 -1.53741 -1.15678 0
M  V30 2814 O 263.996 -0.736849 -1.76865 0
M  V30 2815 C 264.19 -3.56714 0.221277 0
M  V30 2816 C 264.019 -4.20083 1.605 0
M  V30 2817 C 262.789 -4.54566 2.20676 0
M  V30 2818 C 264.987 -4.46587 2.55078 0
M  V30 2819 N 262.969 -5.03199 3.5166 0
M  V30 2820 C 264.34 -4.96946 3.70735 0
M  V30 2821 C 266.395 -4.28593 2.53401 0
M  V30 2822 C 265.098 -5.31203 4.8499 0
M  V30 2823 C 267.124 -4.63936 3.66765 0
M  V30 2824 C 266.486 -5.14463 4.81152 0
M  V30 2825 H 262.585 -0.771256 0.12918 0
M  V30 2826 H 265.169 -1.72251 0.907626 0
M  V30 2827 H 263.34 -3.86051 -0.426562 0
M  V30 2828 H 265.072 -4.03896 -0.254983 0
M  V30 2829 H 261.827 -4.4087 1.73005 0
M  V30 2830 H 262.251 -5.31926 4.18789 0
M  V30 2831 H 266.893 -3.88771 1.66184 0
M  V30 2832 H 264.611 -5.69951 5.72871 0
M  V30 2833 H 268.197 -4.51677 3.66714 0
M  V30 2834 H 267.077 -5.41299 5.67419 0
M  V30 2835 N 264.58 -0.43555 -1.51462 0
M  V30 2836 C 265.826 0.131709 -2.02372 0
M  V30 2837 C 266.159 1.42516 -1.3192 0
M  V30 2838 O 265.434 1.89606 -0.433573 0
M  V30 2839 C 265.717 0.352301 -3.58373 0
M  V30 2840 C 265.57 -0.959676 -4.39443 0
M  V30 2841 C 266.889 1.12286 -4.25535 0
M  V30 2842 H 264.008 0.0463936 -0.735538 0
M  V30 2843 H 266.65 -0.574197 -1.81116 0
M  V30 2844 H 264.8 0.9536 -3.76615 0
M  V30 2845 H 266.472 -1.59482 -4.32855 0
M  V30 2846 H 264.715 -1.56468 -4.04599 0
M  V30 2847 H 265.386 -0.759394 -5.46752 0
M  V30 2848 H 267.862 0.613545 -4.11552 0
M  V30 2849 H 266.738 1.24598 -5.34571 0
M  V30 2850 H 266.999 2.15048 -3.86273 0
M  V30 2851 N 266.058 1.56714 -0.166846 0
M  V30 2852 C 266.968 2.21331 0.777791 0
M  V30 2853 C 267.984 1.20358 1.25658 0
M  V30 2854 O 269.16 1.53005 1.30964 0
M  V30 2855 C 266.225 2.83787 1.99163 0
M  V30 2856 C 265.286 3.99947 1.56016 0
M  V30 2857 C 264.519 4.59415 2.71613 0
M  V30 2858 O 264.742 4.17769 3.88362 0
M  V30 2859 O 263.676 5.49359 2.45945 0
M  V30 2860 H 267.502 3.02605 0.257636 0
M  V30 2861 H 265.087 1.49275 0.0611393 0
M  V30 2862 H 266.969 3.23405 2.70161 0
M  V30 2863 H 265.644 2.05513 2.50092 0
M  V30 2864 H 264.551 3.65007 0.819809 0
M  V30 2865 H 265.884 4.79801 1.09782 0
M  V30 2866 N 267.536 -0.106894 1.57237 0
M  V30 2867 C 268.446 -1.14911 2.0453 0
M  V30 2868 C 269.462 -1.44592 0.96795 0
M  V30 2869 O 270.638 -1.55468 1.2803 0
M  V30 2870 C 267.703 -2.45272 2.45036 0
M  V30 2871 C 266.764 -2.22879 3.66911 0
M  V30 2872 C 265.997 -3.47024 4.05475 0
M  V30 2873 O 266.22 -4.54804 3.44252 0
M  V30 2874 O 265.154 -3.3731 4.98504 0
M  V30 2875 H 268.98 -0.777461 2.9358 0
M  V30 2876 H 266.565 -0.318563 1.45964 0
M  V30 2877 H 268.447 -3.22055 2.71769 0
M  V30 2878 H 267.122 -2.81886 1.59129 0
M  V30 2879 H 266.029 -1.43915 3.45311 0
M  V30 2880 H 267.362 -1.91163 4.53561 0
M  V30 2881 N 269.014 -1.53014 -0.377408 0
M  V30 2882 C 270.262 -1.6829 -1.11906 0
M  V30 2883 C 270.583 -0.431206 -1.90173 0
M  V30 2884 O 269.853 0.554595 -1.87886 0
M  V30 2885 H 268.433 -0.620371 -0.416112 0
M  V30 2886 H 271.095 -1.90167 -0.426893 0
M  V30 2887 H 270.191 -2.53862 -1.8155 0
M  V30 2888 N 270.492 0.636531 -1.44174 0
M  V30 2889 C 271.439 1.74875 -1.50624 0
M  V30 2890 C 272.409 1.62275 -0.35442 0
M  V30 2891 O 273.594 1.82276 -0.563908 0
M  V30 2892 C 270.734 3.13102 -1.45125 0
M  V30 2893 C 269.847 3.36717 -2.7064 0
M  V30 2894 C 268.982 4.64885 -2.57013 0
M  V30 2895 C 268.021 4.8166 -3.77717 0
M  V30 2896 N 267.158 6.01101 -3.62798 0
M  V30 2897 H 271.998 1.68697 -2.45653 0
M  V30 2898 H 269.535 0.823004 -1.21922 0
M  V30 2899 H 271.493 3.93034 -1.39929 0
M  V30 2900 H 270.123 3.18308 -0.536671 0
M  V30 2901 H 269.175 2.50763 -2.86046 0
M  V30 2902 H 270.487 3.44993 -3.60252 0
M  V30 2903 H 269.641 5.52969 -2.49619 0
M  V30 2904 H 268.38 4.58957 -1.64953 0
M  V30 2905 H 267.385 3.92007 -3.85501 0
M  V30 2906 H 268.61 4.89406 -4.70807 0
M  V30 2907 H 266.556 5.96273 -2.73486 0
M  V30 2908 H 266.473 6.10409 -4.46023 0
M  V30 2909 H 267.741 6.91761 -3.59286 0
M  V30 2910 N 271.97 1.30982 0.876444 0
M  V30 2911 C 273.219 1.19658 1.62373 0
M  V30 2912 C 273.532 -0.245636 1.94052 0
M  V30 2913 O 274.738 -0.48049 2.67214 0
M  V30 2914 C 273.194 2.09433 2.92687 0
M  V30 2915 C 272.802 3.58613 2.68516 0
M  V30 2916 C 274.546 2.06893 3.70669 0
M  V30 2917 C 272.453 4.40416 3.94699 0
M  V30 2918 H 271.383 0.444268 0.609214 0
M  V30 2919 H 274.034 1.55791 0.969605 0
M  V30 2920 H 272.416 1.66191 3.59439 0
M  V30 2921 H 273.59 4.10058 2.10212 0
M  V30 2922 H 271.905 3.63063 2.03898 0
M  V30 2923 H 274.502 2.65258 4.64265 0
M  V30 2924 H 274.845 1.05448 4.02724 0
M  V30 2925 H 275.378 2.48301 3.10792 0
M  V30 2926 H 272.117 5.42591 3.67798 0
M  V30 2927 H 271.637 3.93731 4.52477 0
M  V30 2928 H 273.316 4.52294 4.62644 0
M  V30 2929 N 273.449 -1.08991 1.13837 0
M  V30 2930 C 274.726 -1.77863 0.813876 0
M  V30 2931 C 275.106 -1.99375 -0.693746 0
M  V30 2932 O 274.454 -1.59875 -1.63255 0
M  V30 2933 C 274.664 -3.0986 1.60586 0
M  V30 2934 C 276.012 -3.84493 1.8014 0
M  V30 2935 O 277.036 -3.19624 1.57222 0
M  V30 2936 O 275.895 -5.00957 2.18413 0
M  V30 2937 H 272.989 -0.771589 0.297624 0
M  V30 2938 H 275.535 -1.15507 1.24323 0
M  V30 2939 H 274.307 -2.89715 2.63022 0
M  V30 2940 H 273.93 -3.79942 1.17173 0
M  V30 2941 N 274.927 -0.932562 -1.27047 0
M  V30 2942 C 275.875 -0.42603 -2.28665 0
M  V30 2943 C 276.869 0.49219 -1.62092 0
M  V30 2944 O 278.075 0.371355 -1.76128 0
M  V30 2945 H 274.45 -0.119213 -0.742491 0
M  V30 2946 H 276.421 -1.29579 -2.68797 0
M  V30 2947 C 275.17 0.301426 -3.46391 0
M  V30 2948 H 274.493 -0.39595 -3.97834 0
M  V30 2949 H 275.933 0.6202 -4.1944 0
M  V30 2950 C 274.392 1.51616 -3.00856 0
M  V30 2951 O 274.922 2.61476 -3.04948 0
M  V30 2952 N 273.128 1.36969 -2.56296 0
M  V30 2953 H 272.675 0.475873 -2.53166 0
M  V30 2954 H 272.633 2.18368 -2.26192 0
M  V30 2955 N 276.405 1.4127 -0.698611 0
M  V30 2956 C 277.368 2.29158 -0.044132 0
M  V30 2957 C 278.368 1.44529 0.704841 0
M  V30 2958 O 279.558 1.65643 0.539276 0
M  V30 2959 C 276.69 3.27459 0.947809 0
M  V30 2960 H 277.883 2.88529 -0.817994 0
M  V30 2961 H 275.436 1.49307 -0.46228 0
M  V30 2962 H 276.171 2.73073 1.74933 0
M  V30 2963 H 275.956 3.8991 0.41385 0
M  V30 2964 H 277.446 3.93311 1.40344 0
M  V30 2965 N 277.883 0.443576 1.51229 0
M  V30 2966 C 278.846 -0.353132 2.26463 0
M  V30 2967 C 279.846 -0.944338 1.3015 0
M  V30 2968 O 281.036 -0.817813 1.5381 0
M  V30 2969 C 278.168 -1.50023 3.06114 0
M  V30 2970 H 279.361 0.3063 2.98332 0
M  V30 2971 H 276.914 0.196902 1.55055 0
M  V30 2972 H 277.649 -2.19553 2.38677 0
M  V30 2973 H 277.434 -1.08241 3.76864 0
M  V30 2974 H 278.924 -2.06296 3.63087 0
M  V30 2975 N 279.361 -1.56624 0.175154 0
M  V30 2976 C 280.586 -2.01813 -0.478137 0
M  V30 2977 C 281.011 -1.05457 -1.55757 0
M  V30 2978 O 280.369 -0.0347439 -1.81267 0
M  V30 2979 C 280.417 -3.45581 -1.02987 0
M  V30 2980 O 279.521 -3.52305 -2.14371 0
M  V30 2981 H 278.862 -0.65413 -0.114059 0
M  V30 2982 H 281.392 -2.02673 0.280173 0
M  V30 2983 H 281.402 -3.84965 -1.35151 0
M  V30 2984 H 280.077 -4.1521 -0.239556 0
M  V30 2985 H 278.654 -3.24783 -1.83222 0
M  V30 2986 N 280.839 0.0985539 -1.57292 0
M  V30 2987 C 282.085 0.803867 -1.86188 0
M  V30 2988 C 282.418 1.78549 -0.763794 0
M  V30 2989 O 281.693 1.93153 0.22855 0
M  V30 2990 C 281.976 1.53568 -3.25713 0
M  V30 2991 C 281.829 0.572277 -4.46145 0
M  V30 2992 C 283.148 2.48708 -3.63087 0
M  V30 2993 H 280.267 0.290781 -0.677211 0
M  V30 2994 H 282.909 0.0675783 -1.8988 0
M  V30 2995 H 281.059 2.16332 -3.22696 0
M  V30 2996 H 282.731 -0.0480894 -4.61275 0
M  V30 2997 H 280.974 -0.114618 -4.33649 0
M  V30 2998 H 281.645 1.12139 -5.40489 0
M  V30 2999 H 284.121 1.96039 -3.67026 0
M  V30 3000 H 282.997 2.96932 -4.61652 0
M  V30 3001 H 283.258 3.32309 -2.91588 0
M  V30 3002 N 282.317 1.53212 0.369288 0
M  V30 3003 C 283.566 1.68436 1.10961 0
M  V30 3004 C 283.879 0.440738 1.9057 0
M  V30 3005 O 285.085 0.473446 2.6734 0
M  V30 3006 C 283.541 2.97744 2.0218 0
M  V30 3007 C 283.149 4.29355 1.279 0
M  V30 3008 C 284.893 3.22334 2.76226 0
M  V30 3009 C 282.8 5.49755 2.17999 0
M  V30 3010 H 281.73 0.627568 0.41794 0
M  V30 3011 H 284.381 1.79713 0.370884 0
M  V30 3012 H 282.763 2.8026 2.79768 0
M  V30 3013 H 283.937 4.57458 0.554007 0
M  V30 3014 H 282.252 4.11179 0.657311 0
M  V30 3015 H 284.849 4.09471 3.43857 0
M  V30 3016 H 285.192 2.38238 3.41392 0
M  V30 3017 H 285.725 3.40475 2.05723 0
M  V30 3018 H 282.464 6.36318 1.57417 0
M  V30 3019 H 281.984 5.25937 2.88359 0
M  V30 3020 H 283.663 5.84401 2.77641 0
M  V30 3021 N 283.795 -0.628877 1.44509 0
M  V30 3022 C 284.758 -1.72263 1.51188 0
M  V30 3023 C 285.758 -1.55907 0.39367 0
M  V30 3024 O 286.948 -1.61361 0.656377 0
M  V30 3025 C 284.08 -3.11365 1.38798 0
M  V30 3026 H 285.273 -1.67714 2.4862 0
M  V30 3027 H 282.826 -0.842737 1.31634 0
M  V30 3028 H 283.561 -3.21507 0.424693 0
M  V30 3029 H 283.346 -3.24644 2.19884 0
M  V30 3030 H 284.836 -3.91075 1.46458 0
M  V30 3031 N 285.273 -1.31445 -0.869486 0
M  V30 3032 C 286.203 -1.21727 -1.99261 0
M  V30 3033 C 287.184 -0.104359 -1.6978 0
M  V30 3034 O 288.369 -0.289038 -1.92037 0
M  V30 3035 C 285.499 -0.924317 -3.34774 0
M  V30 3036 C 284.453 -1.99685 -3.78563 0
M  V30 3037 C 283.779 -1.55658 -5.11541 0
M  V30 3038 C 285.079 -3.41003 -3.95619 0
M  V30 3039 H 286.773 -2.1569 -2.07649 0
M  V30 3040 H 284.319 -1.03839 -0.997675 0
M  V30 3041 H 286.272 -0.842934 -4.12883 0
M  V30 3042 H 284.996 0.0509793 -3.2656 0
M  V30 3043 H 283.655 -2.06813 -3.02694 0
M  V30 3044 H 283.303 -0.569132 -4.9977 0
M  V30 3045 H 283.003 -2.27409 -5.41811 0
M  V30 3046 H 284.527 -1.48928 -5.92159 0
M  V30 3047 H 285.941 -3.36547 -4.64122 0
M  V30 3048 H 284.338 -4.10975 -4.37286 0
M  V30 3049 H 285.408 -3.81754 -2.98985 0
M  V30 3050 N 286.751 1.08385 -1.14413 0
M  V30 3051 C 287.683 2.1519 -0.789036 0
M  V30 3052 C 288.696 1.61638 0.19417 0
M  V30 3053 O 289.885 1.78479 -0.0275711 0
M  V30 3054 C 286.985 3.38565 -0.15058 0
M  V30 3055 C 286.158 4.21501 -1.16857 0
M  V30 3056 C 285.217 5.23277 -0.553832 0
M  V30 3057 O 284.243 5.56041 -1.21686 0
M  V30 3058 N 285.445 5.76629 0.669296 0
M  V30 3059 H 288.21 2.46257 -1.70814 0
M  V30 3060 H 285.771 1.24198 -1.03858 0
M  V30 3061 H 287.763 4.03777 0.273181 0
M  V30 3062 H 286.333 3.05299 0.671667 0
M  V30 3063 H 285.553 3.52265 -1.76926 0
M  V30 3064 H 286.841 4.73731 -1.85624 0
M  V30 3065 H 286.239 5.52243 1.22654 0
M  V30 3066 H 284.796 6.43521 1.03556 0
M  V30 3067 N 288.23 0.939286 1.26551 0
M  V30 3068 C 289.476 0.596234 1.94465 0
M  V30 3069 C 289.831 -0.855013 1.72358 0
M  V30 3070 O 289.124 -1.6034 1.04889 0
M  V30 3071 C 289.318 0.872106 3.46596 0
M  V30 3072 C 289.147 2.34862 3.83497 0
M  V30 3073 C 287.917 3.00344 4.06352 0
M  V30 3074 C 290.115 3.32697 3.92195 0
M  V30 3075 N 288.097 4.38027 4.30123 0
M  V30 3076 C 289.468 4.55631 4.20476 0
M  V30 3077 C 291.523 3.27747 3.74815 0
M  V30 3078 C 290.226 5.74233 4.33185 0
M  V30 3079 C 292.252 4.45672 3.88755 0
M  V30 3080 C 291.614 5.67388 4.17433 0
M  V30 3081 H 287.713 0.268515 0.734455 0
M  V30 3082 H 290.297 1.2083 1.5267 0
M  V30 3083 H 288.468 0.289102 3.87323 0
M  V30 3084 H 290.2 0.490513 4.01716 0
M  V30 3085 H 286.955 2.50969 4.01636 0
M  V30 3086 H 287.379 5.09288 4.46044 0
M  V30 3087 H 292.021 2.34703 3.51673 0
M  V30 3088 H 289.739 6.67731 4.55149 0
M  V30 3089 H 293.325 4.43372 3.76713 0
M  V30 3090 H 292.205 6.57115 4.27983 0
M  V30 3091 N 289.708 -1.40897 0.706093 0
M  V30 3092 C 290.638 -2.33418 0.0620085 0
M  V30 3093 C 291.619 -1.52385 -0.755827 0
M  V30 3094 O 292.804 -1.80886 -0.706674 0
M  V30 3095 C 289.934 -3.36293 -0.867445 0
M  V30 3096 C 288.888 -4.27716 -0.155932 0
M  V30 3097 C 288.214 -5.2105 -1.20046 0
M  V30 3098 C 289.514 -5.12944 0.984149 0
M  V30 3099 H 291.208 -2.87527 0.83477 0
M  V30 3100 H 288.754 -1.38249 0.402875 0
M  V30 3101 H 290.707 -3.99949 -1.32735 0
M  V30 3102 H 289.431 -2.80556 -1.67199 0
M  V30 3103 H 288.09 -3.65498 0.284047 0
M  V30 3104 H 287.738 -4.61624 -1.99781 0
M  V30 3105 H 287.438 -5.83056 -0.729328 0
M  V30 3106 H 288.962 -5.87584 -1.66066 0
M  V30 3107 H 290.376 -5.70109 0.604048 0
M  V30 3108 H 288.773 -5.83945 1.38304 0
M  V30 3109 H 289.843 -4.49485 1.81911 0
M  V30 3110 N 291.186 -0.45159 -1.50991 0
M  V30 3111 C 292.118 0.388634 -2.25881 0
M  V30 3112 C 293.131 0.974041 -1.30446 0
M  V30 3113 O 294.32 0.865758 -1.56099 0
M  V30 3114 C 291.42 1.5571 -3.01011 0
M  V30 3115 C 290.593 1.08801 -4.23652 0
M  V30 3116 C 289.652 2.12825 -4.8124 0
M  V30 3117 O 288.678 1.71678 -5.42693 0
M  V30 3118 N 289.88 3.45453 -4.66522 0
M  V30 3119 H 292.645 -0.25329 -2.98628 0
M  V30 3120 H 290.206 -0.281268 -1.59438 0
M  V30 3121 H 292.198 2.24952 -3.3642 0
M  V30 3122 H 290.768 2.10409 -2.31186 0
M  V30 3123 H 289.988 0.22215 -3.93574 0
M  V30 3124 H 291.276 0.752213 -5.03209 0
M  V30 3125 H 290.674 3.81605 -4.17605 0
M  V30 3126 H 289.231 4.10549 -5.06254 0
M  V30 3127 N 292.664 1.56529 -0.183458 0
M  V30 3128 C 293.594 2.21549 0.737456 0
M  V30 3129 C 294.575 1.17489 1.23005 0
M  V30 3130 O 295.76 1.45959 1.281 0
M  V30 3131 C 292.89 2.86575 1.96194 0
M  V30 3132 C 291.844 3.96778 1.60473 0
M  V30 3133 C 291.17 4.48911 2.90487 0
M  V30 3134 C 292.47 5.15767 0.823497 0
M  V30 3135 H 294.164 2.98761 0.195453 0
M  V30 3136 H 291.71 1.43702 0.0925686 0
M  V30 3137 H 293.663 3.30739 2.61131 0
M  V30 3138 H 292.387 2.06749 2.52828 0
M  V30 3139 H 291.046 3.53286 0.978997 0
M  V30 3140 H 290.694 3.65862 3.45186 0
M  V30 3141 H 290.394 5.23265 2.67335 0
M  V30 3142 H 291.918 4.95771 3.56432 0
M  V30 3143 H 293.332 5.56549 1.37571 0
M  V30 3144 H 291.729 5.96114 0.690551 0
M  V30 3145 H 292.799 4.84574 -0.177782 0
M  V30 3146 N 294.142 -0.090211 1.57342 0
M  V30 3147 C 295.092 -1.11557 1.98844 0
M  V30 3148 C 296.076 -1.35503 0.867624 0
M  V30 3149 O 297.268 -1.36113 1.13148 0
M  V30 3150 C 294.397 -2.43446 2.42051 0
M  V30 3151 C 293.483 -2.22853 3.60828 0
M  V30 3152 N 293.874 -1.72141 4.75606 0
M  V30 3153 C 292.172 -2.53401 3.67021 0
M  V30 3154 C 292.873 -1.65932 5.57531 0
M  V30 3155 N 291.849 -2.11323 5.00843 0
M  V30 3156 H 295.651 -0.716499 2.85032 0
M  V30 3157 H 293.165 -0.297567 1.59651 0
M  V30 3158 H 295.162 -3.17644 2.70014 0
M  V30 3159 H 293.822 -2.84087 1.57241 0
M  V30 3160 H 294.833 -1.41268 4.98261 0
M  V30 3161 H 291.51 -2.97532 2.92884 0
M  V30 3162 H 292.9 -1.27733 6.59647 0
M  V30 3163 N 295.62 -1.53406 -0.361157 0
M  V30 3164 C 296.57 -1.76536 -1.44287 0
M  V30 3165 C 297.554 -0.620019 -1.48474 0
M  V30 3166 O 298.746 -0.878834 -1.53641 0
M  V30 3167 C 295.875 -1.96266 -2.81664 0
M  V30 3168 C 294.961 -3.16815 -2.81938 0
M  V30 3169 N 295.352 -4.38637 -2.51855 0
M  V30 3170 C 293.65 -3.17627 -3.13096 0
M  V30 3171 C 294.351 -5.20401 -2.59919 0
M  V30 3172 N 293.327 -4.56712 -2.94814 0
M  V30 3173 H 297.129 -2.68331 -1.19899 0
M  V30 3174 H 294.643 -1.52091 -0.56938 0
M  V30 3175 H 296.64 -2.10966 -3.59582 0
M  V30 3176 H 295.3 -1.05702 -3.07013 0
M  V30 3177 H 296.311 -4.66293 -2.25369 0
M  V30 3178 H 292.988 -2.36971 -3.43731 0
M  V30 3179 H 294.378 -6.27586 -2.39969 0
M  V30 3180 N 297.098 0.621204 -1.44841 0
M  V30 3181 C 298.03 1.74615 -1.48466 0
M  V30 3182 C 299.043 1.58377 -0.37691 0
M  V30 3183 O 300.232 1.66508 -0.643215 0
M  V30 3184 C 297.332 3.12459 -1.31236 0
M  V30 3185 C 296.505 3.55064 -2.55438 0
M  V30 3186 C 295.564 4.71821 -2.32963 0
M  V30 3187 O 294.59 4.79628 -3.06505 0
M  V30 3188 N 295.792 5.64186 -1.36654 0
M  V30 3189 H 298.557 1.71973 -2.45449 0
M  V30 3190 H 296.118 0.806077 -1.40407 0
M  V30 3191 H 298.11 3.88302 -1.14032 0
M  V30 3192 H 296.68 3.09686 -0.4258 0
M  V30 3193 H 295.9 2.69324 -2.87851 0
M  V30 3194 H 297.188 3.80284 -3.38026 0
M  V30 3195 H 296.586 5.6058 -0.759344 0
M  V30 3196 H 295.143 6.39618 -1.25425 0
M  V30 3197 N 298.576 1.31904 0.862503 0
M  V30 3198 C 299.539 1.20131 1.95195 0
M  V30 3199 C 300.539 0.126409 1.60302 0
M  V30 3200 O 301.729 0.376234 1.70089 0
M  V30 3201 C 298.861 0.845691 3.30244 0
M  V30 3202 H 300.054 2.16943 2.07064 0
M  V30 3203 H 297.607 1.15622 1.05172 0
M  V30 3204 H 298.342 -0.120957 3.24074 0
M  V30 3205 H 298.127 1.62276 3.56944 0
M  V30 3206 H 299.617 0.787418 4.10109 0
M  V30 3207 N 300.054 -1.07777 1.14986 0
M  V30 3208 C 300.984 -2.16865 0.865557 0
M  V30 3209 C 301.965 -1.69123 -0.182083 0
M  V30 3210 O 303.15 -1.94164 -0.0373815 0
M  V30 3211 C 300.28 -3.45539 0.349313 0
M  V30 3212 C 299.234 -4.06708 1.33313 0
M  V30 3213 C 298.56 -5.30411 0.675918 0
M  V30 3214 C 299.86 -4.47241 2.69764 0
M  V30 3215 H 301.554 -2.40905 1.77778 0
M  V30 3216 H 299.1 -1.15781 0.856203 0
M  V30 3217 H 301.053 -4.21174 0.137983 0
M  V30 3218 H 299.777 -3.21072 -0.598362 0
M  V30 3219 H 298.436 -3.33112 1.53075 0
M  V30 3220 H 298.084 -5.02232 -0.277767 0
M  V30 3221 H 297.784 -5.72293 1.33244 0
M  V30 3222 H 299.308 -6.08755 0.474262 0
M  V30 3223 H 300.722 -5.14025 2.53873 0
M  V30 3224 H 299.119 -5.00062 3.3175 0
M  V30 3225 H 300.189 -3.58818 3.26156 0
M  V30 3226 N 301.532 -0.945985 -1.26051 0
M  V30 3227 C 302.479 -0.45809 -2.26208 0
M  V30 3228 C 303.449 0.484816 -1.58867 0
M  V30 3229 O 304.634 0.399969 -1.86561 0
M  V30 3230 C 301.774 0.266131 -3.44072 0
M  V30 3231 C 300.887 -0.713005 -4.26075 0
M  V30 3232 C 300.022 0.0329013 -5.3119 0
M  V30 3233 C 299.061 -0.93774 -6.04874 0
M  V30 3234 N 298.198 -0.223274 -7.01745 0
M  V30 3235 H 303.038 -1.3171 -2.67313 0
M  V30 3236 H 300.575 -0.66069 -1.31428 0
M  V30 3237 H 302.533 0.702514 -4.11243 0
M  V30 3238 H 301.163 1.08925 -3.03867 0
M  V30 3239 H 300.215 -1.26789 -3.58648 0
M  V30 3240 H 301.527 -1.45406 -4.77136 0
M  V30 3241 H 300.681 0.528335 -6.04395 0
M  V30 3242 H 299.42 0.806801 -4.8098 0
M  V30 3243 H 298.425 -1.44425 -5.30492 0
M  V30 3244 H 299.65 -1.71172 -6.57173 0
M  V30 3245 H 297.596 0.532046 -6.53839 0
M  V30 3246 H 297.513 -0.90357 -7.50581 0
M  V30 3247 H 298.781 0.250907 -7.79096 0
M  V30 3248 N 303.011 1.40521 -0.713556 0
M  V30 3249 C 303.959 2.32549 -0.0485227 0
M  V30 3250 C 304.953 1.51931 0.74922 0
M  V30 3251 O 306.159 1.67745 0.652816 0
M  V30 3252 H 302.534 0.751994 0.00311138 0
M  V30 3253 H 304.505 2.86291 -0.841443 0
M  V30 3254 C 303.254 3.36879 0.860687 0
M  V30 3255 H 302.577 3.98978 0.256246 0
M  V30 3256 H 304.017 4.03772 1.294 0
M  V30 3257 C 302.476 2.72197 1.9852 0
M  V30 3258 O 303.006 2.5837 3.07584 0
M  V30 3259 N 301.212 2.30612 1.76823 0
M  V30 3260 H 300.759 2.42059 0.881217 0
M  V30 3261 H 300.717 1.87672 2.52243 0
M  V30 3262 N 304.489 0.459591 1.5075 0
M  V30 3263 C 305.399 -0.34613 2.32033 0
M  V30 3264 C 306.415 -1.00686 1.41909 0
M  V30 3265 O 307.591 -0.997361 1.7497 0
M  V30 3266 C 304.656 -1.42029 3.16273 0
M  V30 3267 C 303.717 -0.777362 4.22203 0
M  V30 3268 C 302.95 -1.80034 5.02418 0
M  V30 3269 O 303.173 -3.02544 4.83553 0
M  V30 3270 O 302.107 -1.37853 5.85901 0
M  V30 3271 H 305.933 0.318054 3.0203 0
M  V30 3272 H 303.518 0.221663 1.47746 0
M  V30 3273 H 305.4 -2.04275 3.68578 0
M  V30 3274 H 304.075 -2.06815 2.49016 0
M  V30 3275 H 302.982 -0.116256 3.73919 0
M  V30 3276 H 304.315 -0.172634 4.91897 0
M  V30 3277 N 305.967 -1.56429 0.191757 0
M  V30 3278 C 307.213 -1.98541 -0.441943 0
M  V30 3279 C 307.568 -1.07646 -1.59468 0
M  V30 3280 O 306.861 -0.120191 -1.91223 0
M  V30 3281 C 307.055 -3.44449 -0.953384 0
M  V30 3282 C 306.884 -4.49456 0.148262 0
M  V30 3283 C 305.654 -5.01668 0.604781 0
M  V30 3284 C 307.852 -5.05336 0.95602 0
M  V30 3285 N 305.834 -5.90334 1.6846 0
M  V30 3286 C 307.205 -5.9064 1.88531 0
M  V30 3287 C 309.26 -4.87779 0.998811 0
M  V30 3288 C 307.963 -6.60264 2.85383 0
M  V30 3289 C 309.989 -5.58139 1.95537 0
M  V30 3290 C 309.351 -6.43187 2.8721 0
M  V30 3291 H 305.45 -0.771247 -0.129236 0
M  V30 3292 H 308.034 -1.92426 0.296682 0
M  V30 3293 H 306.205 -3.5107 -1.66146 0
M  V30 3294 H 307.937 -3.73533 -1.55741 0
M  V30 3295 H 304.692 -4.73183 0.198736 0
M  V30 3296 H 305.116 -6.39371 2.22561 0
M  V30 3297 H 309.758 -4.21705 0.304048 0
M  V30 3298 H 307.476 -7.25538 3.55837 0
M  V30 3299 H 311.062 -5.46532 1.99484 0
M  V30 3300 H 309.942 -6.96674 3.60022 0
M  V30 3301 N 307.445 0.0818655 -1.57387 0
M  V30 3302 C 308.408 1.08265 -2.02018 0
M  V30 3303 C 309.408 1.32183 -0.915664 0
M  V30 3304 O 310.598 1.28073 -1.18081 0
M  V30 3305 C 307.73 2.42871 -2.39221 0
M  V30 3306 H 308.923 0.698204 -2.91659 0
M  V30 3307 H 306.476 0.327303 -1.52835 0
M  V30 3308 H 307.211 2.86167 -1.52575 0
M  V30 3309 H 306.996 2.26855 -3.19811 0
M  V30 3310 H 308.486 3.14826 -2.74362 0
M  V30 3311 O 308.962 1.59916 0.225637 0
M  V30 3312 H 309.653 1.73205 0.867161 0
M  V30 END ATOM
M  V30 BEGIN BOND
M  V30 END BOND
M  V30 END CTAB
M  END
$$$$
