drugbank_target|P39265 D-allose-binding periplasmic protein (DB03989)
 OpenBabel12092119573D

  0  0  0     0  0            999 V3000
M  V30 BEGIN CTAB
M  V30 COUNTS 4678 4710 0 0 0
M  V30 BEGIN ATOM
M  V30 1 H -0.908 1.98254 -0.117106 0
M  V30 2 N 0 1.576 0 0
M  V30 3 C 0.933 2.03868 1.02534 0
M  V30 4 C 1.911 0.928543 1.3348 0
M  V30 5 O 3.095 1.19667 1.45644 0
M  V30 6 C 0.222 2.43627 2.35294 0
M  V30 7 C -0.732 3.65373 2.2001 0
M  V30 8 S 0.101 5.13292 1.52614 0
M  V30 9 C 1.257 5.56322 2.86805 0
M  V30 10 H 1.49 2.90518 0.631377 0
M  V30 11 H -0.977 1.52953 0.210867 0
M  V30 12 H 0.981 2.67203 3.11629 0
M  V30 13 H -0.358 1.57376 2.7183 0
M  V30 14 H -1.165 3.90944 3.18086 0
M  V30 15 H -1.563 3.418 1.51819 0
M  V30 16 H 0.729 5.58782 3.83104 0
M  V30 17 H 1.672 6.56266 2.65933 0
M  V30 18 H 2.08 4.83886 2.90714 0
M  V30 19 N 1.4781 -0.272755 1.55222 0
M  V30 20 C 2.4261 -1.35705 1.88909 0
M  V30 21 C 3.4201 -1.5112 0.765456 0
M  V30 22 O 4.6261 -1.52901 0.949802 0
M  V30 23 H 1.0011 -0.453868 0.59959 0
M  V30 24 H 2.9721 -1.04544 2.79487 0
M  V30 25 C 1.7211 -2.71049 2.17779 0
M  V30 26 H 1.0441 -2.59979 3.03728 0
M  V30 27 H 2.4841 -3.45858 2.45272 0
M  V30 28 C 0.9431 -3.22165 0.985473 0
M  V30 29 O 1.4731 -4.01096 0.220233 0
M  V30 30 N -0.3209 -2.7985 0.783108 0
M  V30 31 H -0.7739 -2.15775 1.40708 0
M  V30 32 H -0.8159 -3.14397 -0.0130392 0
M  V30 33 N 2.9562 -1.48159 -0.537278 0
M  V30 34 C 3.9032 -1.62138 -1.64256 0
M  V30 35 C 4.8732 -0.463668 -1.59497 0
M  V30 36 O 6.0582 -0.686241 -1.78032 0
M  V30 37 C 3.1982 -1.66028 -3.02537 0
M  V30 38 C 2.3112 -2.92855 -3.17585 0
M  V30 39 C 1.4462 -2.87952 -4.46382 0
M  V30 40 C 0.4852 -4.09516 -4.54932 0
M  V30 41 N -0.3778 -4.02733 -5.75109 0
M  V30 42 H 4.4622 -2.56529 -1.51647 0
M  V30 43 H 1.9992 -1.27224 -0.738414 0
M  V30 44 H 3.9572 -1.66265 -3.82638 0
M  V30 45 H 2.5872 -0.751331 -3.13934 0
M  V30 46 H 1.6392 -3.02395 -2.30784 0
M  V30 47 H 2.9512 -3.82822 -3.19764 0
M  V30 48 H 2.1052 -2.8655 -5.34765 0
M  V30 49 H 0.8442 -1.95702 -4.46712 0
M  V30 50 H -0.1508 -4.11201 -3.64957 0
M  V30 51 H 1.0742 -5.02917 -4.56346 0
M  V30 52 H -0.9798 -3.13299 -5.76351 0
M  V30 53 H -1.0628 -4.86397 -5.78752 0
M  V30 54 H 0.2052 -4.05379 -6.65799 0
M  V30 55 N 4.4343 0.785586 -1.36625 0
M  V30 56 C 5.6643 1.5722 -1.34036 0
M  V30 57 C 6.0723 1.89033 0.0795062 0
M  V30 58 O 5.4153 1.50881 1.04789 0
M  V30 59 C 5.4773 2.91759 -2.10041 0
M  V30 60 C 5.1413 2.82654 -3.59104 0
M  V30 61 C 6.1383 2.54634 -4.53274 0
M  V30 62 C 3.8233 3.01111 -4.02042 0
M  V30 63 C 5.8173 2.45177 -5.88359 0
M  V30 64 C 3.5043 2.91276 -5.37216 0
M  V30 65 C 4.5023 2.63348 -6.30188 0
M  V30 66 O 4.1903 2.53514 -7.6288 0
M  V30 67 H 3.9223 0.494177 -0.461265 0
M  V30 68 H 6.4763 0.982632 -1.8037 0
M  V30 69 H 4.7063 3.52781 -1.58375 0
M  V30 70 H 6.3953 3.53059 -2.00261 0
M  V30 71 H 7.1613 2.40073 -4.21414 0
M  V30 72 H 3.0403 3.21854 -3.30047 0
M  V30 73 H 6.5843 2.23299 -6.60896 0
M  V30 74 H 2.4813 3.054 -5.68684 0
M  V30 75 H 3.2493 2.68967 -7.73045 0
M  V30 76 N 5.9124 1.20967 1.01018 0
M  V30 77 C 6.8424 0.988272 2.11555 0
M  V30 78 C 7.8234 -0.0849778 1.69888 0
M  V30 79 O 9.0084 0.0738202 1.9406 0
M  V30 80 C 6.1384 0.546528 3.42973 0
M  V30 81 C 5.0924 1.56375 3.9841 0
M  V30 82 C 4.4184 0.97842 5.25672 0
M  V30 83 C 5.7184 2.94922 4.31066 0
M  V30 84 H 7.4124 1.91276 2.30334 0
M  V30 85 H 4.9584 0.921073 1.1069 0
M  V30 86 H 6.9114 0.378839 4.19694 0
M  V30 87 H 5.6354 -0.413598 3.23971 0
M  V30 88 H 4.2944 1.71891 3.23804 0
M  V30 89 H 3.9424 0.0101688 5.02999 0
M  V30 90 H 3.6424 1.65784 5.63728 0
M  V30 91 H 5.1664 0.821939 6.05043 0
M  V30 92 H 6.5804 2.8288 4.9865 0
M  V30 93 H 4.9774 3.5983 4.80253 0
M  V30 94 H 6.0474 3.4616 3.39561 0
M  V30 95 N 7.3905 -1.2043 1.01659 0
M  V30 96 C 8.3375 -2.23215 0.586822 0
M  V30 97 C 9.3075 -1.61382 -0.393085 0
M  V30 98 O 10.4925 -1.88544 -0.292525 0
M  V30 99 C 7.6325 -3.45032 -0.0687464 0
M  V30 100 C 6.7455 -4.21296 0.955724 0
M  V30 101 C 5.8805 -5.30507 0.271208 0
M  V30 102 C 4.9195 -5.98515 1.28244 0
M  V30 103 N 4.0565 -6.99316 0.62459 0
M  V30 104 H 8.8965 -2.59336 1.46796 0
M  V30 105 H 6.4335 -1.27431 0.734836 0
M  V30 106 H 8.3915 -4.1459 -0.465965 0
M  V30 107 H 7.0215 -3.09604 -0.913529 0
M  V30 108 H 6.0735 -3.50803 1.4711 0
M  V30 109 H 7.3855 -4.6803 1.72479 0
M  V30 110 H 6.5395 -6.06428 -0.18151 0
M  V30 111 H 5.2785 -4.8481 -0.530163 0
M  V30 112 H 4.2835 -5.21355 1.74554 0
M  V30 113 H 5.5085 -6.46298 2.08509 0
M  V30 114 H 3.4545 -6.55812 -0.156914 0
M  V30 115 H 3.3715 -7.44178 1.33172 0
M  V30 116 H 4.6395 -7.79255 0.195462 0
M  V30 117 N 8.8686 -0.792821 -1.36206 0
M  V30 118 C 10.0986 -0.378275 -2.03107 0
M  V30 119 C 10.5066 1.01119 -1.59911 0
M  V30 120 O 9.8496 1.66052 -0.785658 0
M  V30 121 C 9.9116 -0.366535 -3.57627 0
M  V30 122 C 9.5756 -1.70416 -4.24037 0
M  V30 123 C 10.5726 -2.6602 -4.46687 0
M  V30 124 C 8.2576 -1.98439 -4.6144 0
M  V30 125 C 10.2516 -3.8784 -5.05825 0
M  V30 126 C 7.9386 -3.20525 -5.20295 0
M  V30 127 C 8.9366 -4.15044 -5.42427 0
M  V30 128 O 8.6246 -5.34978 -6.00045 0
M  V30 129 H 8.3566 -0.153543 -0.658332 0
M  V30 130 H 10.9106 -1.07383 -1.75094 0
M  V30 131 H 9.1406 0.385539 -3.84773 0
M  V30 132 H 10.8296 0.0238088 -4.05893 0
M  V30 133 H 11.5956 -2.45658 -4.18183 0
M  V30 134 H 7.4746 -1.25686 -4.43536 0
M  V30 135 H 11.0186 -4.61628 -5.23015 0
M  V30 136 H 6.9156 -3.40764 -5.48225 0
M  V30 137 H 7.6836 -5.36088 -6.18508 0
M  V30 138 N 10.3467 1.47872 -0.545128 0
M  V30 139 C 11.5937 2.02493 -0.0165858 0
M  V30 140 C 11.9217 1.42073 1.32836 0
M  V30 141 O 11.1767 0.561459 1.87473 0
M  V30 142 C 11.4757 3.57131 0.13867 0
M  V30 143 C 11.1417 4.36411 -1.13384 0
M  V30 144 C 9.8037 4.57792 -1.48256 0
M  V30 145 C 12.1557 4.82223 -1.97764 0
M  V30 146 C 9.4837 5.22233 -2.67376 0
M  V30 147 C 11.8357 5.47977 -3.16076 0
M  V30 148 C 10.4997 5.67593 -3.51275 0
M  V30 149 H 9.7697 0.740975 -0.00606918 0
M  V30 150 H 12.4167 1.77683 -0.714207 0
M  V30 151 H 10.7217 3.80865 0.919172 0
M  V30 152 H 12.4187 3.97031 0.562782 0
M  V30 153 H 9.0087 4.2004 -0.852297 0
M  V30 154 H 13.1927 4.65493 -1.72132 0
M  V30 155 H 8.4487 5.35616 -2.94831 0
M  V30 156 H 12.6227 5.8244 -3.81755 0
M  V30 157 H 10.2497 6.17298 -4.43675 0
M  V30 158 N 11.8248 0.280983 1.55075 0
M  V30 159 C 13.0498 -0.340154 2.04592 0
M  V30 160 C 13.4748 -1.48246 1.15779 0
M  V30 161 O 12.8328 -1.80614 0.15761 0
M  V30 162 C 12.8808 -0.793104 3.5177 0
M  V30 163 O 11.9848 -1.89981 3.66034 0
M  V30 164 H 11.3258 -0.0694289 0.66036 0
M  V30 165 H 13.8558 0.416993 2.00306 0
M  V30 166 H 13.8658 -1.08729 3.93245 0
M  V30 167 H 12.5408 0.0426163 4.15878 0
M  V30 168 H 11.1178 -1.60771 3.36463 0
M  V30 169 N 13.3029 -1.57598 0.00835791 0
M  V30 170 C 14.5509 -1.90551 -0.6734 0
M  V30 171 C 14.8719 -0.883301 -1.73847 0
M  V30 172 O 14.1419 0.0781442 -1.95744 0
M  V30 173 H 12.7219 -0.703312 -0.251717 0
M  V30 174 H 15.3839 -1.94833 0.0512592 0
M  V30 175 H 14.4799 -2.9056 -1.13935 0
M  V30 176 N 14.781 0.264519 -1.55364 0
M  V30 177 C 16.009 1.013 -1.80405 0
M  V30 178 C 16.424 1.79618 -0.581622 0
M  V30 179 O 15.781 1.76879 0.449468 0
M  V30 180 C 15.832 1.96487 -3.03439 0
M  V30 181 O 15.553 1.21341 -4.20961 0
M  V30 182 C 17.054 2.83079 -3.41147 0
M  V30 183 H 14.274 0.298875 -0.600762 0
M  V30 184 H 16.818 0.292736 -2.02394 0
M  V30 185 H 14.973 2.63965 -2.83551 0
M  V30 186 H 15.387 1.85573 -4.90574 0
M  V30 187 H 16.861 3.4565 -4.30384 0
M  V30 188 H 17.338 3.53286 -2.60932 0
M  V30 189 H 17.944 2.2108 -3.63323 0
M  V30 190 N 16.2591 1.48442 0.529413 0
M  V30 191 C 17.1891 1.65902 1.64313 0
M  V30 192 C 18.1701 0.507897 1.6234 0
M  V30 193 O 19.3551 0.740503 1.79528 0
M  V30 194 C 16.4851 1.69911 3.02898 0
M  V30 195 C 15.4391 2.8453 3.19729 0
M  V30 196 C 14.7651 2.73629 4.59381 0
M  V30 197 C 16.0651 4.25821 3.02447 0
M  V30 198 H 17.7591 2.5914 1.49955 0
M  V30 199 H 15.3051 1.24709 0.719982 0
M  V30 200 H 17.2581 1.80715 3.80684 0
M  V30 201 H 15.9821 0.732524 3.18279 0
M  V30 202 H 14.6411 2.73283 2.44361 0
M  V30 203 H 14.2891 1.74938 4.71599 0
M  V30 204 H 13.9891 3.50541 4.71588 0
M  V30 205 H 15.5131 2.86401 5.39265 0
M  V30 206 H 16.9271 4.37898 3.70024 0
M  V30 207 H 15.3241 5.03735 3.26146 0
M  V30 208 H 16.3941 4.42244 1.98867 0
M  V30 209 N 17.7372 -0.778329 1.37039 0
M  V30 210 C 18.9832 -1.53892 1.32079 0
M  V30 211 C 19.3162 -1.9396 -0.0965386 0
M  V30 212 O 18.5912 -1.63568 -1.05242 0
M  V30 213 C 18.8742 -2.80847 2.25382 0
M  V30 214 C 18.7272 -2.47076 3.75864 0
M  V30 215 C 20.0462 -3.82741 2.1725 0
M  V30 216 H 17.1652 -0.558303 0.48111 0
M  V30 217 H 19.8072 -0.893397 1.67685 0
M  V30 218 H 17.9572 -3.35931 1.95148 0
M  V30 219 H 19.6292 -1.97957 4.16666 0
M  V30 220 H 17.8722 -1.79863 3.94755 0
M  V30 221 H 18.5432 -3.37798 4.36574 0
M  V30 222 H 21.0192 -3.37133 2.43887 0
M  V30 223 H 19.8952 -4.69303 2.84686 0
M  V30 224 H 20.1562 -4.2652 1.16331 0
M  V30 225 N 19.2153 -1.21501 -1.00376 0
M  V30 226 C 20.4633 -1.03095 -1.73827 0
M  V30 227 C 20.7843 0.436341 -1.90055 0
M  V30 228 O 20.0543 1.31466 -1.45236 0
M  V30 229 H 18.6343 -0.378487 -0.644016 0
M  V30 230 H 21.2963 -1.52831 -1.20949 0
M  V30 231 H 20.3923 -1.49991 -2.73695 0
M  V30 232 N 20.6934 1.19889 -1.02296 0
M  V30 233 C 21.6234 2.25141 -0.619174 0
M  V30 234 C 22.6044 1.66051 0.368915 0
M  V30 235 O 23.7894 1.92546 0.252941 0
M  V30 236 C 20.9194 3.4728 0.0368783 0
M  V30 237 C 19.8734 4.19005 -0.872865 0
M  V30 238 C 19.1994 5.34637 -0.0822402 0
M  V30 239 C 20.4994 4.74452 -2.18387 0
M  V30 240 H 22.1934 2.59171 -1.49903 0
M  V30 241 H 19.7394 1.24579 -0.722222 0
M  V30 242 H 21.6924 4.20098 0.330958 0
M  V30 243 H 20.4164 3.12433 0.95149 0
M  V30 244 H 19.0754 3.48061 -1.15105 0
M  V30 245 H 18.7234 4.96034 0.83422 0
M  V30 246 H 18.4234 5.83557 -0.688149 0
M  V30 247 H 19.9474 6.10255 0.205238 0
M  V30 248 H 21.3614 5.39055 -1.95172 0
M  V30 249 H 19.7584 5.33834 -2.74119 0
M  V30 250 H 20.8284 3.92844 -2.84257 0
M  V30 251 N 22.1715 0.800033 1.35784 0
M  V30 252 C 23.1045 0.151499 2.27697 0
M  V30 253 C 24.0825 -0.678663 1.4776 0
M  V30 254 O 25.2665 -0.647358 1.77035 0
M  V30 255 C 22.3935 -0.790492 3.29346 0
M  V30 256 C 21.4395 -0.0407832 4.26481 0
M  V30 257 S 22.2725 1.29077 5.19711 0
M  V30 258 C 23.4285 0.353055 6.24903 0
M  V30 259 H 23.6615 0.930796 2.82353 0
M  V30 260 H 21.1945 0.594767 1.42485 0
M  V30 261 H 23.1525 -1.3285 3.88409 0
M  V30 262 H 21.8135 -1.54312 2.73581 0
M  V30 263 H 21.0065 -0.755971 4.98298 0
M  V30 264 H 20.6085 0.427063 3.71554 0
M  V30 265 H 22.9005 -0.464147 6.75908 0
M  V30 266 H 23.8435 1.04023 7.00418 0
M  V30 267 H 24.2515 -0.0483344 5.64479 0
M  V30 268 N 23.6496 -1.47581 0.552962 0
M  V30 269 C 24.5796 -2.32762 -0.185451 0
M  V30 270 C 25.5606 -1.43527 -0.912905 0
M  V30 271 O 26.7456 -1.72388 -0.894201 0
M  V30 272 C 23.8756 -3.25219 -1.21859 0
M  V30 273 C 22.8296 -4.23661 -0.607864 0
M  V30 274 C 22.1556 -5.05413 -1.74533 0
M  V30 275 C 23.4556 -5.20481 0.435582 0
M  V30 276 H 25.1496 -2.94749 0.525684 0
M  V30 277 H 22.6956 -1.41738 0.254251 0
M  V30 278 H 24.6486 -3.8365 -1.7433 0
M  V30 279 H 23.3726 -2.61279 -1.95961 0
M  V30 280 H 22.0316 -3.66451 -0.104489 0
M  V30 281 H 21.6796 -4.3788 -2.47529 0
M  V30 282 H 21.3796 -5.72059 -1.34249 0
M  V30 283 H 22.9036 -5.66701 -2.27338 0
M  V30 284 H 24.3176 -5.733 -0.00290157 0
M  V30 285 H 22.7146 -5.95305 0.757067 0
M  V30 286 H 23.7846 -4.66217 1.33303 0
M  V30 287 N 25.1277 -0.289203 -1.54924 0
M  V30 288 C 26.3527 0.329299 -2.04769 0
M  V30 289 C 26.7777 1.4763 -1.16564 0
M  V30 290 O 26.1357 1.80527 -0.167186 0
M  V30 291 C 26.1837 0.774438 -3.52186 0
M  V30 292 O 25.2877 1.88038 -3.67036 0
M  V30 293 H 24.6287 0.0659259 -0.660719 0
M  V30 294 H 27.1587 -0.42761 -2.00082 0
M  V30 295 H 27.1687 1.06642 -3.93816 0
M  V30 296 H 25.8437 -0.0646707 -4.1585 0
M  V30 297 H 24.4207 1.58985 -3.3731 0
M  V30 298 N 26.6058 1.57591 -0.0167156 0
M  V30 299 C 27.8338 1.95575 0.675128 0
M  V30 300 C 28.2488 0.892542 1.6637 0
M  V30 301 O 27.6058 -0.126912 1.82058 0
M  V30 302 C 27.6568 3.33608 1.39239 0
M  V30 303 O 27.3778 4.3585 0.443444 0
M  V30 304 C 28.8788 3.86151 2.17721 0
M  V30 305 H 26.0988 0.644423 0.186978 0
M  V30 306 H 28.6428 2.0437 -0.0728 0
M  V30 307 H 26.7978 3.2607 2.09182 0
M  V30 308 H 27.2118 5.158 0.951358 0
M  V30 309 H 28.6858 4.85114 2.63379 0
M  V30 310 H 29.1628 3.19738 3.01105 0
M  V30 311 H 29.7688 3.96918 1.52761 0
M  V30 312 N 28.0839 -0.256276 1.55502 0
M  V30 313 C 29.3089 -1.00766 1.81276 0
M  V30 314 C 29.7339 -1.78524 0.59252 0
M  V30 315 O 29.0919 -1.75413 -0.45827 0
M  V30 316 C 29.1399 -1.92869 3.04687 0
M  V30 317 O 28.2439 -3.019 2.80945 0
M  V30 318 H 27.5849 -0.287224 0.598664 0
M  V30 319 H 30.1149 -0.280109 2.02674 0
M  V30 320 H 30.1249 -2.34511 3.33869 0
M  V30 321 H 28.7999 -1.35689 3.93143 0
M  V30 322 H 27.3769 -2.64454 2.62904 0
M  V30 323 N 29.562 -1.4872 -0.521534 0
M  V30 324 C 30.525 -1.63379 -1.60748 0
M  V30 325 C 31.525 -0.50661 -1.52611 0
M  V30 326 O 32.715 -0.772601 -1.5613 0
M  V30 327 C 29.847 -1.61192 -3.00383 0
M  V30 328 H 31.04 -2.60217 -1.49087 0
M  V30 329 H 28.593 -1.37444 -0.744235 0
M  V30 330 H 29.328 -0.65863 -3.17541 0
M  V30 331 H 29.113 -2.43032 -3.07698 0
M  V30 332 H 30.603 -1.7466 -3.7932 0
M  V30 333 N 31.0401 0.771051 -1.3745 0
M  V30 334 C 32.2871 1.52963 -1.32697 0
M  V30 335 C 32.6151 1.94299 0.0883274 0
M  V30 336 O 31.8701 1.64397 1.0617 0
M  V30 337 C 32.1691 2.80676 -2.2126 0
M  V30 338 C 31.8351 2.58389 -3.69521 0
M  V30 339 C 30.4971 2.52019 -4.09927 0
M  V30 340 C 32.8491 2.38469 -4.63446 0
M  V30 341 C 30.1771 2.23721 -5.42371 0
M  V30 342 C 32.5291 2.11694 -5.96128 0
M  V30 343 C 31.1931 2.03769 -6.35637 0
M  V30 344 H 30.4631 0.559732 -0.485573 0
M  V30 345 H 33.1101 0.888083 -1.69662 0
M  V30 346 H 31.4151 3.49392 -1.77291 0
M  V30 347 H 33.1121 3.38557 -2.14895 0
M  V30 348 H 29.7021 2.6421 -3.37478 0
M  V30 349 H 33.8861 2.4238 -4.33089 0
M  V30 350 H 29.1421 2.16081 -5.71943 0
M  V30 351 H 33.3161 1.9528 -6.6846 0
M  V30 352 H 30.9431 1.81606 -7.38189 0
M  V30 353 N 32.5182 1.22032 0.997298 0
M  V30 354 C 33.4812 0.987909 2.06816 0
M  V30 355 C 34.4812 -0.0440084 1.6074 0
M  V30 356 O 35.6712 0.194053 1.73116 0
M  V30 357 C 32.8032 0.49132 3.37341 0
M  V30 358 H 33.9962 1.93803 2.28868 0
M  V30 359 H 31.5492 1.03838 1.16822 0
M  V30 360 H 32.2842 -0.463364 3.20973 0
M  V30 361 H 32.0692 1.23575 3.72118 0
M  V30 362 H 33.5592 0.348824 4.16141 0
M  V30 363 N 33.9963 -1.19345 1.0293 0
M  V30 364 C 34.9593 -2.20793 0.615069 0
M  V30 365 C 35.9593 -1.57553 -0.321533 0
M  V30 366 O 37.1493 -1.73862 -0.108483 0
M  V30 367 C 34.2813 -3.40754 -0.0999222 0
M  V30 368 H 35.4743 -2.58955 1.51269 0
M  V30 369 H 33.0273 -1.3303 0.820534 0
M  V30 370 H 33.7623 -3.0811 -1.01187 0
M  V30 371 H 33.5473 -3.87889 0.57309 0
M  V30 372 H 35.0373 -4.15898 -0.376645 0
M  V30 373 N 35.4744 -0.807222 -1.35358 0
M  V30 374 C 36.4374 -0.223665 -2.28106 0
M  V30 375 C 37.4374 0.589354 -1.4961 0
M  V30 376 O 38.6274 0.407745 -1.69361 0
M  V30 377 C 35.7594 0.688149 -3.33882 0
M  V30 378 H 36.9524 -1.04169 -2.81227 0
M  V30 379 H 34.5054 -0.577921 -1.45223 0
M  V30 380 H 35.2404 1.52984 -2.85948 0
M  V30 381 H 35.0254 0.10687 -3.91954 0
M  V30 382 H 36.5154 1.09075 -4.03104 0
M  V30 383 N 36.9525 1.47285 -0.560781 0
M  V30 384 C 37.8625 2.33846 0.187954 0
M  V30 385 C 38.8785 1.48412 0.908293 0
M  V30 386 O 40.0545 1.81332 0.876388 0
M  V30 387 C 37.1195 3.25178 1.2025 0
M  V30 388 C 36.1805 4.26504 0.489208 0
M  V30 389 C 35.4135 5.13472 1.45542 0
M  V30 390 O 35.6365 5.02959 2.6905 0
M  V30 391 O 34.5705 5.93902 0.977963 0
M  V30 392 H 38.3965 2.99177 -0.522177 0
M  V30 393 H 35.9815 1.45903 -0.321364 0
M  V30 394 H 37.8635 3.81584 1.78805 0
M  V30 395 H 36.5385 2.6247 1.89449 0
M  V30 396 H 35.4455 3.73847 -0.137627 0
M  V30 397 H 36.7785 4.91935 -0.161399 0
M  V30 398 N 38.4306 0.297415 1.54768 0
M  V30 399 C 39.6606 -0.315165 2.04182 0
M  V30 400 C 40.0686 -1.4834 1.17439 0
M  V30 401 O 39.4116 -1.82695 0.191891 0
M  V30 402 C 39.4736 -0.837583 3.49607 0
M  V30 403 C 39.1376 0.204912 4.5654 0
M  V30 404 C 40.1346 1.03214 5.09552 0
M  V30 405 C 37.8196 0.345578 5.0111 0
M  V30 406 C 39.8136 1.986 6.05671 0
M  V30 407 C 37.5006 1.30289 5.97049 0
M  V30 408 C 38.4986 2.12159 6.49213 0
M  V30 409 O 38.1866 3.06268 7.43273 0
M  V30 410 H 37.9186 -0.0729646 0.672051 0
M  V30 411 H 40.4726 0.433907 2.00765 0
M  V30 412 H 38.7026 -1.63712 3.50336 0
M  V30 413 H 40.3916 -1.36566 3.82236 0
M  V30 414 H 41.1576 0.934312 4.75916 0
M  V30 415 H 37.0366 -0.28171 4.60138 0
M  V30 416 H 40.5806 2.62542 6.46311 0
M  V30 417 H 36.4776 1.40145 6.30103 0
M  V30 418 H 37.2456 3.01205 7.61064 0
M  V30 419 N 39.9087 -1.5758 0.0250728 0
M  V30 420 C 40.8717 -2.08896 -0.943139 0
M  V30 421 C 41.8717 -1.00321 -1.25668 0
M  V30 422 O 43.0617 -1.26495 -1.19769 0
M  V30 423 C 40.1937 -2.55143 -2.26086 0
M  V30 424 H 41.3867 -2.95723 -0.498775 0
M  V30 425 H 38.9397 -1.54703 -0.222888 0
M  V30 426 H 39.6747 -1.71633 -2.75159 0
M  V30 427 H 39.4597 -3.34461 -2.04641 0
M  V30 428 H 40.9497 -2.95083 -2.95492 0
M  V30 429 N 41.3868 0.248026 -1.55636 0
M  V30 430 C 42.6328 0.97767 -1.77678 0
M  V30 431 C 42.9658 1.85016 -0.590135 0
M  V30 432 O 42.2408 1.90095 0.411611 0
M  V30 433 C 42.5238 1.83914 -3.09593 0
M  V30 434 C 42.3768 0.99491 -4.38659 0
M  V30 435 C 43.6958 2.82183 -3.37729 0
M  V30 436 H 40.8148 0.354005 -0.646413 0
M  V30 437 H 43.4568 0.248253 -1.88371 0
M  V30 438 H 41.6068 2.46104 -3.00608 0
M  V30 439 H 43.2788 0.391789 -4.59633 0
M  V30 440 H 41.5218 0.299231 -4.32767 0
M  V30 441 H 42.1928 1.63145 -5.2734 0
M  V30 442 H 44.6688 2.30129 -3.4667 0
M  V30 443 H 43.5448 3.39582 -4.31249 0
M  V30 444 H 43.8058 3.58588 -2.58586 0
M  V30 445 N 42.8649 1.48995 0.513639 0
M  V30 446 C 44.1109 1.58076 1.27042 0
M  V30 447 C 44.4439 0.261026 1.92438 0
M  V30 448 O 43.7189 -0.734393 1.80103 0
M  V30 449 C 44.0019 2.73091 2.34719 0
M  V30 450 C 43.8549 4.14821 1.73907 0
M  V30 451 C 45.1739 2.83796 3.36375 0
M  V30 452 H 42.2929 0.575391 0.460536 0
M  V30 453 H 44.9349 1.81232 0.570516 0
M  V30 454 H 43.0849 2.53479 2.94416 0
M  V30 455 H 44.7569 4.45917 1.18135 0
M  V30 456 H 42.9999 4.21058 1.0437 0
M  V30 457 H 43.6709 4.91147 2.51949 0
M  V30 458 H 46.1469 3.01611 2.86653 0
M  V30 459 H 45.0229 3.65971 4.09093 0
M  V30 460 H 45.2839 1.92624 3.9793 0
M  V30 461 N 44.343 -0.763751 1.37857 0
M  V30 462 C 45.273 -1.89103 1.36975 0
M  V30 463 C 46.254 -1.68439 0.237152 0
M  V30 464 O 47.439 -1.8918 0.438713 0
M  V30 465 C 44.569 -3.26496 1.18395 0
M  V30 466 C 43.523 -3.61741 2.28751 0
M  V30 467 C 42.849 -4.97762 1.95286 0
M  V30 468 C 44.149 -3.67665 3.70972 0
M  V30 469 H 45.843 -1.90099 2.31307 0
M  V30 470 H 43.389 -0.91319 1.11341 0
M  V30 471 H 45.342 -4.05003 1.16406 0
M  V30 472 H 44.066 -3.25955 0.205215 0
M  V30 473 H 42.725 -2.85547 2.29909 0
M  V30 474 H 42.373 -4.93769 0.959221 0
M  V30 475 H 42.073 -5.22313 2.69189 0
M  V30 476 H 43.597 -5.7866 1.94898 0
M  V30 477 H 45.011 -4.36307 3.719 0
M  V30 478 H 43.408 -4.03718 4.43995 0
M  V30 479 H 44.478 -2.68134 4.0402 0
M  V30 480 N 45.8211 -1.22559 -0.990812 0
M  V30 481 C 46.7681 -0.997519 -2.0813 0
M  V30 482 C 47.7381 0.0814702 -1.659 0
M  V30 483 O 48.9231 -0.0685424 -1.90677 0
M  V30 484 C 46.0631 -0.583615 -3.40129 0
M  V30 485 C 45.1761 -1.7336 -3.9569 0
M  V30 486 C 44.3111 -1.26748 -5.15857 0
M  V30 487 C 43.3501 -2.38888 -5.63559 0
M  V30 488 N 42.4871 -1.93308 -6.74964 0
M  V30 489 H 47.3271 -1.93099 -2.26973 0
M  V30 490 H 44.8641 -0.962114 -1.11273 0
M  V30 491 H 46.8221 -0.324801 -4.15934 0
M  V30 492 H 45.4521 0.312845 -3.2128 0
M  V30 493 H 44.5041 -2.10669 -3.16738 0
M  V30 494 H 45.8161 -2.57704 -4.27071 0
M  V30 495 H 44.9701 -0.966173 -5.98957 0
M  V30 496 H 43.7091 -0.394272 -4.86104 0
M  V30 497 H 42.7141 -2.69805 -4.79046 0
M  V30 498 H 43.9391 -3.26728 -5.95336 0
M  V30 499 H 41.8851 -1.08352 -6.4699 0
M  V30 500 H 41.8021 -2.71217 -7.05675 0
M  V30 501 H 43.0701 -1.66252 -7.61564 0
M  V30 502 N 47.2992 1.18797 -1.03562 0
M  V30 503 C 48.5272 1.92599 -0.755869 0
M  V30 504 C 48.9422 1.75886 0.686271 0
M  V30 505 O 48.2992 1.08517 1.46732 0
M  V30 506 C 48.3502 3.44159 -1.10619 0
M  V30 507 O 48.0712 3.60341 -2.4917 0
M  V30 508 C 49.5722 4.3507 -0.850214 0
M  V30 509 H 46.7922 0.611587 -0.276048 0
M  V30 510 H 49.3362 1.50742 -1.38192 0
M  V30 511 H 47.4912 3.83823 -0.525194 0
M  V30 512 H 47.9052 4.54128 -2.62427 0
M  V30 513 H 49.3792 5.39989 -1.14523 0
M  V30 514 H 49.8562 4.38673 0.215176 0
M  V30 515 H 50.4622 4.01097 -1.41426 0
M  V30 516 N 48.7773 0.814389 1.34928 0
M  V30 517 C 49.7073 0.244827 2.32213 0
M  V30 518 C 50.6883 -0.634024 1.57842 0
M  V30 519 O 51.8733 -0.562676 1.8587 0
M  V30 520 C 49.0033 -0.601106 3.42058 0
M  V30 521 C 47.9573 0.179896 4.27622 0
M  V30 522 C 47.2833 -0.788237 5.28858 0
M  V30 523 C 48.5833 1.38329 5.03649 0
M  V30 524 H 50.2773 1.05763 2.80097 0
M  V30 525 H 47.8233 0.510029 1.34665 0
M  V30 526 H 49.7763 -1.00968 4.09125 0
M  V30 527 H 48.5003 -1.44688 2.92802 0
M  V30 528 H 47.1593 0.569739 3.62146 0
M  V30 529 H 46.8073 -1.62973 4.75866 0
M  V30 530 H 46.5073 -0.269942 5.8698 0
M  V30 531 H 48.0313 -1.19485 5.98795 0
M  V30 532 H 49.4453 1.04918 5.63618 0
M  V30 533 H 47.8423 1.83662 5.71304 0
M  V30 534 H 48.9123 2.16592 4.33839 0
M  V30 535 N 50.2554 -1.46986 0.568584 0
M  V30 536 C 51.4804 -2.07335 0.0520528 0
M  V30 537 C 51.9054 -1.41675 -1.23733 0
M  V30 538 O 51.2634 -0.495623 -1.74394 0
M  V30 539 C 51.3114 -3.60417 -0.11501 0
M  V30 540 O 50.4154 -3.95309 -1.17492 0
M  V30 541 H 49.7564 -0.661597 0.0564385 0
M  V30 542 H 52.2864 -1.88837 0.787507 0
M  V30 543 H 52.2964 -4.06698 -0.325644 0
M  V30 544 H 50.9714 -4.07601 0.826675 0
M  V30 545 H 49.5484 -3.60757 -0.943869 0
M  V30 546 N 51.7335 -0.305618 -1.54608 0
M  V30 547 C 52.6815 0.584119 -2.25146 0
M  V30 548 C 53.6755 1.13326 -1.25911 0
M  V30 549 O 54.8815 1.08337 -1.43747 0
M  V30 550 H 51.2565 0.206983 -0.722954 0
M  V30 551 H 53.2275 -0.033291 -2.98381 0
M  V30 552 C 51.9765 1.74225 -3.009 0
M  V30 553 H 51.2995 1.32892 -3.77067 0
M  V30 554 H 52.7395 2.34077 -3.53531 0
M  V30 555 C 51.1985 2.64914 -2.0814 0
M  V30 556 O 51.7285 3.66137 -1.65246 0
M  V30 557 N 49.9345 2.3275 -1.74 0
M  V30 558 H 49.4815 1.50479 -2.09078 0
M  V30 559 H 49.4395 2.93694 -1.12211 0
M  V30 560 N 53.2116 1.57565 -0.0334293 0
M  V30 561 C 54.6226 1.79746 0.504798 0
M  V30 562 C 54.9736 0.944091 1.71992 0
M  V30 563 O 54.0986 0.155694 2.15839 0
M  V30 564 C 54.6936 3.25997 0.922567 0
M  V30 565 C 53.2526 3.49159 1.40588 0
M  V30 566 C 52.3996 2.74785 0.372633 0
M  V30 567 H 55.3506 1.56565 -0.259436 0
M  V30 568 H 55.3716 3.35945 1.78666 0
M  V30 569 H 54.8836 3.88081 0.0379825 0
M  V30 570 H 52.9846 2.92332 2.31025 0
M  V30 571 H 53.0976 4.57873 1.41028 0
M  V30 572 H 51.4616 2.40391 0.841672 0
M  V30 573 H 52.2446 3.39587 -0.503559 0
M  V30 574 N 54.6897 -0.239769 1.55765 0
M  V30 575 C 55.9367 -0.966801 1.7793 0
M  V30 576 C 56.2647 -1.85046 0.599015 0
M  V30 577 O 55.5197 -1.91197 -0.417395 0
M  V30 578 C 55.8187 -1.852 3.05672 0
M  V30 579 C 55.4847 -1.1231 4.36689 0
M  V30 580 C 54.1467 -0.921689 4.72291 0
M  V30 581 C 56.4987 -0.607019 5.17653 0
M  V30 582 C 53.8267 -0.191996 5.86386 0
M  V30 583 C 56.1787 0.109241 6.32506 0
M  V30 584 C 54.8427 0.322073 6.66723 0
M  V30 585 H 54.1127 -0.353778 0.651093 0
M  V30 586 H 56.7597 -0.23634 1.90036 0
M  V30 587 H 55.0647 -2.64975 2.8861 0
M  V30 588 H 56.7617 -2.41635 3.20021 0
M  V30 589 H 53.3517 -1.29004 4.08725 0
M  V30 590 H 57.5357 -0.750153 4.90598 0
M  V30 591 H 52.7917 -0.0166949 6.11398 0
M  V30 592 H 56.9657 0.516737 6.9448 0
M  V30 593 H 54.5927 0.88944 7.54979 0
M  V30 594 N 56.1678 -1.49265 -0.50573 0
M  V30 595 C 57.4138 -1.59723 -1.25937 0
M  V30 596 C 57.7688 -0.278236 -1.90378 0
M  V30 597 O 57.0618 0.72113 -1.77511 0
M  V30 598 C 57.2558 -2.69008 -2.35308 0
M  V30 599 C 57.0848 -4.11405 -1.81592 0
M  V30 600 C 55.8548 -4.78252 -1.63105 0
M  V30 601 C 58.0528 -4.96792 -1.33048 0
M  V30 602 N 56.0348 -6.0498 -1.04269 0
M  V30 603 C 57.4058 -6.13962 -0.863168 0
M  V30 604 C 59.4608 -4.82828 -1.21577 0
M  V30 605 C 58.1638 -7.18705 -0.292489 0
M  V30 606 C 60.1898 -5.87716 -0.65907 0
M  V30 607 C 59.5518 -7.0411 -0.201954 0
M  V30 608 H 55.6508 -0.638864 -0.450973 0
M  V30 609 H 58.2348 -1.86251 -0.567326 0
M  V30 610 H 56.4058 -2.4426 -3.01979 0
M  V30 611 H 58.1378 -2.69013 -3.02348 0
M  V30 612 H 54.8928 -4.34974 -1.87336 0
M  V30 613 H 55.3168 -6.72631 -0.767919 0
M  V30 614 H 59.9588 -3.93159 -1.55518 0
M  V30 615 H 57.6768 -8.08078 0.0591987 0
M  V30 616 H 61.2628 -5.7897 -0.573156 0
M  V30 617 H 60.1428 -7.83885 0.222101 0
M  V30 618 N 57.6459 0.756429 -1.3826 0
M  V30 619 C 58.8919 1.51772 -1.34511 0
M  V30 620 C 59.2249 1.94089 0.0656691 0
M  V30 621 O 58.4999 1.65221 1.02626 0
M  V30 622 C 58.7829 2.77226 -2.29821 0
M  V30 623 C 58.6359 2.41065 -3.79747 0
M  V30 624 C 59.9549 3.79236 -2.23312 0
M  V30 625 H 57.0739 0.550578 -0.489931 0
M  V30 626 H 59.7159 0.866607 -1.69086 0
M  V30 627 H 57.8659 3.32784 -2.00467 0
M  V30 628 H 59.5379 1.91303 -4.19763 0
M  V30 629 H 57.7809 1.7356 -3.97567 0
M  V30 630 H 58.4519 3.3081 -4.41892 0
M  V30 631 H 60.9279 3.3321 -2.49219 0
M  V30 632 H 59.8039 4.64714 -2.92116 0
M  V30 633 H 60.0649 4.24615 -1.23102 0
M  V30 634 N 59.124 1.23083 0.984299 0
M  V30 635 C 60.401 0.9689 1.69917 0
M  V30 636 C 60.781 -0.513604 2.04757 0
M  V30 637 O 60.129 -1.48383 1.73767 0
M  V30 638 C 60.339 1.87518 2.94343 0
M  V30 639 C 61.687 2.13636 3.6694 0
M  V30 640 O 62.711 1.85036 3.04368 0
M  V30 641 O 61.57 2.62119 4.79537 0
M  V30 642 H 58.664 0.365095 0.742048 0
M  V30 643 H 61.21 1.34107 1.03987 0
M  V30 644 H 59.982 2.87756 2.65164 0
M  V30 645 H 59.605 1.50514 3.6801 0
M  V30 646 N 60.6021 -1.18246 1.0419 0
M  V30 647 C 61.5351 -2.20746 0.578474 0
M  V30 648 C 62.5131 -1.57912 -0.387624 0
M  V30 649 O 63.6971 -1.86071 -0.301634 0
M  V30 650 C 60.8241 -3.38346 -0.154762 0
M  V30 651 C 59.8701 -4.19587 0.764782 0
M  V30 652 S 60.7031 -4.86014 2.24835 0
M  V30 653 C 61.8591 -6.07012 1.526 0
M  V30 654 H 62.0921 -2.59715 1.44691 0
M  V30 655 H 59.6251 -1.287 0.85297 0
M  V30 656 H 61.5831 -4.065 -0.571641 0
M  V30 657 H 60.2441 -2.97786 -0.999105 0
M  V30 658 H 59.4371 -5.03611 0.197976 0
M  V30 659 H 59.0391 -3.56818 1.12057 0
M  V30 660 H 61.3311 -6.72523 0.819733 0
M  V30 661 H 62.2741 -6.68202 2.34333 0
M  V30 662 H 62.6821 -5.55249 1.01779 0
M  V30 663 N 62.0802 -0.821533 -1.34494 0
M  V30 664 C 63.0272 -0.240397 -2.29545 0
M  V30 665 C 63.9972 0.634031 -1.53523 0
M  V30 666 O 65.1822 0.575966 -1.81899 0
M  V30 667 C 62.3222 0.592869 -3.39969 0
M  V30 668 C 61.4352 -0.30365 -4.30932 0
M  V30 669 C 60.5702 0.539049 -5.28458 0
M  V30 670 C 59.6092 -0.356942 -6.11058 0
M  V30 671 N 58.7462 0.446603 -7.00678 0
M  V30 672 H 63.5862 -1.05632 -2.7865 0
M  V30 673 H 61.1232 -0.532413 -1.37127 0
M  V30 674 H 63.0812 1.09129 -4.02675 0
M  V30 675 H 61.7112 1.37392 -2.92102 0
M  V30 676 H 60.7632 -0.920276 -3.691 0
M  V30 677 H 62.0752 -0.992661 -4.88823 0
M  V30 678 H 61.2292 1.102 -5.96608 0
M  V30 679 H 59.9682 1.26157 -4.71101 0
M  V30 680 H 58.9732 -0.932047 -5.41842 0
M  V30 681 H 60.1982 -1.07755 -6.70497 0
M  V30 682 H 58.1442 1.15282 -6.45791 0
M  V30 683 H 58.0612 -0.184048 -7.55776 0
M  V30 684 H 59.3292 0.992352 -7.73158 0
M  V30 685 N 63.5583 1.46682 -0.576371 0
M  V30 686 C 64.5053 2.30241 0.160499 0
M  V30 687 C 65.4753 1.40233 0.890162 0
M  V30 688 O 66.6603 1.69186 0.882084 0
M  V30 689 C 63.8003 3.24578 1.1723 0
M  V30 690 C 62.9133 4.29684 0.446736 0
M  V30 691 C 62.0483 5.11154 1.44551 0
M  V30 692 C 61.0873 6.08015 0.70599 0
M  V30 693 N 60.2243 6.82376 1.65251 0
M  V30 694 H 65.0643 2.92727 -0.558127 0
M  V30 695 H 62.6013 1.44272 -0.287056 0
M  V30 696 H 64.5593 3.77711 1.77172 0
M  V30 697 H 63.1893 2.63916 1.85872 0
M  V30 698 H 62.2413 3.79458 -0.267594 0
M  V30 699 H 63.5533 4.98626 -0.131686 0
M  V30 700 H 62.7073 5.68533 2.11791 0
M  V30 701 H 61.4463 4.42158 2.05786 0
M  V30 702 H 60.4513 5.49796 0.0197725 0
M  V30 703 H 61.6763 6.79028 0.09912 0
M  V30 704 H 59.6223 6.16094 2.25308 0
M  V30 705 H 59.5393 7.47556 1.12673 0
M  V30 706 H 60.8073 7.44316 2.31546 0
M  V30 707 N 65.0364 0.313813 1.54444 0
M  V30 708 C 66.2844 -0.291099 1.99993 0
M  V30 709 C 66.6054 -1.53418 1.20366 0
M  V30 710 O 65.8754 -1.93544 0.302927 0
M  V30 711 H 64.4554 -0.110552 0.738774 0
M  V30 712 H 67.1174 0.428106 1.9014 0
M  V30 713 H 66.2134 -0.554268 3.07139 0
M  V30 714 N 66.5145 -1.57545 0.0417849 0
M  V30 715 C 67.7635 -1.91494 -0.633492 0
M  V30 716 C 68.0765 -0.921084 -1.72556 0
M  V30 717 O 69.2825 -1.15228 -2.45835 0
M  V30 718 C 67.7385 -3.40072 -1.17808 0
M  V30 719 C 67.3465 -4.47843 -0.118633 0
M  V30 720 C 69.0905 -3.8307 -1.82915 0
M  V30 721 C 66.9975 -5.87529 -0.675578 0
M  V30 722 H 65.9275 -0.714653 -0.24039 0
M  V30 723 H 68.5785 -1.83175 0.109148 0
M  V30 724 H 66.9605 -3.43364 -1.97274 0
M  V30 725 H 68.1345 -4.56128 0.654494 0
M  V30 726 H 66.4495 -4.14128 0.434414 0
M  V30 727 H 69.0465 -4.84794 -2.25563 0
M  V30 728 H 69.3895 -3.1881 -2.67705 0
M  V30 729 H 69.9225 -3.82255 -1.10119 0
M  V30 730 H 66.6615 -6.55362 0.134475 0
M  V30 731 H 66.1815 -5.82824 -1.4169 0
M  V30 732 H 67.8605 -6.36491 -1.1614 0
M  V30 733 N 67.9926 0.231505 -1.5589 0
M  V30 734 C 68.9026 1.308 -1.94752 0
M  V30 735 C 69.9186 1.51826 -0.849989 0
M  V30 736 O 71.0946 1.6515 -1.15271 0
M  V30 737 C 68.1596 2.63968 -2.24771 0
M  V30 738 C 67.2206 2.51331 -3.48039 0
M  V30 739 C 66.4536 3.78148 -3.76616 0
M  V30 740 O 66.6766 4.80722 -3.07022 0
M  V30 741 O 65.6106 3.75857 -4.70123 0
M  V30 742 H 69.4366 1.0083 -2.86474 0
M  V30 743 H 67.0216 0.433547 -1.42971 0
M  V30 744 H 68.9036 3.42633 -2.45318 0
M  V30 745 H 67.5786 2.9364 -1.36225 0
M  V30 746 H 66.4856 1.709 -3.32782 0
M  V30 747 H 67.8186 2.26601 -4.36936 0
M  V30 748 N 69.4707 1.49531 0.497807 0
M  V30 749 C 70.7477 1.49682 1.25915 0
M  V30 750 C 71.1277 0.226339 2.09883 0
M  V30 751 O 70.4757 -0.791189 2.14365 0
M  V30 752 C 70.6857 2.77755 2.11313 0
M  V30 753 C 72.0337 3.27371 2.70395 0
M  V30 754 O 73.0577 2.78894 2.21578 0
M  V30 755 O 71.9167 4.11808 3.59272 0
M  V30 756 H 69.0107 0.599228 0.56996 0
M  V30 757 H 71.5567 1.61798 0.511816 0
M  V30 758 H 70.3287 3.61713 1.49264 0
M  V30 759 H 69.9517 2.68515 2.93233 0
M  V30 760 N 70.9488 -0.749086 1.3866 0
M  V30 761 C 71.8588 -1.89358 1.38494 0
M  V30 762 C 72.8748 -1.71708 0.281476 0
M  V30 763 O 74.0508 -1.94554 0.520643 0
M  V30 764 C 71.1158 -3.24782 1.21316 0
M  V30 765 C 70.1768 -3.54926 2.41508 0
M  V30 766 C 69.4098 -4.83888 2.2514 0
M  V30 767 O 69.6328 -5.56592 1.24746 0
M  V30 768 O 68.5668 -5.13612 3.13826 0
M  V30 769 H 72.3928 -1.92452 2.34938 0
M  V30 770 H 69.9778 -0.894981 1.19626 0
M  V30 771 H 71.8598 -4.05739 1.13814 0
M  V30 772 H 70.5348 -3.2249 0.279592 0
M  V30 773 H 69.4418 -2.74112 2.54585 0
M  V30 774 H 70.7748 -3.61983 3.3351 0
M  V30 775 N 72.4269 -1.23603 -0.977757 0
M  V30 776 C 73.3899 -1.02069 -2.05218 0
M  V30 777 C 74.3899 0.0184305 -1.60789 0
M  V30 778 O 75.5799 -0.221569 -1.72785 0
M  V30 779 C 72.7119 -0.544926 -3.36517 0
M  V30 780 H 73.9049 -1.9742 -2.25755 0
M  V30 781 H 71.4579 -1.05684 -1.15155 0
M  V30 782 H 72.1929 0.412241 -3.21669 0
M  V30 783 H 71.9779 -1.2948 -3.70105 0
M  V30 784 H 73.4679 -0.414985 -4.15533 0
M  V30 785 N 73.905 1.17692 -1.04816 0
M  V30 786 C 74.852 2.21581 -0.645797 0
M  V30 787 C 75.822 1.62367 0.350159 0
M  V30 788 O 77.007 1.89254 0.242433 0
M  V30 789 C 74.147 3.45092 -0.0227568 0
M  V30 790 C 73.26 4.18613 -1.06709 0
M  V30 791 C 72.395 5.29602 -0.411767 0
M  V30 792 C 71.434 5.94904 -1.44067 0
M  V30 793 N 70.571 6.97414 -0.809781 0
M  V30 794 H 75.411 2.55353 -1.5362 0
M  V30 795 H 72.948 1.25438 -0.768364 0
M  V30 796 H 74.906 4.15679 0.35588 0
M  V30 797 H 73.536 3.11917 0.831122 0
M  V30 798 H 72.588 3.46779 -1.5636 0
M  V30 799 H 73.9 4.63293 -1.84827 0
M  V30 800 H 73.054 6.06696 0.0206623 0
M  V30 801 H 71.793 4.86045 0.401438 0
M  V30 802 H 70.798 5.16544 -1.88316 0
M  V30 803 H 72.023 6.40542 -2.25571 0
M  V30 804 H 69.969 6.55998 -0.0170186 0
M  V30 805 H 69.886 7.40386 -1.52856 0
M  V30 806 H 71.154 7.78463 -0.401999 0
M  V30 807 N 75.3831 0.828654 1.34056 0
M  V30 808 C 76.6111 0.43262 2.02326 0
M  V30 809 C 77.0261 -0.963147 1.62385 0
M  V30 810 O 76.3831 -1.62425 0.832121 0
M  V30 811 C 76.4341 0.53182 3.57567 0
M  V30 812 O 76.1551 1.87258 3.96063 0
M  V30 813 C 77.6561 0.131422 4.43105 0
M  V30 814 H 74.8761 0.172923 0.648335 0
M  V30 815 H 77.4201 1.1184 1.71208 0
M  V30 816 H 75.5751 -0.105938 3.87255 0
M  V30 817 H 75.9891 1.85087 4.90758 0
M  V30 818 H 77.4631 0.251904 5.51425 0
M  V30 819 H 77.9401 -0.925645 4.29335 0
M  V30 820 H 78.5461 0.743207 4.18756 0
M  V30 821 N 76.8612 -1.46375 0.584142 0
M  V30 822 C 77.7912 -2.33103 -0.136037 0
M  V30 823 C 78.7722 -1.45431 -0.882255 0
M  V30 824 O 79.9572 -1.74246 -0.857434 0
M  V30 825 C 77.0872 -3.27731 -1.14933 0
M  V30 826 C 76.0412 -4.24855 -0.517862 0
M  V30 827 C 75.3672 -5.09001 -1.63773 0
M  V30 828 C 76.6672 -5.19439 0.545886 0
M  V30 829 H 78.3612 -2.93568 0.588086 0
M  V30 830 H 75.9072 -1.41166 0.284259 0
M  V30 831 H 77.8602 -3.87261 -1.66153 0
M  V30 832 H 76.5842 -2.65377 -1.90375 0
M  V30 833 H 75.2432 -3.6659 -0.0267361 0
M  V30 834 H 74.8912 -4.43031 -2.38185 0
M  V30 835 H 74.5912 -5.74777 -1.22085 0
M  V30 836 H 76.1152 -5.71396 -2.15266 0
M  V30 837 H 77.5292 -5.73177 0.118704 0
M  V30 838 H 75.9262 -5.93566 0.88317 0
M  V30 839 H 76.9962 -4.63285 1.43162 0
M  V30 840 N 78.3393 -0.321999 -1.54275 0
M  V30 841 C 79.5873 0.280489 -2.00144 0
M  V30 842 C 79.9083 1.52777 -1.21178 0
M  V30 843 O 79.1783 1.9338 -0.313187 0
M  V30 844 H 77.7583 0.106632 -0.73935 0
M  V30 845 H 80.4203 -0.438184 -1.8991 0
M  V30 846 H 79.5163 0.537972 -3.07428 0
M  V30 847 N 79.8174 1.5752 -0.0501392 0
M  V30 848 C 81.0634 1.92936 0.624798 0
M  V30 849 C 81.3964 0.928685 1.70555 0
M  V30 850 O 80.6714 -0.0454779 1.94447 0
M  V30 851 C 80.9544 3.38737 1.22185 0
M  V30 852 C 80.8074 4.49552 0.149218 0
M  V30 853 C 82.1264 3.84913 2.13378 0
M  V30 854 H 79.2454 0.701604 0.225657 0
M  V30 855 H 81.8874 1.89671 -0.111693 0
M  V30 856 H 80.0374 3.4165 1.84953 0
M  V30 857 H 81.7094 4.58768 -0.482648 0
M  V30 858 H 79.9524 4.30638 -0.522841 0
M  V30 859 H 80.6234 5.48653 0.606966 0
M  V30 860 H 83.0994 3.8387 1.60572 0
M  V30 861 H 81.9754 4.87584 2.52097 0
M  V30 862 H 82.2364 3.21611 3.03346 0
M  V30 863 N 81.2955 -0.223234 1.56011 0
M  V30 864 C 82.5205 -0.968978 1.83373 0
M  V30 865 C 82.9455 -1.77227 0.630254 0
M  V30 866 O 82.3035 -1.76345 -0.420959 0
M  V30 867 C 82.3515 -1.86363 3.08709 0
M  V30 868 O 81.4555 -2.95873 2.87285 0
M  V30 869 H 80.7965 -0.274461 0.604622 0
M  V30 870 H 83.3265 -0.237056 2.03222 0
M  V30 871 H 83.3365 -2.27376 3.38768 0
M  V30 872 H 82.0115 -1.27319 3.95933 0
M  V30 873 H 80.5885 -2.58818 2.68454 0
M  V30 874 N 82.7736 -1.49793 -0.48987 0
M  V30 875 C 84.0196 -1.60078 -1.24511 0
M  V30 876 C 84.3526 -0.291608 -1.91998 0
M  V30 877 O 83.6276 0.705647 -1.81248 0
M  V30 878 C 83.9106 -2.76791 -2.30345 0
M  V30 879 C 83.7636 -4.17535 -1.67286 0
M  V30 880 C 85.0826 -2.89111 -3.31817 0
M  V30 881 H 82.2016 -0.582645 -0.451324 0
M  V30 882 H 84.8436 -1.82117 -0.541612 0
M  V30 883 H 82.9936 -2.5813 -2.90346 0
M  V30 884 H 84.6656 -4.4774 -1.11026 0
M  V30 885 H 82.9086 -4.22665 -0.976577 0
M  V30 886 H 83.5796 -4.95094 -2.44103 0
M  V30 887 H 86.0556 -3.06133 -2.81819 0
M  V30 888 H 84.9316 -3.72433 -4.03219 0
M  V30 889 H 85.1926 -1.9893 -3.94815 0
M  V30 890 N 84.2517 0.741722 -1.39055 0
M  V30 891 C 85.5287 1.49252 -1.26425 0
M  V30 892 C 85.9087 2.10705 0.129144 0
M  V30 893 O 85.2567 1.98045 1.13976 0
M  V30 894 C 85.4667 2.54934 -2.38347 0
M  V30 895 C 86.8147 3.21506 -2.77343 0
M  V30 896 O 87.8387 2.65245 -2.37747 0
M  V30 897 O 86.6977 4.23294 -3.45665 0
M  V30 898 H 83.7917 0.662451 -0.495064 0
M  V30 899 H 86.3377 0.776121 -1.50912 0
M  V30 900 H 85.1097 2.07857 -3.31529 0
M  V30 901 H 84.7327 3.34141 -2.15489 0
M  V30 902 N 85.7298 1.2412 0.971189 0
M  V30 903 C 86.9788 1.07284 1.70801 0
M  V30 904 C 87.2918 -0.388902 1.91695 0
M  V30 905 O 88.4978 -0.677379 2.62914 0
M  V30 906 C 86.9538 1.87145 3.07416 0
M  V30 907 C 86.5618 3.37707 2.94377 0
M  V30 908 C 88.3058 1.78828 3.84995 0
M  V30 909 C 86.2128 4.09925 4.26281 0
M  V30 910 H 85.1428 0.397854 0.64049 0
M  V30 911 H 87.7938 1.4817 1.0825 0
M  V30 912 H 86.1758 1.39071 3.70777 0
M  V30 913 H 87.3498 3.93335 2.4005 0
M  V30 914 H 85.6648 3.46938 2.30267 0
M  V30 915 H 88.2618 2.30089 4.82662 0
M  V30 916 H 88.6048 0.75284 4.09436 0
M  V30 917 H 89.1378 2.24563 3.28354 0
M  V30 918 H 85.8768 5.13813 4.07033 0
M  V30 919 H 85.3968 3.59083 4.80437 0
M  V30 920 H 87.0758 4.1673 4.94919 0
M  V30 921 N 87.2079 -1.17134 1.05439 0
M  V30 922 C 88.4549 -1.87456 0.765942 0
M  V30 923 C 88.7829 -1.81189 -0.707153 0
M  V30 924 O 88.0379 -1.21633 -1.5331 0
M  V30 925 C 88.3369 -3.36833 1.19491 0
M  V30 926 C 88.0029 -3.63301 2.67063 0
M  V30 927 C 86.6649 -3.70234 3.07376 0
M  V30 928 C 89.0169 -3.74575 3.62413 0
M  V30 929 C 86.3449 -3.85933 4.41896 0
M  V30 930 C 88.6969 -3.91793 4.9667 0
M  V30 931 C 87.3609 -3.96966 5.36633 0
M  V30 932 H 86.6309 -0.685948 0.280278 0
M  V30 933 H 89.2779 -1.38556 1.32192 0
M  V30 934 H 87.5829 -3.87807 0.557969 0
M  V30 935 H 89.2799 -3.89611 0.948893 0
M  V30 936 H 85.8699 -3.58532 2.34846 0
M  V30 937 H 90.0539 -3.68537 3.32406 0
M  V30 938 H 85.3099 -3.88187 4.72357 0
M  V30 939 H 89.4839 -3.99458 5.70444 0
M  V30 940 H 87.1109 -4.08883 6.40874 0
M  V30 941 N 88.686 -0.835752 -1.33615 0
M  V30 942 C 89.649 -0.272 -2.2758 0
M  V30 943 C 90.649 0.557487 -1.50827 0
M  V30 944 O 91.839 0.37173 -1.70188 0
M  V30 945 C 88.971 0.617173 -3.35267 0
M  V30 946 H 90.164 -1.10111 -2.78954 0
M  V30 947 H 87.717 -0.608594 -1.43965 0
M  V30 948 H 88.452 1.46884 -2.89129 0
M  V30 949 H 88.237 0.0237066 -3.92093 0
M  V30 950 H 89.727 1.005 -4.05326 0
M  V30 951 N 90.1641 1.46063 -0.591896 0
M  V30 952 C 91.3891 2.07226 -0.0850314 0
M  V30 953 C 91.8141 1.43625 1.21463 0
M  V30 954 O 91.1721 0.523305 1.73583 0
M  V30 955 C 91.2201 3.60554 0.0576567 0
M  V30 956 O 90.3241 3.97128 1.11188 0
M  V30 957 H 89.6651 0.660615 -0.0669568 0
M  V30 958 H 92.1951 1.8756 -0.81745 0
M  V30 959 H 92.2051 4.07165 0.2609 0
M  V30 960 H 90.8801 4.06235 -0.891416 0
M  V30 961 H 89.4571 3.62213 0.886356 0
M  V30 962 N 91.6422 0.330177 1.54103 0
M  V30 963 C 93.0532 -0.15652 1.86043 0
M  V30 964 C 93.4042 -1.51086 1.2517 0
M  V30 965 O 92.5292 -2.09023 0.560217 0
M  V30 966 C 93.1242 -0.290784 3.3755 0
M  V30 967 C 91.6832 -0.721705 3.69416 0
M  V30 968 C 90.8302 0.152622 2.7688 0
M  V30 969 H 93.7812 0.550237 1.48856 0
M  V30 970 H 93.8022 -1.12058 3.63625 0
M  V30 971 H 93.3142 0.695068 3.81825 0
M  V30 972 H 91.4152 -1.71706 3.30678 0
M  V30 973 H 91.5282 -0.520869 4.7626 0
M  V30 974 H 89.8922 -0.372894 2.51956 0
M  V30 975 H 90.6752 1.13536 3.23982 0
M  V30 976 N 93.1203 -1.57491 0.0584922 0
M  V30 977 C 94.3453 -1.97711 -0.62652 0
M  V30 978 C 94.7703 -0.936132 -1.63151 0
M  V30 979 O 94.1283 0.099811 -1.81025 0
M  V30 980 C 94.1763 -3.36989 -1.28338 0
M  V30 981 O 93.2803 -3.35433 -2.39913 0
M  V30 982 H 92.6213 -0.643868 -0.162266 0
M  V30 983 H 95.1513 -2.04193 0.129064 0
M  V30 984 H 95.1613 -3.73879 -1.63335 0
M  V30 985 H 93.8363 -4.12289 -0.546889 0
M  V30 986 H 92.4133 -3.10298 -2.06809 0
M  V30 987 N 94.5984 0.214957 -1.56127 0
M  V30 988 C 95.5084 1.28727 -1.96129 0
M  V30 989 C 96.5244 1.50916 -0.866044 0
M  V30 990 O 97.7004 1.63918 -1.17016 0
M  V30 991 C 94.7654 2.61569 -2.27558 0
M  V30 992 C 93.8264 2.47625 -3.50685 0
M  V30 993 C 93.0594 3.74132 -3.80606 0
M  V30 994 O 93.2824 4.77438 -3.12104 0
M  V30 995 O 92.2164 3.70849 -4.74083 0
M  V30 996 H 96.0424 0.977855 -2.87527 0
M  V30 997 H 93.6274 0.418358 -1.43423 0
M  V30 998 H 95.5094 3.40012 -2.48938 0
M  V30 999 H 94.1844 2.92178 -1.39332 0
M  V30 1000 H 93.0914 1.67361 -3.34576 0
M  V30 1001 H 94.4244 2.21954 -4.39315 0
M  V30 1002 N 96.0765 1.50051 0.48192 0
M  V30 1003 C 97.3245 1.60181 1.23234 0
M  V30 1004 C 97.6455 0.299176 1.92691 0
M  V30 1005 O 96.9155 -0.682708 1.83619 0
M  V30 1006 H 95.4955 0.590232 0.457859 0
M  V30 1007 H 98.1575 1.86775 0.556881 0
M  V30 1008 H 97.2535 2.40753 1.98607 0
M  V30 1009 N 97.5546 -0.734337 1.39446 0
M  V30 1010 C 98.8316 -1.48579 1.27215 0
M  V30 1011 C 99.2116 -2.1077 -0.117968 0
M  V30 1012 O 98.5596 -1.98646 -1.12924 0
M  V30 1013 C 98.7696 -2.53667 2.39696 0
M  V30 1014 C 100.118 -3.20031 2.79044 0
M  V30 1015 O 101.142 -2.6398 2.39151 0
M  V30 1016 O 100.001 -4.21455 3.47905 0
M  V30 1017 H 97.0946 -0.659816 0.49857 0
M  V30 1018 H 99.6406 -0.768106 1.51322 0
M  V30 1019 H 98.4126 -2.06096 3.32626 0
M  V30 1020 H 98.0356 -3.32994 2.17258 0
M  V30 1021 N 99.0327 -1.24633 -0.964593 0
M  V30 1022 C 100.28 -1.08788 -1.70796 0
M  V30 1023 C 100.608 0.372783 -1.90894 0
M  V30 1024 O 99.8627 1.29167 -1.47018 0
M  V30 1025 C 100.162 -1.7763 -3.10133 0
M  V30 1026 C 99.8277 -3.27557 -3.09866 0
M  V30 1027 C 98.4897 -3.6846 -3.09501 0
M  V30 1028 C 100.842 -4.23389 -3.03959 0
M  V30 1029 C 98.1697 -5.03624 -3.00965 0
M  V30 1030 C 100.522 -5.58565 -2.96965 0
M  V30 1031 C 99.1857 -5.98809 -2.9493 0
M  V30 1032 H 98.4557 -0.398084 -0.624988 0
M  V30 1033 H 101.103 -1.54777 -1.12767 0
M  V30 1034 H 99.4077 -1.24044 -3.71645 0
M  V30 1035 H 101.105 -1.62832 -3.66451 0
M  V30 1036 H 97.6947 -2.95006 -3.10917 0
M  V30 1037 H 101.879 -3.92787 -3.03368 0
M  V30 1038 H 97.1347 -5.33998 -2.97752 0
M  V30 1039 H 101.309 -6.32523 -2.91354 0
M  V30 1040 H 98.9357 -7.03505 -2.88071 0
M  V30 1041 N 100.511 1.16574 -1.06058 0
M  V30 1042 C 101.443 2.2045 -0.627239 0
M  V30 1043 C 102.456 1.59752 0.313534 0
M  V30 1044 O 103.645 1.78192 0.104896 0
M  V30 1045 C 100.745 3.3875 0.100974 0
M  V30 1046 C 99.9178 4.29008 -0.852687 0
M  V30 1047 C 98.9768 5.25944 -0.164152 0
M  V30 1048 O 98.0028 5.63535 -0.801047 0
M  V30 1049 N 99.2048 5.70075 1.09518 0
M  V30 1050 H 101.97 2.58249 -1.52077 0
M  V30 1051 H 99.5308 1.3156 -0.943594 0
M  V30 1052 H 101.523 4.00638 0.57194 0
M  V30 1053 H 100.093 2.99476 0.89628 0
M  V30 1054 H 99.3128 3.64419 -1.50308 0
M  V30 1055 H 100.601 4.86195 -1.49972 0
M  V30 1056 H 99.9988 5.41624 1.6328 0
M  V30 1057 H 98.5558 6.34067 1.51006 0
M  V30 1058 N 101.989 0.842826 1.3317 0
M  V30 1059 C 103.214 0.453129 2.02389 0
M  V30 1060 C 103.639 -0.939105 1.6298 0
M  V30 1061 O 102.997 -1.61472 0.8244 0
M  V30 1062 C 103.045 0.586094 3.55805 0
M  V30 1063 O 102.149 -0.386029 4.10589 0
M  V30 1064 H 101.49 0.183664 0.638094 0
M  V30 1065 H 104.02 1.13875 1.69981 0
M  V30 1066 H 104.03 0.469209 4.05293 0
M  V30 1067 H 102.705 1.6014 3.83833 0
M  V30 1068 H 101.282 -0.226371 3.72212 0
M  V30 1069 N 103.467 -1.45747 0.599634 0
M  V30 1070 C 104.399 -2.28628 -0.161879 0
M  V30 1071 C 105.412 -1.39494 -0.839367 0
M  V30 1072 O 106.601 -1.63941 -0.706089 0
M  V30 1073 C 103.701 -3.15014 -1.24976 0
M  V30 1074 C 102.874 -4.32378 -0.660935 0
M  V30 1075 C 101.933 -5.00033 -1.63869 0
M  V30 1076 O 100.959 -5.57085 -1.1681 0
M  V30 1077 N 102.161 -4.98589 -2.97303 0
M  V30 1078 H 104.926 -2.94624 0.549265 0
M  V30 1079 H 102.487 -1.55847 0.438565 0
M  V30 1080 H 104.479 -3.5714 -1.9035 0
M  V30 1081 H 103.049 -2.5098 -1.86354 0
M  V30 1082 H 102.269 -3.9383 0.170688 0
M  V30 1083 H 103.557 -5.08197 -0.247619 0
M  V30 1084 H 102.955 -4.53514 -3.38145 0
M  V30 1085 H 101.512 -5.44603 -3.58121 0
M  V30 1086 N 104.945 -0.338344 -1.53925 0
M  V30 1087 C 105.875 0.51328 -2.27789 0
M  V30 1088 C 106.856 1.107 -1.29149 0
M  V30 1089 O 108.041 1.12937 -1.57984 0
M  V30 1090 C 105.171 1.66697 -3.04679 0
M  V30 1091 C 104.125 1.20183 -4.1078 0
M  V30 1092 C 103.451 2.44363 -4.75595 0
M  V30 1093 C 104.751 0.30605 -5.21403 0
M  V30 1094 H 106.445 -0.102883 -2.99223 0
M  V30 1095 H 103.991 -0.0509219 -1.4391 0
M  V30 1096 H 105.944 2.26915 -3.55088 0
M  V30 1097 H 104.668 2.30995 -2.30887 0
M  V30 1098 H 103.327 0.622499 -3.61276 0
M  V30 1099 H 102.975 3.07057 -3.98403 0
M  V30 1100 H 102.675 2.13925 -5.47275 0
M  V30 1101 H 104.199 3.05317 -5.28786 0
M  V30 1102 H 105.613 0.814929 -5.67478 0
M  V30 1103 H 104.01 0.0937929 -6.00027 0
M  V30 1104 H 105.08 -0.65921 -4.80398 0
M  V30 1105 N 106.423 1.57458 -0.0668435 0
M  V30 1106 C 107.355 2.09413 0.931601 0
M  V30 1107 C 108.368 1.02522 1.26464 0
M  V30 1108 O 109.557 1.30049 1.22269 0
M  V30 1109 C 106.657 2.53537 2.24882 0
M  V30 1110 C 105.83 3.83944 2.09537 0
M  V30 1111 C 104.889 4.14214 3.2452 0
M  V30 1112 O 103.915 4.83891 2.9973 0
M  V30 1113 N 105.117 3.67367 4.49469 0
M  V30 1114 H 107.882 2.95699 0.488048 0
M  V30 1115 H 105.443 1.61462 0.119009 0
M  V30 1116 H 107.435 2.70853 3.00701 0
M  V30 1117 H 106.005 1.72415 2.60753 0
M  V30 1118 H 105.225 3.76057 1.18215 0
M  V30 1119 H 106.513 4.69312 1.96529 0
M  V30 1120 H 105.911 3.11068 4.72497 0
M  V30 1121 H 104.468 3.89891 5.2233 0
M  V30 1122 N 107.901 -0.206675 1.56239 0
M  V30 1123 C 108.831 -1.25909 1.96645 0
M  V30 1124 C 109.812 -1.48097 0.836734 0
M  V30 1125 O 110.997 -1.6003 1.10019 0
M  V30 1126 C 108.127 -2.6058 2.29599 0
M  V30 1127 C 107.081 -2.53024 3.452 0
M  V30 1128 C 106.407 -3.91861 3.63798 0
M  V30 1129 C 107.707 -2.06524 4.79734 0
M  V30 1130 H 109.401 -0.923369 2.84806 0
M  V30 1131 H 106.947 -0.442735 1.37025 0
M  V30 1132 H 108.9 -3.34375 2.56459 0
M  V30 1133 H 107.624 -2.95869 1.38307 0
M  V30 1134 H 106.283 -1.81684 3.18412 0
M  V30 1135 H 105.931 -4.24483 2.69857 0
M  V30 1136 H 105.631 -3.87683 4.4156 0
M  V30 1137 H 107.155 -4.67296 3.93022 0
M  V30 1138 H 108.569 -2.70072 5.05702 0
M  V30 1139 H 106.966 -2.13374 5.60885 0
M  V30 1140 H 108.036 -1.01802 4.74093 0
M  V30 1141 N 109.379 -1.50304 -0.473955 0
M  V30 1142 C 110.626 -1.6115 -1.22625 0
M  V30 1143 C 110.954 -0.310517 -1.92005 0
M  V30 1144 O 110.209 0.703419 -1.82621 0
M  V30 1145 C 110.508 -2.73938 -2.29549 0
M  V30 1146 C 110.174 -4.14519 -1.7744 0
M  V30 1147 C 108.836 -4.5277 -1.62949 0
M  V30 1148 C 111.188 -5.02392 -1.3875 0
M  V30 1149 C 108.516 -5.76639 -1.08187 0
M  V30 1150 C 110.868 -6.26805 -0.854309 0
M  V30 1151 C 109.532 -6.63861 -0.696011 0
M  V30 1152 H 108.802 -0.589691 -0.448715 0
M  V30 1153 H 111.449 -1.84228 -0.522705 0
M  V30 1154 H 109.754 -2.44937 -3.05799 0
M  V30 1155 H 111.451 -2.79534 -2.87509 0
M  V30 1156 H 108.041 -3.8434 -1.89685 0
M  V30 1157 H 112.225 -4.73474 -1.4878 0
M  V30 1158 H 107.481 -6.04027 -0.946666 0
M  V30 1159 H 111.655 -6.94258 -0.545843 0
M  V30 1160 H 109.282 -7.59722 -0.26952 0
M  V30 1161 N 110.857 0.726932 -1.39834 0
M  V30 1162 C 111.767 1.87131 -1.41489 0
M  V30 1163 C 112.783 1.71239 -0.308757 0
M  V30 1164 O 113.959 1.93701 -0.551529 0
M  V30 1165 C 111.024 3.22811 -1.26468 0
M  V30 1166 C 110.085 3.51039 -2.47124 0
M  V30 1167 C 109.318 4.80245 -2.3281 0
M  V30 1168 O 109.541 5.54537 -1.33585 0
M  V30 1169 O 108.475 5.08554 -3.21957 0
M  V30 1170 H 112.301 1.8869 -2.3797 0
M  V30 1171 H 109.886 0.875837 -1.21035 0
M  V30 1172 H 111.768 4.03877 -1.20255 0
M  V30 1173 H 110.443 3.22005 -0.330862 0
M  V30 1174 H 109.35 2.70027 -2.58914 0
M  V30 1175 H 110.683 3.56632 -3.39227 0
M  V30 1176 N 112.336 1.25143 0.95797 0
M  V30 1177 C 113.613 1.00472 1.67823 0
M  V30 1178 C 113.993 -0.470056 2.058 0
M  V30 1179 O 113.341 -1.44663 1.76875 0
M  V30 1180 C 113.551 1.9372 2.90299 0
M  V30 1181 C 114.899 2.21371 3.62326 0
M  V30 1182 O 115.923 1.91451 3.00375 0
M  V30 1183 O 114.782 2.72231 4.7387 0
M  V30 1184 H 111.876 0.380752 0.734137 0
M  V30 1185 H 114.422 1.36283 1.01119 0
M  V30 1186 H 113.194 2.93316 2.59001 0
M  V30 1187 H 112.817 1.58286 3.64735 0
M  V30 1188 N 113.814 -1.1601 1.06675 0
M  V30 1189 C 114.744 -2.22688 0.702307 0
M  V30 1190 C 115.725 -1.67306 -0.307032 0
M  V30 1191 O 116.91 -1.93352 -0.181305 0
M  V30 1192 C 114.04 -3.47178 0.092038 0
M  V30 1193 C 112.994 -4.15477 1.02777 0
M  V30 1194 C 112.32 -5.33963 0.28061 0
M  V30 1195 C 113.62 -4.66019 2.35846 0
M  V30 1196 H 115.314 -2.53429 1.59419 0
M  V30 1197 H 112.86 -1.21813 0.767961 0
M  V30 1198 H 114.813 -4.21037 -0.174814 0
M  V30 1199 H 113.537 -3.15749 -0.834877 0
M  V30 1200 H 112.196 -3.43549 1.27944 0
M  V30 1201 H 111.844 -4.98788 -0.649545 0
M  V30 1202 H 111.544 -5.806 0.904258 0
M  V30 1203 H 113.068 -6.10596 0.021396 0
M  V30 1204 H 114.482 -5.3144 2.15045 0
M  V30 1205 H 112.879 -5.23293 2.93743 0
M  V30 1206 H 113.949 -3.82023 2.98641 0
M  V30 1207 N 115.292 -0.849877 -1.32721 0
M  V30 1208 C 116.517 -0.463856 -2.02146 0
M  V30 1209 C 116.942 0.930449 -1.63476 0
M  V30 1210 O 116.3 1.61033 -0.832952 0
M  V30 1211 C 116.348 -0.604955 -3.55489 0
M  V30 1212 O 115.452 0.36425 -4.10788 0
M  V30 1213 H 114.793 -0.187046 -0.637111 0
M  V30 1214 H 117.323 -1.14775 -1.69375 0
M  V30 1215 H 117.333 -0.490696 -4.05038 0
M  V30 1216 H 116.008 -1.62174 -3.82978 0
M  V30 1217 H 114.585 0.206628 -3.72327 0
M  V30 1218 N 116.77 1.45427 -0.607355 0
M  V30 1219 C 117.718 2.32269 0.12411 0
M  V30 1220 C 118.712 1.45955 0.859854 0
M  V30 1221 O 119.918 1.6244 0.775447 0
M  V30 1222 H 116.293 0.749691 0.0588839 0
M  V30 1223 H 118.264 2.91743 -0.626762 0
M  V30 1224 C 117.013 3.29567 1.1082 0
M  V30 1225 H 116.336 3.95978 0.551492 0
M  V30 1226 H 117.776 3.93061 1.58995 0
M  V30 1227 C 116.235 2.56722 2.18164 0
M  V30 1228 O 116.765 2.34842 3.25902 0
M  V30 1229 N 114.971 2.16861 1.93442 0
M  V30 1230 H 114.518 2.34855 1.05834 0
M  V30 1231 H 114.476 1.68444 2.65469 0
M  V30 1232 N 118.248 0.346503 1.53744 0
M  V30 1233 C 119.195 -0.508914 2.25119 0
M  V30 1234 C 120.165 -1.09315 1.25058 0
M  V30 1235 O 121.35 -1.12921 1.53797 0
M  V30 1236 C 118.49 -1.65246 3.02965 0
M  V30 1237 C 117.603 -1.09525 4.17886 0
M  V30 1238 C 116.738 -2.20634 4.83212 0
M  V30 1239 C 115.777 -1.62279 5.90196 0
M  V30 1240 N 114.914 -2.67143 6.49291 0
M  V30 1241 H 119.754 0.106283 2.9781 0
M  V30 1242 H 117.291 0.0642227 1.4696 0
M  V30 1243 H 119.249 -2.32574 3.4636 0
M  V30 1244 H 117.879 -2.2386 2.32565 0
M  V30 1245 H 116.931 -0.312818 3.79112 0
M  V30 1246 H 118.243 -0.628444 4.94825 0
M  V30 1247 H 117.397 -2.95821 5.29693 0
M  V30 1248 H 116.136 -2.70659 4.05703 0
M  V30 1249 H 115.141 -0.855989 5.43096 0
M  V30 1250 H 116.366 -1.13102 6.69615 0
M  V30 1251 H 114.312 -3.16417 5.74645 0
M  V30 1252 H 114.229 -2.25093 7.21713 0
M  V30 1253 H 115.497 -3.4209 7.00425 0
M  V30 1254 N 119.726 -1.57421 0.075193 0
M  V30 1255 C 120.674 -2.14124 -0.908508 0
M  V30 1256 C 121.668 -1.07898 -1.30592 0
M  V30 1257 O 122.874 -1.26273 -1.28277 0
M  V30 1258 H 119.249 -0.684707 -0.310935 0
M  V30 1259 H 121.22 -2.95634 -0.405374 0
M  V30 1260 C 119.969 -2.72044 -2.16535 0
M  V30 1261 H 119.292 -3.53456 -1.86839 0
M  V30 1262 H 120.732 -3.15311 -2.83469 0
M  V30 1263 C 119.191 -1.66968 -2.92615 0
M  V30 1264 O 119.721 -1.0967 -3.86439 0
M  V30 1265 N 117.927 -1.37923 -2.55784 0
M  V30 1266 H 117.474 -1.84706 -1.79559 0
M  V30 1267 H 117.432 -0.67852 -3.06991 0
M  V30 1268 N 121.204 0.198386 -1.56346 0
M  V30 1269 C 122.434 0.934215 -1.84271 0
M  V30 1270 C 122.842 1.77496 -0.655125 0
M  V30 1271 O 122.185 1.7961 0.385488 0
M  V30 1272 C 122.247 1.88278 -3.06254 0
M  V30 1273 C 121.911 1.22431 -4.40295 0
M  V30 1274 C 122.908 0.602839 -5.16393 0
M  V30 1275 C 120.593 1.22915 -4.87029 0
M  V30 1276 C 122.587 -0.0050083 -6.374 0
M  V30 1277 C 120.274 0.617465 -6.07973 0
M  V30 1278 C 121.272 0.00146341 -6.83 0
M  V30 1279 O 120.96 -0.600642 -8.01653 0
M  V30 1280 H 120.692 0.278245 -0.616081 0
M  V30 1281 H 123.246 0.211626 -2.04307 0
M  V30 1282 H 121.476 2.64498 -2.82095 0
M  V30 1283 H 123.165 2.48612 -3.20853 0
M  V30 1284 H 123.931 0.591265 -4.81382 0
M  V30 1285 H 119.81 1.69801 -4.28589 0
M  V30 1286 H 123.354 -0.48643 -6.95902 0
M  V30 1287 H 119.251 0.62653 -6.42452 0
M  V30 1288 H 120.019 -0.497225 -8.16988 0
M  V30 1289 N 122.682 1.50554 0.465978 0
M  V30 1290 C 123.629 1.6979 1.56333 0
M  V30 1291 C 124.599 0.539239 1.57103 0
M  V30 1292 O 125.784 0.770401 1.74555 0
M  V30 1293 C 122.924 1.80273 2.94271 0
M  V30 1294 C 122.037 3.07674 3.0325 0
M  V30 1295 C 121.172 3.08922 4.32135 0
M  V30 1296 C 120.211 4.30755 4.34875 0
M  V30 1297 N 119.348 4.29714 5.55239 0
M  V30 1298 H 124.188 2.63472 1.39235 0
M  V30 1299 H 121.725 1.30602 0.676873 0
M  V30 1300 H 123.683 1.84332 3.74269 0
M  V30 1301 H 122.313 0.900258 3.09992 0
M  V30 1302 H 121.365 3.13062 2.16094 0
M  V30 1303 H 122.677 3.97642 3.01135 0
M  V30 1304 H 121.831 3.11738 5.20485 0
M  V30 1305 H 120.57 2.16792 4.36866 0
M  V30 1306 H 119.575 4.28146 3.44922 0
M  V30 1307 H 120.8 5.24117 4.31831 0
M  V30 1308 H 118.746 3.4044 5.60746 0
M  V30 1309 H 118.663 5.13456 5.54886 0
M  V30 1310 H 119.931 4.36683 6.457 0
M  V30 1311 N 124.16 -0.719506 1.40217 0
M  V30 1312 C 125.408 -1.47641 1.3801 0
M  V30 1313 C 125.729 -1.94992 -0.018145 0
M  V30 1314 O 124.999 -1.70073 -0.972207 0
M  V30 1315 H 123.579 -0.547744 0.507923 0
M  V30 1316 H 126.241 -0.853187 1.75233 0
M  V30 1317 H 125.337 -2.35112 2.05253 0
M  V30 1318 N 125.638 -1.25649 -0.95132 0
M  V30 1319 C 126.887 -1.09988 -1.69073 0
M  V30 1320 C 127.2 0.358355 -1.92289 0
M  V30 1321 O 128.406 0.635466 -2.63958 0
M  V30 1322 C 126.862 -1.92012 -3.044 0
M  V30 1323 C 126.47 -3.42347 -2.88968 0
M  V30 1324 C 128.214 -1.8493 -3.82101 0
M  V30 1325 C 126.121 -4.16655 -4.19705 0
M  V30 1326 H 125.051 -0.407993 -0.63408 0
M  V30 1327 H 127.702 -1.49873 -1.05879 0
M  V30 1328 H 126.084 -1.44952 -3.68517 0
M  V30 1329 H 127.258 -3.97104 -2.33762 0
M  V30 1330 H 125.573 -3.50557 -2.24719 0
M  V30 1331 H 128.17 -2.37739 -4.78941 0
M  V30 1332 H 128.513 -0.817883 -4.08187 0
M  V30 1333 H 129.046 -2.29758 -3.2474 0
M  V30 1334 H 125.785 -5.20224 -3.98807 0
M  V30 1335 H 125.305 -3.66681 -4.74663 0
M  V30 1336 H 126.984 -4.24551 -4.88227 0
M  V30 1337 N 127.117 1.15442 -1.07289 0
M  V30 1338 C 128.08 2.18358 -0.696591 0
M  V30 1339 C 129.08 1.58637 0.262837 0
M  V30 1340 O 130.27 1.74145 0.0438809 0
M  V30 1341 C 127.402 3.4089 -0.0266151 0
M  V30 1342 H 128.595 2.53162 -1.60776 0
M  V30 1343 H 126.148 1.29893 -0.869342 0
M  V30 1344 H 126.883 3.11653 0.896822 0
M  V30 1345 H 126.668 3.85495 -0.716657 0
M  V30 1346 H 128.158 4.17009 0.222028 0
M  V30 1347 N 128.595 0.856903 1.32268 0
M  V30 1348 C 129.842 0.461386 1.97174 0
M  V30 1349 C 130.17 -0.983491 1.67803 0
M  V30 1350 O 129.425 -1.70541 0.959903 0
M  V30 1351 C 129.724 0.649919 3.51441 0
M  V30 1352 C 129.39 2.0656 4.00804 0
M  V30 1353 C 128.052 2.45279 4.13995 0
M  V30 1354 C 130.404 2.98947 4.26943 0
M  V30 1355 C 127.732 3.75653 4.50668 0
M  V30 1356 C 130.084 4.28822 4.65075 0
M  V30 1357 C 128.748 4.67472 4.76472 0
M  V30 1358 H 128.018 0.168833 0.72151 0
M  V30 1359 H 130.665 1.08739 1.57633 0
M  V30 1360 H 128.97 -0.0593018 3.91755 0
M  V30 1361 H 130.667 0.32391 3.9969 0
M  V30 1362 H 127.257 1.75495 3.91024 0
M  V30 1363 H 131.441 2.70265 4.16258 0
M  V30 1364 H 126.697 4.05379 4.57688 0
M  V30 1365 H 130.871 5.0047 4.84255 0
M  V30 1366 H 128.498 5.68539 5.04646 0
M  V30 1367 N 130.073 -1.45103 0.615059 0
M  V30 1368 C 131.036 -2.29025 -0.0895485 0
M  V30 1369 C 132.036 -1.40174 -0.787906 0
M  V30 1370 O 133.226 -1.62217 -0.634933 0
M  V30 1371 C 130.358 -3.21376 -1.13711 0
M  V30 1372 H 131.551 -2.92807 0.648382 0
M  V30 1373 H 129.104 -1.51749 0.374444 0
M  V30 1374 H 129.839 -2.6241 -1.90556 0
M  V30 1375 H 129.624 -3.86834 -0.640475 0
M  V30 1376 H 131.114 -3.84459 -1.63036 0
M  V30 1377 N 131.551 -0.354651 -1.53558 0
M  V30 1378 C 132.962 0.126902 -1.86268 0
M  V30 1379 C 133.313 1.49075 -1.27558 0
M  V30 1380 O 132.438 2.08105 -0.5934 0
M  V30 1381 C 133.033 0.237046 -3.3797 0
M  V30 1382 C 131.592 0.662842 -3.70518 0
M  V30 1383 C 130.739 -0.196652 -2.76602 0
M  V30 1384 H 133.69 -0.573849 -1.47962 0
M  V30 1385 H 133.711 1.06259 -3.65362 0
M  V30 1386 H 133.223 -0.755725 -3.80671 0
M  V30 1387 H 131.324 1.66424 -3.33367 0
M  V30 1388 H 131.437 0.445034 -4.77029 0
M  V30 1389 H 129.801 0.332763 -2.52517 0
M  V30 1390 H 130.584 -1.18676 -3.22135 0
M  V30 1391 N 133.029 1.57378 -0.0835403 0
M  V30 1392 C 133.959 2.1641 0.87686 0
M  V30 1393 C 134.94 1.09429 1.30228 0
M  V30 1394 O 136.125 1.37516 1.37124 0
M  V30 1395 C 133.255 2.73517 2.14022 0
M  V30 1396 C 132.209 3.85769 1.85381 0
M  V30 1397 C 131.535 4.29529 3.18448 0
M  V30 1398 C 132.835 5.09486 1.14984 0
M  V30 1399 H 134.529 2.96914 0.385059 0
M  V30 1400 H 132.075 1.42823 0.18377 0
M  V30 1401 H 134.028 3.13463 2.81636 0
M  V30 1402 H 132.752 1.90252 2.65465 0
M  V30 1403 H 131.411 3.46345 1.20169 0
M  V30 1404 H 131.059 3.43169 3.67755 0
M  V30 1405 H 130.759 5.05204 3.00071 0
M  V30 1406 H 132.283 4.72099 3.8724 0
M  V30 1407 H 133.697 5.46674 1.72687 0
M  V30 1408 H 132.094 5.90515 1.06826 0
M  V30 1409 H 133.164 4.84724 0.130749 0
M  V30 1410 N 134.507 -0.190092 1.56449 0
M  V30 1411 C 135.732 -0.929864 1.85387 0
M  V30 1412 C 136.157 -1.7585 0.667704 0
M  V30 1413 O 135.515 -1.77198 -0.383459 0
M  V30 1414 C 135.563 -1.79773 3.12593 0
M  V30 1415 O 134.667 -2.89713 2.93496 0
M  V30 1416 H 134.008 -0.261574 0.610307 0
M  V30 1417 H 136.538 -0.193896 2.03679 0
M  V30 1418 H 136.548 -2.20139 3.43515 0
M  V30 1419 H 135.223 -1.18892 3.98544 0
M  V30 1420 H 133.8 -2.53065 2.73884 0
M  V30 1421 N 135.985 -1.50799 -0.457987 0
M  V30 1422 C 137.21 -1.66496 -1.23668 0
M  V30 1423 C 137.635 -0.353288 -1.84752 0
M  V30 1424 O 136.993 0.684346 -1.67888 0
M  V30 1425 C 137.041 -2.76763 -2.3116 0
M  V30 1426 O 136.145 -2.38928 -3.36136 0
M  V30 1427 H 135.486 -0.555828 -0.363252 0
M  V30 1428 H 138.016 -1.9725 -0.543474 0
M  V30 1429 H 138.026 -3.00232 -2.76269 0
M  V30 1430 H 136.701 -3.71954 -1.86073 0
M  V30 1431 H 135.278 -2.25953 -2.96647 0
M  V30 1432 N 137.463 0.71206 -1.40597 0
M  V30 1433 C 138.709 1.47416 -1.39271 0
M  V30 1434 C 139.042 1.942 0.00388791 0
M  V30 1435 O 138.317 1.68403 0.973179 0
M  V30 1436 C 138.6 2.69774 -2.38525 0
M  V30 1437 C 138.453 2.28861 -3.87224 0
M  V30 1438 C 139.772 3.71939 -2.35264 0
M  V30 1439 H 136.891 0.534713 -0.5072 0
M  V30 1440 H 139.533 0.812375 -1.71757 0
M  V30 1441 H 137.683 3.26238 -2.10953 0
M  V30 1442 H 139.355 1.77852 -4.25636 0
M  V30 1443 H 137.598 1.60824 -4.02887 0
M  V30 1444 H 138.269 3.16584 -4.52193 0
M  V30 1445 H 140.745 3.25113 -2.59694 0
M  V30 1446 H 139.621 4.55186 -3.06753 0
M  V30 1447 H 139.882 4.20484 -1.36549 0
M  V30 1448 N 138.941 1.26152 0.944643 0
M  V30 1449 C 139.889 1.07215 2.06417 0
M  V30 1450 C 140.883 9.2007e-05 1.694 0
M  V30 1451 O 142.089 0.1565 1.79318 0
M  V30 1452 H 138.464 0.329837 0.675805 0
M  V30 1453 H 140.435 2.02099 2.19541 0
M  V30 1454 C 139.184 0.718197 3.40202 0
M  V30 1455 H 138.507 1.53497 3.69159 0
M  V30 1456 H 139.947 0.625459 4.19361 0
M  V30 1457 C 138.406 -0.576435 3.31932 0
M  V30 1458 O 138.936 -1.61574 3.67773 0
M  V30 1459 N 137.142 -0.565781 2.85039 0
M  V30 1460 H 136.689 0.280367 2.5607 0
M  V30 1461 H 136.647 -1.43213 2.79888 0
M  V30 1462 N 140.419 -1.14872 1.07899 0
M  V30 1463 C 141.349 -2.2193 0.725887 0
M  V30 1464 C 142.33 -1.67622 -0.28927 0
M  V30 1465 O 143.515 -1.93533 -0.160787 0
M  V30 1466 C 140.645 -3.47061 0.128856 0
M  V30 1467 C 139.599 -4.14363 1.07178 0
M  V30 1468 C 138.925 -5.33636 0.337229 0
M  V30 1469 C 140.225 -4.63492 2.40775 0
M  V30 1470 H 141.919 -2.51724 1.62097 0
M  V30 1471 H 139.465 -1.20991 0.780838 0
M  V30 1472 H 141.418 -4.21199 -0.130147 0
M  V30 1473 H 140.142 -3.16617 -0.80134 0
M  V30 1474 H 138.801 -3.42173 1.3158 0
M  V30 1475 H 138.449 -4.99449 -0.596606 0
M  V30 1476 H 138.149 -5.79609 0.965788 0
M  V30 1477 H 139.673 -6.10539 0.0861567 0
M  V30 1478 H 141.087 -5.2913 2.20669 0
M  V30 1479 H 139.484 -5.20148 2.99276 0
M  V30 1480 H 140.554 -3.78834 3.02676 0
M  V30 1481 N 141.898 -0.863906 -1.31812 0
M  V30 1482 C 143.144 -0.472535 -1.97218 0
M  V30 1483 C 143.477 0.971394 -1.68159 0
M  V30 1484 O 142.752 1.68309 -0.974798 0
M  V30 1485 C 143.035 -0.723054 -3.52766 0
M  V30 1486 C 142.888 -2.21608 -3.91421 0
M  V30 1487 C 144.207 -0.185522 -4.39709 0
M  V30 1488 H 141.326 -0.173158 -0.71637 0
M  V30 1489 H 143.968 -1.08403 -1.56041 0
M  V30 1490 H 142.118 -0.202577 -3.87971 0
M  V30 1491 H 143.79 -2.80334 -3.66347 0
M  V30 1492 H 142.033 -2.691 -3.40246 0
M  V30 1493 H 142.704 -2.34203 -4.99853 0
M  V30 1494 H 145.18 -0.630726 -4.11292 0
M  V30 1495 H 144.056 -0.390306 -5.47511 0
M  V30 1496 H 144.317 0.912229 -4.32586 0
M  V30 1497 N 143.376 1.44774 -0.622745 0
M  V30 1498 C 144.309 2.27792 0.136329 0
M  V30 1499 C 145.287 1.38041 0.859264 0
M  V30 1500 O 146.471 1.67478 0.86506 0
M  V30 1501 C 143.598 3.16776 1.19878 0
M  V30 1502 C 142.644 4.22575 0.57731 0
M  V30 1503 S 143.477 5.31825 -0.626294 0
M  V30 1504 C 144.633 6.24377 0.436378 0
M  V30 1505 H 144.866 2.91824 -0.567967 0
M  V30 1506 H 142.399 1.48838 -0.410677 0
M  V30 1507 H 144.357 3.68596 1.80686 0
M  V30 1508 H 143.018 2.5198 1.87523 0
M  V30 1509 H 142.211 4.84818 1.37721 0
M  V30 1510 H 141.813 3.73974 0.0440439 0
M  V30 1511 H 144.105 6.64689 1.31128 0
M  V30 1512 H 145.048 7.07941 -0.150271 0
M  V30 1513 H 145.456 5.59381 0.758513 0
M  V30 1514 N 144.854 0.36279 1.53368 0
M  V30 1515 C 146.265 -0.117022 1.86333 0
M  V30 1516 C 146.616 -1.48397 1.28347 0
M  V30 1517 O 145.741 -2.07787 0.604428 0
M  V30 1518 C 146.336 -0.21912 3.38091 0
M  V30 1519 C 144.895 -0.643184 3.70864 0
M  V30 1520 C 144.042 0.211318 2.76494 0
M  V30 1521 H 146.993 0.581687 1.47655 0
M  V30 1522 H 147.014 -1.04319 3.6592 0
M  V30 1523 H 146.526 0.775902 3.80265 0
M  V30 1524 H 144.627 -1.64654 3.34245 0
M  V30 1525 H 144.74 -0.41973 4.77258 0
M  V30 1526 H 143.104 -0.319367 2.5269 0
M  V30 1527 H 143.887 1.20383 3.21501 0
M  V30 1528 N 146.332 -1.57332 0.0918853 0
M  V30 1529 C 147.578 -1.94524 -0.573425 0
M  V30 1530 C 147.911 -0.973578 -1.68033 0
M  V30 1531 O 147.186 -0.00609226 -1.94499 0
M  V30 1532 C 147.469 -3.41858 -1.13161 0
M  V30 1533 C 147.322 -4.4979 -0.0299747 0
M  V30 1534 C 148.641 -3.90435 -2.03098 0
M  V30 1535 H 145.76 -0.70734 -0.206975 0
M  V30 1536 H 148.402 -1.89309 0.161942 0
M  V30 1537 H 146.552 -3.46433 -1.7583 0
M  V30 1538 H 148.224 -4.57327 0.604112 0
M  V30 1539 H 146.467 -4.291 0.636833 0
M  V30 1540 H 147.138 -5.50069 -0.461287 0
M  V30 1541 H 149.614 -3.87992 -1.50338 0
M  V30 1542 H 148.49 -4.94097 -2.39081 0
M  V30 1543 H 148.751 -3.29541 -2.94712 0
M  V30 1544 N 147.81 0.181792 -1.56548 0
M  V30 1545 C 148.773 1.20894 -1.94724 0
M  V30 1546 C 149.773 1.37738 -0.829747 0
M  V30 1547 O 150.963 1.35323 -1.09697 0
M  V30 1548 C 148.095 2.57593 -2.23291 0
M  V30 1549 H 149.288 0.882275 -2.86629 0
M  V30 1550 H 146.841 0.423838 -1.50444 0
M  V30 1551 H 147.576 2.95291 -1.34067 0
M  V30 1552 H 147.361 2.46735 -3.04736 0
M  V30 1553 H 148.851 3.31637 -2.53785 0
M  V30 1554 N 149.288 1.51039 0.449983 0
M  V30 1555 C 150.704 1.38934 0.785462 0
M  V30 1556 C 150.904 0.461817 1.96136 0
M  V30 1557 O 149.96 -0.0877389 2.52348 0
M  V30 1558 C 151.273 2.80724 1.0777 0
M  V30 1559 C 152.821 2.89787 1.1829 0
M  V30 1560 C 153.296 4.32457 1.50815 0
M  V30 1561 N 154.787 4.35505 1.57764 0
M  V30 1562 C 155.522 5.42914 1.84477 0
M  V30 1563 N 155.018 6.60502 2.09068 0
M  V30 1564 N 156.811 5.3038 1.86155 0
M  V30 1565 H 148.962 2.09904 -0.324647 0
M  V30 1566 H 151.225 0.944378 -0.0827957 0
M  V30 1567 H 150.931 3.50531 0.286498 0
M  V30 1568 H 150.805 3.19273 2.00859 0
M  V30 1569 H 153.192 2.20186 1.96474 0
M  V30 1570 H 153.273 2.54752 0.231314 0
M  V30 1571 H 152.917 5.02603 0.731622 0
M  V30 1572 H 152.847 4.64995 2.47158 0
M  V30 1573 H 155.338 3.50724 1.40715 0
M  V30 1574 H 155.651 7.38158 2.28785 0
M  V30 1575 H 153.996 6.63639 2.06416 0
M  V30 1576 H 157.187 4.37505 1.66454 0
M  V30 1577 H 157.36 6.1417 2.06637 0
M  V30 1578 N 150.766 -0.704594 1.40972 0
M  V30 1579 C 151.729 -1.80035 1.41845 0
M  V30 1580 C 152.729 -1.57774 0.310474 0
M  V30 1581 O 153.919 -1.64613 0.56992 0
M  V30 1582 C 151.051 -3.18284 1.22098 0
M  V30 1583 H 152.244 -1.80658 2.3938 0
M  V30 1584 H 149.797 -0.911329 1.26982 0
M  V30 1585 H 150.532 -3.23306 0.253672 0
M  V30 1586 H 150.317 -3.35843 2.02366 0
M  V30 1587 H 151.807 -3.98289 1.25522 0
M  V30 1588 N 152.244 -1.26651 -0.937939 0
M  V30 1589 C 153.49 -1.13562 -1.68746 0
M  V30 1590 C 153.845 0.317241 -1.89767 0
M  V30 1591 O 153.138 1.22939 -1.46957 0
M  V30 1592 C 153.332 -1.84168 -3.06295 0
M  V30 1593 C 153.161 -3.36171 -2.98696 0
M  V30 1594 C 151.931 -4.05468 -3.01535 0
M  V30 1595 C 154.129 -4.32312 -2.78588 0
M  V30 1596 N 152.111 -5.44118 -2.84269 0
M  V30 1597 C 153.482 -5.58159 -2.69924 0
M  V30 1598 C 155.537 -4.22524 -2.63396 0
M  V30 1599 C 154.24 -6.75335 -2.47618 0
M  V30 1600 C 156.266 -5.39411 -2.42466 0
M  V30 1601 C 155.628 -6.64208 -2.34536 0
M  V30 1602 H 151.727 -0.470361 -0.624728 0
M  V30 1603 H 154.311 -1.59982 -1.10968 0
M  V30 1604 H 152.482 -1.40219 -3.62206 0
M  V30 1605 H 154.214 -1.63674 -3.70126 0
M  V30 1606 H 150.969 -3.56854 -3.11372 0
M  V30 1607 H 151.393 -6.1693 -2.78795 0
M  V30 1608 H 156.035 -3.26771 -2.68292 0
M  V30 1609 H 153.753 -7.71182 -2.41463 0
M  V30 1610 H 157.339 -5.33711 -2.31611 0
M  V30 1611 H 156.219 -7.53129 -2.18555 0
M  V30 1612 N 153.722 1.14298 -1.08507 0
M  V30 1613 C 154.669 2.19414 -0.715965 0
M  V30 1614 C 155.639 1.63399 0.298326 0
M  V30 1615 O 156.824 1.89929 0.182101 0
M  V30 1616 C 153.964 3.44845 -0.132534 0
M  V30 1617 C 153.077 4.15007 -1.19973 0
M  V30 1618 C 152.212 5.28024 -0.580048 0
M  V30 1619 C 151.251 5.9002 -1.62921 0
M  V30 1620 N 150.388 6.94485 -1.03125 0
M  V30 1621 H 155.228 2.50336 -1.61666 0
M  V30 1622 H 152.765 1.2293 -0.807882 0
M  V30 1623 H 154.723 4.16601 0.223454 0
M  V30 1624 H 153.353 3.14403 0.731467 0
M  V30 1625 H 152.405 3.41629 -1.67313 0
M  V30 1626 H 153.717 4.57178 -1.99473 0
M  V30 1627 H 152.871 6.06455 -0.172364 0
M  V30 1628 H 151.61 4.87076 0.246603 0
M  V30 1629 H 150.615 5.10291 -2.04654 0
M  V30 1630 H 151.84 6.33042 -2.45835 0
M  V30 1631 H 149.786 6.55612 -0.225711 0
M  V30 1632 H 149.703 7.35148 -1.76334 0
M  V30 1633 H 150.971 7.7679 -0.649458 0
M  V30 1634 N 155.201 0.870884 1.31352 0
M  V30 1635 C 156.148 0.325425 2.28494 0
M  V30 1636 C 157.118 -0.576615 1.5577 0
M  V30 1637 O 158.303 -0.508059 1.83911 0
M  V30 1638 C 155.443 -0.466283 3.41935 0
M  V30 1639 C 154.556 0.463378 4.29508 0
M  V30 1640 C 153.691 -0.342544 5.30094 0
M  V30 1641 C 152.73 0.583486 6.09313 0
M  V30 1642 N 151.867 -0.186244 7.01853 0
M  V30 1643 H 156.707 1.15901 2.74538 0
M  V30 1644 H 154.244 0.58294 1.35056 0
M  V30 1645 H 156.202 -0.941085 4.06447 0
M  V30 1646 H 154.832 -1.26456 2.97 0
M  V30 1647 H 153.884 1.05663 3.65431 0
M  V30 1648 H 155.196 1.1734 4.84802 0
M  V30 1649 H 154.35 -0.879816 6.00287 0
M  V30 1650 H 153.089 -1.08585 4.75458 0
M  V30 1651 H 152.094 1.13251 5.3801 0
M  V30 1652 H 153.319 1.32566 6.66035 0
M  V30 1653 H 151.265 -0.912348 6.49625 0
M  V30 1654 H 151.182 0.464422 7.54572 0
M  V30 1655 H 152.45 -0.704716 7.76308 0
M  V30 1656 N 156.679 -1.44442 0.630414 0
M  V30 1657 C 157.927 -2.01653 0.134351 0
M  V30 1658 C 158.248 -1.49836 -1.24796 0
M  V30 1659 O 157.518 -0.701684 -1.82902 0
M  V30 1660 H 156.098 -0.74554 0.0466769 0
M  V30 1661 H 158.76 -1.76952 0.816955 0
M  V30 1662 H 157.856 -3.11935 0.101498 0
M  V30 1663 N 158.157 -0.370918 -1.53173 0
M  V30 1664 C 159.406 0.218249 -2.00516 0
M  V30 1665 C 159.719 1.49429 -1.26215 0
M  V30 1666 O 160.925 2.16239 -1.64174 0
M  V30 1667 C 159.381 0.43948 -3.57207 0
M  V30 1668 C 158.989 -0.822244 -4.4039 0
M  V30 1669 C 160.733 0.986012 -4.1289 0
M  V30 1670 C 158.64 -0.570304 -5.88644 0
M  V30 1671 H 157.57 0.0853333 -0.749156 0
M  V30 1672 H 160.221 -0.490483 -1.76823 0
M  V30 1673 H 158.603 1.20961 -3.77074 0
M  V30 1674 H 159.777 -1.59557 -4.32294 0
M  V30 1675 H 158.092 -1.29238 -3.95836 0
M  V30 1676 H 160.689 1.18991 -5.21292 0
M  V30 1677 H 161.032 1.94972 -3.6782 0
M  V30 1678 H 161.565 0.27592 -3.96842 0
M  V30 1679 H 158.304 -1.50449 -6.38001 0
M  V30 1680 H 157.824 0.164427 -5.99575 0
M  V30 1681 H 159.503 -0.19784 -6.46697 0
M  V30 1682 N 159.635 1.57281 -0.100228 0
M  V30 1683 C 160.865 1.98591 0.569681 0
M  V30 1684 C 161.273 0.978315 1.61943 0
M  V30 1685 O 160.616 -0.0396108 1.83657 0
M  V30 1686 C 160.678 3.36282 1.271 0
M  V30 1687 C 160.342 4.55488 0.371409 0
M  V30 1688 C 161.339 5.18491 -0.382504 0
M  V30 1689 C 159.024 5.01474 0.287965 0
M  V30 1690 C 161.018 6.25852 -1.20779 0
M  V30 1691 C 158.705 6.08701 -0.540965 0
M  V30 1692 C 159.703 6.70755 -1.28749 0
M  V30 1693 O 159.391 7.75914 -2.10269 0
M  V30 1694 H 159.123 0.65752 0.156982 0
M  V30 1695 H 161.677 2.0463 -0.177734 0
M  V30 1696 H 159.907 3.26941 2.0651 0
M  V30 1697 H 161.596 3.62005 1.83595 0
M  V30 1698 H 162.362 4.83891 -0.3278 0
M  V30 1699 H 158.241 4.52932 0.858689 0
M  V30 1700 H 161.785 6.74218 -1.79096 0
M  V30 1701 H 157.682 6.42732 -0.597131 0
M  V30 1702 H 158.45 7.92925 -2.03007 0
M  V30 1703 N 161.113 -0.173488 1.56642 0
M  V30 1704 C 162.043 -1.2171 1.99271 0
M  V30 1705 C 163.024 -1.46289 0.867959 0
M  V30 1706 O 164.209 -1.5766 1.13388 0
M  V30 1707 C 161.339 -2.55651 2.35074 0
M  V30 1708 C 160.293 -2.45645 3.50489 0
M  V30 1709 C 159.619 -3.84056 3.72028 0
M  V30 1710 C 160.919 -1.96302 4.84007 0
M  V30 1711 H 162.613 -0.86275 2.867 0
M  V30 1712 H 160.159 -0.413571 1.37933 0
M  V30 1713 H 162.112 -3.2886 2.63494 0
M  V30 1714 H 160.836 -2.92869 1.44552 0
M  V30 1715 H 159.495 -1.7489 3.22194 0
M  V30 1716 H 159.143 -4.18664 2.788 0
M  V30 1717 H 158.843 -3.7823 4.49684 0
M  V30 1718 H 160.367 -4.58854 4.02846 0
M  V30 1719 H 161.781 -2.59284 5.11317 0
M  V30 1720 H 160.178 -2.01429 5.65284 0
M  V30 1721 H 161.248 -0.917226 4.76146 0
M  V30 1722 N 162.591 -1.51276 -0.441967 0
M  V30 1723 C 163.837 -1.63958 -1.19355 0
M  V30 1724 C 164.17 -0.352543 -1.90973 0
M  V30 1725 O 163.445 0.647627 -1.83401 0
M  V30 1726 C 163.728 -2.83979 -2.21422 0
M  V30 1727 C 163.581 -4.22646 -1.53918 0
M  V30 1728 C 164.9 -2.99521 -3.22451 0
M  V30 1729 H 162.019 -0.596709 -0.432559 0
M  V30 1730 H 164.661 -1.83748 -0.483398 0
M  V30 1731 H 162.811 -2.67237 -2.81987 0
M  V30 1732 H 164.483 -4.51045 -0.967256 0
M  V30 1733 H 162.726 -4.25558 -0.841615 0
M  V30 1734 H 163.397 -5.02609 -2.28229 0
M  V30 1735 H 165.873 -3.14944 -2.71937 0
M  V30 1736 H 164.749 -3.85072 -3.91166 0
M  V30 1737 H 165.01 -2.11391 -3.88287 0
M  V30 1738 N 164.069 0.697108 -1.41344 0
M  V30 1739 C 165.017 1.83237 -1.43272 0
M  V30 1740 C 166.011 1.66522 -0.310947 0
M  V30 1741 O 167.217 1.73402 -0.482899 0
M  V30 1742 H 163.592 0.603802 -0.448249 0
M  V30 1743 H 165.563 1.78727 -2.38954 0
M  V30 1744 C 164.312 3.21245 -1.33029 0
M  V30 1745 H 163.635 3.34723 -2.18633 0
M  V30 1746 H 165.075 4.00763 -1.38439 0
M  V30 1747 C 163.534 3.36873 -0.0424635 0
M  V30 1748 O 164.064 3.91177 0.913421 0
M  V30 1749 N 162.27 2.90581 0.0331145 0
M  V30 1750 H 161.817 2.46577 -0.745506 0
M  V30 1751 H 161.775 3.01416 0.894199 0
M  V30 1752 N 165.547 1.27147 0.931209 0
M  V30 1753 C 166.477 1.12081 2.04842 0
M  V30 1754 C 167.458 0.0232364 1.70084 0
M  V30 1755 O 168.643 0.197085 1.93197 0
M  V30 1756 C 165.773 0.76354 3.38803 0
M  V30 1757 C 164.727 1.81396 3.87659 0
M  V30 1758 C 164.053 1.31075 5.18385 0
M  V30 1759 C 165.353 3.21739 4.11438 0
M  V30 1760 H 167.047 2.05537 2.17703 0
M  V30 1761 H 164.593 0.989603 1.04608 0
M  V30 1762 H 166.546 0.644982 4.16435 0
M  V30 1763 H 165.27 -0.206727 3.25945 0
M  V30 1764 H 163.929 1.92136 3.12217 0
M  V30 1765 H 163.577 0.330037 5.01916 0
M  V30 1766 H 163.277 2.013 5.52044 0
M  V30 1767 H 164.801 1.20506 5.98591 0
M  V30 1768 H 166.215 3.14019 4.79651 0
M  V30 1769 H 164.612 3.89644 4.56397 0
M  V30 1770 H 165.682 3.67054 3.16859 0
M  V30 1771 N 167.025 -1.13721 1.09112 0
M  V30 1772 C 168.302 -1.81155 0.737706 0
M  V30 1773 C 168.682 -1.96253 -0.777683 0
M  V30 1774 O 168.03 -1.52807 -1.69889 0
M  V30 1775 C 168.24 -3.16392 1.47299 0
M  V30 1776 C 169.588 -3.91787 1.63671 0
M  V30 1777 O 170.612 -3.26005 1.43524 0
M  V30 1778 O 169.471 -5.0977 1.96969 0
M  V30 1779 H 166.565 -0.783518 0.26463 0
M  V30 1780 H 169.111 -1.20676 1.19312 0
M  V30 1781 H 167.883 -3.0061 2.50498 0
M  V30 1782 H 167.506 -3.8457 1.00953 0
M  V30 1783 N 168.503 -0.877838 -1.30888 0
M  V30 1784 C 169.413 -0.343096 -2.32078 0
M  V30 1785 C 170.429 0.551022 -1.65045 0
M  V30 1786 O 171.605 0.445854 -1.96403 0
M  V30 1787 C 168.67 0.439905 -3.43898 0
M  V30 1788 C 167.731 -0.483111 -4.26573 0
M  V30 1789 C 166.964 0.262616 -5.33053 0
M  V30 1790 O 167.187 1.48967 -5.50604 0
M  V30 1791 O 166.121 -0.383593 -6.00676 0
M  V30 1792 H 169.947 -1.18203 -2.79753 0
M  V30 1793 H 167.532 -0.64145 -1.34929 0
M  V30 1794 H 169.414 0.883504 -4.12034 0
M  V30 1795 H 168.089 1.25526 -2.98371 0
M  V30 1796 H 166.996 -0.975374 -3.61161 0
M  V30 1797 H 168.329 -1.26427 -4.75686 0
M  V30 1798 N 169.982 1.44106 -0.638065 0
M  V30 1799 C 170.929 2.30715 0.062701 0
M  V30 1800 C 171.899 1.43882 0.829883 0
M  V30 1801 O 173.084 1.72775 0.809532 0
M  V30 1802 C 170.224 3.29258 1.03358 0
M  V30 1803 C 169.337 4.31192 0.26409 0
M  V30 1804 C 168.472 5.16825 1.22741 0
M  V30 1805 C 167.511 6.10462 0.447475 0
M  V30 1806 N 166.648 6.8877 1.36161 0
M  V30 1807 H 171.488 2.90096 -0.681781 0
M  V30 1808 H 169.025 1.42925 -0.347988 0
M  V30 1809 H 170.983 3.84886 1.60992 0
M  V30 1810 H 169.613 2.71562 1.74511 0
M  V30 1811 H 168.665 3.77981 -0.428295 0
M  V30 1812 H 169.977 4.97619 -0.343052 0
M  V30 1813 H 169.131 5.77004 1.87487 0
M  V30 1814 H 167.87 4.50488 1.86847 0
M  V30 1815 H 166.875 5.49386 -0.213433 0
M  V30 1816 H 168.1 6.78837 -0.188968 0
M  V30 1817 H 166.046 6.25096 1.98975 0
M  V30 1818 H 165.963 7.51663 0.808656 0
M  V30 1819 H 167.231 7.53467 1.99769 0
M  V30 1820 N 171.46 0.379036 1.52974 0
M  V30 1821 C 172.709 -0.207612 2.00629 0
M  V30 1822 C 173.022 -1.48758 1.27006 0
M  V30 1823 O 174.228 -2.15365 1.65318 0
M  V30 1824 C 172.684 -0.42053 3.57435 0
M  V30 1825 C 172.292 0.845587 4.39948 0
M  V30 1826 C 174.036 -0.964102 4.13407 0
M  V30 1827 C 171.943 0.601513 5.88333 0
M  V30 1828 H 170.873 -0.0813591 0.749598 0
M  V30 1829 H 173.524 0.499853 1.76561 0
M  V30 1830 H 171.906 -1.18959 3.7771 0
M  V30 1831 H 173.08 1.61848 4.31442 0
M  V30 1832 H 171.395 1.31336 3.95145 0
M  V30 1833 H 173.992 -1.16225 5.21916 0
M  V30 1834 H 174.335 -1.93019 3.68849 0
M  V30 1835 H 174.868 -0.25487 3.96983 0
M  V30 1836 H 171.607 1.53831 6.37194 0
M  V30 1837 H 171.127 -0.132628 5.99653 0
M  V30 1838 H 172.806 0.232134 6.46583 0
M  V30 1839 N 172.938 -1.57226 0.108567 0
M  V30 1840 C 174.215 -1.86333 -0.594939 0
M  V30 1841 C 174.595 -1.00788 -1.85486 0
M  V30 1842 O 173.943 -0.0839293 -2.28346 0
M  V30 1843 C 174.153 -3.37265 -0.897405 0
M  V30 1844 C 175.501 -4.05629 -1.25501 0
M  V30 1845 O 176.525 -3.42224 -0.987998 0
M  V30 1846 O 175.384 -5.17531 -1.75567 0
M  V30 1847 H 172.478 -0.771018 -0.2991 0
M  V30 1848 H 175.024 -1.69102 0.142283 0
M  V30 1849 H 173.796 -3.913 -0.00413806 0
M  V30 1850 H 173.419 -3.59889 -1.69014 0
M  V30 1851 N 174.416 0.165178 -1.56732 0
M  V30 1852 C 175.349 1.23336 -1.91998 0
M  V30 1853 C 176.327 1.42476 -0.783531 0
M  V30 1854 O 177.511 1.57384 -1.03743 0
M  V30 1855 C 174.638 2.59533 -2.17625 0
M  V30 1856 C 173.684 2.57093 -3.40302 0
M  V30 1857 S 174.517 2.05571 -4.9447 0
M  V30 1858 C 175.673 3.43532 -5.23198 0
M  V30 1859 H 175.906 0.932387 -2.82301 0
M  V30 1860 H 173.439 0.370013 -1.49901 0
M  V30 1861 H 175.397 3.37918 -2.3307 0
M  V30 1862 H 174.058 2.86827 -1.28019 0
M  V30 1863 H 173.251 3.57308 -3.55453 0
M  V30 1864 H 172.853 1.86806 -3.24005 0
M  V30 1865 H 175.145 4.39559 -5.15552 0
M  V30 1866 H 176.088 3.33251 -6.2478 0
M  V30 1867 H 176.496 3.39828 -4.50752 0
M  V30 1868 N 175.894 1.51508 0.433938 0
M  V30 1869 C 177.171 1.54888 1.19453 0
M  V30 1870 C 177.551 0.315154 2.08734 0
M  V30 1871 O 176.899 -0.699558 2.17528 0
M  V30 1872 C 177.109 2.86467 1.99342 0
M  V30 1873 C 178.457 3.38545 2.56267 0
M  V30 1874 O 179.481 2.88041 2.0955 0
M  V30 1875 O 178.34 4.26675 3.41483 0
M  V30 1876 H 175.434 0.622863 0.544032 0
M  V30 1877 H 177.98 1.63823 0.442732 0
M  V30 1878 H 176.752 3.67718 1.33788 0
M  V30 1879 H 176.375 2.8071 2.8158 0
M  V30 1880 N 177.372 -0.689602 1.41712 0
M  V30 1881 C 178.32 -1.82475 1.44242 0
M  V30 1882 C 179.314 -1.66354 0.319774 0
M  V30 1883 O 180.52 -1.73143 0.492089 0
M  V30 1884 H 176.895 -0.601416 0.451445 0
M  V30 1885 H 178.866 -1.77458 2.39899 0
M  V30 1886 C 177.615 -3.20535 1.3473 0
M  V30 1887 H 176.938 -3.33559 2.20405 0
M  V30 1888 H 178.378 -4.00023 1.40562 0
M  V30 1889 C 176.837 -3.36846 0.0603281 0
M  V30 1890 O 177.367 -3.91656 -0.892663 0
M  V30 1891 N 175.573 -2.90595 -0.0177039 0
M  V30 1892 H 175.12 -2.46178 0.758572 0
M  V30 1893 H 175.078 -3.01886 -0.878201 0
M  V30 1894 N 178.85 -1.27639 -0.924453 0
M  V30 1895 C 179.78 -1.13166 -2.04244 0
M  V30 1896 C 180.761 -0.032256 -1.70069 0
M  V30 1897 O 181.946 -0.207328 -1.9309 0
M  V30 1898 C 179.076 -0.781496 -3.38393 0
M  V30 1899 C 178.03 -1.83449 -3.86692 0
M  V30 1900 C 177.356 -1.33822 -5.17683 0
M  V30 1901 C 178.656 -3.23917 -4.09726 0
M  V30 1902 H 180.35 -2.06689 -2.1661 0
M  V30 1903 H 177.896 -0.995136 -1.04082 0
M  V30 1904 H 179.849 -0.667057 -4.16087 0
M  V30 1905 H 178.573 0.189439 -3.2605 0
M  V30 1906 H 177.232 -1.93789 -3.11193 0
M  V30 1907 H 176.88 -0.35665 -5.01734 0
M  V30 1908 H 176.58 -2.04224 -5.50968 0
M  V30 1909 H 178.104 -1.23679 -5.97943 0
M  V30 1910 H 179.518 -3.16559 -4.77978 0
M  V30 1911 H 177.915 -3.92059 -4.54324 0
M  V30 1912 H 178.985 -3.68729 -3.14908 0
M  V30 1913 N 180.328 1.1314 -1.09713 0
M  V30 1914 C 181.275 2.18642 -0.739196 0
M  V30 1915 C 182.245 1.63706 0.280978 0
M  V30 1916 O 183.43 1.90111 0.161946 0
M  V30 1917 C 180.57 3.44685 -0.169102 0
M  V30 1918 C 179.683 4.13711 -1.24367 0
M  V30 1919 C 178.818 5.27379 -0.636019 0
M  V30 1920 C 177.857 5.88259 -1.69169 0
M  V30 1921 N 176.994 6.93352 -1.10485 0
M  V30 1922 H 181.834 2.48607 -1.64312 0
M  V30 1923 H 179.371 1.22066 -0.820875 0
M  V30 1924 H 181.329 4.16815 0.179256 0
M  V30 1925 H 179.959 3.15161 0.698079 0
M  V30 1926 H 179.011 3.39835 -1.70927 0
M  V30 1927 H 180.323 4.55037 -2.04311 0
M  V30 1928 H 179.477 6.06238 -0.236677 0
M  V30 1929 H 178.216 4.8731 0.194928 0
M  V30 1930 H 177.221 5.08092 -2.10055 0
M  V30 1931 H 178.446 6.30399 -2.52536 0
M  V30 1932 H 176.392 6.55335 -0.295234 0
M  V30 1933 H 176.309 7.33236 -1.84121 0
M  V30 1934 H 177.577 7.76057 -0.73181 0
M  V30 1935 N 181.806 0.884767 1.30421 0
M  V30 1936 C 182.753 0.349642 2.28136 0
M  V30 1937 C 183.723 -0.560061 1.56373 0
M  V30 1938 O 184.908 -0.488524 1.8444 0
M  V30 1939 C 182.048 -0.42999 3.42411 0
M  V30 1940 C 181.161 0.508907 4.28992 0
M  V30 1941 C 180.296 -0.286301 5.30428 0
M  V30 1942 C 179.335 0.648079 6.08659 0
M  V30 1943 N 178.472 -0.111792 7.02011 0
M  V30 1944 H 183.312 1.18807 2.73293 0
M  V30 1945 H 180.849 0.597231 1.3443 0
M  V30 1946 H 182.807 -0.897923 4.07423 0
M  V30 1947 H 181.437 -1.23299 2.98324 0
M  V30 1948 H 180.489 1.09533 3.64289 0
M  V30 1949 H 181.801 1.22475 4.8353 0
M  V30 1950 H 180.955 -0.816098 6.01186 0
M  V30 1951 H 179.694 -1.03536 4.76583 0
M  V30 1952 H 178.699 1.18951 5.36778 0
M  V30 1953 H 179.924 1.39623 6.64592 0
M  V30 1954 H 177.87 -0.843395 6.50556 0
M  V30 1955 H 177.787 0.544429 7.54037 0
M  V30 1956 H 179.055 -0.622339 7.77012 0
M  V30 1957 N 183.284 -1.43765 0.645699 0
M  V30 1958 C 184.247 -2.29163 -0.0409488 0
M  V30 1959 C 185.247 -1.41813 -0.757996 0
M  V30 1960 O 186.437 -1.63527 -0.600382 0
M  V30 1961 C 183.569 -3.23716 -1.06869 0
M  V30 1962 H 184.762 -2.91366 0.710345 0
M  V30 1963 H 182.315 -1.5092 0.406547 0
M  V30 1964 H 183.05 -2.66393 -1.84947 0
M  V30 1965 H 182.835 -3.88105 -0.558277 0
M  V30 1966 H 184.325 -3.87831 -1.54845 0
M  V30 1967 N 184.763 -0.387143 -1.52771 0
M  V30 1968 C 186.011 0.195349 -2.01154 0
M  V30 1969 C 186.332 1.475 -1.27549 0
M  V30 1970 O 185.602 1.91878 -0.394924 0
M  V30 1971 H 184.182 0.075178 -0.743207 0
M  V30 1972 H 186.844 -0.518337 -1.87881 0
M  V30 1973 H 185.94 0.407096 -3.09434 0
M  V30 1974 N 186.241 1.57166 -0.116904 0
M  V30 1975 C 187.489 1.94737 0.540533 0
M  V30 1976 C 187.81 1.00096 1.67349 0
M  V30 1977 O 187.08 0.0568854 1.95817 0
M  V30 1978 H 185.66 0.718981 0.202669 0
M  V30 1979 H 188.322 1.94017 -0.185353 0
M  V30 1980 H 187.418 2.97719 0.936483 0
M  V30 1981 N 187.719 -0.156864 1.56817 0
M  V30 1982 C 188.667 -1.21319 1.98455 0
M  V30 1983 C 189.661 -1.45025 0.875444 0
M  V30 1984 O 190.867 -1.45435 1.0606 0
M  V30 1985 H 187.242 -0.408142 0.631605 0
M  V30 1986 H 189.213 -0.835244 2.86472 0
M  V30 1987 C 187.962 -2.54148 2.37285 0
M  V30 1988 H 187.285 -2.36733 3.22176 0
M  V30 1989 H 188.725 -3.26712 2.70251 0
M  V30 1990 C 187.184 -3.13967 1.22173 0
M  V30 1991 O 187.714 -3.98357 0.517149 0
M  V30 1992 N 185.92 -2.7327 0.988536 0
M  V30 1993 H 185.467 -2.04744 1.56326 0
M  V30 1994 H 185.425 -3.13628 0.220209 0
M  V30 1995 N 189.197 -1.51736 -0.425897 0
M  V30 1996 C 190.443 -1.65214 -1.1761 0
M  V30 1997 C 190.776 -0.372778 -1.90589 0
M  V30 1998 O 190.051 0.628139 -1.84078 0
M  V30 1999 C 190.334 -2.86312 -2.18398 0
M  V30 2000 C 190.187 -4.24254 -1.49426 0
M  V30 2001 C 191.506 -3.02925 -3.19256 0
M  V30 2002 H 188.625 -0.601263 -0.426206 0
M  V30 2003 H 191.267 -1.8425 -0.463882 0
M  V30 2004 H 189.417 -2.70213 -2.79137 0
M  V30 2005 H 191.089 -4.52046 -0.919362 0
M  V30 2006 H 189.332 -4.26426 -0.796432 0
M  V30 2007 H 190.003 -5.05001 -2.22885 0
M  V30 2008 H 192.479 -3.1781 -2.68581 0
M  V30 2009 H 191.355 -3.89199 -3.8706 0
M  V30 2010 H 191.616 -2.15497 -3.86023 0
M  V30 2011 N 190.675 0.682077 -1.42076 0
M  V30 2012 C 191.585 1.82535 -1.47371 0
M  V30 2013 C 192.601 1.7017 -0.363079 0
M  V30 2014 O 193.777 1.91848 -0.612875 0
M  V30 2015 C 190.842 3.18624 -1.36674 0
M  V30 2016 C 189.903 3.42999 -2.58167 0
M  V30 2017 C 189.136 4.72595 -2.4797 0
M  V30 2018 O 189.359 5.50006 -1.5116 0
M  V30 2019 O 188.293 4.98054 -3.37974 0
M  V30 2020 H 192.119 1.81023 -2.43853 0
M  V30 2021 H 189.704 0.836887 -1.2376 0
M  V30 2022 H 191.586 3.99847 -1.33043 0
M  V30 2023 H 190.261 3.20789 -0.433138 0
M  V30 2024 H 189.168 2.61653 -2.67373 0
M  V30 2025 H 190.501 3.45659 -3.50401 0
M  V30 2026 N 192.153 1.28127 0.917671 0
M  V30 2027 C 193.116 1.11744 2.00115 0
M  V30 2028 C 194.116 0.0583052 1.60694 0
M  V30 2029 O 195.306 0.303755 1.71531 0
M  V30 2030 C 192.438 0.704862 3.33533 0
M  V30 2031 H 193.631 2.07966 2.16079 0
M  V30 2032 H 191.184 1.11058 1.09981 0
M  V30 2033 H 191.919 -0.258299 3.2327 0
M  V30 2034 H 191.704 1.4699 3.63505 0
M  V30 2035 H 193.194 0.612768 4.1308 0
M  V30 2036 N 193.631 -1.12557 1.10312 0
M  V30 2037 C 194.878 -1.84038 0.844759 0
M  V30 2038 C 195.206 -1.84026 -0.629668 0
M  V30 2039 O 194.461 -1.28026 -1.48013 0
M  V30 2040 C 194.76 -3.31462 1.33669 0
M  V30 2041 C 194.426 -3.51647 2.82232 0
M  V30 2042 C 193.088 -3.56864 3.22802 0
M  V30 2043 C 195.44 -3.58867 3.77974 0
M  V30 2044 C 192.768 -3.66844 4.57867 0
M  V30 2045 C 195.12 -3.70375 5.1284 0
M  V30 2046 C 193.784 -3.73848 5.52986 0
M  V30 2047 H 193.054 -0.673444 0.309119 0
M  V30 2048 H 195.701 -1.32824 1.37949 0
M  V30 2049 H 194.006 -3.85091 0.721949 0
M  V30 2050 H 195.703 -3.85236 1.11329 0
M  V30 2051 H 192.293 -3.48249 2.49842 0
M  V30 2052 H 196.477 -3.54107 3.47738 0
M  V30 2053 H 191.733 -3.67804 4.88396 0
M  V30 2054 H 195.907 -3.74904 5.86873 0
M  V30 2055 H 193.534 -3.81333 6.57639 0
M  V30 2056 N 195.109 -0.891671 -1.2995 0
M  V30 2057 C 196.355 -0.514261 -1.96171 0
M  V30 2058 C 196.688 0.935506 -1.70182 0
M  V30 2059 O 195.963 1.66204 -1.01028 0
M  V30 2060 C 196.246 -0.797719 -3.51153 0
M  V30 2061 C 196.099 -2.2986 -3.86632 0
M  V30 2062 C 197.418 -0.278749 -4.39216 0
M  V30 2063 H 194.537 -0.188314 -0.712535 0
M  V30 2064 H 197.179 -1.11689 -1.53706 0
M  V30 2065 H 195.329 -0.284826 -3.87455 0
M  V30 2066 H 197.001 -2.88042 -3.60319 0
M  V30 2067 H 195.244 -2.76257 -3.34462 0
M  V30 2068 H 195.915 -2.44753 -4.94773 0
M  V30 2069 H 198.391 -0.717825 -4.09862 0
M  V30 2070 H 197.267 -0.506353 -5.46559 0
M  V30 2071 H 197.528 0.820266 -4.34424 0
M  V30 2072 N 196.587 1.43421 -0.653314 0
M  V30 2073 C 197.815 2.06163 -0.174491 0
M  V30 2074 C 198.23 1.48969 1.1599 0
M  V30 2075 O 197.587 0.621042 1.71608 0
M  V30 2076 C 197.638 3.61417 -0.0774865 0
M  V30 2077 O 197.359 4.16485 -1.35912 0
M  V30 2078 C 198.86 4.41235 0.427402 0
M  V30 2079 H 196.08 0.664946 -0.0899353 0
M  V30 2080 H 198.624 1.83924 -0.893988 0
M  V30 2081 H 196.779 3.82841 0.59257 0
M  V30 2082 H 197.193 5.10153 -1.21839 0
M  V30 2083 H 198.667 5.5021 0.44423 0
M  V30 2084 H 199.144 4.14268 1.45873 0
M  V30 2085 H 199.75 4.2478 -0.210167 0
M  V30 2086 N 198.065 0.39524 1.52563 0
M  V30 2087 C 199.293 -0.184943 2.06072 0
M  V30 2088 C 199.708 -1.40021 1.26647 0
M  V30 2089 O 199.065 -1.79767 0.314672 0
M  V30 2090 C 199.116 -0.549179 3.57304 0
M  V30 2091 O 198.837 0.617813 4.33722 0
M  V30 2092 C 200.338 -1.18459 4.2718 0
M  V30 2093 H 197.558 -0.0265025 0.670476 0
M  V30 2094 H 200.102 0.562184 1.96621 0
M  V30 2095 H 198.257 -1.2462 3.66809 0
M  V30 2096 H 198.671 0.317091 5.23541 0
M  V30 2097 H 200.145 -1.38976 5.34219 0
M  V30 2098 H 200.622 -2.15368 3.82771 0
M  V30 2099 H 201.228 -0.528163 4.22008 0
M  V30 2100 N 199.544 -1.57102 0.125237 0
M  V30 2101 C 200.821 -1.86953 -0.575142 0
M  V30 2102 C 201.201 -1.02749 -1.84407 0
M  V30 2103 O 200.549 -0.108144 -2.28244 0
M  V30 2104 C 200.759 -3.38198 -0.861583 0
M  V30 2105 C 202.107 -4.06937 -1.21192 0
M  V30 2106 O 203.131 -3.43252 -0.951645 0
M  V30 2107 O 201.99 -5.19364 -1.70068 0
M  V30 2108 H 199.084 -0.774147 -0.290906 0
M  V30 2109 H 201.63 -1.68942 0.160211 0
M  V30 2110 H 200.402 -3.91282 0.0373647 0
M  V30 2111 H 200.025 -3.61661 -1.65188 0
M  V30 2112 N 201.022 0.148545 -1.56898 0
M  V30 2113 C 201.97 1.20265 -1.99096 0
M  V30 2114 C 202.964 1.44559 -0.883123 0
M  V30 2115 O 204.17 1.4487 -1.0683 0
M  V30 2116 H 200.545 0.404786 -0.63376 0
M  V30 2117 H 202.516 0.82004 -2.86911 0
M  V30 2118 C 201.265 2.52886 -2.3863 0
M  V30 2119 H 200.588 2.35021 -3.23427 0
M  V30 2120 H 202.028 3.25274 -2.7198 0
M  V30 2121 C 200.487 3.13315 -1.23837 0
M  V30 2122 O 201.017 3.98077 -0.538268 0
M  V30 2123 N 199.223 2.72742 -1.00301 0
M  V30 2124 H 198.77 2.03912 -1.5741 0
M  V30 2125 H 198.728 3.13507 -0.236838 0
M  V30 2126 N 202.5 1.5196 0.417844 0
M  V30 2127 C 203.746 1.65836 1.16732 0
M  V30 2128 C 204.079 0.382881 1.90388 0
M  V30 2129 O 203.354 -0.618368 1.84408 0
M  V30 2130 C 203.637 2.87466 2.16876 0
M  V30 2131 C 203.49 4.25041 1.47174 0
M  V30 2132 C 204.809 3.04613 3.17646 0
M  V30 2133 H 201.928 0.603515 0.423011 0
M  V30 2134 H 204.57 1.84494 0.454105 0
M  V30 2135 H 202.72 2.71689 2.777 0
M  V30 2136 H 204.392 4.52527 0.895376 0
M  V30 2137 H 202.635 4.26843 0.773806 0
M  V30 2138 H 203.306 5.06176 2.20204 0
M  V30 2139 H 205.782 3.1923 2.66892 0
M  V30 2140 H 204.658 3.91247 3.8499 0
M  V30 2141 H 204.919 2.17541 3.84874 0
M  V30 2142 N 203.978 -0.674533 1.42435 0
M  V30 2143 C 204.941 -1.76986 1.45632 0
M  V30 2144 C 205.941 -1.5708 0.343871 0
M  V30 2145 O 207.131 -1.63367 0.604709 0
M  V30 2146 C 204.263 -3.15623 1.28822 0
M  V30 2147 H 205.456 -1.75539 2.43158 0
M  V30 2148 H 203.009 -0.884189 1.28887 0
M  V30 2149 H 203.744 -3.22696 0.322193 0
M  V30 2150 H 203.529 -3.31475 2.09444 0
M  V30 2151 H 205.019 -3.95537 1.33942 0
M  V30 2152 N 205.456 -1.28612 -0.910864 0
M  V30 2153 C 206.702 -1.16106 -1.66274 0
M  V30 2154 C 207.035 0.289113 -1.92036 0
M  V30 2155 O 206.31 1.21 -1.52281 0
M  V30 2156 C 206.593 -1.96309 -3.01885 0
M  V30 2157 C 206.446 -3.49405 -2.8326 0
M  V30 2158 C 207.765 -1.78076 -4.02463 0
M  V30 2159 H 204.884 -0.423152 -0.603417 0
M  V30 2160 H 207.526 -1.57961 -1.05586 0
M  V30 2161 H 205.676 -1.60742 -3.53687 0
M  V30 2162 H 207.348 -3.94894 -2.38446 0
M  V30 2163 H 205.591 -3.74893 -2.18261 0
M  V30 2164 H 206.262 -4.00784 -3.79574 0
M  V30 2165 H 208.738 -2.0912 -3.59733 0
M  V30 2166 H 207.614 -2.36561 -4.95308 0
M  V30 2167 H 207.875 -0.733008 -4.35981 0
M  V30 2168 N 206.934 1.1197 -1.10907 0
M  V30 2169 C 208.182 1.83225 -0.852819 0
M  V30 2170 C 208.503 1.84769 0.623341 0
M  V30 2171 O 207.773 1.3143 1.45269 0
M  V30 2172 H 206.353 0.67849 -0.312507 0
M  V30 2173 H 209.015 1.3556 -1.40033 0
M  V30 2174 H 208.111 2.87265 -1.22005 0
M  V30 2175 N 208.412 0.89855 1.29475 0
M  V30 2176 C 209.375 0.380272 2.26023 0
M  V30 2177 C 210.375 -0.484891 1.53315 0
M  V30 2178 O 211.565 -0.290108 1.71767 0
M  V30 2179 C 208.697 -0.45651 3.3783 0
M  V30 2180 H 209.89 1.23295 2.73383 0
M  V30 2181 H 207.443 0.676589 1.40897 0
M  V30 2182 H 208.178 -1.32922 2.95808 0
M  V30 2183 H 207.963 0.163393 3.91759 0
M  V30 2184 H 209.453 -0.810466 4.0966 0
M  V30 2185 N 209.89 -1.43072 0.660911 0
M  V30 2186 C 210.837 -2.30785 -0.0259884 0
M  V30 2187 C 211.807 -1.45184 -0.806888 0
M  V30 2188 O 212.992 -1.74041 -0.781943 0
M  V30 2189 C 210.132 -3.30861 -0.981067 0
M  V30 2190 C 209.245 -4.31558 -0.195458 0
M  V30 2191 C 208.38 -5.18712 -1.14503 0
M  V30 2192 C 207.419 -6.11097 -0.350299 0
M  V30 2193 N 206.556 -6.90849 -1.25186 0
M  V30 2194 H 211.396 -2.88975 0.727846 0
M  V30 2195 H 208.933 -1.42353 0.370682 0
M  V30 2196 H 210.891 -3.87399 -1.54849 0
M  V30 2197 H 209.521 -2.74304 -1.70169 0
M  V30 2198 H 208.573 -3.77252 0.488374 0
M  V30 2199 H 209.885 -4.9701 0.422176 0
M  V30 2200 H 209.039 -5.79914 -1.78284 0
M  V30 2201 H 207.778 -4.53404 -1.79656 0
M  V30 2202 H 206.783 -5.48976 0.300808 0
M  V30 2203 H 208.008 -6.7845 0.296941 0
M  V30 2204 H 205.954 -6.28182 -1.89005 0
M  V30 2205 H 205.871 -7.52854 -0.688971 0
M  V30 2206 H 207.139 -7.5655 -1.87757 0
M  V30 2207 N 211.368 -0.403325 -1.52352 0
M  V30 2208 C 212.616 0.174003 -2.0135 0
M  V30 2209 C 212.937 1.46139 -1.29106 0
M  V30 2210 O 212.207 1.91448 -0.415253 0
M  V30 2211 H 210.787 0.0672911 -0.743963 0
M  V30 2212 H 213.449 -0.538235 -1.87321 0
M  V30 2213 H 212.545 0.374254 -3.09848 0
M  V30 2214 N 212.846 1.57033 -0.133567 0
M  V30 2215 C 213.809 2.14897 0.796995 0
M  V30 2216 C 214.809 1.0874 1.18458 0
M  V30 2217 O 215.999 1.34446 1.1077 0
M  V30 2218 C 213.131 2.70112 2.07973 0
M  V30 2219 H 214.324 2.98457 0.293873 0
M  V30 2220 H 211.877 1.55871 0.115787 0
M  V30 2221 H 212.612 1.9018 2.62682 0
M  V30 2222 H 212.397 3.47764 1.81115 0
M  V30 2223 H 213.887 3.14738 2.74462 0
M  V30 2224 N 214.325 -0.140222 1.56975 0
M  V30 2225 C 215.55 -0.870414 1.88251 0
M  V30 2226 C 215.975 -1.73637 0.723312 0
M  V30 2227 O 215.333 -1.78329 -0.32689 0
M  V30 2228 C 215.381 -1.69737 3.18154 0
M  V30 2229 O 214.485 -2.80229 3.02565 0
M  V30 2230 H 213.826 -0.242025 0.61832 0
M  V30 2231 H 216.356 -0.128999 2.04193 0
M  V30 2232 H 216.366 -2.09099 3.50345 0
M  V30 2233 H 215.041 -1.06152 4.02125 0
M  V30 2234 H 213.618 -2.44224 2.81796 0
M  V30 2235 N 215.803 -1.52179 -0.40978 0
M  V30 2236 C 217.05 -1.66206 -1.15679 0
M  V30 2237 C 217.378 -0.391674 -1.90516 0
M  V30 2238 O 216.633 0.62533 -1.8544 0
M  V30 2239 C 216.932 -2.83428 -2.17723 0
M  V30 2240 C 216.598 -4.21672 -1.59699 0
M  V30 2241 C 215.26 -4.59274 -1.43599 0
M  V30 2242 C 217.612 -5.07825 -1.17317 0
M  V30 2243 C 214.94 -5.80709 -0.836328 0
M  V30 2244 C 217.292 -6.29864 -0.587691 0
M  V30 2245 C 215.956 -6.66216 -0.413818 0
M  V30 2246 H 215.226 -0.608192 -0.423301 0
M  V30 2247 H 217.873 -1.86279 -0.444097 0
M  V30 2248 H 216.178 -2.57687 -2.95135 0
M  V30 2249 H 217.875 -2.91477 -2.75394 0
M  V30 2250 H 214.465 -3.9204 -1.73213 0
M  V30 2251 H 218.649 -4.79359 -1.28565 0
M  V30 2252 H 213.905 -6.07498 -0.689626 0
M  V30 2253 H 218.079 -6.95948 -0.250894 0
M  V30 2254 H 215.706 -7.60182 0.0529471 0
M  V30 2255 N 217.281 0.66697 -1.42791 0
M  V30 2256 C 218.53 1.42278 -1.42968 0
M  V30 2257 C 218.843 1.9553 -0.0524489 0
M  V30 2258 O 220.049 2.71414 0.068363 0
M  V30 2259 C 218.505 2.57418 -2.51524 0
M  V30 2260 C 218.113 2.10832 -3.9529 0
M  V30 2261 C 219.857 3.34878 -2.60877 0
M  V30 2262 C 217.764 3.23101 -4.95338 0
M  V30 2263 H 216.694 0.534533 -0.531781 0
M  V30 2264 H 219.345 0.721302 -1.68729 0
M  V30 2265 H 217.727 3.29971 -2.18941 0
M  V30 2266 H 218.901 1.4538 -4.37266 0
M  V30 2267 H 217.216 1.46289 -3.89857 0
M  V30 2268 H 219.813 4.18505 -3.32802 0
M  V30 2269 H 220.156 3.81993 -1.6549 0
M  V30 2270 H 220.689 2.69398 -2.92693 0
M  V30 2271 H 217.428 2.80969 -5.9223 0
M  V30 2272 H 216.948 3.87309 -4.57987 0
M  V30 2273 H 218.627 3.88447 -5.17415 0
M  V30 2274 N 218.759 1.29093 0.90403 0
M  V30 2275 C 220.008 1.16187 1.64874 0
M  V30 2276 C 220.321 -0.286742 1.93487 0
M  V30 2277 O 221.527 -0.537062 2.66135 0
M  V30 2278 C 219.983 2.03177 2.97064 0
M  V30 2279 C 219.591 3.52836 2.76062 0
M  V30 2280 C 221.335 1.98984 3.74974 0
M  V30 2281 C 219.242 4.31945 4.03952 0
M  V30 2282 H 218.172 0.431246 0.618501 0
M  V30 2283 H 220.823 1.53699 1.00243 0
M  V30 2284 H 219.205 1.5853 3.62883 0
M  V30 2285 H 220.379 4.05507 2.18863 0
M  V30 2286 H 218.694 3.58656 2.11553 0
M  V30 2287 H 221.291 2.55351 4.69787 0
M  V30 2288 H 221.634 0.968815 4.0487 0
M  V30 2289 H 222.167 2.41652 3.15989 0
M  V30 2290 H 218.906 5.34667 3.79225 0
M  V30 2291 H 218.426 3.84045 4.60727 0
M  V30 2292 H 220.105 4.42379 4.72133 0
M  V30 2293 N 220.237 -1.11381 1.11499 0
M  V30 2294 C 221.514 -1.7955 0.775965 0
M  V30 2295 C 221.894 -1.97859 -0.73588 0
M  V30 2296 O 221.242 -1.56376 -1.66609 0
M  V30 2297 C 221.452 -3.13196 1.53977 0
M  V30 2298 C 222.8 -3.88227 1.71944 0
M  V30 2299 O 223.824 -3.22887 1.50407 0
M  V30 2300 O 222.683 -5.05477 2.07738 0
M  V30 2301 H 219.777 -0.777728 0.28119 0
M  V30 2302 H 222.323 -1.18118 1.21845 0
M  V30 2303 H 221.095 -2.95229 2.56818 0
M  V30 2304 H 220.718 -3.82342 1.09088 0
M  V30 2305 N 221.715 -0.905404 -1.28997 0
M  V30 2306 C 222.662 -0.385892 -2.27551 0
M  V30 2307 C 223.632 0.535113 -1.57244 0
M  V30 2308 O 224.817 0.459119 -1.85194 0
M  V30 2309 C 221.957 0.375461 -3.43051 0
M  V30 2310 C 221.07 -0.577092 -4.28128 0
M  V30 2311 C 220.205 0.201879 -5.30816 0
M  V30 2312 C 219.244 -0.744829 -6.07551 0
M  V30 2313 N 218.381 9.42587e-05 -7.021 0
M  V30 2314 H 223.221 -1.23139 -2.71368 0
M  V30 2315 H 220.758 -0.618542 -1.33463 0
M  V30 2316 H 222.716 0.832992 -4.088 0
M  V30 2317 H 221.346 1.18537 -3.00248 0
M  V30 2318 H 220.398 -1.15315 -3.62501 0
M  V30 2319 H 221.71 -1.30152 -4.8152 0
M  V30 2320 H 220.864 0.720351 -6.02408 0
M  V30 2321 H 219.603 0.959413 -4.7817 0
M  V30 2322 H 218.608 -1.27475 -5.34818 0
M  V30 2323 H 219.833 -1.50178 -6.62286 0
M  V30 2324 H 217.779 0.739791 -6.51815 0
M  V30 2325 H 217.696 -0.664321 -7.53076 0
M  V30 2326 H 218.964 0.498644 -7.77903 0
M  V30 2327 N 223.193 1.4272 -0.668489 0
M  V30 2328 C 224.123 2.335 -0.000100175 0
M  V30 2329 C 225.104 1.50328 0.795964 0
M  V30 2330 O 226.289 1.78949 0.754385 0
M  V30 2331 C 223.419 3.33874 0.956302 0
M  V30 2332 C 222.373 4.27152 0.269278 0
M  V30 2333 C 221.699 5.17684 1.33818 0
M  V30 2334 C 222.999 5.15373 -0.847805 0
M  V30 2335 H 224.693 2.89639 -0.758244 0
M  V30 2336 H 222.239 1.39269 -0.366079 0
M  V30 2337 H 224.192 3.9629 1.43292 0
M  V30 2338 H 222.916 2.76025 1.74579 0
M  V30 2339 H 221.575 3.66123 -0.187042 0
M  V30 2340 H 221.223 4.56165 2.1195 0
M  V30 2341 H 220.923 5.80918 0.883659 0
M  V30 2342 H 222.447 5.82974 1.81586 0
M  V30 2343 H 223.861 5.7151 -0.452681 0
M  V30 2344 H 222.258 5.87407 -1.22773 0
M  V30 2345 H 223.328 4.5415 -1.69929 0
M  V30 2346 N 224.671 0.411399 1.52136 0
M  V30 2347 C 225.919 -0.163322 2.01439 0
M  V30 2348 C 226.24 -1.45453 1.29879 0
M  V30 2349 O 225.51 -1.91225 0.4254 0
M  V30 2350 H 224.09 -0.0633447 0.744309 0
M  V30 2351 H 226.752 0.548161 1.87033 0
M  V30 2352 H 225.848 -0.357817 3.10042 0
M  V30 2353 N 226.149 -1.5696 0.141893 0
M  V30 2354 C 227.112 -2.15316 -0.785587 0
M  V30 2355 C 228.112 -1.09366 -1.1788 0
M  V30 2356 O 229.302 -1.35031 -1.10056 0
M  V30 2357 C 226.434 -2.71211 -2.06537 0
M  V30 2358 H 227.627 -2.98608 -0.278041 0
M  V30 2359 H 225.18 -1.5593 -0.107519 0
M  V30 2360 H 225.915 -1.91571 -2.6167 0
M  V30 2361 H 225.7 -3.4872 -1.79268 0
M  V30 2362 H 227.19 -3.16189 -2.72789 0
M  V30 2363 N 227.627 0.131896 -1.57047 0
M  V30 2364 C 228.537 1.1815 -2.02676 0
M  V30 2365 C 229.553 1.46113 -0.944824 0
M  V30 2366 O 230.729 1.57485 -1.25541 0
M  V30 2367 C 227.794 2.49139 -2.41103 0
M  V30 2368 C 226.855 2.28688 -3.63318 0
M  V30 2369 C 226.088 3.53431 -3.99903 0
M  V30 2370 O 226.311 4.60223 -3.36973 0
M  V30 2371 O 225.245 3.45198 -4.93074 0
M  V30 2372 H 229.071 0.824069 -2.92306 0
M  V30 2373 H 226.656 0.341745 -1.45439 0
M  V30 2374 H 228.538 3.26338 -2.66611 0
M  V30 2375 H 227.213 2.84382 -1.54624 0
M  V30 2376 H 226.12 1.4939 -3.42977 0
M  V30 2377 H 227.453 1.98355 -4.50462 0
M  V30 2378 N 229.106 1.52395 0.401703 0
M  V30 2379 C 230.354 1.66488 1.14569 0
M  V30 2380 C 230.675 0.400897 1.90835 0
M  V30 2381 O 229.945 -0.584415 1.8698 0
M  V30 2382 H 228.525 0.613672 0.425929 0
M  V30 2383 H 231.187 1.89464 0.457093 0
M  V30 2384 H 230.283 2.50942 1.85566 0
M  V30 2385 N 230.584 -0.659388 1.43143 0
M  V30 2386 C 231.832 -1.41654 1.44147 0
M  V30 2387 C 232.153 -1.94893 0.0645739 0
M  V30 2388 O 231.423 -1.74044 -0.899198 0
M  V30 2389 H 230.003 -0.525708 0.530697 0
M  V30 2390 H 232.665 -0.778097 1.78694 0
M  V30 2391 H 231.761 -2.26195 2.1504 0
M  V30 2392 N 232.062 -1.29571 -0.897171 0
M  V30 2393 C 232.972 -1.16808 -2.03453 0
M  V30 2394 C 233.988 -0.0907471 -1.73763 0
M  V30 2395 O 235.164 -0.303312 -1.99103 0
M  V30 2396 C 232.229 -0.848264 -3.36163 0
M  V30 2397 C 231.29 -2.0097 -3.79354 0
M  V30 2398 C 230.523 -1.70505 -5.05731 0
M  V30 2399 O 230.746 -0.62718 -5.66941 0
M  V30 2400 O 229.68 -2.5538 -5.45036 0
M  V30 2401 H 233.506 -2.12325 -2.17144 0
M  V30 2402 H 231.091 -1.09047 -1.02123 0
M  V30 2403 H 232.973 -0.684581 -4.15802 0
M  V30 2404 H 231.648 0.0771071 -3.23608 0
M  V30 2405 H 230.555 -2.22863 -3.00471 0
M  V30 2406 H 231.888 -2.91636 -3.96496 0
M  V30 2407 N 233.54 1.10788 -1.12088 0
M  V30 2408 C 234.786 1.82942 -0.875226 0
M  V30 2409 C 235.119 1.84779 0.597538 0
M  V30 2410 O 234.394 1.30578 1.44152 0
M  V30 2411 C 234.677 3.29789 -1.44606 0
M  V30 2412 C 234.53 3.36307 -2.98693 0
M  V30 2413 C 235.849 4.26064 -1.10261 0
M  V30 2414 H 232.968 0.664195 -0.319397 0
M  V30 2415 H 235.61 1.29867 -1.38689 0
M  V30 2416 H 233.76 3.75118 -1.01089 0
M  V30 2417 H 235.432 2.99487 -3.50864 0
M  V30 2418 H 233.675 2.76318 -3.34411 0
M  V30 2419 H 234.346 4.39694 -3.33726 0
M  V30 2420 H 236.822 3.88951 -1.4784 0
M  V30 2421 H 235.698 5.27183 -1.52869 0
M  V30 2422 H 235.959 4.42098 -0.0142953 0
M  V30 2423 N 235.018 0.912232 1.28515 0
M  V30 2424 C 235.981 0.404223 2.25607 0
M  V30 2425 C 236.981 -0.468602 1.53821 0
M  V30 2426 O 238.171 -0.271873 1.72065 0
M  V30 2427 C 235.303 -0.420653 3.38295 0
M  V30 2428 H 236.496 1.26188 2.7206 0
M  V30 2429 H 234.049 0.691495 1.40171 0
M  V30 2430 H 234.784 -1.29777 2.97201 0
M  V30 2431 H 234.569 0.204935 3.91564 0
M  V30 2432 H 236.059 -0.766971 4.10496 0
M  V30 2433 N 236.496 -1.42363 0.676048 0
M  V30 2434 C 237.745 -2.00745 0.196037 0
M  V30 2435 C 238.058 -1.54083 -1.20489 0
M  V30 2436 O 239.264 -2.04891 -1.78134 0
M  V30 2437 C 237.72 -3.58651 0.299616 0
M  V30 2438 C 237.328 -4.143 1.70468 0
M  V30 2439 C 239.072 -4.24326 -0.121619 0
M  V30 2440 C 236.979 -5.64574 1.76096 0
M  V30 2441 H 235.909 -0.750787 0.0695301 0
M  V30 2442 H 238.56 -1.63072 0.841412 0
M  V30 2443 H 236.942 -3.93833 -0.413673 0
M  V30 2444 H 238.116 -3.90575 2.44515 0
M  V30 2445 H 236.431 -3.61081 2.07387 0
M  V30 2446 H 239.028 -5.34607 -0.0997362 0
M  V30 2447 H 239.371 -3.99897 -1.15708 0
M  V30 2448 H 239.904 -3.94108 0.540706 0
M  V30 2449 H 236.643 -5.93804 2.77628 0
M  V30 2450 H 236.163 -5.90286 1.06406 0
M  V30 2451 H 237.842 -6.29013 1.51496 0
M  V30 2452 N 237.974 -0.419461 -1.51915 0
M  V30 2453 C 239.223 0.154346 -2.01109 0
M  V30 2454 C 239.536 1.45338 -1.30905 0
M  V30 2455 O 240.742 2.10906 -1.7097 0
M  V30 2456 C 239.198 0.325615 -3.58424 0
M  V30 2457 C 238.806 -0.961934 -4.37551 0
M  V30 2458 C 240.55 0.854155 -4.15818 0
M  V30 2459 C 238.457 -0.757287 -5.86531 0
M  V30 2460 H 237.387 0.0614563 -0.751491 0
M  V30 2461 H 240.038 -0.54649 -1.75173 0
M  V30 2462 H 238.42 1.08903 -3.80731 0
M  V30 2463 H 239.594 -1.7323 -4.26999 0
M  V30 2464 H 237.909 -1.41766 -3.91524 0
M  V30 2465 H 240.506 1.02346 -5.24814 0
M  V30 2466 H 240.849 1.83172 -3.73837 0
M  V30 2467 H 241.382 0.149528 -3.97519 0
M  V30 2468 H 238.121 -1.70671 -6.32892 0
M  V30 2469 H 237.641 -0.0264061 -5.99794 0
M  V30 2470 H 239.32 -0.403482 -6.45741 0
M  V30 2471 N 239.452 1.56882 -0.150215 0
M  V30 2472 C 240.362 2.20494 0.801222 0
M  V30 2473 C 241.378 1.19019 1.26927 0
M  V30 2474 O 242.554 1.51607 1.32579 0
M  V30 2475 C 239.619 2.81659 2.02161 0
M  V30 2476 C 238.68 3.9827 1.60249 0
M  V30 2477 C 237.913 4.56508 2.7647 0
M  V30 2478 O 238.136 4.13627 3.92771 0
M  V30 2479 O 237.07 5.46719 2.51757 0
M  V30 2480 H 240.896 3.02315 0.289717 0
M  V30 2481 H 238.481 1.49202 0.0769684 0
M  V30 2482 H 240.363 3.20522 2.73576 0
M  V30 2483 H 239.038 2.02849 2.52258 0
M  V30 2484 H 237.945 3.64117 0.858477 0
M  V30 2485 H 239.278 4.78609 1.14864 0
M  V30 2486 N 240.93 -0.123565 1.57115 0
M  V30 2487 C 242.178 -0.83051 1.84247 0
M  V30 2488 C 242.499 -1.80629 0.73471 0
M  V30 2489 O 241.769 -1.94403 -0.241688 0
M  V30 2490 H 240.349 -0.309694 0.679778 0
M  V30 2491 H 243.011 -0.111976 1.94578 0
M  V30 2492 H 242.107 -1.37852 2.80006 0
M  V30 2493 N 242.408 -1.52605 -0.393616 0
M  V30 2494 C 243.355 -1.77055 -1.48054 0
M  V30 2495 C 244.325 -0.61358 -1.54352 0
M  V30 2496 O 245.51 -0.852806 -1.70681 0
M  V30 2497 C 242.65 -1.94108 -2.85335 0
M  V30 2498 C 241.763 -3.21792 -2.88226 0
M  V30 2499 C 240.898 -3.29188 -4.16904 0
M  V30 2500 C 239.937 -4.51013 -4.13828 0
M  V30 2501 N 239.074 -4.55716 -5.34105 0
M  V30 2502 H 243.914 -2.69815 -1.26506 0
M  V30 2503 H 241.451 -1.33683 -0.61379 0
M  V30 2504 H 243.409 -2.01979 -3.65049 0
M  V30 2505 H 242.039 -1.04713 -3.05344 0
M  V30 2506 H 241.091 -3.23015 -2.00911 0
M  V30 2507 H 242.403 -4.11557 -2.8182 0
M  V30 2508 H 241.557 -3.36216 -5.05018 0
M  V30 2509 H 240.296 -2.37389 -4.26026 0
M  V30 2510 H 239.301 -4.44115 -3.24102 0
M  V30 2511 H 240.526 -5.44123 -4.06333 0
M  V30 2512 H 238.472 -3.66807 -5.43865 0
M  V30 2513 H 238.389 -5.39346 -5.29756 0
M  V30 2514 H 239.657 -4.66993 -6.2413 0
M  V30 2515 N 243.887 0.651787 -1.4349 0
M  V30 2516 C 244.85 1.74647 -1.48429 0
M  V30 2517 C 245.85 1.56513 -0.368817 0
M  V30 2518 O 247.04 1.62385 -0.630623 0
M  V30 2519 C 244.172 3.13533 -1.33827 0
M  V30 2520 H 245.365 1.71649 -2.4592 0
M  V30 2521 H 242.918 0.863573 -1.30277 0
M  V30 2522 H 243.653 3.22142 -0.37349 0
M  V30 2523 H 243.438 3.28101 -2.14691 0
M  V30 2524 H 244.928 3.93356 -1.40218 0
M  V30 2525 N 245.365 1.30045 0.890287 0
M  V30 2526 C 246.613 1.18327 1.63839 0
M  V30 2527 C 246.934 -0.263455 1.93212 0
M  V30 2528 O 246.204 -1.17856 1.56482 0
M  V30 2529 H 244.784 0.434933 0.607324 0
M  V30 2530 H 247.446 1.631 1.06698 0
M  V30 2531 H 246.542 1.74024 2.59079 0
M  V30 2532 N 246.843 -1.10192 1.12674 0
M  V30 2533 C 247.791 -2.18694 0.792196 0
M  V30 2534 C 248.785 -1.67938 -0.222058 0
M  V30 2535 O 249.991 -1.79822 -0.0800074 0
M  V30 2536 H 246.366 -0.713223 0.238364 0
M  V30 2537 H 248.337 -2.44149 1.71564 0
M  V30 2538 C 247.086 -3.46682 0.265859 0
M  V30 2539 H 246.409 -3.86101 1.03761 0
M  V30 2540 H 247.849 -4.23942 0.0701128 0
M  V30 2541 C 246.308 -3.21506 -1.00675 0
M  V30 2542 O 246.838 -3.43408 -2.08408 0
M  V30 2543 N 245.044 -2.75158 -0.934692 0
M  V30 2544 H 244.591 -2.57535 -0.0578604 0
M  V30 2545 H 244.549 -2.58691 -1.7868 0
M  V30 2546 N 248.321 -0.919034 -1.28029 0
M  V30 2547 C 249.284 -0.416182 -2.2539 0
M  V30 2548 C 250.284 0.460438 -1.54067 0
M  V30 2549 O 251.474 0.262744 -1.72207 0
M  V30 2550 C 248.606 0.402707 -3.38513 0
M  V30 2551 H 249.799 -1.27629 -2.71387 0
M  V30 2552 H 247.352 -0.698919 -1.39803 0
M  V30 2553 H 248.087 1.282 -2.97885 0
M  V30 2554 H 247.872 -0.225698 -3.9145 0
M  V30 2555 H 249.362 0.745191 -4.10897 0
M  V30 2556 N 249.799 1.42003 -0.683588 0
M  V30 2557 C 251.024 2.06265 -0.216647 0
M  V30 2558 C 251.449 1.51059 1.12083 0
M  V30 2559 O 250.807 0.632638 1.69904 0
M  V30 2560 C 250.855 3.60191 -0.171759 0
M  V30 2561 O 249.959 4.03396 0.857069 0
M  V30 2562 H 249.3 0.65502 -0.108834 0
M  V30 2563 H 251.83 1.81982 -0.935077 0
M  V30 2564 H 251.84 4.08 0.0014303 0
M  V30 2565 H 250.515 3.99743 -1.14796 0
M  V30 2566 H 249.092 3.67117 0.654208 0
M  V30 2567 N 251.277 0.427512 1.51691 0
M  V30 2568 C 252.525 -0.141948 2.01601 0
M  V30 2569 C 252.846 -1.44067 1.31414 0
M  V30 2570 O 252.116 -1.90763 0.445658 0
M  V30 2571 H 250.696 -0.0554468 0.744939 0
M  V30 2572 H 253.358 0.567968 1.86441 0
M  V30 2573 H 252.454 -0.324913 3.10404 0
M  V30 2574 N 252.755 -1.56801 0.158532 0
M  V30 2575 C 253.665 -2.20916 -0.789518 0
M  V30 2576 C 254.681 -1.1969 -1.26294 0
M  V30 2577 O 255.857 -1.52308 -1.31773 0
M  V30 2578 C 252.922 -2.82727 -2.00665 0
M  V30 2579 C 251.983 -3.99114 -1.58134 0
M  V30 2580 C 251.216 -4.57968 -2.74045 0
M  V30 2581 O 251.439 -4.15704 -3.90572 0
M  V30 2582 O 250.373 -5.48047 -2.48855 0
M  V30 2583 H 254.199 -3.02464 -0.273681 0
M  V30 2584 H 251.784 -1.4924 -0.0690548 0
M  V30 2585 H 253.666 -3.21968 -2.71872 0
M  V30 2586 H 252.341 -2.04184 -2.51179 0
M  V30 2587 H 251.248 -3.64567 -0.839155 0
M  V30 2588 H 252.581 -4.79212 -1.12325 0
M  V30 2589 N 254.233 0.115231 -1.57178 0
M  V30 2590 C 255.196 1.12526 -1.99676 0
M  V30 2591 C 256.196 1.34095 -0.88742 0
M  V30 2592 O 257.386 1.30548 -1.15337 0
M  V30 2593 C 254.518 2.4789 -2.34015 0
M  V30 2594 H 255.711 0.759912 -2.90113 0
M  V30 2595 H 253.264 0.359648 -1.52106 0
M  V30 2596 H 253.999 2.89339 -1.4647 0
M  V30 2597 H 253.784 2.33588 -3.14927 0
M  V30 2598 H 255.274 3.20575 -2.67622 0
M  V30 2599 N 255.711 1.52812 0.385517 0
M  V30 2600 C 257.127 1.4214 0.725829 0
M  V30 2601 C 257.327 0.544589 1.94001 0
M  V30 2602 O 256.383 0.0193693 2.52493 0
M  V30 2603 C 257.696 2.85042 0.957668 0
M  V30 2604 C 259.244 2.94543 1.05892 0
M  V30 2605 C 259.719 4.38464 1.32337 0
M  V30 2606 N 261.21 4.41804 1.39151 0
M  V30 2607 C 261.945 5.5025 1.61285 0
M  V30 2608 N 261.441 6.68775 1.80866 0
M  V30 2609 N 263.234 5.37798 1.63492 0
M  V30 2610 H 255.385 2.08338 -0.413383 0
M  V30 2611 H 257.648 0.940016 -0.122775 0
M  V30 2612 H 257.354 3.51431 0.137568 0
M  V30 2613 H 257.228 3.27505 1.87137 0
M  V30 2614 H 259.615 2.28321 1.86959 0
M  V30 2615 H 259.696 2.55504 0.123057 0
M  V30 2616 H 259.34 5.05254 0.517793 0
M  V30 2617 H 259.27 4.75059 2.27214 0
M  V30 2618 H 261.761 3.56377 1.25713 0
M  V30 2619 H 262.074 7.47197 1.97271 0
M  V30 2620 H 260.419 6.71797 1.78083 0
M  V30 2621 H 263.61 4.44171 1.47749 0
M  V30 2622 H 263.783 6.22382 1.80402 0
M  V30 2623 N 257.189 -0.644168 1.43834 0
M  V30 2624 C 258.605 -0.960875 1.27434 0
M  V30 2625 C 258.805 -2.00499 0.200618 0
M  V30 2626 O 257.861 -2.49018 -0.417906 0
M  V30 2627 C 259.174 -1.43653 2.64167 0
M  V30 2628 C 260.722 -1.55271 2.71772 0
M  V30 2629 C 261.197 -2.06224 4.08944 0
M  V30 2630 N 262.688 -2.13513 4.11055 0
M  V30 2631 C 263.423 -2.54081 5.14033 0
M  V30 2632 N 262.919 -2.9388 6.27381 0
M  V30 2633 N 264.712 -2.54101 5.01387 0
M  V30 2634 H 256.863 0.0465779 2.12349 0
M  V30 2635 H 259.126 -0.0417638 0.94708 0
M  V30 2636 H 258.832 -0.743706 3.43747 0
M  V30 2637 H 258.706 -2.40993 2.90176 0
M  V30 2638 H 261.093 -2.23653 1.92519 0
M  V30 2639 H 261.174 -0.563395 2.49519 0
M  V30 2640 H 260.818 -1.38441 4.88668 0
M  V30 2641 H 260.748 -3.06003 4.28567 0
M  V30 2642 H 263.239 -1.85493 3.29242 0
M  V30 2643 H 263.552 -3.2361 7.01781 0
M  V30 2644 H 261.897 -2.91663 6.30839 0
M  V30 2645 H 265.088 -2.22391 4.11898 0
M  V30 2646 H 265.261 -2.85394 5.81768 0
M  V30 2647 N 258.668 -1.30515 -0.883378 0
M  V30 2648 C 259.616 -1.16941 -2.01066 0
M  V30 2649 C 260.61 -0.0809148 -1.69207 0
M  V30 2650 O 261.816 -0.241877 -1.78367 0
M  V30 2651 H 258.191 -0.361705 -0.659298 0
M  V30 2652 H 260.162 -2.12344 -2.09649 0
M  V30 2653 C 258.911 -0.879694 -3.36388 0
M  V30 2654 H 258.234 -1.70936 -3.61415 0
M  V30 2655 H 259.674 -0.82483 -4.159 0
M  V30 2656 C 258.133 0.417409 -3.34304 0
M  V30 2657 O 258.663 1.43843 -3.75063 0
M  V30 2658 N 256.869 0.429141 -2.87414 0
M  V30 2659 H 256.416 -0.402222 -2.5444 0
M  V30 2660 H 256.374 1.29696 -2.86403 0
M  V30 2661 N 260.146 1.09593 -1.13257 0
M  V30 2662 C 261.394 1.81375 -0.891492 0
M  V30 2663 C 261.715 1.86049 0.584009 0
M  V30 2664 O 260.985 1.34481 1.42449 0
M  V30 2665 H 259.565 0.671708 -0.326828 0
M  V30 2666 H 262.227 1.3256 -1.42877 0
M  V30 2667 H 261.323 2.84612 -1.28071 0
M  V30 2668 N 261.624 0.925811 1.2754 0
M  V30 2669 C 262.587 0.428129 2.25166 0
M  V30 2670 C 263.587 -0.452261 1.54309 0
M  V30 2671 O 264.777 -0.253608 1.72344 0
M  V30 2672 C 261.909 -0.384749 3.38722 0
M  V30 2673 H 263.102 1.29066 2.70706 0
M  V30 2674 H 260.655 0.706323 1.3943 0
M  V30 2675 H 261.39 -1.26618 2.98561 0
M  V30 2676 H 261.175 0.246454 3.91325 0
M  V30 2677 H 262.665 -0.723389 4.11287 0
M  V30 2678 N 263.102 -1.41638 0.69111 0
M  V30 2679 C 264.33 -2.05628 0.22909 0
M  V30 2680 C 264.745 -1.51992 -1.11999 0
M  V30 2681 O 264.102 -0.666322 -1.69901 0
M  V30 2682 C 264.153 -3.61084 0.173283 0
M  V30 2683 O 263.874 -4.12735 1.46907 0
M  V30 2684 C 265.375 -4.42213 -0.310266 0
M  V30 2685 H 262.595 -0.662327 0.107534 0
M  V30 2686 H 265.139 -1.81489 0.942438 0
M  V30 2687 H 263.294 -3.84278 -0.490858 0
M  V30 2688 H 263.708 -5.06743 1.35322 0
M  V30 2689 H 265.182 -5.51194 -0.298196 0
M  V30 2690 H 265.659 -4.1799 -1.34838 0
M  V30 2691 H 266.265 -4.24074 0.322716 0
M  V30 2692 N 264.58 -0.43555 -1.51462 0
M  V30 2693 C 265.49 0.383001 -2.31453 0
M  V30 2694 C 266.506 1.02931 -1.4029 0
M  V30 2695 O 267.682 1.02507 -1.73362 0
M  V30 2696 C 264.747 1.47043 -3.13973 0
M  V30 2697 C 263.808 0.844433 -4.20913 0
M  V30 2698 C 263.041 1.88004 -4.9949 0
M  V30 2699 O 263.264 3.10199 -4.78678 0
M  V30 2700 O 262.198 1.47157 -5.83634 0
M  V30 2701 H 266.024 -0.269964 -3.02498 0
M  V30 2702 H 263.609 -0.19813 -1.4808 0
M  V30 2703 H 265.491 2.10113 -3.65281 0
M  V30 2704 H 264.166 2.10751 -2.45695 0
M  V30 2705 H 263.073 0.175729 -3.73687 0
M  V30 2706 H 264.406 0.250869 -4.9156 0
M  V30 2707 N 266.058 1.56714 -0.166846 0
M  V30 2708 C 267.021 2.16539 0.751232 0
M  V30 2709 C 268.021 1.11228 1.16125 0
M  V30 2710 O 269.211 1.36765 1.07894 0
M  V30 2711 C 266.343 2.74462 2.02196 0
M  V30 2712 H 267.536 2.99013 0.230499 0
M  V30 2713 H 265.089 1.56081 0.0826982 0
M  V30 2714 H 265.824 1.95709 2.58589 0
M  V30 2715 H 265.609 3.51527 1.73698 0
M  V30 2716 H 267.099 3.20489 2.67725 0
M  V30 2717 N 267.536 -0.106894 1.57237 0
M  V30 2718 C 268.783 -0.812526 1.85484 0
M  V30 2719 C 269.111 -1.79304 0.753687 0
M  V30 2720 O 268.366 -1.94047 -0.253853 0
M  V30 2721 C 268.665 -1.58628 3.20268 0
M  V30 2722 C 268.331 -0.748967 4.44636 0
M  V30 2723 C 266.993 -0.518104 4.78403 0
M  V30 2724 C 269.345 -0.166122 5.20935 0
M  V30 2725 C 266.673 0.305659 5.85903 0
M  V30 2726 C 269.025 0.644899 6.29304 0
M  V30 2727 C 267.689 0.885965 6.61594 0
M  V30 2728 H 266.959 -0.297324 0.678734 0
M  V30 2729 H 269.606 -0.0744332 1.91355 0
M  V30 2730 H 267.911 -2.39562 3.10028 0
M  V30 2731 H 269.608 -2.13643 3.39349 0
M  V30 2732 H 266.198 -0.939006 4.18187 0
M  V30 2733 H 270.382 -0.33167 4.95191 0
M  V30 2734 H 265.638 0.501528 6.0934 0
M  V30 2735 H 269.812 1.10345 6.87602 0
M  V30 2736 H 267.439 1.52609 7.44725 0
M  V30 2737 N 269.014 -1.53014 -0.377408 0
M  V30 2738 C 269.961 -1.78616 -1.46168 0
M  V30 2739 C 270.931 -0.629917 -1.53692 0
M  V30 2740 O 272.116 -0.870861 -1.69766 0
M  V30 2741 C 269.256 -1.97123 -2.8326 0
M  V30 2742 C 268.369 -3.24831 -2.84796 0
M  V30 2743 C 267.504 -3.33591 -4.13389 0
M  V30 2744 C 266.543 -4.55377 -4.09021 0
M  V30 2745 N 265.68 -4.61355 -5.29241 0
M  V30 2746 H 270.52 -2.71142 -1.23637 0
M  V30 2747 H 268.057 -1.34326 -0.599577 0
M  V30 2748 H 270.015 -2.05839 -3.62886 0
M  V30 2749 H 268.645 -1.07946 -3.04216 0
M  V30 2750 H 267.697 -3.25128 -1.97474 0
M  V30 2751 H 269.009 -4.14523 -2.77439 0
M  V30 2752 H 268.163 -3.41554 -5.01424 0
M  V30 2753 H 266.902 -2.41894 -4.23484 0
M  V30 2754 H 265.907 -4.47527 -3.19373 0
M  V30 2755 H 267.132 -5.48402 -4.00539 0
M  V30 2756 H 265.078 -3.72554 -5.39944 0
M  V30 2757 H 264.995 -5.44935 -5.24006 0
M  V30 2758 H 266.263 -4.73586 -6.19141 0
M  V30 2759 N 270.492 0.636531 -1.44174 0
M  V30 2760 C 271.439 1.74875 -1.50624 0
M  V30 2761 C 272.409 1.62275 -0.35442 0
M  V30 2762 O 273.594 1.82276 -0.563908 0
M  V30 2763 C 270.734 3.13102 -1.45125 0
M  V30 2764 C 269.847 3.36717 -2.7064 0
M  V30 2765 C 268.982 4.64885 -2.57013 0
M  V30 2766 C 268.021 4.8166 -3.77717 0
M  V30 2767 N 267.158 6.01101 -3.62798 0
M  V30 2768 H 271.998 1.68697 -2.45653 0
M  V30 2769 H 269.535 0.823004 -1.21922 0
M  V30 2770 H 271.493 3.93034 -1.39929 0
M  V30 2771 H 270.123 3.18308 -0.536671 0
M  V30 2772 H 269.175 2.50763 -2.86046 0
M  V30 2773 H 270.487 3.44993 -3.60252 0
M  V30 2774 H 269.641 5.52969 -2.49619 0
M  V30 2775 H 268.38 4.58957 -1.64953 0
M  V30 2776 H 267.385 3.92007 -3.85501 0
M  V30 2777 H 268.61 4.89406 -4.70807 0
M  V30 2778 H 266.556 5.96273 -2.73486 0
M  V30 2779 H 266.473 6.10409 -4.46023 0
M  V30 2780 H 267.741 6.91761 -3.59286 0
M  V30 2781 N 271.97 1.30982 0.876444 0
M  V30 2782 C 272.933 1.18054 1.96459 0
M  V30 2783 C 273.933 0.109399 1.60427 0
M  V30 2784 O 275.123 0.358173 1.70478 0
M  V30 2785 C 272.255 0.810616 3.31122 0
M  V30 2786 H 273.448 2.14735 2.09354 0
M  V30 2787 H 271.001 1.145 1.06392 0
M  V30 2788 H 271.736 -0.155322 3.23928 0
M  V30 2789 H 271.521 1.58481 3.58645 0
M  V30 2790 H 273.011 0.743876 4.10921 0
M  V30 2791 N 273.449 -1.08991 1.13837 0
M  V30 2792 C 274.674 -1.85551 0.926585 0
M  V30 2793 C 275.099 -1.80782 -0.519566 0
M  V30 2794 O 274.457 -1.18855 -1.36906 0
M  V30 2795 C 274.505 -3.31266 1.42462 0
M  V30 2796 O 273.609 -4.07822 0.612789 0
M  V30 2797 H 272.95 -0.575192 0.331738 0
M  V30 2798 H 275.48 -1.37604 1.51414 0
M  V30 2799 H 275.49 -3.82112 1.43019 0
M  V30 2800 H 274.165 -3.34052 2.47754 0
M  V30 2801 H 272.742 -3.66731 0.675463 0
M  V30 2802 N 274.927 -0.932562 -1.27047 0
M  V30 2803 C 275.859 -0.392734 -2.2581 0
M  V30 2804 C 276.872 0.479241 -1.55586 0
M  V30 2805 O 278.061 0.291078 -1.76111 0
M  V30 2806 C 275.161 0.455456 -3.35826 0
M  V30 2807 C 274.334 -0.398355 -4.35582 0
M  V30 2808 C 273.393 0.387985 -5.24768 0
M  V30 2809 O 272.419 -0.206003 -5.68827 0
M  V30 2810 N 273.621 1.68664 -5.55457 0
M  V30 2811 H 276.386 -1.24173 -2.72766 0
M  V30 2812 H 273.947 -0.800511 -1.40725 0
M  V30 2813 H 275.939 0.988692 -3.92437 0
M  V30 2814 H 274.509 1.20522 -2.88432 0
M  V30 2815 H 273.729 -1.11286 -3.78165 0
M  V30 2816 H 275.017 -0.981889 -4.99236 0
M  V30 2817 H 274.415 2.19147 -5.21528 0
M  V30 2818 H 272.972 2.1663 -6.14748 0
M  V30 2819 N 276.405 1.4127 -0.698611 0
M  V30 2820 C 277.654 2.00408 -0.227949 0
M  V30 2821 C 277.967 1.55981 1.18023 0
M  V30 2822 O 279.173 2.07699 1.74852 0
M  V30 2823 C 277.629 3.58129 -0.356636 0
M  V30 2824 C 277.237 4.11536 -1.77037 0
M  V30 2825 C 278.981 4.24466 0.0540969 0
M  V30 2826 C 276.888 5.61701 -1.85055 0
M  V30 2827 H 275.818 0.749586 -0.0814657 0
M  V30 2828 H 278.469 1.61713 -0.867249 0
M  V30 2829 H 276.851 3.94442 0.350965 0
M  V30 2830 H 278.025 3.86636 -2.50698 0
M  V30 2831 H 276.34 3.57736 -2.13105 0
M  V30 2832 H 278.937 5.34698 0.0146723 0
M  V30 2833 H 279.28 4.01687 1.09332 0
M  V30 2834 H 279.813 3.93198 -0.603337 0
M  V30 2835 H 276.552 5.89312 -2.8704 0
M  V30 2836 H 276.072 5.88519 -1.15783 0
M  V30 2837 H 277.751 6.26524 -1.61484 0
M  V30 2838 N 277.883 0.443576 1.51229 0
M  V30 2839 C 278.83 -0.364716 2.279 0
M  V30 2840 C 279.8 -1.0114 1.31757 0
M  V30 2841 O 280.985 -1.02912 1.60667 0
M  V30 2842 C 278.125 -1.45644 3.12861 0
M  V30 2843 C 277.238 -0.827269 4.24005 0
M  V30 2844 C 276.373 -1.89456 4.96266 0
M  V30 2845 C 275.412 -1.24416 5.99322 0
M  V30 2846 N 274.549 -2.25309 6.64966 0
M  V30 2847 H 279.389 0.295464 2.96532 0
M  V30 2848 H 276.926 0.157554 1.46254 0
M  V30 2849 H 278.884 -2.10076 3.6045 0
M  V30 2850 H 277.514 -2.08616 2.46331 0
M  V30 2851 H 276.566 -0.0710839 3.80334 0
M  V30 2852 H 277.878 -0.312481 4.9782 0
M  V30 2853 H 277.032 -2.61535 5.47434 0
M  V30 2854 H 275.771 -2.4431 4.22095 0
M  V30 2855 H 274.776 -0.508868 5.4744 0
M  V30 2856 H 276.001 -0.702882 6.75453 0
M  V30 2857 H 273.947 -2.79231 5.93604 0
M  V30 2858 H 273.864 -1.78739 7.34567 0
M  V30 2859 H 275.132 -2.96853 7.20763 0
M  V30 2860 N 279.361 -1.56624 0.175154 0
M  V30 2861 C 280.291 -2.21155 -0.749195 0
M  V30 2862 C 281.272 -1.16836 -1.23626 0
M  V30 2863 O 282.457 -1.45277 -1.28873 0
M  V30 2864 C 279.587 -2.8553 -1.97711 0
M  V30 2865 C 278.541 -3.95921 -1.62575 0
M  V30 2866 C 277.867 -4.47365 -2.92864 0
M  V30 2867 C 279.167 -5.15323 -0.850838 0
M  V30 2868 H 280.861 -2.98653 -0.211295 0
M  V30 2869 H 278.407 -1.43651 -0.100188 0
M  V30 2870 H 280.36 -3.2935 -2.62881 0
M  V30 2871 H 279.084 -2.05406 -2.53921 0
M  V30 2872 H 277.743 -3.52762 -0.997719 0
M  V30 2873 H 277.391 -3.64027 -3.47122 0
M  V30 2874 H 277.091 -5.21839 -2.70106 0
M  V30 2875 H 278.615 -4.93873 -3.59056 0
M  V30 2876 H 280.029 -5.55812 -1.40521 0
M  V30 2877 H 278.426 -5.95739 -0.722154 0
M  V30 2878 H 279.496 -4.84661 0.152082 0
M  V30 2879 N 280.839 0.0985539 -1.57292 0
M  V30 2880 C 282.085 0.803867 -1.86188 0
M  V30 2881 C 282.418 1.78549 -0.763794 0
M  V30 2882 O 281.693 1.93153 0.22855 0
M  V30 2883 C 281.976 1.53568 -3.25713 0
M  V30 2884 C 281.829 0.572277 -4.46145 0
M  V30 2885 C 283.148 2.48708 -3.63087 0
M  V30 2886 H 280.267 0.290781 -0.677211 0
M  V30 2887 H 282.909 0.0675783 -1.8988 0
M  V30 2888 H 281.059 2.16332 -3.22696 0
M  V30 2889 H 282.731 -0.0480894 -4.61275 0
M  V30 2890 H 280.974 -0.114618 -4.33649 0
M  V30 2891 H 281.645 1.12139 -5.40489 0
M  V30 2892 H 284.121 1.96039 -3.67026 0
M  V30 2893 H 282.997 2.96932 -4.61652 0
M  V30 2894 H 283.258 3.32309 -2.91588 0
M  V30 2895 N 282.317 1.53212 0.369288 0
M  V30 2896 C 283.28 1.7872 1.43498 0
M  V30 2897 C 284.28 0.657554 1.46741 0
M  V30 2898 O 285.47 0.925736 1.47566 0
M  V30 2899 C 282.602 1.90591 2.82645 0
M  V30 2900 H 283.795 2.73894 1.22156 0
M  V30 2901 H 281.348 1.44233 0.602203 0
M  V30 2902 H 282.083 0.974709 3.09306 0
M  V30 2903 H 281.868 2.72751 2.8169 0
M  V30 2904 H 283.358 2.11931 3.59826 0
M  V30 2905 N 283.795 -0.628877 1.44509 0
M  V30 2906 C 285.02 -1.42048 1.5112 0
M  V30 2907 C 285.445 -1.87594 0.137818 0
M  V30 2908 O 284.803 -1.58873 -0.873437 0
M  V30 2909 C 284.851 -2.61541 2.48251 0
M  V30 2910 O 283.955 -3.61453 1.98559 0
M  V30 2911 H 283.296 -0.424942 0.510216 0
M  V30 2912 H 285.826 -0.767374 1.89664 0
M  V30 2913 H 285.836 -3.09057 2.66361 0
M  V30 2914 H 284.511 -2.27736 3.48007 0
M  V30 2915 H 283.088 -3.20731 1.90227 0
M  V30 2916 N 285.273 -1.31445 -0.869486 0
M  V30 2917 C 286.205 -1.14955 -1.98287 0
M  V30 2918 C 287.218 -0.0885037 -1.62559 0
M  V30 2919 O 288.407 -0.336044 -1.75308 0
M  V30 2920 C 285.507 -0.734255 -3.3085 0
M  V30 2921 C 284.68 -1.88042 -3.94917 0
M  V30 2922 C 283.739 -1.4511 -5.05796 0
M  V30 2923 O 282.765 -2.16082 -5.2659 0
M  V30 2924 N 283.967 -0.338763 -5.79511 0
M  V30 2925 H 286.732 -2.10856 -2.12979 0
M  V30 2926 H 284.293 -1.23786 -1.04349 0
M  V30 2927 H 286.285 -0.42975 -4.02412 0
M  V30 2928 H 284.855 0.133158 -3.12316 0
M  V30 2929 H 284.075 -2.35222 -3.1633 0
M  V30 2930 H 285.363 -2.6481 -4.34457 0
M  V30 2931 H 284.761 0.252274 -5.65137 0
M  V30 2932 H 283.318 -0.0937925 -6.51733 0
M  V30 2933 N 286.751 1.08385 -1.14413 0
M  V30 2934 C 288.162 1.62258 -0.923535 0
M  V30 2935 C 288.513 1.88691 0.537595 0
M  V30 2936 O 287.638 1.64454 1.40655 0
M  V30 2937 C 288.233 2.94781 -1.67002 0
M  V30 2938 C 286.792 3.45437 -1.495 0
M  V30 2939 C 285.939 2.19668 -1.69238 0
M  V30 2940 H 288.89 0.916086 -1.2959 0
M  V30 2941 H 288.911 3.63229 -1.13334 0
M  V30 2942 H 288.423 2.7551 -2.73342 0
M  V30 2943 H 286.524 3.6981 -0.455097 0
M  V30 2944 H 286.637 4.22173 -2.2651 0
M  V30 2945 H 285.001 2.28849 -1.11804 0
M  V30 2946 H 285.784 2.02905 -2.7692 0
M  V30 2947 N 288.23 0.939286 1.26551 0
M  V30 2948 C 289.193 0.451987 2.24699 0
M  V30 2949 C 290.193 -0.435869 1.5478 0
M  V30 2950 O 291.383 -0.235314 1.72603 0
M  V30 2951 C 288.515 -0.348801 3.39111 0
M  V30 2952 H 289.708 1.3193 2.69322 0
M  V30 2953 H 287.261 0.721072 1.38673 0
M  V30 2954 H 287.996 -1.23444 2.99887 0
M  V30 2955 H 287.781 0.287945 3.91041 0
M  V30 2956 H 289.271 -0.679726 4.12031 0
M  V30 2957 N 289.708 -1.40897 0.706093 0
M  V30 2958 C 290.985 -1.94868 0.169099 0
M  V30 2959 C 291.365 -1.64485 -1.32318 0
M  V30 2960 O 290.713 -0.95744 -2.07474 0
M  V30 2961 C 290.923 -3.45798 0.471654 0
M  V30 2962 C 292.271 -4.22663 0.405127 0
M  V30 2963 O 293.295 -3.53865 0.407168 0
M  V30 2964 O 292.154 -5.45216 0.374383 0
M  V30 2965 H 289.248 -0.82673 0.0211352 0
M  V30 2966 H 291.794 -1.50558 0.782976 0
M  V30 2967 H 290.566 -3.61235 1.50416 0
M  V30 2968 H 290.189 -3.97225 -0.172666 0
M  V30 2969 N 291.186 -0.45159 -1.50991 0
M  V30 2970 C 292.432 0.102439 -2.03142 0
M  V30 2971 C 292.787 1.39138 -1.32884 0
M  V30 2972 O 292.08 1.86493 -0.439438 0
M  V30 2973 C 292.274 0.361728 -3.55565 0
M  V30 2974 C 292.103 -0.900535 -4.40591 0
M  V30 2975 C 290.873 -1.43821 -4.844 0
M  V30 2976 C 293.071 -1.79063 -4.82121 0
M  V30 2977 N 291.053 -2.65153 -5.53685 0
M  V30 2978 C 292.424 -2.84991 -5.50618 0
M  V30 2979 C 294.479 -1.80334 -4.64095 0
M  V30 2980 C 293.182 -3.92155 -6.02998 0
M  V30 2981 C 295.208 -2.86442 -5.17402 0
M  V30 2982 C 294.57 -3.9109 -5.85857 0
M  V30 2983 H 290.669 -0.00204537 -0.781997 0
M  V30 2984 H 293.253 -0.615446 -1.84717 0
M  V30 2985 H 291.424 1.04865 -3.73976 0
M  V30 2986 H 293.156 0.908372 -3.94374 0
M  V30 2987 H 289.911 -0.990117 -4.63135 0
M  V30 2988 H 290.335 -3.26717 -5.92946 0
M  V30 2989 H 294.977 -1.00753 -4.1062 0
M  V30 2990 H 292.695 -4.72565 -6.55521 0
M  V30 2991 H 296.281 -2.88386 -5.05297 0
M  V30 2992 H 295.161 -4.71845 -6.26364 0
M  V30 2993 N 292.664 1.56529 -0.183458 0
M  V30 2994 C 293.941 1.88959 0.50536 0
M  V30 2995 C 294.321 1.09523 1.80466 0
M  V30 2996 O 293.669 0.19278 2.27685 0
M  V30 2997 C 293.879 3.41162 0.73547 0
M  V30 2998 C 295.227 4.11155 1.06005 0
M  V30 2999 O 296.251 3.46548 0.823594 0
M  V30 3000 O 295.11 5.25318 1.50675 0
M  V30 3001 H 292.204 0.78441 0.261973 0
M  V30 3002 H 294.75 1.68231 -0.222802 0
M  V30 3003 H 293.522 3.90874 -0.182561 0
M  V30 3004 H 293.145 3.67543 1.51651 0
M  V30 3005 N 294.142 -0.090211 1.57342 0
M  V30 3006 C 295.558 -0.444547 1.53284 0
M  V30 3007 C 295.758 -1.80238 0.900914 0
M  V30 3008 O 294.814 -2.4759 0.495513 0
M  V30 3009 C 296.127 -0.402543 2.97993 0
M  V30 3010 C 297.675 -0.48405 3.09234 0
M  V30 3011 C 298.15 -0.472144 4.5556 0
M  V30 3012 N 299.641 -0.532757 4.60126 0
M  V30 3013 C 300.376 -0.545462 5.708 0
M  V30 3014 N 299.872 -0.514082 6.9089 0
M  V30 3015 N 301.665 -0.59064 5.58988 0
M  V30 3016 H 293.816 0.799121 1.96794 0
M  V30 3017 H 296.079 0.297965 0.899956 0
M  V30 3018 H 295.785 0.528106 3.47712 0
M  V30 3019 H 295.659 -1.21969 3.56936 0
M  V30 3020 H 298.046 -1.40512 2.595 0
M  V30 3021 H 298.127 0.361328 2.53235 0
M  V30 3022 H 297.771 0.445 5.05947 0
M  V30 3023 H 297.701 -1.3348 5.09402 0
M  V30 3024 H 300.192 -0.562006 3.73698 0
M  V30 3025 H 300.505 -0.527195 7.71 0
M  V30 3026 H 298.85 -0.481054 6.93333 0
M  V30 3027 H 302.041 -0.61272 4.64073 0
M  V30 3028 H 302.214 -0.597073 6.45243 0
M  V30 3029 N 295.62 -1.53406 -0.361157 0
M  V30 3030 C 296.869 -1.69022 -1.10066 0
M  V30 3031 C 297.182 -0.450838 -1.90333 0
M  V30 3032 O 298.388 -0.487617 -2.67085 0
M  V30 3033 C 296.844 -2.98812 -2.00598 0
M  V30 3034 C 296.452 -4.30027 -1.25621 0
M  V30 3035 C 298.196 -3.23795 -2.74513 0
M  V30 3036 C 296.103 -5.50903 -2.1508 0
M  V30 3037 H 295.033 -0.629776 -0.414606 0
M  V30 3038 H 297.684 -1.79907 -0.361348 0
M  V30 3039 H 296.066 -2.8174 -2.78278 0
M  V30 3040 H 297.24 -4.57745 -0.529739 0
M  V30 3041 H 295.555 -4.11522 -0.635496 0
M  V30 3042 H 298.152 -4.11289 -3.41681 0
M  V30 3043 H 298.495 -2.40045 -3.40123 0
M  V30 3044 H 299.028 -3.41561 -2.03914 0
M  V30 3045 H 295.767 -6.37143 -1.54041 0
M  V30 3046 H 295.287 -5.27459 -2.85565 0
M  V30 3047 H 296.966 -5.85865 -2.74538 0
M  V30 3048 N 297.098 0.621204 -1.44841 0
M  V30 3049 C 298.045 1.73267 -1.5247 0
M  V30 3050 C 299.015 1.6189 -0.371611 0
M  V30 3051 O 300.2 1.81668 -0.58321 0
M  V30 3052 C 297.34 3.11545 -1.48438 0
M  V30 3053 C 296.453 3.33827 -2.74196 0
M  V30 3054 C 295.588 4.62133 -2.61929 0
M  V30 3055 C 294.627 4.77627 -3.82804 0
M  V30 3056 N 293.764 5.97219 -3.69153 0
M  V30 3057 H 298.604 1.66082 -2.47428 0
M  V30 3058 H 296.141 0.810026 -1.22788 0
M  V30 3059 H 298.099 3.91528 -1.4409 0
M  V30 3060 H 296.729 3.1772 -0.570402 0
M  V30 3061 H 295.781 2.47715 -2.88689 0
M  V30 3062 H 297.093 3.41153 -3.6389 0
M  V30 3063 H 296.247 5.50291 -2.5547 0
M  V30 3064 H 294.986 4.57182 -1.69811 0
M  V30 3065 H 293.991 3.87896 -3.89637 0
M  V30 3066 H 295.216 4.84385 -4.75971 0
M  V30 3067 H 293.162 5.93339 -2.79794 0
M  V30 3068 H 293.079 6.05644 -4.52472 0
M  V30 3069 H 294.347 6.87912 -3.66603 0
M  V30 3070 N 298.576 1.31904 0.862503 0
M  V30 3071 C 299.539 1.20131 1.95195 0
M  V30 3072 C 300.539 0.126409 1.60302 0
M  V30 3073 O 301.729 0.376234 1.70089 0
M  V30 3074 C 298.861 0.845691 3.30244 0
M  V30 3075 H 300.054 2.16943 2.07064 0
M  V30 3076 H 297.607 1.15622 1.05172 0
M  V30 3077 H 298.342 -0.120957 3.24074 0
M  V30 3078 H 298.127 1.62276 3.56944 0
M  V30 3079 H 299.617 0.787418 4.10109 0
M  V30 3080 N 300.054 -1.07777 1.14986 0
M  V30 3081 C 300.984 -2.16865 0.865557 0
M  V30 3082 C 301.965 -1.69123 -0.182083 0
M  V30 3083 O 303.15 -1.94164 -0.0373815 0
M  V30 3084 C 300.28 -3.45539 0.349313 0
M  V30 3085 C 299.234 -4.06708 1.33313 0
M  V30 3086 C 298.56 -5.30411 0.675918 0
M  V30 3087 C 299.86 -4.47241 2.69764 0
M  V30 3088 H 301.554 -2.40905 1.77778 0
M  V30 3089 H 299.1 -1.15781 0.856203 0
M  V30 3090 H 301.053 -4.21174 0.137983 0
M  V30 3091 H 299.777 -3.21072 -0.598362 0
M  V30 3092 H 298.436 -3.33112 1.53075 0
M  V30 3093 H 298.084 -5.02232 -0.277767 0
M  V30 3094 H 297.784 -5.72293 1.33244 0
M  V30 3095 H 299.308 -6.08755 0.474262 0
M  V30 3096 H 300.722 -5.14025 2.53873 0
M  V30 3097 H 299.119 -5.00062 3.3175 0
M  V30 3098 H 300.189 -3.58818 3.26156 0
M  V30 3099 N 301.532 -0.945985 -1.26051 0
M  V30 3100 C 302.809 -0.513816 -1.88731 0
M  V30 3101 C 303.189 1.00872 -1.8544 0
M  V30 3102 O 302.537 1.8708 -1.312 0
M  V30 3103 C 302.747 -1.08062 -3.31849 0
M  V30 3104 C 304.095 -1.1522 -4.08668 0
M  V30 3105 O 305.119 -1.03155 -3.40936 0
M  V30 3106 O 303.978 -1.34044 -5.29806 0
M  V30 3107 H 301.072 -0.168193 -0.809716 0
M  V30 3108 H 303.618 -1.03886 -1.34186 0
M  V30 3109 H 302.39 -2.1241 -3.2863 0
M  V30 3110 H 302.013 -0.538307 -3.93939 0
M  V30 3111 N 303.011 1.40521 -0.713556 0
M  V30 3112 C 304.257 2.01221 -0.252564 0
M  V30 3113 C 304.59 1.56444 1.1506 0
M  V30 3114 O 303.865 0.783597 1.78017 0
M  V30 3115 C 304.148 3.58582 -0.330332 0
M  V30 3116 C 304.001 4.13437 -1.77173 0
M  V30 3117 C 305.32 4.39079 0.299641 0
M  V30 3118 H 302.439 0.731077 -0.0932471 0
M  V30 3119 H 305.081 1.67026 -0.905673 0
M  V30 3120 H 303.231 3.87844 0.225737 0
M  V30 3121 H 304.903 3.9498 -2.38303 0
M  V30 3122 H 303.146 3.67801 -2.3001 0
M  V30 3123 H 303.817 5.22597 -1.77755 0
M  V30 3124 H 306.293 4.15735 -0.174139 0
M  V30 3125 H 305.169 5.4848 0.214771 0
M  V30 3126 H 305.43 4.19915 1.38288 0
M  V30 3127 N 304.489 0.459591 1.5075 0
M  V30 3128 C 305.452 -0.329093 2.26825 0
M  V30 3129 C 306.452 -0.930481 1.31144 0
M  V30 3130 O 307.642 -0.801453 1.54669 0
M  V30 3131 C 304.774 -1.46768 3.07688 0
M  V30 3132 H 305.967 0.337924 2.9799 0
M  V30 3133 H 303.52 0.213336 1.54837 0
M  V30 3134 H 304.255 -2.17009 2.40993 0
M  V30 3135 H 304.04 -1.04238 3.77991 0
M  V30 3136 H 305.53 -2.02433 3.65254 0
M  V30 3137 N 305.967 -1.56429 0.191757 0
M  V30 3138 C 307.195 -2.01867 -0.453586 0
M  V30 3139 C 307.61 -1.07191 -1.5542 0
M  V30 3140 O 306.967 -0.0762108 -1.82341 0
M  V30 3141 C 307.018 -3.47017 -1.013 0
M  V30 3142 O 306.739 -4.38078 0.0437005 0
M  V30 3143 C 308.24 -4.07956 -1.73456 0
M  V30 3144 H 305.46 -0.661211 -0.114199 0
M  V30 3145 H 308.004 -2.02295 0.299483 0
M  V30 3146 H 306.159 -3.47298 -1.71647 0
M  V30 3147 H 306.573 -5.23178 -0.372212 0
M  V30 3148 H 308.047 -5.1138 -2.07833 0
M  V30 3149 H 308.524 -3.51222 -2.63704 0
M  V30 3150 H 309.13 -4.11437 -1.07702 0
M  V30 3151 N 307.445 0.0818655 -1.57387 0
M  V30 3152 C 308.393 1.11712 -2.04018 0
M  V30 3153 C 309.387 1.40683 -0.94364 0
M  V30 3154 O 310.593 1.40209 -1.12878 0
M  V30 3155 H 306.968 0.377542 -0.650358 0
M  V30 3156 H 308.939 0.697614 -2.90131 0
M  V30 3157 C 307.688 2.42537 -2.49141 0
M  V30 3158 H 307.011 2.21092 -3.33104 0
M  V30 3159 H 308.451 3.13446 -2.85531 0
M  V30 3160 C 306.91 3.0778 -1.37014 0
M  V30 3161 O 307.44 3.95436 -0.706621 0
M  V30 3162 N 305.646 2.68242 -1.11779 0
M  V30 3163 H 305.193 1.97052 -1.65917 0
M  V30 3164 H 305.151 3.1222 -0.369594 0
M  V30 3165 N 308.923 1.53595 0.353017 0
M  V30 3166 C 310.169 1.70638 1.09593 0
M  V30 3167 C 310.502 0.463286 1.88593 0
M  V30 3168 O 309.777 -0.539597 1.86865 0
M  V30 3169 C 310.06 2.96406 2.04489 0
M  V30 3170 C 309.913 4.30901 1.29014 0
M  V30 3171 C 311.232 3.17812 3.0444 0
M  V30 3172 H 308.351 0.620913 0.397034 0
M  V30 3173 H 310.993 1.86254 0.375446 0
M  V30 3174 H 309.143 2.83223 2.65927 0
M  V30 3175 H 310.815 4.55917 0.702638 0
M  V30 3176 H 309.058 4.29741 0.592071 0
M  V30 3177 H 309.729 5.1506 1.98537 0
M  V30 3178 H 312.205 3.30263 2.53112 0
M  V30 3179 H 311.081 4.07223 3.6805 0
M  V30 3180 H 311.342 2.33669 3.75301 0
M  V30 3181 N 310.401 -0.613514 1.45168 0
M  V30 3182 C 311.331 -1.7354 1.56225 0
M  V30 3183 C 312.312 -1.64981 0.41414 0
M  V30 3184 O 313.497 -1.83472 0.636526 0
M  V30 3185 C 310.627 -3.12128 1.52295 0
M  V30 3186 C 309.581 -3.35491 2.65762 0
M  V30 3187 C 308.907 -4.74291 2.46885 0
M  V30 3188 C 310.207 -3.26325 4.0781 0
M  V30 3189 H 311.901 -1.64543 2.50132 0
M  V30 3190 H 309.447 -0.790185 1.20383 0
M  V30 3191 H 311.4 -3.90404 1.58628 0
M  V30 3192 H 310.124 -3.2195 0.549139 0
M  V30 3193 H 308.783 -2.59603 2.58847 0
M  V30 3194 H 308.431 -4.80839 1.47657 0
M  V30 3195 H 308.131 -4.9088 3.22972 0
M  V30 3196 H 309.655 -5.54775 2.55063 0
M  V30 3197 H 311.069 -3.94483 4.16 0
M  V30 3198 H 309.466 -3.54445 4.8424 0
M  V30 3199 H 310.536 -2.23855 4.30136 0
M  V30 3200 N 311.879 -1.3236 -0.855495 0
M  V30 3201 C 312.811 -1.17052 -1.97057 0
M  V30 3202 C 313.824 -0.10574 -1.62456 0
M  V30 3203 O 315.013 -0.354619 -1.74942 0
M  V30 3204 C 312.113 -0.769305 -3.30053 0
M  V30 3205 C 311.286 -1.9222 -3.929 0
M  V30 3206 C 310.345 -1.50466 -5.04228 0
M  V30 3207 O 309.371 -2.21655 -5.24269 0
M  V30 3208 N 310.573 -0.400209 -5.79119 0
M  V30 3209 H 313.338 -2.13103 -2.1073 0
M  V30 3210 H 310.899 -1.24885 -1.0303 0
M  V30 3211 H 312.891 -0.472407 -4.01933 0
M  V30 3212 H 311.461 0.100025 -3.1244 0
M  V30 3213 H 310.681 -2.38563 -3.13817 0
M  V30 3214 H 311.969 -2.69403 -4.31624 0
M  V30 3215 H 311.367 0.192319 -5.65373 0
M  V30 3216 H 309.924 -0.162912 -6.51596 0
M  V30 3217 N 313.357 1.07166 -1.15556 0
M  V30 3218 C 314.773 1.31899 -0.898603 0
M  V30 3219 C 314.973 1.96333 0.453383 0
M  V30 3220 O 314.029 2.22438 1.19489 0
M  V30 3221 C 315.342 2.20826 -2.04099 0
M  V30 3222 C 316.89 2.34269 -2.07574 0
M  V30 3223 C 317.365 3.26546 -3.21141 0
M  V30 3224 N 318.856 3.34127 -3.20801 0
M  V30 3225 C 319.591 4.05595 -4.05315 0
M  V30 3226 N 319.087 4.79661 -4.99897 0
M  V30 3227 N 320.88 4.01555 -3.93332 0
M  V30 3228 H 313.031 0.637302 -2.02613 0
M  V30 3229 H 315.294 0.343468 -0.883591 0
M  V30 3230 H 315 1.80744 -3.01703 0
M  V30 3231 H 314.874 3.21364 -1.97496 0
M  V30 3232 H 317.261 2.73603 -1.10568 0
M  V30 3233 H 317.342 1.33429 -2.18244 0
M  V30 3234 H 316.986 2.87931 -4.184 0
M  V30 3235 H 316.916 4.27345 -3.07708 0
M  V30 3236 H 319.407 2.81336 -2.52306 0
M  V30 3237 H 319.72 5.31694 -5.60822 0
M  V30 3238 H 318.065 4.78671 -5.03884 0
M  V30 3239 H 321.256 3.42806 -3.18751 0
M  V30 3240 H 321.429 4.56987 -4.5942 0
M  V30 3241 N 314.835 0.952656 1.25548 0
M  V30 3242 C 315.783 0.462354 2.27958 0
M  V30 3243 C 316.777 -0.46634 1.62855 0
M  V30 3244 O 317.983 -0.343287 1.76696 0
M  V30 3245 H 314.358 0.13101 0.7405 0
M  V30 3246 H 316.329 1.33839 2.66702 0
M  V30 3247 C 315.078 -0.24628 3.46827 0
M  V30 3248 H 314.401 0.459192 3.97154 0
M  V30 3249 H 315.841 -0.553393 4.20373 0
M  V30 3250 C 314.3 -1.4681 3.0323 0
M  V30 3251 O 314.83 -2.56591 3.09069 0
M  V30 3252 N 313.036 -1.32874 2.58443 0
M  V30 3253 H 312.583 -0.435536 2.53891 0
M  V30 3254 H 312.541 -2.14742 2.29637 0
M  V30 3255 N 316.313 -1.40141 0.720998 0
M  V30 3256 C 317.724 -1.83678 0.334553 0
M  V30 3257 C 318.075 -1.6027 -1.13173 0
M  V30 3258 O 317.2 -1.08643 -1.87152 0
M  V30 3259 C 317.795 -3.33437 0.600437 0
M  V30 3260 C 316.354 -3.75447 0.267642 0
M  V30 3261 C 315.501 -2.63296 0.870097 0
M  V30 3262 H 318.452 -1.29331 0.919732 0
M  V30 3263 H 318.473 -3.80269 -0.132517 0
M  V30 3264 H 317.985 -3.50442 1.66768 0
M  V30 3265 H 316.086 -3.64035 -0.794329 0
M  V30 3266 H 316.199 -4.73344 0.74042 0
M  V30 3267 H 314.563 -2.52954 0.297739 0
M  V30 3268 H 315.346 -2.83112 1.94172 0
M  V30 3269 N 317.792 -0.46758 -1.50504 0
M  V30 3270 C 318.74 0.342482 -2.30065 0
M  V30 3271 C 319.734 0.993596 -1.37201 0
M  V30 3272 O 320.94 0.925102 -1.54408 0
M  V30 3273 H 317.315 0.129283 -0.740803 0
M  V30 3274 H 319.286 -0.34899 -2.96352 0
M  V30 3275 C 318.035 1.4139 -3.17654 0
M  V30 3276 H 317.358 0.922264 -3.89017 0
M  V30 3277 H 318.798 1.95335 -3.76325 0
M  V30 3278 C 317.257 2.4139 -2.35016 0
M  V30 3279 O 317.787 3.46586 -2.03079 0
M  V30 3280 N 315.993 2.13021 -1.97662 0
M  V30 3281 H 315.54 1.27499 -2.23834 0
M  V30 3282 H 315.498 2.80164 -1.42673 0
M  V30 3283 N 319.27 1.56325 -0.20005 0
M  V30 3284 C 320.519 1.96895 0.437652 0
M  V30 3285 C 320.832 1.08999 1.62415 0
M  V30 3286 O 322.038 1.39372 2.32997 0
M  V30 3287 C 320.494 3.50198 0.830025 0
M  V30 3288 C 320.102 4.46765 -0.332461 0
M  V30 3289 C 321.846 3.99526 1.43453 0
M  V30 3290 C 319.753 5.91344 0.0811468 0
M  V30 3291 H 318.683 0.735209 0.167282 0
M  V30 3292 H 321.334 1.81148 -0.292853 0
M  V30 3293 H 319.716 3.61467 1.61734 0
M  V30 3294 H 320.89 4.47231 -1.11 0
M  V30 3295 H 319.205 4.07657 -0.848789 0
M  V30 3296 H 321.802 5.05025 1.75652 0
M  V30 3297 H 322.145 3.44122 2.34277 0
M  V30 3298 H 322.678 3.91393 0.71109 0
M  V30 3299 H 319.417 6.50685 -0.793033 0
M  V30 3300 H 318.937 5.94121 0.823445 0
M  V30 3301 H 320.616 6.44945 0.515252 0
M  V30 3302 N 320.748 -0.0735177 1.57428 0
M  V30 3303 C 321.695 -1.08756 2.0357 0
M  V30 3304 C 322.665 -1.38559 0.916 0
M  V30 3305 O 323.85 -1.49656 1.18354 0
M  V30 3306 C 320.99 -2.39657 2.48311 0
M  V30 3307 C 320.103 -2.16399 3.73892 0
M  V30 3308 C 319.238 -3.40852 4.07423 0
M  V30 3309 C 318.277 -3.1295 5.2605 0
M  V30 3310 N 317.414 -4.29729 5.55228 0
M  V30 3311 H 322.254 -0.687104 2.8997 0
M  V30 3312 H 319.791 -0.327709 1.43403 0
M  V30 3313 H 321.749 -3.16081 2.72303 0
M  V30 3314 H 320.379 -2.77508 1.64891 0
M  V30 3315 H 319.431 -1.30676 3.57251 0
M  V30 3316 H 320.743 -1.91788 4.60455 0
M  V30 3317 H 319.897 -4.25671 4.32306 0
M  V30 3318 H 318.636 -3.68537 3.19425 0
M  V30 3319 H 317.641 -2.26526 5.00965 0
M  V30 3320 H 318.866 -2.86589 6.15665 0
M  V30 3321 H 316.812 -4.57448 4.70188 0
M  V30 3322 H 316.729 -4.08385 6.36206 0
M  V30 3323 H 317.997 -5.1555 5.84661 0
M  V30 3324 N 322.226 -1.5378 -0.344866 0
M  V30 3325 C 323.189 -1.80981 -1.40637 0
M  V30 3326 C 324.189 -0.680816 -1.45676 0
M  V30 3327 O 325.379 -0.949095 -1.46075 0
M  V30 3328 C 322.511 -1.95063 -2.79577 0
M  V30 3329 H 323.704 -2.75803 -1.17783 0
M  V30 3330 H 321.257 -1.45173 -0.579181 0
M  V30 3331 H 321.992 -1.02379 -3.07716 0
M  V30 3332 H 321.777 -2.77198 -2.77315 0
M  V30 3333 H 323.267 -2.17629 -3.56409 0
M  V30 3334 N 323.704 0.605807 -1.45491 0
M  V30 3335 C 324.953 1.36086 -1.48874 0
M  V30 3336 C 325.266 1.95131 -0.135333 0
M  V30 3337 O 326.472 2.7146 -0.0468144 0
M  V30 3338 C 324.928 2.46518 -2.62215 0
M  V30 3339 C 324.536 1.93877 -4.03876 0
M  V30 3340 C 326.28 3.23512 -2.74846 0
M  V30 3341 C 324.187 3.01801 -5.08596 0
M  V30 3342 H 323.117 0.511497 -0.553974 0
M  V30 3343 H 325.768 0.649089 -1.71636 0
M  V30 3344 H 324.15 3.20388 -2.32739 0
M  V30 3345 H 325.324 1.26704 -4.43038 0
M  V30 3346 H 323.639 1.29622 -3.95711 0
M  V30 3347 H 326.236 4.04013 -3.50253 0
M  V30 3348 H 326.579 3.74631 -1.81542 0
M  V30 3349 H 327.112 2.56742 -3.03856 0
M  V30 3350 H 323.851 2.55597 -6.03614 0
M  V30 3351 H 323.371 3.67535 -4.74002 0
M  V30 3352 H 325.05 3.66152 -5.33424 0
M  V30 3353 N 325.182 1.32811 0.848464 0
M  V30 3354 C 326.412 1.26556 1.63301 0
M  V30 3355 C 326.82 -0.1676 1.88456 0
M  V30 3356 O 326.163 -1.11713 1.45828 0
M  V30 3357 C 326.225 1.96202 3.01239 0
M  V30 3358 C 325.889 3.45528 2.99098 0
M  V30 3359 C 326.886 4.40903 2.75501 0
M  V30 3360 C 324.571 3.87558 3.19537 0
M  V30 3361 C 326.565 5.76282 2.72356 0
M  V30 3362 C 324.252 5.23044 3.16019 0
M  V30 3363 C 325.25 6.17217 2.92458 0
M  V30 3364 O 324.938 7.50223 2.88825 0
M  V30 3365 H 324.67 0.43771 0.515156 0
M  V30 3366 H 327.224 1.7559 1.0657 0
M  V30 3367 H 325.454 1.41746 3.59785 0
M  V30 3368 H 327.143 1.83573 3.62016 0
M  V30 3369 H 327.909 4.09756 2.5947 0
M  V30 3370 H 323.788 3.14674 3.369 0
M  V30 3371 H 327.332 6.4976 2.53886 0
M  V30 3372 H 323.229 5.53818 3.31596 0
M  V30 3373 H 323.997 7.59657 3.04735 0
M  V30 3374 N 326.66 -1.06551 1.16123 0
M  V30 3375 C 327.9 -1.80889 0.951766 0
M  V30 3376 C 328.264 -1.85062 -0.511465 0
M  V30 3377 O 329.465 -2.55353 -0.83954 0
M  V30 3378 C 327.736 -3.21609 1.55893 0
M  V30 3379 S 329.295 -4.12593 1.49373 0
M  V30 3380 H 326.113 -0.623156 0.342341 0
M  V30 3381 H 328.715 -1.27943 1.47821 0
M  V30 3382 H 327.419 -3.16165 2.61664 0
M  V30 3383 H 326.95 -3.79631 1.0317 0
M  V30 3384 H 328.965 -4.93753 0.492196 0
M  V30 3385 N 328.138 -0.959301 -1.25041 0
M  V30 3386 C 329.101 -0.487677 -2.23952 0
M  V30 3387 C 330.101 0.41119 -1.55454 0
M  V30 3388 O 331.291 0.207825 -1.72956 0
M  V30 3389 C 328.423 0.294807 -3.39623 0
M  V30 3390 H 329.616 -1.36198 -2.67189 0
M  V30 3391 H 327.169 -0.743042 -1.37508 0
M  V30 3392 H 327.904 1.18658 -3.01813 0
M  V30 3393 H 327.689 -0.35012 -3.90534 0
M  V30 3394 H 329.179 0.614089 -4.1306 0
M  V30 3395 N 329.616 1.39756 -0.72842 0
M  V30 3396 C 330.564 2.32485 -0.0731849 0
M  V30 3397 C 331.558 1.52717 0.733063 0
M  V30 3398 O 332.764 1.68428 0.634988 0
M  V30 3399 H 329.139 0.751984 -0.00486469 0
M  V30 3400 H 331.11 2.85382 -0.871761 0
M  V30 3401 C 329.859 3.37773 0.824908 0
M  V30 3402 H 329.182 3.99227 0.213915 0
M  V30 3403 H 330.622 4.05121 1.25111 0
M  V30 3404 C 329.081 2.74287 1.95622 0
M  V30 3405 O 329.611 2.61618 3.04826 0
M  V30 3406 N 327.817 2.32475 1.74367 0
M  V30 3407 H 327.364 2.4298 0.855494 0
M  V30 3408 H 327.322 1.90337 2.50238 0
M  V30 3409 N 331.094 0.475555 1.50254 0
M  V30 3410 C 332.371 -0.139685 1.95101 0
M  V30 3411 C 332.751 -1.56555 1.41611 0
M  V30 3412 O 332.099 -2.19956 0.618993 0
M  V30 3413 C 332.309 -0.0784298 3.48912 0
M  V30 3414 C 333.657 -0.265095 4.23772 0
M  V30 3415 O 334.681 -0.154808 3.55863 0
M  V30 3416 O 333.54 -0.488327 5.44314 0
M  V30 3417 H 330.634 -0.109236 0.819754 0
M  V30 3418 H 333.18 0.536276 1.61004 0
M  V30 3419 H 331.952 0.916918 3.80405 0
M  V30 3420 H 331.575 -0.795655 3.89558 0
M  V30 3421 N 332.573 -1.56217 0.208337 0
M  V30 3422 C 333.801 -2.02337 -0.43215 0
M  V30 3423 C 334.216 -1.08834 -1.54275 0
M  V30 3424 O 333.573 -0.0955462 -1.8225 0
M  V30 3425 C 333.624 -3.48072 -0.976138 0
M  V30 3426 O 333.345 -4.38007 0.0901621 0
M  V30 3427 C 334.846 -4.09773 -1.69119 0
M  V30 3428 H 332.066 -0.662385 -0.10718 0
M  V30 3429 H 334.61 -2.01966 0.320923 0
M  V30 3430 H 332.765 -3.49099 -1.67954 0
M  V30 3431 H 333.179 -5.23543 -0.316701 0
M  V30 3432 H 334.653 -5.13556 -2.02397 0
M  V30 3433 H 335.13 -3.53999 -2.59964 0
M  V30 3434 H 335.736 -4.12556 -1.03332 0
M  V30 3435 N 334.051 0.0651679 -1.57465 0
M  V30 3436 C 334.984 1.10876 -1.99453 0
M  V30 3437 C 335.962 1.37205 -0.872555 0
M  V30 3438 O 337.146 1.50468 -1.13542 0
M  V30 3439 C 334.273 2.45167 -2.3369 0
M  V30 3440 C 333.319 2.3493 -3.55964 0
M  V30 3441 S 334.152 1.73708 -5.06543 0
M  V30 3442 C 335.308 3.09563 -5.43987 0
M  V30 3443 H 335.541 0.750967 -2.87659 0
M  V30 3444 H 333.074 0.273933 -1.51951 0
M  V30 3445 H 335.032 3.22412 -2.54088 0
M  V30 3446 H 333.693 2.78105 -1.46001 0
M  V30 3447 H 332.886 3.3398 -3.77457 0
M  V30 3448 H 332.488 1.65823 -3.3523 0
M  V30 3449 H 334.78 4.05882 -5.42463 0
M  V30 3450 H 335.723 2.92843 -6.44708 0
M  V30 3451 H 336.131 3.10474 -4.71451 0
M  V30 3452 N 335.529 1.53961 0.336706 0
M  V30 3453 C 336.492 1.81724 1.39675 0
M  V30 3454 C 337.492 0.688532 1.45313 0
M  V30 3455 O 338.682 0.956829 1.45569 0
M  V30 3456 C 335.814 1.96543 2.78538 0
M  V30 3457 H 337.007 2.76424 1.16318 0
M  V30 3458 H 334.56 1.45478 0.571474 0
M  V30 3459 H 335.295 1.0401 3.07168 0
M  V30 3460 H 335.08 2.78665 2.75841 0
M  V30 3461 H 336.57 2.19516 3.5525 0
M  V30 3462 N 337.007 -0.598083 1.45811 0
M  V30 3463 C 337.94 -1.7223 1.49706 0
M  V30 3464 C 338.918 -1.58732 0.352535 0
M  V30 3465 O 340.102 -1.80162 0.554438 0
M  V30 3466 C 337.229 -3.10148 1.3611 0
M  V30 3467 C 336.275 -3.42209 2.54549 0
M  V30 3468 S 337.108 -3.35989 4.16979 0
M  V30 3469 C 338.264 -4.76471 4.05865 0
M  V30 3470 H 338.497 -1.68665 2.44826 0
M  V30 3471 H 336.03 -0.775541 1.33509 0
M  V30 3472 H 337.988 -3.8972 1.28953 0
M  V30 3473 H 336.649 -3.11219 0.424451 0
M  V30 3474 H 335.842 -4.42652 2.40988 0
M  V30 3475 H 335.444 -2.70173 2.58617 0
M  V30 3476 H 337.736 -5.665 3.71596 0
M  V30 3477 H 338.679 -4.95089 5.06253 0
M  V30 3478 H 339.087 -4.52599 3.37364 0
M  V30 3479 N 338.485 -1.33259 -0.841409 0
M  V30 3480 C 339.733 -1.24326 -1.59334 0
M  V30 3481 C 340.054 0.191564 -1.94057 0
M  V30 3482 O 339.324 1.11967 -1.60749 0
M  V30 3483 H 337.904 -0.457174 -0.590763 0
M  V30 3484 H 340.566 -1.66947 -1.00571 0
M  V30 3485 H 339.662 -1.8352 -2.52442 0
M  V30 3486 N 339.963 1.05934 -1.16686 0
M  V30 3487 C 341.209 1.79065 -0.95203 0
M  V30 3488 C 341.542 1.87147 0.518629 0
M  V30 3489 O 340.817 1.36574 1.38484 0
M  V30 3490 C 341.1 3.23359 -1.58464 0
M  V30 3491 C 340.953 3.23336 -3.12689 0
M  V30 3492 C 342.272 4.21004 -1.28232 0
M  V30 3493 H 339.391 0.65005 -0.34728 0
M  V30 3494 H 342.033 1.23868 -1.44072 0
M  V30 3495 H 340.183 3.70493 -1.16908 0
M  V30 3496 H 341.855 2.84336 -3.6325 0
M  V30 3497 H 340.098 2.61886 -3.4583 0
M  V30 3498 H 340.769 4.25144 -3.52075 0
M  V30 3499 H 343.245 3.8233 -1.64203 0
M  V30 3500 H 342.121 5.20225 -1.75092 0
M  V30 3501 H 342.382 4.41639 -0.201791 0
M  V30 3502 N 341.441 0.965919 1.2453 0
M  V30 3503 C 342.404 0.499547 2.2369 0
M  V30 3504 C 343.404 -0.40294 1.5567 0
M  V30 3505 O 344.594 -0.19865 1.73064 0
M  V30 3506 C 341.726 -0.276792 3.39774 0
M  V30 3507 H 342.919 1.37613 2.66463 0
M  V30 3508 H 340.472 0.750324 1.37112 0
M  V30 3509 H 341.207 -1.17055 3.02438 0
M  V30 3510 H 340.992 0.370826 3.90343 0
M  V30 3511 H 342.482 -0.592175 4.1338 0
M  V30 3512 N 342.919 -1.39368 0.735821 0
M  V30 3513 C 343.851 -2.2913 0.0567723 0
M  V30 3514 C 344.864 -1.46859 -0.702589 0
M  V30 3515 O 346.053 -1.69925 -0.546616 0
M  V30 3516 C 343.153 -3.25492 -0.943823 0
M  V30 3517 C 342.326 -4.36709 -0.24581 0
M  V30 3518 C 341.385 -5.13376 -1.15463 0
M  V30 3519 O 340.411 -5.65683 -0.631803 0
M  V30 3520 N 341.613 -5.24656 -2.48427 0
M  V30 3521 H 344.378 -2.88047 0.827582 0
M  V30 3522 H 341.939 -1.50957 0.585112 0
M  V30 3523 H 343.931 -3.73657 -1.55443 0
M  V30 3524 H 342.501 -2.676 -1.61583 0
M  V30 3525 H 341.721 -3.9041 0.545286 0
M  V30 3526 H 343.009 -5.08244 0.237891 0
M  V30 3527 H 342.407 -4.83679 -2.93379 0
M  V30 3528 H 340.964 -5.76258 -3.04582 0
M  V30 3529 N 344.397 -0.483516 -1.5 0
M  V30 3530 C 345.36 0.292965 -2.2732 0
M  V30 3531 C 346.36 0.909499 -1.32608 0
M  V30 3532 O 347.55 0.776745 -1.55924 0
M  V30 3533 C 344.682 1.41854 -3.09984 0
M  V30 3534 H 345.875 -0.385289 -2.97415 0
M  V30 3535 H 343.428 -0.237942 -1.54478 0
M  V30 3536 H 344.163 2.13148 -2.44414 0
M  V30 3537 H 343.948 0.982114 -3.79601 0
M  V30 3538 H 345.438 1.96597 -3.68429 0
M  V30 3539 N 345.875 1.56104 -0.216619 0
M  V30 3540 C 347.121 1.98466 0.417033 0
M  V30 3541 C 347.454 1.10403 1.59765 0
M  V30 3542 O 346.729 0.160632 1.93836 0
M  V30 3543 C 347.012 3.49769 0.85637 0
M  V30 3544 C 346.865 4.48606 -0.327546 0
M  V30 3545 C 348.184 4.05339 1.7143 0
M  V30 3546 H 345.303 0.721551 0.150112 0
M  V30 3547 H 347.945 1.87423 -0.311864 0
M  V30 3548 H 346.095 3.5931 1.47745 0
M  V30 3549 H 347.767 4.5108 -0.965618 0
M  V30 3550 H 346.01 4.22682 -0.975805 0
M  V30 3551 H 346.681 5.51995 0.0227149 0
M  V30 3552 H 349.157 3.98712 1.19031 0
M  V30 3553 H 348.033 5.11533 1.99061 0
M  V30 3554 H 348.294 3.51918 2.67593 0
M  V30 3555 N 347.353 -0.0568162 1.57498 0
M  V30 3556 C 348.316 -1.05038 2.03715 0
M  V30 3557 C 349.316 -1.30709 0.936577 0
M  V30 3558 O 350.506 -1.26178 1.20103 0
M  V30 3559 C 347.638 -2.39034 2.43055 0
M  V30 3560 H 348.831 -0.651715 2.92733 0
M  V30 3561 H 346.384 -0.302947 1.53336 0
M  V30 3562 H 347.119 -2.83703 1.57108 0
M  V30 3563 H 346.904 -2.21739 3.2338 0
M  V30 3564 H 348.394 -3.10421 2.79336 0
M  V30 3565 N 348.832 -1.54138 -0.328536 0
M  V30 3566 C 349.78 -1.83894 -1.42428 0
M  V30 3567 C 350.774 -0.710478 -1.53781 0
M  V30 3568 O 351.98 -0.894062 -1.56226 0
M  V30 3569 H 348.355 -0.582837 -0.475189 0
M  V30 3570 H 350.326 -2.75537 -1.14552 0
M  V30 3571 C 349.075 -2.07866 -2.78724 0
M  V30 3572 H 348.398 -2.94158 -2.7076 0
M  V30 3573 H 349.838 -2.32644 -3.54476 0
M  V30 3574 C 348.297 -0.868689 -3.25508 0
M  V30 3575 O 348.827 -0.0754908 -4.01629 0
M  V30 3576 N 347.033 -0.681711 -2.82491 0
M  V30 3577 H 346.58 -1.32838 -2.20708 0
M  V30 3578 H 346.538 0.126374 -3.14146 0
M  V30 3579 N 350.31 0.590341 -1.46126 0
M  V30 3580 C 351.273 1.68194 -1.55703 0
M  V30 3581 C 352.273 1.54808 -0.434868 0
M  V30 3582 O 353.463 1.59564 -0.698928 0
M  V30 3583 C 350.595 3.07575 -1.47005 0
M  V30 3584 H 351.788 1.61064 -2.52979 0
M  V30 3585 H 349.341 0.807541 -1.33823 0
M  V30 3586 H 350.076 3.20268 -0.509785 0
M  V30 3587 H 349.861 3.187 -2.28414 0
M  V30 3588 H 351.351 3.87055 -1.56776 0
M  V30 3589 N 351.788 1.33704 0.83433 0
M  V30 3590 C 353.036 1.25169 1.58673 0
M  V30 3591 C 353.357 -0.18127 1.94156 0
M  V30 3592 O 352.627 -1.11113 1.6134 0
M  V30 3593 H 351.207 0.4603 0.58833 0
M  V30 3594 H 353.869 1.67478 0.996847 0
M  V30 3595 H 352.965 1.84856 2.51465 0
M  V30 3596 N 353.266 -1.05314 1.17247 0
M  V30 3597 C 354.213 -2.13031 0.888058 0
M  V30 3598 C 355.183 -1.65253 -0.167537 0
M  V30 3599 O 356.368 -1.90775 -0.0305974 0
M  V30 3600 C 353.508 -3.42702 0.406147 0
M  V30 3601 C 352.621 -4.04161 1.52572 0
M  V30 3602 C 351.756 -5.21744 0.997808 0
M  V30 3603 C 350.795 -5.75207 2.09291 0
M  V30 3604 N 349.932 -6.84094 1.57986 0
M  V30 3605 H 354.772 -2.36698 1.81048 0
M  V30 3606 H 352.309 -1.16121 0.903013 0
M  V30 3607 H 354.267 -4.17059 0.108305 0
M  V30 3608 H 352.897 -3.19222 -0.479313 0
M  V30 3609 H 351.949 -3.27253 1.93931 0
M  V30 3610 H 353.261 -4.39881 2.35172 0
M  V30 3611 H 352.415 -6.03168 0.653739 0
M  V30 3612 H 351.154 -4.87495 0.141232 0
M  V30 3613 H 350.159 -4.92414 2.44557 0
M  V30 3614 H 351.384 -6.11505 2.95362 0
M  V30 3615 H 349.33 -6.51745 0.74598 0
M  V30 3616 H 349.247 -7.18811 2.34195 0
M  V30 3617 H 350.515 -7.69172 1.26468 0
M  V30 3618 N 354.744 -0.972509 -1.24016 0
M  V30 3619 C 355.972 -0.654803 -1.96265 0
M  V30 3620 C 356.387 0.776708 -1.72083 0
M  V30 3621 O 355.744 1.52171 -1.00748 0
M  V30 3622 C 355.795 -0.92592 -3.49441 0
M  V30 3623 O 355.516 -2.30116 -3.72798 0
M  V30 3624 C 357.017 -0.623068 -4.38899 0
M  V30 3625 H 354.237 -0.243907 -0.6251 0
M  V30 3626 H 356.781 -1.30175 -1.57717 0
M  V30 3627 H 354.936 -0.325108 -3.86033 0
M  V30 3628 H 355.35 -2.38483 -4.67147 0
M  V30 3629 H 356.824 -0.863189 -5.45209 0
M  V30 3630 H 357.301 0.442754 -4.36963 0
M  V30 3631 H 357.907 -1.204 -4.07902 0
M  V30 3632 N 356.222 1.38976 -0.743202 0
M  V30 3633 C 357.47 1.99948 -0.29417 0
M  V30 3634 C 357.791 1.59279 1.12495 0
M  V30 3635 O 357.061 0.844808 1.76748 0
M  V30 3636 H 355.641 0.739473 -0.105774 0
M  V30 3637 H 358.303 1.699 -0.954986 0
M  V30 3638 H 357.399 3.10142 -0.349056 0
M  V30 3639 N 357.7 0.491464 1.49741 0
M  V30 3640 C 358.647 -0.292027 2.28945 0
M  V30 3641 C 359.617 -0.968973 1.34908 0
M  V30 3642 O 360.802 -0.97748 1.6386 0
M  V30 3643 C 357.942 -1.35617 3.17336 0
M  V30 3644 C 357.055 -0.691957 4.26422 0
M  V30 3645 C 356.19 -1.73572 5.02042 0
M  V30 3646 C 355.229 -1.05286 6.02977 0
M  V30 3647 N 354.366 -2.0404 6.71798 0
M  V30 3648 H 359.206 0.389654 2.95442 0
M  V30 3649 H 356.743 0.204003 1.45679 0
M  V30 3650 H 358.701 -1.98502 3.66951 0
M  V30 3651 H 357.331 -2.00674 2.52844 0
M  V30 3652 H 356.383 0.0499523 3.80367 0
M  V30 3653 H 357.695 -0.153946 4.98562 0
M  V30 3654 H 356.849 -2.43987 5.55478 0
M  V30 3655 H 355.588 -2.30757 4.29654 0
M  V30 3656 H 354.593 -0.334446 5.48782 0
M  V30 3657 H 355.818 -0.487636 6.77347 0
M  V30 3658 H 353.764 -2.60205 6.02187 0
M  V30 3659 H 353.681 -1.55279 7.39881 0
M  V30 3660 H 354.949 -2.73772 7.29842 0
M  V30 3661 N 359.178 -1.55987 0.224894 0
M  V30 3662 C 360.424 -1.98684 -0.406502 0
M  V30 3663 C 360.757 -1.11248 -1.59177 0
M  V30 3664 O 360.032 -0.170909 -1.93748 0
M  V30 3665 C 360.315 -3.50218 -0.837808 0
M  V30 3666 C 360.168 -4.48426 0.351332 0
M  V30 3667 C 361.487 -4.06243 -1.69278 0
M  V30 3668 H 358.606 -0.722337 -0.146283 0
M  V30 3669 H 361.248 -1.87255 0.321799 0
M  V30 3670 H 359.398 -3.60089 -1.45837 0
M  V30 3671 H 361.07 -4.50562 0.989526 0
M  V30 3672 H 359.313 -4.22159 0.998207 0
M  V30 3673 H 359.984 -5.52 0.00655905 0
M  V30 3674 H 362.46 -3.99337 -1.16914 0
M  V30 3675 H 361.336 -5.12581 -1.96346 0
M  V30 3676 H 361.597 -3.53332 -2.65723 0
M  V30 3677 N 360.656 0.0484629 -1.57525 0
M  V30 3678 C 361.586 1.0549 -2.08313 0
M  V30 3679 C 362.567 1.38929 -0.981463 0
M  V30 3680 O 363.752 1.48151 -1.25558 0
M  V30 3681 C 360.882 2.36162 -2.54646 0
M  V30 3682 C 359.836 2.17016 -3.68901 0
M  V30 3683 C 359.162 3.53278 -4.01371 0
M  V30 3684 C 360.462 1.57219 -4.98076 0
M  V30 3685 H 362.156 0.632195 -2.92649 0
M  V30 3686 H 359.702 0.302654 -1.40784 0
M  V30 3687 H 361.655 3.06882 -2.88793 0
M  V30 3688 H 360.379 2.80456 -1.67368 0
M  V30 3689 H 359.038 1.48733 -3.35073 0
M  V30 3690 H 358.686 3.95185 -3.11188 0
M  V30 3691 H 358.386 3.41299 -4.78318 0
M  V30 3692 H 359.91 4.25391 -4.38035 0
M  V30 3693 H 361.324 2.17832 -5.30304 0
M  V30 3694 H 359.721 1.55871 -5.79503 0
M  V30 3695 H 360.791 0.535956 -4.81929 0
M  V30 3696 N 362.134 1.5431 0.320358 0
M  V30 3697 C 363.38 1.72924 1.05949 0
M  V30 3698 C 363.713 0.503185 1.87568 0
M  V30 3699 O 362.988 -0.499839 1.87968 0
M  V30 3700 C 363.271 3.00676 1.98156 0
M  V30 3701 C 363.124 4.3354 1.19845 0
M  V30 3702 C 364.443 3.24198 2.9763 0
M  V30 3703 H 361.562 0.629195 0.383774 0
M  V30 3704 H 364.204 1.87008 0.335854 0
M  V30 3705 H 362.354 2.888 2.59859 0
M  V30 3706 H 364.026 4.57305 0.605773 0
M  V30 3707 H 362.269 4.309 0.500784 0
M  V30 3708 H 362.94 5.19156 1.87567 0
M  V30 3709 H 365.416 3.35557 2.4605 0
M  V30 3710 H 364.292 4.14938 3.59329 0
M  V30 3711 H 364.553 2.41577 3.7026 0
M  V30 3712 N 363.613 -0.582584 1.46437 0
M  V30 3713 C 364.859 -1.34278 1.51978 0
M  V30 3714 C 365.192 -1.93446 0.170973 0
M  V30 3715 O 364.467 -1.76481 -0.817608 0
M  V30 3716 C 364.75 -2.47203 2.61845 0
M  V30 3717 C 364.603 -1.93069 4.06257 0
M  V30 3718 C 365.922 -3.49247 2.67795 0
M  V30 3719 H 363.041 -0.486876 0.553282 0
M  V30 3720 H 365.683 -0.654437 1.78374 0
M  V30 3721 H 363.833 -3.0592 2.39469 0
M  V30 3722 H 365.505 -1.38808 4.3992 0
M  V30 3723 H 363.748 -1.23898 4.1573 0
M  V30 3724 H 364.419 -2.74586 4.7886 0
M  V30 3725 H 366.895 -3.00411 2.8791 0
M  V30 3726 H 365.771 -4.25719 3.46489 0
M  V30 3727 H 366.032 -4.06482 1.73852 0
M  V30 3728 N 365.091 -1.34144 -0.827227 0
M  V30 3729 C 366.339 -1.26009 -1.58007 0
M  V30 3730 C 366.66 0.170971 -1.94249 0
M  V30 3731 O 365.93 1.10256 -1.61927 0
M  V30 3732 H 364.51 -0.463414 -0.585881 0
M  V30 3733 H 367.172 -1.68005 -0.987951 0
M  V30 3734 H 366.268 -1.86187 -2.50481 0
M  V30 3735 N 366.569 1.04691 -1.17803 0
M  V30 3736 C 367.797 1.81446 -0.99423 0
M  V30 3737 C 368.212 1.83174 0.457459 0
M  V30 3738 O 367.569 1.26265 1.31771 0
M  V30 3739 C 367.62 3.27334 -1.5341 0
M  V30 3740 O 367.341 3.25798 -2.92895 0
M  V30 3741 C 368.842 4.20759 -1.39559 0
M  V30 3742 H 366.062 0.571599 -0.351447 0
M  V30 3743 H 368.606 1.31982 -1.56208 0
M  V30 3744 H 366.761 3.74052 -1.00815 0
M  V30 3745 H 367.175 4.17144 -3.17949 0
M  V30 3746 H 368.649 5.21084 -1.82141 0
M  V30 3747 H 369.126 4.37856 -0.343394 0
M  V30 3748 H 369.732 3.79901 -1.91195 0
M  V30 3749 N 368.047 0.979072 1.23499 0
M  V30 3750 C 369.324 0.563674 1.87302 0
M  V30 3751 C 369.704 -0.959199 1.88049 0
M  V30 3752 O 369.052 -1.83535 1.36114 0
M  V30 3753 C 369.262 1.16822 3.28867 0
M  V30 3754 C 370.61 1.26014 4.0547 0
M  V30 3755 O 371.634 1.12158 3.38082 0
M  V30 3756 O 370.493 1.48044 5.26066 0
M  V30 3757 H 367.587 0.189602 0.804972 0
M  V30 3758 H 370.133 1.07407 1.31384 0
M  V30 3759 H 368.905 2.21049 3.22883 0
M  V30 3760 H 368.528 0.642564 3.92373 0
M  V30 3761 N 369.525 -1.3858 0.750561 0
M  V30 3762 C 370.773 -1.99789 0.30477 0
M  V30 3763 C 371.094 -1.59874 -1.11649 0
M  V30 3764 O 370.364 -0.85417 -1.76297 0
M  V30 3765 H 368.944 -0.738902 0.109694 0
M  V30 3766 H 371.606 -1.69391 0.963983 0
M  V30 3767 H 370.702 -3.09952 0.365499 0
M  V30 3768 N 371.003 -0.499398 -1.49478 0
M  V30 3769 C 372.252 0.0475259 -2.01644 0
M  V30 3770 C 372.565 1.38195 -1.38425 0
M  V30 3771 O 373.771 2.01547 -1.8191 0
M  V30 3772 C 372.227 0.135164 -3.59646 0
M  V30 3773 C 371.835 -1.19252 -4.31837 0
M  V30 3774 C 373.579 0.632538 -4.19761 0
M  V30 3775 C 371.486 -1.06713 -5.81693 0
M  V30 3776 H 370.416 0.0215349 -0.753692 0
M  V30 3777 H 373.067 -0.638577 -1.7203 0
M  V30 3778 H 371.449 0.885681 -3.85969 0
M  V30 3779 H 372.623 -1.9562 -4.17216 0
M  V30 3780 H 370.938 -1.62321 -3.83459 0
M  V30 3781 H 373.535 0.743833 -5.29501 0
M  V30 3782 H 373.878 1.63098 -3.83021 0
M  V30 3783 H 374.411 -0.0613987 -3.97753 0
M  V30 3784 H 371.15 -2.03979 -6.22955 0
M  V30 3785 H 370.67 -0.344307 -5.98811 0
M  V30 3786 H 372.349 -0.745208 -6.42694 0
M  V30 3787 N 372.481 1.55866 -0.233164 0
M  V30 3788 C 373.892 1.847 0.272554 0
M  V30 3789 C 374.243 1.15477 1.58617 0
M  V30 3790 O 373.368 0.42841 2.12117 0
M  V30 3791 C 373.963 3.35071 0.501299 0
M  V30 3792 C 372.522 3.6418 0.951304 0
M  V30 3793 C 371.669 2.77292 0.0208209 0
M  V30 3794 H 374.62 1.52005 -0.456074 0
M  V30 3795 H 374.641 3.55906 1.34577 0
M  V30 3796 H 374.153 3.85424 -0.454936 0
M  V30 3797 H 372.254 3.19293 1.92049 0
M  V30 3798 H 372.367 4.72071 0.817675 0
M  V30 3799 H 370.731 2.49131 0.529723 0
M  V30 3800 H 371.514 3.30448 -0.93054 0
M  V30 3801 N 373.959 -0.0401083 1.57549 0
M  V30 3802 C 374.869 -1.06133 2.0922 0
M  V30 3803 C 375.885 -1.40356 1.0284 0
M  V30 3804 O 377.061 -1.49897 1.34509 0
M  V30 3805 C 374.126 -2.34658 2.55218 0
M  V30 3806 C 373.187 -2.07117 3.76033 0
M  V30 3807 C 372.42 -3.29514 4.19829 0
M  V30 3808 O 372.643 -4.39794 3.63232 0
M  V30 3809 O 371.577 -3.15863 5.12362 0
M  V30 3810 H 375.403 -0.652244 2.96613 0
M  V30 3811 H 372.988 -0.256368 1.47184 0
M  V30 3812 H 374.87 -3.10239 2.85184 0
M  V30 3813 H 373.545 -2.74883 1.70941 0
M  V30 3814 H 372.452 -1.29139 3.51104 0
M  V30 3815 H 373.785 -1.71754 4.61261 0
M  V30 3816 N 375.437 -1.54477 -0.31217 0
M  V30 3817 C 376.4 -1.83923 -1.36766 0
M  V30 3818 C 377.4 -0.711563 -1.44199 0
M  V30 3819 O 378.59 -0.979866 -1.44029 0
M  V30 3820 C 375.722 -2.0095 -2.75376 0
M  V30 3821 H 376.915 -2.78239 -1.11906 0
M  V30 3822 H 374.468 -1.46369 -0.548257 0
M  V30 3823 H 375.203 -1.08883 -3.05475 0
M  V30 3824 H 374.988 -2.83018 -2.71373 0
M  V30 3825 H 376.478 -2.2514 -3.51713 0
M  V30 3826 N 376.915 0.57481 -1.46744 0
M  V30 3827 C 378.331 0.898981 -1.31873 0
M  V30 3828 C 378.531 1.99313 -0.29605 0
M  V30 3829 O 377.587 2.50728 0.298621 0
M  V30 3830 C 378.9 1.30886 -2.7072 0
M  V30 3831 C 380.448 1.42127 -2.78871 0
M  V30 3832 C 380.923 1.86478 -4.18318 0
M  V30 3833 N 382.414 1.93658 -4.20774 0
M  V30 3834 C 383.149 2.29267 -5.2557 0
M  V30 3835 N 382.645 2.63612 -6.40688 0
M  V30 3836 N 384.438 2.29889 -5.1294 0
M  V30 3837 H 376.589 -0.147839 -2.11885 0
M  V30 3838 H 378.852 -0.00347013 -0.947994 0
M  V30 3839 H 378.558 0.578853 -3.46904 0
M  V30 3840 H 378.432 2.26874 -3.01343 0
M  V30 3841 H 380.819 2.14213 -2.0297 0
M  V30 3842 H 380.9 0.443705 -2.51922 0
M  V30 3843 H 380.544 1.14968 -4.94717 0
M  V30 3844 H 380.474 2.85207 -4.42679 0
M  V30 3845 H 382.965 1.69574 -3.37718 0
M  V30 3846 H 383.278 2.89759 -7.16421 0
M  V30 3847 H 381.623 2.61232 -6.44036 0
M  V30 3848 H 384.814 2.02485 -4.22039 0
M  V30 3849 H 384.987 2.57312 -5.94722 0
M  V30 3850 N 378.394 1.34581 0.820102 0
M  V30 3851 C 379.341 1.2639 1.93117 0
M  V30 3852 C 380.311 0.138554 1.65521 0
M  V30 3853 O 381.496 0.320004 1.88097 0
M  V30 3854 C 378.636 1.02812 3.29429 0
M  V30 3855 C 377.749 2.24146 3.693 0
M  V30 3856 C 376.884 1.93829 4.94574 0
M  V30 3857 C 375.923 3.1129 5.27034 0
M  V30 3858 N 375.06 2.80838 6.43486 0
M  V30 3859 H 379.9 2.21408 1.99455 0
M  V30 3860 H 377.437 1.10077 0.975784 0
M  V30 3861 H 379.395 0.871788 4.0799 0
M  V30 3862 H 378.025 0.114612 3.22596 0
M  V30 3863 H 377.077 2.50691 2.86109 0
M  V30 3864 H 378.389 3.11899 3.89257 0
M  V30 3865 H 377.543 1.74948 5.80929 0
M  V30 3866 H 376.282 1.03341 4.76626 0
M  V30 3867 H 375.287 3.30764 4.39175 0
M  V30 3868 H 376.512 4.02561 5.4692 0
M  V30 3869 H 374.458 1.92929 6.26988 0
M  V30 3870 H 374.375 3.62123 6.63629 0
M  V30 3871 H 375.643 2.65467 7.32903 0
M  V30 3872 N 379.872 -1.04064 1.18357 0
M  V30 3873 C 380.805 -2.11618 0.854 0
M  V30 3874 C 381.783 -1.61555 -0.184043 0
M  V30 3875 O 382.967 -1.88395 -0.0630048 0
M  V30 3876 C 380.094 -3.37574 0.27597 0
M  V30 3877 C 379.14 -4.06485 1.2912 0
M  V30 3878 S 379.973 -4.53543 2.84709 0
M  V30 3879 C 381.129 -5.82732 2.28417 0
M  V30 3880 H 381.362 -2.39247 1.76488 0
M  V30 3881 H 378.895 -1.16832 1.00944 0
M  V30 3882 H 380.853 -4.10468 -0.051026 0
M  V30 3883 H 379.514 -3.0806 -0.613028 0
M  V30 3884 H 378.707 -4.97024 0.835633 0
M  V30 3885 H 378.309 -3.39708 1.56443 0
M  V30 3886 H 380.601 -6.56677 1.66677 0
M  V30 3887 H 381.544 -6.33052 3.17256 0
M  V30 3888 H 381.952 -5.37838 1.71436 0
M  V30 3889 N 381.35 -0.985608 -1.22978 0
M  V30 3890 C 382.596 -0.65836 -1.91816 0
M  V30 3891 C 382.929 0.806692 -1.76653 0
M  V30 3892 O 382.204 1.58252 -1.13078 0
M  V30 3893 C 382.487 -1.056 -3.44268 0
M  V30 3894 C 382.34 -2.57906 -3.68516 0
M  V30 3895 C 383.659 -0.603781 -4.35939 0
M  V30 3896 H 380.778 -0.24065 -0.696604 0
M  V30 3897 H 383.42 -1.22783 -1.44998 0
M  V30 3898 H 381.57 -0.571445 -3.84274 0
M  V30 3899 H 383.242 -3.13976 -3.3796 0
M  V30 3900 H 381.485 -3.00305 -3.13048 0
M  V30 3901 H 382.156 -2.80779 -4.75255 0
M  V30 3902 H 384.632 -1.01987 -4.03408 0
M  V30 3903 H 383.508 -0.910383 -5.41298 0
M  V30 3904 H 383.769 0.495761 -4.39312 0
M  V30 3905 N 382.828 1.3818 -0.7579 0
M  V30 3906 C 383.738 2.3421 -0.135247 0
M  V30 3907 C 384.754 1.59487 0.695683 0
M  V30 3908 O 385.93 1.91657 0.618832 0
M  V30 3909 C 382.995 3.3862 0.744139 0
M  V30 3910 C 382.056 4.2918 -0.101658 0
M  V30 3911 C 381.289 5.28603 0.735851 0
M  V30 3912 O 381.512 5.35166 1.97366 0
M  V30 3913 O 380.446 6.01707 0.152372 0
M  V30 3914 H 384.272 2.8916 -0.928436 0
M  V30 3915 H 381.857 1.40101 -0.518855 0
M  V30 3916 H 383.739 4.02539 1.2466 0
M  V30 3917 H 382.414 2.86019 1.51575 0
M  V30 3918 H 381.321 3.68407 -0.650167 0
M  V30 3919 H 382.654 4.85048 -0.836024 0
M  V30 3920 N 384.306 0.507319 1.49211 0
M  V30 3921 C 385.269 -0.256763 2.27757 0
M  V30 3922 C 386.269 -0.888287 1.34038 0
M  V30 3923 O 387.459 -0.751841 1.5714 0
M  V30 3924 C 384.591 -1.36905 3.12202 0
M  V30 3925 H 385.784 0.432557 2.96764 0
M  V30 3926 H 383.337 0.262488 1.5408 0
M  V30 3927 H 384.072 -2.09233 2.47775 0
M  V30 3928 H 383.857 -0.921599 3.81115 0
M  V30 3929 H 385.347 -1.9071 3.7151 0
M  V30 3930 N 385.784 -1.5574 0.241426 0
M  V30 3931 C 387.032 -1.98417 -0.384075 0
M  V30 3932 C 387.353 -1.13078 -1.58866 0
M  V30 3933 O 386.623 -0.212312 -1.94746 0
M  V30 3934 H 385.203 -0.732813 -0.144894 0
M  V30 3935 H 387.865 -1.9193 0.338943 0
M  V30 3936 H 386.961 -3.04219 -0.696939 0
M  V30 3937 N 387.262 0.0317525 -1.57568 0
M  V30 3938 C 388.194 1.06073 -2.03178 0
M  V30 3939 C 389.207 1.32627 -0.944132 0
M  V30 3940 O 390.396 1.30162 -1.22148 0
M  V30 3941 C 387.496 2.40297 -2.38978 0
M  V30 3942 C 386.669 2.33137 -3.70089 0
M  V30 3943 C 385.728 3.49787 -3.9311 0
M  V30 3944 O 384.754 3.29403 -4.64201 0
M  V30 3945 N 385.956 4.71562 -3.38541 0
M  V30 3946 H 388.721 0.672006 -2.92069 0
M  V30 3947 H 386.282 0.219745 -1.60402 0
M  V30 3948 H 388.274 3.1705 -2.51518 0
M  V30 3949 H 386.844 2.71024 -1.55771 0
M  V30 3950 H 386.064 1.415 -3.67928 0
M  V30 3951 H 387.352 2.25493 -4.56104 0
M  V30 3952 H 386.75 4.91024 -2.80912 0
M  V30 3953 H 385.307 5.45689 -3.56464 0
M  V30 3954 N 388.74 1.54641 0.303973 0
M  V30 3955 C 389.673 1.80263 1.3993 0
M  V30 3956 C 390.651 0.653657 1.48883 0
M  V30 3957 O 391.835 0.893284 1.6599 0
M  V30 3958 C 388.962 1.9367 2.77866 0
M  V30 3959 C 388.008 3.16078 2.86351 0
M  V30 3960 S 388.841 4.74219 2.4875 0
M  V30 3961 C 389.997 4.90558 3.88721 0
M  V30 3962 H 390.23 2.72886 1.17986 0
M  V30 3963 H 387.763 1.46014 0.501918 0
M  V30 3964 H 389.721 2.0208 3.57315 0
M  V30 3965 H 388.382 1.01991 2.9708 0
M  V30 3966 H 387.575 3.22252 3.87517 0
M  V30 3967 H 387.177 3.06099 2.14893 0
M  V30 3968 H 389.469 4.74398 4.83687 0
M  V30 3969 H 390.412 5.92651 3.87518 0
M  V30 3970 H 390.82 4.18728 3.78585 0
M  V30 3971 N 390.218 -0.567019 1.47046 0
M  V30 3972 C 391.446 -1.35027 1.56765 0
M  V30 3973 C 391.861 -1.8758 0.214316 0
M  V30 3974 O 391.218 -1.64471 -0.790919 0
M  V30 3975 C 391.269 -2.52698 2.58507 0
M  V30 3976 O 390.99 -2.0232 3.88585 0
M  V30 3977 C 392.491 -3.45043 2.78316 0
M  V30 3978 H 389.711 -0.41195 0.529658 0
M  V30 3979 H 392.255 -0.687832 1.92585 0
M  V30 3980 H 390.41 -3.149 2.25648 0
M  V30 3981 H 390.824 -2.79068 4.44096 0
M  V30 3982 H 392.298 -4.2405 3.53391 0
M  V30 3983 H 392.775 -3.97971 1.85784 0
M  V30 3984 H 393.381 -2.88665 3.12334 0
M  V30 3985 N 391.696 -1.35014 -0.812953 0
M  V30 3986 C 392.659 -1.27292 -1.90602 0
M  V30 3987 C 393.659 -0.185817 -1.59723 0
M  V30 3988 O 394.849 -0.439102 -1.68575 0
M  V30 3989 C 391.981 -0.967676 -3.26877 0
M  V30 3990 H 393.174 -2.24479 -1.9887 0
M  V30 3991 H 390.727 -1.19446 -1.00808 0
M  V30 3992 H 391.462 0.0005954 -3.243 0
M  V30 3993 H 391.247 -1.75412 -3.50675 0
M  V30 3994 H 392.737 -0.939085 -4.06904 0
M  V30 3995 N 393.175 1.03435 -1.18907 0
M  V30 3996 C 394.403 1.80381 -1.01342 0
M  V30 3997 C 394.818 1.83649 0.438005 0
M  V30 3998 O 394.175 1.27655 1.30424 0
M  V30 3999 C 394.226 3.25689 -1.56873 0
M  V30 4000 O 393.947 3.22673 -2.96334 0
M  V30 4001 C 395.448 4.19255 -1.44014 0
M  V30 4002 H 392.668 0.56784 -0.35749 0
M  V30 4003 H 395.212 1.30317 -1.576 0
M  V30 4004 H 393.367 3.72962 -1.04777 0
M  V30 4005 H 393.781 4.13748 -3.22355 0
M  V30 4006 H 395.255 5.19123 -1.87657 0
M  V30 4007 H 395.732 4.37467 -0.389815 0
M  V30 4008 H 396.338 3.77851 -1.95214 0
M  V30 4009 N 394.653 0.992116 1.22453 0
M  V30 4010 C 395.899 0.668523 1.91464 0
M  V30 4011 C 396.232 -0.797313 1.77078 0
M  V30 4012 O 395.507 -1.5765 1.13916 0
M  V30 4013 C 395.79 1.07424 3.43703 0
M  V30 4014 C 395.643 2.59857 3.67143 0
M  V30 4015 C 396.962 0.626891 4.35612 0
M  V30 4016 H 394.081 0.244341 0.695318 0
M  V30 4017 H 396.723 1.2355 1.44345 0
M  V30 4018 H 394.873 0.591816 3.83966 0
M  V30 4019 H 396.545 3.15764 3.3629 0
M  V30 4020 H 394.788 3.01961 3.11451 0
M  V30 4021 H 395.459 2.83296 4.73759 0
M  V30 4022 H 397.935 1.04125 4.02861 0
M  V30 4023 H 396.811 0.939076 5.40807 0
M  V30 4024 H 397.072 -0.472457 4.39568 0
M  V30 4025 N 396.131 -1.37776 0.765217 0
M  V30 4026 C 397.094 -2.28686 0.153416 0
M  V30 4027 C 398.094 -1.47727 -0.635081 0
M  V30 4028 O 399.284 -1.68027 -0.459632 0
M  V30 4029 C 396.416 -3.31608 -0.790495 0
M  V30 4030 H 397.609 -2.84297 0.954723 0
M  V30 4031 H 395.162 -1.46932 0.53299 0
M  V30 4032 H 395.897 -2.81109 -1.61705 0
M  V30 4033 H 395.682 -3.9144 -0.227348 0
M  V30 4034 H 397.172 -3.99559 -1.21419 0
M  V30 4035 N 397.609 -0.515225 -1.4894 0
M  V30 4036 C 398.541 0.292481 -2.27326 0
M  V30 4037 C 399.554 0.917838 -1.3446 0
M  V30 4038 O 400.743 0.798772 -1.5963 0
M  V30 4039 C 397.843 1.42803 -3.07344 0
M  V30 4040 C 397.016 0.907347 -4.27885 0
M  V30 4041 C 396.075 1.92222 -4.89834 0
M  V30 4042 O 395.101 1.48506 -5.49486 0
M  V30 4043 N 396.303 3.25355 -4.80754 0
M  V30 4044 H 399.068 -0.379721 -2.97285 0
M  V30 4045 H 396.629 -0.348638 -1.58102 0
M  V30 4046 H 398.621 2.10481 -3.45658 0
M  V30 4047 H 397.191 2.00414 -2.39902 0
M  V30 4048 H 396.411 0.0550218 -3.94162 0
M  V30 4049 H 397.699 0.538108 -5.05946 0
M  V30 4050 H 397.097 3.6355 -4.33414 0
M  V30 4051 H 395.654 3.88707 -5.23211 0
M  V30 4052 N 399.087 1.5561 -0.249682 0
M  V30 4053 C 400.035 2.22894 0.664906 0
M  V30 4054 C 401.029 1.21743 1.17792 0
M  V30 4055 O 402.235 1.39748 1.13449 0
M  V30 4056 H 398.61 0.715022 0.232912 0
M  V30 4057 H 400.581 2.98307 0.0742998 0
M  V30 4058 C 399.33 2.94424 1.84959 0
M  V30 4059 H 398.653 3.72031 1.46399 0
M  V30 4060 H 400.093 3.44862 2.4667 0
M  V30 4061 C 398.552 1.98454 2.72245 0
M  V30 4062 O 399.082 1.51939 3.71857 0
M  V30 4063 N 397.288 1.65496 2.38871 0
M  V30 4064 H 396.835 2.03517 1.57919 0
M  V30 4065 H 396.793 1.0155 2.97548 0
M  V30 4066 N 400.565 -0.0233959 1.57583 0
M  V30 4067 C 401.976 -0.56927 1.77809 0
M  V30 4068 C 402.327 -1.75284 0.881472 0
M  V30 4069 O 401.452 -2.1626 0.0777805 0
M  V30 4070 C 402.047 -1.03949 3.22459 0
M  V30 4071 C 400.606 -1.53084 3.43864 0
M  V30 4072 C 399.753 -0.471454 2.73263 0
M  V30 4073 H 402.704 0.202825 1.57399 0
M  V30 4074 H 402.725 -1.90661 3.29285 0
M  V30 4075 H 402.237 -0.177865 3.87692 0
M  V30 4076 H 400.338 -2.41414 2.83814 0
M  V30 4077 H 400.451 -1.57443 4.52491 0
M  V30 4078 H 398.815 -0.927788 2.37201 0
M  V30 4079 H 399.598 0.380808 3.41181 0
M  V30 4080 N 402.043 -1.548 -0.295768 0
M  V30 4081 C 403.006 -1.85363 -1.34808 0
M  V30 4082 C 404.006 -0.726817 -1.43436 0
M  V30 4083 O 405.196 -0.995088 -1.42981 0
M  V30 4084 C 402.328 -2.03859 -2.73229 0
M  V30 4085 H 403.521 -2.7941 -1.08949 0
M  V30 4086 H 401.074 -1.46942 -0.532702 0
M  V30 4087 H 401.809 -1.12117 -3.04303 0
M  V30 4088 H 401.594 -2.8588 -2.68356 0
M  V30 4089 H 403.084 -2.28857 -3.49305 0
M  V30 4090 N 403.521 0.559213 -1.47345 0
M  V30 4091 C 404.798 1.31997 -1.44348 0
M  V30 4092 C 405.178 2.1064 -0.139358 0
M  V30 4093 O 404.526 2.1091 0.879153 0
M  V30 4094 C 404.736 2.22618 -2.68779 0
M  V30 4095 C 406.084 2.83701 -3.1591 0
M  V30 4096 O 407.108 2.32921 -2.69493 0
M  V30 4097 O 405.967 3.75993 -3.966 0
M  V30 4098 H 403.061 0.594251 -0.575147 0
M  V30 4099 H 405.607 0.578282 -1.59543 0
M  V30 4100 H 404.379 1.64093 -3.55231 0
M  V30 4101 H 404.002 3.04085 -2.5616 0
M  V30 4102 N 404.999 1.35443 0.805782 0
M  V30 4103 C 406.248 1.28097 1.55801 0
M  V30 4104 C 406.561 -0.142428 1.95081 0
M  V30 4105 O 407.767 -0.33817 2.69386 0
M  V30 4106 C 406.223 2.24653 2.81174 0
M  V30 4107 C 405.831 3.72342 2.49129 0
M  V30 4108 C 407.575 2.2625 3.59181 0
M  V30 4109 C 405.482 4.60719 3.70799 0
M  V30 4110 H 404.412 0.475937 0.584808 0
M  V30 4111 H 407.063 1.60712 0.885661 0
M  V30 4112 H 405.445 1.85011 3.50124 0
M  V30 4113 H 406.619 4.20624 1.88181 0
M  V30 4114 H 404.934 3.73361 1.84366 0
M  V30 4115 H 407.531 2.89495 4.49552 0
M  V30 4116 H 407.874 1.26647 3.96568 0
M  V30 4117 H 408.407 2.64426 2.97193 0
M  V30 4118 H 405.146 5.61324 3.3852 0
M  V30 4119 H 404.666 4.17163 4.3097 0
M  V30 4120 H 406.345 4.76182 4.38018 0
M  V30 4121 N 406.477 -1.02803 1.19454 0
M  V30 4122 C 407.725 -1.75869 0.995722 0
M  V30 4123 C 408.046 -1.89138 -0.474543 0
M  V30 4124 O 407.316 -1.42558 -1.34366 0
M  V30 4125 H 405.896 -0.651511 0.365435 0
M  V30 4126 H 408.558 -1.24004 1.50363 0
M  V30 4127 H 407.654 -2.76661 1.44447 0
M  V30 4128 N 407.956 -0.998596 -1.21925 0
M  V30 4129 C 408.919 -0.558679 -2.22287 0
M  V30 4130 C 409.919 0.361525 -1.56683 0
M  V30 4131 O 411.109 0.152695 -1.73529 0
M  V30 4132 C 408.241 0.18661 -3.40389 0
M  V30 4133 H 409.434 -1.4463 -2.62721 0
M  V30 4134 H 406.987 -0.786413 -1.35075 0
M  V30 4135 H 407.722 1.08996 -3.05435 0
M  V30 4136 H 407.507 -0.474188 -3.89222 0
M  V30 4137 H 408.997 0.482367 -4.14805 0
M  V30 4138 N 409.434 1.37368 -0.772513 0
M  V30 4139 C 410.662 2.03942 -0.348588 0
M  V30 4140 C 411.077 1.58264 1.02947 0
M  V30 4141 O 410.434 0.764246 1.65727 0
M  V30 4142 C 410.485 3.5946 -0.38351 0
M  V30 4143 O 410.206 4.03468 -1.70721 0
M  V30 4144 C 411.707 4.4327 0.0519152 0
M  V30 4145 H 408.927 0.654931 -0.145966 0
M  V30 4146 H 411.471 1.75686 -1.04665 0
M  V30 4147 H 409.626 3.86486 0.265978 0
M  V30 4148 H 410.04 4.97991 -1.64636 0
M  V30 4149 H 411.514 5.51995 -0.0236733 0
M  V30 4150 H 411.991 4.2514 1.10238 0
M  V30 4151 H 412.597 4.21471 -0.569415 0
M  V30 4152 N 410.912 0.523116 1.48665 0
M  V30 4153 C 412.16 -0.0134497 2.02096 0
M  V30 4154 C 412.481 -1.35418 1.40311 0
M  V30 4155 O 411.751 -1.87543 0.566074 0
M  V30 4156 H 410.331 -0.00795915 0.746958 0
M  V30 4157 H 412.993 0.685388 1.82451 0
M  V30 4158 H 412.089 -0.126849 3.11842 0
M  V30 4159 N 412.39 -1.55475 0.257931 0
M  V30 4160 C 413.32 -2.24815 -0.630912 0
M  V30 4161 C 414.301 -1.23224 -1.17259 0
M  V30 4162 O 415.486 -1.51904 -1.20991 0
M  V30 4163 C 412.616 -2.95609 -1.82298 0
M  V30 4164 C 411.57 -4.03982 -1.41359 0
M  V30 4165 C 410.896 -4.6226 -2.68738 0
M  V30 4166 C 412.196 -5.19109 -0.57648 0
M  V30 4167 H 413.89 -2.99354 -0.0526878 0
M  V30 4168 H 411.436 -1.4398 -0.023901 0
M  V30 4169 H 413.389 -3.42822 -2.45054 0
M  V30 4170 H 412.113 -2.18577 -2.42676 0
M  V30 4171 H 410.772 -3.57555 -0.809324 0
M  V30 4172 H 410.42 -3.81915 -3.27338 0
M  V30 4173 H 410.12 -5.35424 -2.42065 0
M  V30 4174 H 411.644 -5.12212 -3.32372 0
M  V30 4175 H 413.058 -5.62479 -1.10861 0
M  V30 4176 H 411.455 -5.98729 -0.405351 0
M  V30 4177 H 412.525 -4.83174 0.408776 0
M  V30 4178 N 413.868 0.0150385 -1.57593 0
M  V30 4179 C 414.815 1.01126 -2.07466 0
M  V30 4180 C 415.785 1.35064 -0.966794 0
M  V30 4181 O 416.97 1.4516 -1.23827 0
M  V30 4182 C 414.11 2.30276 -2.57035 0
M  V30 4183 C 413.223 2.02373 -3.81666 0
M  V30 4184 C 412.358 3.25496 -4.19793 0
M  V30 4185 C 411.397 2.93211 -5.37303 0
M  V30 4186 N 410.534 4.08826 -5.70794 0
M  V30 4187 H 415.374 0.57901 -2.92321 0
M  V30 4188 H 412.911 0.27426 -1.44521 0
M  V30 4189 H 414.869 3.05757 -2.83846 0
M  V30 4190 H 413.499 2.71197 -1.75077 0
M  V30 4191 H 412.551 1.17327 -3.61854 0
M  V30 4192 H 413.863 1.74567 -4.67256 0
M  V30 4193 H 413.017 4.09333 -4.47807 0
M  V30 4194 H 411.756 3.56428 -3.32882 0
M  V30 4195 H 410.761 2.07777 -5.09027 0
M  V30 4196 H 411.986 2.63542 -6.25877 0
M  V30 4197 H 409.932 4.39682 -4.86842 0
M  V30 4198 H 409.849 3.84491 -6.50924 0
M  V30 4199 H 411.117 4.93496 -6.03392 0
M  V30 4200 N 415.346 1.54954 0.287554 0
M  V30 4201 C 416.276 1.89839 1.35954 0
M  V30 4202 C 417.257 0.758675 1.52244 0
M  V30 4203 O 418.442 1.01557 1.65529 0
M  V30 4204 C 415.572 2.15753 2.72154 0
M  V30 4205 C 414.526 3.3159 2.70614 0
M  V30 4206 C 413.852 3.42952 4.10229 0
M  V30 4207 C 415.152 4.68359 2.31165 0
M  V30 4208 H 416.846 2.79625 1.07007 0
M  V30 4209 H 414.392 1.3454 0.513316 0
M  V30 4210 H 416.345 2.38743 3.47246 0
M  V30 4211 H 415.069 1.22752 3.02654 0
M  V30 4212 H 413.728 3.08545 1.97979 0
M  V30 4213 H 413.376 2.47443 4.37928 0
M  V30 4214 H 413.076 4.20826 4.10097 0
M  V30 4215 H 414.6 3.68218 4.87081 0
M  V30 4216 H 416.014 4.9099 2.95976 0
M  V30 4217 H 414.411 5.49044 2.42221 0
M  V30 4218 H 415.481 4.68165 1.26291 0
M  V30 4219 N 416.824 -0.551391 1.4764 0
M  V30 4220 C 417.757 -1.6738 1.5511 0
M  V30 4221 C 418.735 -1.5753 0.402856 0
M  V30 4222 O 419.919 -1.78307 0.611475 0
M  V30 4223 C 417.046 -3.05661 1.45908 0
M  V30 4224 C 416.092 -3.33938 2.65307 0
M  V30 4225 S 416.925 -3.22553 4.27457 0
M  V30 4226 C 418.081 -4.63317 4.20818 0
M  V30 4227 H 418.314 -1.6079 2.50068 0
M  V30 4228 H 415.847 -0.732674 1.35909 0
M  V30 4229 H 417.805 -3.8542 1.41286 0
M  V30 4230 H 416.466 -3.09711 0.523248 0
M  V30 4231 H 415.659 -4.34761 2.54948 0
M  V30 4232 H 415.261 -2.61809 2.67081 0
M  V30 4233 H 417.553 -5.54391 3.89431 0
M  V30 4234 H 418.496 -4.78732 5.21748 0
M  V30 4235 H 418.904 -4.41636 3.51593 0
M  V30 4236 N 418.302 -1.35869 -0.798587 0
M  V30 4237 C 419.548 -1.2978 -1.55836 0
M  V30 4238 C 419.881 0.125322 -1.93795 0
M  V30 4239 O 419.156 1.07658 -1.61987 0
M  V30 4240 C 419.439 -2.21188 -2.84162 0
M  V30 4241 C 419.292 -3.72155 -2.52628 0
M  V30 4242 C 420.611 -2.11545 -3.85923 0
M  V30 4243 H 417.73 -0.472769 -0.565383 0
M  V30 4244 H 420.372 -1.66341 -0.918192 0
M  V30 4245 H 418.522 -1.90139 -3.38791 0
M  V30 4246 H 420.194 -4.13682 -2.04121 0
M  V30 4247 H 418.437 -3.92042 -1.85704 0
M  V30 4248 H 419.108 -4.31511 -3.44242 0
M  V30 4249 H 421.584 -2.38855 -3.40716 0
M  V30 4250 H 420.46 -2.77688 -4.73477 0
M  V30 4251 H 420.721 -1.09987 -4.282 0
M  V30 4252 N 419.78 1.02168 -1.19998 0
M  V30 4253 C 421.057 1.72816 -0.916191 0
M  V30 4254 C 421.437 2.03081 0.576325 0
M  V30 4255 O 420.785 1.69122 1.53656 0
M  V30 4256 C 420.995 2.9997 -1.78378 0
M  V30 4257 C 422.343 3.73336 -2.02251 0
M  V30 4258 O 423.367 3.09914 -1.75589 0
M  V30 4259 O 422.226 4.87371 -2.47249 0
M  V30 4260 H 419.32 0.752924 -0.342103 0
M  V30 4261 H 421.866 1.08062 -1.30846 0
M  V30 4262 H 420.638 2.73888 -2.79466 0
M  V30 4263 H 420.261 3.72464 -1.39126 0
M  V30 4264 N 421.258 1.00505 1.21394 0
M  V30 4265 C 422.221 0.570459 2.21987 0
M  V30 4266 C 423.221 -0.353211 1.56873 0
M  V30 4267 O 424.411 -0.14349 1.73608 0
M  V30 4268 C 421.543 -0.168555 3.40483 0
M  V30 4269 H 422.736 1.46021 2.6195 0
M  V30 4270 H 420.289 0.793565 1.34656 0
M  V30 4271 H 421.024 -1.07374 3.06009 0
M  V30 4272 H 420.809 0.494823 3.88965 0
M  V30 4273 H 422.299 -0.460362 4.15055 0
M  V30 4274 N 422.737 -1.36956 0.779787 0
M  V30 4275 C 423.647 -2.33965 0.172491 0
M  V30 4276 C 424.663 -1.60574 -0.670222 0
M  V30 4277 O 425.839 -1.92617 -0.588263 0
M  V30 4278 C 422.904 -3.39761 -0.690173 0
M  V30 4279 C 421.965 -4.28964 0.169924 0
M  V30 4280 C 421.198 -5.29707 -0.651662 0
M  V30 4281 O 421.421 -5.38238 -1.88827 0
M  V30 4282 O 420.355 -6.01873 -0.0566264 0
M  V30 4283 H 424.181 -2.87647 0.974321 0
M  V30 4284 H 421.766 -1.39258 0.541078 0
M  V30 4285 H 423.648 -4.04471 -1.1824 0
M  V30 4286 H 422.323 -2.88394 -1.47006 0
M  V30 4287 H 421.23 -3.67326 0.708696 0
M  V30 4288 H 422.563 -4.83656 0.913085 0
M  V30 4289 N 424.215 -0.530993 -1.48385 0
M  V30 4290 C 425.162 0.231223 -2.29639 0
M  V30 4291 C 426.132 0.932864 -1.37429 0
M  V30 4292 O 427.317 0.933692 -1.66394 0
M  V30 4293 C 424.457 1.27155 -3.2082 0
M  V30 4294 C 423.57 0.578655 -4.28107 0
M  V30 4295 C 422.705 1.602 -5.06467 0
M  V30 4296 C 421.744 0.892625 -6.05556 0
M  V30 4297 N 420.881 1.86157 -6.76971 0
M  V30 4298 H 425.721 -0.467848 -2.94305 0
M  V30 4299 H 423.258 -0.242556 -1.45086 0
M  V30 4300 H 425.216 1.88703 -3.72085 0
M  V30 4301 H 423.846 1.939 -2.58075 0
M  V30 4302 H 422.898 -0.150782 -3.80101 0
M  V30 4303 H 424.21 0.0217065 -4.98795 0
M  V30 4304 H 423.364 2.29173 -5.61751 0
M  V30 4305 H 422.103 2.19285 -4.35621 0
M  V30 4306 H 421.108 0.188829 -5.49476 0
M  V30 4307 H 422.333 0.307878 -6.78402 0
M  V30 4308 H 420.279 2.44147 -6.08875 0
M  V30 4309 H 420.196 1.35608 -7.43738 0
M  V30 4310 H 421.464 2.54325 -7.36844 0
M  V30 4311 N 425.693 1.55336 -0.266172 0
M  V30 4312 C 426.918 2.04258 0.359661 0
M  V30 4313 C 427.343 1.14359 1.49344 0
M  V30 4314 O 426.701 0.140369 1.80756 0
M  V30 4315 C 426.749 3.50997 0.826635 0
M  V30 4316 O 425.853 3.64204 1.93466 0
M  V30 4317 H 425.194 0.659668 0.075727 0
M  V30 4318 H 427.724 2.00694 -0.39786 0
M  V30 4319 H 427.734 3.9219 1.12477 0
M  V30 4320 H 426.409 4.159 -0.00293032 0
M  V30 4321 H 424.986 3.34913 1.63974 0
M  V30 4322 N 427.171 -0.0066808 1.57599 0
M  V30 4323 C 428.419 -0.691552 1.899 0
M  V30 4324 C 428.74 -1.74682 0.866672 0
M  V30 4325 O 428.01 -1.95661 -0.0968189 0
M  V30 4326 H 426.59 -0.258416 0.700878 0
M  V30 4327 H 429.252 0.0326655 1.94873 0
M  V30 4328 H 428.348 -1.16702 2.8946 0
M  V30 4329 N 428.649 -1.55105 -0.279332 0
M  V30 4330 C 429.596 -1.8755 -1.34513 0
M  V30 4331 C 430.566 -0.726384 -1.49375 0
M  V30 4332 O 431.751 -0.977063 -1.63884 0
M  V30 4333 C 428.891 -2.14738 -2.70151 0
M  V30 4334 C 428.004 -3.42285 -2.63562 0
M  V30 4335 C 427.139 -3.59206 -3.91337 0
M  V30 4336 C 426.178 -4.80467 -3.79233 0
M  V30 4337 N 425.315 -4.94079 -4.98829 0
M  V30 4338 H 430.155 -2.78456 -1.06143 0
M  V30 4339 H 427.692 -1.37867 -0.512936 0
M  V30 4340 H 429.65 -2.28501 -3.49061 0
M  V30 4341 H 428.28 -1.27075 -2.96735 0
M  V30 4342 H 427.332 -3.37029 -1.76397 0
M  V30 4343 H 428.644 -4.31328 -2.50515 0
M  V30 4344 H 427.798 -3.72751 -4.78687 0
M  V30 4345 H 426.537 -2.68337 -4.07243 0
M  V30 4346 H 425.542 -4.66932 -2.90266 0
M  V30 4347 H 426.767 -5.72765 -3.64852 0
M  V30 4348 H 424.713 -4.06139 -5.15158 0
M  V30 4349 H 424.63 -5.77156 -4.8829 0
M  V30 4350 H 425.898 -5.12003 -5.8777 0
M  V30 4351 N 430.127 0.543554 -1.4793 0
M  V30 4352 C 431.373 1.30201 -1.55485 0
M  V30 4353 C 431.706 1.92925 -0.222201 0
M  V30 4354 O 430.981 1.78586 0.77053 0
M  V30 4355 C 431.264 2.40174 -2.68307 0
M  V30 4356 C 431.117 1.8223 -4.11233 0
M  V30 4357 C 432.436 3.42024 -2.76961 0
M  V30 4358 H 429.555 0.472036 -0.565996 0
M  V30 4359 H 432.197 0.606914 -1.80046 0
M  V30 4360 H 430.347 2.99463 -2.47495 0
M  V30 4361 H 432.019 1.27096 -4.43446 0
M  V30 4362 H 430.262 1.12832 -4.18869 0
M  V30 4363 H 430.933 2.61793 -4.85972 0
M  V30 4364 H 433.409 2.92672 -2.95774 0
M  V30 4365 H 432.285 4.16383 -3.57654 0
M  V30 4366 H 432.546 4.0173 -1.84568 0
M  V30 4367 N 431.605 1.3629 0.791371 0
M  V30 4368 C 432.854 1.29742 1.54434 0
M  V30 4369 C 433.167 -0.121729 1.95221 0
M  V30 4370 O 434.373 -0.309579 2.69729 0
M  V30 4371 C 432.829 2.27623 2.78776 0
M  V30 4372 C 432.437 3.74963 2.45166 0
M  V30 4373 C 434.181 2.30047 3.56761 0
M  V30 4374 C 432.088 4.64626 3.65891 0
M  V30 4375 H 431.018 0.482113 0.579727 0
M  V30 4376 H 433.669 1.61642 0.868565 0
M  V30 4377 H 432.051 1.88714 3.48142 0
M  V30 4378 H 433.225 4.22596 1.83709 0
M  V30 4379 H 431.54 3.75295 1.80396 0
M  V30 4380 H 434.137 2.94247 4.46456 0
M  V30 4381 H 434.48 1.30846 3.95203 0
M  V30 4382 H 435.013 2.67563 2.94372 0
M  V30 4383 H 431.752 5.64883 3.32547 0
M  V30 4384 H 431.272 4.2171 4.26521 0
M  V30 4385 H 432.951 4.80801 4.32943 0
M  V30 4386 N 433.083 -1.0153 1.20538 0
M  V30 4387 C 434.494 -1.56598 1.01657 0
M  V30 4388 C 434.845 -1.91505 -0.426668 0
M  V30 4389 O 433.97 -1.72375 -1.30827 0
M  V30 4390 C 434.565 -2.84542 1.83905 0
M  V30 4391 C 433.124 -3.36133 1.69386 0
M  V30 4392 C 432.271 -2.09427 1.81757 0
M  V30 4393 H 435.222 -0.838974 1.34711 0
M  V30 4394 H 435.243 -3.56004 1.34319 0
M  V30 4395 H 434.755 -2.59105 2.8894 0
M  V30 4396 H 432.856 -3.66528 0.669933 0
M  V30 4397 H 432.969 -4.08248 2.50739 0
M  V30 4398 H 431.333 -2.21941 1.24957 0
M  V30 4399 H 432.116 -1.86414 2.88279 0
M  V30 4400 N 434.561 -1.01147 -1.20859 0
M  V30 4401 C 435.491 -0.597663 -2.25722 0
M  V30 4402 C 436.472 0.384744 -1.65692 0
M  V30 4403 O 437.657 0.271303 -1.92296 0
M  V30 4404 C 434.787 0.0700149 -3.47229 0
M  V30 4405 C 433.741 -0.832843 -4.19819 0
M  V30 4406 C 433.067 -0.0312202 -5.34691 0
M  V30 4407 C 434.367 -2.1385 -4.76514 0
M  V30 4408 H 436.061 -1.47423 -2.60589 0
M  V30 4409 H 433.607 -0.710301 -1.25263 0
M  V30 4410 H 435.56 0.37103 -4.19763 0
M  V30 4411 H 434.284 0.981259 -3.11511 0
M  V30 4412 H 432.943 -1.11778 -3.49144 0
M  V30 4413 H 432.591 0.881515 -4.95215 0
M  V30 4414 H 432.291 -0.632434 -5.84187 0
M  V30 4415 H 433.815 0.26346 -6.10031 0
M  V30 4416 H 435.229 -1.9002 -5.40893 0
M  V30 4417 H 433.626 -2.69012 -5.36426 0
M  V30 4418 H 434.696 -2.80495 -3.95538 0
M  V30 4419 N 436.039 1.36541 -0.78704 0
M  V30 4420 C 437.316 1.9355 -0.282424 0
M  V30 4421 C 437.696 1.71919 1.22503 0
M  V30 4422 O 437.044 1.07677 2.01539 0
M  V30 4423 C 437.254 3.4246 -0.672462 0
M  V30 4424 C 438.602 4.19582 -0.650863 0
M  V30 4425 O 439.626 3.50889 -0.612789 0
M  V30 4426 O 438.485 5.42106 -0.691623 0
M  V30 4427 H 435.579 0.824091 -0.0693 0
M  V30 4428 H 438.125 1.45736 -0.869423 0
M  V30 4429 H 436.897 3.51851 -1.71221 0
M  V30 4430 H 436.52 3.97556 -0.0592211 0
M  V30 4431 N 437.518 0.538854 1.48102 0
M  V30 4432 C 438.465 -0.219042 2.29758 0
M  V30 4433 C 439.435 -0.925562 1.37922 0
M  V30 4434 O 440.62 -0.924855 1.66886 0
M  V30 4435 C 437.76 -1.25452 3.2149 0
M  V30 4436 C 436.873 -0.555943 4.28408 0
M  V30 4437 C 436.008 -1.57512 5.0731 0
M  V30 4438 C 435.047 -0.860498 6.06021 0
M  V30 4439 N 434.184 -1.82564 6.77949 0
M  V30 4440 H 439.024 0.483449 2.94052 0
M  V30 4441 H 436.561 0.250247 1.44956 0
M  V30 4442 H 438.519 -1.86727 3.7308 0
M  V30 4443 H 437.149 -1.92528 2.591 0
M  V30 4444 H 436.201 0.170938 3.80016 0
M  V30 4445 H 437.513 0.00474616 4.988 0
M  V30 4446 H 436.667 -2.26191 5.62959 0
M  V30 4447 H 435.406 -2.16972 4.36778 0
M  V30 4448 H 434.411 -0.159686 5.49568 0
M  V30 4449 H 435.636 -0.271897 6.78555 0
M  V30 4450 H 433.582 -2.40915 6.10161 0
M  V30 4451 H 433.499 -1.31662 7.44447 0
M  V30 4452 H 434.767 -2.50414 7.38182 0
M  V30 4453 N 438.996 -1.55193 0.274407 0
M  V30 4454 C 439.959 -2.212 -0.600279 0
M  V30 4455 C 440.959 -1.18963 -1.08187 0
M  V30 4456 O 442.149 -1.43873 -0.982158 0
M  V30 4457 C 439.281 -2.87739 -1.82809 0
M  V30 4458 H 440.474 -2.9989 -0.0239682 0
M  V30 4459 H 438.027 -1.5628 0.0250192 0
M  V30 4460 H 438.762 -2.13058 -2.44493 0
M  V30 4461 H 438.547 -3.62658 -1.49069 0
M  V30 4462 H 440.037 -3.38171 -2.45011 0
M  V30 4463 N 440.474 -0.00167713 -1.576 0
M  V30 4464 C 441.885 0.54091 -1.78693 0
M  V30 4465 C 442.236 1.7386 -0.909247 0
M  V30 4466 O 441.361 2.16109 -0.112176 0
M  V30 4467 C 441.956 0.98806 -3.24072 0
M  V30 4468 C 440.515 1.47594 -3.46256 0
M  V30 4469 C 439.662 0.42792 -2.73978 0
M  V30 4470 H 442.613 -0.22784 -1.57056 0
M  V30 4471 H 442.634 1.85398 -3.32277 0
M  V30 4472 H 442.146 0.116164 -3.87926 0
M  V30 4473 H 440.247 2.36868 -2.87618 0
M  V30 4474 H 440.36 1.50225 -4.54939 0
M  V30 4475 H 438.724 0.889934 -2.38647 0
M  V30 4476 H 439.507 -0.435038 -3.40532 0
M  V30 4477 N 441.952 1.55251 0.271103 0
M  V30 4478 C 442.862 1.9136 1.35714 0
M  V30 4479 C 443.878 0.811075 1.5394 0
M  V30 4480 O 445.054 1.11031 1.6803 0
M  V30 4481 C 442.119 2.1798 2.69603 0
M  V30 4482 C 441.18 3.4153 2.60107 0
M  V30 4483 C 440.413 3.66871 3.8761 0
M  V30 4484 O 440.636 2.94689 4.8838 0
M  V30 4485 O 439.57 4.60405 3.87699 0
M  V30 4486 H 443.396 2.83815 1.08088 0
M  V30 4487 H 440.981 1.41821 0.469792 0
M  V30 4488 H 442.863 2.36518 3.48765 0
M  V30 4489 H 441.538 1.28708 2.97012 0
M  V30 4490 H 440.445 3.28325 1.79314 0
M  V30 4491 H 441.778 4.31027 2.37647 0
M  V30 4492 N 443.43 -0.535701 1.48216 0
M  V30 4493 C 444.677 -1.29183 1.55942 0
M  V30 4494 C 445.005 -1.93125 0.230857 0
M  V30 4495 O 444.26 -1.79556 -0.778331 0
M  V30 4496 C 444.559 -2.4068 2.64212 0
M  V30 4497 C 444.225 -1.94428 4.06827 0
M  V30 4498 C 442.887 -1.81532 4.45645 0
M  V30 4499 C 445.239 -1.59405 4.96225 0
M  V30 4500 C 442.567 -1.31939 5.71672 0
M  V30 4501 C 444.919 -1.11276 6.22736 0
M  V30 4502 C 443.583 -0.969924 6.60416 0
M  V30 4503 H 442.853 -0.472715 0.570632 0
M  V30 4504 H 445.5 -0.598437 1.81909 0
M  V30 4505 H 443.805 -3.15666 2.32083 0
M  V30 4506 H 445.502 -2.98822 2.67407 0
M  V30 4507 H 442.092 -2.05415 3.76168 0
M  V30 4508 H 446.276 -1.68231 4.66917 0
M  V30 4509 H 441.532 -1.19562 5.99596 0
M  V30 4510 H 445.706 -0.832453 6.91407 0
M  V30 4511 H 443.333 -0.583436 7.57958 0
M  V30 4512 N 444.908 -1.36708 -0.784132 0
M  V30 4513 C 445.855 -1.31466 -1.89698 0
M  V30 4514 C 446.825 -0.18239 -1.65096 0
M  V30 4515 O 448.01 -0.369762 -1.87183 0
M  V30 4516 C 445.15 -1.1151 -3.26588 0
M  V30 4517 C 444.263 -2.33859 -3.63227 0
M  V30 4518 C 443.398 -2.06873 -4.89262 0
M  V30 4519 C 442.437 -3.25154 -5.18595 0
M  V30 4520 N 441.574 -2.978 -6.35814 0
M  V30 4521 H 446.414 -2.26619 -1.93515 0
M  V30 4522 H 443.951 -1.12625 -0.946256 0
M  V30 4523 H 445.909 -0.979653 -4.05535 0
M  V30 4524 H 444.539 -0.200103 -3.22179 0
M  V30 4525 H 443.591 -2.58188 -2.79362 0
M  V30 4526 H 444.903 -3.22109 -3.8085 0
M  V30 4527 H 444.057 -1.90289 -5.76086 0
M  V30 4528 H 442.796 -1.15942 -4.73718 0
M  V30 4529 H 441.801 -3.42292 -4.30251 0
M  V30 4530 H 443.026 -4.1692 -5.36055 0
M  V30 4531 H 440.972 -2.09485 -6.21653 0
M  V30 4532 H 440.889 -3.7959 -6.53794 0
M  V30 4533 H 442.157 -2.84805 -7.25607 0
M  V30 4534 N 446.386 1.0089 -1.21074 0
M  V30 4535 C 447.316 2.1145 -0.990523 0
M  V30 4536 C 448.297 1.69897 0.0831699 0
M  V30 4537 O 449.482 1.94052 -0.0758853 0
M  V30 4538 C 446.612 3.42914 -0.550177 0
M  V30 4539 C 445.566 3.98244 -1.56799 0
M  V30 4540 C 444.892 5.25568 -0.984013 0
M  V30 4541 C 446.192 4.30752 -2.95381 0
M  V30 4542 H 447.886 2.3013 -1.91521 0
M  V30 4543 H 445.432 1.10592 -0.92225 0
M  V30 4544 H 447.385 4.19653 -0.383305 0
M  V30 4545 H 446.109 3.24014 0.41015 0
M  V30 4546 H 444.768 3.23621 -1.72236 0
M  V30 4547 H 444.416 5.02998 -0.0155216 0
M  V30 4548 H 444.116 5.63551 -1.66384 0
M  V30 4549 H 445.64 6.04955 -0.828378 0
M  V30 4550 H 447.054 4.98349 -2.8341 0
M  V30 4551 H 445.451 4.79869 -3.60341 0
M  V30 4552 H 446.521 3.39192 -3.46521 0
M  V30 4553 N 447.864 1.01787 1.20321 0
M  V30 4554 C 449.11 0.708985 1.90003 0
M  V30 4555 C 449.443 -0.759572 1.78729 0
M  V30 4556 O 448.718 -1.55198 1.17234 0
M  V30 4557 C 449.001 1.1469 3.41348 0
M  V30 4558 C 448.854 2.67586 3.61549 0
M  V30 4559 C 450.173 0.71915 4.34185 0
M  V30 4560 H 447.292 0.259034 0.689978 0
M  V30 4561 H 449.934 1.26584 1.41692 0
M  V30 4562 H 448.084 0.673128 3.82624 0
M  V30 4563 H 449.756 3.22826 3.29517 0
M  V30 4564 H 447.999 3.085 3.04976 0
M  V30 4565 H 448.67 2.93281 4.67643 0
M  V30 4566 H 451.146 1.12647 4.00562 0
M  V30 4567 H 450.022 1.05358 5.38694 0
M  V30 4568 H 450.283 -0.379111 4.40472 0
M  V30 4569 N 449.342 -1.36122 0.79427 0
M  V30 4570 C 450.619 -1.93398 0.292685 0
M  V30 4571 C 450.999 -1.72567 -1.21589 0
M  V30 4572 O 450.347 -1.08745 -2.00965 0
M  V30 4573 C 450.557 -3.42099 0.690614 0
M  V30 4574 C 451.905 -4.19231 0.673105 0
M  V30 4575 O 452.929 -3.50559 0.631389 0
M  V30 4576 O 451.788 -5.41732 0.720362 0
M  V30 4577 H 448.882 -0.823712 0.0736693 0
M  V30 4578 H 451.428 -1.45273 0.87714 0
M  V30 4579 H 450.2 -3.50938 1.73085 0
M  V30 4580 H 449.823 -3.97519 0.0803036 0
M  V30 4581 N 450.82 -0.546701 -1.47814 0
M  V30 4582 C 452.045 -0.021268 -2.07389 0
M  V30 4583 C 452.47 1.25822 -1.39822 0
M  V30 4584 O 451.828 1.75111 -0.46968 0
M  V30 4585 C 451.876 0.168502 -3.60206 0
M  V30 4586 O 450.98 1.23347 -3.93522 0
M  V30 4587 H 450.321 -0.0466108 -0.662362 0
M  V30 4588 H 452.851 -0.759387 -1.89985 0
M  V30 4589 H 452.861 0.385982 -4.0617 0
M  V30 4590 H 451.536 -0.766075 -4.08784 0
M  V30 4591 H 450.113 0.997319 -3.59316 0
M  V30 4592 N 452.299 1.55045 -0.282633 0
M  V30 4593 C 453.548 1.98938 0.332667 0
M  V30 4594 C 453.861 1.17455 1.56409 0
M  V30 4595 O 455.067 1.51527 2.25282 0
M  V30 4596 C 453.523 3.54105 0.643226 0
M  V30 4597 C 453.131 4.44374 -0.568814 0
M  V30 4598 C 454.875 4.06569 1.22074 0
M  V30 4599 C 452.782 5.90943 -0.232426 0
M  V30 4600 H 451.712 0.743043 0.128075 0
M  V30 4601 H 454.363 1.79341 -0.388464 0
M  V30 4602 H 452.745 3.69532 1.42346 0
M  V30 4603 H 453.919 4.40718 -1.34551 0
M  V30 4604 H 452.234 4.02585 -1.06369 0
M  V30 4605 H 454.831 5.13626 1.48635 0
M  V30 4606 H 455.174 3.56057 2.15707 0
M  V30 4607 H 455.707 3.94612 0.502621 0
M  V30 4608 H 452.446 6.45567 -1.13683 0
M  V30 4609 H 451.966 5.9765 0.507357 0
M  V30 4610 H 453.645 6.4677 0.172657 0
M  V30 4611 N 453.777 0.010035 1.57597 0
M  V30 4612 C 454.707 -0.976857 2.12084 0
M  V30 4613 C 455.688 -1.35191 1.03235 0
M  V30 4614 O 456.873 -1.43389 1.3097 0
M  V30 4615 C 454.003 -2.26548 2.63236 0
M  V30 4616 C 452.957 -2.03175 3.76701 0
M  V30 4617 C 452.283 -3.38138 4.14206 0
M  V30 4618 C 453.583 -1.38625 5.03568 0
M  V30 4619 H 455.277 -0.523145 2.94794 0
M  V30 4620 H 452.823 -0.250195 1.4181 0
M  V30 4621 H 454.776 -2.95952 2.99984 0
M  V30 4622 H 453.5 -2.74051 1.77661 0
M  V30 4623 H 452.159 -1.36195 3.40362 0
M  V30 4624 H 451.807 -3.83363 3.25641 0
M  V30 4625 H 451.507 -3.23312 4.90656 0
M  V30 4626 H 453.031 -4.08841 4.53521 0
M  V30 4627 H 454.445 -1.98 5.38023 0
M  V30 4628 H 452.842 -1.34256 5.84889 0
M  V30 4629 H 453.912 -0.356722 4.83586 0
M  V30 4630 N 455.255 -1.55392 -0.262866 0
M  V30 4631 C 456.501 -1.76737 -0.99458 0
M  V30 4632 C 456.834 -0.572453 -1.85571 0
M  V30 4633 O 456.109 0.429732 -1.89693 0
M  V30 4634 C 456.392 -3.07824 -1.8686 0
M  V30 4635 C 456.245 -4.3769 -1.03672 0
M  V30 4636 C 457.564 -3.35021 -2.85393 0
M  V30 4637 H 454.683 -0.643005 -0.360157 0
M  V30 4638 H 457.325 -1.88126 -0.266216 0
M  V30 4639 H 455.475 -2.98245 -2.48962 0
M  V30 4640 H 457.147 -4.59238 -0.43563 0
M  V30 4641 H 455.39 -4.32461 -0.340513 0
M  V30 4642 H 456.061 -5.25759 -1.6817 0
M  V30 4643 H 458.537 -3.44458 -2.33426 0
M  V30 4644 H 457.413 -4.27989 -3.43681 0
M  V30 4645 H 457.674 -2.55153 -3.61039 0
M  V30 4646 N 456.733 0.527833 -1.48498 0
M  V30 4647 C 457.961 1.30823 -1.6029 0
M  V30 4648 C 458.376 1.86945 -0.263974 0
M  V30 4649 O 457.733 1.6651 0.747034 0
M  V30 4650 C 457.784 2.45756 -2.65116 0
M  V30 4651 O 457.505 1.91946 -3.93813 0
M  V30 4652 C 459.006 3.37543 -2.87367 0
M  V30 4653 H 456.226 0.397763 -0.540394 0
M  V30 4654 H 458.77 0.636529 -1.94341 0
M  V30 4655 H 456.925 3.08806 -2.33917 0
M  V30 4656 H 457.339 2.67195 -4.51339 0
M  V30 4657 H 458.813 4.14532 -3.6451 0
M  V30 4658 H 459.29 3.92905 -1.9627 0
M  V30 4659 H 459.896 2.80283 -3.19878 0
M  V30 4660 N 458.211 1.37122 0.776871 0
M  V30 4661 C 459.143 1.28342 1.89897 0
M  V30 4662 C 460.156 0.200277 1.61563 0
M  V30 4663 O 461.345 0.456012 1.72577 0
M  V30 4664 C 458.445 0.960427 3.25006 0
M  V30 4665 C 457.618 2.148 3.81025 0
M  V30 4666 C 456.677 1.79608 4.94598 0
M  V30 4667 O 455.703 2.51845 5.10454 0
M  V30 4668 N 456.905 0.737171 5.758 0
M  V30 4669 H 459.67 2.25027 1.97947 0
M  V30 4670 H 457.231 1.3068 0.955739 0
M  V30 4671 H 459.223 0.705942 3.98495 0
M  V30 4672 H 457.793 0.0823066 3.12492 0
M  V30 4673 H 457.013 2.56454 2.99374 0
M  V30 4674 H 458.301 2.9411 4.15183 0
M  V30 4675 H 457.699 0.137637 5.65533 0
M  V30 4676 H 456.256 0.542534 6.49538 0
M  V30 4677 O 459.728 -0.91678 1.32956 0
M  V30 4678 H 460.419 -1.55003 1.16162 0
M  V30 END ATOM
M  V30 BEGIN BOND
M  V30 END BOND
M  V30 END CTAB
M  END
$$$$
