drugbank_target|O60911 Cathepsin L2 (DB02869; DB04451)
 OpenBabel12092120023D

  0  0  0     0  0            999 V3000
M  V30 BEGIN CTAB
M  V30 COUNTS 5158 5225 0 0 0
M  V30 BEGIN ATOM
M  V30 1 H -0.908 1.98254 -0.117106 0
M  V30 2 N 0 1.576 0 0
M  V30 3 C 0.933 2.03868 1.02534 0
M  V30 4 C 1.911 0.928543 1.3348 0
M  V30 5 O 3.095 1.19667 1.45644 0
M  V30 6 C 0.222 2.43627 2.35294 0
M  V30 7 C -0.732 3.65373 2.2001 0
M  V30 8 S 0.101 5.13292 1.52614 0
M  V30 9 C 1.257 5.56322 2.86805 0
M  V30 10 H 1.49 2.90518 0.631377 0
M  V30 11 H -0.977 1.52953 0.210867 0
M  V30 12 H 0.981 2.67203 3.11629 0
M  V30 13 H -0.358 1.57376 2.7183 0
M  V30 14 H -1.165 3.90944 3.18086 0
M  V30 15 H -1.563 3.418 1.51819 0
M  V30 16 H 0.729 5.58782 3.83104 0
M  V30 17 H 1.672 6.56266 2.65933 0
M  V30 18 H 2.08 4.83886 2.90714 0
M  V30 19 N 1.4781 -0.272755 1.55222 0
M  V30 20 C 2.4261 -1.35705 1.88909 0
M  V30 21 C 3.4201 -1.5112 0.765456 0
M  V30 22 O 4.6261 -1.52901 0.949802 0
M  V30 23 H 1.0011 -0.453868 0.59959 0
M  V30 24 H 2.9721 -1.04544 2.79487 0
M  V30 25 C 1.7211 -2.71049 2.17779 0
M  V30 26 H 1.0441 -2.59979 3.03728 0
M  V30 27 H 2.4841 -3.45858 2.45272 0
M  V30 28 C 0.9431 -3.22165 0.985473 0
M  V30 29 O 1.4731 -4.01096 0.220233 0
M  V30 30 N -0.3209 -2.7985 0.783108 0
M  V30 31 H -0.7739 -2.15775 1.40708 0
M  V30 32 H -0.8159 -3.14397 -0.0130392 0
M  V30 33 N 2.9562 -1.48159 -0.537278 0
M  V30 34 C 3.8862 -1.65029 -1.6519 0
M  V30 35 C 4.8672 -0.499281 -1.62607 0
M  V30 36 O 6.0522 -0.730972 -1.79918 0
M  V30 37 C 3.1822 -1.68303 -3.03795 0
M  V30 38 C 2.1362 -2.8283 -3.21234 0
M  V30 39 C 1.4622 -2.71189 -4.60826 0
M  V30 40 C 2.7622 -4.24211 -3.04701 0
M  V30 41 H 4.4562 -2.58341 -1.51328 0
M  V30 42 H 2.0022 -1.24325 -0.726585 0
M  V30 43 H 3.9552 -1.78693 -3.81637 0
M  V30 44 H 2.6792 -0.715635 -3.18663 0
M  V30 45 H 1.3382 -2.71983 -2.45807 0
M  V30 46 H 0.9862 -1.72435 -4.7252 0
M  V30 47 H 0.6862 -3.48035 -4.7344 0
M  V30 48 H 2.2102 -2.83537 -5.40777 0
M  V30 49 H 3.6242 -4.3593 -3.72341 0
M  V30 50 H 2.0212 -5.01998 -3.28813 0
M  V30 51 H 3.0912 -4.41184 -2.01209 0
M  V30 52 N 4.4343 0.785586 -1.36625 0
M  V30 53 C 5.6593 1.57963 -1.34397 0
M  V30 54 C 6.0843 1.87964 0.071526 0
M  V30 55 O 5.4423 1.48182 1.0446 0
M  V30 56 C 5.4903 2.87511 -2.17646 0
M  V30 57 O 4.5943 3.81281 -1.57158 0
M  V30 58 H 3.9353 0.479014 -0.459828 0
M  V30 59 H 6.4653 0.973411 -1.79961 0
M  V30 60 H 6.4753 3.36745 -2.30362 0
M  V30 61 H 5.1503 2.65002 -3.20541 0
M  V30 62 H 3.7273 3.39885 -1.53403 0
M  V30 63 N 5.9124 1.20967 1.01018 0
M  V30 64 C 6.8424 0.988272 2.11555 0
M  V30 65 C 7.8234 -0.0849778 1.69888 0
M  V30 66 O 9.0084 0.0738202 1.9406 0
M  V30 67 C 6.1384 0.546528 3.42973 0
M  V30 68 C 5.0924 1.56375 3.9841 0
M  V30 69 C 4.4184 0.97842 5.25672 0
M  V30 70 C 5.7184 2.94922 4.31066 0
M  V30 71 H 7.4124 1.91276 2.30334 0
M  V30 72 H 4.9584 0.921073 1.1069 0
M  V30 73 H 6.9114 0.378839 4.19694 0
M  V30 74 H 5.6354 -0.413598 3.23971 0
M  V30 75 H 4.2944 1.71891 3.23804 0
M  V30 76 H 3.9424 0.0101688 5.02999 0
M  V30 77 H 3.6424 1.65784 5.63728 0
M  V30 78 H 5.1664 0.821939 6.05043 0
M  V30 79 H 6.5804 2.8288 4.9865 0
M  V30 80 H 4.9774 3.5983 4.80253 0
M  V30 81 H 6.0474 3.4616 3.39561 0
M  V30 82 N 7.3905 -1.2043 1.01659 0
M  V30 83 C 8.6365 -1.90079 0.706963 0
M  V30 84 C 8.9695 -1.78648 -0.761474 0
M  V30 85 O 8.2445 -1.17069 -1.55323 0
M  V30 86 C 8.5275 -3.41469 1.14327 0
M  V30 87 C 8.3805 -3.61833 2.67201 0
M  V30 88 C 9.6995 -4.34261 0.714529 0
M  V30 89 H 6.8185 -0.690254 0.2583 0
M  V30 90 H 9.4605 -1.41826 1.26433 0
M  V30 91 H 7.6105 -3.82696 0.669056 0
M  V30 92 H 9.2825 -3.2986 3.22475 0
M  V30 93 H 7.5255 -3.05304 3.08175 0
M  V30 94 H 8.1965 -4.67955 2.92783 0
M  V30 95 H 10.6725 -4.00682 1.12221 0
M  V30 96 H 9.5485 -5.38806 1.04784 0
M  V30 97 H 9.8095 -4.40431 -0.383799 0
M  V30 98 N 8.8686 -0.792821 -1.36206 0
M  V30 99 C 9.7986 -0.207853 -2.32573 0
M  V30 100 C 10.7796 0.659055 -1.56813 0
M  V30 101 O 11.9646 0.592176 -1.84951 0
M  V30 102 C 9.0946 0.655449 -3.41059 0
M  V30 103 C 8.0486 -0.111842 -4.27854 0
M  V30 104 C 7.3746 0.872274 -5.27537 0
M  V30 105 C 8.6746 -1.30299 -5.05786 0
M  V30 106 H 10.3686 -1.01294 -2.81744 0
M  V30 107 H 7.9146 -0.48854 -1.3546 0
M  V30 108 H 9.8676 1.07464 -4.07467 0
M  V30 109 H 8.5916 1.49328 -2.90463 0
M  V30 110 H 7.2506 -0.512053 -3.63006 0
M  V30 111 H 6.8986 1.70523 -4.73214 0
M  V30 112 H 6.5986 0.363291 -5.86476 0
M  V30 113 H 8.1226 1.28996 -5.96818 0
M  V30 114 H 9.5366 -0.959379 -5.65216 0
M  V30 115 H 7.9336 -1.7455 -5.74154 0
M  V30 116 H 9.0036 -2.09663 -4.37229 0
M  V30 117 N 10.3467 1.47872 -0.545128 0
M  V30 118 C 11.3097 2.28337 0.198717 0
M  V30 119 C 12.3097 1.36255 0.853888 0
M  V30 120 O 13.4997 1.59003 0.711606 0
M  V30 121 C 10.6317 3.15585 1.28915 0
M  V30 122 H 11.8247 2.95567 -0.507941 0
M  V30 123 H 9.3777 1.53362 -0.301616 0
M  V30 124 H 10.1127 2.53019 2.02859 0
M  V30 125 H 9.8977 3.83337 0.824309 0
M  V30 126 H 11.3877 3.76243 1.81194 0
M  V30 127 N 11.8248 0.280983 1.55075 0
M  V30 128 C 12.7878 -0.590896 2.21452 0
M  V30 129 C 13.7878 -1.07682 1.19421 0
M  V30 130 O 14.9778 -0.97605 1.44288 0
M  V30 131 C 12.1098 -1.81587 2.88511 0
M  V30 132 H 13.3028 -0.0112554 2.99898 0
M  V30 133 H 10.8558 0.0316438 1.56268 0
M  V30 134 H 11.5908 -2.43587 2.14093 0
M  V30 135 H 11.3758 -1.4753 3.63287 0
M  V30 136 H 12.8658 -2.43575 3.39206 0
M  V30 137 N 13.3029 -1.57598 0.00835791 0
M  V30 138 C 14.5499 -1.90928 -0.674732 0
M  V30 139 C 14.8779 -0.88277 -1.73313 0
M  V30 140 O 14.1329 0.111294 -1.95383 0
M  V30 141 C 14.4319 -3.3101 -1.34787 0
M  V30 142 C 14.0979 -4.48922 -0.421861 0
M  V30 143 C 12.7599 -4.8091 -0.166927 0
M  V30 144 C 15.1119 -5.20755 0.215211 0
M  V30 145 C 12.4399 -5.821 0.733232 0
M  V30 146 C 14.7919 -6.22905 1.1033 0
M  V30 147 C 13.4559 -6.53346 1.36733 0
M  V30 148 H 12.7259 -0.698656 -0.246902 0
M  V30 149 H 15.3729 -1.91387 0.0656779 0
M  V30 150 H 13.6779 -3.26714 -2.16253 0
M  V30 151 H 15.3749 -3.54061 -1.8826 0
M  V30 152 H 11.9649 -4.23934 -0.630729 0
M  V30 153 H 16.1489 -4.9629 0.0312829 0
M  V30 154 H 11.4049 -6.04042 0.945712 0
M  V30 155 H 15.5789 -6.77694 1.60325 0
M  V30 156 H 13.2059 -7.31573 2.06652 0
M  V30 157 N 14.781 0.264519 -1.55364 0
M  V30 158 C 16.021 1.00254 -1.78125 0
M  V30 159 C 16.385 1.83187 -0.575017 0
M  V30 160 O 17.586 2.60029 -0.681042 0
M  V30 161 C 15.857 1.85478 -3.05504 0
M  V30 162 S 17.416 2.6543 -3.49417 0
M  V30 163 H 14.234 0.337522 -0.625779 0
M  V30 164 H 16.836 0.272111 -1.93597 0
M  V30 165 H 15.54 1.23491 -3.9138 0
M  V30 166 H 15.071 2.62827 -2.92721 0
M  V30 167 H 17.086 3.87958 -3.09359 0
M  V30 168 N 16.2591 1.48442 0.529413 0
M  V30 169 C 17.1891 1.65902 1.64313 0
M  V30 170 C 18.1701 0.507897 1.6234 0
M  V30 171 O 19.3551 0.740503 1.79528 0
M  V30 172 C 16.4851 1.69911 3.02898 0
M  V30 173 C 15.4391 2.8453 3.19729 0
M  V30 174 C 14.7651 2.73629 4.59381 0
M  V30 175 C 16.0651 4.25821 3.02447 0
M  V30 176 H 17.7591 2.5914 1.49955 0
M  V30 177 H 15.3051 1.24709 0.719982 0
M  V30 178 H 17.2581 1.80715 3.80684 0
M  V30 179 H 15.9821 0.732524 3.18279 0
M  V30 180 H 14.6411 2.73283 2.44361 0
M  V30 181 H 14.2891 1.74938 4.71599 0
M  V30 182 H 13.9891 3.50541 4.71588 0
M  V30 183 H 15.5131 2.86401 5.39265 0
M  V30 184 H 16.9271 4.37898 3.70024 0
M  V30 185 H 15.3241 5.03735 3.26146 0
M  V30 186 H 16.3941 4.42244 1.98867 0
M  V30 187 N 17.7372 -0.778329 1.37039 0
M  V30 188 C 18.9852 -1.53361 1.31623 0
M  V30 189 C 19.3062 -1.94739 -0.100831 0
M  V30 190 O 18.5762 -1.65797 -1.04347 0
M  V30 191 H 17.1562 -0.568794 0.484234 0
M  V30 192 H 19.8182 -0.926742 1.71457 0
M  V30 193 H 18.9142 -2.43606 1.95096 0
M  V30 194 N 19.2153 -1.21501 -1.00376 0
M  V30 195 C 20.4643 -1.02718 -1.73586 0
M  V30 196 C 20.7773 0.439589 -1.90596 0
M  V30 197 O 21.9833 0.746848 -2.61026 0
M  V30 198 C 20.4393 -1.78929 -3.1227 0
M  V30 199 C 20.0473 -3.29783 -3.03228 0
M  V30 200 C 21.7913 -1.68557 -3.89601 0
M  V30 201 C 19.6983 -3.98479 -4.36999 0
M  V30 202 H 18.6283 -0.380733 -0.650814 0
M  V30 203 H 21.2793 -1.45248 -1.1214 0
M  V30 204 H 19.6613 -1.29192 -3.74333 0
M  V30 205 H 20.8353 -3.86832 -2.50395 0
M  V30 206 H 19.1503 -3.40711 -2.39385 0
M  V30 207 H 21.7473 -2.17211 -4.88593 0
M  V30 208 H 22.0903 -0.644021 -4.11288 0
M  V30 209 H 22.6233 -2.15778 -3.34193 0
M  V30 210 H 19.3623 -5.02841 -4.20513 0
M  V30 211 H 18.8823 -3.46219 -4.89788 0
M  V30 212 H 20.5613 -4.03462 -5.05794 0
M  V30 213 N 20.6934 1.19889 -1.02296 0
M  V30 214 C 21.6564 2.21116 -0.603351 0
M  V30 215 C 22.6564 1.5738 0.329884 0
M  V30 216 O 23.8464 1.73802 0.117702 0
M  V30 217 C 20.9784 3.40696 0.117992 0
M  V30 218 H 22.1714 2.59754 -1.49893 0
M  V30 219 H 19.7244 1.33463 -0.813468 0
M  V30 220 H 20.4594 3.07569 1.0282 0
M  V30 221 H 20.2444 3.88188 -0.552511 0
M  V30 222 H 21.7344 4.15692 0.398696 0
M  V30 223 N 22.1715 0.800033 1.35784 0
M  V30 224 C 23.3965 0.388511 2.03729 0
M  V30 225 C 23.8215 -0.990481 1.5991 0
M  V30 226 O 23.1795 -1.64013 0.772612 0
M  V30 227 C 23.2275 0.4726 3.5749 0
M  V30 228 O 22.3315 -0.51646 4.09153 0
M  V30 229 H 21.6725 0.163271 0.643614 0
M  V30 230 H 24.2025 1.0841 1.73518 0
M  V30 231 H 24.2125 0.34003 4.06581 0
M  V30 232 H 22.8875 1.47848 3.88734 0
M  V30 233 H 21.4645 -0.344673 3.71304 0
M  V30 234 N 23.6496 -1.47581 0.552962 0
M  V30 235 C 24.6126 -2.28439 -0.186605 0
M  V30 236 C 25.6126 -1.36706 -0.84665 0
M  V30 237 O 26.8026 -1.59378 -0.703164 0
M  V30 238 C 23.9346 -3.16264 -1.2724 0
M  V30 239 H 25.1276 -2.95294 0.523609 0
M  V30 240 H 22.6806 -1.532 0.309745 0
M  V30 241 H 23.4156 -2.54091 -2.01514 0
M  V30 242 H 23.2006 -3.83769 -0.803968 0
M  V30 243 H 24.6906 -3.77198 -1.79196 0
M  V30 244 N 25.1277 -0.289203 -1.54924 0
M  V30 245 C 26.3737 0.323998 -2.00195 0
M  V30 246 C 26.7067 1.54441 -1.17735 0
M  V30 247 O 25.9817 1.92875 -0.250878 0
M  V30 248 C 26.2647 0.692276 -3.53383 0
M  V30 249 C 26.1177 -0.536457 -4.46589 0
M  V30 250 C 27.4367 1.52335 -4.12895 0
M  V30 251 H 24.5557 0.116289 -0.727768 0
M  V30 252 H 27.1977 -0.398954 -1.85764 0
M  V30 253 H 25.3477 1.30822 -3.65811 0
M  V30 254 H 27.0197 -1.17499 -4.46085 0
M  V30 255 H 25.2627 -1.17192 -4.1767 0
M  V30 256 H 25.9337 -0.234806 -5.515 0
M  V30 257 H 28.4097 1.00302 -4.0383 0
M  V30 258 H 27.2857 1.74982 -5.20262 0
M  V30 259 H 27.5467 2.50886 -3.64018 0
M  V30 260 N 26.6058 1.57591 -0.0167156 0
M  V30 261 C 28.0168 1.79201 0.523834 0
M  V30 262 C 28.3678 0.925796 1.72984 0
M  V30 263 O 27.4928 0.132792 2.15992 0
M  V30 264 C 28.0878 3.25 0.957091 0
M  V30 265 C 26.6468 3.47648 1.44283 0
M  V30 266 C 25.7938 2.74374 0.401757 0
M  V30 267 H 28.7448 1.56831 -0.242816 0
M  V30 268 H 28.7658 3.34031 1.82219 0
M  V30 269 H 28.2778 3.88019 0.0791415 0
M  V30 270 H 26.3788 2.89866 2.34113 0
M  V30 271 H 26.4918 4.56352 1.45877 0
M  V30 272 H 24.8558 2.39485 0.867121 0
M  V30 273 H 25.6388 3.40102 -0.467513 0
M  V30 274 N 28.0839 -0.256276 1.55502 0
M  V30 275 C 29.0309 -1.31714 1.89526 0
M  V30 276 C 30.0009 -1.4828 0.748479 0
M  V30 277 O 31.1859 -1.62416 1.00128 0
M  V30 278 C 28.3259 -2.66933 2.18725 0
M  V30 279 C 27.4389 -2.58452 3.4616 0
M  V30 280 C 26.5739 -3.85961 3.64976 0
M  V30 281 C 25.6129 -3.72059 4.86044 0
M  V30 282 N 24.7499 -4.9144 5.01429 0
M  V30 283 H 29.5899 -1.01998 2.80001 0
M  V30 284 H 27.1269 -0.492413 1.38613 0
M  V30 285 H 29.0849 -3.4563 2.33657 0
M  V30 286 H 27.7149 -2.94816 1.31466 0
M  V30 287 H 26.7669 -1.71374 3.3961 0
M  V30 288 H 28.0789 -2.44085 4.34999 0
M  V30 289 H 27.2329 -4.73101 3.79816 0
M  V30 290 H 25.9719 -4.03215 2.74353 0
M  V30 291 H 24.9769 -2.83302 4.7119 0
M  V30 292 H 26.2019 -3.56309 5.78118 0
M  V30 293 H 24.1479 -5.09072 4.13741 0
M  V30 294 H 24.0649 -4.79668 5.84341 0
M  V30 295 H 25.3329 -5.80104 5.20672 0
M  V30 296 N 29.562 -1.4872 -0.521534 0
M  V30 297 C 30.809 -1.57168 -1.27689 0
M  V30 298 C 31.137 -0.249275 -1.92896 0
M  V30 299 O 30.392 0.761162 -1.80291 0
M  V30 300 C 30.691 -2.66497 -2.38148 0
M  V30 301 C 30.357 -4.08664 -1.90538 0
M  V30 302 C 29.019 -4.47357 -1.77271 0
M  V30 303 C 31.371 -4.97724 -1.54663 0
M  V30 304 C 28.699 -5.72905 -1.26478 0
M  V30 305 C 31.051 -6.2377 -1.05329 0
M  V30 306 C 29.715 -6.61311 -0.906861 0
M  V30 307 H 28.985 -0.575117 -0.467249 0
M  V30 308 H 31.632 -1.82472 -0.581051 0
M  V30 309 H 29.937 -2.35085 -3.13437 0
M  V30 310 H 31.634 -2.70246 -2.96257 0
M  V30 311 H 28.224 -3.78111 -2.01816 0
M  V30 312 H 32.408 -4.68501 -1.63768 0
M  V30 313 H 27.664 -6.00709 -1.13835 0
M  V30 314 H 31.838 -6.9217 -0.76644 0
M  V30 315 H 29.465 -7.5848 -0.511083 0
M  V30 316 N 31.0401 0.771051 -1.3745 0
M  V30 317 C 32.3171 1.519 -1.23231 0
M  V30 318 C 32.6971 2.10383 0.173809 0
M  V30 319 O 32.0451 1.95583 1.18151 0
M  V30 320 C 32.2551 2.59933 -2.32886 0
M  V30 321 C 33.6031 3.27316 -2.70461 0
M  V30 322 O 34.6271 2.70228 -2.32068 0
M  V30 323 O 33.4861 4.30531 -3.36608 0
M  V30 324 H 30.5801 0.672803 -0.480901 0
M  V30 325 H 33.1261 0.807957 -1.49232 0
M  V30 326 H 31.8981 2.14842 -3.27045 0
M  V30 327 H 31.5211 3.38637 -2.08353 0
M  V30 328 N 32.5182 1.22032 0.997298 0
M  V30 329 C 33.4502 0.944263 2.08845 0
M  V30 330 C 34.4632 -0.0754663 1.62625 0
M  V30 331 O 35.6522 0.157994 1.77799 0
M  V30 332 C 32.7522 0.397723 3.36558 0
M  V30 333 C 31.9252 1.47362 4.11829 0
M  V30 334 C 30.9842 0.934951 5.17827 0
M  V30 335 O 30.0102 1.62016 5.45655 0
M  V30 336 N 31.2122 -0.245895 5.79979 0
M  V30 337 H 33.9772 1.88363 2.33109 0
M  V30 338 H 31.5382 1.12661 1.16272 0
M  V30 339 H 33.5302 0.0227771 4.04694 0
M  V30 340 H 32.1002 -0.446646 3.09393 0
M  V30 341 H 31.3202 2.02208 3.38386 0
M  V30 342 H 32.6082 2.19764 4.58891 0
M  V30 343 H 32.0062 -0.819475 5.59733 0
M  V30 344 H 30.5632 -0.562272 6.4937 0
M  V30 345 N 33.9963 -1.19345 1.0293 0
M  V30 346 C 34.9443 -2.24621 0.604001 0
M  V30 347 C 35.9383 -1.65452 -0.363587 0
M  V30 348 O 37.1443 -1.78497 -0.23212 0
M  V30 349 H 33.5193 -0.730858 0.177061 0
M  V30 350 H 35.4903 -2.5781 1.50255 0
M  V30 351 C 34.2393 -3.47688 -0.0289127 0
M  V30 352 H 33.5623 -3.93505 0.706651 0
M  V30 353 H 35.0023 -4.23011 -0.289432 0
M  V30 354 C 33.4613 -3.11817 -1.2756 0
M  V30 355 O 33.9913 -3.2451 -2.36762 0
M  V30 356 N 32.1973 -2.66246 -1.16453 0
M  V30 357 H 31.7443 -2.56118 -0.275914 0
M  V30 358 H 31.7023 -2.42617 -1.99961 0
M  V30 359 N 35.4744 -0.807222 -1.35358 0
M  V30 360 C 36.4044 -0.232509 -2.3234 0
M  V30 361 C 37.3854 0.642386 -1.57504 0
M  V30 362 O 38.5704 0.572526 -1.85569 0
M  V30 363 C 35.7004 0.619238 -3.41735 0
M  V30 364 C 34.6544 -0.157215 -4.27711 0
M  V30 365 C 33.9804 0.816273 -5.28433 0
M  V30 366 C 35.2804 -1.35656 -5.04376 0
M  V30 367 H 36.9744 -1.04276 -2.80654 0
M  V30 368 H 34.5204 -0.50288 -1.34934 0
M  V30 369 H 36.4734 1.03137 -4.08584 0
M  V30 370 H 35.1974 1.46239 -2.92031 0
M  V30 371 H 33.8564 -0.550525 -3.62443 0
M  V30 372 H 33.5044 1.65494 -4.74996 0
M  V30 373 H 33.2044 0.301067 -5.86828 0
M  V30 374 H 34.7284 1.22659 -5.98153 0
M  V30 375 H 36.1424 -1.01927 -5.64166 0
M  V30 376 H 34.5394 -1.8063 -5.7227 0
M  V30 377 H 35.6094 -2.14288 -4.34981 0
M  V30 378 N 36.9525 1.47285 -0.560781 0
M  V30 379 C 38.2295 1.9558 0.0277798 0
M  V30 380 C 38.6095 1.5034 1.48192 0
M  V30 381 O 37.9575 0.743882 2.16052 0
M  V30 382 C 38.1675 3.48789 -0.121418 0
M  V30 383 C 39.5155 4.24594 0.0220912 0
M  V30 384 O 40.5395 3.56166 -0.0491439 0
M  V30 385 O 39.3985 5.46217 0.175958 0
M  V30 386 H 36.4925 0.824663 0.0621342 0
M  V30 387 H 39.0385 1.5767 -0.627556 0
M  V30 388 H 37.8105 3.74533 -1.13316 0
M  V30 389 H 37.4335 3.93473 0.571366 0
M  V30 390 N 38.4306 0.297415 1.54768 0
M  V30 391 C 39.6586 -0.315623 2.04478 0
M  V30 392 C 40.0736 -1.47792 1.17486 0
M  V30 393 O 39.4306 -1.81404 0.19971 0
M  V30 394 C 39.4816 -0.7753 3.53088 0
M  V30 395 O 39.2026 0.340732 4.36773 0
M  V30 396 C 40.7036 -1.45386 4.18781 0
M  V30 397 H 37.9236 -0.0690887 0.667434 0
M  V30 398 H 40.4676 0.436003 1.99798 0
M  V30 399 H 38.6226 -1.47696 3.58141 0
M  V30 400 H 39.0366 -0.0165035 5.24497 0
M  V30 401 H 40.5106 -1.72669 5.24299 0
M  V30 402 H 40.9876 -2.39275 3.68299 0
M  V30 403 H 41.5936 -0.795475 4.17795 0
M  V30 404 N 39.9087 -1.5758 0.0250728 0
M  V30 405 C 40.8557 -2.09973 -0.958129 0
M  V30 406 C 41.8257 -1.00085 -1.3256 0
M  V30 407 O 43.0107 -1.27481 -1.41962 0
M  V30 408 C 40.1507 -2.62812 -2.2366 0
M  V30 409 C 39.2637 -3.86693 -1.92594 0
M  V30 410 C 38.3987 -4.27941 -3.14707 0
M  V30 411 C 37.4377 -5.44591 -2.79442 0
M  V30 412 N 36.5747 -5.81014 -3.94167 0
M  V30 413 H 41.4147 -2.937 -0.504428 0
M  V30 414 H 38.9517 -1.45172 -0.237392 0
M  V30 415 H 40.9097 -2.91536 -2.98434 0
M  V30 416 H 39.5397 -1.81922 -2.66654 0
M  V30 417 H 38.5917 -3.64723 -1.0808 0
M  V30 418 H 39.9037 -4.71547 -1.62619 0
M  V30 419 H 39.0577 -4.58079 -3.97804 0
M  V30 420 H 37.7967 -3.41845 -3.4784 0
M  V30 421 H 36.8017 -5.1415 -1.94755 0
M  V30 422 H 38.0267 -6.32382 -2.47528 0
M  V30 423 H 35.9727 -4.97874 -4.2715 0
M  V30 424 H 35.8897 -6.60498 -3.67801 0
M  V30 425 H 37.1577 -6.15756 -4.7798 0
M  V30 426 N 41.3868 0.248026 -1.55636 0
M  V30 427 C 42.6328 0.973427 -1.78594 0
M  V30 428 C 42.9878 1.83007 -0.593823 0
M  V30 429 O 42.2808 1.87097 0.412961 0
M  V30 430 C 42.4748 1.86819 -3.04686 0
M  V30 431 C 42.3038 1.09965 -4.36048 0
M  V30 432 C 41.0738 0.805204 -4.98843 0
M  V30 433 C 43.2718 0.477783 -5.12076 0
M  V30 434 N 41.2538 0.0124859 -6.13899 0
M  V30 435 C 42.6248 -0.179565 -6.1974 0
M  V30 436 C 44.6798 0.388136 -4.96385 0
M  V30 437 C 43.3828 -0.91795 -7.13419 0
M  V30 438 C 45.4088 -0.336716 -5.90441 0
M  V30 439 C 44.7708 -0.982705 -6.97511 0
M  V30 440 H 40.8698 0.337348 -0.705493 0
M  V30 441 H 43.4538 0.24667 -1.93131 0
M  V30 442 H 41.6248 2.56698 -2.9148 0
M  V30 443 H 43.3568 2.52907 -3.15944 0
M  V30 444 H 40.1118 1.11671 -4.60246 0
M  V30 445 H 40.5358 -0.371933 -6.75978 0
M  V30 446 H 45.1778 0.873237 -4.13684 0
M  V30 447 H 42.8958 -1.41466 -7.95621 0
M  V30 448 H 46.4818 -0.406731 -5.80377 0
M  V30 449 H 45.3618 -1.53464 -7.69037 0
M  V30 450 N 42.8649 1.48995 0.513639 0
M  V30 451 C 44.0949 1.61297 1.291 0
M  V30 452 C 44.5029 0.278656 1.87137 0
M  V30 453 O 43.8459 -0.744325 1.67945 0
M  V30 454 C 43.9079 2.61326 2.46879 0
M  V30 455 C 43.5719 4.05993 2.09807 0
M  V30 456 C 44.5689 4.93183 1.64519 0
M  V30 457 C 42.2539 4.51642 2.19829 0
M  V30 458 C 44.2479 6.24056 1.2974 0
M  V30 459 C 41.9349 5.82532 1.84662 0
M  V30 460 C 42.9329 6.68562 1.3969 0
M  V30 461 O 42.6209 7.97014 1.04992 0
M  V30 462 H 42.3529 0.546236 0.39825 0
M  V30 463 H 44.9069 1.95673 0.62459 0
M  V30 464 H 43.1369 2.22104 3.16554 0
M  V30 465 H 44.8259 2.6329 3.08923 0
M  V30 466 H 45.5919 4.59147 1.56233 0
M  V30 467 H 41.4709 3.84855 2.53786 0
M  V30 468 H 45.0149 6.91161 0.945659 0
M  V30 469 H 40.9119 6.16099 1.92594 0
M  V30 470 H 41.6799 8.09913 1.18249 0
M  V30 471 N 44.343 -0.763751 1.37857 0
M  V30 472 C 45.275 -1.88664 1.30148 0
M  V30 473 C 46.288 -1.61365 0.215685 0
M  V30 474 O 47.477 -1.72134 0.472459 0
M  V30 475 C 44.577 -3.24075 0.991396 0
M  V30 476 C 43.75 -3.78958 2.18426 0
M  V30 477 C 42.809 -4.92862 1.8432 0
M  V30 478 O 41.835 -5.08027 2.56704 0
M  V30 479 N 43.037 -5.75071 0.792081 0
M  V30 480 H 45.802 -1.95791 2.26905 0
M  V30 481 H 43.363 -0.943226 1.31586 0
M  V30 482 H 45.355 -3.97804 0.743935 0
M  V30 483 H 43.925 -3.12399 0.112122 0
M  V30 484 H 43.145 -2.96913 2.59299 0
M  V30 485 H 44.433 -4.12357 2.98058 0
M  V30 486 H 43.831 -5.65375 0.191595 0
M  V30 487 H 42.388 -6.48991 0.60449 0
M  V30 488 N 45.8211 -1.22559 -0.990812 0
M  V30 489 C 47.0671 -1.06303 -1.73411 0
M  V30 490 C 47.4221 0.397442 -1.8825 0
M  V30 491 O 46.7151 1.29062 -1.41611 0
M  V30 492 C 46.9091 -1.71011 -3.13831 0
M  V30 493 C 46.7381 -3.232 -3.12685 0
M  V30 494 C 45.5081 -3.92314 -3.18461 0
M  V30 495 C 47.7061 -4.20107 -2.96673 0
M  V30 496 N 45.6881 -5.31571 -3.07091 0
M  V30 497 C 47.0591 -5.46208 -2.93354 0
M  V30 498 C 49.1141 -4.10973 -2.8108 0
M  V30 499 C 47.8171 -6.64225 -2.76039 0
M  V30 500 C 49.8431 -5.28642 -2.65126 0
M  V30 501 C 49.2051 -6.53663 -2.62496 0
M  V30 502 H 45.3041 -0.443441 -0.644115 0
M  V30 503 H 47.8881 -1.55131 -1.17654 0
M  V30 504 H 46.0591 -1.2473 -3.67827 0
M  V30 505 H 47.7911 -1.47828 -3.76735 0
M  V30 506 H 44.5461 -3.43326 -3.26227 0
M  V30 507 H 44.9701 -6.0455 -3.0471 0
M  V30 508 H 49.6121 -3.15098 -2.8191 0
M  V30 509 H 47.3301 -7.60246 -2.73954 0
M  V30 510 H 50.9161 -5.23407 -2.54039 0
M  V30 511 H 49.7961 -7.43182 -2.50302 0
M  V30 512 N 47.2992 1.18797 -1.03562 0
M  V30 513 C 48.2462 2.22253 -0.622259 0
M  V30 514 C 49.2162 1.61987 0.36736 0
M  V30 515 O 50.4012 1.88986 0.262492 0
M  V30 516 C 47.5412 3.45097 0.0138462 0
M  V30 517 C 46.6542 4.19722 -1.02263 0
M  V30 518 C 45.7892 5.30009 -0.355573 0
M  V30 519 C 44.8282 5.96399 -1.37749 0
M  V30 520 N 43.9652 6.98234 -0.735766 0
M  V30 521 H 48.8052 2.56968 -1.50903 0
M  V30 522 H 46.3422 1.26245 -0.755017 0
M  V30 523 H 48.3002 4.15279 0.399948 0
M  V30 524 H 46.9302 3.11018 0.864158 0
M  V30 525 H 45.9822 3.48418 -1.52673 0
M  V30 526 H 47.2942 4.65227 -1.79903 0
M  V30 527 H 46.4482 6.0664 0.0850095 0
M  V30 528 H 45.1872 4.85592 0.452967 0
M  V30 529 H 44.1922 5.18512 -1.82826 0
M  V30 530 H 45.4172 6.42899 -2.18764 0
M  V30 531 H 43.3632 6.55979 0.0525597 0
M  V30 532 H 43.2802 7.41965 -1.44995 0
M  V30 533 H 44.5482 7.78845 -0.31941 0
M  V30 534 N 48.7773 0.814389 1.34928 0
M  V30 535 C 49.7403 0.235759 2.27984 0
M  V30 536 C 50.7403 -0.581412 1.49921 0
M  V30 537 O 51.9303 -0.398758 1.69575 0
M  V30 538 C 49.0623 -0.670433 3.34242 0
M  V30 539 H 50.2553 1.05659 2.80671 0
M  V30 540 H 47.8083 0.585614 1.44915 0
M  V30 541 H 48.5433 -1.51466 2.86755 0
M  V30 542 H 48.3283 -0.0860822 3.92005 0
M  V30 543 H 49.8183 -1.06935 4.03676 0
M  V30 544 N 50.2554 -1.46986 0.568584 0
M  V30 545 C 51.4834 -2.0683 0.0539956 0
M  V30 546 C 51.8984 -1.41953 -1.24478 0
M  V30 547 O 51.2554 -0.519933 -1.74937 0
M  V30 548 C 51.3064 -3.61254 -0.133362 0
M  V30 549 O 51.0274 -4.237 1.11399 0
M  V30 550 C 52.5284 -4.37992 -0.683927 0
M  V30 551 H 49.7484 -0.669058 0.0510141 0
M  V30 552 H 52.2924 -1.88824 0.785234 0
M  V30 553 H 50.4474 -3.78735 -0.81477 0
M  V30 554 H 50.8614 -5.16388 0.91888 0
M  V30 555 H 52.3354 -5.46684 -0.764263 0
M  V30 556 H 52.8124 -4.05058 -1.69778 0
M  V30 557 H 53.4184 -4.25283 -0.0378494 0
M  V30 558 N 51.7335 -0.305618 -1.54608 0
M  V30 559 C 52.6835 0.583595 -2.20405 0
M  V30 560 C 53.6675 1.09539 -1.17856 0
M  V30 561 O 54.8595 1.0354 -1.43557 0
M  V30 562 C 51.9885 1.75277 -2.95183 0
M  V30 563 C 51.0745 1.25672 -4.05052 0
M  V30 564 N 51.4655 0.478998 -5.03527 0
M  V30 565 C 49.7635 1.53704 -4.18678 0
M  V30 566 C 50.4645 0.214269 -5.81305 0
M  V30 567 N 49.4405 0.795374 -5.3775 0
M  V30 568 H 53.2425 -0.0180946 -2.93894 0
M  V30 569 H 50.7565 -0.110601 -1.62023 0
M  V30 570 H 52.7535 2.4014 -3.40791 0
M  V30 571 H 51.4135 2.35812 -2.23211 0
M  V30 572 H 52.4245 0.123473 -5.17753 0
M  V30 573 H 49.1015 2.14954 -3.57912 0
M  V30 574 H 50.4915 -0.410656 -6.70644 0
M  V30 575 N 53.2116 1.57565 -0.0334293 0
M  V30 576 C 54.6276 1.56297 0.322997 0
M  V30 577 C 54.8276 1.03945 1.7262 0
M  V30 578 O 53.8836 0.688109 2.42943 0
M  V30 579 C 55.1966 3.00232 0.167664 0
M  V30 580 C 56.7446 3.12078 0.240107 0
M  V30 581 C 57.2196 4.57859 0.113513 0
M  V30 582 N 58.7106 4.62887 0.170359 0
M  V30 583 C 59.4456 5.73319 0.0962517 0
M  V30 584 N 58.9416 6.92794 -0.0291881 0
M  V30 585 N 60.7346 5.61898 0.150551 0
M  V30 586 H 52.8856 1.89923 -0.950956 0
M  V30 587 H 55.1486 0.873824 -0.367608 0
M  V30 588 H 54.8546 3.42501 -0.799102 0
M  V30 589 H 54.7286 3.654 0.936083 0
M  V30 590 H 57.1156 2.69718 1.19733 0
M  V30 591 H 57.1966 2.49623 -0.558763 0
M  V30 592 H 56.8406 5.009 -0.840314 0
M  V30 593 H 56.7706 5.18299 0.931302 0
M  V30 594 H 59.2616 3.76954 0.26728 0
M  V30 595 H 59.5746 7.7276 -0.0789252 0
M  V30 596 H 57.9196 6.94971 -0.0640299 0
M  V30 597 H 61.1106 4.67448 0.246981 0
M  V30 598 H 61.2836 6.47938 0.0893365 0
M  V30 599 N 54.6897 -0.239769 1.55765 0
M  V30 600 C 56.1057 -0.588624 1.48349 0
M  V30 601 C 56.3057 -1.88005 0.72502 0
M  V30 602 O 55.3617 -2.51186 0.257269 0
M  V30 603 C 56.6747 -0.68474 2.928 0
M  V30 604 C 58.2227 -0.77659 3.03213 0
M  V30 605 C 58.6977 -0.904207 4.48986 0
M  V30 606 N 60.1887 -0.968896 4.52953 0
M  V30 607 C 60.9237 -1.08703 5.63002 0
M  V30 608 N 60.4197 -1.17026 6.82845 0
M  V30 609 N 62.2127 -1.12074 5.50814 0
M  V30 610 H 54.3637 0.607911 2.03515 0
M  V30 611 H 56.6267 0.21083 0.924259 0
M  V30 612 H 56.3327 0.194284 3.51163 0
M  V30 613 H 56.2067 -1.55435 3.43686 0
M  V30 614 H 58.5937 -1.64606 2.44926 0
M  V30 615 H 58.6747 0.118315 2.55526 0
M  V30 616 H 58.3187 -0.0392633 5.07885 0
M  V30 617 H 58.2487 -1.81426 4.9436 0
M  V30 618 H 60.7397 -0.915633 3.6664 0
M  V30 619 H 61.0527 -1.25966 7.62465 0
M  V30 620 H 59.3977 -1.13971 6.85591 0
M  V30 621 H 62.5887 -1.05226 4.5612 0
M  V30 622 H 62.7617 -1.20936 6.36615 0
M  V30 623 N 56.1678 -1.49265 -0.50573 0
M  V30 624 C 57.0978 -1.68495 -1.61653 0
M  V30 625 C 58.0788 -0.53366 -1.61512 0
M  V30 626 O 59.2638 -0.76897 -1.78327 0
M  V30 627 C 56.3938 -1.74709 -3.00157 0
M  V30 628 C 55.3478 -2.89581 -3.15162 0
M  V30 629 C 54.6738 -2.80903 -4.5497 0
M  V30 630 C 55.9738 -4.30578 -2.95634 0
M  V30 631 H 57.6678 -2.61493 -1.45814 0
M  V30 632 H 55.2138 -1.25838 -0.70005 0
M  V30 633 H 57.1668 -1.86748 -3.77761 0
M  V30 634 H 55.8908 -0.783067 -3.17074 0
M  V30 635 H 54.5498 -2.77136 -2.39982 0
M  V30 636 H 54.1978 -1.82419 -4.68756 0
M  V30 637 H 53.8978 -3.57999 -4.65951 0
M  V30 638 H 55.4218 -2.94944 -5.34641 0
M  V30 639 H 56.8358 -4.4373 -3.63011 0
M  V30 640 H 55.2328 -5.0886 -3.18091 0
M  V30 641 H 56.3028 -4.45352 -1.91806 0
M  V30 642 N 57.6459 0.756429 -1.3826 0
M  V30 643 C 58.8759 1.54341 -1.3734 0
M  V30 644 C 59.2839 1.89159 0.0393917 0
M  V30 645 O 58.6269 1.5307 1.01565 0
M  V30 646 C 58.6889 2.87238 -2.16182 0
M  V30 647 C 58.3529 2.74973 -3.65019 0
M  V30 648 C 59.3499 2.44962 -4.58574 0
M  V30 649 C 57.0349 2.92515 -4.08338 0
M  V30 650 C 59.0289 2.32642 -5.93428 0
M  V30 651 C 56.7159 2.79815 -5.43274 0
M  V30 652 C 57.7139 2.49921 -6.35632 0
M  V30 653 O 57.4019 2.37275 -7.68086 0
M  V30 654 H 57.1339 0.484281 -0.471643 0
M  V30 655 H 59.6879 0.944152 -1.82414 0
M  V30 656 H 57.9179 3.49342 -1.65822 0
M  V30 657 H 59.6069 3.48731 -2.07705 0
M  V30 658 H 60.3729 2.31081 -4.26412 0
M  V30 659 H 56.2519 3.14781 -3.368 0
M  V30 660 H 59.7959 2.0923 -6.65484 0
M  V30 661 H 55.6929 2.93269 -5.75034 0
M  V30 662 H 56.4609 2.52509 -7.78577 0
M  V30 663 N 59.124 1.23083 0.984299 0
M  V30 664 C 60.372 1.05848 1.72165 0
M  V30 665 C 60.693 -0.406049 1.90726 0
M  V30 666 O 59.963 -1.29139 1.47309 0
M  V30 667 H 58.543 0.388685 0.637913 0
M  V30 668 H 61.205 1.54736 1.18503 0
M  V30 669 H 60.301 1.54327 2.71274 0
M  V30 670 N 60.6021 -1.18246 1.0419 0
M  V30 671 C 61.5651 -2.20128 0.638452 0
M  V30 672 C 62.5651 -1.57885 -0.304805 0
M  V30 673 O 63.7551 -1.73967 -0.0900369 0
M  V30 674 C 60.8871 -3.4084 -0.0637751 0
M  V30 675 H 62.0801 -2.57336 1.54007 0
M  V30 676 H 59.6331 -1.32152 0.834598 0
M  V30 677 H 60.3681 -3.09166 -0.979136 0
M  V30 678 H 60.1531 -3.8726 0.614198 0
M  V30 679 H 61.6431 -4.16274 -0.332512 0
M  V30 680 N 62.0802 -0.821533 -1.34494 0
M  V30 681 C 63.0282 -0.230702 -2.31453 0
M  V30 682 C 64.0222 0.627793 -1.57338 0
M  V30 683 O 65.2282 0.519288 -1.72347 0
M  V30 684 H 61.6032 -0.0558577 -0.749923 0
M  V30 685 H 63.5742 -1.06332 -2.78812 0
M  V30 686 C 62.3232 0.59391 -3.4259 0
M  V30 687 H 61.6462 -0.0573588 -3.99759 0
M  V30 688 H 63.0862 0.973446 -4.12674 0
M  V30 689 C 61.5452 1.76568 -2.86924 0
M  V30 690 O 62.0752 2.8638 -2.81691 0
M  V30 691 N 60.2812 1.58198 -2.43766 0
M  V30 692 H 59.8282 0.68872 -2.48222 0
M  V30 693 H 59.7862 2.36752 -2.06871 0
M  V30 694 N 63.5583 1.46682 -0.576371 0
M  V30 695 C 64.4683 2.34032 0.163141 0
M  V30 696 C 65.4843 1.49367 0.892501 0
M  V30 697 O 66.6603 1.82252 0.857106 0
M  V30 698 C 63.7253 3.26435 1.16795 0
M  V30 699 C 62.7863 4.26998 0.443944 0
M  V30 700 C 62.0193 5.14986 1.40088 0
M  V30 701 O 62.2423 5.05785 2.637 0
M  V30 702 O 61.1763 5.94906 0.914917 0
M  V30 703 H 65.0023 2.98607 -0.55388 0
M  V30 704 H 62.5873 1.45554 -0.336821 0
M  V30 705 H 64.4693 3.83459 1.74748 0
M  V30 706 H 63.1443 2.64465 1.86655 0
M  V30 707 H 62.0513 3.7368 -0.177271 0
M  V30 708 H 63.3843 4.91736 -0.213566 0
M  V30 709 N 65.0364 0.313813 1.54444 0
M  V30 710 C 65.9464 -0.565714 2.27677 0
M  V30 711 C 66.9624 -1.13754 1.31666 0
M  V30 712 O 68.1384 -1.15959 1.64668 0
M  V30 713 C 65.2034 -1.71528 3.01296 0
M  V30 714 C 64.2644 -1.17624 4.12872 0
M  V30 715 C 63.4974 -2.27102 4.8297 0
M  V30 716 O 63.7204 -3.47256 4.52514 0
M  V30 717 O 62.6544 -1.9307 5.70094 0
M  V30 718 H 66.4804 0.0287296 3.03686 0
M  V30 719 H 64.0654 0.0798312 1.49187 0
M  V30 720 H 65.9474 -2.38476 3.4743 0
M  V30 721 H 64.6224 -2.29608 2.2817 0
M  V30 722 H 63.5294 -0.472124 3.71109 0
M  V30 723 H 64.8624 -0.640695 4.88012 0
M  V30 724 N 66.5145 -1.57545 0.0417849 0
M  V30 725 C 67.7625 -1.91937 -0.632829 0
M  V30 726 C 68.0835 -0.919978 -1.71934 0
M  V30 727 O 67.3535 0.0366064 -1.95866 0
M  V30 728 H 65.9335 -0.708493 -0.236742 0
M  V30 729 H 68.5955 -1.9468 0.0925745 0
M  V30 730 H 67.6915 -2.92912 -1.07746 0
M  V30 731 N 67.9926 0.231505 -1.5589 0
M  V30 732 C 69.2386 0.954429 -1.79617 0
M  V30 733 C 69.5936 1.82367 -0.613199 0
M  V30 734 O 68.8866 1.87524 0.393094 0
M  V30 735 C 69.0806 1.83577 -3.0665 0
M  V30 736 C 68.9096 1.05334 -4.3719 0
M  V30 737 C 67.6796 0.75225 -4.99669 0
M  V30 738 C 69.8776 0.423444 -5.12554 0
M  V30 739 N 67.8596 -0.052627 -6.13877 0
M  V30 740 C 69.2306 -0.245287 -6.19515 0
M  V30 741 C 71.2856 0.335466 -4.96769 0
M  V30 742 C 69.9886 -0.993566 -7.12405 0
M  V30 743 C 72.0146 -0.399321 -5.9005 0
M  V30 744 C 71.3766 -1.05663 -6.9643 0
M  V30 745 H 67.4756 0.329846 -0.709031 0
M  V30 746 H 70.0596 0.226172 -1.93382 0
M  V30 747 H 68.2306 2.53592 -2.94186 0
M  V30 748 H 69.9626 2.49541 -3.18608 0
M  V30 749 H 66.7176 1.06783 -4.61405 0
M  V30 750 H 67.1416 -0.443609 -6.75545 0
M  V30 751 H 71.7836 0.829311 -4.14587 0
M  V30 752 H 69.5016 -1.49896 -7.94076 0
M  V30 753 H 73.0876 -0.468265 -5.79913 0
M  V30 754 H 71.9676 -1.61612 -7.67366 0
M  V30 755 N 69.4707 1.49531 0.497807 0
M  V30 756 C 70.8867 1.36365 0.829266 0
M  V30 757 C 71.0867 0.399184 1.97506 0
M  V30 758 O 70.1427 -0.167977 2.51941 0
M  V30 759 C 71.4557 2.77153 1.16647 0
M  V30 760 C 73.0037 2.85877 1.27449 0
M  V30 761 C 73.4787 4.2744 1.64497 0
M  V30 762 N 74.9697 4.30265 1.7154 0
M  V30 763 C 75.7047 5.3677 2.01656 0
M  V30 764 N 75.2007 6.53516 2.29976 0
M  V30 765 N 76.9937 5.24189 2.02934 0
M  V30 766 H 69.1447 2.10831 -0.257703 0
M  V30 767 H 71.4077 0.946534 -0.0527091 0
M  V30 768 H 71.1137 3.49442 0.397872 0
M  V30 769 H 70.9877 3.12722 2.10915 0
M  V30 770 H 73.3747 2.13824 2.0338 0
M  V30 771 H 73.4557 2.53887 0.312244 0
M  V30 772 H 73.0997 5.00021 0.891151 0
M  V30 773 H 73.0297 4.56896 2.61827 0
M  V30 774 H 75.5207 3.4607 1.51802 0
M  V30 775 H 75.8337 7.30506 2.52153 0
M  V30 776 H 74.1787 6.56737 2.27425 0
M  V30 777 H 77.3697 4.31988 1.80289 0
M  V30 778 H 77.5427 6.07286 2.26071 0
M  V30 779 N 70.9488 -0.749086 1.3866 0
M  V30 780 C 72.3648 -1.05276 1.19955 0
M  V30 781 C 72.5648 -2.01435 0.05134 0
M  V30 782 O 71.6208 -2.45232 -0.60147 0
M  V30 783 C 72.9338 -1.62853 2.52783 0
M  V30 784 C 74.4818 -1.75002 2.59506 0
M  V30 785 C 74.9568 -2.35991 3.92521 0
M  V30 786 N 76.4478 -2.43416 3.94085 0
M  V30 787 C 77.1828 -2.91511 4.9377 0
M  V30 788 N 76.6788 -3.39608 6.03853 0
M  V30 789 N 78.4718 -2.90592 4.81157 0
M  V30 790 H 70.6228 -0.111066 2.12109 0
M  V30 791 H 72.8858 -0.111901 0.941373 0
M  V30 792 H 72.5918 -0.99664 3.37283 0
M  V30 793 H 72.4658 -2.61854 2.715 0
M  V30 794 H 74.8528 -2.37317 1.75398 0
M  V30 795 H 74.9338 -0.74693 2.44652 0
M  V30 796 H 74.5778 -1.74308 4.77053 0
M  V30 797 H 74.5078 -3.3695 4.04688 0
M  V30 798 H 76.9988 -2.09405 3.14576 0
M  V30 799 H 77.3118 -3.74775 6.75843 0
M  V30 800 H 75.6568 -3.37653 6.07466 0
M  V30 801 H 78.8478 -2.52332 3.94267 0
M  V30 802 H 79.0208 -3.27762 5.58996 0
M  V30 803 N 72.4269 -1.23603 -0.977757 0
M  V30 804 C 73.3899 -1.02069 -2.05218 0
M  V30 805 C 74.3899 0.0184305 -1.60789 0
M  V30 806 O 75.5799 -0.221569 -1.72785 0
M  V30 807 C 72.7119 -0.544926 -3.36517 0
M  V30 808 H 73.9049 -1.9742 -2.25755 0
M  V30 809 H 71.4579 -1.05684 -1.15155 0
M  V30 810 H 72.1929 0.412241 -3.21669 0
M  V30 811 H 71.9779 -1.2948 -3.70105 0
M  V30 812 H 73.4679 -0.414985 -4.15533 0
M  V30 813 N 73.905 1.17692 -1.04816 0
M  V30 814 C 75.151 1.88137 -0.75711 0
M  V30 815 C 75.484 1.80604 0.713841 0
M  V30 816 O 74.759 1.21146 1.52164 0
M  V30 817 C 75.042 3.38318 -1.2334 0
M  V30 818 C 74.895 3.54622 -2.76701 0
M  V30 819 C 76.214 4.32214 -0.829415 0
M  V30 820 H 73.333 0.683163 -0.27651 0
M  V30 821 H 75.975 1.38424 -1.30149 0
M  V30 822 H 74.125 3.80787 -0.770286 0
M  V30 823 H 75.797 3.21194 -3.31107 0
M  V30 824 H 74.04 2.97026 -3.16161 0
M  V30 825 H 74.711 4.60028 -3.05088 0
M  V30 826 H 77.187 3.97565 -1.22805 0
M  V30 827 H 76.063 5.35838 -1.19033 0
M  V30 828 H 76.324 4.41294 0.266891 0
M  V30 829 N 75.3831 0.828654 1.34056 0
M  V30 830 C 76.6291 0.429279 1.98818 0
M  V30 831 C 76.9841 -0.998011 1.64492 0
M  V30 832 O 76.2771 -1.68652 0.909228 0
M  V30 833 C 76.4711 0.575226 3.52741 0
M  V30 834 C 76.3001 2.01515 4.02022 0
M  V30 835 C 75.0701 2.64825 4.30344 0
M  V30 836 C 77.2681 2.98261 4.18981 0
M  V30 837 N 75.2501 3.99998 4.65698 0
M  V30 838 C 76.6211 4.18356 4.57578 0
M  V30 839 C 78.6761 2.94802 4.01243 0
M  V30 840 C 77.3791 5.35454 4.80293 0
M  V30 841 C 79.4051 4.11121 4.25128 0
M  V30 842 C 78.7671 5.29969 4.64018 0
M  V30 843 H 74.8661 0.205304 0.754569 0
M  V30 844 H 77.4501 1.07457 1.62361 0
M  V30 845 H 75.6211 -0.0401962 3.88379 0
M  V30 846 H 77.3531 0.148292 4.04428 0
M  V30 847 H 74.1081 2.16027 4.21461 0
M  V30 848 H 74.5321 4.69653 4.87601 0
M  V30 849 H 79.1741 2.04054 3.70299 0
M  V30 850 H 76.8921 6.26755 5.10102 0
M  V30 851 H 80.4781 4.0985 4.12934 0
M  V30 852 H 79.3581 6.18479 4.82134 0
M  V30 853 N 76.8612 -1.46375 0.584142 0
M  V30 854 C 77.7712 -2.34115 -0.150728 0
M  V30 855 C 78.7872 -1.49838 -0.884567 0
M  V30 856 O 79.9632 -1.82704 -0.847429 0
M  V30 857 C 77.0282 -3.2705 -1.15062 0
M  V30 858 C 76.0892 -4.27228 -0.421293 0
M  V30 859 C 75.3222 -5.15722 -1.37355 0
M  V30 860 O 75.5452 -5.07176 -2.61014 0
M  V30 861 O 74.4792 -5.95383 -0.883355 0
M  V30 862 H 78.3052 -2.98309 0.569708 0
M  V30 863 H 75.8902 -1.45373 0.344535 0
M  V30 864 H 77.7722 -3.84381 -1.72712 0
M  V30 865 H 76.4472 -2.65451 -1.8525 0
M  V30 866 H 75.3542 -3.7358 0.197085 0
M  V30 867 H 76.6872 -4.91616 0.239641 0
M  V30 868 N 78.3393 -0.321999 -1.54275 0
M  V30 869 C 79.2863 0.544664 -2.24281 0
M  V30 870 C 80.2563 1.1129 -1.23303 0
M  V30 871 O 81.4413 1.15354 -1.51981 0
M  V30 872 C 78.5813 1.70045 -3.00298 0
M  V30 873 C 77.6943 1.16159 -4.1609 0
M  V30 874 C 76.8293 2.28293 -4.79641 0
M  V30 875 C 75.8683 1.71648 -5.8754 0
M  V30 876 N 75.0053 2.77438 -6.44959 0
M  V30 877 H 79.8453 -0.0588907 -2.97942 0
M  V30 878 H 77.3823 -0.0408345 -1.47043 0
M  V30 879 H 79.3403 2.38054 -3.42616 0
M  V30 880 H 77.9703 2.27531 -2.28975 0
M  V30 881 H 77.0223 0.373092 -3.78566 0
M  V30 882 H 78.3343 0.707087 -4.93763 0
M  V30 883 H 77.4883 3.0421 -5.2492 0
M  V30 884 H 76.2273 2.77079 -4.01346 0
M  V30 885 H 75.2323 0.942282 -5.41665 0
M  V30 886 H 76.4573 1.23741 -6.67731 0
M  V30 887 H 74.4033 3.25519 -5.69538 0
M  V30 888 H 74.3203 2.36547 -7.1804 0
M  V30 889 H 75.5883 3.53189 -6.94894 0
M  V30 890 N 79.8174 1.5752 -0.0501392 0
M  V30 891 C 80.7654 2.12651 0.942459 0
M  V30 892 C 81.7594 1.05807 1.32292 0
M  V30 893 O 82.9654 1.24217 1.3027 0
M  V30 894 H 79.3404 0.679673 0.321789 0
M  V30 895 H 81.3114 2.94951 0.452356 0
M  V30 896 C 80.0604 2.68565 2.20836 0
M  V30 897 H 79.3834 3.50439 1.92439 0
M  V30 898 H 80.8234 3.10761 2.8845 0
M  V30 899 C 79.2824 1.62291 2.95234 0
M  V30 900 O 79.8124 1.03508 3.88135 0
M  V30 901 N 78.0184 1.33836 2.57946 0
M  V30 902 H 77.5654 1.81826 1.82475 0
M  V30 903 H 77.5234 0.629595 3.08032 0
M  V30 904 N 81.2955 -0.223234 1.56011 0
M  V30 905 C 82.2285 -1.30377 1.87289 0
M  V30 906 C 83.2065 -1.45286 0.730112 0
M  V30 907 O 84.3905 -1.61126 0.978302 0
M  V30 908 C 81.5175 -2.67431 2.07843 0
M  V30 909 C 80.5635 -2.69546 3.30526 0
M  V30 910 S 81.3965 -2.23781 4.865 0
M  V30 911 C 82.5525 -3.62714 5.10088 0
M  V30 912 H 82.7855 -1.03652 2.78646 0
M  V30 913 H 80.3185 -0.425393 1.48424 0
M  V30 914 H 82.2765 -3.46336 2.20368 0
M  V30 915 H 80.9375 -2.91381 1.17285 0
M  V30 916 H 80.1305 -3.70255 3.41947 0
M  V30 917 H 79.7325 -1.98703 3.16849 0
M  V30 918 H 82.0245 -4.58391 4.98883 0
M  V30 919 H 82.9675 -3.5621 6.11981 0
M  V30 920 H 83.3755 -3.56323 4.37829 0
M  V30 921 N 82.7736 -1.49793 -0.48987 0
M  V30 922 C 83.7206 -1.67281 -1.59014 0
M  V30 923 C 84.6906 -0.514177 -1.57941 0
M  V30 924 O 85.8756 -0.742533 -1.75759 0
M  V30 925 C 83.0156 -1.75569 -2.97102 0
M  V30 926 C 82.1286 -3.0281 -3.08107 0
M  V30 927 C 81.2636 -3.02008 -4.36995 0
M  V30 928 C 80.3026 -4.23782 -4.41673 0
M  V30 929 N 79.4396 -4.20826 -5.62005 0
M  V30 930 H 84.2796 -2.61224 -1.43409 0
M  V30 931 H 81.8166 -1.29508 -0.697565 0
M  V30 932 H 83.7746 -1.78354 -3.77155 0
M  V30 933 H 82.4046 -0.850827 -3.11385 0
M  V30 934 H 81.4566 -3.09584 -2.21047 0
M  V30 935 H 82.7686 -3.92801 -3.07423 0
M  V30 936 H 81.9226 -3.03418 -5.25378 0
M  V30 937 H 80.6616 -2.09815 -4.4026 0
M  V30 938 H 79.6666 -4.22604 -3.5169 0
M  V30 939 H 80.8916 -5.17181 -4.40115 0
M  V30 940 H 78.8376 -3.31476 -5.66091 0
M  V30 941 H 78.7546 -5.04564 -5.62984 0
M  V30 942 H 80.0226 -4.26355 -6.52565 0
M  V30 943 N 84.2517 0.741722 -1.39055 0
M  V30 944 C 85.1847 1.86416 -1.31622 0
M  V30 945 C 86.1627 1.61473 -0.191076 0
M  V30 946 O 87.3467 1.84825 -0.370399 0
M  V30 947 C 84.4737 3.22266 -1.04221 0
M  V30 948 C 83.5197 3.66079 -2.18834 0
M  V30 949 S 84.3527 3.7623 -3.81066 0
M  V30 950 C 85.5087 5.14881 -3.55877 0
M  V30 951 H 85.7417 1.92437 -2.26617 0
M  V30 952 H 83.2747 0.905907 -1.25031 0
M  V30 953 H 85.2327 4.00714 -0.890964 0
M  V30 954 H 83.8937 3.1391 -0.109237 0
M  V30 955 H 83.0867 4.64648 -1.95238 0
M  V30 956 H 82.6887 2.94817 -2.30128 0
M  V30 957 H 84.9807 6.01006 -3.12726 0
M  V30 958 H 85.9237 5.43503 -4.53884 0
M  V30 959 H 86.3317 4.84239 -2.90126 0
M  V30 960 N 85.7298 1.2412 0.971189 0
M  V30 961 C 86.9788 1.07284 1.70801 0
M  V30 962 C 87.2918 -0.388902 1.91695 0
M  V30 963 O 88.4978 -0.677379 2.62914 0
M  V30 964 C 86.9538 1.87145 3.07416 0
M  V30 965 C 86.5618 3.37707 2.94377 0
M  V30 966 C 88.3058 1.78828 3.84995 0
M  V30 967 C 86.2128 4.09925 4.26281 0
M  V30 968 H 85.1428 0.397854 0.64049 0
M  V30 969 H 87.7938 1.4817 1.0825 0
M  V30 970 H 86.1758 1.39071 3.70777 0
M  V30 971 H 87.3498 3.93335 2.4005 0
M  V30 972 H 85.6648 3.46938 2.30267 0
M  V30 973 H 88.2618 2.30089 4.82662 0
M  V30 974 H 88.6048 0.75284 4.09436 0
M  V30 975 H 89.1378 2.24563 3.28354 0
M  V30 976 H 85.8768 5.13813 4.07033 0
M  V30 977 H 85.3968 3.59083 4.80437 0
M  V30 978 H 87.0758 4.1673 4.94919 0
M  V30 979 N 87.2079 -1.17134 1.05439 0
M  V30 980 C 88.1179 -2.24878 0.668365 0
M  V30 981 C 89.1339 -1.71186 -0.311687 0
M  V30 982 O 90.3099 -2.00738 -0.163161 0
M  V30 983 C 87.3749 -3.46662 0.051648 0
M  V30 984 C 86.4359 -4.15429 1.08246 0
M  V30 985 C 85.6689 -5.31399 0.495082 0
M  V30 986 O 85.8919 -5.66153 -0.694743 0
M  V30 987 O 84.8259 -5.89187 1.23056 0
M  V30 988 H 88.6519 -2.60189 1.56637 0
M  V30 989 H 86.2369 -1.24482 0.826104 0
M  V30 990 H 88.1189 -4.20394 -0.290966 0
M  V30 991 H 86.7939 -3.13142 -0.819971 0
M  V30 992 H 85.7009 -3.43704 1.47711 0
M  V30 993 H 87.0339 -4.52982 1.92532 0
M  V30 994 N 88.686 -0.835752 -1.33615 0
M  V30 995 C 89.616 -0.281739 -2.31794 0
M  V30 996 C 90.597 0.608833 -1.58831 0
M  V30 997 O 91.782 0.533035 -1.86741 0
M  V30 998 C 88.912 0.546612 -3.42971 0
M  V30 999 C 87.866 -0.247904 -4.27281 0
M  V30 1000 C 87.192 0.704001 -5.30045 0
M  V30 1001 C 88.492 -1.46324 -5.01385 0
M  V30 1002 H 90.186 -1.10206 -2.78379 0
M  V30 1003 H 87.732 -0.531388 -1.33837 0
M  V30 1004 H 89.685 0.944467 -4.1068 0
M  V30 1005 H 88.409 1.40011 -2.95067 0
M  V30 1006 H 87.068 -0.627281 -3.61194 0
M  V30 1007 H 86.716 1.55381 -4.78399 0
M  V30 1008 H 86.416 0.176524 -5.87335 0
M  V30 1009 H 87.94 1.09944 -6.0062 0
M  V30 1010 H 89.354 -1.13871 -5.61877 0
M  V30 1011 H 87.751 -1.92728 -5.6831 0
M  V30 1012 H 88.821 -2.23467 -4.30338 0
M  V30 1013 N 90.1641 1.46063 -0.591896 0
M  V30 1014 C 91.1141 2.27458 0.157172 0
M  V30 1015 C 92.0981 1.3641 0.853301 0
M  V30 1016 O 93.2901 1.60517 0.74588 0
M  V30 1017 C 90.4191 3.22956 1.16423 0
M  V30 1018 C 89.5051 4.2149 0.469742 0
M  V30 1019 N 89.8961 5.03519 -0.479839 0
M  V30 1020 C 88.1941 4.40161 0.719319 0
M  V30 1021 C 88.8951 5.74904 -0.886591 0
M  V30 1022 N 87.8711 5.43097 -0.233731 0
M  V30 1023 H 91.6731 2.88272 -0.572392 0
M  V30 1024 H 89.1871 1.57024 -0.414375 0
M  V30 1025 H 91.1841 3.79986 1.71513 0
M  V30 1026 H 89.8441 2.63701 1.89451 0
M  V30 1027 H 90.8551 5.1078 -0.855823 0
M  V30 1028 H 87.5321 3.92046 1.43548 0
M  V30 1029 H 88.9221 6.50844 -1.66888 0
M  V30 1030 N 91.6422 0.330177 1.54103 0
M  V30 1031 C 92.5902 -0.548226 2.26047 0
M  V30 1032 C 93.5842 -1.11309 1.27698 0
M  V30 1033 O 94.7902 -1.06036 1.45452 0
M  V30 1034 H 91.1652 -0.195456 0.726155 0
M  V30 1035 H 93.1362 0.0807567 2.98291 0
M  V30 1036 C 91.8852 -1.69415 3.03634 0
M  V30 1037 H 91.2082 -1.26876 3.79134 0
M  V30 1038 H 92.6482 -2.28423 3.5721 0
M  V30 1039 C 91.1072 -2.61569 2.12328 0
M  V30 1040 O 91.6372 -3.63462 1.7105 0
M  V30 1041 N 89.8432 -2.29952 1.77681 0
M  V30 1042 H 89.3902 -1.47134 2.11446 0
M  V30 1043 H 89.3482 -2.91871 1.16869 0
M  V30 1044 N 93.1203 -1.57491 0.0584922 0
M  V30 1045 C 94.3683 -1.92597 -0.612436 0
M  V30 1046 C 94.6893 -0.938162 -1.70949 0
M  V30 1047 O 93.9593 0.0158301 -1.95894 0
M  V30 1048 H 92.5393 -0.710964 -0.229214 0
M  V30 1049 H 95.2013 -1.94571 0.113218 0
M  V30 1050 H 94.2973 -2.94038 -1.04633 0
M  V30 1051 N 94.5984 0.214957 -1.56127 0
M  V30 1052 C 95.5084 1.28727 -1.96129 0
M  V30 1053 C 96.5244 1.50916 -0.866044 0
M  V30 1054 O 97.7004 1.63918 -1.17016 0
M  V30 1055 C 94.7654 2.61569 -2.27558 0
M  V30 1056 C 93.8264 2.47625 -3.50685 0
M  V30 1057 C 93.0594 3.74132 -3.80606 0
M  V30 1058 O 93.2824 4.77438 -3.12104 0
M  V30 1059 O 92.2164 3.70849 -4.74083 0
M  V30 1060 H 96.0424 0.977855 -2.87527 0
M  V30 1061 H 93.6274 0.418358 -1.43423 0
M  V30 1062 H 95.5094 3.40012 -2.48938 0
M  V30 1063 H 94.1844 2.92178 -1.39332 0
M  V30 1064 H 93.0914 1.67361 -3.34576 0
M  V30 1065 H 94.4244 2.21954 -4.39315 0
M  V30 1066 N 96.0765 1.50051 0.48192 0
M  V30 1067 C 97.3065 1.63999 1.2565 0
M  V30 1068 C 97.7145 0.318288 1.86504 0
M  V30 1069 O 97.0575 -0.708534 1.69486 0
M  V30 1070 C 97.1195 2.66504 2.4128 0
M  V30 1071 C 96.7835 4.10352 2.01148 0
M  V30 1072 C 97.7805 4.96562 1.54021 0
M  V30 1073 C 95.4655 4.56203 2.10199 0
M  V30 1074 C 97.4595 6.26668 1.16473 0
M  V30 1075 C 95.1465 5.86318 1.72264 0
M  V30 1076 C 96.1445 6.71375 1.25477 0
M  V30 1077 O 95.8325 7.99062 0.880626 0
M  V30 1078 H 95.5645 0.55456 0.386574 0
M  V30 1079 H 98.1185 1.96954 0.582944 0
M  V30 1080 H 96.3485 2.28769 3.11772 0
M  V30 1081 H 98.0375 2.69783 3.03268 0
M  V30 1082 H 98.8035 4.62358 1.46458 0
M  V30 1083 H 94.6825 3.90152 2.45566 0
M  V30 1084 H 98.2265 6.93011 0.798841 0
M  V30 1085 H 94.1235 6.20046 1.79482 0
M  V30 1086 H 94.8915 8.12239 1.01043 0
M  V30 1087 N 97.5546 -0.734337 1.39446 0
M  V30 1088 C 98.7796 -1.52866 1.40167 0
M  V30 1089 C 99.2046 -1.881 -0.00171513 0
M  V30 1090 O 98.5626 -1.51957 -0.988879 0
M  V30 1091 C 98.6106 -2.79235 2.28167 0
M  V30 1092 O 97.7146 -3.75185 1.71201 0
M  V30 1093 H 97.0556 -0.461618 0.477289 0
M  V30 1094 H 99.5856 -0.905949 1.8345 0
M  V30 1095 H 99.5956 -3.27963 2.42702 0
M  V30 1096 H 98.2706 -2.52923 3.30156 0
M  V30 1097 H 96.8476 -3.33958 1.65912 0
M  V30 1098 N 99.0327 -1.24633 -0.964593 0
M  V30 1099 C 99.9647 -0.999302 -2.06268 0
M  V30 1100 C 100.978 0.0323226 -1.62768 0
M  V30 1101 O 102.167 -0.205079 -1.77318 0
M  V30 1102 C 99.2667 -0.486816 -3.35385 0
M  V30 1103 C 98.4397 -1.5823 -4.07777 0
M  V30 1104 C 97.4987 -1.07191 -5.15166 0
M  V30 1105 O 96.5247 -1.76426 -5.41168 0
M  V30 1106 N 97.7267 0.0920373 -5.80427 0
M  V30 1107 H 100.492 -1.94477 -2.28033 0
M  V30 1108 H 98.0527 -1.15704 -1.13244 0
M  V30 1109 H 100.045 -0.130066 -4.04491 0
M  V30 1110 H 98.6147 0.364459 -3.10468 0
M  V30 1111 H 97.8347 -2.11109 -3.32906 0
M  V30 1112 H 99.1227 -2.31854 -4.52903 0
M  V30 1113 H 98.5207 0.670784 -5.61709 0
M  V30 1114 H 97.0777 0.389905 -6.50633 0
M  V30 1115 N 100.511 1.16574 -1.06058 0
M  V30 1116 C 101.759 1.86677 -0.77434 0
M  V30 1117 C 102.08 1.81959 0.701147 0
M  V30 1118 O 101.35 1.2515 1.50713 0
M  V30 1119 H 99.9298 0.691134 -0.283449 0
M  V30 1120 H 102.592 1.41378 -1.34158 0
M  V30 1121 H 101.688 2.92181 -1.09711 0
M  V30 1122 N 101.989 0.842826 1.3317 0
M  V30 1123 C 102.936 0.276885 2.29133 0
M  V30 1124 C 103.906 -0.609527 1.54512 0
M  V30 1125 O 105.091 -0.546955 1.82792 0
M  V30 1126 C 102.231 -0.538707 3.40869 0
M  V30 1127 C 101.344 0.372169 4.30394 0
M  V30 1128 C 100.479 -0.454908 5.29249 0
M  V30 1129 C 99.5179 0.45411 6.10413 0
M  V30 1130 N 98.6549 -0.335075 7.013 0
M  V30 1131 H 103.495 1.10052 2.76934 0
M  V30 1132 H 101.032 0.554161 1.36262 0
M  V30 1133 H 102.99 -1.02709 4.0436 0
M  V30 1134 H 101.62 -1.32727 2.9425 0
M  V30 1135 H 100.672 0.97888 3.6759 0
M  V30 1136 H 101.984 1.0703 4.87182 0
M  V30 1137 H 101.138 -1.00695 5.98285 0
M  V30 1138 H 99.8769 -1.18646 4.73048 0
M  V30 1139 H 98.8819 1.01813 5.40291 0
M  V30 1140 H 100.107 1.18409 6.68697 0
M  V30 1141 H 98.0529 -1.04994 6.47543 0
M  V30 1142 H 97.9699 0.304262 7.55387 0
M  V30 1143 H 99.2379 -0.869224 7.74638 0
M  V30 1144 N 103.467 -1.45747 0.599634 0
M  V30 1145 C 104.417 -2.27538 -0.145107 0
M  V30 1146 C 105.401 -1.3686 -0.846055 0
M  V30 1147 O 106.593 -1.6091 -0.737357 0
M  V30 1148 C 103.722 -3.23569 -1.14708 0
M  V30 1149 C 102.808 -4.21734 -0.447383 0
M  V30 1150 N 103.199 -5.03257 0.506535 0
M  V30 1151 C 101.497 -4.40536 -0.695966 0
M  V30 1152 C 102.198 -5.74426 0.917068 0
M  V30 1153 N 101.174 -5.42966 0.26253 0
M  V30 1154 H 104.976 -2.87965 0.587672 0
M  V30 1155 H 102.49 -1.56803 0.422697 0
M  V30 1156 H 104.487 -3.8089 -1.69495 0
M  V30 1157 H 103.147 -2.64702 -1.8805 0
M  V30 1158 H 104.158 -5.10319 0.882899 0
M  V30 1159 H 100.835 -3.92802 -1.41467 0
M  V30 1160 H 102.225 -6.4995 1.70338 0
M  V30 1161 N 104.945 -0.338344 -1.53925 0
M  V30 1162 C 106.193 0.259245 -2.0043 0
M  V30 1163 C 106.514 1.51484 -1.22791 0
M  V30 1164 O 105.784 1.93037 -0.33368 0
M  V30 1165 H 104.364 0.0987845 -0.740439 0
M  V30 1166 H 107.026 -0.458302 -1.89435 0
M  V30 1167 H 106.122 0.505334 -3.07982 0
M  V30 1168 N 106.423 1.57458 -0.0668435 0
M  V30 1169 C 107.67 1.93301 0.603406 0
M  V30 1170 C 107.998 0.946486 1.69917 0
M  V30 1171 O 107.253 -0.0387021 1.95662 0
M  V30 1172 C 107.552 3.35784 1.22409 0
M  V30 1173 C 107.218 4.50179 0.254955 0
M  V30 1174 C 105.88 4.81199 -0.0116746 0
M  V30 1175 C 108.232 5.19598 -0.408338 0
M  V30 1176 C 105.56 5.78978 -0.94877 0
M  V30 1177 C 107.912 6.18381 -1.33372 0
M  V30 1178 C 106.576 6.47821 -1.60887 0
M  V30 1179 H 105.846 0.707338 0.220802 0
M  V30 1180 H 108.493 1.91012 -0.136665 0
M  V30 1181 H 106.798 3.34515 2.03978 0
M  V30 1182 H 108.495 3.60804 1.74989 0
M  V30 1183 H 105.085 4.25983 0.472954 0
M  V30 1184 H 109.269 4.95832 -0.215456 0
M  V30 1185 H 104.525 6.00115 -1.16925 0
M  V30 1186 H 108.699 6.71277 -1.85367 0
M  V30 1187 H 106.326 7.23399 -2.33661 0
M  V30 1188 N 107.901 -0.206675 1.56239 0
M  V30 1189 C 109.129 -0.945345 1.8404 0
M  V30 1190 C 109.544 -1.77336 0.647885 0
M  V30 1191 O 108.901 -1.78425 -0.383511 0
M  V30 1192 C 108.952 -1.8509 3.10522 0
M  V30 1193 O 108.673 -1.05634 4.25174 0
M  V30 1194 C 110.174 -2.70222 3.51418 0
M  V30 1195 H 107.394 -0.276372 0.61144 0
M  V30 1196 H 109.938 -0.217417 2.03341 0
M  V30 1197 H 108.093 -2.53259 2.93153 0
M  V30 1198 H 108.507 -1.67238 4.97124 0
M  V30 1199 H 109.981 -3.29438 4.42916 0
M  V30 1200 H 110.458 -3.43358 2.73864 0
M  V30 1201 H 111.064 -2.07443 3.71278 0
M  V30 1202 N 109.379 -1.50304 -0.473955 0
M  V30 1203 C 110.312 -1.63595 -1.59097 0
M  V30 1204 C 111.29 -0.484142 -1.55225 0
M  V30 1205 O 112.474 -0.703271 -1.7489 0
M  V30 1206 C 109.601 -1.61589 -2.97669 0
M  V30 1207 C 108.647 -2.82295 -3.19705 0
M  V30 1208 S 109.48 -4.43635 -2.99913 0
M  V30 1209 C 110.636 -4.44317 -4.40832 0
M  V30 1210 H 110.869 -2.58082 -1.47583 0
M  V30 1211 H 108.402 -1.39531 -0.661087 0
M  V30 1212 H 110.36 -1.61116 -3.7756 0
M  V30 1213 H 109.021 -0.683421 -3.06575 0
M  V30 1214 H 108.214 -2.77188 -4.20931 0
M  V30 1215 H 107.816 -2.8032 -2.47582 0
M  V30 1216 H 110.108 -4.17703 -5.33414 0
M  V30 1217 H 111.051 -5.45911 -4.50984 0
M  V30 1218 H 111.459 -3.74059 -4.22777 0
M  V30 1219 N 110.857 0.726932 -1.39834 0
M  V30 1220 C 111.82 1.82269 -1.38962 0
M  V30 1221 C 112.82 1.58248 -0.285334 0
M  V30 1222 O 114.01 1.65499 -0.54366 0
M  V30 1223 C 111.142 3.20186 -1.17019 0
M  V30 1224 H 112.335 1.84443 -2.36476 0
M  V30 1225 H 109.888 0.931416 -1.25516 0
M  V30 1226 H 110.623 3.23669 -0.202204 0
M  V30 1227 H 110.408 3.3902 -1.96998 0
M  V30 1228 H 111.898 4.00235 -1.1917 0
M  V30 1229 N 112.336 1.25143 0.95797 0
M  V30 1230 C 113.269 0.995565 2.05338 0
M  V30 1231 C 114.247 -0.0740423 1.62431 0
M  V30 1232 O 115.431 0.0649212 1.88388 0
M  V30 1233 C 112.558 0.504298 3.34925 0
M  V30 1234 C 111.604 1.56393 3.96792 0
M  V30 1235 S 112.437 3.14815 4.33188 0
M  V30 1236 C 113.593 2.67415 5.65898 0
M  V30 1237 H 113.826 1.92309 2.26726 0
M  V30 1238 H 111.359 1.08635 1.09716 0
M  V30 1239 H 113.317 0.227497 4.09869 0
M  V30 1240 H 111.978 -0.402671 3.11508 0
M  V30 1241 H 111.171 1.17082 4.90212 0
M  V30 1242 H 110.773 1.79124 3.28315 0
M  V30 1243 H 113.065 2.10833 6.4386 0
M  V30 1244 H 114.008 3.59463 6.10076 0
M  V30 1245 H 114.416 2.07521 5.24972 0
M  V30 1246 N 113.814 -1.1601 1.06675 0
M  V30 1247 C 114.762 -2.22586 0.675157 0
M  V30 1248 C 115.756 -1.66525 -0.310766 0
M  V30 1249 O 116.962 -1.79145 -0.175215 0
M  V30 1250 H 113.337 -0.724855 0.200223 0
M  V30 1251 H 115.308 -2.52899 1.58381 0
M  V30 1252 C 114.057 -3.47604 0.0817162 0
M  V30 1253 H 113.38 -3.91058 0.831484 0
M  V30 1254 H 114.82 -4.23718 -0.154708 0
M  V30 1255 C 113.279 -3.15718 -1.17576 0
M  V30 1256 O 113.809 -3.31878 -2.26318 0
M  V30 1257 N 112.015 -2.69816 -1.07923 0
M  V30 1258 H 111.562 -2.56866 -0.194293 0
M  V30 1259 H 111.52 -2.48855 -1.92141 0
M  V30 1260 N 115.292 -0.849877 -1.32721 0
M  V30 1261 C 116.255 -0.296122 -2.27279 0
M  V30 1262 C 117.255 0.541458 -1.5141 0
M  V30 1263 O 118.445 0.353658 -1.70572 0
M  V30 1264 C 115.577 0.581579 -3.35902 0
M  V30 1265 H 116.77 -1.13064 -2.77771 0
M  V30 1266 H 114.323 -0.62383 -1.43311 0
M  V30 1267 H 115.058 1.43809 -2.9067 0
M  V30 1268 H 114.843 -0.0178814 -3.92096 0
M  V30 1269 H 116.333 0.961951 -4.0637 0
M  V30 1270 N 116.77 1.45427 -0.607355 0
M  V30 1271 C 118.017 2.02241 -0.102455 0
M  V30 1272 C 118.345 1.4758 1.26691 0
M  V30 1273 O 117.6 0.640468 1.84923 0
M  V30 1274 C 117.899 3.57398 -0.0129263 0
M  V30 1275 C 117.565 4.3121 -1.31792 0
M  V30 1276 C 116.227 4.51092 -1.67539 0
M  V30 1277 C 118.579 4.73401 -2.18039 0
M  V30 1278 C 115.907 5.10422 -2.89285 0
M  V30 1279 C 118.259 5.34078 -3.39034 0
M  V30 1280 C 116.923 5.52184 -3.75033 0
M  V30 1281 H 116.193 0.740051 -0.037491 0
M  V30 1282 H 118.84 1.74494 -0.788926 0
M  V30 1283 H 117.145 3.84421 0.756806 0
M  V30 1284 H 118.842 3.99061 0.393881 0
M  V30 1285 H 115.432 4.16047 -1.02968 0
M  V30 1286 H 119.616 4.57774 -1.91721 0
M  V30 1287 H 114.872 5.22629 -3.17283 0
M  V30 1288 H 119.046 5.65724 -4.06115 0
M  V30 1289 H 116.673 5.97925 -4.69457 0
M  V30 1290 N 118.248 0.346503 1.53744 0
M  V30 1291 C 119.496 -0.248612 2.00565 0
M  V30 1292 C 119.817 -1.5083 1.23593 0
M  V30 1293 O 119.087 -1.92858 0.343912 0
M  V30 1294 H 117.667 -0.0948564 0.740953 0
M  V30 1295 H 120.329 0.468341 1.89189 0
M  V30 1296 H 119.425 -0.488994 3.08245 0
M  V30 1297 N 119.726 -1.57421 0.075193 0
M  V30 1298 C 121.003 -1.85029 -0.634329 0
M  V30 1299 C 121.383 -0.968305 -1.87582 0
M  V30 1300 O 120.731 -0.0354749 -2.28472 0
M  V30 1301 C 120.941 -3.35286 -0.968742 0
M  V30 1302 C 122.289 -4.02875 -1.34077 0
M  V30 1303 O 123.313 -3.40051 -1.06037 0
M  V30 1304 O 122.172 -5.13691 -1.86506 0
M  V30 1305 H 119.266 -0.7645 -0.315387 0
M  V30 1306 H 121.812 -1.69366 0.106382 0
M  V30 1307 H 120.584 -3.91203 -0.0871376 0
M  V30 1308 H 120.207 -3.56223 -1.7661 0
M  V30 1309 N 121.204 0.198386 -1.56346 0
M  V30 1310 C 122.137 1.27381 -1.89339 0
M  V30 1311 C 123.115 1.44106 -0.753134 0
M  V30 1312 O 124.299 1.59549 -1.00381 0
M  V30 1313 C 121.426 2.6409 -2.12071 0
M  V30 1314 C 120.472 2.64253 -3.34772 0
M  V30 1315 S 121.305 2.16013 -4.89999 0
M  V30 1316 C 122.461 3.54553 -5.15794 0
M  V30 1317 H 122.694 0.992058 -2.8026 0
M  V30 1318 H 120.227 0.401726 -1.49082 0
M  V30 1319 H 122.185 3.42786 -2.2585 0
M  V30 1320 H 120.846 2.89478 -1.21906 0
M  V30 1321 H 120.039 3.64768 -3.47794 0
M  V30 1322 H 119.641 1.93637 -3.1997 0
M  V30 1323 H 121.933 4.50396 -5.06112 0
M  V30 1324 H 122.876 3.46428 -6.1757 0
M  V30 1325 H 123.284 3.49313 -4.43442 0
M  V30 1326 N 122.682 1.50554 0.465978 0
M  V30 1327 C 123.91 1.65563 1.24083 0
M  V30 1328 C 124.325 0.341051 1.85694 0
M  V30 1329 O 123.682 -0.677543 1.69457 0
M  V30 1330 C 123.733 2.75051 2.34583 0
M  V30 1331 O 123.454 4.01413 1.75497 0
M  V30 1332 C 124.955 3.01078 3.25372 0
M  V30 1333 H 122.175 0.55638 0.375077 0
M  V30 1334 H 124.719 1.96807 0.555624 0
M  V30 1335 H 122.874 2.46486 2.9887 0
M  V30 1336 H 123.288 4.62002 2.48303 0
M  V30 1337 H 124.762 3.81339 3.99105 0
M  V30 1338 H 125.239 2.12349 3.84453 0
M  V30 1339 H 125.845 3.31194 2.66816 0
M  V30 1340 N 124.16 -0.719506 1.40217 0
M  V30 1341 C 125.108 -1.85493 1.40339 0
M  V30 1342 C 126.102 -1.66995 0.284415 0
M  V30 1343 O 127.308 -1.74148 0.455252 0
M  V30 1344 H 123.683 -0.610857 0.438586 0
M  V30 1345 H 125.654 -1.82506 2.36081 0
M  V30 1346 C 124.403 -3.23321 1.27901 0
M  V30 1347 H 123.726 -3.38159 2.1328 0
M  V30 1348 H 125.166 -4.02914 1.32045 0
M  V30 1349 C 123.625 -3.36898 -0.0111355 0
M  V30 1350 O 124.155 -3.89674 -0.975538 0
M  V30 1351 N 122.361 -2.90492 -0.0793393 0
M  V30 1352 H 121.908 -2.47731 0.706183 0
M  V30 1353 H 121.866 -2.99955 -0.942038 0
M  V30 1354 N 125.638 -1.25649 -0.95132 0
M  V30 1355 C 126.548 -1.08073 -2.08224 0
M  V30 1356 C 127.564 -0.0169666 -1.73992 0
M  V30 1357 O 128.74 -0.218593 -2.0021 0
M  V30 1358 C 125.805 -0.704922 -3.39458 0
M  V30 1359 C 124.866 -1.84699 -3.87537 0
M  V30 1360 C 124.099 -1.48902 -5.12508 0
M  V30 1361 O 124.322 -0.386156 -5.69091 0
M  V30 1362 O 123.256 -2.32033 -5.55378 0
M  V30 1363 H 127.082 -2.02924 -2.25954 0
M  V30 1364 H 124.667 -1.04618 -1.06656 0
M  V30 1365 H 126.549 -0.507609 -4.18332 0
M  V30 1366 H 125.224 0.214291 -3.2299 0
M  V30 1367 H 124.131 -2.09919 -3.09653 0
M  V30 1368 H 125.464 -2.74557 -4.08509 0
M  V30 1369 N 127.117 1.15442 -1.07289 0
M  V30 1370 C 128.027 2.23786 -0.704057 0
M  V30 1371 C 129.043 1.7166 0.284413 0
M  V30 1372 O 130.219 2.00972 0.131205 0
M  V30 1373 C 127.284 3.46535 -0.106792 0
M  V30 1374 C 126.345 4.13654 -1.14842 0
M  V30 1375 C 125.578 5.30544 -0.57956 0
M  V30 1376 O 125.801 5.67187 0.604585 0
M  V30 1377 O 124.735 5.87154 -1.32414 0
M  V30 1378 H 128.561 2.57664 -1.60757 0
M  V30 1379 H 126.146 1.23152 -0.845803 0
M  V30 1380 H 128.028 4.20804 0.224048 0
M  V30 1381 H 126.703 3.14407 0.770049 0
M  V30 1382 H 125.61 3.4131 -1.5316 0
M  V30 1383 H 126.943 4.49861 -1.99714 0
M  V30 1384 N 128.595 0.856903 1.32268 0
M  V30 1385 C 129.842 0.461386 1.97174 0
M  V30 1386 C 130.17 -0.983491 1.67803 0
M  V30 1387 O 129.425 -1.70541 0.959903 0
M  V30 1388 C 129.724 0.649919 3.51441 0
M  V30 1389 C 129.39 2.0656 4.00804 0
M  V30 1390 C 128.052 2.45279 4.13995 0
M  V30 1391 C 130.404 2.98947 4.26943 0
M  V30 1392 C 127.732 3.75653 4.50668 0
M  V30 1393 C 130.084 4.28822 4.65075 0
M  V30 1394 C 128.748 4.67472 4.76472 0
M  V30 1395 H 128.018 0.168833 0.72151 0
M  V30 1396 H 130.665 1.08739 1.57633 0
M  V30 1397 H 128.97 -0.0593018 3.91755 0
M  V30 1398 H 130.667 0.32391 3.9969 0
M  V30 1399 H 127.257 1.75495 3.91024 0
M  V30 1400 H 131.441 2.70265 4.16258 0
M  V30 1401 H 126.697 4.05379 4.57688 0
M  V30 1402 H 130.871 5.0047 4.84255 0
M  V30 1403 H 128.498 5.68539 5.04646 0
M  V30 1404 N 130.073 -1.45103 0.615059 0
M  V30 1405 C 131.489 -1.57137 0.279322 0
M  V30 1406 C 131.689 -1.60523 -1.21797 0
M  V30 1407 O 130.745 -1.53956 -2.00134 0
M  V30 1408 C 132.058 -2.85062 0.957083 0
M  V30 1409 C 133.606 -2.98749 0.933706 0
M  V30 1410 C 134.081 -4.29455 1.59162 0
M  V30 1411 N 135.572 -4.36231 1.55746 0
M  V30 1412 C 136.307 -5.36051 2.0356 0
M  V30 1413 N 135.803 -6.42367 2.59494 0
M  V30 1414 N 137.596 -5.27456 1.94284 0
M  V30 1415 H 129.747 -1.41148 1.58717 0
M  V30 1416 H 132.01 -0.675331 0.665306 0
M  V30 1417 H 131.716 -2.88488 2.01166 0
M  V30 1418 H 131.59 -3.7407 0.48494 0
M  V30 1419 H 133.977 -2.94886 -0.112347 0
M  V30 1420 H 134.058 -2.11132 1.44419 0
M  V30 1421 H 133.702 -4.34077 2.63704 0
M  V30 1422 H 133.632 -5.15901 1.0561 0
M  V30 1423 H 136.123 -3.60011 1.14893 0
M  V30 1424 H 136.436 -7.14793 2.93752 0
M  V30 1425 H 134.781 -6.43097 2.63537 0
M  V30 1426 H 137.972 -4.43308 1.5032 0
M  V30 1427 H 138.145 -6.05099 2.3186 0
M  V30 1428 N 131.551 -0.354651 -1.53558 0
M  V30 1429 C 132.483 0.5315 -2.22952 0
M  V30 1430 C 133.496 1.05503 -1.23988 0
M  V30 1431 O 134.685 0.963279 -1.50277 0
M  V30 1432 C 131.785 1.74538 -2.90499 0
M  V30 1433 C 130.958 1.35524 -4.15875 0
M  V30 1434 C 130.017 2.42999 -4.66731 0
M  V30 1435 O 129.043 2.05844 -5.30676 0
M  V30 1436 N 130.245 3.74423 -4.43608 0
M  V30 1437 H 133.01 -0.0628615 -2.99634 0
M  V30 1438 H 130.571 -0.179302 -1.60904 0
M  V30 1439 H 132.563 2.45892 -3.21433 0
M  V30 1440 H 131.133 2.24686 -2.17336 0
M  V30 1441 H 130.353 0.471998 -3.91364 0
M  V30 1442 H 131.641 1.07071 -4.97406 0
M  V30 1443 H 131.039 4.07391 -3.92491 0
M  V30 1444 H 129.596 4.41913 -4.7912 0
M  V30 1445 N 133.029 1.57378 -0.0835403 0
M  V30 1446 C 133.962 2.09016 0.915833 0
M  V30 1447 C 134.94 0.997993 1.2837 0
M  V30 1448 O 136.124 1.27219 1.39096 0
M  V30 1449 C 133.251 2.55757 2.22049 0
M  V30 1450 C 132.297 3.76522 2.00333 0
M  V30 1451 S 133.13 5.20661 1.25191 0
M  V30 1452 C 134.286 5.70743 2.56912 0
M  V30 1453 H 134.519 2.93457 0.476492 0
M  V30 1454 H 132.052 1.53856 0.129493 0
M  V30 1455 H 134.01 2.83346 2.97027 0
M  V30 1456 H 132.671 1.71564 2.63106 0
M  V30 1457 H 131.864 4.07256 2.96916 0
M  V30 1458 H 131.466 3.49367 1.33488 0
M  V30 1459 H 133.758 5.78304 3.52946 0
M  V30 1460 H 134.701 6.6944 2.30772 0
M  V30 1461 H 135.109 4.98616 2.64655 0
M  V30 1462 N 134.507 -0.190092 1.56449 0
M  V30 1463 C 135.44 -1.26375 1.90012 0
M  V30 1464 C 136.418 -1.43705 0.760765 0
M  V30 1465 O 137.602 -1.59014 1.01226 0
M  V30 1466 C 134.729 -2.62962 2.13468 0
M  V30 1467 C 133.775 -2.62474 3.36169 0
M  V30 1468 S 134.608 -2.13412 4.91137 0
M  V30 1469 C 135.764 -3.51812 5.17667 0
M  V30 1470 H 135.997 -0.977181 2.80782 0
M  V30 1471 H 133.53 -0.393814 1.49293 0
M  V30 1472 H 135.488 -3.41583 2.27664 0
M  V30 1473 H 134.149 -2.88828 1.23439 0
M  V30 1474 H 133.342 -3.62918 3.49723 0
M  V30 1475 H 132.944 -1.91937 3.20992 0
M  V30 1476 H 135.236 -4.47706 5.08494 0
M  V30 1477 H 136.179 -3.43148 6.19399 0
M  V30 1478 H 136.587 -3.46956 4.45288 0
M  V30 1479 N 135.985 -1.50799 -0.457987 0
M  V30 1480 C 137.233 -1.62121 -1.2067 0
M  V30 1481 C 137.554 -0.329793 -1.92191 0
M  V30 1482 O 136.824 0.653409 -1.84682 0
M  V30 1483 H 135.404 -0.597441 -0.448411 0
M  V30 1484 H 138.066 -1.87637 -0.527096 0
M  V30 1485 H 137.162 -2.43882 -1.94751 0
M  V30 1486 N 137.463 0.71206 -1.40597 0
M  V30 1487 C 138.703 1.48438 -1.40519 0
M  V30 1488 C 139.067 1.91998 -0.00767611 0
M  V30 1489 O 140.268 2.6854 0.118239 0
M  V30 1490 C 138.539 2.67514 -2.37004 0
M  V30 1491 S 140.098 3.56875 -2.55315 0
M  V30 1492 H 136.916 0.507457 -0.498005 0
M  V30 1493 H 139.518 0.832355 -1.76896 0
M  V30 1494 H 138.222 2.33689 -3.37368 0
M  V30 1495 H 137.753 3.37625 -2.01923 0
M  V30 1496 H 139.768 4.62081 -1.8082 0
M  V30 1497 N 138.941 1.26152 0.944643 0
M  V30 1498 C 140.188 1.11492 1.69044 0
M  V30 1499 C 140.516 -0.342366 1.91463 0
M  V30 1500 O 139.771 -1.26812 1.49054 0
M  V30 1501 C 140.07 1.82541 3.07268 0
M  V30 1502 C 139.736 3.32445 3.04616 0
M  V30 1503 C 138.398 3.73337 3.036 0
M  V30 1504 C 140.75 4.28171 2.97185 0
M  V30 1505 C 138.078 5.08348 2.92915 0
M  V30 1506 C 140.43 5.63218 2.88041 0
M  V30 1507 C 139.094 6.03426 2.85366 0
M  V30 1508 H 138.364 0.407977 0.618576 0
M  V30 1509 H 141.011 1.56551 1.10291 0
M  V30 1510 H 139.316 1.29941 3.69625 0
M  V30 1511 H 141.013 1.68642 3.63815 0
M  V30 1512 H 137.603 2.99915 3.06185 0
M  V30 1513 H 141.787 3.97563 2.97081 0
M  V30 1514 H 137.043 5.38667 2.89219 0
M  V30 1515 H 141.217 6.37078 2.81254 0
M  V30 1516 H 138.844 7.07999 2.76842 0
M  V30 1517 N 140.419 -1.14872 1.07899 0
M  V30 1518 C 141.835 -1.37776 0.805606 0
M  V30 1519 C 142.035 -1.92743 -0.587555 0
M  V30 1520 O 141.091 -2.13678 -1.34528 0
M  V30 1521 C 142.404 -2.34361 1.88402 0
M  V30 1522 C 143.952 -2.48012 1.90942 0
M  V30 1523 C 144.427 -3.47893 2.97883 0
M  V30 1524 N 145.918 -3.55433 2.97021 0
M  V30 1525 C 146.653 -4.32553 3.76412 0
M  V30 1526 N 146.149 -5.12959 4.65666 0
M  V30 1527 N 147.942 -4.27697 3.64735 0
M  V30 1528 H 140.093 -0.775365 1.97742 0
M  V30 1529 H 142.356 -0.403521 0.857831 0
M  V30 1530 H 142.062 -2.01098 2.88535 0
M  V30 1531 H 141.936 -3.34206 1.74889 0
M  V30 1532 H 144.323 -2.8057 0.914579 0
M  V30 1533 H 144.404 -1.48147 2.08534 0
M  V30 1534 H 144.048 -3.16069 3.97571 0
M  V30 1535 H 143.978 -4.47527 2.77538 0
M  V30 1536 H 146.469 -2.98048 2.32326 0
M  V30 1537 H 146.782 -5.69065 5.22862 0
M  V30 1538 H 145.127 -5.12245 4.69712 0
M  V30 1539 H 148.318 -3.63949 2.94378 0
M  V30 1540 H 148.491 -4.8755 4.26848 0
M  V30 1541 N 141.898 -0.863906 -1.31812 0
M  V30 1542 C 142.846 -0.30422 -2.30602 0
M  V30 1543 C 143.84 0.577419 -1.59255 0
M  V30 1544 O 145.046 0.464194 -1.73912 0
M  V30 1545 H 141.421 -0.0796877 -0.747766 0
M  V30 1546 H 143.392 -1.15148 -2.75288 0
M  V30 1547 C 142.141 0.484617 -3.44306 0
M  V30 1548 H 141.464 -0.18451 -3.99374 0
M  V30 1549 H 142.904 0.841664 -4.15562 0
M  V30 1550 C 141.363 1.6735 -2.92396 0
M  V30 1551 O 141.893 2.77273 -2.90659 0
M  V30 1552 N 140.099 1.50362 -2.48676 0
M  V30 1553 H 139.646 0.609402 -2.50288 0
M  V30 1554 H 139.604 2.30051 -2.14299 0
M  V30 1555 N 143.376 1.44774 -0.622745 0
M  V30 1556 C 144.308 2.28856 0.125485 0
M  V30 1557 C 145.321 1.40811 0.817069 0
M  V30 1558 O 146.51 1.65044 0.679918 0
M  V30 1559 C 143.61 3.16963 1.19949 0
M  V30 1560 C 142.783 4.33374 0.592064 0
M  V30 1561 C 141.842 5.02577 1.55893 0
M  V30 1562 O 140.868 5.58873 1.07933 0
M  V30 1563 N 142.07 5.03256 2.89334 0
M  V30 1564 H 144.835 2.93713 -0.596068 0
M  V30 1565 H 142.396 1.55129 -0.463303 0
M  V30 1566 H 144.388 3.60123 1.84644 0
M  V30 1567 H 142.958 2.53913 1.82337 0
M  V30 1568 H 142.178 3.93509 -0.233322 0
M  V30 1569 H 143.466 5.08527 0.166738 0
M  V30 1570 H 142.864 4.58836 3.30887 0
M  V30 1571 H 141.421 5.50232 3.49412 0
M  V30 1572 N 144.854 0.36279 1.53368 0
M  V30 1573 C 145.801 -0.485008 2.25646 0
M  V30 1574 C 146.771 -1.07982 1.2621 0
M  V30 1575 O 147.956 -1.11284 1.54986 0
M  V30 1576 C 145.096 -1.62023 3.04701 0
M  V30 1577 C 144.209 -1.05086 4.19024 0
M  V30 1578 C 143.344 -2.15496 4.85525 0
M  V30 1579 C 142.383 -1.5601 5.91884 0
M  V30 1580 N 141.52 -2.60241 6.52088 0
M  V30 1581 H 146.36 0.137864 2.97681 0
M  V30 1582 H 143.897 0.0798061 1.46883 0
M  V30 1583 H 145.855 -2.28887 3.48807 0
M  V30 1584 H 144.485 -2.2138 2.34927 0
M  V30 1585 H 143.537 -0.27259 3.79422 0
M  V30 1586 H 144.849 -0.575926 4.95464 0
M  V30 1587 H 144.003 -2.90186 5.32801 0
M  V30 1588 H 142.742 -2.66341 4.08551 0
M  V30 1589 H 141.747 -0.798338 5.43973 0
M  V30 1590 H 142.972 -1.05994 6.70777 0
M  V30 1591 H 140.918 -3.10304 5.77968 0
M  V30 1592 H 140.835 -2.17426 7.24059 0
M  V30 1593 H 142.103 -3.34641 7.04014 0
M  V30 1594 N 146.332 -1.57332 0.0918853 0
M  V30 1595 C 147.579 -1.94236 -0.572577 0
M  V30 1596 C 147.907 -0.973398 -1.6839 0
M  V30 1597 O 147.162 0.00756912 -1.95699 0
M  V30 1598 C 147.461 -3.37689 -1.17051 0
M  V30 1599 C 147.127 -4.50527 -0.183304 0
M  V30 1600 C 145.789 -4.81119 0.0882276 0
M  V30 1601 C 148.141 -5.18883 0.49095 0
M  V30 1602 C 145.469 -5.77395 1.04076 0
M  V30 1603 C 147.821 -6.1618 1.43193 0
M  V30 1604 C 146.485 -6.45179 1.71173 0
M  V30 1605 H 145.755 -0.710762 -0.209521 0
M  V30 1606 H 148.402 -1.9077 0.167036 0
M  V30 1607 H 146.707 -3.37718 -1.9863 0
M  V30 1608 H 148.404 -3.63543 -1.69227 0
M  V30 1609 H 144.994 -4.26681 -0.405124 0
M  V30 1610 H 149.178 -4.95427 0.294312 0
M  V30 1611 H 144.434 -5.98179 1.26457 0
M  V30 1612 H 148.608 -6.68243 1.96023 0
M  V30 1613 H 146.235 -7.1959 2.4514 0
M  V30 1614 N 147.81 0.181792 -1.56548 0
M  V30 1615 C 149.226 0.53316 -1.50431 0
M  V30 1616 C 149.426 1.85184 -0.794297 0
M  V30 1617 O 148.482 2.50058 -0.350318 0
M  V30 1618 C 149.795 0.575597 -2.9514 0
M  V30 1619 C 151.343 0.663519 -3.05886 0
M  V30 1620 C 151.818 0.736946 -4.52032 0
M  V30 1621 N 153.309 0.800118 -4.56237 0
M  V30 1622 C 154.044 0.877327 -5.66649 0
M  V30 1623 N 153.54 0.916016 -6.86718 0
M  V30 1624 N 155.333 0.915542 -5.54594 0
M  V30 1625 H 147.484 -0.683025 -2.01118 0
M  V30 1626 H 149.747 -0.244988 -0.915797 0
M  V30 1627 H 149.453 -0.324482 -3.502 0
M  V30 1628 H 149.327 1.42572 -3.49218 0
M  V30 1629 H 151.714 1.55403 -2.50867 0
M  V30 1630 H 151.795 -0.21307 -2.54911 0
M  V30 1631 H 151.439 -0.149262 -5.07681 0
M  V30 1632 H 151.369 1.62953 -5.00753 0
M  V30 1633 H 153.86 0.778926 -3.69785 0
M  V30 1634 H 154.173 0.975813 -7.66614 0
M  V30 1635 H 152.518 0.884469 -6.89349 0
M  V30 1636 H 155.709 0.882245 -4.59711 0
M  V30 1637 H 155.882 0.972253 -6.40665 0
M  V30 1638 N 149.288 1.51039 0.449983 0
M  V30 1639 C 150.235 1.71439 1.54523 0
M  V30 1640 C 151.205 0.555871 1.56522 0
M  V30 1641 O 152.39 0.788871 1.73728 0
M  V30 1642 C 149.53 1.83384 2.92343 0
M  V30 1643 C 148.643 3.10873 2.9997 0
M  V30 1644 C 147.778 3.13488 4.28834 0
M  V30 1645 C 146.817 4.35343 4.30282 0
M  V30 1646 N 145.954 4.35579 5.5065 0
M  V30 1647 H 150.794 2.64934 1.36433 0
M  V30 1648 H 148.331 1.31312 0.662982 0
M  V30 1649 H 150.289 1.88291 3.72293 0
M  V30 1650 H 148.919 0.933086 3.0902 0
M  V30 1651 H 147.971 3.15336 2.12761 0
M  V30 1652 H 149.283 4.00814 2.96901 0
M  V30 1653 H 148.437 3.17241 5.17149 0
M  V30 1654 H 147.176 2.21414 4.34543 0
M  V30 1655 H 146.181 4.3178 3.40362 0
M  V30 1656 H 147.406 5.28668 4.26248 0
M  V30 1657 H 145.352 3.46369 5.57104 0
M  V30 1658 H 145.269 5.19313 5.49409 0
M  V30 1659 H 146.537 4.43507 6.41032 0
M  V30 1660 N 150.766 -0.704594 1.40972 0
M  V30 1661 C 152.014 -1.46169 1.39568 0
M  V30 1662 C 152.335 -1.95 0.00253745 0
M  V30 1663 O 151.605 -1.71095 -0.954114 0
M  V30 1664 H 150.185 -0.542326 0.513704 0
M  V30 1665 H 152.847 -0.834553 1.76128 0
M  V30 1666 H 151.943 -2.32922 2.07735 0
M  V30 1667 N 152.244 -1.26651 -0.937939 0
M  V30 1668 C 153.191 -1.0849 -2.03712 0
M  V30 1669 C 154.161 0.011033 -1.66096 0
M  V30 1670 O 155.346 -0.149353 -1.90215 0
M  V30 1671 C 152.486 -0.72735 -3.37348 0
M  V30 1672 C 151.599 -1.89986 -3.87981 0
M  V30 1673 C 150.734 -1.48513 -5.10017 0
M  V30 1674 C 149.773 -2.62575 -5.5292 0
M  V30 1675 N 148.91 -2.21762 -6.66158 0
M  V30 1676 H 153.75 -2.02551 -2.18579 0
M  V30 1677 H 151.287 -1.00844 -1.07093 0
M  V30 1678 H 153.245 -0.50092 -4.14182 0
M  V30 1679 H 151.875 0.176298 -3.22318 0
M  V30 1680 H 150.927 -2.23913 -3.07518 0
M  V30 1681 H 152.239 -2.75586 -4.15757 0
M  V30 1682 H 151.393 -1.21934 -5.94321 0
M  V30 1683 H 150.132 -0.60009 -4.83994 0
M  V30 1684 H 149.137 -2.8988 -4.67172 0
M  V30 1685 H 150.362 -3.51685 -5.80943 0
M  V30 1686 H 148.308 -1.35696 -6.41812 0
M  V30 1687 H 148.225 -3.00903 -6.93537 0
M  V30 1688 H 149.493 -1.98403 -7.53828 0
M  V30 1689 N 153.722 1.14298 -1.08507 0
M  V30 1690 C 154.968 1.85633 -0.816581 0
M  V30 1691 C 155.301 1.82784 0.656021 0
M  V30 1692 O 154.576 1.25926 1.48233 0
M  V30 1693 C 154.859 3.34223 -1.34041 0
M  V30 1694 C 154.712 3.45639 -2.87843 0
M  V30 1695 C 156.031 4.29356 -0.9665 0
M  V30 1696 H 153.15 0.67402 -0.298104 0
M  V30 1697 H 155.792 1.34214 -1.34487 0
M  V30 1698 H 153.942 3.78144 -0.89104 0
M  V30 1699 H 155.614 3.10498 -3.41158 0
M  V30 1700 H 153.857 2.86817 -3.25451 0
M  V30 1701 H 154.528 4.50089 -3.19569 0
M  V30 1702 H 157.004 3.93457 -1.35391 0
M  V30 1703 H 155.88 5.3178 -1.3602 0
M  V30 1704 H 156.141 4.41919 0.126362 0
M  V30 1705 N 155.201 0.870884 1.31352 0
M  V30 1706 C 156.448 0.482273 1.96673 0
M  V30 1707 C 156.776 -0.965638 1.68836 0
M  V30 1708 O 156.031 -1.69514 0.977937 0
M  V30 1709 C 156.33 0.687157 3.50732 0
M  V30 1710 C 155.996 2.108 3.9859 0
M  V30 1711 C 154.658 2.49656 4.1137 0
M  V30 1712 C 157.01 3.03459 4.23748 0
M  V30 1713 C 154.338 3.80412 4.46659 0
M  V30 1714 C 156.69 4.3373 4.60501 0
M  V30 1715 C 155.354 4.725 4.71487 0
M  V30 1716 H 154.624 0.176476 0.719679 0
M  V30 1717 H 157.271 1.10405 1.56471 0
M  V30 1718 H 155.576 -0.0177476 3.91796 0
M  V30 1719 H 157.273 0.366284 3.99324 0
M  V30 1720 H 153.863 1.79633 3.8914 0
M  V30 1721 H 158.047 2.74665 4.13368 0
M  V30 1722 H 153.303 4.1021 4.53362 0
M  V30 1723 H 157.477 5.05578 4.78919 0
M  V30 1724 H 155.104 5.73859 4.98588 0
M  V30 1725 N 156.679 -1.44442 0.630414 0
M  V30 1726 C 158.095 -1.56832 0.295973 0
M  V30 1727 C 158.295 -1.61806 -1.20088 0
M  V30 1728 O 157.351 -1.5607 -1.9849 0
M  V30 1729 C 158.664 -2.84031 0.987264 0
M  V30 1730 C 160.212 -2.97742 0.96534 0
M  V30 1731 C 160.687 -4.27743 1.63708 0
M  V30 1732 N 162.178 -4.34555 1.60364 0
M  V30 1733 C 162.913 -5.33862 2.09234 0
M  V30 1734 N 162.409 -6.39578 2.66292 0
M  V30 1735 N 164.202 -5.25366 1.99867 0
M  V30 1736 H 156.353 -1.39457 1.60205 0
M  V30 1737 H 158.616 -0.668237 0.672431 0
M  V30 1738 H 158.322 -2.86338 2.04215 0
M  V30 1739 H 158.196 -3.73534 0.524588 0
M  V30 1740 H 160.583 -2.94989 -0.0810639 0
M  V30 1741 H 160.664 -2.09589 1.4665 0
M  V30 1742 H 160.308 -4.31255 2.68293 0
M  V30 1743 H 160.238 -5.14752 1.11076 0
M  V30 1744 H 162.729 -3.58772 1.18705 0
M  V30 1745 H 163.042 -7.11637 3.01317 0
M  V30 1746 H 161.387 -6.40265 2.70343 0
M  V30 1747 H 164.578 -4.41688 1.55013 0
M  V30 1748 H 164.751 -6.02606 2.38265 0
M  V30 1749 N 158.157 -0.370918 -1.53173 0
M  V30 1750 C 159.067 0.480823 -2.2962 0
M  V30 1751 C 160.083 1.08789 -1.35798 0
M  V30 1752 O 161.259 1.09768 -1.68858 0
M  V30 1753 C 158.324 1.60227 -3.07454 0
M  V30 1754 C 157.385 1.0222 -4.16953 0
M  V30 1755 C 156.618 2.0902 -4.91066 0
M  V30 1756 O 156.841 3.30222 -4.65091 0
M  V30 1757 O 155.775 1.71778 -5.76867 0
M  V30 1758 H 159.601 -0.141421 -3.03371 0
M  V30 1759 H 157.186 -0.135146 -1.48787 0
M  V30 1760 H 159.068 2.25417 -3.56041 0
M  V30 1761 H 157.743 2.20982 -2.36535 0
M  V30 1762 H 156.65 0.334064 -3.72605 0
M  V30 1763 H 157.983 0.459131 -4.90054 0
M  V30 1764 N 159.635 1.57281 -0.100228 0
M  V30 1765 C 161.046 1.81725 0.428107 0
M  V30 1766 C 161.397 1.01619 1.67833 0
M  V30 1767 O 160.522 0.247098 2.14985 0
M  V30 1768 C 161.117 3.29617 0.78347 0
M  V30 1769 C 159.676 3.54808 1.25653 0
M  V30 1770 C 158.823 2.76118 0.255752 0
M  V30 1771 H 161.774 1.55324 -0.325608 0
M  V30 1772 H 161.795 3.4322 1.64256 0
M  V30 1773 H 161.307 3.87893 -0.12665 0
M  V30 1774 H 159.408 3.01868 2.18418 0
M  V30 1775 H 159.521 4.63443 1.21482 0
M  V30 1776 H 157.885 2.43745 0.738956 0
M  V30 1777 H 158.668 3.37145 -0.647136 0
M  V30 1778 N 161.113 -0.173488 1.56642 0
M  V30 1779 C 162.043 -1.2171 1.99271 0
M  V30 1780 C 163.024 -1.46289 0.867959 0
M  V30 1781 O 164.209 -1.5766 1.13388 0
M  V30 1782 C 161.339 -2.55651 2.35074 0
M  V30 1783 C 160.293 -2.45645 3.50489 0
M  V30 1784 C 159.619 -3.84056 3.72028 0
M  V30 1785 C 160.919 -1.96302 4.84007 0
M  V30 1786 H 162.613 -0.86275 2.867 0
M  V30 1787 H 160.159 -0.413571 1.37933 0
M  V30 1788 H 162.112 -3.2886 2.63494 0
M  V30 1789 H 160.836 -2.92869 1.44552 0
M  V30 1790 H 159.495 -1.7489 3.22194 0
M  V30 1791 H 159.143 -4.18664 2.788 0
M  V30 1792 H 158.843 -3.7823 4.49684 0
M  V30 1793 H 160.367 -4.58854 4.02846 0
M  V30 1794 H 161.781 -2.59284 5.11317 0
M  V30 1795 H 160.178 -2.01429 5.65284 0
M  V30 1796 H 161.248 -0.917226 4.76146 0
M  V30 1797 N 162.591 -1.51276 -0.441967 0
M  V30 1798 C 163.838 -1.63715 -1.19179 0
M  V30 1799 C 164.166 -0.351175 -1.91303 0
M  V30 1800 O 163.421 0.664524 -1.84072 0
M  V30 1801 C 163.72 -2.78746 -2.23686 0
M  V30 1802 C 163.386 -4.18189 -1.68607 0
M  V30 1803 C 162.048 -4.56125 -1.53308 0
M  V30 1804 C 164.4 -5.05222 -1.28062 0
M  V30 1805 C 161.728 -5.78804 -0.959317 0
M  V30 1806 C 164.08 -6.28476 -0.721162 0
M  V30 1807 C 162.744 -6.65188 -0.55504 0
M  V30 1808 H 162.014 -0.599076 -0.436106 0
M  V30 1809 H 164.661 -1.85296 -0.48351 0
M  V30 1810 H 162.966 -2.51369 -3.00535 0
M  V30 1811 H 164.663 -2.8557 -2.81515 0
M  V30 1812 H 161.253 -3.88277 -1.8149 0
M  V30 1813 H 165.437 -4.76524 -1.38704 0
M  V30 1814 H 160.693 -6.05899 -0.81833 0
M  V30 1815 H 164.867 -6.95259 -0.398458 0
M  V30 1816 H 162.494 -7.60123 -0.108311 0
M  V30 1817 N 164.069 0.697108 -1.41344 0
M  V30 1818 C 164.999 1.82353 -1.45841 0
M  V30 1819 C 165.98 1.67115 -0.317247 0
M  V30 1820 O 167.165 1.86871 -0.528474 0
M  V30 1821 C 164.295 3.20476 -1.33838 0
M  V30 1822 C 163.249 3.50415 -2.4575 0
M  V30 1823 C 162.575 4.87878 -2.18813 0
M  V30 1824 C 163.875 3.49546 -3.88091 0
M  V30 1825 H 165.569 1.78846 -2.40113 0
M  V30 1826 H 163.115 0.859028 -1.15571 0
M  V30 1827 H 165.068 3.98988 -1.35596 0
M  V30 1828 H 163.792 3.24604 -0.360498 0
M  V30 1829 H 162.451 2.74253 -2.43271 0
M  V30 1830 H 162.099 4.8863 -1.19371 0
M  V30 1831 H 161.799 5.08875 -2.93803 0
M  V30 1832 H 163.323 5.68702 -2.22284 0
M  V30 1833 H 164.737 4.18066 -3.92293 0
M  V30 1834 H 163.134 3.82075 -4.62751 0
M  V30 1835 H 164.204 2.48552 -4.16353 0
M  V30 1836 N 165.547 1.27147 0.931209 0
M  V30 1837 C 166.824 1.0401 1.65654 0
M  V30 1838 C 167.204 -0.426297 2.06751 0
M  V30 1839 O 166.552 -1.40879 1.79904 0
M  V30 1840 C 166.762 1.99834 2.86125 0
M  V30 1841 C 168.11 2.29007 3.57549 0
M  V30 1842 O 169.134 1.97779 2.96246 0
M  V30 1843 O 167.993 2.82222 4.67989 0
M  V30 1844 H 165.087 0.396239 0.725895 0
M  V30 1845 H 167.633 1.38397 0.982056 0
M  V30 1846 H 166.405 2.98744 2.52721 0
M  V30 1847 H 166.028 1.65987 3.61295 0
M  V30 1848 N 167.025 -1.13721 1.09112 0
M  V30 1849 C 167.955 -2.21148 0.749385 0
M  V30 1850 C 168.936 -1.6792 -0.271475 0
M  V30 1851 O 170.121 -1.93693 -0.140251 0
M  V30 1852 C 167.251 -3.46905 0.165659 0
M  V30 1853 C 166.205 -4.13203 1.11567 0
M  V30 1854 C 165.531 -5.33248 0.393809 0
M  V30 1855 C 166.831 -4.60912 2.45678 0
M  V30 1856 H 168.525 -2.4999 1.64758 0
M  V30 1857 H 166.071 -1.20156 0.793626 0
M  V30 1858 H 168.024 -4.21313 -0.085466 0
M  V30 1859 H 166.748 -3.17449 -0.767714 0
M  V30 1860 H 165.407 -3.40758 1.35202 0
M  V30 1861 H 165.055 -5.00054 -0.543599 0
M  V30 1862 H 164.755 -5.78552 1.02721 0
M  V30 1863 H 166.279 -6.10413 0.150908 0
M  V30 1864 H 167.693 -5.26759 2.26269 0
M  V30 1865 H 166.09 -5.16944 3.04776 0
M  V30 1866 H 167.16 -3.75603 3.06677 0
M  V30 1867 N 168.503 -0.877838 -1.30888 0
M  V30 1868 C 169.914 -0.544193 -1.78593 0
M  V30 1869 C 170.265 0.939301 -1.72254 0
M  V30 1870 O 169.39 1.7337 -1.29505 0
M  V30 1871 C 169.985 -0.98105 -3.24285 0
M  V30 1872 C 168.544 -0.698935 -3.69854 0
M  V30 1873 C 167.691 -1.168 -2.51502 0
M  V30 1874 H 170.642 -1.06278 -1.17859 0
M  V30 1875 H 170.663 -0.307009 -3.79259 0
M  V30 1876 H 170.175 -2.06079 -3.28866 0
M  V30 1877 H 168.276 0.369112 -3.70767 0
M  V30 1878 H 168.389 -1.28148 -4.61644 0
M  V30 1879 H 166.753 -0.587535 -2.47831 0
M  V30 1880 H 167.536 -2.25533 -2.58824 0
M  V30 1881 N 169.982 1.44106 -0.638065 0
M  V30 1882 C 170.929 2.30715 0.062701 0
M  V30 1883 C 171.899 1.43882 0.829883 0
M  V30 1884 O 173.084 1.72775 0.809532 0
M  V30 1885 C 170.224 3.29258 1.03358 0
M  V30 1886 C 169.337 4.31192 0.26409 0
M  V30 1887 C 168.472 5.16825 1.22741 0
M  V30 1888 C 167.511 6.10462 0.447475 0
M  V30 1889 N 166.648 6.8877 1.36161 0
M  V30 1890 H 171.488 2.90096 -0.681781 0
M  V30 1891 H 169.025 1.42925 -0.347988 0
M  V30 1892 H 170.983 3.84886 1.60992 0
M  V30 1893 H 169.613 2.71562 1.74511 0
M  V30 1894 H 168.665 3.77981 -0.428295 0
M  V30 1895 H 169.977 4.97619 -0.343052 0
M  V30 1896 H 169.131 5.77004 1.87487 0
M  V30 1897 H 167.87 4.50488 1.86847 0
M  V30 1898 H 166.875 5.49386 -0.213433 0
M  V30 1899 H 168.1 6.78837 -0.188968 0
M  V30 1900 H 166.046 6.25096 1.98975 0
M  V30 1901 H 165.963 7.51663 0.808656 0
M  V30 1902 H 167.231 7.53467 1.99769 0
M  V30 1903 N 171.46 0.379036 1.52974 0
M  V30 1904 C 172.685 -0.209353 2.06341 0
M  V30 1905 C 173.11 -1.40583 1.24972 0
M  V30 1906 O 172.468 -1.79246 0.272155 0
M  V30 1907 C 172.516 -0.567786 3.56102 0
M  V30 1908 O 171.62 -1.66318 3.77375 0
M  V30 1909 H 170.961 -0.0272919 0.663439 0
M  V30 1910 H 173.491 0.543536 1.97248 0
M  V30 1911 H 173.501 -0.835003 3.99364 0
M  V30 1912 H 172.176 0.307013 4.14765 0
M  V30 1913 H 170.753 -1.39048 3.46006 0
M  V30 1914 N 172.938 -1.57226 0.108567 0
M  V30 1915 C 174.184 -1.95121 -0.552761 0
M  V30 1916 C 174.517 -0.991345 -1.66991 0
M  V30 1917 O 173.792 -0.0267211 -1.94482 0
M  V30 1918 C 174.075 -3.43039 -1.09528 0
M  V30 1919 C 173.928 -4.49797 0.0177332 0
M  V30 1920 C 175.247 -3.92567 -1.98945 0
M  V30 1921 H 172.366 -0.709496 -0.199461 0
M  V30 1922 H 175.008 -1.89126 0.182011 0
M  V30 1923 H 173.158 -3.48279 -1.72146 0
M  V30 1924 H 174.83 -4.56661 0.652584 0
M  V30 1925 H 173.073 -4.284 0.682309 0
M  V30 1926 H 173.744 -5.50528 -0.402919 0
M  V30 1927 H 176.22 -3.89565 -1.46214 0
M  V30 1928 H 175.096 -4.96605 -2.33827 0
M  V30 1929 H 175.357 -3.32648 -2.91201 0
M  V30 1930 N 174.416 0.165178 -1.56732 0
M  V30 1931 C 175.693 0.908443 -1.73224 0
M  V30 1932 C 176.073 2.0013 -0.67165 0
M  V30 1933 O 175.421 2.26353 0.31253 0
M  V30 1934 C 175.631 1.46756 -3.16644 0
M  V30 1935 C 176.979 1.93809 -3.77787 0
M  V30 1936 O 178.003 1.56537 -3.1996 0
M  V30 1937 O 176.862 2.62486 -4.79336 0
M  V30 1938 H 173.956 0.428025 -0.707618 0
M  V30 1939 H 176.502 0.152526 -1.69013 0
M  V30 1940 H 175.274 0.68129 -3.85323 0
M  V30 1941 H 174.897 2.28749 -3.25207 0
M  V30 1942 N 175.894 1.51508 0.433938 0
M  V30 1943 C 177.14 1.65549 1.18173 0
M  V30 1944 C 177.495 0.368751 1.88833 0
M  V30 1945 O 176.788 -0.635616 1.8075 0
M  V30 1946 C 176.982 2.79928 2.22205 0
M  V30 1947 C 176.811 4.19601 1.61756 0
M  V30 1948 C 175.581 4.85489 1.40101 0
M  V30 1949 C 177.779 5.02574 1.09194 0
M  V30 1950 N 175.761 6.09266 0.752859 0
M  V30 1951 C 177.132 6.17381 0.569255 0
M  V30 1952 C 179.187 4.88079 0.984025 0
M  V30 1953 C 177.89 7.19282 -0.0507472 0
M  V30 1954 C 179.916 5.90191 0.377912 0
M  V30 1955 C 179.278 7.04272 -0.134216 0
M  V30 1956 H 175.377 0.659653 0.419979 0
M  V30 1957 H 177.961 1.88746 0.477818 0
M  V30 1958 H 176.132 2.5839 2.89982 0
M  V30 1959 H 177.864 2.83132 2.89168 0
M  V30 1960 H 174.619 4.43417 1.66369 0
M  V30 1961 H 175.043 6.75528 0.446123 0
M  V30 1962 H 179.685 4.00131 1.36583 0
M  V30 1963 H 177.403 8.06876 -0.444676 0
M  V30 1964 H 180.989 5.81045 0.296269 0
M  V30 1965 H 179.869 7.81933 -0.59585 0
M  V30 1966 N 177.372 -0.689602 1.41712 0
M  V30 1967 C 178.788 -1.00093 1.24312 0
M  V30 1968 C 178.988 -2.01036 0.136729 0
M  V30 1969 O 178.044 -2.47562 -0.496918 0
M  V30 1970 C 179.357 -1.51985 2.59463 0
M  V30 1971 C 180.905 -1.63838 2.66695 0
M  V30 1972 C 181.38 -2.1913 4.02177 0
M  V30 1973 N 182.871 -2.26483 4.04054 0
M  V30 1974 C 183.606 -2.70306 5.0569 0
M  V30 1975 N 183.102 -3.13691 6.17713 0
M  V30 1976 N 184.895 -2.69923 4.9305 0
M  V30 1977 H 177.046 -0.0210029 2.1239 0
M  V30 1978 H 179.309 -0.0718733 0.945272 0
M  V30 1979 H 179.015 -0.85269 3.41207 0
M  V30 1980 H 178.889 -2.50103 2.82362 0
M  V30 1981 H 181.276 -2.29664 1.85306 0
M  V30 1982 H 181.357 -0.642492 2.476 0
M  V30 1983 H 181.001 -1.53918 4.84016 0
M  V30 1984 H 180.931 -3.19482 4.18615 0
M  V30 1985 H 183.422 -1.95874 3.23174 0
M  V30 1986 H 183.735 -3.45773 6.9113 0
M  V30 1987 H 182.08 -3.11585 6.21241 0
M  V30 1988 H 185.271 -2.35382 4.04614 0
M  V30 1989 H 185.444 -3.03758 5.72394 0
M  V30 1990 N 178.85 -1.27639 -0.924453 0
M  V30 1991 C 179.797 -1.10644 -2.0255 0
M  V30 1992 C 180.767 -0.00658438 -1.66099 0
M  V30 1993 O 181.952 -0.16952 -1.90045 0
M  V30 1994 C 179.092 -0.76309 -3.36557 0
M  V30 1995 C 178.205 -1.94091 -3.85944 0
M  V30 1996 C 177.34 -1.53914 -5.08413 0
M  V30 1997 C 176.379 -2.68425 -5.50104 0
M  V30 1998 N 175.516 -2.28815 -6.63768 0
M  V30 1999 H 180.356 -2.04858 -2.16419 0
M  V30 2000 H 177.893 -1.01974 -1.06017 0
M  V30 2001 H 179.851 -0.544822 -4.13627 0
M  V30 2002 H 178.481 0.142102 -3.22487 0
M  V30 2003 H 177.533 -2.27162 -3.05125 0
M  V30 2004 H 178.845 -2.7998 -4.12811 0
M  V30 2005 H 177.999 -1.28231 -5.92994 0
M  V30 2006 H 176.738 -0.651391 -4.8333 0
M  V30 2007 H 175.743 -2.94819 -4.64071 0
M  V30 2008 H 176.968 -3.57826 -5.7718 0
M  V30 2009 H 174.914 -1.42495 -6.40337 0
M  V30 2010 H 174.831 -3.08242 -6.90306 0
M  V30 2011 H 176.099 -2.06387 -7.51681 0
M  V30 2012 N 180.328 1.1314 -1.09713 0
M  V30 2013 C 181.275 2.18642 -0.739196 0
M  V30 2014 C 182.245 1.63706 0.280978 0
M  V30 2015 O 183.43 1.90111 0.161946 0
M  V30 2016 C 180.57 3.44685 -0.169102 0
M  V30 2017 C 179.683 4.13711 -1.24367 0
M  V30 2018 C 178.818 5.27379 -0.636019 0
M  V30 2019 C 177.857 5.88259 -1.69169 0
M  V30 2020 N 176.994 6.93352 -1.10485 0
M  V30 2021 H 181.834 2.48607 -1.64312 0
M  V30 2022 H 179.371 1.22066 -0.820875 0
M  V30 2023 H 181.329 4.16815 0.179256 0
M  V30 2024 H 179.959 3.15161 0.698079 0
M  V30 2025 H 179.011 3.39835 -1.70927 0
M  V30 2026 H 180.323 4.55037 -2.04311 0
M  V30 2027 H 179.477 6.06238 -0.236677 0
M  V30 2028 H 178.216 4.8731 0.194928 0
M  V30 2029 H 177.221 5.08092 -2.10055 0
M  V30 2030 H 178.446 6.30399 -2.52536 0
M  V30 2031 H 176.392 6.55335 -0.295234 0
M  V30 2032 H 176.309 7.33236 -1.84121 0
M  V30 2033 H 177.577 7.76057 -0.73181 0
M  V30 2034 N 181.806 0.884767 1.30421 0
M  V30 2035 C 183.054 0.502112 1.95763 0
M  V30 2036 C 183.375 -0.951815 1.70192 0
M  V30 2037 O 182.645 -1.6692 1.0254 0
M  V30 2038 H 181.225 0.182694 0.724315 0
M  V30 2039 H 183.887 1.1278 1.58955 0
M  V30 2040 H 182.983 0.672188 3.04775 0
M  V30 2041 N 183.284 -1.43765 0.645699 0
M  V30 2042 C 184.514 -2.05953 0.163318 0
M  V30 2043 C 184.922 -1.48432 -1.17322 0
M  V30 2044 O 184.265 -0.607295 -1.73371 0
M  V30 2045 C 184.327 -3.59499 -0.0103065 0
M  V30 2046 C 183.991 -4.39563 1.25035 0
M  V30 2047 C 184.988 -4.72108 2.17739 0
M  V30 2048 C 182.673 -4.79697 1.48983 0
M  V30 2049 C 184.667 -5.43688 3.3269 0
M  V30 2050 C 182.354 -5.51023 2.64229 0
M  V30 2051 C 183.352 -5.8294 3.55908 0
M  V30 2052 O 183.04 -6.5281 4.69142 0
M  V30 2053 H 182.772 -0.670798 0.0836986 0
M  V30 2054 H 185.326 -1.85384 0.884407 0
M  V30 2055 H 183.556 -3.78613 -0.78669 0
M  V30 2056 H 185.245 -4.03408 -0.449087 0
M  V30 2057 H 186.011 -4.41627 2.00476 0
M  V30 2058 H 181.89 -4.54266 0.785078 0
M  V30 2059 H 185.434 -5.68517 4.04269 0
M  V30 2060 H 181.331 -5.8092 2.81429 0
M  V30 2061 H 182.099 -6.71288 4.6831 0
M  V30 2062 N 184.763 -0.387143 -1.52771 0
M  V30 2063 C 186.009 0.196025 -2.0185 0
M  V30 2064 C 186.342 1.46641 -1.27319 0
M  V30 2065 O 185.617 1.90889 -0.373032 0
M  V30 2066 C 185.9 0.466136 -3.5707 0
M  V30 2067 C 185.753 -0.819385 -4.42274 0
M  V30 2068 C 187.072 1.25768 -4.21747 0
M  V30 2069 H 184.191 0.0697708 -0.73369 0
M  V30 2070 H 186.833 -0.516286 -1.82851 0
M  V30 2071 H 184.983 1.07293 -3.7339 0
M  V30 2072 H 186.655 -1.4563 -4.37709 0
M  V30 2073 H 184.898 -1.43517 -4.09372 0
M  V30 2074 H 185.569 -0.585065 -5.48891 0
M  V30 2075 H 188.045 0.744167 -4.09391 0
M  V30 2076 H 186.921 1.41541 -5.30337 0
M  V30 2077 H 187.182 2.27228 -3.79236 0
M  V30 2078 N 186.241 1.57166 -0.116904 0
M  V30 2079 C 187.469 1.99473 0.549383 0
M  V30 2080 C 187.884 0.996541 1.60357 0
M  V30 2081 O 187.241 -0.0108731 1.82497 0
M  V30 2082 C 187.292 3.41788 1.17741 0
M  V30 2083 O 187.013 4.37788 0.165362 0
M  V30 2084 C 188.514 3.99216 1.92722 0
M  V30 2085 H 185.734 0.655009 0.145616 0
M  V30 2086 H 188.278 2.03494 -0.202625 0
M  V30 2087 H 186.433 3.38713 1.88021 0
M  V30 2088 H 186.847 5.20806 0.621403 0
M  V30 2089 H 188.321 5.00882 2.31995 0
M  V30 2090 H 188.798 3.3824 2.80161 0
M  V30 2091 H 189.404 4.0583 1.27209 0
M  V30 2092 N 187.719 -0.156864 1.56817 0
M  V30 2093 C 189.13 -0.717916 1.72345 0
M  V30 2094 C 189.481 -1.82124 0.729747 0
M  V30 2095 O 188.606 -2.16141 -0.105781 0
M  V30 2096 C 189.201 -1.30904 3.12489 0
M  V30 2097 C 187.76 -1.81676 3.29653 0
M  V30 2098 C 186.907 -0.701349 2.68284 0
M  V30 2099 H 189.858 0.0686989 1.58551 0
M  V30 2100 H 189.879 -2.17882 3.11942 0
M  V30 2101 H 189.391 -0.505796 3.8479 0
M  V30 2102 H 187.492 -2.64598 2.62333 0
M  V30 2103 H 187.605 -1.95226 4.3752 0
M  V30 2104 H 185.969 -1.12548 2.28484 0
M  V30 2105 H 186.752 0.0902846 3.43181 0
M  V30 2106 N 189.197 -1.51736 -0.425897 0
M  V30 2107 C 190.443 -1.65214 -1.1761 0
M  V30 2108 C 190.776 -0.372778 -1.90589 0
M  V30 2109 O 190.051 0.628139 -1.84078 0
M  V30 2110 C 190.334 -2.86312 -2.18398 0
M  V30 2111 C 190.187 -4.24254 -1.49426 0
M  V30 2112 C 191.506 -3.02925 -3.19256 0
M  V30 2113 H 188.625 -0.601263 -0.426206 0
M  V30 2114 H 191.267 -1.8425 -0.463882 0
M  V30 2115 H 189.417 -2.70213 -2.79137 0
M  V30 2116 H 191.089 -4.52046 -0.919362 0
M  V30 2117 H 189.332 -4.26426 -0.796432 0
M  V30 2118 H 190.003 -5.05001 -2.22885 0
M  V30 2119 H 192.479 -3.1781 -2.68581 0
M  V30 2120 H 191.355 -3.89199 -3.8706 0
M  V30 2121 H 191.616 -2.15497 -3.86023 0
M  V30 2122 N 190.675 0.682077 -1.42076 0
M  V30 2123 C 191.622 1.79578 -1.44984 0
M  V30 2124 C 192.592 1.6332 -0.302614 0
M  V30 2125 O 193.777 1.83978 -0.505633 0
M  V30 2126 C 190.917 3.1756 -1.35091 0
M  V30 2127 C 190.03 3.45156 -2.59791 0
M  V30 2128 C 189.165 4.72826 -2.42093 0
M  V30 2129 C 188.204 4.93433 -3.62202 0
M  V30 2130 N 187.341 6.12338 -3.43491 0
M  V30 2131 H 192.181 1.76427 -2.40161 0
M  V30 2132 H 189.718 0.861376 -1.19242 0
M  V30 2133 H 191.676 3.97287 -1.27354 0
M  V30 2134 H 190.306 3.19854 -0.435133 0
M  V30 2135 H 189.358 2.59736 -2.77923 0
M  V30 2136 H 190.67 3.5628 -3.49094 0
M  V30 2137 H 189.824 5.60631 -2.319 0
M  V30 2138 H 188.563 4.63973 -1.50268 0
M  V30 2139 H 187.568 4.04073 -3.72834 0
M  V30 2140 H 188.793 5.04136 -4.54998 0
M  V30 2141 H 186.739 6.04672 -2.54377 0
M  V30 2142 H 186.656 6.2429 -4.26377 0
M  V30 2143 H 187.924 7.02841 -3.37097 0
M  V30 2144 N 192.153 1.28127 0.917671 0
M  V30 2145 C 193.101 1.11569 2.04096 0
M  V30 2146 C 194.095 0.0360242 1.69362 0
M  V30 2147 O 195.301 0.194501 1.78946 0
M  V30 2148 H 191.676 0.344097 0.668656 0
M  V30 2149 H 193.647 2.06711 2.15205 0
M  V30 2150 C 192.396 0.790197 3.38602 0
M  V30 2151 H 191.719 1.61293 3.6582 0
M  V30 2152 H 193.159 0.714271 4.1794 0
M  V30 2153 C 191.618 -0.505897 3.3308 0
M  V30 2154 O 192.148 -1.53736 3.71117 0
M  V30 2155 N 190.354 -0.505193 2.86175 0
M  V30 2156 H 189.901 0.334621 2.55417 0
M  V30 2157 H 189.859 -1.37243 2.82863 0
M  V30 2158 N 193.631 -1.12557 1.10312 0
M  V30 2159 C 194.563 -2.17971 0.708625 0
M  V30 2160 C 195.576 -1.60806 -0.254027 0
M  V30 2161 O 196.765 -1.78458 -0.0386891 0
M  V30 2162 C 193.865 -3.38891 0.0248198 0
M  V30 2163 C 193.038 -4.25548 1.01132 0
M  V30 2164 C 192.097 -5.24972 0.35924 0
M  V30 2165 O 191.123 -5.60174 1.00965 0
M  V30 2166 N 192.325 -5.73747 -0.882847 0
M  V30 2167 H 195.09 -2.52427 1.61557 0
M  V30 2168 H 192.651 -1.27967 0.991771 0
M  V30 2169 H 194.643 -4.02485 -0.422852 0
M  V30 2170 H 193.213 -3.02596 -0.784514 0
M  V30 2171 H 192.433 -3.58589 1.6373 0
M  V30 2172 H 193.721 -4.80294 1.67914 0
M  V30 2173 H 193.119 -5.4731 -1.43065 0
M  V30 2174 H 191.676 -6.39234 -1.27369 0
M  V30 2175 N 195.109 -0.891671 -1.2995 0
M  V30 2176 C 196.056 -0.361736 -2.27948 0
M  V30 2177 C 197.026 0.551761 -1.56668 0
M  V30 2178 O 198.211 0.478736 -1.84696 0
M  V30 2179 C 195.351 0.411825 -3.42634 0
M  V30 2180 C 194.464 -0.531651 -4.28716 0
M  V30 2181 C 193.599 0.258167 -5.30572 0
M  V30 2182 C 192.638 -0.680349 -6.08307 0
M  V30 2183 N 191.775 0.0745613 -7.0206 0
M  V30 2184 H 196.615 -1.20254 -2.72659 0
M  V30 2185 H 194.152 -0.604352 -1.34112 0
M  V30 2186 H 196.11 0.876304 -4.07893 0
M  V30 2187 H 194.74 1.21715 -2.98974 0
M  V30 2188 H 193.792 -1.11463 -3.63703 0
M  V30 2189 H 195.104 -1.25038 -4.82874 0
M  V30 2190 H 194.258 0.784204 -6.0161 0
M  V30 2191 H 192.997 1.01008 -4.77126 0
M  V30 2192 H 192.002 -1.21796 -5.3614 0
M  V30 2193 H 193.227 -1.43145 -6.63842 0
M  V30 2194 H 191.173 0.808883 -6.50994 0
M  V30 2195 H 191.09 -0.584409 -7.53738 0
M  V30 2196 H 192.358 0.581123 -7.77331 0
M  V30 2197 N 196.587 1.43421 -0.653314 0
M  V30 2198 C 197.519 2.29071 0.0769134 0
M  V30 2199 C 198.532 1.42513 0.787017 0
M  V30 2200 O 199.721 1.66449 0.644757 0
M  V30 2201 C 196.821 3.19436 1.13199 0
M  V30 2202 C 195.994 4.34533 0.500006 0
M  V30 2203 C 195.053 5.05771 1.45198 0
M  V30 2204 O 194.079 5.61037 0.960538 0
M  V30 2205 N 195.281 5.0928 2.78594 0
M  V30 2206 H 198.046 2.92382 -0.658235 0
M  V30 2207 H 195.607 1.54112 -0.496104 0
M  V30 2208 H 197.599 3.63958 1.76964 0
M  V30 2209 H 196.169 2.57724 1.7691 0
M  V30 2210 H 195.389 3.92925 -0.316738 0
M  V30 2211 H 196.677 5.08766 0.0588345 0
M  V30 2212 H 196.075 4.65751 3.2108 0
M  V30 2213 H 194.632 5.57519 3.37662 0
M  V30 2214 N 198.065 0.39524 1.52563 0
M  V30 2215 C 199.305 -0.184744 2.03563 0
M  V30 2216 C 199.669 -1.43548 1.27507 0
M  V30 2217 O 200.87 -2.093 1.68662 0
M  V30 2218 C 199.141 -0.440294 3.54678 0
M  V30 2219 S 200.7 -0.989712 4.27493 0
M  V30 2220 H 197.518 -0.0515075 0.709132 0
M  V30 2221 H 200.12 0.544957 1.87751 0
M  V30 2222 H 198.824 0.477005 4.07618 0
M  V30 2223 H 198.355 -1.19825 3.74707 0
M  V30 2224 H 200.37 -2.27155 4.41152 0
M  V30 2225 N 199.544 -1.57102 0.125237 0
M  V30 2226 C 200.792 -1.95021 -0.530198 0
M  V30 2227 C 201.113 -1.00982 -1.66816 0
M  V30 2228 O 200.383 -0.0672693 -1.95784 0
M  V30 2229 H 198.963 -0.720046 -0.198853 0
M  V30 2230 H 201.625 -1.93916 0.19564 0
M  V30 2231 H 200.721 -2.98211 -0.920681 0
M  V30 2232 N 201.022 0.148545 -1.56898 0
M  V30 2233 C 202.247 0.880385 -1.87787 0
M  V30 2234 C 202.672 1.74018 -0.714093 0
M  V30 2235 O 202.03 1.78153 0.336343 0
M  V30 2236 C 202.078 1.71422 -3.17249 0
M  V30 2237 O 201.182 2.8183 -3.01074 0
M  V30 2238 H 200.523 0.245301 -0.617028 0
M  V30 2239 H 203.053 0.139826 -2.04122 0
M  V30 2240 H 203.063 2.10954 -3.49231 0
M  V30 2241 H 201.738 1.08284 -4.01556 0
M  V30 2242 H 200.315 2.45715 -2.80497 0
M  V30 2243 N 202.5 1.5196 0.417844 0
M  V30 2244 C 203.74 1.67262 1.17486 0
M  V30 2245 C 204.104 0.38983 1.88001 0
M  V30 2246 O 205.305 0.418845 2.65517 0
M  V30 2247 C 203.576 2.85526 2.14965 0
M  V30 2248 S 205.135 3.21263 2.98891 0
M  V30 2249 H 201.953 0.589077 0.398132 0
M  V30 2250 H 204.555 1.89927 0.463452 0
M  V30 2251 H 203.259 3.77145 1.61833 0
M  V30 2252 H 202.79 2.65107 2.90657 0
M  V30 2253 H 204.805 2.69208 4.16823 0
M  V30 2254 N 203.978 -0.674533 1.42435 0
M  V30 2255 C 205.224 -1.43521 1.4413 0
M  V30 2256 C 205.579 -1.92316 0.0567773 0
M  V30 2257 O 204.872 -1.68008 -0.921076 0
M  V30 2258 C 205.066 -2.64767 2.40069 0
M  V30 2259 C 204.895 -2.27836 3.87713 0
M  V30 2260 C 203.665 -2.17183 4.56245 0
M  V30 2261 C 205.863 -1.89466 4.78129 0
M  V30 2262 N 203.845 -1.73358 5.88915 0
M  V30 2263 C 205.216 -1.56561 5.99907 0
M  V30 2264 C 207.271 -1.7646 4.65582 0
M  V30 2265 C 205.974 -1.11957 7.10534 0
M  V30 2266 C 208 -1.3326 5.76191 0
M  V30 2267 C 207.362 -1.0128 6.97081 0
M  V30 2268 H 203.461 -0.521656 0.582579 0
M  V30 2269 H 206.045 -0.778381 1.78464 0
M  V30 2270 H 204.216 -3.28139 2.07796 0
M  V30 2271 H 205.948 -3.3136 2.32342 0
M  V30 2272 H 202.703 -2.3626 4.10461 0
M  V30 2273 H 203.127 -1.53867 6.59283 0
M  V30 2274 H 207.769 -1.99831 3.72595 0
M  V30 2275 H 205.487 -0.873318 8.03367 0
M  V30 2276 H 209.073 -1.23717 5.68494 0
M  V30 2277 H 207.953 -0.683597 7.81215 0
M  V30 2278 N 205.456 -1.28612 -0.910864 0
M  V30 2279 C 206.419 -1.12803 -1.9952 0
M  V30 2280 C 207.419 -0.0668264 -1.60661 0
M  V30 2281 O 208.609 -0.312847 -1.71368 0
M  V30 2282 C 205.741 -0.72254 -3.33155 0
M  V30 2283 H 206.934 -2.09109 -2.14973 0
M  V30 2284 H 204.487 -1.11639 -1.09391 0
M  V30 2285 H 205.222 0.241152 -3.23402 0
M  V30 2286 H 205.007 -1.48916 -3.62721 0
M  V30 2287 H 206.497 -0.634666 -4.12749 0
M  V30 2288 N 206.934 1.1197 -1.10907 0
M  V30 2289 C 208.181 1.83588 -0.854507 0
M  V30 2290 C 208.509 1.84357 0.6199 0
M  V30 2291 O 207.764 1.28809 1.47332 0
M  V30 2292 C 208.063 3.30749 -1.35425 0
M  V30 2293 C 207.729 3.50146 -2.84093 0
M  V30 2294 C 206.391 3.55148 -3.2469 0
M  V30 2295 C 208.743 3.56857 -3.79872 0
M  V30 2296 C 206.071 3.6441 -4.59806 0
M  V30 2297 C 208.423 3.6765 -5.14797 0
M  V30 2298 C 207.087 3.7091 -5.54961 0
M  V30 2299 H 206.357 0.671795 -0.312686 0
M  V30 2300 H 209.004 1.32091 -1.38652 0
M  V30 2301 H 207.309 3.84703 -0.742361 0
M  V30 2302 H 209.006 3.8464 -1.1337 0
M  V30 2303 H 205.596 3.46919 -2.51685 0
M  V30 2304 H 209.78 3.52258 -3.49611 0
M  V30 2305 H 205.036 3.65208 -4.9034 0
M  V30 2306 H 209.21 3.71786 -5.88853 0
M  V30 2307 H 206.837 3.7784 -6.59652 0
M  V30 2308 N 208.412 0.89855 1.29475 0
M  V30 2309 C 209.637 0.538561 2.00285 0
M  V30 2310 C 210.062 -0.869135 1.66816 0
M  V30 2311 O 209.42 -1.57831 0.892145 0
M  V30 2312 C 209.468 0.736475 3.52999 0
M  V30 2313 O 208.572 -0.211537 4.11857 0
M  V30 2314 H 207.913 0.210563 0.62973 0
M  V30 2315 H 210.443 1.20982 1.64998 0
M  V30 2316 H 210.453 0.640685 4.02938 0
M  V30 2317 H 209.128 1.76276 3.76696 0
M  V30 2318 H 207.705 -0.0682991 3.72837 0
M  V30 2319 N 209.89 -1.43072 0.660911 0
M  V30 2320 C 210.853 -2.29194 -0.0166406 0
M  V30 2321 C 211.853 -1.42609 -0.742912 0
M  V30 2322 O 213.043 -1.64155 -0.583004 0
M  V30 2323 C 210.175 -3.24831 -1.0343 0
M  V30 2324 H 211.368 -2.90596 0.741208 0
M  V30 2325 H 208.921 -1.5048 0.422532 0
M  V30 2326 H 209.656 -2.68339 -1.82111 0
M  V30 2327 H 209.441 -3.88676 -0.517082 0
M  V30 2328 H 210.931 -3.89451 -1.50723 0
M  V30 2329 N 211.368 -0.403325 -1.52352 0
M  V30 2330 C 212.596 0.174012 -2.06167 0
M  V30 2331 C 213.011 1.39347 -1.27388 0
M  V30 2332 O 212.368 1.79597 -0.324201 0
M  V30 2333 C 212.419 0.530223 -3.5759 0
M  V30 2334 O 212.14 -0.640806 -4.33388 0
M  V30 2335 C 213.641 1.16192 -4.27802 0
M  V30 2336 H 210.861 0.0229464 -0.670608 0
M  V30 2337 H 213.405 -0.572604 -1.9632 0
M  V30 2338 H 211.56 1.22673 -3.67464 0
M  V30 2339 H 211.974 -0.344851 -5.23365 0
M  V30 2340 H 213.448 1.36141 -5.34948 0
M  V30 2341 H 213.925 2.13335 -3.83907 0
M  V30 2342 H 214.531 0.505775 -4.22282 0
M  V30 2343 N 212.846 1.57033 -0.133567 0
M  V30 2344 C 214.094 1.953 0.519848 0
M  V30 2345 C 214.415 1.01866 1.66278 0
M  V30 2346 O 213.685 0.0776513 1.95746 0
M  V30 2347 H 212.265 0.721091 0.195032 0
M  V30 2348 H 214.927 1.93809 -0.205921 0
M  V30 2349 H 214.023 2.98695 0.904854 0
M  V30 2350 N 214.325 -0.140222 1.56975 0
M  V30 2351 C 215.288 -1.15689 1.97861 0
M  V30 2352 C 216.288 -1.3549 0.865974 0
M  V30 2353 O 217.478 -1.32367 1.13246 0
M  V30 2354 C 214.61 -2.51582 2.30042 0
M  V30 2355 H 215.803 -0.805971 2.88867 0
M  V30 2356 H 213.356 -0.383801 1.51515 0
M  V30 2357 H 214.091 -2.91632 1.41849 0
M  V30 2358 H 213.876 -2.38569 3.11171 0
M  V30 2359 H 215.366 -3.24792 2.62488 0
M  V30 2360 N 215.803 -1.52179 -0.40978 0
M  V30 2361 C 216.733 -1.78435 -1.5061 0
M  V30 2362 C 217.714 -0.635295 -1.57791 0
M  V30 2363 O 218.899 -0.880823 -1.73076 0
M  V30 2364 C 216.029 -1.93444 -2.88439 0
M  V30 2365 C 214.983 -3.09038 -2.96108 0
M  V30 2366 C 214.309 -3.09268 -4.36185 0
M  V30 2367 C 215.609 -4.48508 -2.67652 0
M  V30 2368 H 217.303 -2.70237 -1.28889 0
M  V30 2369 H 214.849 -1.30036 -0.618605 0
M  V30 2370 H 216.802 -2.10394 -3.65119 0
M  V30 2371 H 215.526 -0.983129 -3.11452 0
M  V30 2372 H 214.185 -2.91837 -2.21872 0
M  V30 2373 H 213.833 -2.11861 -4.56206 0
M  V30 2374 H 213.533 -3.86907 -4.42241 0
M  V30 2375 H 215.057 -3.28348 -5.14801 0
M  V30 2376 H 216.471 -4.65918 -3.34056 0
M  V30 2377 H 214.868 -5.28059 -2.85085 0
M  V30 2378 H 215.938 -4.56649 -1.63095 0
M  V30 2379 N 217.281 0.66697 -1.42791 0
M  V30 2380 C 218.191 1.80962 -1.49299 0
M  V30 2381 C 219.207 1.69775 -0.381108 0
M  V30 2382 O 220.383 1.91188 -0.633188 0
M  V30 2383 C 217.448 3.17156 -1.40045 0
M  V30 2384 C 216.509 3.40242 -2.6179 0
M  V30 2385 C 215.742 4.69939 -2.52969 0
M  V30 2386 O 215.965 5.48372 -1.56985 0
M  V30 2387 O 214.899 4.94441 -3.43237 0
M  V30 2388 H 218.725 1.78427 -2.45759 0
M  V30 2389 H 216.31 0.823713 -1.24641 0
M  V30 2390 H 218.192 3.98413 -1.37276 0
M  V30 2391 H 216.867 3.20312 -0.467138 0
M  V30 2392 H 215.774 2.58802 -2.70134 0
M  V30 2393 H 217.107 3.41923 -3.54047 0
M  V30 2394 N 218.759 1.29093 0.90403 0
M  V30 2395 C 220.007 1.16583 1.65085 0
M  V30 2396 C 220.328 -0.283933 1.92922 0
M  V30 2397 O 219.598 -1.19509 1.55224 0
M  V30 2398 H 218.178 0.428467 0.611903 0
M  V30 2399 H 220.84 1.61959 1.08422 0
M  V30 2400 H 219.936 1.71266 2.6091 0
M  V30 2401 N 220.237 -1.11381 1.11499 0
M  V30 2402 C 221.169 -2.17207 0.731704 0
M  V30 2403 C 222.182 -1.61066 -0.236957 0
M  V30 2404 O 223.371 -1.78489 -0.0197591 0
M  V30 2405 C 220.471 -3.38846 0.0607624 0
M  V30 2406 C 219.644 -4.24451 1.0564 0
M  V30 2407 C 218.703 -5.24562 0.4149 0
M  V30 2408 O 217.729 -5.59071 1.069 0
M  V30 2409 N 218.931 -5.74651 -0.821943 0
M  V30 2410 H 221.696 -2.50699 1.64225 0
M  V30 2411 H 219.257 -1.26908 1.00529 0
M  V30 2412 H 221.249 -4.02911 -0.380139 0
M  V30 2413 H 219.819 -3.03411 -0.752376 0
M  V30 2414 H 219.039 -3.56833 1.67524 0
M  V30 2415 H 220.327 -4.78486 1.72998 0
M  V30 2416 H 219.725 -5.48797 -1.37252 0
M  V30 2417 H 218.282 -6.40549 -1.20582 0
M  V30 2418 N 221.715 -0.905404 -1.28997 0
M  V30 2419 C 222.648 -0.331959 -2.25773 0
M  V30 2420 C 223.626 0.559099 -1.52685 0
M  V30 2421 O 224.81 0.50463 -1.8162 0
M  V30 2422 C 221.937 0.526276 -3.34586 0
M  V30 2423 C 220.983 -0.298249 -4.25456 0
M  V30 2424 S 221.816 -1.69968 -5.0781 0
M  V30 2425 C 222.972 -0.848519 -6.20122 0
M  V30 2426 H 223.205 -1.15222 -2.74064 0
M  V30 2427 H 220.738 -0.706112 -1.37308 0
M  V30 2428 H 222.696 1.01565 -3.97737 0
M  V30 2429 H 221.357 1.32084 -2.84978 0
M  V30 2430 H 220.55 0.357607 -5.0273 0
M  V30 2431 H 220.152 -0.720968 -3.66985 0
M  V30 2432 H 222.444 -0.0744325 -6.77459 0
M  V30 2433 H 223.387 -1.59353 -6.89937 0
M  V30 2434 H 223.795 -0.400383 -5.63078 0
M  V30 2435 N 223.193 1.4272 -0.668489 0
M  V30 2436 C 224.44 2.01624 -0.18814 0
M  V30 2437 C 224.768 1.5282 1.20317 0
M  V30 2438 O 224.023 0.718323 1.8204 0
M  V30 2439 C 224.322 3.57021 -0.164499 0
M  V30 2440 C 223.988 4.25232 -1.49962 0
M  V30 2441 C 222.65 4.4358 -1.8652 0
M  V30 2442 C 225.002 4.63727 -2.37921 0
M  V30 2443 C 222.33 4.97694 -3.10674 0
M  V30 2444 C 224.682 5.19218 -3.6138 0
M  V30 2445 C 223.346 5.3578 -3.98115 0
M  V30 2446 H 222.616 0.737795 -0.0688454 0
M  V30 2447 H 225.263 1.70991 -0.862225 0
M  V30 2448 H 223.568 3.87285 0.593079 0
M  V30 2449 H 225.265 4.00372 0.224271 0
M  V30 2450 H 221.855 4.11306 -1.20522 0
M  V30 2451 H 226.039 4.4923 -2.10964 0
M  V30 2452 H 221.295 5.08702 -3.39164 0
M  V30 2453 H 225.469 5.4799 -4.29743 0
M  V30 2454 H 223.096 5.77475 -4.94395 0
M  V30 2455 N 224.671 0.411399 1.52136 0
M  V30 2456 C 226.087 0.0623865 1.59478 0
M  V30 2457 C 226.287 -1.42554 1.4241 0
M  V30 2458 O 225.343 -2.19263 1.2522 0
M  V30 2459 C 226.656 0.559331 2.95452 0
M  V30 2460 C 228.204 0.517503 3.08692 0
M  V30 2461 C 228.679 0.990994 4.4715 0
M  V30 2462 N 230.17 0.947908 4.53397 0
M  V30 2463 C 230.905 1.28544 5.58806 0
M  V30 2464 N 230.401 1.69454 6.71757 0
M  V30 2465 N 232.194 1.20526 5.49026 0
M  V30 2466 H 224.345 1.37982 1.61477 0
M  V30 2467 H 226.608 0.566977 0.759764 0
M  V30 2468 H 226.314 1.59938 3.1323 0
M  V30 2469 H 226.188 -0.0298014 3.77188 0
M  V30 2470 H 228.575 -0.513505 2.90598 0
M  V30 2471 H 228.656 1.14272 2.28857 0
M  V30 2472 H 228.3 2.02034 4.65988 0
M  V30 2473 H 228.23 0.34257 5.25485 0
M  V30 2474 H 230.721 0.647157 3.72317 0
M  V30 2475 H 231.034 1.93513 7.48179 0
M  V30 2476 H 229.379 1.73359 6.73032 0
M  V30 2477 H 232.57 0.884505 4.59667 0
M  V30 2478 H 232.743 1.47161 6.31069 0
M  V30 2479 N 226.149 -1.5696 0.141893 0
M  V30 2480 C 227.096 -2.16501 -0.799737 0
M  V30 2481 C 228.066 -1.09643 -1.24771 0
M  V30 2482 O 229.251 -1.3766 -1.32115 0
M  V30 2483 C 226.391 -2.78679 -2.03549 0
M  V30 2484 C 225.504 -3.99914 -1.6338 0
M  V30 2485 C 224.639 -4.50106 -2.82096 0
M  V30 2486 C 223.678 -5.63819 -2.38275 0
M  V30 2487 N 222.815 -6.08651 -3.49983 0
M  V30 2488 H 227.655 -2.96632 -0.285179 0
M  V30 2489 H 225.192 -1.46533 -0.129053 0
M  V30 2490 H 227.15 -3.1287 -2.75986 0
M  V30 2491 H 225.78 -2.012 -2.52425 0
M  V30 2492 H 224.832 -3.71735 -0.807279 0
M  V30 2493 H 226.144 -4.82311 -1.27192 0
M  V30 2494 H 225.298 -4.86325 -3.62729 0
M  V30 2495 H 224.037 -3.66706 -3.21525 0
M  V30 2496 H 223.042 -5.2718 -1.56081 0
M  V30 2497 H 224.267 -6.49 -1.99938 0
M  V30 2498 H 222.213 -5.28188 -3.89042 0
M  V30 2499 H 222.13 -6.85961 -3.17794 0
M  V30 2500 H 223.398 -6.49515 -4.30988 0
M  V30 2501 N 227.627 0.131896 -1.57047 0
M  V30 2502 C 228.855 0.856461 -1.88341 0
M  V30 2503 C 229.27 1.74042 -0.731757 0
M  V30 2504 O 228.627 1.80051 0.297945 0
M  V30 2505 C 228.678 1.70064 -3.18999 0
M  V30 2506 O 228.399 0.852278 -4.2973 0
M  V30 2507 C 229.9 2.53148 -3.63911 0
M  V30 2508 H 227.12 0.246885 -0.62393 0
M  V30 2509 H 229.664 0.120152 -2.04147 0
M  V30 2510 H 227.819 2.38984 -3.04902 0
M  V30 2511 H 228.233 1.43329 -5.04537 0
M  V30 2512 H 229.707 3.07931 -4.58129 0
M  V30 2513 H 230.184 3.29901 -2.89935 0
M  V30 2514 H 230.79 1.89492 -3.80753 0
M  V30 2515 N 229.106 1.52395 0.401703 0
M  V30 2516 C 230.354 1.66488 1.14569 0
M  V30 2517 C 230.675 0.400897 1.90835 0
M  V30 2518 O 229.945 -0.584415 1.8698 0
M  V30 2519 H 228.525 0.613672 0.425929 0
M  V30 2520 H 231.187 1.89464 0.457093 0
M  V30 2521 H 230.283 2.50942 1.85566 0
M  V30 2522 N 230.584 -0.659388 1.43143 0
M  V30 2523 C 231.531 -1.77249 1.47822 0
M  V30 2524 C 232.501 -1.62818 0.328558 0
M  V30 2525 O 233.686 -1.83151 0.534838 0
M  V30 2526 C 230.826 -3.15371 1.40126 0
M  V30 2527 C 229.939 -3.4098 2.65249 0
M  V30 2528 C 229.074 -4.68915 2.49584 0
M  V30 2529 C 228.113 -4.87608 3.70006 0
M  V30 2530 N 227.25 -6.06796 3.53189 0
M  V30 2531 H 232.09 -1.72584 2.42938 0
M  V30 2532 H 229.627 -0.842297 1.20598 0
M  V30 2533 H 231.585 -3.9521 1.33659 0
M  V30 2534 H 230.215 -3.19121 0.485964 0
M  V30 2535 H 229.267 -2.55282 2.8202 0
M  V30 2536 H 230.579 -3.50681 3.54717 0
M  V30 2537 H 229.733 -5.56871 2.4079 0
M  V30 2538 H 228.472 -4.61524 1.5763 0
M  V30 2539 H 227.477 -3.9809 3.79215 0
M  V30 2540 H 228.702 -4.96834 4.62961 0
M  V30 2541 H 226.648 -6.00549 2.63965 0
M  V30 2542 H 226.565 -6.17428 4.36255 0
M  V30 2543 H 227.833 -6.9739 3.48236 0
M  V30 2544 N 232.062 -1.29571 -0.897171 0
M  V30 2545 C 232.992 -1.17473 -2.01798 0
M  V30 2546 C 233.973 -0.068323 -1.69963 0
M  V30 2547 O 235.158 -0.248239 -1.92607 0
M  V30 2548 C 232.288 -0.853099 -3.36659 0
M  V30 2549 C 231.242 -1.9161 -3.82713 0
M  V30 2550 C 230.568 -1.44773 -5.14728 0
M  V30 2551 C 231.868 -3.32535 -4.02763 0
M  V30 2552 H 233.562 -2.11237 -2.12177 0
M  V30 2553 H 231.108 -1.01699 -1.01948 0
M  V30 2554 H 233.061 -0.755165 -4.14578 0
M  V30 2555 H 231.785 0.120236 -3.26379 0
M  V30 2556 H 230.444 -2.00346 -3.07013 0
M  V30 2557 H 230.092 -0.462995 -5.00865 0
M  V30 2558 H 229.792 -2.15865 -5.46513 0
M  V30 2559 H 231.316 -1.36334 -5.95185 0
M  V30 2560 H 232.73 -3.26626 -4.71156 0
M  V30 2561 H 231.127 -4.01607 -4.45905 0
M  V30 2562 H 232.197 -3.75326 -3.07016 0
M  V30 2563 N 233.54 1.10788 -1.12088 0
M  V30 2564 C 234.786 1.82942 -0.875226 0
M  V30 2565 C 235.119 1.84779 0.597538 0
M  V30 2566 O 234.394 1.30578 1.44152 0
M  V30 2567 C 234.677 3.29789 -1.44606 0
M  V30 2568 C 234.53 3.36307 -2.98693 0
M  V30 2569 C 235.849 4.26064 -1.10261 0
M  V30 2570 H 232.968 0.664195 -0.319397 0
M  V30 2571 H 235.61 1.29867 -1.38689 0
M  V30 2572 H 233.76 3.75118 -1.01089 0
M  V30 2573 H 235.432 2.99487 -3.50864 0
M  V30 2574 H 233.675 2.76318 -3.34411 0
M  V30 2575 H 234.346 4.39694 -3.33726 0
M  V30 2576 H 236.822 3.88951 -1.4784 0
M  V30 2577 H 235.698 5.27183 -1.52869 0
M  V30 2578 H 235.959 4.42098 -0.0142953 0
M  V30 2579 N 235.018 0.912232 1.28515 0
M  V30 2580 C 236.243 0.559774 1.99703 0
M  V30 2581 C 236.668 -0.851393 1.67729 0
M  V30 2582 O 236.026 -1.56875 0.908834 0
M  V30 2583 C 236.074 0.773874 3.52198 0
M  V30 2584 O 235.178 -0.167842 4.12058 0
M  V30 2585 H 234.519 0.21723 0.627461 0
M  V30 2586 H 237.049 1.22725 1.63706 0
M  V30 2587 H 237.059 0.683386 4.02236 0
M  V30 2588 H 235.734 1.80261 3.74805 0
M  V30 2589 H 234.311 -0.0287509 3.72889 0
M  V30 2590 N 236.496 -1.42363 0.676048 0
M  V30 2591 C 237.426 -2.33497 0.0124832 0
M  V30 2592 C 238.407 -1.50748 -0.787981 0
M  V30 2593 O 239.592 -1.79346 -0.744884 0
M  V30 2594 C 236.722 -3.34377 -0.938582 0
M  V30 2595 C 235.676 -4.27289 -0.246622 0
M  V30 2596 C 235.002 -5.18386 -1.31071 0
M  V30 2597 C 236.302 -5.14916 0.875125 0
M  V30 2598 H 237.996 -2.89233 0.773593 0
M  V30 2599 H 235.542 -1.39073 0.37346 0
M  V30 2600 H 237.495 -3.97044 -1.41188 0
M  V30 2601 H 236.219 -2.76947 -1.73113 0
M  V30 2602 H 234.878 -3.66018 0.206456 0
M  V30 2603 H 234.526 -4.57282 -2.09528 0
M  V30 2604 H 234.226 -5.81378 -0.852839 0
M  V30 2605 H 235.75 -5.83929 -1.78492 0
M  V30 2606 H 237.164 -5.71262 0.482983 0
M  V30 2607 H 235.561 -5.86747 1.25887 0
M  V30 2608 H 236.631 -4.53242 1.72335 0
M  V30 2609 N 237.974 -0.419461 -1.51915 0
M  V30 2610 C 239.199 0.154572 -2.06823 0
M  V30 2611 C 239.624 1.3722 -1.28656 0
M  V30 2612 O 238.982 1.78461 -0.319583 0
M  V30 2613 C 239.03 0.473172 -3.57482 0
M  V30 2614 O 238.134 1.56255 -3.81652 0
M  V30 2615 H 237.475 0.0096924 -0.663929 0
M  V30 2616 H 240.005 -0.595642 -1.95738 0
M  V30 2617 H 240.015 0.728825 -4.01438 0
M  V30 2618 H 238.69 -0.416873 -4.13805 0
M  V30 2619 H 237.267 1.29825 -3.49571 0
M  V30 2620 N 239.452 1.56882 -0.150215 0
M  V30 2621 C 240.362 2.20494 0.801222 0
M  V30 2622 C 241.378 1.19019 1.26927 0
M  V30 2623 O 242.554 1.51607 1.32579 0
M  V30 2624 C 239.619 2.81659 2.02161 0
M  V30 2625 C 238.68 3.9827 1.60249 0
M  V30 2626 C 237.913 4.56508 2.7647 0
M  V30 2627 O 238.136 4.13627 3.92771 0
M  V30 2628 O 237.07 5.46719 2.51757 0
M  V30 2629 H 240.896 3.02315 0.289717 0
M  V30 2630 H 238.481 1.49202 0.0769684 0
M  V30 2631 H 240.363 3.20522 2.73576 0
M  V30 2632 H 239.038 2.02849 2.52258 0
M  V30 2633 H 237.945 3.64117 0.858477 0
M  V30 2634 H 239.278 4.78609 1.14864 0
M  V30 2635 N 240.93 -0.123565 1.57115 0
M  V30 2636 C 241.862 -1.17739 1.96648 0
M  V30 2637 C 242.875 -1.37906 0.865201 0
M  V30 2638 O 244.064 -1.37062 1.14351 0
M  V30 2639 C 241.164 -2.53821 2.24562 0
M  V30 2640 C 240.337 -2.54317 3.55867 0
M  V30 2641 C 239.396 -3.72112 3.72047 0
M  V30 2642 O 238.422 -3.55907 4.44206 0
M  V30 2643 N 239.624 -4.90498 3.10471 0
M  V30 2644 H 242.389 -0.841147 2.87654 0
M  V30 2645 H 239.95 -0.31289 1.58848 0
M  V30 2646 H 241.942 -3.31175 2.32606 0
M  V30 2647 H 240.512 -2.79645 1.39705 0
M  V30 2648 H 239.732 -1.62711 3.59053 0
M  V30 2649 H 241.02 -2.51701 4.42181 0
M  V30 2650 H 240.418 -5.06567 2.51806 0
M  V30 2651 H 238.975 -5.65544 3.24043 0
M  V30 2652 N 242.408 -1.52605 -0.393616 0
M  V30 2653 C 243.356 -1.77688 -1.50099 0
M  V30 2654 C 244.35 -0.644615 -1.56656 0
M  V30 2655 O 245.556 -0.826997 -1.59877 0
M  V30 2656 H 241.931 -0.562159 -0.499481 0
M  V30 2657 H 243.902 -2.7043 -1.26135 0
M  V30 2658 C 242.651 -1.95858 -2.87289 0
M  V30 2659 H 241.974 -2.8241 -2.82992 0
M  V30 2660 H 243.414 -2.174 -3.64024 0
M  V30 2661 C 241.873 -0.729848 -3.28899 0
M  V30 2662 O 242.403 0.0949217 -4.01588 0
M  V30 2663 N 240.609 -0.561283 -2.85128 0
M  V30 2664 H 240.156 -1.23357 -2.26143 0
M  V30 2665 H 240.114 0.2595 -3.13327 0
M  V30 2666 N 243.887 0.651787 -1.4349 0
M  V30 2667 C 244.817 1.77621 -1.51569 0
M  V30 2668 C 245.798 1.66022 -0.370253 0
M  V30 2669 O 246.983 1.85095 -0.587658 0
M  V30 2670 C 244.113 3.16056 -1.43966 0
M  V30 2671 C 243.067 3.4242 -2.56774 0
M  V30 2672 C 242.393 4.8067 -2.34223 0
M  V30 2673 C 243.693 3.37023 -3.99015 0
M  V30 2674 H 245.387 1.71117 -2.45681 0
M  V30 2675 H 242.933 0.821825 -1.18246 0
M  V30 2676 H 244.886 3.94472 -1.48221 0
M  V30 2677 H 243.61 3.23293 -0.463586 0
M  V30 2678 H 242.269 2.66375 -2.51873 0
M  V30 2679 H 241.917 4.84585 -1.34856 0
M  V30 2680 H 241.617 4.9927 -3.09844 0
M  V30 2681 H 243.141 5.61342 -2.40265 0
M  V30 2682 H 244.555 4.05374 -4.05395 0
M  V30 2683 H 242.952 3.67159 -4.74673 0
M  V30 2684 H 244.022 2.3518 -4.2405 0
M  V30 2685 N 245.365 1.30045 0.890287 0
M  V30 2686 C 246.611 1.18737 1.64406 0
M  V30 2687 C 246.944 -0.258525 1.92472 0
M  V30 2688 O 246.219 -1.18562 1.54186 0
M  V30 2689 C 246.502 2.01087 2.98724 0
M  V30 2690 C 246.355 3.53867 2.77665 0
M  V30 2691 C 247.674 1.84457 3.9958 0
M  V30 2692 H 244.793 0.432698 0.596608 0
M  V30 2693 H 247.435 1.5962 1.0306 0
M  V30 2694 H 245.585 1.66349 3.51084 0
M  V30 2695 H 247.257 3.98637 2.32133 0
M  V30 2696 H 245.5 3.78318 2.12269 0
M  V30 2697 H 246.171 4.06772 3.7315 0
M  V30 2698 H 248.647 2.14817 3.56361 0
M  V30 2699 H 247.523 2.44411 4.91482 0
M  V30 2700 H 247.784 0.802276 4.3476 0
M  V30 2701 N 246.843 -1.10192 1.12674 0
M  V30 2702 C 248.12 -1.78717 0.794965 0
M  V30 2703 C 248.5 -1.98628 -0.714853 0
M  V30 2704 O 247.848 -1.58135 -1.64941 0
M  V30 2705 C 248.058 -3.11546 1.5729 0
M  V30 2706 C 249.406 -3.86382 1.76052 0
M  V30 2707 O 250.43 -3.21274 1.53823 0
M  V30 2708 O 249.289 -5.03246 2.13087 0
M  V30 2709 H 246.383 -0.774702 0.289423 0
M  V30 2710 H 248.929 -1.16819 1.23091 0
M  V30 2711 H 247.701 -2.92489 2.59935 0
M  V30 2712 H 247.324 -3.81164 1.13137 0
M  V30 2713 N 248.321 -0.919034 -1.28029 0
M  V30 2714 C 249.561 -0.562107 -1.96519 0
M  V30 2715 C 249.925 0.878784 -1.70708 0
M  V30 2716 O 251.126 1.34355 -2.32813 0
M  V30 2717 C 249.397 -0.868953 -3.46676 0
M  V30 2718 S 250.956 -0.619237 -4.34409 0
M  V30 2719 H 247.774 -0.2078 -0.679956 0
M  V30 2720 H 250.376 -1.18562 -1.55446 0
M  V30 2721 H 249.08 -1.91547 -3.62957 0
M  V30 2722 H 248.611 -0.234301 -3.92702 0
M  V30 2723 H 250.626 0.526995 -4.93394 0
M  V30 2724 N 249.799 1.42003 -0.683588 0
M  V30 2725 C 251.024 2.06265 -0.216647 0
M  V30 2726 C 251.449 1.51059 1.12083 0
M  V30 2727 O 250.807 0.632638 1.69904 0
M  V30 2728 C 250.855 3.60191 -0.171759 0
M  V30 2729 O 249.959 4.03396 0.857069 0
M  V30 2730 H 249.3 0.65502 -0.108834 0
M  V30 2731 H 251.83 1.81982 -0.935077 0
M  V30 2732 H 251.84 4.08 0.0014303 0
M  V30 2733 H 250.515 3.99743 -1.14796 0
M  V30 2734 H 249.092 3.67117 0.654208 0
M  V30 2735 N 251.277 0.427512 1.51691 0
M  V30 2736 C 252.693 0.0792977 1.59403 0
M  V30 2737 C 252.893 -1.41035 1.43914 0
M  V30 2738 O 251.949 -2.17922 1.27539 0
M  V30 2739 C 253.262 0.590636 2.94842 0
M  V30 2740 C 254.81 0.550215 3.08126 0
M  V30 2741 C 255.285 1.03836 4.46074 0
M  V30 2742 N 256.776 0.995943 4.52366 0
M  V30 2743 C 257.511 1.34463 5.57411 0
M  V30 2744 N 257.007 1.76569 6.69922 0
M  V30 2745 N 258.8 1.26343 5.47717 0
M  V30 2746 H 250.951 1.39687 1.60004 0
M  V30 2747 H 253.214 0.575003 0.753708 0
M  V30 2748 H 252.92 1.63251 3.11516 0
M  V30 2749 H 252.794 0.0102061 3.77199 0
M  V30 2750 H 255.181 -0.482654 2.91126 0
M  V30 2751 H 255.262 1.16693 2.27632 0
M  V30 2752 H 254.906 2.06965 4.63819 0
M  V30 2753 H 254.836 0.398286 5.25092 0
M  V30 2754 H 257.327 0.68661 3.7161 0
M  V30 2755 H 257.64 2.01438 7.46085 0
M  V30 2756 H 255.985 1.80488 6.71155 0
M  V30 2757 H 259.176 0.933209 4.58703 0
M  V30 2758 H 259.349 1.53846 6.29472 0
M  V30 2759 N 252.755 -1.56801 0.158532 0
M  V30 2760 C 254.166 -1.83189 -0.360366 0
M  V30 2761 C 254.517 -1.07778 -1.63946 0
M  V30 2762 O 253.642 -0.326718 -2.13919 0
M  V30 2763 C 254.237 -3.32297 -0.660595 0
M  V30 2764 C 252.796 -3.59227 -1.12398 0
M  V30 2765 C 251.943 -2.76877 -0.153097 0
M  V30 2766 H 254.894 -1.54008 0.383031 0
M  V30 2767 H 254.915 -3.4908 -1.51405 0
M  V30 2768 H 254.427 -3.87156 0.270527 0
M  V30 2769 H 252.528 -3.09766 -2.07064 0
M  V30 2770 H 252.641 -4.67632 -1.04197 0
M  V30 2771 H 251.005 -2.46319 -0.647983 0
M  V30 2772 H 251.788 -3.34511 0.77182 0
M  V30 2773 N 254.233 0.115231 -1.57178 0
M  V30 2774 C 255.165 1.16694 -1.97269 0
M  V30 2775 C 256.178 1.37445 -0.872502 0
M  V30 2776 O 257.367 1.36454 -1.15077 0
M  V30 2777 C 254.467 2.52627 -2.25905 0
M  V30 2778 C 253.64 2.52427 -3.57211 0
M  V30 2779 C 252.699 3.70134 -3.74016 0
M  V30 2780 O 251.725 3.53546 -4.46087 0
M  V30 2781 N 252.927 4.88844 -3.13068 0
M  V30 2782 H 255.692 0.82588 -2.88096 0
M  V30 2783 H 253.253 0.304461 -1.59011 0
M  V30 2784 H 255.245 3.29937 -2.34359 0
M  V30 2785 H 253.815 2.789 -1.41186 0
M  V30 2786 H 253.035 1.60805 -3.5991 0
M  V30 2787 H 254.323 2.49353 -4.43509 0
M  V30 2788 H 253.721 5.05225 -2.54489 0
M  V30 2789 H 252.278 5.63817 -3.27037 0
M  V30 2790 N 255.711 1.52812 0.385517 0
M  V30 2791 C 256.959 1.67694 1.12797 0
M  V30 2792 C 257.28 0.421115 1.90399 0
M  V30 2793 O 256.55 -0.564551 1.87589 0
M  V30 2794 H 255.13 0.618155 0.419396 0
M  V30 2795 H 257.792 1.89938 0.436972 0
M  V30 2796 H 256.888 2.52896 1.82894 0
M  V30 2797 N 257.189 -0.644168 1.43834 0
M  V30 2798 C 258.137 -1.77793 1.49974 0
M  V30 2799 C 259.131 -1.65253 0.372536 0
M  V30 2800 O 260.337 -1.7149 0.546924 0
M  V30 2801 H 256.712 -0.58675 0.47035 0
M  V30 2802 H 258.683 -1.69736 2.45423 0
M  V30 2803 C 257.432 -3.16087 1.4486 0
M  V30 2804 H 256.755 -3.26378 2.30905 0
M  V30 2805 H 258.195 -3.95349 1.53217 0
M  V30 2806 C 256.654 -3.36484 0.167463 0
M  V30 2807 O 257.184 -3.94298 -0.767609 0
M  V30 2808 N 255.39 -2.90504 0.0747556 0
M  V30 2809 H 254.937 -2.4364 0.836507 0
M  V30 2810 H 254.895 -3.04527 -0.781714 0
M  V30 2811 N 258.668 -1.30515 -0.883378 0
M  V30 2812 C 259.6 -1.12846 -1.99496 0
M  V30 2813 C 260.613 -0.0712571 -1.62644 0
M  V30 2814 O 261.802 -0.317432 -1.75655 0
M  V30 2815 C 258.902 -0.699123 -3.3161 0
M  V30 2816 C 258.075 -1.83842 -3.96889 0
M  V30 2817 C 257.134 -1.39737 -5.07307 0
M  V30 2818 O 256.16 -2.10485 -5.28852 0
M  V30 2819 N 257.362 -0.277279 -5.79837 0
M  V30 2820 H 260.127 -2.08585 -2.15203 0
M  V30 2821 H 257.688 -1.22672 -1.05656 0
M  V30 2822 H 259.68 -0.387044 -4.02845 0
M  V30 2823 H 258.25 0.166276 -3.12157 0
M  V30 2824 H 257.47 -2.31853 -3.18807 0
M  V30 2825 H 258.758 -2.60187 -4.37241 0
M  V30 2826 H 258.156 0.3122 -5.64838 0
M  V30 2827 H 256.713 -0.0246623 -6.51795 0
M  V30 2828 N 260.146 1.09593 -1.13257 0
M  V30 2829 C 261.394 1.81375 -0.891492 0
M  V30 2830 C 261.715 1.86049 0.584009 0
M  V30 2831 O 260.985 1.34481 1.42449 0
M  V30 2832 H 259.565 0.671708 -0.326828 0
M  V30 2833 H 262.227 1.3256 -1.42877 0
M  V30 2834 H 261.323 2.84612 -1.28071 0
M  V30 2835 N 261.624 0.925811 1.2754 0
M  V30 2836 C 262.864 0.572521 1.96218 0
M  V30 2837 C 263.228 -0.869719 1.71172 0
M  V30 2838 O 264.429 -1.33119 2.33523 0
M  V30 2839 C 262.7 0.887325 3.4621 0
M  V30 2840 S 264.259 0.642266 4.34074 0
M  V30 2841 H 261.077 0.211403 0.678845 0
M  V30 2842 H 263.679 1.19384 1.54815 0
M  V30 2843 H 262.383 1.93469 3.61936 0
M  V30 2844 H 261.914 0.255123 3.92572 0
M  V30 2845 H 263.929 -0.500822 4.93666 0
M  V30 2846 N 263.102 -1.41638 0.69111 0
M  V30 2847 C 264.05 -2.32597 0.0115199 0
M  V30 2848 C 265.044 -1.5072 -0.773296 0
M  V30 2849 O 266.25 -1.66685 -0.67942 0
M  V30 2850 H 262.625 -0.751849 -0.0150746 0
M  V30 2851 H 264.596 -2.87593 0.795791 0
M  V30 2852 C 263.345 -3.35467 -0.914172 0
M  V30 2853 H 262.668 -3.9852 -0.319687 0
M  V30 2854 H 264.108 -4.01662 -1.35808 0
M  V30 2855 C 262.567 -2.69004 -2.02826 0
M  V30 2856 O 263.097 -2.53444 -3.11655 0
M  V30 2857 N 261.303 -2.2777 -1.80469 0
M  V30 2858 H 260.85 -2.40626 -0.919615 0
M  V30 2859 H 260.808 -1.83635 -2.55197 0
M  V30 2860 N 264.58 -0.43555 -1.51462 0
M  V30 2861 C 265.828 0.131254 -2.01673 0
M  V30 2862 C 266.149 1.43368 -1.32177 0
M  V30 2863 O 265.419 1.90524 -0.455769 0
M  V30 2864 H 263.999 0.0514954 -0.745223 0
M  V30 2865 H 266.661 -0.577847 -1.86137 0
M  V30 2866 H 265.757 0.308446 -3.10572 0
M  V30 2867 N 266.058 1.56714 -0.166846 0
M  V30 2868 C 267.306 1.96358 0.478305 0
M  V30 2869 C 267.627 1.0537 1.6408 0
M  V30 2870 O 266.897 0.119154 1.95537 0
M  V30 2871 H 265.477 0.725065 0.179692 0
M  V30 2872 H 268.139 1.93329 -0.246985 0
M  V30 2873 H 267.235 3.00547 0.841292 0
M  V30 2874 N 267.536 -0.106894 1.57237 0
M  V30 2875 C 268.783 -0.812526 1.85484 0
M  V30 2876 C 269.111 -1.79304 0.753687 0
M  V30 2877 O 268.366 -1.94047 -0.253853 0
M  V30 2878 C 268.665 -1.58628 3.20268 0
M  V30 2879 C 268.331 -0.748967 4.44636 0
M  V30 2880 C 266.993 -0.518104 4.78403 0
M  V30 2881 C 269.345 -0.166122 5.20935 0
M  V30 2882 C 266.673 0.305659 5.85903 0
M  V30 2883 C 269.025 0.644899 6.29304 0
M  V30 2884 C 267.689 0.885965 6.61594 0
M  V30 2885 H 266.959 -0.297324 0.678734 0
M  V30 2886 H 269.606 -0.0744332 1.91355 0
M  V30 2887 H 267.911 -2.39562 3.10028 0
M  V30 2888 H 269.608 -2.13643 3.39349 0
M  V30 2889 H 266.198 -0.939006 4.18187 0
M  V30 2890 H 270.382 -0.33167 4.95191 0
M  V30 2891 H 265.638 0.501528 6.0934 0
M  V30 2892 H 269.812 1.10345 6.87602 0
M  V30 2893 H 267.439 1.52609 7.44725 0
M  V30 2894 N 269.014 -1.53014 -0.377408 0
M  V30 2895 C 269.947 -1.73382 -1.48371 0
M  V30 2896 C 270.925 -0.581879 -1.51832 0
M  V30 2897 O 272.109 -0.81307 -1.70063 0
M  V30 2898 C 269.236 -1.80192 -2.8679 0
M  V30 2899 C 268.282 -3.02056 -3.01105 0
M  V30 2900 S 269.115 -4.61811 -2.71093 0
M  V30 2901 C 270.271 -4.71453 -4.11683 0
M  V30 2902 H 270.504 -2.66946 -1.30872 0
M  V30 2903 H 268.037 -1.43453 -0.571012 0
M  V30 2904 H 269.995 -1.84802 -3.6655 0
M  V30 2905 H 268.656 -0.877008 -3.01608 0
M  V30 2906 H 267.849 -3.03396 -4.02451 0
M  V30 2907 H 267.451 -2.95498 -2.29253 0
M  V30 2908 H 269.743 -4.50781 -5.0577 0
M  V30 2909 H 270.686 -5.73487 -4.15353 0
M  V30 2910 H 271.094 -4.00189 -3.98132 0
M  V30 2911 N 270.492 0.636531 -1.44174 0
M  V30 2912 C 271.455 1.73063 -1.50273 0
M  V30 2913 C 272.455 1.56113 -0.385397 0
M  V30 2914 O 273.645 1.61707 -0.64781 0
M  V30 2915 C 270.777 3.12096 -1.37145 0
M  V30 2916 H 271.97 1.69031 -2.47727 0
M  V30 2917 H 269.523 0.849706 -1.31186 0
M  V30 2918 H 270.258 3.21728 -0.407636 0
M  V30 2919 H 270.043 3.25805 -2.18159 0
M  V30 2920 H 271.533 3.91846 -1.44382 0
M  V30 2921 N 271.97 1.30982 0.876444 0
M  V30 2922 C 273.386 1.09498 1.16113 0
M  V30 2923 C 273.586 -0.13875 2.01022 0
M  V30 2924 O 272.642 -0.829935 2.38471 0
M  V30 2925 C 273.955 2.36308 1.85954 0
M  V30 2926 C 275.503 2.41856 1.98683 0
M  V30 2927 C 275.978 3.6853 2.71937 0
M  V30 2928 N 277.469 3.69387 2.79477 0
M  V30 2929 C 278.204 4.64096 3.36753 0
M  V30 2930 N 277.7 5.69155 3.95012 0
M  V30 2931 N 279.493 4.51626 3.3465 0
M  V30 2932 H 271.644 2.10118 0.310494 0
M  V30 2933 H 273.907 0.926634 0.200131 0
M  V30 2934 H 273.613 3.26388 1.31011 0
M  V30 2935 H 273.487 2.4561 2.86278 0
M  V30 2936 H 275.874 1.52249 2.52793 0
M  V30 2937 H 275.955 2.36523 0.9742 0
M  V30 2938 H 275.599 4.58499 2.18496 0
M  V30 2939 H 275.529 3.71127 3.73593 0
M  V30 2940 H 278.02 2.93438 2.38123 0
M  V30 2941 H 278.333 6.3751 4.36808 0
M  V30 2942 H 276.678 5.72937 3.93406 0
M  V30 2943 H 279.869 3.68728 2.8837 0
M  V30 2944 H 280.042 5.25614 3.7899 0
M  V30 2945 N 273.449 -1.08991 1.13837 0
M  V30 2946 C 274.412 -2.13925 0.822715 0
M  V30 2947 C 275.412 -1.599 -0.1699 0
M  V30 2948 O 276.602 -1.74104 0.0577251 0
M  V30 2949 C 273.734 -3.40155 0.225318 0
M  V30 2950 H 274.927 -2.43358 1.75262 0
M  V30 2951 H 272.48 -1.24603 0.943594 0
M  V30 2952 H 273.215 -3.16352 -0.713594 0
M  V30 2953 H 273 -3.80661 0.940193 0
M  V30 2954 H 274.49 -4.17594 0.0214784 0
M  V30 2955 N 274.927 -0.932562 -1.27047 0
M  V30 2956 C 276.174 -0.575559 -1.94148 0
M  V30 2957 C 276.502 0.883984 -1.73251 0
M  V30 2958 O 275.757 1.64655 -1.0577 0
M  V30 2959 C 276.056 -0.853713 -3.47054 0
M  V30 2960 C 275.722 -2.29577 -3.88079 0
M  V30 2961 C 274.384 -2.68999 -3.9899 0
M  V30 2962 C 276.736 -3.23331 -4.08787 0
M  V30 2963 C 274.064 -4.01289 -4.28 0
M  V30 2964 C 276.416 -4.55207 -4.39282 0
M  V30 2965 C 275.08 -4.94457 -4.48407 0
M  V30 2966 H 274.35 -0.210612 -0.710439 0
M  V30 2967 H 276.997 -1.17744 -1.51025 0
M  V30 2968 H 275.302 -0.169204 -3.91434 0
M  V30 2969 H 276.999 -0.55639 -3.97121 0
M  V30 2970 H 273.589 -1.97994 -3.80127 0
M  V30 2971 H 277.773 -2.94074 -3.99793 0
M  V30 2972 H 273.029 -4.31374 -4.33275 0
M  V30 2973 H 277.203 -5.27852 -4.54252 0
M  V30 2974 H 274.83 -5.96994 -4.7064 0
M  V30 2975 N 276.405 1.4127 -0.698611 0
M  V30 2976 C 277.337 2.292 0.00399731 0
M  V30 2977 C 278.35 1.44944 0.741279 0
M  V30 2978 O 279.539 1.68416 0.591477 0
M  V30 2979 C 276.639 3.22875 1.02979 0
M  V30 2980 C 275.812 4.35904 0.36151 0
M  V30 2981 C 274.871 5.10134 1.29033 0
M  V30 2982 O 273.897 5.63809 0.781562 0
M  V30 2983 N 275.099 5.17885 2.6225 0
M  V30 2984 H 277.864 2.9014 -0.750921 0
M  V30 2985 H 275.425 1.52455 -0.544882 0
M  V30 2986 H 277.417 3.69404 1.65296 0
M  V30 2987 H 275.987 2.63221 1.68622 0
M  V30 2988 H 275.207 3.91719 -0.441584 0
M  V30 2989 H 276.495 5.08696 -0.103055 0
M  V30 2990 H 275.893 4.7573 3.061 0
M  V30 2991 H 274.45 5.6798 3.19754 0
M  V30 2992 N 277.883 0.443576 1.51229 0
M  V30 2993 C 279.113 -0.119117 2.06256 0
M  V30 2994 C 279.521 -1.36471 1.31043 0
M  V30 2995 O 278.864 -1.80034 0.365151 0
M  V30 2996 C 278.926 -0.500546 3.55998 0
M  V30 2997 C 278.59 0.639125 4.52509 0
M  V30 2998 C 279.587 1.51311 4.97394 0
M  V30 2999 C 277.272 0.821632 4.95535 0
M  V30 3000 C 279.266 2.55425 5.83984 0
M  V30 3001 C 276.953 1.86603 5.81913 0
M  V30 3002 C 277.951 2.73072 6.26036 0
M  V30 3003 O 277.639 3.75718 7.10698 0
M  V30 3004 H 277.371 -0.00857665 0.675946 0
M  V30 3005 H 279.925 0.623288 1.95715 0
M  V30 3006 H 278.155 -1.29575 3.64345 0
M  V30 3007 H 279.844 -0.995116 3.93513 0
M  V30 3008 H 280.61 1.38367 4.64844 0
M  V30 3009 H 276.489 0.158149 4.60729 0
M  V30 3010 H 280.033 3.22949 6.18344 0
M  V30 3011 H 275.93 1.99564 6.13876 0
M  V30 3012 H 276.698 3.72374 7.2889 0
M  V30 3013 N 279.361 -1.56624 0.175154 0
M  V30 3014 C 280.607 -1.9729 -0.469506 0
M  V30 3015 C 280.94 -1.06128 -1.62636 0
M  V30 3016 O 280.215 -0.109183 -1.94193 0
M  V30 3017 C 280.498 -3.47375 -0.948804 0
M  V30 3018 C 280.351 -4.49317 0.208491 0
M  V30 3019 C 281.67 -4.00652 -1.82116 0
M  V30 3020 H 278.789 -0.717317 -0.16919 0
M  V30 3021 H 281.431 -1.88184 0.262062 0
M  V30 3022 H 279.581 -3.55267 -1.57219 0
M  V30 3023 H 281.253 -4.53482 0.845682 0
M  V30 3024 H 279.496 -4.25121 0.863395 0
M  V30 3025 H 280.167 -5.51741 -0.169059 0
M  V30 3026 H 282.643 -3.95416 -1.2956 0
M  V30 3027 H 281.519 -5.06075 -2.12554 0
M  V30 3028 H 281.78 -3.44699 -2.7683 0
M  V30 3029 N 280.839 0.0985539 -1.57292 0
M  V30 3030 C 281.786 1.11981 -2.01814 0
M  V30 3031 C 282.756 1.39999 -0.89384 0
M  V30 3032 O 283.941 1.5152 -1.15958 0
M  V30 3033 C 281.081 2.43577 -2.44467 0
M  V30 3034 C 280.194 2.2232 -3.70402 0
M  V30 3035 C 279.329 3.4729 -4.01949 0
M  V30 3036 C 278.368 3.2128 -5.21005 0
M  V30 3037 N 277.505 4.38507 -5.48321 0
M  V30 3038 H 282.345 0.733149 -2.88841 0
M  V30 3039 H 279.882 0.350482 -1.42864 0
M  V30 3040 H 281.84 3.20373 -2.6724 0
M  V30 3041 H 280.47 2.80097 -1.60455 0
M  V30 3042 H 279.522 1.36343 -3.55126 0
M  V30 3043 H 280.834 1.99089 -4.57345 0
M  V30 3044 H 279.988 4.32495 -4.25479 0
M  V30 3045 H 278.727 3.73572 -3.13521 0
M  V30 3046 H 277.732 2.34468 -4.97298 0
M  V30 3047 H 278.957 2.96348 -6.11028 0
M  V30 3048 H 276.903 4.64871 -4.62851 0
M  V30 3049 H 276.82 4.18455 -6.29628 0
M  V30 3050 H 278.088 5.24787 -5.76385 0
M  V30 3051 N 282.317 1.53212 0.369288 0
M  V30 3052 C 283.227 1.82342 1.47609 0
M  V30 3053 C 284.243 0.711532 1.58787 0
M  V30 3054 O 285.419 1.0012 1.74751 0
M  V30 3055 C 282.484 2.00393 2.8292 0
M  V30 3056 C 281.545 3.24297 2.81301 0
M  V30 3057 C 280.778 3.41478 4.10157 0
M  V30 3058 O 281.001 2.63033 5.06132 0
M  V30 3059 O 279.935 4.34817 4.16194 0
M  V30 3060 H 283.761 2.76366 1.25918 0
M  V30 3061 H 281.346 1.38547 0.559034 0
M  V30 3062 H 283.228 2.13859 3.63101 0
M  V30 3063 H 281.903 1.09559 3.04596 0
M  V30 3064 H 280.81 3.16257 1.99831 0
M  V30 3065 H 282.143 4.15041 2.64578 0
M  V30 3066 N 283.795 -0.628877 1.44509 0
M  V30 3067 C 284.743 -1.76193 1.51852 0
M  V30 3068 C 285.737 -1.64849 0.390042 0
M  V30 3069 O 286.943 -1.709 0.565082 0
M  V30 3070 H 283.318 -0.581728 0.476547 0
M  V30 3071 H 285.289 -1.67123 2.47209 0
M  V30 3072 C 284.038 -3.14533 1.48204 0
M  V30 3073 H 283.361 -3.23911 2.34354 0
M  V30 3074 H 284.801 -3.93701 1.57402 0
M  V30 3075 C 283.26 -3.36287 0.203142 0
M  V30 3076 O 283.79 -3.9509 -0.725745 0
M  V30 3077 N 281.996 -2.90408 0.105563 0
M  V30 3078 H 281.543 -2.42739 0.862301 0
M  V30 3079 H 281.501 -3.05339 -0.749371 0
M  V30 3080 N 285.273 -1.31445 -0.869486 0
M  V30 3081 C 286.521 -1.20918 -1.61936 0
M  V30 3082 C 286.842 0.232683 -1.93607 0
M  V30 3083 O 286.112 1.15352 -1.58338 0
M  V30 3084 H 284.692 -0.44454 -0.600328 0
M  V30 3085 H 287.354 -1.64776 -1.0409 0
M  V30 3086 H 286.45 -1.78124 -2.56278 0
M  V30 3087 N 286.751 1.08385 -1.14413 0
M  V30 3088 C 287.999 1.80419 -0.910679 0
M  V30 3089 C 288.32 1.86658 0.564243 0
M  V30 3090 O 287.59 1.35985 1.41014 0
M  V30 3091 H 286.17 0.668204 -0.333934 0
M  V30 3092 H 288.832 1.31037 -1.44275 0
M  V30 3093 H 287.928 2.83238 -1.31082 0
M  V30 3094 N 288.23 0.939286 1.26551 0
M  V30 3095 C 289.16 0.465044 2.28822 0
M  V30 3096 C 290.141 -0.480692 1.63167 0
M  V30 3097 O 291.326 -0.382955 1.90387 0
M  V30 3098 C 288.456 -0.27234 3.46231 0
M  V30 3099 C 287.41 0.58666 4.2396 0
M  V30 3100 C 286.736 -0.280573 5.33963 0
M  V30 3101 C 288.036 1.85704 4.88171 0
M  V30 3102 H 289.73 1.31979 2.68741 0
M  V30 3103 H 287.276 0.636061 1.29191 0
M  V30 3104 H 289.229 -0.615133 4.16886 0
M  V30 3105 H 287.953 -1.16121 3.0526 0
M  V30 3106 H 286.612 0.91232 3.55067 0
M  V30 3107 H 286.26 -1.16874 4.89234 0
M  V30 3108 H 285.96 0.29076 5.8688 0
M  V30 3109 H 287.484 -0.618678 6.07458 0
M  V30 3110 H 288.898 1.58161 5.51052 0
M  V30 3111 H 287.295 2.37279 5.51197 0
M  V30 3112 H 288.365 2.56957 4.11219 0
M  V30 3113 N 289.708 -1.40897 0.706093 0
M  V30 3114 C 290.985 -1.94868 0.169099 0
M  V30 3115 C 291.365 -1.64485 -1.32318 0
M  V30 3116 O 290.713 -0.95744 -2.07474 0
M  V30 3117 C 290.923 -3.45798 0.471654 0
M  V30 3118 C 292.271 -4.22663 0.405127 0
M  V30 3119 O 293.295 -3.53865 0.407168 0
M  V30 3120 O 292.154 -5.45216 0.374383 0
M  V30 3121 H 289.248 -0.82673 0.0211352 0
M  V30 3122 H 291.794 -1.50558 0.782976 0
M  V30 3123 H 290.566 -3.61235 1.50416 0
M  V30 3124 H 290.189 -3.97225 -0.172666 0
M  V30 3125 N 291.186 -0.45159 -1.50991 0
M  V30 3126 C 292.411 0.110667 -2.07105 0
M  V30 3127 C 292.836 1.3446 -1.31538 0
M  V30 3128 O 292.194 1.77743 -0.357365 0
M  V30 3129 C 292.242 0.397238 -3.58405 0
M  V30 3130 O 291.346 1.48124 -3.84881 0
M  V30 3131 H 290.687 -0.00439271 -0.663985 0
M  V30 3132 H 293.217 -0.637026 -1.9443 0
M  V30 3133 H 293.227 0.64351 -4.02893 0
M  V30 3134 H 291.902 -0.504553 -4.12828 0
M  V30 3135 H 290.479 1.22381 -3.52246 0
M  V30 3136 N 292.664 1.56529 -0.183458 0
M  V30 3137 C 293.574 2.22144 0.754272 0
M  V30 3138 C 294.59 1.21684 1.24374 0
M  V30 3139 O 295.766 1.54385 1.29333 0
M  V30 3140 C 292.831 2.85884 1.96141 0
M  V30 3141 C 291.892 4.01579 1.51765 0
M  V30 3142 C 291.125 4.6227 2.66725 0
M  V30 3143 O 291.348 4.21865 3.83909 0
M  V30 3144 O 290.282 5.51936 2.40104 0
M  V30 3145 H 294.108 3.02861 0.225527 0
M  V30 3146 H 291.693 1.49331 0.0453032 0
M  V30 3147 H 293.575 3.26253 2.66715 0
M  V30 3148 H 292.25 2.08154 2.47899 0
M  V30 3149 H 291.157 3.65856 0.781049 0
M  V30 3150 H 292.49 4.80938 1.04686 0
M  V30 3151 N 294.142 -0.090211 1.57342 0
M  V30 3152 C 295.052 -1.12735 2.05738 0
M  V30 3153 C 296.068 -1.43557 0.983231 0
M  V30 3154 O 297.244 -1.54101 1.29672 0
M  V30 3155 C 294.309 -2.42659 2.47624 0
M  V30 3156 C 293.37 -2.18975 3.69254 0
M  V30 3157 C 292.603 -3.42704 4.09133 0
M  V30 3158 O 292.826 -4.51127 3.49057 0
M  V30 3159 O 291.76 -3.32003 5.02053 0
M  V30 3160 H 295.586 -0.746279 2.94388 0
M  V30 3161 H 293.171 -0.303064 1.46294 0
M  V30 3162 H 295.053 -3.19155 2.7517 0
M  V30 3163 H 293.728 -2.80182 1.62109 0
M  V30 3164 H 292.635 -1.40244 3.46818 0
M  V30 3165 H 293.968 -1.86342 4.55563 0
M  V30 3166 N 295.62 -1.53406 -0.361157 0
M  V30 3167 C 296.845 -1.74024 -1.12829 0
M  V30 3168 C 297.27 -0.470069 -1.82132 0
M  V30 3169 O 296.628 0.57619 -1.719 0
M  V30 3170 C 296.676 -2.90903 -2.13091 0
M  V30 3171 O 295.78 -2.59821 -3.20261 0
M  V30 3172 H 295.121 -0.577804 -0.327168 0
M  V30 3173 H 297.651 -2.00307 -0.41693 0
M  V30 3174 H 297.661 -3.17194 -2.56616 0
M  V30 3175 H 296.336 -3.83034 -1.62042 0
M  V30 3176 H 294.913 -2.44362 -2.81677 0
M  V30 3177 N 297.098 0.621204 -1.44841 0
M  V30 3178 C 298.328 1.40548 -1.51426 0
M  V30 3179 C 298.736 1.88673 -0.141083 0
M  V30 3180 O 298.079 1.62053 0.865128 0
M  V30 3181 C 298.141 2.65325 -2.42576 0
M  V30 3182 C 297.805 2.3893 -3.89566 0
M  V30 3183 C 298.802 2.00138 -4.79834 0
M  V30 3184 C 296.487 2.52263 -4.3436 0
M  V30 3185 C 298.481 1.75021 -6.129 0
M  V30 3186 C 296.168 2.2676 -5.67471 0
M  V30 3187 C 297.166 1.88199 -6.56559 0
M  V30 3188 O 296.854 1.62986 -7.87204 0
M  V30 3189 H 296.586 0.437122 -0.515655 0
M  V30 3190 H 299.14 0.765987 -1.90583 0
M  V30 3191 H 297.37 3.31947 -1.98364 0
M  V30 3192 H 299.059 3.27347 -2.39998 0
M  V30 3193 H 299.825 1.89386 -4.46495 0
M  V30 3194 H 295.704 2.81246 -3.65269 0
M  V30 3195 H 299.248 1.44848 -6.82396 0
M  V30 3196 H 295.145 2.37125 -6.00368 0
M  V30 3197 H 295.913 1.7715 -7.991 0
M  V30 3198 N 298.576 1.31904 0.862503 0
M  V30 3199 C 299.987 1.19803 1.43193 0
M  V30 3200 C 300.338 -0.192567 1.95253 0
M  V30 3201 O 299.463 -1.09081 1.86896 0
M  V30 3202 C 300.058 2.16883 2.60283 0
M  V30 3203 C 298.617 2.08692 3.13248 0
M  V30 3204 C 297.764 2.05691 1.85975 0
M  V30 3205 H 300.715 1.43846 0.670365 0
M  V30 3206 H 300.736 1.76278 3.37204 0
M  V30 3207 H 300.248 3.18083 2.22363 0
M  V30 3208 H 298.349 1.10713 3.55771 0
M  V30 3209 H 298.462 2.9815 3.75025 0
M  V30 3210 H 296.826 1.50814 2.05249 0
M  V30 3211 H 297.609 3.08659 1.50282 0
M  V30 3212 N 300.054 -1.07777 1.14986 0
M  V30 3213 C 301.284 -1.83752 0.944402 0
M  V30 3214 C 301.692 -1.8218 -0.51058 0
M  V30 3215 O 301.035 -1.22852 -1.36576 0
M  V30 3216 C 301.097 -3.32128 1.37592 0
M  V30 3217 C 300.761 -3.57425 2.84775 0
M  V30 3218 C 301.758 -3.5173 3.8286 0
M  V30 3219 C 299.443 -3.8523 3.2234 0
M  V30 3220 C 301.437 -3.73482 5.16517 0
M  V30 3221 C 299.124 -4.06634 4.56171 0
M  V30 3222 C 300.122 -4.00754 5.53069 0
M  V30 3223 O 299.81 -4.2159 6.84483 0
M  V30 3224 H 299.542 -0.58673 0.335744 0
M  V30 3225 H 302.096 -1.36982 1.53052 0
M  V30 3226 H 300.326 -3.79686 0.733165 0
M  V30 3227 H 302.015 -3.89555 1.14024 0
M  V30 3228 H 302.781 -3.30256 3.55184 0
M  V30 3229 H 298.66 -3.88923 2.47508 0
M  V30 3230 H 302.204 -3.68808 5.92137 0
M  V30 3231 H 298.101 -4.27593 4.83564 0
M  V30 3232 H 298.869 -4.38961 6.90837 0
M  V30 3233 N 301.532 -0.945985 -1.26051 0
M  V30 3234 C 302.778 -0.597002 -1.93814 0
M  V30 3235 C 303.111 0.862484 -1.73997 0
M  V30 3236 O 302.386 1.61769 -1.07986 0
M  V30 3237 C 302.669 -0.945937 -3.47454 0
M  V30 3238 C 302.522 -2.46052 -3.76535 0
M  V30 3239 C 303.841 -0.464785 -4.37639 0
M  V30 3240 H 300.96 -0.218366 -0.703907 0
M  V30 3241 H 303.602 -1.18107 -1.48831 0
M  V30 3242 H 301.752 -0.448902 -3.85898 0
M  V30 3243 H 303.424 -3.03065 -3.47778 0
M  V30 3244 H 301.667 -2.90194 -3.22444 0
M  V30 3245 H 302.338 -2.65517 -4.83947 0
M  V30 3246 H 304.814 -0.891016 -4.06448 0
M  V30 3247 H 303.69 -0.737712 -5.4392 0
M  V30 3248 H 303.951 0.635274 -4.37512 0
M  V30 3249 N 303.011 1.40521 -0.713556 0
M  V30 3250 C 303.974 2.29098 -0.0684347 0
M  V30 3251 C 304.974 1.45268 0.689472 0
M  V30 3252 O 306.164 1.66205 0.521677 0
M  V30 3253 C 303.296 3.28446 0.913024 0
M  V30 3254 H 304.489 2.87645 -0.84855 0
M  V30 3255 H 302.042 1.48809 -0.47809 0
M  V30 3256 H 302.777 2.74913 1.72027 0
M  V30 3257 H 302.562 3.90327 0.372472 0
M  V30 3258 H 304.052 3.94777 1.36165 0
M  V30 3259 N 304.489 0.459591 1.5075 0
M  V30 3260 C 305.735 -0.0994966 2.02556 0
M  V30 3261 C 306.068 -1.40399 1.3417 0
M  V30 3262 O 305.343 -1.88892 0.463683 0
M  V30 3263 C 305.626 -0.295242 3.58888 0
M  V30 3264 C 305.479 1.02947 4.37861 0
M  V30 3265 C 306.798 -1.05502 4.27267 0
M  V30 3266 H 303.917 -0.034686 0.736183 0
M  V30 3267 H 306.559 0.602938 1.8018 0
M  V30 3268 H 304.709 -0.893563 3.78084 0
M  V30 3269 H 306.381 1.66348 4.30263 0
M  V30 3270 H 304.624 1.62885 4.02058 0
M  V30 3271 H 305.295 0.846281 5.45474 0
M  V30 3272 H 307.771 -0.547993 4.12476 0
M  V30 3273 H 306.647 -1.16077 5.36486 0
M  V30 3274 H 306.908 -2.08875 3.89645 0
M  V30 3275 N 305.967 -1.56429 0.191757 0
M  V30 3276 C 307.244 -1.89224 -0.495332 0
M  V30 3277 C 307.624 -1.10478 -1.79883 0
M  V30 3278 O 306.972 -0.204852 -2.2758 0
M  V30 3279 C 307.182 -3.41548 -0.717367 0
M  V30 3280 C 308.53 -4.11711 -1.03823 0
M  V30 3281 O 309.554 -3.4698 -0.805204 0
M  V30 3282 O 308.413 -5.2611 -1.47887 0
M  V30 3283 H 305.507 -0.785788 -0.25781 0
M  V30 3284 H 308.053 -1.68111 0.231721 0
M  V30 3285 H 306.825 -3.90772 0.203287 0
M  V30 3286 H 306.448 -3.68342 -1.497 0
M  V30 3287 N 307.445 0.0818655 -1.57387 0
M  V30 3288 C 308.355 1.11642 -2.06333 0
M  V30 3289 C 309.371 1.43033 -0.99083 0
M  V30 3290 O 310.547 1.53411 -1.30488 0
M  V30 3291 C 307.612 2.41342 -2.48907 0
M  V30 3292 C 306.673 2.17014 -3.7041 0
M  V30 3293 C 305.906 3.4053 -4.10944 0
M  V30 3294 O 306.129 4.4927 -3.51444 0
M  V30 3295 O 305.063 3.29336 -5.03807 0
M  V30 3296 H 308.889 0.730657 -2.9478 0
M  V30 3297 H 306.474 0.295301 -1.46452 0
M  V30 3298 H 308.356 3.17691 -2.76858 0
M  V30 3299 H 307.031 2.79319 -1.63593 0
M  V30 3300 H 305.938 1.38403 -3.47556 0
M  V30 3301 H 307.271 1.83923 -4.56545 0
M  V30 3302 N 308.923 1.53595 0.353017 0
M  V30 3303 C 310.172 1.69603 1.09168 0
M  V30 3304 C 310.485 0.460925 1.90092 0
M  V30 3305 O 311.691 0.501774 2.66823 0
M  V30 3306 C 310.147 2.99872 1.9901 0
M  V30 3307 C 309.755 4.30687 1.23339 0
M  V30 3308 C 311.499 3.25246 2.72792 0
M  V30 3309 C 309.406 5.52036 2.12156 0
M  V30 3310 H 308.336 0.631966 0.411261 0
M  V30 3311 H 310.987 1.80096 0.351802 0
M  V30 3312 H 309.369 2.83212 2.7678 0
M  V30 3313 H 310.543 4.58019 0.505456 0
M  V30 3314 H 308.858 4.11853 0.613663 0
M  V30 3315 H 311.455 4.13095 3.39495 0
M  V30 3316 H 311.798 2.41846 3.38846 0
M  V30 3317 H 312.331 3.42638 2.021 0
M  V30 3318 H 309.07 6.37951 1.50659 0
M  V30 3319 H 308.59 5.28966 2.82764 0
M  V30 3320 H 310.269 5.87313 2.71427 0
M  V30 3321 N 310.401 -0.613514 1.45168 0
M  V30 3322 C 311.641 -1.38405 1.5041 0
M  V30 3323 C 312.005 -1.91489 0.139922 0
M  V30 3324 O 313.206 -2.68716 0.067033 0
M  V30 3325 C 311.477 -2.50552 2.5487 0
M  V30 3326 S 313.036 -3.38439 2.79292 0
M  V30 3327 H 309.854 -0.471945 0.531779 0
M  V30 3328 H 312.456 -0.708518 1.82209 0
M  V30 3329 H 311.16 -2.09894 3.52665 0
M  V30 3330 H 310.691 -3.22913 2.24701 0
M  V30 3331 H 312.706 -4.48527 2.12222 0
M  V30 3332 N 311.879 -1.3236 -0.855495 0
M  V30 3333 C 312.826 -1.21225 -1.964 0
M  V30 3334 C 313.796 -0.0946204 -1.6583 0
M  V30 3335 O 314.981 -0.27002 -1.8888 0
M  V30 3336 C 312.121 -0.940419 -3.32039 0
M  V30 3337 C 311.234 -2.14276 -3.75113 0
M  V30 3338 C 310.369 -1.80648 -4.9954 0
M  V30 3339 C 309.408 -2.97208 -5.35102 0
M  V30 3340 N 308.545 -2.63678 -6.50706 0
M  V30 3341 H 313.385 -2.16042 -2.05255 0
M  V30 3342 H 310.922 -1.07451 -1.00463 0
M  V30 3343 H 312.88 -0.763311 -4.10158 0
M  V30 3344 H 311.51 -0.0290413 -3.22787 0
M  V30 3345 H 310.562 -2.43017 -2.92655 0
M  V30 3346 H 311.874 -3.01468 -3.97389 0
M  V30 3347 H 311.028 -1.59484 -5.85363 0
M  V30 3348 H 309.767 -0.906678 -4.79198 0
M  V30 3349 H 308.772 -3.19004 -4.47791 0
M  V30 3350 H 309.997 -3.87918 -5.57401 0
M  V30 3351 H 307.943 -1.76238 -6.31883 0
M  V30 3352 H 307.86 -3.444 -6.72997 0
M  V30 3353 H 309.128 -2.45942 -7.39684 0
M  V30 3354 N 313.357 1.07166 -1.15556 0
M  V30 3355 C 314.587 1.83248 -0.954133 0
M  V30 3356 C 314.995 1.82449 0.500911 0
M  V30 3357 O 314.338 1.23575 1.35923 0
M  V30 3358 C 314.4 3.31393 -1.39351 0
M  V30 3359 C 314.064 3.5591 -2.86666 0
M  V30 3360 C 315.061 3.49695 -3.8472 0
M  V30 3361 C 312.746 3.83515 -3.24379 0
M  V30 3362 C 314.74 3.70737 -5.18491 0
M  V30 3363 C 312.427 4.04209 -4.58321 0
M  V30 3364 C 313.425 3.97815 -5.55186 0
M  V30 3365 O 313.113 4.17954 -6.86709 0
M  V30 3366 H 312.845 0.584941 -0.338851 0
M  V30 3367 H 315.399 1.36169 -1.53777 0
M  V30 3368 H 313.629 3.79292 -0.75329 0
M  V30 3369 H 315.318 3.88945 -1.16089 0
M  V30 3370 H 316.084 3.28368 -3.56931 0
M  V30 3371 H 311.963 3.87605 -2.49567 0
M  V30 3372 H 315.507 3.65663 -5.94085 0
M  V30 3373 H 311.404 4.25023 -4.85825 0
M  V30 3374 H 312.172 4.35291 -6.93155 0
M  V30 3375 N 314.835 0.952656 1.25548 0
M  V30 3376 C 316.251 0.656769 1.4546 0
M  V30 3377 C 316.451 -0.78633 1.85524 0
M  V30 3378 O 315.507 -1.56183 1.98402 0
M  V30 3379 C 316.82 1.62801 2.52817 0
M  V30 3380 C 318.368 1.63897 2.66659 0
M  V30 3381 C 318.843 2.5978 3.77198 0
M  V30 3382 N 320.334 2.58133 3.84606 0
M  V30 3383 C 321.069 3.29003 4.69621 0
M  V30 3384 N 320.565 4.09339 5.58939 0
M  V30 3385 N 322.358 3.179 4.63569 0
M  V30 3386 H 314.509 1.88526 0.978344 0
M  V30 3387 H 316.772 0.810815 0.491206 0
M  V30 3388 H 316.478 2.65869 2.30232 0
M  V30 3389 H 316.352 1.38898 3.50695 0
M  V30 3390 H 318.739 0.615481 2.8861 0
M  V30 3391 H 318.82 1.91858 1.69187 0
M  V30 3392 H 318.464 3.62254 3.55997 0
M  V30 3393 H 318.394 2.29105 4.7415 0
M  V30 3394 H 320.885 1.99809 3.20757 0
M  V30 3395 H 321.198 4.6034 6.20731 0
M  V30 3396 H 319.543 4.13438 5.58654 0
M  V30 3397 H 322.734 2.54612 3.92798 0
M  V30 3398 H 322.907 3.73398 5.29602 0
M  V30 3399 N 316.313 -1.40141 0.720998 0
M  V30 3400 C 317.724 -1.83678 0.334553 0
M  V30 3401 C 318.075 -1.6027 -1.13173 0
M  V30 3402 O 317.2 -1.08643 -1.87152 0
M  V30 3403 C 317.795 -3.33437 0.600437 0
M  V30 3404 C 316.354 -3.75447 0.267642 0
M  V30 3405 C 315.501 -2.63296 0.870097 0
M  V30 3406 H 318.452 -1.29331 0.919732 0
M  V30 3407 H 318.473 -3.80269 -0.132517 0
M  V30 3408 H 317.985 -3.50442 1.66768 0
M  V30 3409 H 316.086 -3.64035 -0.794329 0
M  V30 3410 H 316.199 -4.73344 0.74042 0
M  V30 3411 H 314.563 -2.52954 0.297739 0
M  V30 3412 H 315.346 -2.83112 1.94172 0
M  V30 3413 N 317.792 -0.46758 -1.50504 0
M  V30 3414 C 318.702 0.33382 -2.32213 0
M  V30 3415 C 319.718 0.999323 -1.42441 0
M  V30 3416 O 320.894 0.988068 -1.75497 0
M  V30 3417 C 317.959 1.4035 -3.17022 0
M  V30 3418 C 317.02 0.754961 -4.2261 0
M  V30 3419 C 316.253 1.77367 -5.03365 0
M  V30 3420 O 316.476 2.99976 -4.8515 0
M  V30 3421 O 315.41 1.34744 -5.86624 0
M  V30 3422 H 319.236 -0.334067 -3.01857 0
M  V30 3423 H 316.821 -0.229496 -1.47627 0
M  V30 3424 H 318.703 2.02318 -3.69656 0
M  V30 3425 H 317.378 2.05492 -2.5011 0
M  V30 3426 H 316.285 0.0964244 -3.73976 0
M  V30 3427 H 317.618 0.146545 -4.91982 0
M  V30 3428 N 319.27 1.56325 -0.20005 0
M  V30 3429 C 320.218 2.20666 0.735482 0
M  V30 3430 C 321.212 1.17934 1.21605 0
M  V30 3431 O 322.418 1.36068 1.17837 0
M  V30 3432 H 318.793 0.70725 0.255542 0
M  V30 3433 H 320.764 2.9792 0.169166 0
M  V30 3434 C 319.513 2.88391 1.94232 0
M  V30 3435 H 318.836 3.67185 1.58161 0
M  V30 3436 H 320.276 3.3684 2.57517 0
M  V30 3437 C 318.735 1.89692 2.78421 0
M  V30 3438 O 319.265 1.40032 3.76502 0
M  V30 3439 N 317.471 1.57813 2.44015 0
M  V30 3440 H 317.018 1.9839 1.64314 0
M  V30 3441 H 316.976 0.920325 3.00628 0
M  V30 3442 N 320.748 -0.0735177 1.57428 0
M  V30 3443 C 321.973 -0.789787 1.91774 0
M  V30 3444 C 322.398 -1.70413 0.796306 0
M  V30 3445 O 321.756 -1.79555 -0.250961 0
M  V30 3446 C 321.804 -1.5609 3.25067 0
M  V30 3447 O 320.908 -2.67144 3.14178 0
M  V30 3448 H 320.249 -0.215582 0.628029 0
M  V30 3449 H 322.779 -0.0422781 2.04556 0
M  V30 3450 H 322.789 -1.94052 3.58898 0
M  V30 3451 H 321.464 -0.890015 4.06265 0
M  V30 3452 H 320.041 -2.32052 2.91901 0
M  V30 3453 N 322.226 -1.5378 -0.344866 0
M  V30 3454 C 323.472 -1.71216 -1.08687 0
M  V30 3455 C 323.805 -0.473281 -1.88345 0
M  V30 3456 O 323.08 0.52968 -1.87149 0
M  V30 3457 C 323.363 -2.97486 -2.02914 0
M  V30 3458 C 323.216 -4.31579 -1.26727 0
M  V30 3459 C 324.535 -3.19422 -3.0275 0
M  V30 3460 H 321.654 -0.62301 -0.393735 0
M  V30 3461 H 324.296 -1.8645 -0.365563 0
M  V30 3462 H 322.446 -2.84629 -2.64421 0
M  V30 3463 H 324.118 -4.56284 -0.67845 0
M  V30 3464 H 322.361 -4.30049 -0.569273 0
M  V30 3465 H 323.032 -5.16106 -1.95803 0
M  V30 3466 H 325.508 -3.316 -2.51357 0
M  V30 3467 H 324.384 -4.09169 -3.65885 0
M  V30 3468 H 324.645 -2.35656 -3.74057 0
M  V30 3469 N 323.704 0.605807 -1.45491 0
M  V30 3470 C 324.667 1.69836 -1.5391 0
M  V30 3471 C 325.667 1.55261 -0.418424 0
M  V30 3472 O 326.857 1.60296 -0.681965 0
M  V30 3473 C 323.989 3.09117 -1.43734 0
M  V30 3474 H 325.182 1.63738 -2.51257 0
M  V30 3475 H 322.735 0.821689 -1.32959 0
M  V30 3476 H 323.47 3.20791 -0.475788 0
M  V30 3477 H 323.255 3.21104 -2.25021 0
M  V30 3478 H 324.745 3.88696 -1.52661 0
M  V30 3479 N 325.182 1.32811 0.848464 0
M  V30 3480 C 326.13 1.22231 1.97895 0
M  V30 3481 C 327.124 0.125749 1.68933 0
M  V30 3482 O 328.33 0.289083 1.77663 0
M  V30 3483 H 324.705 0.379058 0.649476 0
M  V30 3484 H 326.676 2.17828 2.03945 0
M  V30 3485 C 325.425 0.968572 3.33937 0
M  V30 3486 H 324.748 1.80458 3.56756 0
M  V30 3487 H 326.188 0.934808 4.13567 0
M  V30 3488 C 324.647 -0.328628 3.35293 0
M  V30 3489 O 325.177 -1.33848 3.78745 0
M  V30 3490 N 323.383 -0.352788 2.88451 0
M  V30 3491 H 322.93 0.469541 2.53285 0
M  V30 3492 H 322.888 -1.22057 2.89741 0
M  V30 3493 N 326.66 -1.06551 1.16123 0
M  V30 3494 C 327.937 -1.76097 0.85142 0
M  V30 3495 C 328.317 -2.00802 -0.6513 0
M  V30 3496 O 327.665 -1.63302 -1.59827 0
M  V30 3497 C 327.875 -3.06384 1.67122 0
M  V30 3498 C 329.223 -3.80585 1.88255 0
M  V30 3499 O 330.247 -3.16218 1.63966 0
M  V30 3500 O 329.106 -4.96212 2.2899 0
M  V30 3501 H 326.2 -0.765102 0.313923 0
M  V30 3502 H 328.746 -1.12844 1.26745 0
M  V30 3503 H 327.518 -2.84071 2.69108 0
M  V30 3504 H 327.141 -3.77371 1.25206 0
M  V30 3505 N 328.138 -0.959301 -1.25041 0
M  V30 3506 C 329.366 -0.633949 -1.96948 0
M  V30 3507 C 329.781 0.794916 -1.7125 0
M  V30 3508 O 329.138 1.53231 -0.991287 0
M  V30 3509 C 329.189 -0.888805 -3.50403 0
M  V30 3510 O 328.91 -2.26149 -3.75218 0
M  V30 3511 C 330.411 -0.576482 -4.39536 0
M  V30 3512 H 327.631 -0.237263 -0.627652 0
M  V30 3513 H 330.175 -1.28495 -1.59089 0
M  V30 3514 H 328.33 -0.284145 -3.86357 0
M  V30 3515 H 328.744 -2.33514 -4.6965 0
M  V30 3516 H 330.218 -0.805314 -5.46094 0
M  V30 3517 H 330.695 0.489075 -4.36468 0
M  V30 3518 H 331.301 -1.16067 -4.09156 0
M  V30 3519 N 329.616 1.39756 -0.72842 0
M  V30 3520 C 330.864 2.00248 -0.272946 0
M  V30 3521 C 331.185 1.58077 1.14178 0
M  V30 3522 O 330.455 0.826014 1.77634 0
M  V30 3523 H 329.035 0.740554 -0.0979247 0
M  V30 3524 H 331.697 1.70903 -0.936912 0
M  V30 3525 H 330.793 3.10495 -0.316142 0
M  V30 3526 N 331.094 0.475555 1.50254 0
M  V30 3527 C 332.341 -0.0778919 2.0235 0
M  V30 3528 C 332.669 -1.39319 1.35722 0
M  V30 3529 O 331.924 -1.89888 0.473395 0
M  V30 3530 C 332.223 -0.305114 3.56095 0
M  V30 3531 C 331.889 0.92903 4.41225 0
M  V30 3532 C 330.551 1.26739 4.6421 0
M  V30 3533 C 332.903 1.75054 4.90923 0
M  V30 3534 C 330.231 2.42724 5.34137 0
M  V30 3535 C 332.583 2.9017 5.62125 0
M  V30 3536 C 331.247 3.24416 5.83362 0
M  V30 3537 H 330.517 -0.0285027 0.740452 0
M  V30 3538 H 333.164 0.630543 1.80821 0
M  V30 3539 H 331.469 -1.09584 3.76163 0
M  V30 3540 H 333.166 -0.747377 3.93974 0
M  V30 3541 H 329.756 0.655428 4.23559 0
M  V30 3542 H 333.94 1.50231 4.73016 0
M  V30 3543 H 329.196 2.69525 5.48786 0
M  V30 3544 H 333.37 3.54169 5.99614 0
M  V30 3545 H 330.997 4.14396 6.37323 0
M  V30 3546 N 332.573 -1.56217 0.208337 0
M  V30 3547 C 333.801 -2.02337 -0.43215 0
M  V30 3548 C 334.216 -1.08834 -1.54275 0
M  V30 3549 O 333.573 -0.0955462 -1.8225 0
M  V30 3550 C 333.624 -3.48072 -0.976138 0
M  V30 3551 O 333.345 -4.38007 0.0901621 0
M  V30 3552 C 334.846 -4.09773 -1.69119 0
M  V30 3553 H 332.066 -0.662385 -0.10718 0
M  V30 3554 H 334.61 -2.01966 0.320923 0
M  V30 3555 H 332.765 -3.49099 -1.67954 0
M  V30 3556 H 333.179 -5.23543 -0.316701 0
M  V30 3557 H 334.653 -5.13556 -2.02397 0
M  V30 3558 H 335.13 -3.53999 -2.59964 0
M  V30 3559 H 335.736 -4.12556 -1.03332 0
M  V30 3560 N 334.051 0.0651679 -1.57465 0
M  V30 3561 C 335.297 0.764193 -1.87851 0
M  V30 3562 C 335.63 1.76889 -0.801495 0
M  V30 3563 O 334.905 1.93594 0.187528 0
M  V30 3564 C 335.188 1.46625 -3.28897 0
M  V30 3565 C 335.041 0.477515 -4.47258 0
M  V30 3566 C 336.36 2.4095 -3.68281 0
M  V30 3567 H 333.479 0.276351 -0.683227 0
M  V30 3568 H 336.121 0.0272868 -1.8998 0
M  V30 3569 H 334.271 2.09438 -3.27212 0
M  V30 3570 H 335.943 -0.145922 -4.61069 0
M  V30 3571 H 334.186 -0.206576 -4.33308 0
M  V30 3572 H 334.857 1.0065 -5.42746 0
M  V30 3573 H 337.333 1.88209 -3.71102 0
M  V30 3574 H 336.209 2.87072 -4.67847 0
M  V30 3575 H 336.47 3.26049 -2.98571 0
M  V30 3576 N 335.529 1.53961 0.336706 0
M  V30 3577 C 336.775 1.7179 1.07777 0
M  V30 3578 C 337.108 0.483263 1.88091 0
M  V30 3579 O 336.383 -0.519747 1.87427 0
M  V30 3580 C 336.666 2.98558 2.01334 0
M  V30 3581 C 336.519 4.32245 1.24437 0
M  V30 3582 C 337.838 3.21023 3.01052 0
M  V30 3583 H 334.957 0.625089 0.390426 0
M  V30 3584 H 337.599 1.86641 0.35567 0
M  V30 3585 H 335.749 2.86028 2.62908 0
M  V30 3586 H 337.421 4.56637 0.654243 0
M  V30 3587 H 335.664 4.30344 0.546458 0
M  V30 3588 H 336.335 5.17137 1.93063 0
M  V30 3589 H 338.811 3.32929 2.49595 0
M  V30 3590 H 337.687 4.11104 3.6371 0
M  V30 3591 H 337.948 2.37637 3.72802 0
M  V30 3592 N 337.007 -0.598083 1.45811 0
M  V30 3593 C 337.97 -1.69018 1.54808 0
M  V30 3594 C 338.97 -1.55037 0.426652 0
M  V30 3595 O 340.16 -1.59932 0.690456 0
M  V30 3596 C 337.292 -3.0835 1.45371 0
M  V30 3597 H 338.485 -1.62403 2.52121 0
M  V30 3598 H 336.038 -0.814626 1.33392 0
M  V30 3599 H 336.773 -3.20534 0.492793 0
M  V30 3600 H 336.558 -3.19907 2.26721 0
M  V30 3601 H 338.048 -3.8788 1.54721 0
M  V30 3602 N 338.485 -1.33259 -0.841409 0
M  V30 3603 C 339.896 -1.22066 -1.41269 0
M  V30 3604 C 340.247 0.161479 -1.95534 0
M  V30 3605 O 339.372 1.06094 -1.88608 0
M  V30 3606 C 339.967 -2.20996 -2.568 0
M  V30 3607 C 338.526 -2.13649 -3.09888 0
M  V30 3608 C 337.673 -2.08623 -1.82679 0
M  V30 3609 H 340.624 -1.44895 -0.647395 0
M  V30 3610 H 340.645 -1.81621 -3.34356 0
M  V30 3611 H 340.157 -3.2158 -2.17274 0
M  V30 3612 H 338.258 -1.16359 -3.53965 0
M  V30 3613 H 338.371 -3.04079 -3.70234 0
M  V30 3614 H 336.735 -1.54061 -2.02824 0
M  V30 3615 H 337.518 -3.1101 -1.45353 0
M  V30 3616 N 339.963 1.05934 -1.16686 0
M  V30 3617 C 341.211 1.78447 -0.948744 0
M  V30 3618 C 341.532 1.87813 0.524523 0
M  V30 3619 O 340.802 1.38945 1.38098 0
M  V30 3620 H 339.382 0.660971 -0.348033 0
M  V30 3621 H 342.044 1.27947 -1.47022 0
M  V30 3622 H 341.14 2.80394 -1.37061 0
M  V30 3623 N 341.441 0.965919 1.2453 0
M  V30 3624 C 342.388 0.49402 2.25451 0
M  V30 3625 C 343.358 -0.45948 1.59618 0
M  V30 3626 O 344.543 -0.370238 1.87173 0
M  V30 3627 C 341.683 -0.211359 3.44452 0
M  V30 3628 C 340.796 0.7807 4.24887 0
M  V30 3629 C 339.931 0.0516105 5.31175 0
M  V30 3630 C 338.97 1.03385 6.03306 0
M  V30 3631 N 338.107 0.334887 7.01301 0
M  V30 3632 H 342.947 1.35946 2.65184 0
M  V30 3633 H 340.484 0.681515 1.3036 0
M  V30 3634 H 342.442 -0.637 4.12308 0
M  V30 3635 H 341.072 -1.04077 3.05562 0
M  V30 3636 H 340.124 1.32479 3.56586 0
M  V30 3637 H 341.436 1.52978 4.74762 0
M  V30 3638 H 340.59 -0.432114 6.05159 0
M  V30 3639 H 339.329 -0.730179 4.82203 0
M  V30 3640 H 338.334 1.52847 5.28127 0
M  V30 3641 H 339.559 1.81606 6.54367 0
M  V30 3642 H 337.505 -0.427959 6.54603 0
M  V30 3643 H 337.422 1.02287 7.49048 0
M  V30 3644 H 338.69 -0.126928 7.79397 0
M  V30 3645 N 342.919 -1.39368 0.735821 0
M  V30 3646 C 343.829 -2.34395 0.0979693 0
M  V30 3647 C 344.845 -1.58361 -0.720968 0
M  V30 3648 O 346.021 -1.90648 -0.649245 0
M  V30 3649 C 343.086 -3.37393 -0.797916 0
M  V30 3650 C 342.147 -4.29287 0.0333662 0
M  V30 3651 C 341.38 -5.27365 -0.819854 0
M  V30 3652 O 341.603 -5.31959 -2.05855 0
M  V30 3653 O 340.537 -6.01389 -0.248079 0
M  V30 3654 H 344.363 -2.90601 0.882315 0
M  V30 3655 H 341.948 -1.40909 0.4965 0
M  V30 3656 H 343.83 -4.00505 -1.31048 0
M  V30 3657 H 342.505 -2.83571 -1.56106 0
M  V30 3658 H 341.412 -3.69395 0.591475 0
M  V30 3659 H 342.745 -4.86317 0.758752 0
M  V30 3660 N 344.397 -0.483516 -1.5 0
M  V30 3661 C 345.344 0.304164 -2.28787 0
M  V30 3662 C 346.314 0.976114 -1.34392 0
M  V30 3663 O 347.499 0.986156 -1.63339 0
M  V30 3664 C 344.639 1.37298 -3.16612 0
M  V30 3665 C 343.752 0.714561 -4.26049 0
M  V30 3666 C 342.887 1.76232 -5.01114 0
M  V30 3667 C 341.926 1.08483 -6.0241 0
M  V30 3668 N 341.063 2.076 -6.70706 0
M  V30 3669 H 345.903 -0.373981 -2.95644 0
M  V30 3670 H 343.44 -0.196275 -1.45785 0
M  V30 3671 H 345.398 2.00445 -3.65893 0
M  V30 3672 H 344.028 2.02012 -2.51776 0
M  V30 3673 H 343.08 -0.0297798 -3.80388 0
M  V30 3674 H 344.392 0.180383 -4.98474 0
M  V30 3675 H 343.546 2.46929 -5.54176 0
M  V30 3676 H 342.285 2.33033 -4.28424 0
M  V30 3677 H 341.29 0.363545 -5.48597 0
M  V30 3678 H 342.515 0.523551 -6.77079 0
M  V30 3679 H 340.461 2.63394 -6.00799 0
M  V30 3680 H 340.378 1.59201 -7.39047 0
M  V30 3681 H 341.646 2.77639 -7.2838 0
M  V30 3682 N 345.875 1.56104 -0.216619 0
M  V30 3683 C 346.838 2.18819 0.681962 0
M  V30 3684 C 347.838 1.14866 1.12528 0
M  V30 3685 O 349.028 1.40128 1.03488 0
M  V30 3686 C 346.16 2.80756 1.93362 0
M  V30 3687 H 347.353 2.99595 0.135254 0
M  V30 3688 H 344.906 1.56265 0.0330003 0
M  V30 3689 H 345.641 2.03837 2.52232 0
M  V30 3690 H 345.426 3.56876 1.62426 0
M  V30 3691 H 346.916 3.28844 2.57393 0
M  V30 3692 N 347.353 -0.0568162 1.57498 0
M  V30 3693 C 348.283 -1.06593 2.0775 0
M  V30 3694 C 349.264 -1.39448 0.974082 0
M  V30 3695 O 350.449 -1.48815 1.24771 0
M  V30 3696 C 347.579 -2.37509 2.5339 0
M  V30 3697 C 346.533 -2.1897 3.67745 0
M  V30 3698 C 345.859 -3.55402 3.99492 0
M  V30 3699 C 347.159 -1.59859 4.97235 0
M  V30 3700 H 348.853 -0.647706 2.9231 0
M  V30 3701 H 346.399 -0.310116 1.40621 0
M  V30 3702 H 348.352 -3.08409 2.87162 0
M  V30 3703 H 347.076 -2.8134 1.65878 0
M  V30 3704 H 345.735 -1.50508 3.3428 0
M  V30 3705 H 345.383 -3.9683 3.09088 0
M  V30 3706 H 345.083 -3.43831 4.76502 0
M  V30 3707 H 346.607 -4.27708 4.35773 0
M  V30 3708 H 348.021 -2.20642 5.29141 0
M  V30 3709 H 346.418 -1.58942 5.78669 0
M  V30 3710 H 347.488 -0.561506 4.81638 0
M  V30 3711 N 348.832 -1.54138 -0.328536 0
M  V30 3712 C 349.765 -1.78014 -1.4278 0
M  V30 3713 C 350.743 -0.629889 -1.49904 0
M  V30 3714 O 351.927 -0.866763 -1.6739 0
M  V30 3715 C 349.054 -1.89225 -2.80912 0
M  V30 3716 C 348.1 -3.11483 -2.91343 0
M  V30 3717 S 348.933 -4.70201 -2.56263 0
M  V30 3718 C 350.089 -4.84312 -3.96476 0
M  V30 3719 H 350.322 -2.70974 -1.22313 0
M  V30 3720 H 347.855 -1.45197 -0.525084 0
M  V30 3721 H 349.813 -1.9637 -3.60485 0
M  V30 3722 H 348.474 -0.972518 -2.98665 0
M  V30 3723 H 347.667 -3.16046 -3.92595 0
M  V30 3724 H 347.269 -3.02642 -2.19736 0
M  V30 3725 H 349.561 -4.66643 -4.91173 0
M  V30 3726 H 350.504 -5.86411 -3.96898 0
M  V30 3727 H 350.912 -4.12652 -3.85199 0
M  V30 3728 N 350.31 0.590341 -1.46126 0
M  V30 3729 C 351.257 1.69994 -1.56111 0
M  V30 3730 C 352.227 1.61065 -0.405867 0
M  V30 3731 O 353.412 1.8039 -0.621613 0
M  V30 3732 C 350.552 3.08326 -1.55013 0
M  V30 3733 C 349.665 3.27936 -2.81215 0
M  V30 3734 C 348.8 4.56473 -2.71673 0
M  V30 3735 C 347.839 4.694 -3.92849 0
M  V30 3736 N 346.976 5.89254 -3.81738 0
M  V30 3737 H 351.816 1.60797 -2.50895 0
M  V30 3738 H 349.353 0.783799 -1.24479 0
M  V30 3739 H 351.311 3.88383 -1.52362 0
M  V30 3740 H 349.941 3.16439 -0.637667 0
M  V30 3741 H 348.993 2.41536 -2.93879 0
M  V30 3742 H 350.305 3.33357 -3.71045 0
M  V30 3743 H 349.459 5.44748 -2.67085 0
M  V30 3744 H 348.198 4.53477 -1.7947 0
M  V30 3745 H 347.203 3.79544 -3.97777 0
M  V30 3746 H 348.428 4.7418 -4.86138 0
M  V30 3747 H 346.374 5.87271 -2.92317 0
M  V30 3748 H 346.291 5.95911 -4.65217 0
M  V30 3749 H 347.559 6.79981 -3.81112 0
M  V30 3750 N 351.788 1.33704 0.83433 0
M  V30 3751 C 352.751 1.24244 1.92603 0
M  V30 3752 C 353.751 0.160383 1.59998 0
M  V30 3753 O 354.941 0.412228 1.69252 0
M  V30 3754 C 352.073 0.91555 3.28376 0
M  V30 3755 H 353.266 2.21287 2.02416 0
M  V30 3756 H 350.819 1.17827 1.02696 0
M  V30 3757 H 351.554 -0.0521886 3.24258 0
M  V30 3758 H 351.339 1.69811 3.53422 0
M  V30 3759 H 352.829 0.874231 4.08347 0
M  V30 3760 N 353.266 -1.05314 1.17247 0
M  V30 3761 C 354.512 -1.78557 0.961513 0
M  V30 3762 C 354.845 -1.87419 -0.508697 0
M  V30 3763 O 354.12 -1.37307 -1.37757 0
M  V30 3764 C 354.403 -3.22514 1.60176 0
M  V30 3765 C 354.256 -3.21673 3.14399 0
M  V30 3766 C 355.575 -4.20318 1.30463 0
M  V30 3767 H 352.694 -0.6482 0.350723 0
M  V30 3768 H 355.336 -1.23102 1.44727 0
M  V30 3769 H 353.486 -3.69867 1.18871 0
M  V30 3770 H 355.158 -2.82405 3.64753 0
M  V30 3771 H 353.401 -2.60048 3.47214 0
M  V30 3772 H 354.072 -4.23271 3.54324 0
M  V30 3773 H 356.548 -3.81454 1.66229 0
M  V30 3774 H 355.424 -5.19289 1.77848 0
M  V30 3775 H 355.685 -4.41526 0.22521 0
M  V30 3776 N 354.744 -0.972509 -1.24016 0
M  V30 3777 C 355.707 -0.511403 -2.23422 0
M  V30 3778 C 356.707 0.394679 -1.55881 0
M  V30 3779 O 357.897 0.189469 -1.73167 0
M  V30 3780 C 355.029 0.258769 -3.39916 0
M  V30 3781 H 356.222 -1.39024 -2.6573 0
M  V30 3782 H 353.775 -0.757585 -1.36713 0
M  V30 3783 H 354.51 1.1545 -3.03054 0
M  V30 3784 H 354.295 -0.391522 -3.9014 0
M  V30 3785 H 355.785 0.570244 -4.13688 0
M  V30 3786 N 356.222 1.38976 -0.743202 0
M  V30 3787 C 357.45 2.04636 -0.30525 0
M  V30 3788 C 357.865 1.56044 1.06281 0
M  V30 3789 O 357.222 0.728921 1.67311 0
M  V30 3790 C 357.273 3.60193 -0.307177 0
M  V30 3791 O 356.994 4.06998 -1.62124 0
M  V30 3792 C 358.495 4.4306 0.145928 0
M  V30 3793 H 355.715 0.65788 -0.132041 0
M  V30 3794 H 358.259 1.77866 -1.00915 0
M  V30 3795 H 356.414 3.85835 0.347898 0
M  V30 3796 H 356.828 5.01371 -1.54036 0
M  V30 3797 H 358.302 5.51921 0.0934183 0
M  V30 3798 H 358.779 4.22706 1.19231 0
M  V30 3799 H 359.385 4.22584 -0.479886 0
M  V30 3800 N 357.7 0.491464 1.49741 0
M  V30 3801 C 358.946 -0.0565092 2.02721 0
M  V30 3802 C 359.279 -1.37522 1.37118 0
M  V30 3803 O 358.554 -1.87866 0.503645 0
M  V30 3804 C 358.837 -0.219051 3.59433 0
M  V30 3805 C 358.69 1.12211 4.35579 0
M  V30 3806 C 360.009 -0.964157 4.29409 0
M  V30 3807 H 357.128 -0.0190627 0.736753 0
M  V30 3808 H 359.77 0.641021 1.7886 0
M  V30 3809 H 357.92 -0.813165 3.79895 0
M  V30 3810 H 359.592 1.75437 4.26637 0
M  V30 3811 H 357.835 1.71377 3.98513 0
M  V30 3812 H 358.506 0.961794 5.43556 0
M  V30 3813 H 360.982 -0.460378 4.13545 0
M  V30 3814 H 359.858 -1.04671 5.38828 0
M  V30 3815 H 360.119 -2.00563 3.93988 0
M  V30 3816 N 359.178 -1.55987 0.224894 0
M  V30 3817 C 360.426 -1.97998 -0.405099 0
M  V30 3818 C 360.747 -1.11387 -1.60056 0
M  V30 3819 O 360.017 -0.191645 -1.9496 0
M  V30 3820 H 358.597 -0.731235 -0.152658 0
M  V30 3821 H 361.259 -1.92279 0.318567 0
M  V30 3822 H 360.355 -3.03463 -0.729167 0
M  V30 3823 N 360.656 0.0484629 -1.57525 0
M  V30 3824 C 362.067 0.597486 -1.76881 0
M  V30 3825 C 362.418 1.76664 -0.853475 0
M  V30 3826 O 361.543 2.16357 -0.0433656 0
M  V30 3827 C 362.138 1.09066 -3.20765 0
M  V30 3828 C 360.697 1.58535 -3.41385 0
M  V30 3829 C 359.844 0.514868 -2.72478 0
M  V30 3830 H 362.795 -0.177758 -1.57701 0
M  V30 3831 H 362.816 1.95875 -3.2621 0
M  V30 3832 H 362.328 0.239521 -3.8736 0
M  V30 3833 H 360.429 2.45898 -2.79937 0
M  V30 3834 H 360.542 1.64622 -4.49929 0
M  V30 3835 H 358.906 0.965407 -2.35695 0
M  V30 3836 H 359.689 -0.32648 -3.41744 0
M  V30 3837 N 362.134 1.5431 0.320358 0
M  V30 3838 C 363.383 1.7188 1.05546 0
M  V30 3839 C 363.696 0.501143 1.89071 0
M  V30 3840 O 364.902 0.558258 2.65699 0
M  V30 3841 C 363.358 3.04025 1.92605 0
M  V30 3842 C 362.966 4.33207 1.14176 0
M  V30 3843 C 364.71 3.30959 2.65832 0
M  V30 3844 C 362.617 5.56412 2.00399 0
M  V30 3845 H 361.547 0.640547 0.397763 0
M  V30 3846 H 364.198 1.80802 0.313522 0
M  V30 3847 H 362.58 2.89019 2.7071 0
M  V30 3848 H 363.754 4.58989 0.40819 0
M  V30 3849 H 362.069 4.13062 0.526165 0
M  V30 3850 H 364.666 4.20203 3.30656 0
M  V30 3851 H 365.009 2.48979 3.33639 0
M  V30 3852 H 365.542 3.46847 1.94787 0
M  V30 3853 H 362.281 6.41004 1.37094 0
M  V30 3854 H 361.801 5.34844 2.7148 0
M  V30 3855 H 363.48 5.92938 2.58908 0
M  V30 3856 N 363.613 -0.582584 1.46437 0
M  V30 3857 C 364.838 -1.37168 1.55563 0
M  V30 3858 C 365.263 -1.87061 0.19743 0
M  V30 3859 O 364.621 -1.61572 -0.822451 0
M  V30 3860 C 364.669 -2.53511 2.56446 0
M  V30 3861 O 363.773 -3.54953 2.09958 0
M  V30 3862 H 363.114 -0.408494 0.523477 0
M  V30 3863 H 365.644 -0.706646 1.9201 0
M  V30 3864 H 365.654 -3.00426 2.76058 0
M  V30 3865 H 364.329 -2.16549 3.55076 0
M  V30 3866 H 362.906 -3.14516 2.00334 0
M  V30 3867 N 365.091 -1.34144 -0.827227 0
M  V30 3868 C 366.337 -1.26446 -1.58554 0
M  V30 3869 C 366.67 0.1664 -1.93486 0
M  V30 3870 O 365.945 1.1107 -1.59667 0
M  V30 3871 C 366.228 -2.15111 -2.8879 0
M  V30 3872 C 366.081 -3.66712 -2.60465 0
M  V30 3873 C 367.4 -2.03311 -3.90324 0
M  V30 3874 H 364.519 -0.46067 -0.575284 0
M  V30 3875 H 367.161 -1.64356 -0.953269 0
M  V30 3876 H 365.311 -1.8291 -3.42748 0
M  V30 3877 H 366.983 -4.09259 -2.1285 0
M  V30 3878 H 365.226 -3.88014 -1.93978 0
M  V30 3879 H 365.897 -4.24112 -3.53317 0
M  V30 3880 H 368.373 -2.31574 -3.45706 0
M  V30 3881 H 367.249 -2.67582 -4.79261 0
M  V30 3882 H 367.51 -1.00879 -4.30437 0
M  V30 3883 N 366.569 1.04691 -1.17803 0
M  V30 3884 C 367.532 2.10724 -0.901545 0
M  V30 3885 C 368.532 1.6042 0.110437 0
M  V30 3886 O 369.722 1.7377 -0.122303 0
M  V30 3887 C 366.854 3.39084 -0.351409 0
M  V30 3888 H 368.047 2.36686 -1.84174 0
M  V30 3889 H 365.6 1.21015 -0.98919 0
M  V30 3890 H 366.335 3.18782 0.59569 0
M  V30 3891 H 366.12 3.76909 -1.08083 0
M  V30 3892 H 367.61 4.17227 -0.176451 0
M  V30 3893 N 368.047 0.979072 1.23499 0
M  V30 3894 C 368.98 0.463027 2.23453 0
M  V30 3895 C 369.958 -0.469128 1.55685 0
M  V30 3896 O 371.142 -0.397882 1.84253 0
M  V30 3897 C 368.269 -0.330308 3.37086 0
M  V30 3898 C 367.315 0.545795 4.22993 0
M  V30 3899 S 368.148 1.99285 4.97037 0
M  V30 3900 C 369.304 1.20862 6.1412 0
M  V30 3901 H 369.537 1.31005 2.6688 0
M  V30 3902 H 367.07 0.784965 1.32957 0
M  V30 3903 H 369.028 -0.782027 4.02982 0
M  V30 3904 H 367.689 -1.15244 2.92194 0
M  V30 3905 H 366.882 -0.0638928 5.03959 0
M  V30 3906 H 366.484 0.933705 3.62157 0
M  V30 3907 H 368.776 0.469284 6.75873 0
M  V30 3908 H 369.719 1.99307 6.79472 0
M  V30 3909 H 370.127 0.727992 5.59786 0
M  V30 3910 N 369.525 -1.3858 0.750561 0
M  V30 3911 C 370.802 -1.94231 0.231009 0
M  V30 3912 C 371.182 -1.68611 -1.27018 0
M  V30 3913 O 370.53 -1.02296 -2.04323 0
M  V30 3914 C 370.74 -3.44123 0.581428 0
M  V30 3915 C 372.088 -4.2116 0.539389 0
M  V30 3916 O 373.112 -3.52391 0.519541 0
M  V30 3917 O 371.971 -5.43749 0.54765 0
M  V30 3918 H 369.065 -0.825639 0.0474263 0
M  V30 3919 H 371.611 -1.4799 0.830478 0
M  V30 3920 H 370.383 -3.56267 1.61833 0
M  V30 3921 H 370.006 -3.97573 -0.0462047 0
M  V30 3922 N 371.003 -0.499398 -1.49478 0
M  V30 3923 C 371.966 0.268838 -2.27618 0
M  V30 3924 C 372.966 0.895383 -1.33565 0
M  V30 3925 O 374.156 0.760164 -1.56739 0
M  V30 3926 C 371.288 1.38559 -3.11471 0
M  V30 3927 H 372.481 -0.416812 -2.96989 0
M  V30 3928 H 370.034 -0.254313 -1.54217 0
M  V30 3929 H 370.769 2.10544 -2.46661 0
M  V30 3930 H 370.554 0.941797 -3.80621 0
M  V30 3931 H 372.044 1.92678 -3.70493 0
M  V30 3932 N 372.481 1.55866 -0.233164 0
M  V30 3933 C 373.729 1.9821 0.394593 0
M  V30 3934 C 374.05 1.12234 1.59463 0
M  V30 3935 O 373.32 0.201981 1.94856 0
M  V30 3936 H 371.9 0.732034 0.148778 0
M  V30 3937 H 374.562 1.92107 -0.32876 0
M  V30 3938 H 373.658 3.03845 0.713063 0
M  V30 3939 N 373.959 -0.0401083 1.57549 0
M  V30 3940 C 374.909 -1.05175 2.02292 0
M  V30 3941 C 375.893 -1.32674 0.910294 0
M  V30 3942 O 377.085 -1.32444 1.17421 0
M  V30 3943 C 374.214 -2.35622 2.49674 0
M  V30 3944 C 373.3 -2.11261 3.67736 0
M  V30 3945 N 373.691 -1.56923 4.80842 0
M  V30 3946 C 371.989 -2.41596 3.74897 0
M  V30 3947 C 372.69 -1.48111 5.62528 0
M  V30 3948 N 371.666 -1.95282 5.07312 0
M  V30 3949 H 375.468 -0.625455 2.87168 0
M  V30 3950 H 372.982 -0.246624 1.60516 0
M  V30 3951 H 374.979 -3.08893 2.79983 0
M  V30 3952 H 373.639 -2.7894 1.662 0
M  V30 3953 H 374.65 -1.25345 5.02503 0
M  V30 3954 H 371.327 -2.88064 3.02201 0
M  V30 3955 H 372.717 -1.06683 6.63377 0
M  V30 3956 N 375.437 -1.54477 -0.31217 0
M  V30 3957 C 376.662 -1.77526 -1.07235 0
M  V30 3958 C 377.087 -0.527775 -1.80544 0
M  V30 3959 O 376.445 0.52121 -1.73646 0
M  V30 3960 C 376.493 -2.97535 -2.03728 0
M  V30 3961 O 375.597 -2.69878 -3.11833 0
M  V30 3962 H 374.938 -0.58792 -0.30862 0
M  V30 3963 H 377.468 -2.01532 -0.352993 0
M  V30 3964 H 377.478 -3.25198 -2.46395 0
M  V30 3965 H 376.153 -3.87996 -1.49774 0
M  V30 3966 H 374.73 -2.53199 -2.7376 0
M  V30 3967 N 376.915 0.57481 -1.46744 0
M  V30 3968 C 378.14 1.36341 -1.56288 0
M  V30 3969 C 378.565 1.86954 -0.207347 0
M  V30 3970 O 377.923 1.62006 0.813871 0
M  V30 3971 C 377.971 2.52147 -2.57787 0
M  V30 3972 O 377.075 3.53834 -2.11838 0
M  V30 3973 H 376.416 0.405713 -0.525636 0
M  V30 3974 H 378.946 0.696453 -1.92382 0
M  V30 3975 H 378.956 2.98958 -2.77648 0
M  V30 3976 H 377.631 2.14663 -3.5622 0
M  V30 3977 H 376.208 3.1345 -2.01999 0
M  V30 3978 N 378.394 1.34581 0.820102 0
M  V30 3979 C 379.641 1.27096 1.57648 0
M  V30 3980 C 379.969 -0.158317 1.93855 0
M  V30 3981 O 379.224 -1.12028 1.60463 0
M  V30 3982 C 379.523 2.10997 2.8847 0
M  V30 3983 C 379.189 3.59966 2.71543 0
M  V30 3984 C 377.851 4.00575 2.66634 0
M  V30 3985 C 380.203 4.54548 2.55021 0
M  V30 3986 C 377.531 5.33953 2.43128 0
M  V30 3987 C 379.883 5.88109 2.33047 0
M  V30 3988 C 378.547 6.27878 2.26552 0
M  V30 3989 H 377.817 0.465078 0.576874 0
M  V30 3990 H 380.464 1.6635 0.948671 0
M  V30 3991 H 378.769 1.6458 3.55557 0
M  V30 3992 H 380.466 2.0255 3.46084 0
M  V30 3993 H 377.056 3.27733 2.76205 0
M  V30 3994 H 381.24 4.24069 2.57835 0
M  V30 3995 H 376.496 5.63781 2.3656 0
M  V30 3996 H 380.67 6.60985 2.19251 0
M  V30 3997 H 378.297 7.31162 2.081 0
M  V30 3998 N 379.872 -1.04064 1.18357 0
M  V30 3999 C 380.804 -2.12114 0.868358 0
M  V30 4000 C 381.817 -1.62247 -0.134045 0
M  V30 4001 O 383.006 -1.78253 0.0937933 0
M  V30 4002 C 380.106 -3.37773 0.276132 0
M  V30 4003 C 379.279 -4.16874 1.3242 0
M  V30 4004 C 378.338 -5.20861 0.747662 0
M  V30 4005 O 377.364 -5.51141 1.42239 0
M  V30 4006 N 378.566 -5.78715 -0.454823 0
M  V30 4007 H 381.331 -2.39748 1.79836 0
M  V30 4008 H 378.892 -1.20258 1.08396 0
M  V30 4009 H 380.884 -4.04513 -0.123133 0
M  V30 4010 H 379.454 -3.07581 -0.557895 0
M  V30 4011 H 378.674 -3.45456 1.89878 0
M  V30 4012 H 379.962 -4.66516 2.03078 0
M  V30 4013 H 379.36 -5.56415 -1.02073 0
M  V30 4014 H 377.917 -6.46921 -0.79601 0
M  V30 4015 N 381.35 -0.985608 -1.22978 0
M  V30 4016 C 382.597 -0.657386 -1.91532 0
M  V30 4017 C 382.925 0.809707 -1.76845 0
M  V30 4018 O 382.18 1.60021 -1.12658 0
M  V30 4019 C 382.479 -1.00014 -3.43121 0
M  V30 4020 C 382.145 -2.4583 -3.77993 0
M  V30 4021 C 380.807 -2.85679 -3.87222 0
M  V30 4022 C 383.159 -3.40378 -3.94705 0
M  V30 4023 C 380.487 -4.19081 -4.10595 0
M  V30 4024 C 382.839 -4.73429 -4.1958 0
M  V30 4025 C 381.503 -5.1303 -4.27032 0
M  V30 4026 H 380.773 -0.240555 -0.700867 0
M  V30 4027 H 383.42 -1.24044 -1.45895 0
M  V30 4028 H 381.725 -0.335072 -3.90365 0
M  V30 4029 H 383.422 -0.724322 -3.94404 0
M  V30 4030 H 380.012 -2.13939 -3.71387 0
M  V30 4031 H 384.196 -3.10766 -3.8696 0
M  V30 4032 H 379.452 -4.49362 -4.14589 0
M  V30 4033 H 383.626 -5.46644 -4.31455 0
M  V30 4034 H 381.253 -6.16418 -4.44896 0
M  V30 4035 N 382.828 1.3818 -0.7579 0
M  V30 4036 C 384.058 2.04004 -0.326463 0
M  V30 4037 C 384.466 1.57286 1.05156 0
M  V30 4038 O 383.809 0.743144 1.67997 0
M  V30 4039 C 383.871 3.58444 -0.275402 0
M  V30 4040 C 383.535 4.28237 -1.59569 0
M  V30 4041 C 384.532 4.53312 -2.54566 0
M  V30 4042 C 382.217 4.66341 -1.86631 0
M  V30 4043 C 384.211 5.15531 -3.74842 0
M  V30 4044 C 381.898 5.28283 -3.0718 0
M  V30 4045 C 382.896 5.52814 -4.01106 0
M  V30 4046 O 382.584 6.13465 -5.19534 0
M  V30 4047 H 382.316 0.662026 -0.136739 0
M  V30 4048 H 384.87 1.7777 -1.02893 0
M  V30 4049 H 383.1 3.83667 0.483337 0
M  V30 4050 H 384.789 4.05701 0.127099 0
M  V30 4051 H 385.555 4.24299 -2.34936 0
M  V30 4052 H 381.434 4.46591 -1.14358 0
M  V30 4053 H 384.978 5.34594 -4.48168 0
M  V30 4054 H 380.875 5.56719 -3.26702 0
M  V30 4055 H 381.643 6.31951 -5.20173 0
M  V30 4056 N 384.306 0.507319 1.49211 0
M  V30 4057 C 385.253 -0.267728 2.29242 0
M  V30 4058 C 386.223 -0.954609 1.35928 0
M  V30 4059 O 387.408 -0.960046 1.64887 0
M  V30 4060 C 384.548 -1.32243 3.18756 0
M  V30 4061 C 383.661 -0.64669 4.27132 0
M  V30 4062 C 382.796 -1.68238 5.03855 0
M  V30 4063 C 381.835 -0.98885 6.0406 0
M  V30 4064 N 380.972 -1.96903 6.73924 0
M  V30 4065 H 385.812 0.420968 2.95012 0
M  V30 4066 H 383.349 0.219443 1.45454 0
M  V30 4067 H 385.307 -1.94599 3.69036 0
M  V30 4068 H 383.937 -1.97981 2.54958 0
M  V30 4069 H 382.989 0.0902926 3.80293 0
M  V30 4070 H 384.301 -0.101058 4.98698 0
M  V30 4071 H 383.455 -2.38081 5.58034 0
M  V30 4072 H 382.194 -2.26187 4.32077 0
M  V30 4073 H 381.199 -0.276222 5.49106 0
M  V30 4074 H 382.424 -0.415767 6.77826 0
M  V30 4075 H 380.37 -2.53803 6.04913 0
M  V30 4076 H 380.287 -1.47423 7.41487 0
M  V30 4077 H 381.555 -2.66015 7.32705 0
M  V30 4078 N 385.784 -1.5574 0.241426 0
M  V30 4079 C 387.009 -2.0366 -0.392111 0
M  V30 4080 C 387.434 -1.11969 -1.51144 0
M  V30 4081 O 386.792 -0.111594 -1.80956 0
M  V30 4082 C 386.84 -3.49638 -0.882371 0
M  V30 4083 O 385.944 -3.6108 -1.99235 0
M  V30 4084 H 385.285 -0.658379 -0.0862122 0
M  V30 4085 H 387.815 -2.01302 0.365881 0
M  V30 4086 H 387.825 -3.90351 -1.18702 0
M  V30 4087 H 386.5 -4.15852 -0.0632361 0
M  V30 4088 H 385.077 -3.32262 -1.69282 0
M  V30 4089 N 387.262 0.0317525 -1.57568 0
M  V30 4090 C 388.51 0.721676 -1.88776 0
M  V30 4091 C 388.831 1.76039 -0.838772 0
M  V30 4092 O 388.101 1.95482 0.127935 0
M  V30 4093 H 386.681 0.269534 -0.696678 0
M  V30 4094 H 389.343 -0.00165879 -1.949 0
M  V30 4095 H 388.439 1.21293 -2.87566 0
M  V30 4096 N 388.74 1.54641 0.303973 0
M  V30 4097 C 389.989 1.7299 1.03717 0
M  V30 4098 C 390.302 0.521168 1.88529 0
M  V30 4099 O 391.508 0.586408 2.65092 0
M  V30 4100 C 389.964 3.06051 1.89369 0
M  V30 4101 C 389.572 4.34393 1.09574 0
M  V30 4102 C 391.316 3.3376 2.62306 0
M  V30 4103 C 389.223 5.58506 1.94486 0
M  V30 4104 H 388.153 0.64473 0.390947 0
M  V30 4105 H 390.804 1.81124 0.294328 0
M  V30 4106 H 389.186 2.91874 2.67629 0
M  V30 4107 H 390.36 4.59396 0.359485 0
M  V30 4108 H 388.675 4.13597 0.482324 0
M  V30 4109 H 391.272 4.23687 3.26181 0
M  V30 4110 H 391.615 2.52503 3.3098 0
M  V30 4111 H 392.148 3.48894 1.91097 0
M  V30 4112 H 388.887 6.42422 1.30287 0
M  V30 4113 H 388.407 5.37694 2.65792 0
M  V30 4114 H 390.086 5.95651 2.52605 0
M  V30 4115 N 390.218 -0.567019 1.47046 0
M  V30 4116 C 391.448 -1.34831 1.56538 0
M  V30 4117 C 391.856 -1.8802 0.21101 0
M  V30 4118 O 391.199 -1.65152 -0.804387 0
M  V30 4119 C 391.261 -2.56139 2.52256 0
M  V30 4120 C 390.925 -2.24307 3.98165 0
M  V30 4121 C 391.922 -1.82192 4.86931 0
M  V30 4122 C 389.607 -2.35968 4.43423 0
M  V30 4123 C 391.601 -1.52153 6.18973 0
M  V30 4124 C 389.288 -2.05542 5.75496 0
M  V30 4125 C 390.286 -1.63701 6.63092 0
M  V30 4126 O 389.974 -1.33657 7.92711 0
M  V30 4127 H 389.706 -0.417683 0.531523 0
M  V30 4128 H 392.26 -0.694726 1.93294 0
M  V30 4129 H 390.49 -3.24356 2.10548 0
M  V30 4130 H 392.179 -3.18214 2.51982 0
M  V30 4131 H 392.945 -1.72684 4.53217 0
M  V30 4132 H 388.824 -2.67495 3.75456 0
M  V30 4133 H 392.368 -1.19421 6.87302 0
M  V30 4134 H 388.265 -2.14679 6.08755 0
M  V30 4135 H 389.033 -1.4737 8.05124 0
M  V30 4136 N 391.696 -1.35014 -0.812953 0
M  V30 4137 C 392.943 -1.27931 -1.56971 0
M  V30 4138 C 393.271 0.148034 -1.93936 0
M  V30 4139 O 392.526 1.11175 -1.61054 0
M  V30 4140 C 392.825 -2.12524 -2.87347 0
M  V30 4141 C 392.491 -3.61401 -2.6963 0
M  V30 4142 C 391.153 -4.01983 -2.64506 0
M  V30 4143 C 393.505 -4.55894 -2.52607 0
M  V30 4144 C 390.833 -5.35235 -2.40293 0
M  V30 4145 C 393.185 -5.89336 -2.29925 0
M  V30 4146 C 391.849 -6.2907 -2.23219 0
M  V30 4147 H 391.119 -0.468131 -0.574399 0
M  V30 4148 H 393.766 -1.66851 -0.939836 0
M  V30 4149 H 392.071 -1.66463 -3.54679 0
M  V30 4150 H 393.768 -2.04383 -3.45005 0
M  V30 4151 H 390.358 -3.29193 -2.74463 0
M  V30 4152 H 394.542 -4.25431 -2.55583 0
M  V30 4153 H 389.798 -5.65028 -2.33566 0
M  V30 4154 H 393.972 -6.62139 -2.15743 0
M  V30 4155 H 391.599 -7.32256 -2.04219 0
M  V30 4156 N 393.175 1.03435 -1.18907 0
M  V30 4157 C 394.085 2.15075 -0.937015 0
M  V30 4158 C 395.101 1.73706 0.101085 0
M  V30 4159 O 396.277 2.01232 -0.0822948 0
M  V30 4160 C 393.342 3.43458 -0.473057 0
M  V30 4161 C 392.403 3.99172 -1.57989 0
M  V30 4162 C 391.636 5.21427 -1.13797 0
M  V30 4163 O 391.859 5.704 0.000725941 0
M  V30 4164 O 390.793 5.69837 -1.9383 0
M  V30 4165 H 394.619 2.39198 -1.87131 0
M  V30 4166 H 392.204 1.13506 -0.971427 0
M  V30 4167 H 394.086 4.20811 -0.222702 0
M  V30 4168 H 392.761 3.20793 0.432869 0
M  V30 4169 H 391.668 3.23178 -1.88433 0
M  V30 4170 H 393.001 4.2619 -2.46217 0
M  V30 4171 N 394.653 0.992116 1.22453 0
M  V30 4172 C 396.064 0.702776 1.72968 0
M  V30 4173 C 396.415 -0.780399 1.80012 0
M  V30 4174 O 395.54 -1.61007 1.44589 0
M  V30 4175 C 396.135 1.26903 3.14135 0
M  V30 4176 C 394.694 1.02909 3.62059 0
M  V30 4177 C 393.841 1.38969 2.39964 0
M  V30 4178 H 396.792 1.16457 1.07812 0
M  V30 4179 H 396.813 0.647223 3.74955 0
M  V30 4180 H 396.325 2.34851 3.08977 0
M  V30 4181 H 394.426 -0.0337979 3.72585 0
M  V30 4182 H 394.539 1.69191 4.48231 0
M  V30 4183 H 392.903 0.808279 2.41535 0
M  V30 4184 H 393.686 2.4792 2.37467 0
M  V30 4185 N 396.131 -1.37776 0.765217 0
M  V30 4186 C 397.408 -1.93975 0.251596 0
M  V30 4187 C 397.788 -1.69949 -1.25222 0
M  V30 4188 O 397.136 -1.04457 -2.03226 0
M  V30 4189 C 397.346 -3.43487 0.617895 0
M  V30 4190 C 398.694 -4.20564 0.584029 0
M  V30 4191 O 399.718 -3.5182 0.556888 0
M  V30 4192 O 398.577 -5.43138 0.605291 0
M  V30 4193 H 395.671 -0.82509 0.0561806 0
M  V30 4194 H 398.217 -1.47101 0.846128 0
M  V30 4195 H 396.989 -3.5453 1.65602 0
M  V30 4196 H 396.612 -3.976 -0.00403411 0
M  V30 4197 N 397.609 -0.515225 -1.4894 0
M  V30 4198 C 398.849 0.0223983 -2.04388 0
M  V30 4199 C 399.213 1.32961 -1.38511 0
M  V30 4200 O 400.414 1.95236 -1.8476 0
M  V30 4201 C 398.685 0.157056 -3.57055 0
M  V30 4202 S 400.244 0.646875 -4.34006 0
M  V30 4203 H 397.062 -0.00500662 -0.710982 0
M  V30 4204 H 399.664 -0.69243 -1.82827 0
M  V30 4205 H 398.368 -0.799412 -4.02539 0
M  V30 4206 H 397.899 0.896704 -3.83044 0
M  V30 4207 H 399.914 1.91381 -4.57808 0
M  V30 4208 N 399.087 1.5561 -0.249682 0
M  V30 4209 C 400.312 2.03865 0.381305 0
M  V30 4210 C 400.737 1.12769 1.50548 0
M  V30 4211 O 400.095 0.121189 1.80895 0
M  V30 4212 C 400.143 3.50101 0.863816 0
M  V30 4213 O 399.247 3.62132 1.97318 0
M  V30 4214 H 398.588 0.658827 0.0827194 0
M  V30 4215 H 401.118 2.01105 -0.376552 0
M  V30 4216 H 401.128 3.90975 1.1663 0
M  V30 4217 H 399.803 4.1588 0.0411816 0
M  V30 4218 H 398.38 3.33155 1.67517 0
M  V30 4219 N 400.565 -0.0233959 1.57583 0
M  V30 4220 C 401.79 -0.728376 1.94189 0
M  V30 4221 C 402.215 -1.67793 0.850119 0
M  V30 4222 O 401.573 -1.80262 -0.19371 0
M  V30 4223 C 401.621 -1.45669 3.29868 0
M  V30 4224 O 400.725 -2.57013 3.22518 0
M  V30 4225 H 400.066 -0.195493 0.63457 0
M  V30 4226 H 402.596 0.0228214 2.04587 0
M  V30 4227 H 402.606 -1.82535 3.6489 0
M  V30 4228 H 401.281 -0.760314 4.08891 0
M  V30 4229 H 399.858 -2.22648 2.99136 0
M  V30 4230 N 402.043 -1.548 -0.295768 0
M  V30 4231 C 402.99 -1.86113 -1.36494 0
M  V30 4232 C 403.96 -0.7105 -1.50137 0
M  V30 4233 O 405.145 -0.959626 -1.64912 0
M  V30 4234 C 402.285 -2.11861 -2.72413 0
M  V30 4235 C 401.398 -3.39471 -2.67177 0
M  V30 4236 C 400.533 -3.55035 -3.95125 0
M  V30 4237 C 399.572 -4.76418 -3.84308 0
M  V30 4238 N 398.709 -4.8876 -5.04042 0
M  V30 4239 H 403.549 -2.77314 -1.09091 0
M  V30 4240 H 401.086 -1.37315 -0.52753 0
M  V30 4241 H 403.044 -2.24786 -3.51464 0
M  V30 4242 H 401.674 -1.2392 -2.98066 0
M  V30 4243 H 400.726 -3.35139 -1.79962 0
M  V30 4244 H 402.038 -4.28646 -2.55076 0
M  V30 4245 H 401.192 -3.67653 -4.82614 0
M  V30 4246 H 399.931 -2.64002 -4.10066 0
M  V30 4247 H 398.936 -4.63827 -2.95202 0
M  V30 4248 H 400.161 -5.68863 -3.70906 0
M  V30 4249 H 398.107 -4.00652 -5.19436 0
M  V30 4250 H 398.024 -5.71945 -4.94384 0
M  V30 4251 H 399.292 -5.0574 -5.93167 0
M  V30 4252 N 403.521 0.559213 -1.47345 0
M  V30 4253 C 404.469 1.68747 -1.60085 0
M  V30 4254 C 405.463 1.628 -0.46825 0
M  V30 4255 O 406.669 1.68009 -0.645977 0
M  V30 4256 H 403.044 0.558329 -0.503759 0
M  V30 4257 H 405.015 1.55138 -2.54902 0
M  V30 4258 C 403.764 3.07103 -1.63042 0
M  V30 4259 H 403.087 3.12361 -2.49541 0
M  V30 4260 H 404.527 3.85743 -1.76006 0
M  V30 4261 C 402.986 3.34935 -0.363357 0
M  V30 4262 O 403.516 3.98102 0.536416 0
M  V30 4263 N 401.722 2.89574 -0.244 0
M  V30 4264 H 401.269 2.38348 -0.977133 0
M  V30 4265 H 401.227 3.08566 0.602836 0
M  V30 4266 N 404.999 1.35443 0.805782 0
M  V30 4267 C 405.929 1.31095 1.93226 0
M  V30 4268 C 406.91 0.185244 1.69088 0
M  V30 4269 O 408.095 0.380332 1.90439 0
M  V30 4270 C 405.225 1.08299 3.29983 0
M  V30 4271 C 404.179 2.17519 3.68605 0
M  V30 4272 C 403.505 1.79887 5.03532 0
M  V30 4273 C 404.805 3.5949 3.78898 0
M  V30 4274 H 406.499 2.25352 1.97122 0
M  V30 4275 H 404.045 1.0848 0.946996 0
M  V30 4276 H 405.998 1.03897 4.08391 0
M  V30 4277 H 404.722 0.104885 3.26432 0
M  V30 4278 H 403.381 2.2102 2.92482 0
M  V30 4279 H 403.029 0.80693 4.96485 0
M  V30 4280 H 402.729 2.53001 5.30344 0
M  V30 4281 H 404.253 1.77011 5.84379 0
M  V30 4282 H 405.667 3.58307 4.47536 0
M  V30 4283 H 404.064 4.31371 4.1718 0
M  V30 4284 H 405.134 3.95584 2.80431 0
M  V30 4285 N 406.477 -1.02803 1.19454 0
M  V30 4286 C 407.754 -1.73299 0.907013 0
M  V30 4287 C 408.134 -2.02772 -0.587086 0
M  V30 4288 O 407.482 -1.68304 -1.54551 0
M  V30 4289 C 407.692 -3.00912 1.76785 0
M  V30 4290 C 409.04 -3.74403 2.00268 0
M  V30 4291 O 410.064 -3.10841 1.73943 0
M  V30 4292 O 408.923 -4.88675 2.4466 0
M  V30 4293 H 406.017 -0.754727 0.338106 0
M  V30 4294 H 408.563 -1.08754 1.30271 0
M  V30 4295 H 407.335 -2.75366 2.7801 0
M  V30 4296 H 406.958 -3.73197 1.37149 0
M  V30 4297 N 407.956 -0.998596 -1.21925 0
M  V30 4298 C 408.906 -0.524743 -2.21879 0
M  V30 4299 C 409.89 0.41017 -1.55584 0
M  V30 4300 O 411.082 0.236063 -1.75419 0
M  V30 4301 C 408.211 0.153636 -3.42956 0
M  V30 4302 C 407.297 -0.801918 -4.16449 0
M  V30 4303 N 407.688 -1.95211 -4.66611 0
M  V30 4304 C 405.986 -0.618972 -4.41684 0
M  V30 4305 C 406.687 -2.55234 -5.22715 0
M  V30 4306 N 405.663 -1.83451 -5.1171 0
M  V30 4307 H 409.465 -1.40189 -2.58311 0
M  V30 4308 H 406.979 -0.86159 -1.3766 0
M  V30 4309 H 408.976 0.510534 -4.13762 0
M  V30 4310 H 407.636 1.02684 -3.08036 0
M  V30 4311 H 408.647 -2.33271 -4.62391 0
M  V30 4312 H 405.324 0.207694 -4.16983 0
M  V30 4313 H 406.714 -3.52471 -5.72026 0
M  V30 4314 N 409.434 1.37368 -0.772513 0
M  V30 4315 C 410.682 1.99279 -0.336516 0
M  V30 4316 C 411.003 1.6163 1.09091 0
M  V30 4317 O 410.273 0.882109 1.74916 0
M  V30 4318 H 408.853 0.737063 -0.121435 0
M  V30 4319 H 411.515 1.67836 -0.990809 0
M  V30 4320 H 410.611 3.09332 -0.414763 0
M  V30 4321 N 410.912 0.523116 1.48665 0
M  V30 4322 C 412.158 -0.0134963 2.02796 0
M  V30 4323 C 412.491 -1.34582 1.40004 0
M  V30 4324 O 411.766 -1.86756 0.543381 0
M  V30 4325 C 412.049 -0.14276 3.59817 0
M  V30 4326 C 411.902 1.21425 4.331 0
M  V30 4327 C 413.221 -0.872856 4.31357 0
M  V30 4328 H 410.34 -0.00343074 0.736992 0
M  V30 4329 H 412.982 0.678816 1.7746 0
M  V30 4330 H 411.132 -0.732401 3.81534 0
M  V30 4331 H 412.804 1.84447 4.2282 0
M  V30 4332 H 411.047 1.79791 3.94788 0
M  V30 4333 H 411.718 1.07687 5.41394 0
M  V30 4334 H 414.194 -0.372555 4.14429 0
M  V30 4335 H 413.07 -0.932185 5.40927 0
M  V30 4336 H 413.331 -1.92161 3.98154 0
M  V30 4337 N 412.39 -1.55475 0.257931 0
M  V30 4338 C 413.32 -2.24815 -0.630912 0
M  V30 4339 C 414.301 -1.23224 -1.17259 0
M  V30 4340 O 415.486 -1.51904 -1.20991 0
M  V30 4341 C 412.616 -2.95609 -1.82298 0
M  V30 4342 C 411.57 -4.03982 -1.41359 0
M  V30 4343 C 410.896 -4.6226 -2.68738 0
M  V30 4344 C 412.196 -5.19109 -0.57648 0
M  V30 4345 H 413.89 -2.99354 -0.0526878 0
M  V30 4346 H 411.436 -1.4398 -0.023901 0
M  V30 4347 H 413.389 -3.42822 -2.45054 0
M  V30 4348 H 412.113 -2.18577 -2.42676 0
M  V30 4349 H 410.772 -3.57555 -0.809324 0
M  V30 4350 H 410.42 -3.81915 -3.27338 0
M  V30 4351 H 410.12 -5.35424 -2.42065 0
M  V30 4352 H 411.644 -5.12212 -3.32372 0
M  V30 4353 H 413.058 -5.62479 -1.10861 0
M  V30 4354 H 411.455 -5.98729 -0.405351 0
M  V30 4355 H 412.525 -4.83174 0.408776 0
M  V30 4356 N 413.868 0.0150385 -1.57593 0
M  V30 4357 C 415.114 0.704043 -1.90187 0
M  V30 4358 C 415.447 1.74249 -0.857366 0
M  V30 4359 O 414.722 1.94092 0.125843 0
M  V30 4360 C 415.005 1.36087 -3.33395 0
M  V30 4361 C 414.858 0.334981 -4.48551 0
M  V30 4362 C 416.177 2.29112 -3.7576 0
M  V30 4363 H 413.296 0.254475 -0.691673 0
M  V30 4364 H 415.938 -0.0331678 -1.89971 0
M  V30 4365 H 414.088 1.98922 -3.3371 0
M  V30 4366 H 415.76 -0.292534 -4.60372 0
M  V30 4367 H 414.003 -0.344325 -4.32431 0
M  V30 4368 H 414.674 0.833316 -5.45674 0
M  V30 4369 H 417.15 1.76308 -3.76902 0
M  V30 4370 H 416.026 2.72043 -4.76743 0
M  V30 4371 H 416.287 3.16385 -3.08793 0
M  V30 4372 N 415.346 1.54954 0.287554 0
M  V30 4373 C 416.592 1.75132 1.02257 0
M  V30 4374 C 416.925 0.542858 1.86458 0
M  V30 4375 O 416.2 -0.459856 1.88986 0
M  V30 4376 C 416.483 3.04812 1.91733 0
M  V30 4377 C 416.336 4.35985 1.10622 0
M  V30 4378 C 417.655 3.30438 2.90687 0
M  V30 4379 H 414.774 0.637194 0.370341 0
M  V30 4380 H 417.416 1.87678 0.296111 0
M  V30 4381 H 415.566 2.94247 2.53675 0
M  V30 4382 H 417.238 4.58487 0.508636 0
M  V30 4383 H 415.481 4.31865 0.409271 0
M  V30 4384 H 416.152 5.23017 1.76513 0
M  V30 4385 H 418.628 3.40701 2.38877 0
M  V30 4386 H 417.504 4.22467 3.50447 0
M  V30 4387 H 417.765 2.49377 3.65053 0
M  V30 4388 N 416.824 -0.551391 1.4764 0
M  V30 4389 C 418.072 -1.30572 1.54258 0
M  V30 4390 C 418.393 -1.93877 0.208963 0
M  V30 4391 O 417.663 -1.80234 -0.767619 0
M  V30 4392 H 416.243 -0.484894 0.568231 0
M  V30 4393 H 418.905 -0.643402 1.83974 0
M  V30 4394 H 418.001 -2.09621 2.31226 0
M  V30 4395 N 418.302 -1.35869 -0.798587 0
M  V30 4396 C 419.532 -1.32529 -1.58491 0
M  V30 4397 C 419.94 0.0975405 -1.88948 0
M  V30 4398 O 419.283 1.06224 -1.49874 0
M  V30 4399 C 419.345 -2.07247 -2.9375 0
M  V30 4400 C 419.009 -3.56391 -2.86068 0
M  V30 4401 C 420.006 -4.50824 -2.58947 0
M  V30 4402 C 417.691 -3.9915 -3.04933 0
M  V30 4403 C 419.685 -5.85993 -2.5078 0
M  V30 4404 C 417.372 -5.34413 -2.96389 0
M  V30 4405 C 418.37 -6.27646 -2.69349 0
M  V30 4406 O 418.058 -7.60426 -2.60782 0
M  V30 4407 H 417.79 -0.456529 -0.498556 0
M  V30 4408 H 420.344 -1.79425 -0.999799 0
M  V30 4409 H 418.574 -1.55001 -3.54276 0
M  V30 4410 H 420.263 -1.96883 -3.54954 0
M  V30 4411 H 421.029 -4.19104 -2.44084 0
M  V30 4412 H 416.908 -3.26961 -3.24989 0
M  V30 4413 H 420.452 -6.58735 -2.29595 0
M  V30 4414 H 416.349 -5.65743 -3.10813 0
M  V30 4415 H 417.117 -7.70444 -2.76331 0
M  V30 4416 N 419.78 1.02168 -1.19998 0
M  V30 4417 C 421.028 1.75338 -1.00504 0
M  V30 4418 C 421.349 1.89387 0.464506 0
M  V30 4419 O 420.619 1.43268 1.33608 0
M  V30 4420 H 419.199 0.649564 -0.368885 0
M  V30 4421 H 421.861 1.23205 -1.51018 0
M  V30 4422 H 420.957 2.75892 -1.45912 0
M  V30 4423 N 421.258 1.00505 1.21394 0
M  V30 4424 C 422.505 0.687774 1.90462 0
M  V30 4425 C 422.833 -0.78147 1.7811 0
M  V30 4426 O 422.088 -1.58208 1.1519 0
M  V30 4427 C 422.387 1.0546 3.41486 0
M  V30 4428 C 422.053 2.51812 3.74034 0
M  V30 4429 C 420.715 2.91804 3.82628 0
M  V30 4430 C 423.067 3.46614 3.8924 0
M  V30 4431 C 420.395 4.2556 4.03876 0
M  V30 4432 C 422.747 4.80044 4.11995 0
M  V30 4433 C 421.411 5.19759 4.18816 0
M  V30 4434 H 420.681 0.251674 0.696951 0
M  V30 4435 H 423.328 1.26349 1.43903 0
M  V30 4436 H 421.633 0.397133 3.89782 0
M  V30 4437 H 423.33 0.786976 3.93202 0
M  V30 4438 H 419.92 2.1982 3.67936 0
M  V30 4439 H 424.104 3.16883 3.81967 0
M  V30 4440 H 419.36 4.55901 4.07387 0
M  V30 4441 H 423.534 5.53439 4.22704 0
M  V30 4442 H 421.161 6.23418 4.35033 0
M  V30 4443 N 422.737 -1.36956 0.779787 0
M  V30 4444 C 423.647 -2.33965 0.172491 0
M  V30 4445 C 424.663 -1.60574 -0.670222 0
M  V30 4446 O 425.839 -1.92617 -0.588263 0
M  V30 4447 C 422.904 -3.39761 -0.690173 0
M  V30 4448 C 421.965 -4.28964 0.169924 0
M  V30 4449 C 421.198 -5.29707 -0.651662 0
M  V30 4450 O 421.421 -5.38238 -1.88827 0
M  V30 4451 O 420.355 -6.01873 -0.0566264 0
M  V30 4452 H 424.181 -2.87647 0.974321 0
M  V30 4453 H 421.766 -1.39258 0.541078 0
M  V30 4454 H 423.648 -4.04471 -1.1824 0
M  V30 4455 H 422.323 -2.88394 -1.47006 0
M  V30 4456 H 421.23 -3.67326 0.708696 0
M  V30 4457 H 422.563 -4.83656 0.913085 0
M  V30 4458 N 424.215 -0.530993 -1.48385 0
M  V30 4459 C 425.463 0.00273189 -2.021 0
M  V30 4460 C 425.784 1.34672 -1.41027 0
M  V30 4461 O 425.054 1.8724 -0.576012 0
M  V30 4462 H 423.634 0.00399774 -0.746989 0
M  V30 4463 H 426.296 -0.695054 -1.82085 0
M  V30 4464 H 425.392 0.11031 -3.11905 0
M  V30 4465 N 425.693 1.55336 -0.266172 0
M  V30 4466 C 426.656 2.20878 0.612001 0
M  V30 4467 C 427.656 1.18388 1.08816 0
M  V30 4468 O 428.846 1.4335 0.989774 0
M  V30 4469 C 425.978 2.86765 1.84332 0
M  V30 4470 H 427.171 2.99873 0.0398718 0
M  V30 4471 H 424.724 1.56291 -0.0167309 0
M  V30 4472 H 425.459 2.11759 2.45619 0
M  V30 4473 H 425.244 3.61862 1.5099 0
M  V30 4474 H 426.734 3.36867 2.46801 0
M  V30 4475 N 427.171 -0.0066808 1.57599 0
M  V30 4476 C 428.119 -1.01851 2.09115 0
M  V30 4477 C 429.113 -1.36021 1.00969 0
M  V30 4478 O 430.319 -1.34663 1.19439 0
M  V30 4479 H 426.694 -0.346083 0.667631 0
M  V30 4480 H 428.665 -0.558394 2.93129 0
M  V30 4481 C 427.414 -2.30374 2.60429 0
M  V30 4482 H 426.737 -2.04947 3.43273 0
M  V30 4483 H 428.177 -2.99466 3.00161 0
M  V30 4484 C 426.636 -3.00893 1.51542 0
M  V30 4485 O 427.166 -3.91614 0.894484 0
M  V30 4486 N 425.372 -2.62603 1.2445 0
M  V30 4487 H 424.919 -1.88911 1.75129 0
M  V30 4488 H 424.877 -3.10101 0.518137 0
M  V30 4489 N 428.649 -1.55105 -0.279332 0
M  V30 4490 C 429.874 -1.7976 -1.03446 0
M  V30 4491 C 430.299 -0.565952 -1.79384 0
M  V30 4492 O 429.657 0.484259 -1.74713 0
M  V30 4493 C 429.705 -3.0179 -1.97371 0
M  V30 4494 O 428.809 -2.76432 -3.06038 0
M  V30 4495 H 428.15 -0.594334 -0.29608 0
M  V30 4496 H 430.68 -2.02235 -0.310165 0
M  V30 4497 H 430.69 -3.30351 -2.39441 0
M  V30 4498 H 429.365 -3.91085 -1.4151 0
M  V30 4499 H 427.942 -2.58949 -2.68328 0
M  V30 4500 N 430.127 0.543554 -1.4793 0
M  V30 4501 C 431.075 1.67039 -1.61866 0
M  V30 4502 C 432.069 1.62294 -0.48549 0
M  V30 4503 O 433.275 1.67315 -0.66376 0
M  V30 4504 H 429.65 0.552954 -0.509652 0
M  V30 4505 H 431.621 1.52426 -2.56533 0
M  V30 4506 C 430.37 3.05357 -1.6629 0
M  V30 4507 H 429.693 3.09696 -2.5284 0
M  V30 4508 H 431.133 3.83855 -1.80088 0
M  V30 4509 C 429.592 3.34531 -0.398861 0
M  V30 4510 O 430.122 3.98649 0.494162 0
M  V30 4511 N 428.328 2.89299 -0.2747 0
M  V30 4512 H 427.875 2.37298 -1.00236 0
M  V30 4513 H 427.833 3.09188 0.570075 0
M  V30 4514 N 431.605 1.3629 0.791371 0
M  V30 4515 C 432.553 1.30514 1.92533 0
M  V30 4516 C 433.547 0.197285 1.68247 0
M  V30 4517 O 434.753 0.364176 1.76278 0
M  V30 4518 H 431.128 0.406263 0.632815 0
M  V30 4519 H 433.099 2.26282 1.94523 0
M  V30 4520 C 431.848 1.10933 3.29529 0
M  V30 4521 H 431.171 1.95427 3.48781 0
M  V30 4522 H 432.611 1.10937 4.0923 0
M  V30 4523 C 431.07 -0.186123 3.36385 0
M  V30 4524 O 431.6 -1.17664 3.84081 0
M  V30 4525 N 429.806 -0.230128 2.89687 0
M  V30 4526 H 429.353 0.576545 2.51065 0
M  V30 4527 H 429.311 -1.09658 2.94657 0
M  V30 4528 N 433.083 -1.0153 1.20538 0
M  V30 4529 C 434.308 -1.79283 1.04271 0
M  V30 4530 C 434.733 -1.8372 -0.403544 0
M  V30 4531 O 434.091 -1.27321 -1.2907 0
M  V30 4532 C 434.139 -3.21535 1.63241 0
M  V30 4533 O 433.243 -4.03099 0.870908 0
M  V30 4534 H 432.584 -0.55293 0.367647 0
M  V30 4535 H 435.114 -1.27696 1.59859 0
M  V30 4536 H 435.124 -3.72243 1.6703 0
M  V30 4537 H 433.799 -3.1762 2.68497 0
M  V30 4538 H 432.376 -3.61693 0.907323 0
M  V30 4539 N 434.561 -1.01147 -1.20859 0
M  V30 4540 C 435.508 -0.577354 -2.23462 0
M  V30 4541 C 436.478 0.399922 -1.61214 0
M  V30 4542 O 437.663 0.300515 -1.88419 0
M  V30 4543 C 434.803 0.083372 -3.44999 0
M  V30 4544 C 433.916 -0.937856 -4.21697 0
M  V30 4545 C 433.051 -0.248717 -5.30617 0
M  V30 4546 C 432.09 -1.25705 -5.99053 0
M  V30 4547 N 431.227 -0.594939 -6.99575 0
M  V30 4548 H 436.067 -1.45695 -2.59956 0
M  V30 4549 H 433.604 -0.729428 -1.27741 0
M  V30 4550 H 435.562 0.483535 -4.14388 0
M  V30 4551 H 434.192 0.926645 -3.09214 0
M  V30 4552 H 433.244 -1.45622 -3.51423 0
M  V30 4553 H 434.556 -1.70493 -4.68757 0
M  V30 4554 H 433.71 0.207215 -6.06346 0
M  V30 4555 H 432.449 0.55071 -4.84581 0
M  V30 4556 H 431.454 -1.72343 -5.2209 0
M  V30 4557 H 432.679 -2.05767 -6.47176 0
M  V30 4558 H 430.625 0.184713 -6.5574 0
M  V30 4559 H 430.542 -1.30017 -7.44736 0
M  V30 4560 H 431.81 -0.162427 -7.79331 0
M  V30 4561 N 436.039 1.36541 -0.78704 0
M  V30 4562 C 437.269 2.03266 -0.369662 0
M  V30 4563 C 437.677 1.59481 1.01796 0
M  V30 4564 O 437.02 0.778612 1.66383 0
M  V30 4565 C 437.082 3.57779 -0.351371 0
M  V30 4566 C 436.746 4.24756 -1.68617 0
M  V30 4567 C 437.743 4.47811 -2.64124 0
M  V30 4568 C 435.428 4.62277 -1.96481 0
M  V30 4569 C 437.422 5.07464 -3.85693 0
M  V30 4570 C 435.109 5.21649 -3.18317 0
M  V30 4571 C 436.107 5.44182 -4.12741 0
M  V30 4572 O 435.795 6.02307 -5.32429 0
M  V30 4573 H 435.527 0.658977 -0.150751 0
M  V30 4574 H 438.081 1.75548 -1.0664 0
M  V30 4575 H 436.311 3.84606 0.401847 0
M  V30 4576 H 438 4.05879 0.0410147 0
M  V30 4577 H 438.766 4.19221 -2.43883 0
M  V30 4578 H 434.645 4.44065 -1.23805 0
M  V30 4579 H 438.189 5.24968 -4.59407 0
M  V30 4580 H 434.086 5.49664 -3.38437 0
M  V30 4581 H 434.854 6.20775 -5.33461 0
M  V30 4582 N 437.518 0.538854 1.48102 0
M  V30 4583 C 438.764 0.0161732 2.03394 0
M  V30 4584 C 439.119 -1.31154 1.40771 0
M  V30 4585 O 438.412 -1.83613 0.547421 0
M  V30 4586 C 438.606 -0.153808 3.57069 0
M  V30 4587 C 438.435 1.15588 4.34591 0
M  V30 4588 C 437.205 1.71818 4.75191 0
M  V30 4589 C 439.403 2.06867 4.70861 0
M  V30 4590 N 437.385 2.96983 5.37284 0
M  V30 4591 C 438.756 3.16609 5.33066 0
M  V30 4592 C 440.811 2.07085 4.52791 0
M  V30 4593 C 439.514 4.26645 5.79109 0
M  V30 4594 C 441.54 3.16121 4.99821 0
M  V30 4595 C 440.902 4.24582 5.62058 0
M  V30 4596 H 437.001 0.0476346 0.780548 0
M  V30 4597 H 439.585 0.722094 1.80815 0
M  V30 4598 H 437.756 -0.828825 3.79454 0
M  V30 4599 H 439.488 -0.676896 3.98999 0
M  V30 4600 H 436.243 1.25845 4.56574 0
M  V30 4601 H 436.667 3.60732 5.72889 0
M  V30 4602 H 441.309 1.24522 4.04047 0
M  V30 4603 H 439.027 5.0998 6.26854 0
M  V30 4604 H 442.613 3.17355 4.87624 0
M  V30 4605 H 441.493 5.07562 5.97788 0
M  V30 4606 N 438.996 -1.55193 0.274407 0
M  V30 4607 C 439.926 -2.25471 -0.607032 0
M  V30 4608 C 440.907 -1.24461 -1.15946 0
M  V30 4609 O 442.092 -1.53179 -1.19373 0
M  V30 4610 C 439.222 -2.97526 -1.79153 0
M  V30 4611 C 438.176 -4.05459 -1.37067 0
M  V30 4612 C 437.502 -4.65084 -2.6382 0
M  V30 4613 C 438.802 -5.19691 -0.521389 0
M  V30 4614 H 440.496 -2.99393 -0.0209343 0
M  V30 4615 H 438.042 -1.43997 -0.00862866 0
M  V30 4616 H 439.995 -3.45402 -2.41404 0
M  V30 4617 H 438.719 -2.21138 -2.40344 0
M  V30 4618 H 437.378 -3.58393 -0.771355 0
M  V30 4619 H 437.026 -3.85365 -3.23268 0
M  V30 4620 H 436.726 -5.37961 -2.36372 0
M  V30 4621 H 438.25 -5.15708 -3.26921 0
M  V30 4622 H 439.664 -5.63623 -1.04889 0
M  V30 4623 H 438.061 -5.99126 -0.341825 0
M  V30 4624 H 439.131 -4.82713 0.46 0
M  V30 4625 N 440.474 -0.00167713 -1.576 0
M  V30 4626 C 441.72 0.683832 -1.90923 0
M  V30 4627 C 442.053 1.7333 -0.875799 0
M  V30 4628 O 441.328 1.94215 0.10525 0
M  V30 4629 C 441.611 1.32543 -3.3482 0
M  V30 4630 C 441.464 0.287387 -4.48881 0
M  V30 4631 C 442.783 2.25114 -3.78169 0
M  V30 4632 H 439.902 0.247125 -0.694333 0
M  V30 4633 H 442.544 -0.0533149 -1.89925 0
M  V30 4634 H 440.694 1.95372 -3.35801 0
M  V30 4635 H 442.366 -0.341346 -4.60035 0
M  V30 4636 H 440.609 -0.39017 -4.32042 0
M  V30 4637 H 441.28 0.775393 -5.46527 0
M  V30 4638 H 443.756 1.723 -3.7875 0
M  V30 4639 H 442.632 2.66971 -4.79602 0
M  V30 4640 H 442.893 3.13092 -3.12131 0
M  V30 4641 N 441.952 1.55251 0.271103 0
M  V30 4642 C 442.899 1.88261 1.33516 0
M  V30 4643 C 443.869 0.734296 1.48988 0
M  V30 4644 O 445.054 0.985741 1.63364 0
M  V30 4645 C 442.194 2.16168 2.69008 0
M  V30 4646 C 441.307 3.43678 2.61743 0
M  V30 4647 C 440.442 3.61276 3.89427 0
M  V30 4648 C 439.481 4.82472 3.7668 0
M  V30 4649 N 438.618 4.96717 4.96202 0
M  V30 4650 H 443.458 2.79015 1.04665 0
M  V30 4651 H 440.995 1.38137 0.505618 0
M  V30 4652 H 442.953 2.30349 3.47844 0
M  V30 4653 H 441.583 1.28646 2.96057 0
M  V30 4654 H 440.635 3.37959 1.74607 0
M  V30 4655 H 441.947 4.3265 2.48224 0
M  V30 4656 H 441.101 3.75284 4.76704 0
M  V30 4657 H 439.84 2.70492 4.05814 0
M  V30 4658 H 438.845 4.68465 2.87786 0
M  V30 4659 H 440.07 5.74692 3.61809 0
M  V30 4660 H 438.016 4.08865 5.12997 0
M  V30 4661 H 437.933 5.79738 4.85222 0
M  V30 4662 H 439.201 5.15113 5.85046 0
M  V30 4663 N 443.43 -0.535701 1.48216 0
M  V30 4664 C 444.378 -1.66179 1.62749 0
M  V30 4665 C 445.372 -1.62034 0.49409 0
M  V30 4666 O 446.578 -1.6696 0.672624 0
M  V30 4667 H 442.953 -0.550244 0.512578 0
M  V30 4668 H 444.924 -1.51063 2.57337 0
M  V30 4669 C 443.673 -3.04471 1.67907 0
M  V30 4670 H 442.996 -3.08351 2.54479 0
M  V30 4671 H 444.436 -3.82894 1.82121 0
M  V30 4672 C 442.895 -3.34314 0.416596 0
M  V30 4673 O 443.425 -3.98905 -0.473014 0
M  V30 4674 N 441.631 -2.89149 0.290038 0
M  V30 4675 H 441.178 -2.36764 1.01493 0
M  V30 4676 H 441.136 -3.09486 -0.55367 0
M  V30 4677 N 444.908 -1.36708 -0.784132 0
M  V30 4678 C 446.133 -1.34565 -1.5782 0
M  V30 4679 C 446.558 0.0695257 -1.87971 0
M  V30 4680 O 445.916 1.04302 -1.48293 0
M  V30 4681 C 445.964 -2.17952 -2.87279 0
M  V30 4682 O 445.068 -1.57563 -3.81114 0
M  V30 4683 H 444.409 -0.460337 -0.478524 0
M  V30 4684 H 446.939 -1.80064 -0.971495 0
M  V30 4685 H 446.949 -2.30721 -3.365 0
M  V30 4686 H 445.624 -3.20823 -2.64661 0
M  V30 4687 H 444.201 -1.53764 -3.39722 0
M  V30 4688 N 446.386 1.0089 -1.21074 0
M  V30 4689 C 447.632 1.7497 -1.03717 0
M  V30 4690 C 447.987 1.8764 0.425344 0
M  V30 4691 O 447.28 1.39679 1.3115 0
M  V30 4692 C 447.474 3.16335 -1.66334 0
M  V30 4693 C 447.303 3.17449 -3.18522 0
M  V30 4694 C 446.073 3.2425 -3.87543 0
M  V30 4695 C 448.271 3.02877 -4.15656 0
M  V30 4696 N 446.253 3.14949 -5.26954 0
M  V30 4697 C 447.624 3.0143 -5.41793 0
M  V30 4698 C 449.679 2.8715 -4.06755 0
M  V30 4699 C 448.382 2.85869 -6.60054 0
M  V30 4700 C 450.408 2.72944 -5.24648 0
M  V30 4701 C 449.77 2.72171 -6.49694 0
M  V30 4702 H 445.869 0.650627 -0.43383 0
M  V30 4703 H 448.453 1.19944 -1.53367 0
M  V30 4704 H 446.624 3.69638 -1.19256 0
M  V30 4705 H 448.356 3.78888 -1.42219 0
M  V30 4706 H 445.111 3.31288 -3.38446 0
M  V30 4707 H 445.535 3.13651 -5.9996 0
M  V30 4708 H 450.177 2.86557 -3.10878 0
M  V30 4709 H 447.895 2.8521 -7.56096 0
M  V30 4710 H 451.481 2.61782 -5.19578 0
M  V30 4711 H 450.361 2.61307 -7.39384 0
M  V30 4712 N 447.864 1.01787 1.20321 0
M  V30 4713 C 449.112 0.706538 1.89347 0
M  V30 4714 C 449.433 -0.766289 1.79313 0
M  V30 4715 O 448.703 -1.55126 1.19635 0
M  V30 4716 H 447.283 0.258348 0.700903 0
M  V30 4717 H 449.945 1.28974 1.46122 0
M  V30 4718 H 449.041 0.991066 2.95946 0
M  V30 4719 N 449.342 -1.36122 0.79427 0
M  V30 4720 C 450.753 -1.81646 0.431446 0
M  V30 4721 C 451.104 -1.66043 -1.04518 0
M  V30 4722 O 450.229 -1.1841 -1.8113 0
M  V30 4723 C 450.824 -3.29785 0.776341 0
M  V30 4724 C 449.383 -3.73501 0.466282 0
M  V30 4725 C 448.53 -2.58313 1.00844 0
M  V30 4726 H 451.481 -1.24274 0.986995 0
M  V30 4727 H 451.502 -3.80437 0.0692413 0
M  V30 4728 H 451.014 -3.4111 1.8511 0
M  V30 4729 H 449.115 -3.67733 -0.600245 0
M  V30 4730 H 449.228 -4.68754 0.990288 0
M  V30 4731 H 447.592 -2.5102 0.431406 0
M  V30 4732 H 448.375 -2.72421 2.08906 0
M  V30 4733 N 450.82 -0.546701 -1.47814 0
M  V30 4734 C 451.73 0.21026 -2.33656 0
M  V30 4735 C 452.746 0.922413 -1.47538 0
M  V30 4736 O 453.922 0.893652 -1.80488 0
M  V30 4737 C 450.987 1.23348 -3.24016 0
M  V30 4738 C 450.048 0.529883 -4.26017 0
M  V30 4739 C 449.281 1.50435 -5.12059 0
M  V30 4740 O 449.504 2.73837 -5.00369 0
M  V30 4741 O 448.438 1.03459 -5.92942 0
M  V30 4742 H 452.264 -0.493605 -2.99662 0
M  V30 4743 H 449.849 -0.307427 -1.46203 0
M  V30 4744 H 451.731 1.82438 -3.79861 0
M  V30 4745 H 450.406 1.91945 -2.60651 0
M  V30 4746 H 449.313 -0.101948 -3.73961 0
M  V30 4747 H 450.646 -0.11445 -4.92067 0
M  V30 4748 N 452.299 1.55045 -0.282633 0
M  V30 4749 C 453.545 2.0078 0.325436 0
M  V30 4750 C 453.9 1.1676 1.52921 0
M  V30 4751 O 453.193 0.231475 1.90197 0
M  V30 4752 C 453.387 3.49422 0.750938 0
M  V30 4753 C 453.216 4.47827 -0.410056 0
M  V30 4754 C 451.986 4.97288 -0.896239 0
M  V30 4755 C 454.184 4.98903 -1.24902 0
M  V30 4756 N 452.166 5.79508 -2.02591 0
M  V30 4757 C 453.537 5.78644 -2.22646 0
M  V30 4758 C 455.592 4.81126 -1.2815 0
M  V30 4759 C 454.295 6.42502 -3.23393 0
M  V30 4760 C 456.321 5.45789 -2.27745 0
M  V30 4761 C 455.683 6.25348 -3.24222 0
M  V30 4762 H 451.782 0.77747 0.08405 0
M  V30 4763 H 454.366 1.90369 -0.408368 0
M  V30 4764 H 452.537 3.60159 1.45395 0
M  V30 4765 H 454.269 3.81978 1.33698 0
M  V30 4766 H 451.024 4.71219 -0.474277 0
M  V30 4767 H 451.448 6.25308 -2.59459 0
M  V30 4768 H 456.09 4.19215 -0.549397 0
M  V30 4769 H 453.808 7.03558 -3.97533 0
M  V30 4770 H 457.394 5.33972 -2.31009 0
M  V30 4771 H 456.274 6.74498 -4.00027 0
M  V30 4772 N 453.777 0.010035 1.57597 0
M  V30 4773 C 455.025 -0.671371 1.90623 0
M  V30 4774 C 455.346 -1.73753 0.885151 0
M  V30 4775 O 454.616 -1.95752 -0.0760611 0
M  V30 4776 H 453.196 -0.250968 0.703579 0
M  V30 4777 H 455.858 0.0533325 1.94827 0
M  V30 4778 H 454.954 -1.13626 2.90681 0
M  V30 4779 N 455.255 -1.55392 -0.262866 0
M  V30 4780 C 456.48 -1.80847 -1.01533 0
M  V30 4781 C 456.905 -0.584946 -1.78774 0
M  V30 4782 O 456.263 0.465701 -1.75217 0
M  V30 4783 C 456.311 -3.03866 -1.94159 0
M  V30 4784 O 455.415 -2.79662 -3.03089 0
M  V30 4785 H 454.756 -0.597441 -0.289759 0
M  V30 4786 H 457.286 -2.02553 -0.288698 0
M  V30 4787 H 457.296 -3.32872 -2.35924 0
M  V30 4788 H 455.971 -3.92564 -1.37354 0
M  V30 4789 H 454.548 -2.61781 -2.65566 0
M  V30 4790 N 456.733 0.527833 -1.48498 0
M  V30 4791 C 457.681 1.65313 -1.63628 0
M  V30 4792 C 458.675 1.6177 -0.502676 0
M  V30 4793 O 459.881 1.66601 -0.681469 0
M  V30 4794 H 456.256 0.547518 -0.515488 0
M  V30 4795 H 458.227 1.49696 -2.58135 0
M  V30 4796 C 456.976 3.03576 -1.6952 0
M  V30 4797 H 456.299 3.06997 -2.56111 0
M  V30 4798 H 457.739 3.81923 -1.84149 0
M  V30 4799 C 456.198 3.34089 -0.43432 0
M  V30 4800 O 456.728 3.99151 0.451852 0
M  V30 4801 N 454.934 2.88991 -0.305368 0
M  V30 4802 H 454.481 2.36222 -1.02747 0
M  V30 4803 H 454.439 3.09776 0.537249 0
M  V30 4804 N 458.211 1.37122 0.776871 0
M  V30 4805 C 459.459 1.31787 1.53221 0
M  V30 4806 C 459.78 -0.0987589 1.9475 0
M  V30 4807 O 459.05 -1.0417 1.65908 0
M  V30 4808 H 457.63 0.484839 0.568278 0
M  V30 4809 H 460.292 1.71556 0.924917 0
M  V30 4810 H 459.388 1.95355 2.43398 0
M  V30 4811 N 459.689 -1.00246 1.21608 0
M  V30 4812 C 460.919 -1.77373 1.05935 0
M  V30 4813 C 461.327 -1.85059 -0.393686 0
M  V30 4814 O 460.67 -1.31289 -1.28487 0
M  V30 4815 C 460.732 -3.22705 1.58435 0
M  V30 4816 C 460.396 -3.38591 3.06929 0
M  V30 4817 C 461.393 -3.2667 4.04454 0
M  V30 4818 C 459.078 -3.6395 3.46187 0
M  V30 4819 C 461.072 -3.39877 5.39224 0
M  V30 4820 C 458.759 -3.768 4.81108 0
M  V30 4821 C 459.757 -3.6477 5.77436 0
M  V30 4822 O 459.445 -3.77206 7.09909 0
M  V30 4823 H 459.177 -0.56419 0.372378 0
M  V30 4824 H 461.731 -1.26971 1.61454 0
M  V30 4825 H 459.961 -3.74255 0.973147 0
M  V30 4826 H 461.65 -3.81515 1.38568 0
M  V30 4827 H 462.416 -3.06999 3.75468 0
M  V30 4828 H 458.295 -3.72395 2.71741 0
M  V30 4829 H 461.839 -3.30404 6.14393 0
M  V30 4830 H 457.736 -3.95975 5.09779 0
M  V30 4831 H 458.504 -3.94138 7.17355 0
M  V30 4832 N 461.167 -1.02423 -1.1978 0
M  V30 4833 C 462.413 -0.719051 -1.89625 0
M  V30 4834 C 462.746 0.750083 -1.7913 0
M  V30 4835 O 462.021 1.54574 -1.18056 0
M  V30 4836 C 462.304 -1.16499 -3.40735 0
M  V30 4837 C 462.157 -2.695 -3.60125 0
M  V30 4838 C 463.476 -0.742166 -4.33797 0
M  V30 4839 H 460.595 -0.26269 -0.688595 0
M  V30 4840 H 463.237 -1.27333 -1.41018 0
M  V30 4841 H 461.387 -0.69341 -3.82262 0
M  V30 4842 H 463.059 -3.24569 -3.278 0
M  V30 4843 H 461.302 -3.10113 -3.03336 0
M  V30 4844 H 461.973 -2.95757 -4.66081 0
M  V30 4845 H 464.449 -1.1477 -3.99959 0
M  V30 4846 H 463.325 -1.08213 -5.38127 0
M  V30 4847 H 463.586 0.355747 -4.40666 0
M  V30 4848 N 462.645 1.35699 -0.801477 0
M  V30 4849 C 463.592 2.29876 -0.206294 0
M  V30 4850 C 464.562 1.52565 0.656752 0
M  V30 4851 O 465.747 1.81024 0.602906 0
M  V30 4852 C 462.887 3.39052 0.643272 0
M  V30 4853 C 462 4.31335 -0.239644 0
M  V30 4854 C 461.135 5.27599 0.61744 0
M  V30 4855 C 460.174 6.11521 -0.26619 0
M  V30 4856 N 459.311 6.99938 0.550571 0
M  V30 4857 H 464.151 2.80187 -1.01484 0
M  V30 4858 H 461.688 1.37902 -0.511997 0
M  V30 4859 H 463.646 4.0101 1.15094 0
M  V30 4860 H 462.276 2.9003 1.41713 0
M  V30 4861 H 461.328 3.70426 -0.865381 0
M  V30 4862 H 462.64 4.90243 -0.919985 0
M  V30 4863 H 461.794 5.94906 1.19045 0
M  V30 4864 H 460.533 4.69176 1.33137 0
M  V30 4865 H 459.538 5.43166 -0.851507 0
M  V30 4866 H 460.763 6.72022 -0.9779 0
M  V30 4867 H 458.709 6.44008 1.24856 0
M  V30 4868 H 458.626 7.55966 -0.071832 0
M  V30 4869 H 459.894 7.71599 1.10702 0
M  V30 4870 N 464.123 0.554532 1.47522 0
M  V30 4871 C 465.372 0.0273458 2.01681 0
M  V30 4872 C 465.685 -1.32962 1.43459 0
M  V30 4873 O 466.891 -1.94657 1.89265 0
M  V30 4874 C 465.347 -0.00159057 3.599 0
M  V30 4875 C 464.955 1.35197 4.27113 0
M  V30 4876 C 466.699 -0.476311 4.21819 0
M  V30 4877 C 464.606 1.28229 5.77331 0
M  V30 4878 H 463.536 0.00645269 0.753972 0
M  V30 4879 H 466.187 0.701985 1.69542 0
M  V30 4880 H 464.569 -0.741821 3.8899 0
M  V30 4881 H 465.743 2.1097 4.09668 0
M  V30 4882 H 464.058 1.76441 3.77171 0
M  V30 4883 H 466.655 -0.5468 5.31897 0
M  V30 4884 H 466.998 -1.4877 3.8881 0
M  V30 4885 H 467.531 0.20898 3.97251 0
M  V30 4886 H 464.27 2.26959 6.14955 0
M  V30 4887 H 463.79 0.566314 5.97121 0
M  V30 4888 H 465.469 0.983226 6.39485 0
M  V30 4889 N 465.601 -1.54893 0.290851 0
M  V30 4890 C 466.564 -2.21824 -0.576784 0
M  V30 4891 C 467.564 -1.20104 -1.06919 0
M  V30 4892 O 468.754 -1.44906 -0.966843 0
M  V30 4893 C 465.886 -2.89662 -1.79747 0
M  V30 4894 H 467.079 -2.99899 0.00784051 0
M  V30 4895 H 464.632 -1.56245 0.0415934 0
M  V30 4896 H 465.367 -2.15639 -2.42219 0
M  V30 4897 H 465.152 -3.64219 -1.45214 0
M  V30 4898 H 466.642 -3.4075 -2.4141 0
M  V30 4899 N 467.08 -0.0183926 -1.57589 0
M  V30 4900 C 468.027 0.967022 -2.09565 0
M  V30 4901 C 468.997 1.32983 -0.995225 0
M  V30 4902 O 470.182 1.42501 -1.26878 0
M  V30 4903 C 467.322 2.24772 -2.61861 0
M  V30 4904 C 466.435 1.94232 -3.85873 0
M  V30 4905 C 465.57 3.16518 -4.26603 0
M  V30 4906 C 464.609 2.81748 -5.43401 0
M  V30 4907 N 463.746 3.96626 -5.79338 0
M  V30 4908 H 468.586 0.516874 -2.93483 0
M  V30 4909 H 466.123 0.243544 -1.4507 0
M  V30 4910 H 468.081 2.99667 -2.90268 0
M  V30 4911 H 466.711 2.67423 -1.8079 0
M  V30 4912 H 465.763 1.09625 -3.64262 0
M  V30 4913 H 467.075 1.64616 -4.70853 0
M  V30 4914 H 466.229 3.99743 -4.56389 0
M  V30 4915 H 464.968 3.49286 -3.40368 0
M  V30 4916 H 463.973 1.96933 -5.1332 0
M  V30 4917 H 465.198 2.50207 -6.31327 0
M  V30 4918 H 463.144 4.29257 -4.96059 0
M  V30 4919 H 463.061 3.70598 -6.58933 0
M  V30 4920 H 464.329 4.80586 -6.13724 0
M  V30 4921 N 468.558 1.5553 0.254621 0
M  V30 4922 C 469.835 1.6774 1.00611 0
M  V30 4923 C 470.215 0.555993 2.03647 0
M  V30 4924 O 469.563 -0.441583 2.24193 0
M  V30 4925 C 469.773 3.07725 1.6464 0
M  V30 4926 C 471.121 3.66074 2.15116 0
M  V30 4927 O 472.145 3.10476 1.74595 0
M  V30 4928 O 471.004 4.63526 2.89493 0
M  V30 4929 H 468.098 0.681958 0.467828 0
M  V30 4930 H 470.644 1.67863 0.24902 0
M  V30 4931 H 469.416 3.80792 0.900734 0
M  V30 4932 H 469.039 3.1158 2.46989 0
M  V30 4933 N 470.036 -0.519951 1.48776 0
M  V30 4934 C 470.983 -1.62352 1.64044 0
M  V30 4935 C 471.953 -1.58945 0.482251 0
M  V30 4936 O 473.138 -1.77219 0.706971 0
M  V30 4937 C 470.278 -3.00579 1.69547 0
M  V30 4938 C 469.391 -3.14145 2.96541 0
M  V30 4939 C 468.526 -4.42991 2.93142 0
M  V30 4940 C 467.565 -4.50122 4.14797 0
M  V30 4941 N 466.702 -5.7037 4.09418 0
M  V30 4942 H 471.542 -1.48643 2.58281 0
M  V30 4943 H 469.079 -0.723516 1.28077 0
M  V30 4944 H 471.037 -3.80671 1.70719 0
M  V30 4945 H 469.667 -3.13036 0.787918 0
M  V30 4946 H 468.719 -2.27239 3.05068 0
M  V30 4947 H 470.031 -3.15275 3.86527 0
M  V30 4948 H 469.185 -5.31385 2.92772 0
M  V30 4949 H 467.924 -4.44398 2.00902 0
M  V30 4950 H 466.929 -3.60133 4.15433 0
M  V30 4951 H 468.154 -4.50445 5.08208 0
M  V30 4952 H 466.1 -5.72655 3.20004 0
M  V30 4953 H 466.017 -5.73036 4.93119 0
M  V30 4954 H 467.285 -6.61023 4.13121 0
M  V30 4955 N 471.514 -1.37532 -0.769588 0
M  V30 4956 C 472.462 -1.33561 -1.90432 0
M  V30 4957 C 473.456 -0.224027 -1.67912 0
M  V30 4958 O 474.662 -0.392174 -1.75676 0
M  V30 4959 H 471.037 -0.416279 -0.626271 0
M  V30 4960 H 473.008 -2.29348 -1.90899 0
M  V30 4961 C 471.757 -1.16162 -3.27722 0
M  V30 4962 H 471.08 -2.00951 -3.45628 0
M  V30 4963 H 472.52 -1.17434 -4.07413 0
M  V30 4964 C 470.979 0.132583 -3.36639 0
M  V30 4965 O 471.509 1.11539 -3.85904 0
M  V30 4966 N 469.715 0.184013 -2.90017 0
M  V30 4967 H 469.262 -0.616415 -2.50116 0
M  V30 4968 H 469.22 1.04956 -2.96364 0
M  V30 4969 N 472.992 0.995999 -1.22138 0
M  V30 4970 C 473.94 2.10673 -0.985876 0
M  V30 4971 C 474.934 1.69255 0.0699553 0
M  V30 4972 O 476.14 1.79812 -0.0822176 0
M  V30 4973 H 472.515 0.688865 -0.30161 0
M  V30 4974 H 474.486 2.27711 -1.92848 0
M  V30 4975 C 473.235 3.42881 -0.576909 0
M  V30 4976 H 472.558 3.75191 -1.38101 0
M  V30 4977 H 473.998 4.21589 -0.451518 0
M  V30 4978 C 472.457 3.29265 0.713196 0
M  V30 4979 O 472.987 3.60777 1.76643 0
M  V30 4980 N 471.193 2.82456 0.683162 0
M  V30 4981 H 470.74 2.5701 -0.174242 0
M  V30 4982 H 470.698 2.73727 1.54663 0
M  V30 4983 N 474.47 1.03057 1.19235 0
M  V30 4984 C 475.42 0.583386 2.2041 0
M  V30 4985 C 476.404 -0.368776 1.56617 0
M  V30 4986 O 477.596 -0.189471 1.75983 0
M  V30 4987 C 474.725 -0.0626534 3.43243 0
M  V30 4988 C 473.811 0.91205 4.14177 0
M  V30 4989 N 474.202 2.07514 4.61272 0
M  V30 4990 C 472.5 0.735859 4.39888 0
M  V30 4991 C 473.201 2.69003 5.15764 0
M  V30 4992 N 472.177 1.96954 5.06666 0
M  V30 4993 H 475.979 1.46988 2.54503 0
M  V30 4994 H 473.493 0.897785 1.35328 0
M  V30 4995 H 475.49 -0.400653 4.1497 0
M  V30 4996 H 474.15 -0.944813 3.1065 0
M  V30 4997 H 475.161 2.45448 4.56043 0
M  V30 4998 H 471.838 -0.0970656 4.17387 0
M  V30 4999 H 473.228 3.67514 5.6248 0
M  V30 5000 N 475.948 -1.35272 0.808662 0
M  V30 5001 C 477.188 -2.00534 0.395668 0
M  V30 5002 C 477.552 -1.62755 -1.01857 0
M  V30 5003 O 478.753 -2.20752 -1.53368 0
M  V30 5004 C 477.024 -3.52732 0.575771 0
M  V30 5005 S 478.583 -4.38067 0.253507 0
M  V30 5006 H 475.401 -0.694962 0.150165 0
M  V30 5007 H 478.003 -1.64823 1.05137 0
M  V30 5008 H 476.707 -3.77714 1.60499 0
M  V30 5009 H 476.238 -3.93285 -0.0951739 0
M  V30 5010 H 478.253 -4.87252 -0.938068 0
M  V30 5011 N 477.426 -0.562348 -1.47226 0
M  V30 5012 C 478.674 -0.0401371 -2.0206 0
M  V30 5013 C 478.995 1.3165 -1.43852 0
M  V30 5014 O 478.265 1.85976 -0.615599 0
M  V30 5015 H 476.845 -0.0118479 -0.746906 0
M  V30 5016 H 479.507 -0.73352 -1.8057 0
M  V30 5017 H 478.603 0.0441254 -3.12069 0
M  V30 5018 N 478.904 1.54736 -0.299062 0
M  V30 5019 C 480.153 1.99279 0.311549 0
M  V30 5020 C 480.466 1.19107 1.55154 0
M  V30 5021 O 481.672 1.53908 2.23662 0
M  V30 5022 C 480.128 3.54768 0.605632 0
M  V30 5023 C 479.736 4.43746 -0.615914 0
M  V30 5024 C 481.48 4.07841 1.17754 0
M  V30 5025 C 479.387 5.90663 -0.29509 0
M  V30 5026 H 478.317 0.744359 0.120187 0
M  V30 5027 H 480.968 1.78919 -0.407464 0
M  V30 5028 H 479.35 3.71021 1.38419 0
M  V30 5029 H 480.524 4.39267 -1.39218 0
M  V30 5030 H 478.839 4.01434 -1.10633 0
M  V30 5031 H 481.436 5.15174 1.43179 0
M  V30 5032 H 481.779 3.58324 2.11918 0
M  V30 5033 H 482.312 3.95123 0.460739 0
M  V30 5034 H 479.051 6.44325 -1.20524 0
M  V30 5035 H 478.571 5.98155 0.44394 0
M  V30 5036 H 480.25 6.46916 0.104048 0
M  V30 5037 N 480.382 0.0267497 1.57577 0
M  V30 5038 C 481.345 -0.940916 2.08996 0
M  V30 5039 C 482.345 -1.25561 1.00455 0
M  V30 5040 O 483.535 -1.19634 1.26623 0
M  V30 5041 C 480.667 -2.25814 2.55384 0
M  V30 5042 H 481.86 -0.495628 2.95776 0
M  V30 5043 H 479.413 -0.221241 1.54726 0
M  V30 5044 H 480.148 -2.74976 1.71926 0
M  V30 5045 H 479.933 -2.04285 3.34679 0
M  V30 5046 H 481.423 -2.95178 2.95398 0
M  V30 5047 N 481.861 -1.55662 -0.24637 0
M  V30 5048 C 483.089 -1.81575 -0.991876 0
M  V30 5049 C 483.504 -0.602545 -1.78927 0
M  V30 5050 O 482.861 0.428795 -1.77391 0
M  V30 5051 C 482.912 -3.05711 -1.92933 0
M  V30 5052 O 482.633 -4.22348 -1.1642 0
M  V30 5053 C 484.134 -3.44428 -2.79078 0
M  V30 5054 H 481.354 -0.604209 -0.291844 0
M  V30 5055 H 483.898 -2.02722 -0.269095 0
M  V30 5056 H 482.053 -2.86612 -2.60638 0
M  V30 5057 H 482.467 -4.92706 -1.79835 0
M  V30 5058 H 483.941 -4.34388 -3.40603 0
M  V30 5059 H 484.418 -2.65037 -3.50217 0
M  V30 5060 H 485.024 -3.65879 -2.16824 0
M  V30 5061 N 483.339 0.512053 -1.4905 0
M  V30 5062 C 484.302 1.59704 -1.64399 0
M  V30 5063 C 485.302 1.52285 -0.516317 0
M  V30 5064 O 486.492 1.55635 -0.782527 0
M  V30 5065 C 483.624 2.9935 -1.63102 0
M  V30 5066 H 484.817 1.47428 -2.61161 0
M  V30 5067 H 482.37 0.735469 -1.37915 0
M  V30 5068 H 483.105 3.17116 -0.678836 0
M  V30 5069 H 482.89 3.06144 -2.44986 0
M  V30 5070 H 484.38 3.782 -1.77072 0
M  V30 5071 N 484.817 1.37938 0.762283 0
M  V30 5072 C 485.78 1.34279 1.85747 0
M  V30 5073 C 486.78 0.244969 1.58923 0
M  V30 5074 O 487.97 0.501365 1.66829 0
M  V30 5075 C 485.102 1.08833 3.23061 0
M  V30 5076 H 486.295 2.31705 1.90401 0
M  V30 5077 H 483.848 1.23105 0.963057 0
M  V30 5078 H 484.583 0.119767 3.24079 0
M  V30 5079 H 484.368 1.88306 3.43923 0
M  V30 5080 H 485.858 1.08946 4.03138 0
M  V30 5081 N 486.295 -0.989507 1.22664 0
M  V30 5082 C 487.52 -1.77031 1.08051 0
M  V30 5083 C 487.945 -1.84535 -0.364483 0
M  V30 5084 O 487.303 -1.3003 -1.2634 0
M  V30 5085 C 487.351 -3.18 1.70024 0
M  V30 5086 O 486.455 -4.01161 0.956216 0
M  V30 5087 H 485.796 -0.545008 0.379292 0
M  V30 5088 H 488.326 -1.24277 1.62531 0
M  V30 5089 H 488.336 -3.68616 1.74888 0
M  V30 5090 H 487.011 -3.11853 2.75174 0
M  V30 5091 H 485.588 -3.59687 0.98384 0
M  V30 5092 N 487.773 -1.03688 -1.18687 0
M  V30 5093 C 489.003 -0.756819 -1.92239 0
M  V30 5094 C 489.411 0.689374 -1.76194 0
M  V30 5095 O 488.754 1.48126 -1.08648 0
M  V30 5096 C 488.816 -1.03851 -3.44173 0
M  V30 5097 C 488.48 -2.47785 -3.83994 0
M  V30 5098 C 489.477 -3.4595 -3.88091 0
M  V30 5099 C 487.162 -2.82397 -4.154 0
M  V30 5100 C 489.156 -4.76779 -4.23038 0
M  V30 5101 C 486.843 -4.13433 -4.50018 0
M  V30 5102 C 487.841 -5.10434 -4.53813 0
M  V30 5103 O 487.529 -6.39122 -4.87625 0
M  V30 5104 H 487.261 -0.275678 -0.617234 0
M  V30 5105 H 489.815 -1.38658 -1.51536 0
M  V30 5106 H 488.045 -0.351612 -3.85098 0
M  V30 5107 H 489.734 -0.746846 -3.9897 0
M  V30 5108 H 490.5 -3.20549 -3.63969 0
M  V30 5109 H 486.379 -2.07568 -4.11627 0
M  V30 5110 H 489.923 -5.52488 -4.25914 0
M  V30 5111 H 485.82 -4.38604 -4.736 0
M  V30 5112 H 486.588 -6.43715 -5.05542 0
M  V30 5113 N 489.251 1.34841 -0.815825 0
M  V30 5114 C 490.662 1.80937 -0.46029 0
M  V30 5115 C 491.013 1.67685 1.01863 0
M  V30 5116 O 490.138 1.21277 1.79223 0
M  V30 5117 C 490.733 3.28509 -0.828708 0
M  V30 5118 C 489.292 3.72712 -0.525644 0
M  V30 5119 C 488.439 2.56676 -1.04941 0
M  V30 5120 H 491.39 1.22688 -1.00664 0
M  V30 5121 H 491.411 3.80279 -0.129757 0
M  V30 5122 H 490.923 3.38122 -1.90513 0
M  V30 5123 H 489.024 3.68642 0.541666 0
M  V30 5124 H 489.137 4.67119 -1.06474 0
M  V30 5125 H 487.501 2.50302 -0.471286 0
M  V30 5126 H 488.284 2.69063 -2.13214 0
M  V30 5127 N 490.729 0.570148 1.46925 0
M  V30 5128 C 491.677 -0.183181 2.31878 0
M  V30 5129 C 492.671 -0.896721 1.43719 0
M  V30 5130 O 493.877 -0.816536 1.60414 0
M  V30 5131 H 490.252 -0.077944 0.74795 0
M  V30 5132 H 492.223 0.552312 2.93244 0
M  V30 5133 C 490.972 -1.19172 3.2664 0
M  V30 5134 H 490.295 -0.652088 3.94446 0
M  V30 5135 H 491.735 -1.68946 3.88887 0
M  V30 5136 C 490.194 -2.24627 2.51086 0
M  V30 5137 O 490.724 -3.31773 2.26472 0
M  V30 5138 N 488.93 -1.98898 2.11867 0
M  V30 5139 H 488.477 -1.11777 2.32086 0
M  V30 5140 H 488.435 -2.6967 1.61634 0
M  V30 5141 N 492.207 -1.54576 0.307264 0
M  V30 5142 C 493.453 -2.0056 -0.300612 0
M  V30 5143 C 493.786 -1.1953 -1.53057 0
M  V30 5144 O 493.061 -0.27337 -1.92569 0
M  V30 5145 C 493.344 -3.54167 -0.650987 0
M  V30 5146 C 493.197 -4.45933 0.588539 0
M  V30 5147 C 494.516 -4.14645 -1.47506 0
M  V30 5148 H 491.635 -0.729075 -0.107788 0
M  V30 5149 H 494.277 -1.85286 0.420606 0
M  V30 5150 H 492.427 -3.67313 -1.26544 0
M  V30 5151 H 494.099 -4.44683 1.22697 0
M  V30 5152 H 492.342 -4.16274 1.22058 0
M  V30 5153 H 493.013 -5.51189 0.299153 0
M  V30 5154 H 495.489 -4.04973 -0.955821 0
M  V30 5155 H 494.365 -5.22269 -1.68899 0
M  V30 5156 H 494.626 -3.66921 -2.4662 0
M  V30 5157 O 493.724 -0.174109 -1.60559 0
M  V30 5158 H 494.415 0.415114 -1.892 0
M  V30 END ATOM
M  V30 BEGIN BOND
M  V30 END BOND
M  V30 END CTAB
M  END
$$$$
